0
                    3D
 Structure written by MMmdl.
167175  0  0  1  0            999 V2000
  -30.6993  -14.4538   20.5091 C   0  0  0  0  0  0
  -30.4280  -12.2711   19.4502 C   0  0  0  0  0  0
  -29.5128  -12.4764   18.2219 C   0  0  0  0  0  0
  -28.0284  -12.3416   18.6213 C   0  0  0  0  0  0
  -27.6608  -13.1988   19.8610 C   0  0  2  0  0  0
  -28.6977  -13.0055   20.9918 C   0  0  0  0  0  0
  -25.2635  -13.8174   20.5725 C   0  0  0  0  0  0
  -24.1866  -13.0471   20.9202 C   0  0  0  0  0  0
  -24.6380  -11.6914   20.8692 C   0  0  0  0  0  0
  -23.9045  -10.4318   21.0363 C   0  0  0  0  0  0
  -24.3614   -9.4260   21.9156 C   0  0  0  0  0  0
  -23.6315   -8.2275   22.0746 C   0  0  0  0  0  0
  -22.4298   -8.0308   21.3546 C   0  0  0  0  0  0
  -21.9920   -9.0265   20.4639 C   0  0  0  0  0  0
  -22.7218  -10.2150   20.3026 C   0  0  0  0  0  0
  -21.6880   -6.0760   22.5284 C   0  0  0  0  0  0
  -21.4023   -6.5663   23.8214 C   0  0  0  0  0  0
  -21.3641   -5.6798   24.9172 C   0  0  0  0  0  0
  -21.6043   -4.3065   24.7215 C   0  0  0  0  0  0
  -21.8818   -3.8165   23.4343 C   0  0  0  0  0  0
  -21.9208   -4.6988   22.3404 C   0  0  0  0  0  0
  -22.7888  -13.5270   21.1864 C   0  0  0  0  0  0
  -22.1673   -4.2178   21.0977 F   0  0  0  0  0  0
  -21.5632   -3.4549   25.7730 F   0  0  0  0  0  0
  -30.0424  -13.2677   20.4595 N   0  0  0  0  0  0
  -26.3015  -12.9302   20.3252 N   0  0  0  0  0  0
  -25.9292  -11.6489   20.5664 N   0  0  0  0  0  0
  -22.0518  -12.8215   22.0380 N   0  0  0  0  0  0
  -25.4460  -15.1893   20.4244 N   0  0  0  0  0  0
  -31.8720  -14.5972   20.1542 O   0  0  0  0  0  0
  -21.6673   -6.8905   21.4246 O   0  0  0  0  0  0
  -22.3573  -14.5590   20.6737 O   0  0  0  0  0  0
  -24.6122  -31.8702   23.2124 C   0  0  0  0  0  0
  -25.9020  -32.4831   23.8417 C   0  0  1  0  0  0
  -27.2388  -27.4503   20.0976 C   0  0  0  0  0  0
  -25.5884  -33.8635   24.2342 N   0  0  0  0  0  0
  -23.3993  -30.4935   21.5540 C   0  0  2  0  0  0
  -24.8473  -28.9581   20.1193 C   0  0  0  0  0  0
  -22.7404  -29.4676   22.5027 C   0  0  0  0  0  0
  -18.0298  -28.1367   22.8456 C   0  0  0  0  0  0
  -24.1487  -36.7330   23.2641 C   0  0  0  0  0  0
  -25.9256  -30.8379   21.3658 C   0  0  0  0  0  0
  -26.0030  -29.4685   20.7238 C   0  0  0  0  0  0
  -27.1997  -28.7176   20.7181 C   0  0  0  0  0  0
  -26.0752  -26.9663   19.4624 C   0  0  0  0  0  0
  -24.8755  -27.7038   19.4879 C   0  0  0  0  0  0
  -23.6076  -29.8219   20.1694 C   0  0  0  0  0  0
  -25.4110  -36.3124   24.0343 C   0  0  1  0  0  0
  -20.5862  -28.3641   23.1323 C   0  0  2  0  0  0
  -20.6767  -26.9376   22.5431 C   0  0  0  0  0  0
  -19.5797  -26.6433   21.5153 C   0  0  0  0  0  0
  -18.1950  -26.7960   22.1502 C   0  0  0  0  0  0
  -19.1531  -28.8822   23.2907 C   0  0  0  0  0  0
  -18.9451  -30.1430   23.8913 C   0  0  0  0  0  0
  -17.6449  -30.6546   24.0587 C   0  0  0  0  0  0
  -25.9036  -34.9488   23.5146 C   0  0  0  0  0  0
  -16.5347  -29.9046   23.6342 C   0  0  0  0  0  0
  -16.7280  -28.6486   23.0311 C   0  0  0  0  0  0
  -26.4464  -31.6593   25.0726 C   0  0  0  0  0  0
  -25.3757  -31.3650   26.1485 C   0  0  0  0  0  0
  -27.0284  -30.3041   24.6061 C   0  0  0  0  0  0
  -27.6043  -32.4304   25.7479 C   0  0  0  0  0  0
  -27.5586  -37.1824   24.8466 C   0  0  0  0  0  0
  -21.4143  -29.2991   22.3715 N   0  0  0  0  0  0
  -26.4300  -37.3804   23.9405 N   0  0  0  0  0  0
  -24.6641  -31.0806   22.1036 N   0  0  0  0  0  0
  -23.4198  -28.8249   23.3081 O   0  0  0  0  0  0
  -28.4155  -26.7367   20.0400 O   0  0  0  0  0  0
  -26.5601  -34.8924   22.4707 O   0  0  0  0  0  0
  -23.5319  -32.1446   23.7530 O   0  0  0  0  0  0
  -29.2019  -16.3304   21.5089 C   0  0  0  0  0  0
  -29.8474  -15.6894   20.4842 C   0  0  0  0  0  0
  -28.7751  -17.3824   19.5759 C   0  0  0  0  0  0
  -28.1739  -18.2607   18.5217 C   0  0  0  0  0  0
  -26.3684  -21.8624   19.6822 C   0  0  0  0  0  0
  -25.4204  -22.7149   21.8346 C   0  0  0  0  0  0
  -28.0765  -19.8497   21.4286 C   0  0  0  0  0  0
  -27.7169  -24.4006   20.4935 C   0  0  0  0  0  0
  -26.9335  -20.7696   21.9114 C   0  0  0  0  0  0
  -27.8764  -23.1101   21.3342 C   0  0  0  0  0  0
  -27.6713  -18.3593   21.5751 C   0  0  0  0  0  0
  -28.5436  -25.6209   20.9338 C   0  0  0  0  0  0
  -26.6855  -22.1168   21.1748 C   0  0  0  0  0  0
  -28.5614  -17.3972   20.9109 N   0  0  0  0  0  0
  -29.6210  -16.3804   19.3332 N   0  3  0  0  0  0
  -31.4773  -12.3498   19.1622 H   0  0  0  0  0  0
  -30.3090  -11.2646   19.8575 H   0  0  0  0  0  0
  -29.7576  -11.7500   17.4467 H   0  0  0  0  0  0
  -29.6907  -13.4572   17.7780 H   0  0  0  0  0  0
  -27.8382  -11.2891   18.8357 H   0  0  0  0  0  0
  -27.3844  -12.5953   17.7804 H   0  0  0  0  0  0
  -27.6937  -14.2368   19.5342 H   0  0  0  0  0  0
  -28.6529  -11.9818   21.3678 H   0  0  0  0  0  0
  -28.4694  -13.6430   21.8468 H   0  0  0  0  0  0
  -25.2751   -9.5787   22.4727 H   0  0  0  0  0  0
  -24.0064   -7.4688   22.7453 H   0  0  0  0  0  0
  -21.0867   -8.8756   19.8947 H   0  0  0  0  0  0
  -22.3653  -10.9689   19.6138 H   0  0  0  0  0  0
  -21.1999   -7.6164   23.9727 H   0  0  0  0  0  0
  -21.1463   -6.0532   25.9071 H   0  0  0  0  0  0
  -22.0603   -2.7632   23.2832 H   0  0  0  0  0  0
  -22.4133  -11.9862   22.4718 H   0  0  0  0  0  0
  -21.1133  -13.1233   22.2592 H   0  0  0  0  0  0
  -24.6870  -15.8490   20.5458 H   0  0  0  0  0  0
  -26.3068  -15.6207   20.1181 H   0  0  0  0  0  0
  -26.7095  -32.5563   23.1194 H   0  0  0  0  0  0
  -25.0013  -33.9782   25.0467 H   0  0  0  0  0  0
  -22.6868  -31.3093   21.4162 H   0  0  0  0  0  0
  -23.3738  -35.9675   23.3329 H   0  0  0  0  0  0
  -24.3565  -36.8922   22.2048 H   0  0  0  0  0  0
  -23.7254  -37.6552   23.6635 H   0  0  0  0  0  0
  -26.0243  -31.5982   20.5894 H   0  0  0  0  0  0
  -26.8180  -30.9029   21.9757 H   0  0  0  0  0  0
  -28.0955  -29.1071   21.1792 H   0  0  0  0  0  0
  -26.0919  -26.0270   18.9292 H   0  0  0  0  0  0
  -23.9921  -27.3194   18.9960 H   0  0  0  0  0  0
  -23.7092  -30.5935   19.4050 H   0  0  0  0  0  0
  -22.7310  -29.2381   19.8793 H   0  0  0  0  0  0
  -25.1280  -36.2018   25.0839 H   0  0  0  0  0  0
  -20.9949  -28.3220   24.1442 H   0  0  0  0  0  0
  -20.5634  -26.2249   23.3599 H   0  0  0  0  0  0
  -21.6664  -26.7413   22.1265 H   0  0  0  0  0  0
  -19.6941  -25.6371   21.1102 H   0  0  0  0  0  0
  -19.6798  -27.3325   20.6754 H   0  0  0  0  0  0
  -17.4278  -26.6825   21.3823 H   0  0  0  0  0  0
  -18.0285  -26.0012   22.8794 H   0  0  0  0  0  0
  -19.7941  -30.7243   24.2292 H   0  0  0  0  0  0
  -17.5000  -31.6222   24.5209 H   0  0  0  0  0  0
  -15.5342  -30.2961   23.7631 H   0  0  0  0  0  0
  -15.8688  -28.0852   22.6962 H   0  0  0  0  0  0
  -24.5923  -30.7001   25.7822 H   0  0  0  0  0  0
  -24.8947  -32.2777   26.5014 H   0  0  0  0  0  0
  -25.8144  -30.8765   27.0199 H   0  0  0  0  0  0
  -26.2801  -29.6813   24.1146 H   0  0  0  0  0  0
  -27.4099  -29.7253   25.4491 H   0  0  0  0  0  0
  -27.8617  -30.4352   23.9154 H   0  0  0  0  0  0
  -27.2656  -33.3584   26.2100 H   0  0  0  0  0  0
  -28.3827  -32.6917   25.0291 H   0  0  0  0  0  0
  -28.0749  -31.8414   26.5363 H   0  0  0  0  0  0
  -28.2626  -38.0103   24.7500 H   0  0  0  0  0  0
  -28.1067  -36.2639   24.6316 H   0  0  0  0  0  0
  -27.2291  -37.1494   25.8865 H   0  0  0  0  0  0
  -20.9329  -29.8647   21.6880 H   0  0  0  0  0  0
  -26.0212  -38.2897   24.1387 H   0  0  0  0  0  0
  -29.1433  -16.1123   22.5640 H   0  0  0  0  0  0
  -28.8454  -19.0966   18.3336 H   0  0  0  0  0  0
  -27.1987  -18.6176   18.8540 H   0  0  0  0  0  0
  -28.0521  -17.6736   17.6116 H   0  0  0  0  0  0
  -25.5878  -21.1116   19.5540 H   0  0  0  0  0  0
  -27.2394  -21.5220   19.1237 H   0  0  0  0  0  0
  -26.0121  -22.7641   19.1832 H   0  0  0  0  0  0
  -24.6011  -21.9954   21.8452 H   0  0  0  0  0  0
  -25.0386  -23.5969   21.3209 H   0  0  0  0  0  0
  -25.6068  -22.9956   22.8725 H   0  0  0  0  0  0
  -28.9816  -20.0522   22.0040 H   0  0  0  0  0  0
  -28.3377  -20.0800   20.4015 H   0  0  0  0  0  0
  -26.6773  -24.6968   20.5382 H   0  0  0  0  0  0
  -27.9360  -24.1790   19.4481 H   0  0  0  0  0  0
  -27.0558  -20.9436   22.9821 H   0  0  0  0  0  0
  -26.0035  -20.2044   21.8333 H   0  0  0  0  0  0
  -27.9813  -23.3767   22.3874 H   0  0  0  0  0  0
  -28.8160  -22.6274   21.0650 H   0  0  0  0  0  0
  -26.6791  -18.1855   21.1587 H   0  0  0  0  0  0
  -27.6073  -18.0930   22.6304 H   0  0  0  0  0  0
  -29.5977  -25.3446   20.9611 H   0  0  0  0  0  0
  -28.2763  -25.9206   21.9479 H   0  0  0  0  0  0
  -30.0173  -16.1414   18.4301 H   0  0  0  0  0  0
  1 25  1  0  0  0
  1 30  2  0  0  0
  1 72  1  0  0  0
  2  3  1  0  0  0
  2 25  1  0  0  0
  2 86  1  0  0  0
  2 87  1  0  0  0
  3  4  1  0  0  0
  3 88  1  0  0  0
  3 89  1  0  0  0
  4  5  1  0  0  0
  4 90  1  0  0  0
  4 91  1  0  0  0
  5  6  1  0  0  0
  5 26  1  0  0  0
  5 92  1  0  0  0
  6 25  1  0  0  0
  6 93  1  0  0  0
  6 94  1  0  0  0
  7  8  2  0  0  0
  7 26  1  0  0  0
  7 29  1  0  0  0
  8  9  1  0  0  0
  8 22  1  0  0  0
  9 10  1  0  0  0
  9 27  2  0  0  0
 10 11  2  0  0  0
 10 15  1  0  0  0
 11 12  1  0  0  0
 11 95  1  0  0  0
 12 13  2  0  0  0
 12 96  1  0  0  0
 13 14  1  0  0  0
 13 31  1  0  0  0
 14 15  2  0  0  0
 14 97  1  0  0  0
 15 98  1  0  0  0
 16 17  2  0  0  0
 16 21  1  0  0  0
 16 31  1  0  0  0
 17 18  1  0  0  0
 17 99  1  0  0  0
 18 19  2  0  0  0
 18100  1  0  0  0
 19 20  1  0  0  0
 19 24  1  0  0  0
 20 21  2  0  0  0
 20101  1  0  0  0
 21 23  1  0  0  0
 22 28  1  0  0  0
 22 32  2  0  0  0
 26 27  1  0  0  0
 28102  1  0  0  0
 28103  1  0  0  0
 29104  1  0  0  0
 29105  1  0  0  0
 33 34  1  0  0  0
 33 66  1  0  0  0
 33 70  2  0  0  0
 34 36  1  0  0  0
 34 59  1  0  0  0
 34106  1  0  0  0
 35 44  2  0  0  0
 35 45  1  0  0  0
 35 68  1  0  0  0
 36 56  1  0  0  0
 36107  1  0  0  0
 37 39  1  0  0  0
 37 47  1  0  0  0
 37 66  1  0  0  0
 37108  1  0  0  0
 38 43  2  0  0  0
 38 46  1  0  0  0
 38 47  1  0  0  0
 39 64  1  0  0  0
 39 67  2  0  0  0
 40 52  1  0  0  0
 40 53  2  0  0  0
 40 58  1  0  0  0
 41109  1  0  0  0
 41110  1  0  0  0
 41111  1  0  0  0
 41 48  1  0  0  0
 42 43  1  0  0  0
 42 66  1  0  0  0
 42112  1  0  0  0
 42113  1  0  0  0
 43 44  1  0  0  0
 44114  1  0  0  0
 45 46  2  0  0  0
 45115  1  0  0  0
 46116  1  0  0  0
 47117  1  0  0  0
 47118  1  0  0  0
 48 56  1  0  0  0
 48 65  1  0  0  0
 48119  1  0  0  0
 49 50  1  0  0  0
 49 53  1  0  0  0
 49 64  1  0  0  0
 49120  1  0  0  0
 50 51  1  0  0  0
 50121  1  0  0  0
 50122  1  0  0  0
 51 52  1  0  0  0
 51123  1  0  0  0
 51124  1  0  0  0
 52125  1  0  0  0
 52126  1  0  0  0
 53 54  1  0  0  0
 54 55  2  0  0  0
 54127  1  0  0  0
 55 57  1  0  0  0
 55128  1  0  0  0
 56 69  2  0  0  0
 57 58  2  0  0  0
 57129  1  0  0  0
 58130  1  0  0  0
 59 60  1  0  0  0
 59 61  1  0  0  0
 59 62  1  0  0  0
 60131  1  0  0  0
 60132  1  0  0  0
 60133  1  0  0  0
 61134  1  0  0  0
 61135  1  0  0  0
 61136  1  0  0  0
 62137  1  0  0  0
 62138  1  0  0  0
 62139  1  0  0  0
 63 65  1  0  0  0
 63140  1  0  0  0
 63141  1  0  0  0
 63142  1  0  0  0
 64143  1  0  0  0
 65144  1  0  0  0
 68 82  1  0  0  0
 71 72  2  0  0  0
 71 84  1  0  0  0
 71145  1  0  0  0
 72 85  1  0  0  0
 73 74  1  0  0  0
 73 84  1  0  0  0
 73 85  2  0  0  0
 74146  1  0  0  0
 74147  1  0  0  0
 74148  1  0  0  0
 75149  1  0  0  0
 75150  1  0  0  0
 75151  1  0  0  0
 75 83  1  0  0  0
 76 83  1  0  0  0
 76152  1  0  0  0
 76153  1  0  0  0
 76154  1  0  0  0
 77 79  1  0  0  0
 77 81  1  0  0  0
 77155  1  0  0  0
 77156  1  0  0  0
 78 80  1  0  0  0
 78 82  1  0  0  0
 78157  1  0  0  0
 78158  1  0  0  0
 79 83  1  0  0  0
 79159  1  0  0  0
 79160  1  0  0  0
 80 83  1  0  0  0
 80161  1  0  0  0
 80162  1  0  0  0
 81 84  1  0  0  0
 81163  1  0  0  0
 81164  1  0  0  0
 82165  1  0  0  0
 82166  1  0  0  0
 85167  1  0  0  0
M  CHG  1  85   1
M  ISO  4   1 100  68 101  72 100  82 101
M  END
> <chiral flag>
0

> <version>
0

> <s_m_source_file>
/data/baiqing/PycharmProjects/Reinvent-master-3.2/result/LINK_invent/BTK/process_docking_weight1_custom_sum_contain_oxygen_bond_distance_aromatic_linkinvent_7_9_3/rearranged_h_0076.sdf

> <i_m_source_file_index>
1

> <r_mmod_Potential_Energy-OPLS-2005>
-49.0517539978027

> <r_mmod_Stretch_Energy-OPLS-2005>
34.4950866699219

> <r_mmod_Bend_Energy-OPLS-2005>
116.607559204102

> <r_mmod_Torsional_Energy-OPLS-2005>
273.155731201172

> <r_mmod_Improper_Torsional_Energy-OPLS-2005>
15.2416925430298

> <r_mmod_Van_der_Waal_Energy-OPLS-2005>
122.920829772949

> <r_mmod_Electrostatic_Energy-OPLS-2005>
-223.167007446289

> <r_mmod_Solvation_Energy-OPLS-2005>
-403.052734375

> <b_mmod_Minimization_Converged-OPLS-2005>
0

> <r_mmod_RMS_Derivative-OPLS-2005>
4.20662593841553

$$$$
1
                    3D
 Structure written by MMmdl.
169177  0  0  1  0            999 V2000
  -30.7446  -14.4819   20.5360 C   0  0  0  0  0  0
  -30.4403  -12.2963   19.4340 C   0  0  0  0  0  0
  -29.4937  -12.4612   18.2248 C   0  0  0  0  0  0
  -28.0167  -12.3245   18.6498 C   0  0  0  0  0  0
  -27.6696  -13.1546   19.9125 C   0  0  2  0  0  0
  -28.7379  -12.9236   21.0057 C   0  0  0  0  0  0
  -25.2685  -13.7961   20.5835 C   0  0  0  0  0  0
  -24.1843  -13.0316   20.9259 C   0  0  0  0  0  0
  -24.6330  -11.6759   20.8853 C   0  0  0  0  0  0
  -23.8966  -10.4176   21.0489 C   0  0  0  0  0  0
  -24.3518   -9.4115   21.9268 C   0  0  0  0  0  0
  -23.6212   -8.2147   22.0785 C   0  0  0  0  0  0
  -22.4219   -8.0195   21.3538 C   0  0  0  0  0  0
  -21.9836   -9.0180   20.4640 C   0  0  0  0  0  0
  -22.7152  -10.2066   20.3107 C   0  0  0  0  0  0
  -21.6809   -6.0647   22.5252 C   0  0  0  0  0  0
  -21.3973   -6.5578   23.8178 C   0  0  0  0  0  0
  -21.3694   -5.6782   24.9174 C   0  0  0  0  0  0
  -21.6071   -4.3043   24.7261 C   0  0  0  0  0  0
  -21.8821   -3.8090   23.4393 C   0  0  0  0  0  0
  -21.9176   -4.6872   22.3416 C   0  0  0  0  0  0
  -22.7886  -13.5207   21.1881 C   0  0  0  0  0  0
  -22.1650   -4.2035   21.1013 F   0  0  0  0  0  0
  -21.5686   -3.4552   25.7796 F   0  0  0  0  0  0
  -30.0547  -13.2941   20.4490 N   0  0  0  0  0  0
  -26.3065  -12.8994   20.3687 N   0  0  0  0  0  0
  -25.9272  -11.6201   20.6027 N   0  0  0  0  0  0
  -22.0496  -12.8207   22.0418 N   0  0  0  0  0  0
  -25.4548  -15.1649   20.4238 N   0  0  0  0  0  0
  -31.9051  -14.5540   20.1231 O   0  0  0  0  0  0
  -21.6611   -6.8789   21.4206 O   0  0  0  0  0  0
  -22.3646  -14.5549   20.6748 O   0  0  0  0  0  0
  -24.6117  -31.8688   23.2176 C   0  0  0  0  0  0
  -25.9042  -32.4838   23.8398 C   0  0  1  0  0  0
  -27.2265  -27.4695   20.0539 C   0  0  0  0  0  0
  -25.5864  -33.8639   24.2314 N   0  0  0  0  0  0
  -23.3921  -30.5007   21.5603 C   0  0  2  0  0  0
  -24.8258  -28.9655   20.1201 C   0  0  0  0  0  0
  -22.7359  -29.4707   22.5047 C   0  0  0  0  0  0
  -18.0276  -28.1346   22.8519 C   0  0  0  0  0  0
  -24.1489  -36.7335   23.2643 C   0  0  0  0  0  0
  -25.9226  -30.8385   21.3684 C   0  0  0  0  0  0
  -25.9878  -29.4807   20.7049 C   0  0  0  0  0  0
  -27.1877  -28.7373   20.6740 C   0  0  0  0  0  0
  -26.0401  -26.9532   19.4818 C   0  0  0  0  0  0
  -24.8424  -27.6964   19.5176 C   0  0  0  0  0  0
  -23.5900  -29.8345   20.1737 C   0  0  0  0  0  0
  -25.4103  -36.3127   24.0339 C   0  0  1  0  0  0
  -20.5854  -28.3641   23.1337 C   0  0  2  0  0  0
  -20.6767  -26.9386   22.5425 C   0  0  0  0  0  0
  -19.5728  -26.6366   21.5238 C   0  0  0  0  0  0
  -18.1910  -26.7900   22.1666 C   0  0  0  0  0  0
  -19.1512  -28.8813   23.2932 C   0  0  0  0  0  0
  -18.9445  -30.1413   23.8915 C   0  0  0  0  0  0
  -17.6451  -30.6575   24.0555 C   0  0  0  0  0  0
  -25.9040  -34.9493   23.5136 C   0  0  0  0  0  0
  -16.5338  -29.9072   23.6334 C   0  0  0  0  0  0
  -16.7242  -28.6479   23.0364 C   0  0  0  0  0  0
  -26.4512  -31.6630   25.0723 C   0  0  0  0  0  0
  -25.3825  -31.3768   26.1545 C   0  0  0  0  0  0
  -27.0370  -30.3097   24.6133 C   0  0  0  0  0  0
  -27.6068  -32.4430   25.7425 C   0  0  0  0  0  0
  -27.5583  -37.1823   24.8468 C   0  0  0  0  0  0
  -21.4108  -29.3025   22.3762 N   0  0  0  0  0  0
  -26.4298  -37.3807   23.9398 N   0  0  0  0  0  0
  -24.6605  -31.0830   22.1060 N   0  0  0  0  0  0
  -23.4172  -28.8272   23.3099 O   0  0  0  0  0  0
  -28.4345  -26.8068   20.0244 O   0  0  0  0  0  0
  -26.5647  -34.8938   22.4730 O   0  0  0  0  0  0
  -23.5332  -32.1425   23.7616 O   0  0  0  0  0  0
  -31.1767  -18.2158   20.7783 C   0  0  0  0  0  0
  -32.2221  -18.1345   22.6691 C   0  0  0  0  0  0
  -31.0344  -16.9476   21.3036 C   0  0  0  0  0  0
  -29.5015  -16.3486   19.4641 C   0  0  0  0  0  0
  -28.9805  -15.8330   21.9383 C   0  0  0  0  0  0
  -32.3877  -23.3437   20.5580 C   0  0  0  0  0  0
  -30.7851  -23.1341   22.4847 C   0  0  0  0  0  0
  -29.8563  -24.8755   19.9543 C   0  0  0  0  0  0
  -29.8716  -23.3379   20.1419 C   0  0  0  0  0  0
  -31.0274  -21.2085   20.8505 C   0  0  0  0  0  0
  -32.1268  -20.4164   21.6204 C   0  0  0  0  0  0
  -28.4564  -25.4367   19.6407 C   0  0  0  0  0  0
  -30.0575  -15.8641   20.8314 C   0  0  0  0  0  0
  -31.0316  -22.7603   21.0064 C   0  0  0  0  0  0
  -31.7513  -16.8954   22.5083 N   0  0  0  0  0  0
  -31.8615  -18.9862   21.6975 N   0  0  0  0  0  0
  -31.4774  -12.3936   19.1147 H   0  0  0  0  0  0
  -30.3645  -11.2868   19.8453 H   0  0  0  0  0  0
  -29.7281  -11.7089   17.4682 H   0  0  0  0  0  0
  -29.6545  -13.4324   17.7535 H   0  0  0  0  0  0
  -27.8390  -11.2668   18.8588 H   0  0  0  0  0  0
  -27.3538  -12.5951   17.8283 H   0  0  0  0  0  0
  -27.6838  -14.1938   19.6385 H   0  0  0  0  0  0
  -28.7501  -11.8646   21.2720 H   0  0  0  0  0  0
  -28.5090  -13.3937   21.9556 H   0  0  0  0  0  0
  -25.2630   -9.5585   22.4900 H   0  0  0  0  0  0
  -23.9874   -7.4535   22.7508 H   0  0  0  0  0  0
  -21.0780   -8.8718   19.8946 H   0  0  0  0  0  0
  -22.3617  -10.9642   19.6262 H   0  0  0  0  0  0
  -21.1918   -7.6084   23.9624 H   0  0  0  0  0  0
  -21.1565   -6.0550   25.9083 H   0  0  0  0  0  0
  -22.0582   -2.7517   23.2953 H   0  0  0  0  0  0
  -22.4046  -11.9792   22.4719 H   0  0  0  0  0  0
  -21.1178  -13.1339   22.2814 H   0  0  0  0  0  0
  -24.7199  -15.8455   20.5770 H   0  0  0  0  0  0
  -26.3338  -15.5845   20.1406 H   0  0  0  0  0  0
  -26.7085  -32.5521   23.1140 H   0  0  0  0  0  0
  -24.9893  -33.9807   25.0367 H   0  0  0  0  0  0
  -22.6809  -31.3194   21.4305 H   0  0  0  0  0  0
  -23.3742  -35.9684   23.3321 H   0  0  0  0  0  0
  -24.3570  -36.8940   22.2055 H   0  0  0  0  0  0
  -23.7267  -37.6556   23.6648 H   0  0  0  0  0  0
  -26.0527  -31.6151   20.6131 H   0  0  0  0  0  0
  -26.8046  -30.8649   21.9970 H   0  0  0  0  0  0
  -28.0879  -29.1426   21.1108 H   0  0  0  0  0  0
  -26.0231  -25.9901   18.9895 H   0  0  0  0  0  0
  -23.9412  -27.2963   19.0738 H   0  0  0  0  0  0
  -23.6922  -30.6120   19.4158 H   0  0  0  0  0  0
  -22.7087  -29.2593   19.8841 H   0  0  0  0  0  0
  -25.1283  -36.1992   25.0835 H   0  0  0  0  0  0
  -20.9951  -28.3187   24.1452 H   0  0  0  0  0  0
  -20.5698  -26.2249   23.3605 H   0  0  0  0  0  0
  -21.6638  -26.7452   22.1189 H   0  0  0  0  0  0
  -19.6899  -25.6282   21.1250 H   0  0  0  0  0  0
  -19.6646  -27.3195   20.6770 H   0  0  0  0  0  0
  -17.4187  -26.6659   21.4056 H   0  0  0  0  0  0
  -18.0304  -26.0015   22.9030 H   0  0  0  0  0  0
  -19.7915  -30.7238   24.2298 H   0  0  0  0  0  0
  -17.4997  -31.6260   24.5126 H   0  0  0  0  0  0
  -15.5340  -30.2978   23.7617 H   0  0  0  0  0  0
  -15.8667  -28.0795   22.7084 H   0  0  0  0  0  0
  -24.6120  -30.6906   25.8022 H   0  0  0  0  0  0
  -24.8880  -32.2909   26.4797 H   0  0  0  0  0  0
  -25.8291  -30.9181   27.0375 H   0  0  0  0  0  0
  -27.8821  -30.4415   23.9373 H   0  0  0  0  0  0
  -27.4092  -29.7306   25.4596 H   0  0  0  0  0  0
  -26.2965  -29.6825   24.1139 H   0  0  0  0  0  0
  -27.2678  -33.3761   26.1921 H   0  0  0  0  0  0
  -28.3830  -32.6967   25.0201 H   0  0  0  0  0  0
  -28.0818  -31.8635   26.5353 H   0  0  0  0  0  0
  -28.2599  -38.0118   24.7504 H   0  0  0  0  0  0
  -28.1063  -36.2643   24.6291 H   0  0  0  0  0  0
  -27.2290  -37.1484   25.8869 H   0  0  0  0  0  0
  -20.9258  -29.8686   21.6938 H   0  0  0  0  0  0
  -26.0185  -38.2890   24.1366 H   0  0  0  0  0  0
  -30.7652  -18.6593   19.8833 H   0  0  0  0  0  0
  -32.7821  -18.4422   23.5429 H   0  0  0  0  0  0
  -28.8715  -15.6373   18.9443 H   0  0  0  0  0  0
  -30.3179  -16.5356   18.7650 H   0  0  0  0  0  0
  -28.9318  -17.2714   19.5521 H   0  0  0  0  0  0
  -28.7565  -16.8326   22.3121 H   0  0  0  0  0  0
  -29.3343  -15.2638   22.7984 H   0  0  0  0  0  0
  -28.0357  -15.4224   21.5978 H   0  0  0  0  0  0
  -32.4549  -24.4088   20.7781 H   0  0  0  0  0  0
  -32.5392  -23.2143   19.4862 H   0  0  0  0  0  0
  -33.2244  -22.8740   21.0781 H   0  0  0  0  0  0
  -30.8096  -24.2120   22.6541 H   0  0  0  0  0  0
  -31.5477  -22.7216   23.1418 H   0  0  0  0  0  0
  -29.8222  -22.7648   22.8406 H   0  0  0  0  0  0
  -30.2354  -25.3764   20.8442 H   0  0  0  0  0  0
  -30.5366  -25.1610   19.1506 H   0  0  0  0  0  0
  -29.8736  -22.8806   19.1512 H   0  0  0  0  0  0
  -28.9279  -23.0182   20.5890 H   0  0  0  0  0  0
  -30.0473  -20.8322   21.1567 H   0  0  0  0  0  0
  -31.1123  -20.9646   19.7907 H   0  0  0  0  0  0
  -32.2026  -20.7596   22.6479 H   0  0  0  0  0  0
  -33.1060  -20.5610   21.1659 H   0  0  0  0  0  0
  -28.2219  -25.3243   18.5794 H   0  0  0  0  0  0
  -27.7002  -24.8885   20.2060 H   0  0  0  0  0  0
  1 25  1  0  0  0
  1 30  2  0  0  0
  1 83  1  0  0  0
  2  3  1  0  0  0
  2 25  1  0  0  0
  2 87  1  0  0  0
  2 88  1  0  0  0
  3  4  1  0  0  0
  3 89  1  0  0  0
  3 90  1  0  0  0
  4  5  1  0  0  0
  4 91  1  0  0  0
  4 92  1  0  0  0
  5  6  1  0  0  0
  5 26  1  0  0  0
  5 93  1  0  0  0
  6 25  1  0  0  0
  6 94  1  0  0  0
  6 95  1  0  0  0
  7  8  2  0  0  0
  7 26  1  0  0  0
  7 29  1  0  0  0
  8  9  1  0  0  0
  8 22  1  0  0  0
  9 10  1  0  0  0
  9 27  2  0  0  0
 10 11  2  0  0  0
 10 15  1  0  0  0
 11 12  1  0  0  0
 11 96  1  0  0  0
 12 13  2  0  0  0
 12 97  1  0  0  0
 13 14  1  0  0  0
 13 31  1  0  0  0
 14 15  2  0  0  0
 14 98  1  0  0  0
 15 99  1  0  0  0
 16 17  2  0  0  0
 16 21  1  0  0  0
 16 31  1  0  0  0
 17 18  1  0  0  0
 17100  1  0  0  0
 18 19  2  0  0  0
 18101  1  0  0  0
 19 20  1  0  0  0
 19 24  1  0  0  0
 20 21  2  0  0  0
 20102  1  0  0  0
 21 23  1  0  0  0
 22 28  1  0  0  0
 22 32  2  0  0  0
 26 27  1  0  0  0
 28103  1  0  0  0
 28104  1  0  0  0
 29105  1  0  0  0
 29106  1  0  0  0
 33 34  1  0  0  0
 33 66  1  0  0  0
 33 70  2  0  0  0
 34 36  1  0  0  0
 34 59  1  0  0  0
 34107  1  0  0  0
 35 44  2  0  0  0
 35 45  1  0  0  0
 35 68  1  0  0  0
 36 56  1  0  0  0
 36108  1  0  0  0
 37 39  1  0  0  0
 37 47  1  0  0  0
 37 66  1  0  0  0
 37109  1  0  0  0
 38 43  2  0  0  0
 38 46  1  0  0  0
 38 47  1  0  0  0
 39 64  1  0  0  0
 39 67  2  0  0  0
 40 52  1  0  0  0
 40 53  2  0  0  0
 40 58  1  0  0  0
 41110  1  0  0  0
 41111  1  0  0  0
 41112  1  0  0  0
 41 48  1  0  0  0
 42 43  1  0  0  0
 42 66  1  0  0  0
 42113  1  0  0  0
 42114  1  0  0  0
 43 44  1  0  0  0
 44115  1  0  0  0
 45 46  2  0  0  0
 45116  1  0  0  0
 46117  1  0  0  0
 47118  1  0  0  0
 47119  1  0  0  0
 48 56  1  0  0  0
 48 65  1  0  0  0
 48120  1  0  0  0
 49 50  1  0  0  0
 49 53  1  0  0  0
 49 64  1  0  0  0
 49121  1  0  0  0
 50 51  1  0  0  0
 50122  1  0  0  0
 50123  1  0  0  0
 51 52  1  0  0  0
 51124  1  0  0  0
 51125  1  0  0  0
 52126  1  0  0  0
 52127  1  0  0  0
 53 54  1  0  0  0
 54 55  2  0  0  0
 54128  1  0  0  0
 55 57  1  0  0  0
 55129  1  0  0  0
 56 69  2  0  0  0
 57 58  2  0  0  0
 57130  1  0  0  0
 58131  1  0  0  0
 59 60  1  0  0  0
 59 61  1  0  0  0
 59 62  1  0  0  0
 60132  1  0  0  0
 60133  1  0  0  0
 60134  1  0  0  0
 61135  1  0  0  0
 61136  1  0  0  0
 61137  1  0  0  0
 62138  1  0  0  0
 62139  1  0  0  0
 62140  1  0  0  0
 63 65  1  0  0  0
 63141  1  0  0  0
 63142  1  0  0  0
 63143  1  0  0  0
 64144  1  0  0  0
 65145  1  0  0  0
 68 82  1  0  0  0
 71 73  2  0  0  0
 71 86  1  0  0  0
 71146  1  0  0  0
 72 85  2  0  0  0
 72 86  1  0  0  0
 72147  1  0  0  0
 73 83  1  0  0  0
 73 85  1  0  0  0
 74148  1  0  0  0
 74149  1  0  0  0
 74150  1  0  0  0
 74 83  1  0  0  0
 75 83  1  0  0  0
 75151  1  0  0  0
 75152  1  0  0  0
 75153  1  0  0  0
 76154  1  0  0  0
 76155  1  0  0  0
 76156  1  0  0  0
 76 84  1  0  0  0
 77 84  1  0  0  0
 77157  1  0  0  0
 77158  1  0  0  0
 77159  1  0  0  0
 78 79  1  0  0  0
 78 82  1  0  0  0
 78160  1  0  0  0
 78161  1  0  0  0
 79 84  1  0  0  0
 79162  1  0  0  0
 79163  1  0  0  0
 80 81  1  0  0  0
 80 84  1  0  0  0
 80164  1  0  0  0
 80165  1  0  0  0
 81 86  1  0  0  0
 81166  1  0  0  0
 81167  1  0  0  0
 82168  1  0  0  0
 82169  1  0  0  0
M  ISO  4   1 100  68 101  82 101  83 100
M  END
> <chiral flag>
0

> <version>
0

> <s_m_source_file>
/data/baiqing/PycharmProjects/Reinvent-master-3.2/result/LINK_invent/BTK/process_docking_weight1_custom_sum_contain_oxygen_bond_distance_aromatic_linkinvent_7_9_3/rearranged_h_0076.sdf

> <i_m_source_file_index>
2

> <r_mmod_Potential_Energy-OPLS-2005>
121.005569458008

> <r_mmod_Stretch_Energy-OPLS-2005>
42.9820442199707

> <r_mmod_Bend_Energy-OPLS-2005>
141.001068115234

> <r_mmod_Torsional_Energy-OPLS-2005>
228.05207824707

> <r_mmod_Improper_Torsional_Energy-OPLS-2005>
8.16320037841797

> <r_mmod_Van_der_Waal_Energy-OPLS-2005>
160.089813232422

> <r_mmod_Electrostatic_Energy-OPLS-2005>
-274.133666992188

> <r_mmod_Solvation_Energy-OPLS-2005>
-203.902587890625

> <b_mmod_Minimization_Converged-OPLS-2005>
0

> <r_mmod_RMS_Derivative-OPLS-2005>
6.24780988693237

$$$$
2
                    3D
 Structure written by MMmdl.
175183  0  0  1  0            999 V2000
  -30.7222  -14.4577   20.5916 C   0  0  0  0  0  0
  -30.4160  -12.3077   19.4196 C   0  0  0  0  0  0
  -29.4892  -12.5043   18.2038 C   0  0  0  0  0  0
  -28.0123  -12.3627   18.6191 C   0  0  0  0  0  0
  -27.6588  -13.2087   19.8718 C   0  0  2  0  0  0
  -28.6992  -12.9985   20.9940 C   0  0  0  0  0  0
  -25.2580  -13.8169   20.5681 C   0  0  0  0  0  0
  -24.1833  -13.0444   20.9184 C   0  0  0  0  0  0
  -24.6386  -11.6912   20.8735 C   0  0  0  0  0  0
  -23.9056  -10.4297   21.0405 C   0  0  0  0  0  0
  -24.3611   -9.4214   21.9184 C   0  0  0  0  0  0
  -23.6290   -8.2246   22.0755 C   0  0  0  0  0  0
  -22.4274   -8.0282   21.3544 C   0  0  0  0  0  0
  -21.9907   -9.0254   20.4646 C   0  0  0  0  0  0
  -22.7230  -10.2137   20.3055 C   0  0  0  0  0  0
  -21.6851   -6.0737   22.5278 C   0  0  0  0  0  0
  -21.4012   -6.5640   23.8212 C   0  0  0  0  0  0
  -21.3660   -5.6793   24.9175 C   0  0  0  0  0  0
  -21.6042   -4.3055   24.7225 C   0  0  0  0  0  0
  -21.8820   -3.8148   23.4345 C   0  0  0  0  0  0
  -21.9193   -4.6965   22.3401 C   0  0  0  0  0  0
  -22.7858  -13.5247   21.1843 C   0  0  0  0  0  0
  -22.1661   -4.2151   21.0977 F   0  0  0  0  0  0
  -21.5630   -3.4538   25.7738 F   0  0  0  0  0  0
  -30.0301  -13.2964   20.4391 N   0  0  0  0  0  0
  -26.3007  -12.9340   20.3352 N   0  0  0  0  0  0
  -25.9309  -11.6498   20.5760 N   0  0  0  0  0  0
  -22.0492  -12.8238   22.0397 N   0  0  0  0  0  0
  -25.4315  -15.1885   20.4084 N   0  0  0  0  0  0
  -31.8375  -14.6382   20.0964 O   0  0  0  0  0  0
  -21.6637   -6.8878   21.4240 O   0  0  0  0  0  0
  -22.3546  -14.5551   20.6691 O   0  0  0  0  0  0
  -24.6145  -31.8683   23.2117 C   0  0  0  0  0  0
  -25.9040  -32.4828   23.8414 C   0  0  1  0  0  0
  -27.2345  -27.4410   20.1049 C   0  0  0  0  0  0
  -25.5906  -33.8626   24.2356 N   0  0  0  0  0  0
  -23.4038  -30.4912   21.5505 C   0  0  2  0  0  0
  -24.8531  -28.9589   20.1146 C   0  0  0  0  0  0
  -22.7412  -29.4663   22.4987 C   0  0  0  0  0  0
  -18.0269  -28.1382   22.8503 C   0  0  0  0  0  0
  -24.1485  -36.7304   23.2645 C   0  0  0  0  0  0
  -25.9314  -30.8386   21.3629 C   0  0  0  0  0  0
  -26.0117  -29.4728   20.7119 C   0  0  0  0  0  0
  -27.2093  -28.7214   20.7052 C   0  0  0  0  0  0
  -26.0678  -26.9460   19.4909 C   0  0  0  0  0  0
  -24.8750  -27.6939   19.5003 C   0  0  0  0  0  0
  -23.6134  -29.8232   20.1650 C   0  0  0  0  0  0
  -25.4110  -36.3116   24.0347 C   0  0  1  0  0  0
  -20.5863  -28.3668   23.1320 C   0  0  2  0  0  0
  -20.6761  -26.9405   22.5421 C   0  0  0  0  0  0
  -19.5739  -26.6390   21.5217 C   0  0  0  0  0  0
  -18.1917  -26.7933   22.1626 C   0  0  0  0  0  0
  -19.1519  -28.8840   23.2913 C   0  0  0  0  0  0
  -18.9448  -30.1444   23.8927 C   0  0  0  0  0  0
  -17.6454  -30.6594   24.0564 C   0  0  0  0  0  0
  -25.9036  -34.9480   23.5149 C   0  0  0  0  0  0
  -16.5344  -29.9100   23.6326 C   0  0  0  0  0  0
  -16.7259  -28.6508   23.0364 C   0  0  0  0  0  0
  -26.4480  -31.6598   25.0729 C   0  0  0  0  0  0
  -25.3757  -31.3675   26.1479 C   0  0  0  0  0  0
  -27.0317  -30.3051   24.6080 C   0  0  0  0  0  0
  -27.6062  -32.4311   25.7479 C   0  0  0  0  0  0
  -27.5583  -37.1807   24.8472 C   0  0  0  0  0  0
  -21.4138  -29.3035   22.3723 N   0  0  0  0  0  0
  -26.4298  -37.3801   23.9414 N   0  0  0  0  0  0
  -24.6679  -31.0798   22.1006 N   0  0  0  0  0  0
  -23.4182  -28.8213   23.3035 O   0  0  0  0  0  0
  -28.3568  -26.6395   20.1021 O   0  0  0  0  0  0
  -26.5584  -34.8928   22.4702 O   0  0  0  0  0  0
  -23.5340  -32.1419   23.7518 O   0  0  0  0  0  0
  -29.0076  -21.1844   20.0911 C   0  0  0  0  0  0
  -28.5934  -19.9669   20.5996 C   0  0  0  0  0  0
  -27.1825  -21.5681   21.2849 C   0  0  0  0  0  0
  -26.0294  -22.2232   21.9741 C   0  0  0  0  0  0
  -30.1005  -18.5038   19.2673 C   0  0  0  0  0  0
  -30.5523  -19.0443   22.5395 C   0  0  0  0  0  0
  -28.5984  -17.4942   22.7414 C   0  0  0  0  0  0
  -29.8500  -26.6391   21.9493 C   0  0  0  0  0  0
  -27.5151  -25.8198   22.3438 C   0  0  0  0  0  0
  -29.1188  -24.4528   20.9291 C   0  0  0  0  0  0
  -28.0955  -23.5881   20.1505 C   0  0  0  0  0  0
  -30.7103  -16.7371   21.6051 C   0  0  0  0  0  0
  -29.1294  -18.5451   20.4632 C   0  0  1  0  0  0
  -29.7386  -17.9534   21.8017 C   0  0  0  0  0  0
  -28.6658  -25.8979   21.3063 C   0  0  0  0  0  0
  -28.1127  -22.1458   20.5066 N   0  0  0  0  0  0
  -27.4656  -20.2608   21.3240 N   0  3  0  0  0  0
  -30.0897  -15.4500   21.2451 N   0  0  0  0  0  0
  -31.4606  -12.4004   19.1174 H   0  0  0  0  0  0
  -30.3139  -11.2983   19.8209 H   0  0  0  0  0  0
  -29.7290  -11.7777   17.4262 H   0  0  0  0  0  0
  -29.6567  -13.4893   17.7657 H   0  0  0  0  0  0
  -27.8266  -11.3071   18.8214 H   0  0  0  0  0  0
  -27.3599  -12.6303   17.7871 H   0  0  0  0  0  0
  -27.7021  -14.2552   19.5696 H   0  0  0  0  0  0
  -28.6739  -11.9658   21.3450 H   0  0  0  0  0  0
  -28.4579  -13.6079   21.8659 H   0  0  0  0  0  0
  -25.2757   -9.5689   22.4759 H   0  0  0  0  0  0
  -23.9999   -7.4637   22.7473 H   0  0  0  0  0  0
  -21.0840   -8.8769   19.8948 H   0  0  0  0  0  0
  -22.3689  -10.9674   19.6163 H   0  0  0  0  0  0
  -21.2002   -7.6148   23.9715 H   0  0  0  0  0  0
  -21.1481   -6.0523   25.9077 H   0  0  0  0  0  0
  -22.0599   -2.7609   23.2843 H   0  0  0  0  0  0
  -22.4103  -11.9899   22.4786 H   0  0  0  0  0  0
  -21.1109  -13.1264   22.2593 H   0  0  0  0  0  0
  -24.6625  -15.8427   20.5035 H   0  0  0  0  0  0
  -26.2799  -15.6192   20.0644 H   0  0  0  0  0  0
  -26.7120  -32.5553   23.1190 H   0  0  0  0  0  0
  -25.0085  -33.9794   25.0521 H   0  0  0  0  0  0
  -22.6931  -31.3083   21.4111 H   0  0  0  0  0  0
  -23.3753  -35.9631   23.3324 H   0  0  0  0  0  0
  -24.3577  -36.8898   22.2056 H   0  0  0  0  0  0
  -23.7225  -37.6513   23.6638 H   0  0  0  0  0  0
  -26.0404  -31.6046   20.5938 H   0  0  0  0  0  0
  -26.8204  -30.8948   21.9793 H   0  0  0  0  0  0
  -28.1028  -29.1146   21.1686 H   0  0  0  0  0  0
  -26.0797  -25.9706   19.0259 H   0  0  0  0  0  0
  -23.9843  -27.2916   19.0378 H   0  0  0  0  0  0
  -23.7212  -30.5983   19.4055 H   0  0  0  0  0  0
  -22.7389  -29.2410   19.8688 H   0  0  0  0  0  0
  -25.1288  -36.1990   25.0840 H   0  0  0  0  0  0
  -20.9953  -28.3227   24.1441 H   0  0  0  0  0  0
  -20.5666  -26.2276   23.3609 H   0  0  0  0  0  0
  -21.6632  -26.7454   22.1213 H   0  0  0  0  0  0
  -19.6900  -25.6303   21.1241 H   0  0  0  0  0  0
  -19.6681  -27.3202   20.6750 H   0  0  0  0  0  0
  -17.4190  -26.6691   21.4023 H   0  0  0  0  0  0
  -18.0308  -26.0068   22.9012 H   0  0  0  0  0  0
  -19.7922  -30.7243   24.2325 H   0  0  0  0  0  0
  -17.5012  -31.6278   24.5155 H   0  0  0  0  0  0
  -15.5349  -30.3018   23.7635 H   0  0  0  0  0  0
  -15.8654  -28.0831   22.7093 H   0  0  0  0  0  0
  -24.5949  -30.7002   25.7809 H   0  0  0  0  0  0
  -24.8923  -32.2815   26.4942 H   0  0  0  0  0  0
  -25.8131  -30.8841   27.0226 H   0  0  0  0  0  0
  -26.2853  -29.6798   24.1166 H   0  0  0  0  0  0
  -27.4144  -29.7297   25.4521 H   0  0  0  0  0  0
  -27.8662  -30.4399   23.9192 H   0  0  0  0  0  0
  -27.2703  -33.3614   26.2074 H   0  0  0  0  0  0
  -28.3854  -32.6864   25.0285 H   0  0  0  0  0  0
  -28.0747  -31.8422   26.5376 H   0  0  0  0  0  0
  -28.2615  -38.0092   24.7523 H   0  0  0  0  0  0
  -28.1062  -36.2624   24.6295 H   0  0  0  0  0  0
  -27.2294  -37.1459   25.8874 H   0  0  0  0  0  0
  -20.9296  -29.8758   21.6946 H   0  0  0  0  0  0
  -26.0189  -38.2881   24.1416 H   0  0  0  0  0  0
  -29.8475  -21.4286   19.4552 H   0  0  0  0  0  0
  -26.4121  -23.0197   22.6111 H   0  0  0  0  0  0
  -25.5097  -21.4841   22.5830 H   0  0  0  0  0  0
  -25.3519  -22.6261   21.2213 H   0  0  0  0  0  0
  -29.6336  -18.9167   18.3724 H   0  0  0  0  0  0
  -30.3915  -17.4848   19.0148 H   0  0  0  0  0  0
  -31.0067  -19.0766   19.4630 H   0  0  0  0  0  0
  -31.0142  -18.6557   23.4476 H   0  0  0  0  0  0
  -29.9387  -19.8900   22.8504 H   0  0  0  0  0  0
  -31.3538  -19.4340   21.9109 H   0  0  0  0  0  0
  -28.9942  -16.9929   23.6258 H   0  0  0  0  0  0
  -27.9183  -16.7966   22.2507 H   0  0  0  0  0  0
  -28.0008  -18.3296   23.1029 H   0  0  0  0  0  0
  -30.6882  -26.7197   21.2565 H   0  0  0  0  0  0
  -30.2061  -26.1187   22.8394 H   0  0  0  0  0  0
  -29.5788  -27.6492   22.2547 H   0  0  0  0  0  0
  -27.7855  -25.1775   23.1822 H   0  0  0  0  0  0
  -26.5949  -25.4222   21.9188 H   0  0  0  0  0  0
  -27.2786  -26.7978   22.7653 H   0  0  0  0  0  0
  -30.0403  -24.4960   20.3475 H   0  0  0  0  0  0
  -29.3902  -23.9310   21.8483 H   0  0  0  0  0  0
  -28.2854  -23.6676   19.0798 H   0  0  0  0  0  0
  -27.0829  -23.9618   20.2842 H   0  0  0  0  0  0
  -31.2265  -16.5435   22.5468 H   0  0  0  0  0  0
  -31.5126  -16.9999   20.9143 H   0  0  0  0  0  0
  -28.2870  -17.9152   20.1740 H   0  0  0  0  0  0
  -26.9058  -19.5771   21.8196 H   0  0  0  0  0  0
  -29.1709  -15.2504   21.6102 H   0  0  0  0  0  0
  1 25  1  0  0  0
  1 30  2  0  0  0
  1 88  1  0  0  0
  2  3  1  0  0  0
  2 25  1  0  0  0
  2 89  1  0  0  0
  2 90  1  0  0  0
  3  4  1  0  0  0
  3 91  1  0  0  0
  3 92  1  0  0  0
  4  5  1  0  0  0
  4 93  1  0  0  0
  4 94  1  0  0  0
  5  6  1  0  0  0
  5 26  1  0  0  0
  5 95  1  0  0  0
  6 25  1  0  0  0
  6 96  1  0  0  0
  6 97  1  0  0  0
  7  8  2  0  0  0
  7 26  1  0  0  0
  7 29  1  0  0  0
  8  9  1  0  0  0
  8 22  1  0  0  0
  9 10  1  0  0  0
  9 27  2  0  0  0
 10 11  2  0  0  0
 10 15  1  0  0  0
 11 12  1  0  0  0
 11 98  1  0  0  0
 12 13  2  0  0  0
 12 99  1  0  0  0
 13 14  1  0  0  0
 13 31  1  0  0  0
 14 15  2  0  0  0
 14100  1  0  0  0
 15101  1  0  0  0
 16 17  2  0  0  0
 16 21  1  0  0  0
 16 31  1  0  0  0
 17 18  1  0  0  0
 17102  1  0  0  0
 18 19  2  0  0  0
 18103  1  0  0  0
 19 20  1  0  0  0
 19 24  1  0  0  0
 20 21  2  0  0  0
 20104  1  0  0  0
 21 23  1  0  0  0
 22 28  1  0  0  0
 22 32  2  0  0  0
 26 27  1  0  0  0
 28105  1  0  0  0
 28106  1  0  0  0
 29107  1  0  0  0
 29108  1  0  0  0
 33 34  1  0  0  0
 33 66  1  0  0  0
 33 70  2  0  0  0
 34 36  1  0  0  0
 34 59  1  0  0  0
 34109  1  0  0  0
 35 44  2  0  0  0
 35 45  1  0  0  0
 35 68  1  0  0  0
 36 56  1  0  0  0
 36110  1  0  0  0
 37 39  1  0  0  0
 37 47  1  0  0  0
 37 66  1  0  0  0
 37111  1  0  0  0
 38 43  2  0  0  0
 38 46  1  0  0  0
 38 47  1  0  0  0
 39 64  1  0  0  0
 39 67  2  0  0  0
 40 52  1  0  0  0
 40 53  2  0  0  0
 40 58  1  0  0  0
 41112  1  0  0  0
 41113  1  0  0  0
 41114  1  0  0  0
 41 48  1  0  0  0
 42 43  1  0  0  0
 42 66  1  0  0  0
 42115  1  0  0  0
 42116  1  0  0  0
 43 44  1  0  0  0
 44117  1  0  0  0
 45 46  2  0  0  0
 45118  1  0  0  0
 46119  1  0  0  0
 47120  1  0  0  0
 47121  1  0  0  0
 48 56  1  0  0  0
 48 65  1  0  0  0
 48122  1  0  0  0
 49 50  1  0  0  0
 49 53  1  0  0  0
 49 64  1  0  0  0
 49123  1  0  0  0
 50 51  1  0  0  0
 50124  1  0  0  0
 50125  1  0  0  0
 51 52  1  0  0  0
 51126  1  0  0  0
 51127  1  0  0  0
 52128  1  0  0  0
 52129  1  0  0  0
 53 54  1  0  0  0
 54 55  2  0  0  0
 54130  1  0  0  0
 55 57  1  0  0  0
 55131  1  0  0  0
 56 69  2  0  0  0
 57 58  2  0  0  0
 57132  1  0  0  0
 58133  1  0  0  0
 59 60  1  0  0  0
 59 61  1  0  0  0
 59 62  1  0  0  0
 60134  1  0  0  0
 60135  1  0  0  0
 60136  1  0  0  0
 61137  1  0  0  0
 61138  1  0  0  0
 61139  1  0  0  0
 62140  1  0  0  0
 62141  1  0  0  0
 62142  1  0  0  0
 63 65  1  0  0  0
 63143  1  0  0  0
 63144  1  0  0  0
 63145  1  0  0  0
 64146  1  0  0  0
 65147  1  0  0  0
 68 85  1  0  0  0
 71 72  2  0  0  0
 71 86  1  0  0  0
 71148  1  0  0  0
 72 83  1  0  0  0
 72 87  1  0  0  0
 73 74  1  0  0  0
 73 86  1  0  0  0
 73 87  2  0  0  0
 74149  1  0  0  0
 74150  1  0  0  0
 74151  1  0  0  0
 75152  1  0  0  0
 75153  1  0  0  0
 75154  1  0  0  0
 75 83  1  0  0  0
 76155  1  0  0  0
 76156  1  0  0  0
 76157  1  0  0  0
 76 84  1  0  0  0
 77 84  1  0  0  0
 77158  1  0  0  0
 77159  1  0  0  0
 77160  1  0  0  0
 78161  1  0  0  0
 78162  1  0  0  0
 78163  1  0  0  0
 78 85  1  0  0  0
 79 85  1  0  0  0
 79164  1  0  0  0
 79165  1  0  0  0
 79166  1  0  0  0
 80 81  1  0  0  0
 80 85  1  0  0  0
 80167  1  0  0  0
 80168  1  0  0  0
 81 86  1  0  0  0
 81169  1  0  0  0
 81170  1  0  0  0
 82 84  1  0  0  0
 82 88  1  0  0  0
 82171  1  0  0  0
 82172  1  0  0  0
 83 84  1  0  0  0
 83173  1  0  0  0
 87174  1  0  0  0
 88175  1  0  0  0
M  CHG  1  87   1
M  ISO  4   1 100  68 101  85 101  88 100
M  END
> <chiral flag>
0

> <version>
0

> <s_m_source_file>
/data/baiqing/PycharmProjects/Reinvent-master-3.2/result/LINK_invent/BTK/process_docking_weight1_custom_sum_contain_oxygen_bond_distance_aromatic_linkinvent_7_9_3/rearranged_h_0076.sdf

> <i_m_source_file_index>
3

> <r_mmod_Potential_Energy-OPLS-2005>
-111.395416259766

> <r_mmod_Stretch_Energy-OPLS-2005>
44.3114471435547

> <r_mmod_Bend_Energy-OPLS-2005>
115.182899475098

> <r_mmod_Torsional_Energy-OPLS-2005>
269.253479003906

> <r_mmod_Improper_Torsional_Energy-OPLS-2005>
2.52219009399414

> <r_mmod_Van_der_Waal_Energy-OPLS-2005>
128.861968994141

> <r_mmod_Electrostatic_Energy-OPLS-2005>
-285.555908203125

> <r_mmod_Solvation_Energy-OPLS-2005>
-398.281921386719

> <b_mmod_Minimization_Converged-OPLS-2005>
0

> <r_mmod_RMS_Derivative-OPLS-2005>
0.862762868404388

$$$$
3
                    3D
 Structure written by MMmdl.
172180  0  0  1  0            999 V2000
  -30.5890  -14.7169   20.5347 C   0  0  0  0  0  0
  -30.4521  -12.4519   19.4685 C   0  0  0  0  0  0
  -29.5208  -12.5272   18.2367 C   0  0  0  0  0  0
  -28.0453  -12.3413   18.6454 C   0  0  0  0  0  0
  -27.6544  -13.2149   19.8661 C   0  0  2  0  0  0
  -28.6955  -13.0951   21.0020 C   0  0  0  0  0  0
  -25.2529  -13.8033   20.5496 C   0  0  0  0  0  0
  -24.1826  -13.0362   20.9138 C   0  0  0  0  0  0
  -24.6422  -11.6845   20.8761 C   0  0  0  0  0  0
  -23.9072  -10.4260   21.0424 C   0  0  0  0  0  0
  -24.3626   -9.4183   21.9204 C   0  0  0  0  0  0
  -23.6282   -8.2233   22.0777 C   0  0  0  0  0  0
  -22.4271   -8.0283   21.3553 C   0  0  0  0  0  0
  -21.9905   -9.0257   20.4656 C   0  0  0  0  0  0
  -22.7250  -10.2122   20.3061 C   0  0  0  0  0  0
  -21.6851   -6.0724   22.5268 C   0  0  0  0  0  0
  -21.4029   -6.5636   23.8203 C   0  0  0  0  0  0
  -21.3667   -5.6788   24.9161 C   0  0  0  0  0  0
  -21.6035   -4.3044   24.7211 C   0  0  0  0  0  0
  -21.8821   -3.8139   23.4334 C   0  0  0  0  0  0
  -21.9196   -4.6954   22.3394 C   0  0  0  0  0  0
  -22.7868  -13.5218   21.1794 C   0  0  0  0  0  0
  -22.1658   -4.2143   21.0976 F   0  0  0  0  0  0
  -21.5626   -3.4536   25.7728 F   0  0  0  0  0  0
  -30.0033  -13.4743   20.4430 N   0  0  0  0  0  0
  -26.3000  -12.9266   20.3290 N   0  0  0  0  0  0
  -25.9363  -11.6432   20.5798 N   0  0  0  0  0  0
  -22.0476  -12.8251   22.0364 N   0  0  0  0  0  0
  -25.4168  -15.1664   20.3592 N   0  0  0  0  0  0
  -31.7470  -14.8863   20.1358 O   0  0  0  0  0  0
  -21.6644   -6.8876   21.4234 O   0  0  0  0  0  0
  -22.3584  -14.5546   20.6660 O   0  0  0  0  0  0
  -24.6302  -31.8594   23.2024 C   0  0  0  0  0  0
  -25.9142  -32.4789   23.8347 C   0  0  1  0  0  0
  -27.2415  -27.3139   20.1289 C   0  0  0  0  0  0
  -25.5941  -33.8586   24.2283 N   0  0  0  0  0  0
  -23.4251  -30.4846   21.5403 C   0  0  2  0  0  0
  -24.8786  -28.9259   20.1256 C   0  0  0  0  0  0
  -22.7516  -29.4644   22.4908 C   0  0  0  0  0  0
  -18.0306  -28.1421   22.8470 C   0  0  0  0  0  0
  -24.1505  -36.7312   23.2633 C   0  0  0  0  0  0
  -25.9667  -30.7828   21.3792 C   0  0  0  0  0  0
  -26.0443  -29.4013   20.7423 C   0  0  0  0  0  0
  -27.2303  -28.6026   20.7452 C   0  0  0  0  0  0
  -26.0603  -26.8923   19.4895 C   0  0  0  0  0  0
  -24.8850  -27.6702   19.4999 C   0  0  0  0  0  0
  -23.6500  -29.8137   20.1582 C   0  0  0  0  0  0
  -25.4106  -36.3091   24.0349 C   0  0  1  0  0  0
  -20.5907  -28.3727   23.1280 C   0  0  2  0  0  0
  -20.6806  -26.9443   22.5411 C   0  0  0  0  0  0
  -19.5767  -26.6367   21.5236 C   0  0  0  0  0  0
  -18.1938  -26.7940   22.1627 C   0  0  0  0  0  0
  -19.1556  -28.8883   23.2877 C   0  0  0  0  0  0
  -18.9483  -30.1456   23.8921 C   0  0  0  0  0  0
  -17.6495  -30.6607   24.0574 C   0  0  0  0  0  0
  -25.9042  -34.9454   23.5110 C   0  0  0  0  0  0
  -16.5377  -29.9117   23.6325 C   0  0  0  0  0  0
  -16.7290  -28.6546   23.0323 C   0  0  0  0  0  0
  -26.4505  -31.6588   25.0728 C   0  0  0  0  0  0
  -25.3737  -31.3760   26.1472 C   0  0  0  0  0  0
  -27.0346  -30.3026   24.6136 C   0  0  0  0  0  0
  -27.6057  -32.4307   25.7515 C   0  0  0  0  0  0
  -27.5588  -37.1809   24.8457 C   0  0  0  0  0  0
  -21.4211  -29.3109   22.3707 N   0  0  0  0  0  0
  -26.4288  -37.3783   23.9419 N   0  0  0  0  0  0
  -24.6918  -31.0598   22.0984 N   0  0  0  0  0  0
  -23.4246  -28.8152   23.2953 O   0  0  0  0  0  0
  -28.3558  -26.4806   19.9653 O   0  0  0  0  0  0
  -26.5574  -34.8938   22.4655 O   0  0  0  0  0  0
  -23.5448  -32.1381   23.7338 O   0  0  0  0  0  0
  -29.6862  -20.0843   21.1092 C   0  0  0  0  0  0
  -30.8033  -19.3726   20.5603 C   0  0  0  0  0  0
  -28.6902  -17.9655   21.4588 C   0  0  0  0  0  0
  -29.8146  -17.2250   20.9415 C   0  0  0  0  0  0
  -26.1340  -17.9395   21.5733 C   0  0  0  0  0  0
  -32.3815  -19.7734   18.6235 C   0  0  0  0  0  0
  -33.2428  -19.8142   21.0317 C   0  0  0  0  0  0
  -28.8470  -24.1053   22.9596 C   0  0  0  0  0  0
  -27.0026  -24.0359   21.2798 C   0  0  0  0  0  0
  -29.6516  -21.6011   21.5861 C   0  0  0  0  0  0
  -27.4547  -17.3198   22.0803 C   0  0  0  0  0  0
  -29.2334  -22.8941   20.7071 C   0  0  0  0  0  0
  -28.9348  -25.6938   21.0534 C   0  0  0  0  0  0
  -32.0588  -20.0969   20.0928 C   0  0  0  0  0  0
  -28.5268  -24.1719   21.4399 C   0  0  0  0  0  0
  -28.6458  -19.3313   21.5384 N   0  0  0  0  0  0
  -30.8525  -17.9910   20.4789 N   0  0  0  0  0  0
  -29.7672  -15.7454   20.9603 N   0  0  0  0  0  0
  -31.4894  -12.6047   19.1647 H   0  0  0  0  0  0
  -30.4168  -11.4590   19.9179 H   0  0  0  0  0  0
  -29.8036  -11.7694   17.5053 H   0  0  0  0  0  0
  -29.6446  -13.4918   17.7417 H   0  0  0  0  0  0
  -27.9010  -11.2868   18.8837 H   0  0  0  0  0  0
  -27.3881  -12.5558   17.8013 H   0  0  0  0  0  0
  -27.6657  -14.2478   19.5168 H   0  0  0  0  0  0
  -28.7306  -12.0749   21.3877 H   0  0  0  0  0  0
  -28.4172  -13.7210   21.8522 H   0  0  0  0  0  0
  -25.2773   -9.5661   22.4771 H   0  0  0  0  0  0
  -23.9972   -7.4644   22.7532 H   0  0  0  0  0  0
  -21.0817   -8.8793   19.8988 H   0  0  0  0  0  0
  -22.3722  -10.9665   19.6169 H   0  0  0  0  0  0
  -21.2038   -7.6144   23.9701 H   0  0  0  0  0  0
  -21.1481   -6.0522   25.9067 H   0  0  0  0  0  0
  -22.0595   -2.7600   23.2835 H   0  0  0  0  0  0
  -22.4036  -11.9867   22.4715 H   0  0  0  0  0  0
  -21.1131  -13.1379   22.2600 H   0  0  0  0  0  0
  -24.6471  -15.8163   20.4617 H   0  0  0  0  0  0
  -26.2427  -15.5946   19.9651 H   0  0  0  0  0  0
  -26.7228  -32.5485   23.1101 H   0  0  0  0  0  0
  -25.0225  -33.9713   25.0527 H   0  0  0  0  0  0
  -22.7186  -31.3052   21.3880 H   0  0  0  0  0  0
  -23.3779  -35.9639   23.3257 H   0  0  0  0  0  0
  -24.3616  -36.8961   22.2055 H   0  0  0  0  0  0
  -23.7265  -37.6513   23.6668 H   0  0  0  0  0  0
  -26.0884  -31.5330   20.5975 H   0  0  0  0  0  0
  -26.8525  -30.8477   21.9998 H   0  0  0  0  0  0
  -28.1345  -28.9723   21.2072 H   0  0  0  0  0  0
  -26.0533  -25.9456   18.9684 H   0  0  0  0  0  0
  -23.9959  -27.2988   19.0083 H   0  0  0  0  0  0
  -23.7846  -30.5881   19.4015 H   0  0  0  0  0  0
  -22.7704  -29.2510   19.8429 H   0  0  0  0  0  0
  -25.1290  -36.1927   25.0849 H   0  0  0  0  0  0
  -20.9966  -28.3271   24.1417 H   0  0  0  0  0  0
  -20.5748  -26.2320   23.3611 H   0  0  0  0  0  0
  -21.6666  -26.7490   22.1175 H   0  0  0  0  0  0
  -19.6930  -25.6262   21.1310 H   0  0  0  0  0  0
  -19.6717  -27.3154   20.6746 H   0  0  0  0  0  0
  -17.4218  -26.6728   21.4013 H   0  0  0  0  0  0
  -18.0289  -26.0082   22.9013 H   0  0  0  0  0  0
  -19.7980  -30.7247   24.2298 H   0  0  0  0  0  0
  -17.5077  -31.6291   24.5155 H   0  0  0  0  0  0
  -15.5399  -30.3057   23.7616 H   0  0  0  0  0  0
  -15.8682  -28.0892   22.6999 H   0  0  0  0  0  0
  -24.5901  -30.7112   25.7824 H   0  0  0  0  0  0
  -24.8960  -32.2955   26.4867 H   0  0  0  0  0  0
  -25.8062  -30.8972   27.0263 H   0  0  0  0  0  0
  -26.2906  -29.6798   24.1165 H   0  0  0  0  0  0
  -27.4107  -29.7252   25.4586 H   0  0  0  0  0  0
  -27.8745  -30.4379   23.9324 H   0  0  0  0  0  0
  -27.2674  -33.3620   26.2054 H   0  0  0  0  0  0
  -28.3898  -32.6814   25.0371 H   0  0  0  0  0  0
  -28.0668  -31.8448   26.5467 H   0  0  0  0  0  0
  -28.2556  -38.0152   24.7510 H   0  0  0  0  0  0
  -28.1131  -36.2668   24.6245 H   0  0  0  0  0  0
  -27.2311  -37.1409   25.8864 H   0  0  0  0  0  0
  -20.9352  -29.8965   21.7066 H   0  0  0  0  0  0
  -26.0178  -38.2870   24.1406 H   0  0  0  0  0  0
  -25.2693  -17.4085   21.9717 H   0  0  0  0  0  0
  -26.0741  -17.9135   20.4844 H   0  0  0  0  0  0
  -26.0313  -18.9814   21.8806 H   0  0  0  0  0  0
  -31.5398  -20.0220   17.9764 H   0  0  0  0  0  0
  -32.5988  -18.7137   18.4870 H   0  0  0  0  0  0
  -33.2458  -20.3365   18.2699 H   0  0  0  0  0  0
  -33.0124  -20.1234   22.0512 H   0  0  0  0  0  0
  -34.1422  -20.3464   20.7199 H   0  0  0  0  0  0
  -33.4812  -18.7498   21.0578 H   0  0  0  0  0  0
  -28.4037  -23.2456   23.4577 H   0  0  0  0  0  0
  -28.4504  -24.9583   23.5102 H   0  0  0  0  0  0
  -29.9232  -24.0897   23.1407 H   0  0  0  0  0  0
  -26.6323  -23.0950   21.6894 H   0  0  0  0  0  0
  -26.7166  -24.0640   20.2294 H   0  0  0  0  0  0
  -26.4766  -24.8493   21.7806 H   0  0  0  0  0  0
  -30.6024  -21.8123   22.0781 H   0  0  0  0  0  0
  -28.9444  -21.5455   22.4083 H   0  0  0  0  0  0
  -27.5145  -17.4396   23.1641 H   0  0  0  0  0  0
  -27.4447  -16.2473   21.8999 H   0  0  0  0  0  0
  -28.5760  -22.5550   19.9067 H   0  0  0  0  0  0
  -30.1274  -23.2385   20.1850 H   0  0  0  0  0  0
  -30.0124  -25.7083   20.8912 H   0  0  0  0  0  0
  -28.8044  -26.3372   21.9239 H   0  0  0  0  0  0
  -31.8607  -21.1682   20.1304 H   0  0  0  0  0  0
  -28.8900  -15.3867   21.2984 H   0  0  0  0  0  0
  1 25  1  0  0  0
  1 30  2  0  0  0
  1 88  1  0  0  0
  2  3  1  0  0  0
  2 25  1  0  0  0
  2 89  1  0  0  0
  2 90  1  0  0  0
  3  4  1  0  0  0
  3 91  1  0  0  0
  3 92  1  0  0  0
  4  5  1  0  0  0
  4 93  1  0  0  0
  4 94  1  0  0  0
  5  6  1  0  0  0
  5 26  1  0  0  0
  5 95  1  0  0  0
  6 25  1  0  0  0
  6 96  1  0  0  0
  6 97  1  0  0  0
  7  8  2  0  0  0
  7 26  1  0  0  0
  7 29  1  0  0  0
  8  9  1  0  0  0
  8 22  1  0  0  0
  9 10  1  0  0  0
  9 27  2  0  0  0
 10 11  2  0  0  0
 10 15  1  0  0  0
 11 12  1  0  0  0
 11 98  1  0  0  0
 12 13  2  0  0  0
 12 99  1  0  0  0
 13 14  1  0  0  0
 13 31  1  0  0  0
 14 15  2  0  0  0
 14100  1  0  0  0
 15101  1  0  0  0
 16 17  2  0  0  0
 16 21  1  0  0  0
 16 31  1  0  0  0
 17 18  1  0  0  0
 17102  1  0  0  0
 18 19  2  0  0  0
 18103  1  0  0  0
 19 20  1  0  0  0
 19 24  1  0  0  0
 20 21  2  0  0  0
 20104  1  0  0  0
 21 23  1  0  0  0
 22 28  1  0  0  0
 22 32  2  0  0  0
 26 27  1  0  0  0
 28105  1  0  0  0
 28106  1  0  0  0
 29107  1  0  0  0
 29108  1  0  0  0
 33 34  1  0  0  0
 33 66  1  0  0  0
 33 70  2  0  0  0
 34 36  1  0  0  0
 34 59  1  0  0  0
 34109  1  0  0  0
 35 44  2  0  0  0
 35 45  1  0  0  0
 35 68  1  0  0  0
 36 56  1  0  0  0
 36110  1  0  0  0
 37 39  1  0  0  0
 37 47  1  0  0  0
 37 66  1  0  0  0
 37111  1  0  0  0
 38 43  2  0  0  0
 38 46  1  0  0  0
 38 47  1  0  0  0
 39 64  1  0  0  0
 39 67  2  0  0  0
 40 52  1  0  0  0
 40 53  2  0  0  0
 40 58  1  0  0  0
 41112  1  0  0  0
 41113  1  0  0  0
 41114  1  0  0  0
 41 48  1  0  0  0
 42 43  1  0  0  0
 42 66  1  0  0  0
 42115  1  0  0  0
 42116  1  0  0  0
 43 44  1  0  0  0
 44117  1  0  0  0
 45 46  2  0  0  0
 45118  1  0  0  0
 46119  1  0  0  0
 47120  1  0  0  0
 47121  1  0  0  0
 48 56  1  0  0  0
 48 65  1  0  0  0
 48122  1  0  0  0
 49 50  1  0  0  0
 49 53  1  0  0  0
 49 64  1  0  0  0
 49123  1  0  0  0
 50 51  1  0  0  0
 50124  1  0  0  0
 50125  1  0  0  0
 51 52  1  0  0  0
 51126  1  0  0  0
 51127  1  0  0  0
 52128  1  0  0  0
 52129  1  0  0  0
 53 54  1  0  0  0
 54 55  2  0  0  0
 54130  1  0  0  0
 55 57  1  0  0  0
 55131  1  0  0  0
 56 69  2  0  0  0
 57 58  2  0  0  0
 57132  1  0  0  0
 58133  1  0  0  0
 59 60  1  0  0  0
 59 61  1  0  0  0
 59 62  1  0  0  0
 60134  1  0  0  0
 60135  1  0  0  0
 60136  1  0  0  0
 61137  1  0  0  0
 61138  1  0  0  0
 61139  1  0  0  0
 62140  1  0  0  0
 62141  1  0  0  0
 62142  1  0  0  0
 63 65  1  0  0  0
 63143  1  0  0  0
 63144  1  0  0  0
 63145  1  0  0  0
 64146  1  0  0  0
 65147  1  0  0  0
 68 83  1  0  0  0
 71 72  2  0  0  0
 71 80  1  0  0  0
 71 86  1  0  0  0
 72 84  1  0  0  0
 72 87  1  0  0  0
 73 74  1  0  0  0
 73 81  1  0  0  0
 73 86  2  0  0  0
 74 87  2  0  0  0
 74 88  1  0  0  0
 75 81  1  0  0  0
 75148  1  0  0  0
 75149  1  0  0  0
 75150  1  0  0  0
 76151  1  0  0  0
 76152  1  0  0  0
 76153  1  0  0  0
 76 84  1  0  0  0
 77 84  1  0  0  0
 77154  1  0  0  0
 77155  1  0  0  0
 77156  1  0  0  0
 78157  1  0  0  0
 78158  1  0  0  0
 78159  1  0  0  0
 78 85  1  0  0  0
 79 85  1  0  0  0
 79160  1  0  0  0
 79161  1  0  0  0
 79162  1  0  0  0
 80 82  1  0  0  0
 80163  1  0  0  0
 80164  1  0  0  0
 81165  1  0  0  0
 81166  1  0  0  0
 82 85  1  0  0  0
 82167  1  0  0  0
 82168  1  0  0  0
 83 85  1  0  0  0
 83169  1  0  0  0
 83170  1  0  0  0
 84171  1  0  0  0
 88172  1  0  0  0
M  ISO  4   1 100  68 101  83 101  88 100
M  END
> <chiral flag>
0

> <version>
0

> <s_m_source_file>
/data/baiqing/PycharmProjects/Reinvent-master-3.2/result/LINK_invent/BTK/process_docking_weight1_custom_sum_contain_oxygen_bond_distance_aromatic_linkinvent_7_9_3/rearranged_h_0076.sdf

> <i_m_source_file_index>
4

> <r_mmod_Potential_Energy-OPLS-2005>
200.932250976562

> <r_mmod_Stretch_Energy-OPLS-2005>
111.675216674805

> <r_mmod_Bend_Energy-OPLS-2005>
218.350799560547

> <r_mmod_Torsional_Energy-OPLS-2005>
235.923736572266

> <r_mmod_Improper_Torsional_Energy-OPLS-2005>
5.99930810928345

> <r_mmod_Van_der_Waal_Energy-OPLS-2005>
144.774383544922

> <r_mmod_Electrostatic_Energy-OPLS-2005>
-366.626403808594

> <r_mmod_Solvation_Energy-OPLS-2005>
-211.129440307617

> <b_mmod_Minimization_Converged-OPLS-2005>
0

> <r_mmod_RMS_Derivative-OPLS-2005>
3.38014841079712

$$$$
4
                    3D
 Structure written by MMmdl.
159167  0  0  1  0            999 V2000
  -30.7628  -14.4118   20.6627 C   0  0  0  0  0  0
  -30.4300  -12.3067   19.4221 C   0  0  0  0  0  0
  -29.5044  -12.5281   18.2123 C   0  0  0  0  0  0
  -28.0247  -12.3849   18.6203 C   0  0  0  0  0  0
  -27.6717  -13.2100   19.8855 C   0  0  2  0  0  0
  -28.7089  -12.9845   21.0093 C   0  0  0  0  0  0
  -25.2617  -13.8184   20.5697 C   0  0  0  0  0  0
  -24.1869  -13.0460   20.9179 C   0  0  0  0  0  0
  -24.6425  -11.6924   20.8718 C   0  0  0  0  0  0
  -23.9084  -10.4311   21.0383 C   0  0  0  0  0  0
  -24.3629   -9.4224   21.9160 C   0  0  0  0  0  0
  -23.6296   -8.2262   22.0741 C   0  0  0  0  0  0
  -22.4280   -8.0290   21.3537 C   0  0  0  0  0  0
  -21.9918   -9.0273   20.4642 C   0  0  0  0  0  0
  -22.7250  -10.2150   20.3041 C   0  0  0  0  0  0
  -21.6856   -6.0736   22.5284 C   0  0  0  0  0  0
  -21.4015   -6.5635   23.8221 C   0  0  0  0  0  0
  -21.3665   -5.6786   24.9180 C   0  0  0  0  0  0
  -21.6046   -4.3055   24.7239 C   0  0  0  0  0  0
  -21.8813   -3.8142   23.4362 C   0  0  0  0  0  0
  -21.9196   -4.6956   22.3409 C   0  0  0  0  0  0
  -22.7882  -13.5229   21.1865 C   0  0  0  0  0  0
  -22.1655   -4.2134   21.0989 F   0  0  0  0  0  0
  -21.5634   -3.4540   25.7755 F   0  0  0  0  0  0
  -30.0499  -13.2714   20.4670 N   0  0  0  0  0  0
  -26.3080  -12.9371   20.3411 N   0  0  0  0  0  0
  -25.9366  -11.6523   20.5782 N   0  0  0  0  0  0
  -22.0527  -12.8207   22.0418 N   0  0  0  0  0  0
  -25.4311  -15.1917   20.4105 N   0  0  0  0  0  0
  -31.8422  -14.6247   20.1116 O   0  0  0  0  0  0
  -21.6647   -6.8881   21.4244 O   0  0  0  0  0  0
  -22.3553  -14.5536   20.6722 O   0  0  0  0  0  0
  -24.6121  -31.8680   23.2088 C   0  0  0  0  0  0
  -25.9014  -32.4819   23.8389 C   0  0  1  0  0  0
  -27.2254  -27.4427   20.0996 C   0  0  0  0  0  0
  -25.5890  -33.8617   24.2325 N   0  0  0  0  0  0
  -23.3991  -30.4914   21.5501 C   0  0  2  0  0  0
  -24.8473  -28.9619   20.1097 C   0  0  0  0  0  0
  -22.7414  -29.4644   22.4994 C   0  0  0  0  0  0
  -18.0274  -28.1383   22.8485 C   0  0  0  0  0  0
  -24.1493  -36.7324   23.2636 C   0  0  0  0  0  0
  -25.9281  -30.8380   21.3595 C   0  0  0  0  0  0
  -26.0063  -29.4734   20.7071 C   0  0  0  0  0  0
  -27.2022  -28.7207   20.6985 C   0  0  0  0  0  0
  -26.0547  -26.9458   19.4888 C   0  0  0  0  0  0
  -24.8655  -27.6993   19.4933 C   0  0  0  0  0  0
  -23.6053  -29.8225   20.1644 C   0  0  0  0  0  0
  -25.4117  -36.3111   24.0328 C   0  0  1  0  0  0
  -20.5862  -28.3660   23.1323 C   0  0  2  0  0  0
  -20.6779  -26.9401   22.5419 C   0  0  0  0  0  0
  -19.5761  -26.6383   21.5215 C   0  0  0  0  0  0
  -18.1931  -26.7921   22.1618 C   0  0  0  0  0  0
  -19.1517  -28.8837   23.2899 C   0  0  0  0  0  0
  -18.9448  -30.1449   23.8919 C   0  0  0  0  0  0
  -17.6441  -30.6585   24.0564 C   0  0  0  0  0  0
  -25.9044  -34.9472   23.5126 C   0  0  0  0  0  0
  -16.5340  -29.9089   23.6314 C   0  0  0  0  0  0
  -16.7267  -28.6505   23.0341 C   0  0  0  0  0  0
  -26.4457  -31.6593   25.0709 C   0  0  0  0  0  0
  -25.3728  -31.3692   26.1462 C   0  0  0  0  0  0
  -27.0268  -30.3034   24.6052 C   0  0  0  0  0  0
  -27.6035  -32.4302   25.7470 C   0  0  0  0  0  0
  -27.5581  -37.1818   24.8463 C   0  0  0  0  0  0
  -21.4144  -29.3014   22.3727 N   0  0  0  0  0  0
  -26.4304  -37.3787   23.9395 N   0  0  0  0  0  0
  -24.6646  -31.0794   22.0985 N   0  0  0  0  0  0
  -23.4198  -28.8182   23.3023 O   0  0  0  0  0  0
  -28.3646  -26.6732   20.1184 O   0  0  0  0  0  0
  -26.5601  -34.8908   22.4685 O   0  0  0  0  0  0
  -23.5303  -32.1424   23.7483 O   0  0  0  0  0  0
  -29.3036  -19.8557   20.1875 C   0  0  0  0  0  0
  -29.9996  -20.9888   21.8996 C   0  0  0  0  0  0
  -30.1357  -19.0591   20.9466 C   0  0  0  0  0  0
  -32.0354  -17.8373   19.9493 C   0  0  0  0  0  0
  -29.4352  -23.4482   19.9070 C   0  0  0  0  0  0
  -29.4914  -24.6189   20.9129 C   0  0  0  0  0  0
  -28.5130  -22.2780   20.3301 C   0  0  0  0  0  0
  -30.6620  -16.6747   21.7988 C   0  0  0  0  0  0
  -28.2343  -25.5136   20.9519 C   0  0  0  0  0  0
  -30.6527  -17.6772   20.6047 C   0  0  1  0  0  0
  -30.5896  -19.8021   22.0418 N   0  0  0  0  0  0
  -29.2455  -21.1058   20.7969 N   0  0  0  0  0  0
  -30.1870  -15.3228   21.4612 N   0  0  0  0  0  0
  -31.4716  -12.4138   19.1135 H   0  0  0  0  0  0
  -30.3381  -11.2882   19.8000 H   0  0  0  0  0  0
  -29.7467  -11.8196   17.4212 H   0  0  0  0  0  0
  -29.6812  -13.5229   17.7988 H   0  0  0  0  0  0
  -27.8285  -11.3281   18.7992 H   0  0  0  0  0  0
  -27.3791  -12.6794   17.7922 H   0  0  0  0  0  0
  -27.7225  -14.2619   19.6024 H   0  0  0  0  0  0
  -28.6842  -11.9571   21.3728 H   0  0  0  0  0  0
  -28.4555  -13.5967   21.8756 H   0  0  0  0  0  0
  -25.2782   -9.5700   22.4736 H   0  0  0  0  0  0
  -24.0008   -7.4652   22.7466 H   0  0  0  0  0  0
  -21.0844   -8.8802   19.8948 H   0  0  0  0  0  0
  -22.3705  -10.9693   19.6155 H   0  0  0  0  0  0
  -21.1995   -7.6143   23.9720 H   0  0  0  0  0  0
  -21.1492   -6.0519   25.9083 H   0  0  0  0  0  0
  -22.0586   -2.7604   23.2877 H   0  0  0  0  0  0
  -22.4129  -11.9851   22.4785 H   0  0  0  0  0  0
  -21.1145  -13.1231   22.2640 H   0  0  0  0  0  0
  -24.6616  -15.8441   20.5171 H   0  0  0  0  0  0
  -26.2880  -15.6421   20.1112 H   0  0  0  0  0  0
  -26.7091  -32.5562   23.1160 H   0  0  0  0  0  0
  -25.0050  -33.9790   25.0474 H   0  0  0  0  0  0
  -22.6861  -31.3068   21.4131 H   0  0  0  0  0  0
  -23.3726  -35.9685   23.3324 H   0  0  0  0  0  0
  -24.3587  -36.8914   22.2048 H   0  0  0  0  0  0
  -23.7270  -37.6547   23.6637 H   0  0  0  0  0  0
  -26.0368  -31.5981   20.5860 H   0  0  0  0  0  0
  -26.8172  -30.8954   21.9749 H   0  0  0  0  0  0
  -28.0959  -29.1061   21.1682 H   0  0  0  0  0  0
  -26.0597  -25.9758   19.0119 H   0  0  0  0  0  0
  -23.9751  -27.3057   19.0232 H   0  0  0  0  0  0
  -23.7037  -30.5939   19.4011 H   0  0  0  0  0  0
  -22.7323  -29.2346   19.8752 H   0  0  0  0  0  0
  -25.1283  -36.1984   25.0816 H   0  0  0  0  0  0
  -20.9960  -28.3228   24.1443 H   0  0  0  0  0  0
  -20.5705  -26.2270   23.3602 H   0  0  0  0  0  0
  -21.6653  -26.7475   22.1203 H   0  0  0  0  0  0
  -19.6933  -25.6300   21.1234 H   0  0  0  0  0  0
  -19.6698  -27.3210   20.6757 H   0  0  0  0  0  0
  -17.4213  -26.6652   21.4013 H   0  0  0  0  0  0
  -18.0347  -26.0067   22.9026 H   0  0  0  0  0  0
  -19.7921  -30.7244   24.2309 H   0  0  0  0  0  0
  -17.5006  -31.6266   24.5168 H   0  0  0  0  0  0
  -15.5350  -30.3006   23.7618 H   0  0  0  0  0  0
  -15.8664  -28.0832   22.7049 H   0  0  0  0  0  0
  -24.5904  -30.7039   25.7805 H   0  0  0  0  0  0
  -24.8919  -32.2852   26.4909 H   0  0  0  0  0  0
  -25.8086  -30.8867   27.0221 H   0  0  0  0  0  0
  -26.2806  -29.6827   24.1093 H   0  0  0  0  0  0
  -27.4041  -29.7228   25.4480 H   0  0  0  0  0  0
  -27.8635  -30.4354   23.9186 H   0  0  0  0  0  0
  -27.2659  -33.3590   26.2076 H   0  0  0  0  0  0
  -28.3835  -32.6885   25.0299 H   0  0  0  0  0  0
  -28.0722  -31.8421   26.5364 H   0  0  0  0  0  0
  -28.2609  -38.0103   24.7490 H   0  0  0  0  0  0
  -28.1061  -36.2632   24.6318 H   0  0  0  0  0  0
  -27.2299  -37.1522   25.8865 H   0  0  0  0  0  0
  -20.9312  -29.8732   21.6940 H   0  0  0  0  0  0
  -26.0186  -38.2863   24.1378 H   0  0  0  0  0  0
  -28.7953  -19.6484   19.2543 H   0  0  0  0  0  0
  -30.1376  -21.8051   22.5974 H   0  0  0  0  0  0
  -31.9697  -18.4802   19.0714 H   0  0  0  0  0  0
  -32.4625  -16.8966   19.6183 H   0  0  0  0  0  0
  -32.7441  -18.2968   20.6399 H   0  0  0  0  0  0
  -30.4458  -23.0679   19.7509 H   0  0  0  0  0  0
  -29.1216  -23.8305   18.9346 H   0  0  0  0  0  0
  -30.3604  -25.2440   20.7101 H   0  0  0  0  0  0
  -29.6616  -24.2004   21.9054 H   0  0  0  0  0  0
  -27.9078  -21.9738   19.4751 H   0  0  0  0  0  0
  -27.8100  -22.5849   21.1068 H   0  0  0  0  0  0
  -29.9952  -17.0370   22.5821 H   0  0  0  0  0  0
  -31.6474  -16.6171   22.2656 H   0  0  0  0  0  0
  -27.3482  -24.9289   20.7014 H   0  0  0  0  0  0
  -28.0847  -25.8599   21.9766 H   0  0  0  0  0  0
  -29.9826  -17.2606   19.8505 H   0  0  0  0  0  0
  -29.3104  -15.0445   21.8767 H   0  0  0  0  0  0
  1 25  1  0  0  0
  1 30  2  0  0  0
  1 83  1  0  0  0
  2  3  1  0  0  0
  2 25  1  0  0  0
  2 84  1  0  0  0
  2 85  1  0  0  0
  3  4  1  0  0  0
  3 86  1  0  0  0
  3 87  1  0  0  0
  4  5  1  0  0  0
  4 88  1  0  0  0
  4 89  1  0  0  0
  5  6  1  0  0  0
  5 26  1  0  0  0
  5 90  1  0  0  0
  6 25  1  0  0  0
  6 91  1  0  0  0
  6 92  1  0  0  0
  7  8  2  0  0  0
  7 26  1  0  0  0
  7 29  1  0  0  0
  8  9  1  0  0  0
  8 22  1  0  0  0
  9 10  1  0  0  0
  9 27  2  0  0  0
 10 11  2  0  0  0
 10 15  1  0  0  0
 11 12  1  0  0  0
 11 93  1  0  0  0
 12 13  2  0  0  0
 12 94  1  0  0  0
 13 14  1  0  0  0
 13 31  1  0  0  0
 14 15  2  0  0  0
 14 95  1  0  0  0
 15 96  1  0  0  0
 16 17  2  0  0  0
 16 21  1  0  0  0
 16 31  1  0  0  0
 17 18  1  0  0  0
 17 97  1  0  0  0
 18 19  2  0  0  0
 18 98  1  0  0  0
 19 20  1  0  0  0
 19 24  1  0  0  0
 20 21  2  0  0  0
 20 99  1  0  0  0
 21 23  1  0  0  0
 22 28  1  0  0  0
 22 32  2  0  0  0
 26 27  1  0  0  0
 28100  1  0  0  0
 28101  1  0  0  0
 29102  1  0  0  0
 29103  1  0  0  0
 33 34  1  0  0  0
 33 66  1  0  0  0
 33 70  2  0  0  0
 34 36  1  0  0  0
 34 59  1  0  0  0
 34104  1  0  0  0
 35 44  2  0  0  0
 35 45  1  0  0  0
 35 68  1  0  0  0
 36 56  1  0  0  0
 36105  1  0  0  0
 37 39  1  0  0  0
 37 47  1  0  0  0
 37 66  1  0  0  0
 37106  1  0  0  0
 38 43  2  0  0  0
 38 46  1  0  0  0
 38 47  1  0  0  0
 39 64  1  0  0  0
 39 67  2  0  0  0
 40 52  1  0  0  0
 40 53  2  0  0  0
 40 58  1  0  0  0
 41107  1  0  0  0
 41108  1  0  0  0
 41109  1  0  0  0
 41 48  1  0  0  0
 42 43  1  0  0  0
 42 66  1  0  0  0
 42110  1  0  0  0
 42111  1  0  0  0
 43 44  1  0  0  0
 44112  1  0  0  0
 45 46  2  0  0  0
 45113  1  0  0  0
 46114  1  0  0  0
 47115  1  0  0  0
 47116  1  0  0  0
 48 56  1  0  0  0
 48 65  1  0  0  0
 48117  1  0  0  0
 49 50  1  0  0  0
 49 53  1  0  0  0
 49 64  1  0  0  0
 49118  1  0  0  0
 50 51  1  0  0  0
 50119  1  0  0  0
 50120  1  0  0  0
 51 52  1  0  0  0
 51121  1  0  0  0
 51122  1  0  0  0
 52123  1  0  0  0
 52124  1  0  0  0
 53 54  1  0  0  0
 54 55  2  0  0  0
 54125  1  0  0  0
 55 57  1  0  0  0
 55126  1  0  0  0
 56 69  2  0  0  0
 57 58  2  0  0  0
 57127  1  0  0  0
 58128  1  0  0  0
 59 60  1  0  0  0
 59 61  1  0  0  0
 59 62  1  0  0  0
 60129  1  0  0  0
 60130  1  0  0  0
 60131  1  0  0  0
 61132  1  0  0  0
 61133  1  0  0  0
 61134  1  0  0  0
 62135  1  0  0  0
 62136  1  0  0  0
 62137  1  0  0  0
 63 65  1  0  0  0
 63138  1  0  0  0
 63139  1  0  0  0
 63140  1  0  0  0
 64141  1  0  0  0
 65142  1  0  0  0
 68 79  1  0  0  0
 71 73  2  0  0  0
 71 82  1  0  0  0
 71143  1  0  0  0
 72 81  2  0  0  0
 72 82  1  0  0  0
 72144  1  0  0  0
 73 80  1  0  0  0
 73 81  1  0  0  0
 74145  1  0  0  0
 74146  1  0  0  0
 74147  1  0  0  0
 74 80  1  0  0  0
 75 76  1  0  0  0
 75 77  1  0  0  0
 75148  1  0  0  0
 75149  1  0  0  0
 76 79  1  0  0  0
 76150  1  0  0  0
 76151  1  0  0  0
 77 82  1  0  0  0
 77152  1  0  0  0
 77153  1  0  0  0
 78 80  1  0  0  0
 78 83  1  0  0  0
 78154  1  0  0  0
 78155  1  0  0  0
 79156  1  0  0  0
 79157  1  0  0  0
 80158  1  0  0  0
 83159  1  0  0  0
M  ISO  4   1 100  68 101  79 101  83 100
M  END
> <chiral flag>
0

> <version>
0

> <s_m_source_file>
/data/baiqing/PycharmProjects/Reinvent-master-3.2/result/LINK_invent/BTK/process_docking_weight1_custom_sum_contain_oxygen_bond_distance_aromatic_linkinvent_7_9_3/rearranged_h_0076.sdf

> <i_m_source_file_index>
5

> <r_mmod_Potential_Energy-OPLS-2005>
-85.0913162231445

> <r_mmod_Stretch_Energy-OPLS-2005>
34.3130340576172

> <r_mmod_Bend_Energy-OPLS-2005>
100.919860839844

> <r_mmod_Torsional_Energy-OPLS-2005>
254.595458984375

> <r_mmod_Improper_Torsional_Energy-OPLS-2005>
2.38712739944458

> <r_mmod_Van_der_Waal_Energy-OPLS-2005>
127.739212036133

> <r_mmod_Electrostatic_Energy-OPLS-2005>
-395.667449951172

> <r_mmod_Solvation_Energy-OPLS-2005>
-219.968734741211

> <b_mmod_Minimization_Converged-OPLS-2005>
0

> <r_mmod_RMS_Derivative-OPLS-2005>
3.03457546234131

$$$$
5
                    3D
 Structure written by MMmdl.
159167  0  0  1  0            999 V2000
  -30.6412  -14.6928   20.5354 C   0  0  0  0  0  0
  -30.4396  -12.4534   19.4438 C   0  0  0  0  0  0
  -29.5015  -12.5433   18.2186 C   0  0  0  0  0  0
  -28.0222  -12.3805   18.6218 C   0  0  0  0  0  0
  -27.6521  -13.2249   19.8693 C   0  0  2  0  0  0
  -28.7023  -13.0342   20.9805 C   0  0  0  0  0  0
  -25.2567  -13.8207   20.5712 C   0  0  0  0  0  0
  -24.1828  -13.0464   20.9179 C   0  0  0  0  0  0
  -24.6404  -11.6938   20.8742 C   0  0  0  0  0  0
  -23.9072  -10.4315   21.0418 C   0  0  0  0  0  0
  -24.3625   -9.4226   21.9191 C   0  0  0  0  0  0
  -23.6305   -8.2259   22.0746 C   0  0  0  0  0  0
  -22.4287   -8.0295   21.3537 C   0  0  0  0  0  0
  -21.9930   -9.0274   20.4644 C   0  0  0  0  0  0
  -22.7251  -10.2159   20.3064 C   0  0  0  0  0  0
  -21.6857   -6.0752   22.5282 C   0  0  0  0  0  0
  -21.4006   -6.5644   23.8222 C   0  0  0  0  0  0
  -21.3665   -5.6790   24.9181 C   0  0  0  0  0  0
  -21.6054   -4.3056   24.7228 C   0  0  0  0  0  0
  -21.8816   -3.8155   23.4341 C   0  0  0  0  0  0
  -21.9190   -4.6979   22.3401 C   0  0  0  0  0  0
  -22.7849  -13.5266   21.1840 C   0  0  0  0  0  0
  -22.1657   -4.2164   21.0983 F   0  0  0  0  0  0
  -21.5648   -3.4541   25.7741 F   0  0  0  0  0  0
  -29.9986  -13.4713   20.4295 N   0  0  0  0  0  0
  -26.2994  -12.9390   20.3369 N   0  0  0  0  0  0
  -25.9339  -11.6532   20.5761 N   0  0  0  0  0  0
  -22.0480  -12.8261   22.0396 N   0  0  0  0  0  0
  -25.4301  -15.1933   20.4161 N   0  0  0  0  0  0
  -31.7882  -14.8003   20.0837 O   0  0  0  0  0  0
  -21.6634   -6.8898   21.4242 O   0  0  0  0  0  0
  -22.3532  -14.5577   20.6696 O   0  0  0  0  0  0
  -24.6315  -31.8578   23.2018 C   0  0  0  0  0  0
  -25.9153  -32.4768   23.8347 C   0  0  1  0  0  0
  -27.2084  -27.2775   20.1104 C   0  0  0  0  0  0
  -25.5948  -33.8574   24.2256 N   0  0  0  0  0  0
  -23.4240  -30.4862   21.5474 C   0  0  2  0  0  0
  -24.8646  -28.9375   20.1134 C   0  0  0  0  0  0
  -22.7484  -29.4640   22.4933 C   0  0  0  0  0  0
  -18.0292  -28.1394   22.8500 C   0  0  0  0  0  0
  -24.1480  -36.7285   23.2644 C   0  0  0  0  0  0
  -25.9724  -30.7742   21.3798 C   0  0  0  0  0  0
  -26.0410  -29.4010   20.7159 C   0  0  0  0  0  0
  -27.2171  -28.5837   20.7046 C   0  0  0  0  0  0
  -26.0013  -26.8807   19.4886 C   0  0  0  0  0  0
  -24.8467  -27.6817   19.4953 C   0  0  0  0  0  0
  -23.6379  -29.8264   20.1620 C   0  0  0  0  0  0
  -25.4111  -36.3081   24.0325 C   0  0  1  0  0  0
  -20.5901  -28.3694   23.1266 C   0  0  2  0  0  0
  -20.6774  -26.9407   22.5403 C   0  0  0  0  0  0
  -19.5751  -26.6384   21.5207 C   0  0  0  0  0  0
  -18.1935  -26.7938   22.1632 C   0  0  0  0  0  0
  -19.1548  -28.8859   23.2888 C   0  0  0  0  0  0
  -18.9473  -30.1460   23.8901 C   0  0  0  0  0  0
  -17.6475  -30.6597   24.0559 C   0  0  0  0  0  0
  -25.9059  -34.9454   23.5093 C   0  0  0  0  0  0
  -16.5366  -29.9094   23.6329 C   0  0  0  0  0  0
  -16.7281  -28.6509   23.0361 C   0  0  0  0  0  0
  -26.4492  -31.6618   25.0757 C   0  0  0  0  0  0
  -25.3705  -31.3794   26.1470 C   0  0  0  0  0  0
  -27.0307  -30.3028   24.6256 C   0  0  0  0  0  0
  -27.6034  -32.4372   25.7539 C   0  0  0  0  0  0
  -27.5564  -37.1808   24.8475 C   0  0  0  0  0  0
  -21.4202  -29.3048   22.3648 N   0  0  0  0  0  0
  -26.4287  -37.3776   23.9403 N   0  0  0  0  0  0
  -24.6955  -31.0560   22.0993 N   0  0  0  0  0  0
  -23.4189  -28.8153   23.3012 O   0  0  0  0  0  0
  -28.3021  -26.3815   20.1561 O   0  0  0  0  0  0
  -26.5625  -34.8924   22.4657 O   0  0  0  0  0  0
  -23.5465  -32.1386   23.7330 O   0  0  0  0  0  0
  -27.6424  -19.4959   18.9461 C   0  0  0  0  0  0
  -28.7824  -19.5457   19.7133 C   0  0  0  0  0  0
  -29.1396  -18.1110   19.8167 C   0  0  0  0  0  0
  -26.3185  -17.6586   17.7745 C   0  0  0  0  0  0
  -29.0937  -15.8910   22.0856 C   0  0  0  0  0  0
  -29.3878  -20.9149   20.2155 C   0  0  0  0  0  0
  -30.2855  -17.2644   20.4465 C   0  0  0  0  0  0
  -28.5161  -22.2451   19.9367 C   0  0  0  0  0  0
  -29.0453  -23.7341   20.2490 C   0  0  0  0  0  0
  -28.0027  -24.9240   19.9824 C   0  0  0  0  0  0
  -28.2801  -17.3597   19.1358 N   0  0  0  0  0  0
  -27.3801  -18.1926   18.6038 N   0  0  0  0  0  0
  -29.9395  -15.8433   20.8869 N   0  0  0  0  0  0
  -31.4735  -12.5988   19.1246 H   0  0  0  0  0  0
  -30.4134  -11.4557   19.8833 H   0  0  0  0  0  0
  -29.7752  -11.7963   17.4726 H   0  0  0  0  0  0
  -29.6303  -13.5155   17.7379 H   0  0  0  0  0  0
  -27.8425  -11.3227   18.8174 H   0  0  0  0  0  0
  -27.3734  -12.6487   17.7867 H   0  0  0  0  0  0
  -27.6780  -14.2720   19.5644 H   0  0  0  0  0  0
  -28.7535  -11.9810   21.2622 H   0  0  0  0  0  0
  -28.4081  -13.5237   21.9010 H   0  0  0  0  0  0
  -25.2784   -9.5716   22.4762 H   0  0  0  0  0  0
  -24.0039   -7.4651   22.7454 H   0  0  0  0  0  0
  -21.0867   -8.8797   19.8939 H   0  0  0  0  0  0
  -22.3716  -10.9703   19.6178 H   0  0  0  0  0  0
  -21.1966   -7.6146   23.9732 H   0  0  0  0  0  0
  -21.1502   -6.0511   25.9086 H   0  0  0  0  0  0
  -22.0585   -2.7614   23.2833 H   0  0  0  0  0  0
  -22.4082  -11.9955   22.4849 H   0  0  0  0  0  0
  -21.1095  -13.1285   22.2567 H   0  0  0  0  0  0
  -24.6685  -15.8513   20.5344 H   0  0  0  0  0  0
  -26.2950  -15.6365   20.1260 H   0  0  0  0  0  0
  -26.7221  -32.5393   23.1078 H   0  0  0  0  0  0
  -25.0085  -33.9699   25.0396 H   0  0  0  0  0  0
  -22.7229  -31.3112   21.4085 H   0  0  0  0  0  0
  -23.3733  -35.9628   23.3336 H   0  0  0  0  0  0
  -24.3562  -36.8869   22.2052 H   0  0  0  0  0  0
  -23.7236  -37.6501   23.6640 H   0  0  0  0  0  0
  -26.1145  -31.5378   20.6137 H   0  0  0  0  0  0
  -26.8503  -30.8168   22.0125 H   0  0  0  0  0  0
  -28.1164  -28.9319   21.1917 H   0  0  0  0  0  0
  -25.8969  -25.9263   18.9982 H   0  0  0  0  0  0
  -23.9428  -27.3109   19.0315 H   0  0  0  0  0  0
  -23.7612  -30.6071   19.4096 H   0  0  0  0  0  0
  -22.7541  -29.2653   19.8534 H   0  0  0  0  0  0
  -25.1292  -36.1937   25.0817 H   0  0  0  0  0  0
  -21.0008  -28.3263   24.1384 H   0  0  0  0  0  0
  -20.5664  -26.2296   23.3607 H   0  0  0  0  0  0
  -21.6640  -26.7428   22.1197 H   0  0  0  0  0  0
  -19.6899  -25.6289   21.1242 H   0  0  0  0  0  0
  -19.6686  -27.3183   20.6723 H   0  0  0  0  0  0
  -17.4190  -26.6681   21.4045 H   0  0  0  0  0  0
  -18.0354  -26.0091   22.9037 H   0  0  0  0  0  0
  -19.7949  -30.7278   24.2271 H   0  0  0  0  0  0
  -17.5030  -31.6285   24.5150 H   0  0  0  0  0  0
  -15.5363  -30.2997   23.7664 H   0  0  0  0  0  0
  -15.8681  -28.0826   22.7081 H   0  0  0  0  0  0
  -24.5885  -30.7132   25.7816 H   0  0  0  0  0  0
  -24.8883  -32.2977   26.4863 H   0  0  0  0  0  0
  -25.8018  -30.9015   27.0276 H   0  0  0  0  0  0
  -26.2883  -29.6832   24.1214 H   0  0  0  0  0  0
  -27.3887  -29.7258   25.4794 H   0  0  0  0  0  0
  -27.8819  -30.4287   23.9554 H   0  0  0  0  0  0
  -27.2622  -33.3672   26.2105 H   0  0  0  0  0  0
  -28.3858  -32.6947   25.0388 H   0  0  0  0  0  0
  -28.0686  -31.8516   26.5476 H   0  0  0  0  0  0
  -28.2622  -38.0063   24.7461 H   0  0  0  0  0  0
  -28.1012  -36.2593   24.6377 H   0  0  0  0  0  0
  -27.2279  -37.1555   25.8879 H   0  0  0  0  0  0
  -20.9373  -29.8776   21.6869 H   0  0  0  0  0  0
  -26.0168  -38.2854   24.1380 H   0  0  0  0  0  0
  -26.9984  -20.2862   18.5863 H   0  0  0  0  0  0
  -26.5856  -16.6692   17.3961 H   0  0  0  0  0  0
  -26.1446  -18.3167   16.9226 H   0  0  0  0  0  0
  -25.4004  -17.5781   18.3550 H   0  0  0  0  0  0
  -29.1090  -16.8670   22.5694 H   0  0  0  0  0  0
  -29.4262  -15.1758   22.8386 H   0  0  0  0  0  0
  -28.0542  -15.6938   21.8211 H   0  0  0  0  0  0
  -30.3686  -21.0653   19.7624 H   0  0  0  0  0  0
  -29.5815  -20.8592   21.2868 H   0  0  0  0  0  0
  -30.7094  -17.8047   21.2942 H   0  0  0  0  0  0
  -31.1011  -17.2251   19.7231 H   0  0  0  0  0  0
  -27.5709  -22.1262   20.4664 H   0  0  0  0  0  0
  -28.2538  -22.2436   18.8779 H   0  0  0  0  0  0
  -29.9358  -23.9143   19.6464 H   0  0  0  0  0  0
  -29.3694  -23.7836   21.2892 H   0  0  0  0  0  0
  -27.1449  -24.6998   20.6187 H   0  0  0  0  0  0
  -27.6661  -24.7819   18.9564 H   0  0  0  0  0  0
  1 25  1  0  0  0
  1 30  2  0  0  0
  1 83  1  0  0  0
  2  3  1  0  0  0
  2 25  1  0  0  0
  2 84  1  0  0  0
  2 85  1  0  0  0
  3  4  1  0  0  0
  3 86  1  0  0  0
  3 87  1  0  0  0
  4  5  1  0  0  0
  4 88  1  0  0  0
  4 89  1  0  0  0
  5  6  1  0  0  0
  5 26  1  0  0  0
  5 90  1  0  0  0
  6 25  1  0  0  0
  6 91  1  0  0  0
  6 92  1  0  0  0
  7  8  2  0  0  0
  7 26  1  0  0  0
  7 29  1  0  0  0
  8  9  1  0  0  0
  8 22  1  0  0  0
  9 10  1  0  0  0
  9 27  2  0  0  0
 10 11  2  0  0  0
 10 15  1  0  0  0
 11 12  1  0  0  0
 11 93  1  0  0  0
 12 13  2  0  0  0
 12 94  1  0  0  0
 13 14  1  0  0  0
 13 31  1  0  0  0
 14 15  2  0  0  0
 14 95  1  0  0  0
 15 96  1  0  0  0
 16 17  2  0  0  0
 16 21  1  0  0  0
 16 31  1  0  0  0
 17 18  1  0  0  0
 17 97  1  0  0  0
 18 19  2  0  0  0
 18 98  1  0  0  0
 19 20  1  0  0  0
 19 24  1  0  0  0
 20 21  2  0  0  0
 20 99  1  0  0  0
 21 23  1  0  0  0
 22 28  1  0  0  0
 22 32  2  0  0  0
 26 27  1  0  0  0
 28100  1  0  0  0
 28101  1  0  0  0
 29102  1  0  0  0
 29103  1  0  0  0
 33 34  1  0  0  0
 33 66  1  0  0  0
 33 70  2  0  0  0
 34 36  1  0  0  0
 34 59  1  0  0  0
 34104  1  0  0  0
 35 44  2  0  0  0
 35 45  1  0  0  0
 35 68  1  0  0  0
 36 56  1  0  0  0
 36105  1  0  0  0
 37 39  1  0  0  0
 37 47  1  0  0  0
 37 66  1  0  0  0
 37106  1  0  0  0
 38 43  2  0  0  0
 38 46  1  0  0  0
 38 47  1  0  0  0
 39 64  1  0  0  0
 39 67  2  0  0  0
 40 52  1  0  0  0
 40 53  2  0  0  0
 40 58  1  0  0  0
 41107  1  0  0  0
 41108  1  0  0  0
 41109  1  0  0  0
 41 48  1  0  0  0
 42 43  1  0  0  0
 42 66  1  0  0  0
 42110  1  0  0  0
 42111  1  0  0  0
 43 44  1  0  0  0
 44112  1  0  0  0
 45 46  2  0  0  0
 45113  1  0  0  0
 46114  1  0  0  0
 47115  1  0  0  0
 47116  1  0  0  0
 48 56  1  0  0  0
 48 65  1  0  0  0
 48117  1  0  0  0
 49 50  1  0  0  0
 49 53  1  0  0  0
 49 64  1  0  0  0
 49118  1  0  0  0
 50 51  1  0  0  0
 50119  1  0  0  0
 50120  1  0  0  0
 51 52  1  0  0  0
 51121  1  0  0  0
 51122  1  0  0  0
 52123  1  0  0  0
 52124  1  0  0  0
 53 54  1  0  0  0
 54 55  2  0  0  0
 54125  1  0  0  0
 55 57  1  0  0  0
 55126  1  0  0  0
 56 69  2  0  0  0
 57 58  2  0  0  0
 57127  1  0  0  0
 58128  1  0  0  0
 59 60  1  0  0  0
 59 61  1  0  0  0
 59 62  1  0  0  0
 60129  1  0  0  0
 60130  1  0  0  0
 60131  1  0  0  0
 61132  1  0  0  0
 61133  1  0  0  0
 61134  1  0  0  0
 62135  1  0  0  0
 62136  1  0  0  0
 62137  1  0  0  0
 63 65  1  0  0  0
 63138  1  0  0  0
 63139  1  0  0  0
 63140  1  0  0  0
 64141  1  0  0  0
 65142  1  0  0  0
 68 80  1  0  0  0
 71 72  2  0  0  0
 71 82  1  0  0  0
 71143  1  0  0  0
 72 73  1  0  0  0
 72 76  1  0  0  0
 73 77  1  0  0  0
 73 81  2  0  0  0
 74 82  1  0  0  0
 74144  1  0  0  0
 74145  1  0  0  0
 74146  1  0  0  0
 75 83  1  0  0  0
 75147  1  0  0  0
 75148  1  0  0  0
 75149  1  0  0  0
 76 78  1  0  0  0
 76150  1  0  0  0
 76151  1  0  0  0
 77 83  1  0  0  0
 77152  1  0  0  0
 77153  1  0  0  0
 78 79  1  0  0  0
 78154  1  0  0  0
 78155  1  0  0  0
 79 80  1  0  0  0
 79156  1  0  0  0
 79157  1  0  0  0
 80158  1  0  0  0
 80159  1  0  0  0
 81 82  1  0  0  0
M  ISO  4   1 100  68 101  80 101  83 100
M  END
> <chiral flag>
0

> <version>
0

> <s_m_source_file>
/data/baiqing/PycharmProjects/Reinvent-master-3.2/result/LINK_invent/BTK/process_docking_weight1_custom_sum_contain_oxygen_bond_distance_aromatic_linkinvent_7_9_3/rearranged_h_0076.sdf

> <i_m_source_file_index>
6

> <r_mmod_Potential_Energy-OPLS-2005>
149.510162353516

> <r_mmod_Stretch_Energy-OPLS-2005>
112.56071472168

> <r_mmod_Bend_Energy-OPLS-2005>
172.022705078125

> <r_mmod_Torsional_Energy-OPLS-2005>
240.598434448242

> <r_mmod_Improper_Torsional_Energy-OPLS-2005>
7.40902233123779

> <r_mmod_Van_der_Waal_Energy-OPLS-2005>
129.708572387695

> <r_mmod_Electrostatic_Energy-OPLS-2005>
-376.124298095703

> <r_mmod_Solvation_Energy-OPLS-2005>
-201.461334228516

> <b_mmod_Minimization_Converged-OPLS-2005>
0

> <r_mmod_RMS_Derivative-OPLS-2005>
2.54958701133728

$$$$
6
                    3D
 Structure written by MMmdl.
166174  0  0  1  0            999 V2000
  -30.6312  -14.7176   20.4575 C   0  0  0  0  0  0
  -30.4254  -12.4337   19.4681 C   0  0  0  0  0  0
  -29.5062  -12.4927   18.2296 C   0  0  0  0  0  0
  -28.0361  -12.3183   18.6549 C   0  0  0  0  0  0
  -27.6437  -13.2271   19.8517 C   0  0  2  0  0  0
  -28.6891  -13.1642   20.9864 C   0  0  0  0  0  0
  -25.2522  -13.8190   20.5719 C   0  0  0  0  0  0
  -24.1793  -13.0434   20.9217 C   0  0  0  0  0  0
  -24.6367  -11.6917   20.8721 C   0  0  0  0  0  0
  -23.9031  -10.4293   21.0380 C   0  0  0  0  0  0
  -24.3582   -9.4226   21.9174 C   0  0  0  0  0  0
  -23.6270   -8.2253   22.0755 C   0  0  0  0  0  0
  -22.4264   -8.0267   21.3533 C   0  0  0  0  0  0
  -21.9888   -9.0230   20.4635 C   0  0  0  0  0  0
  -22.7194  -10.2125   20.3043 C   0  0  0  0  0  0
  -21.6855   -6.0711   22.5273 C   0  0  0  0  0  0
  -21.4006   -6.5622   23.8200 C   0  0  0  0  0  0
  -21.3676   -5.6783   24.9176 C   0  0  0  0  0  0
  -21.6052   -4.3048   24.7238 C   0  0  0  0  0  0
  -21.8818   -3.8128   23.4361 C   0  0  0  0  0  0
  -21.9190   -4.6934   22.3405 C   0  0  0  0  0  0
  -22.7825  -13.5228   21.1884 C   0  0  0  0  0  0
  -22.1664   -4.2111   21.0985 F   0  0  0  0  0  0
  -21.5647   -3.4544   25.7765 F   0  0  0  0  0  0
  -29.9903  -13.5013   20.3983 N   0  0  0  0  0  0
  -26.2941  -12.9391   20.3291 N   0  0  0  0  0  0
  -25.9293  -11.6533   20.5720 N   0  0  0  0  0  0
  -22.0455  -12.8193   22.0416 N   0  0  0  0  0  0
  -25.4237  -15.1905   20.4204 N   0  0  0  0  0  0
  -31.8195  -14.8027   20.1404 O   0  0  0  0  0  0
  -21.6646   -6.8844   21.4232 O   0  0  0  0  0  0
  -22.3521  -14.5552   20.6761 O   0  0  0  0  0  0
  -24.6318  -31.8561   23.1954 C   0  0  0  0  0  0
  -25.9147  -32.4749   23.8299 C   0  0  1  0  0  0
  -27.2249  -27.2710   20.1405 C   0  0  0  0  0  0
  -25.5949  -33.8547   24.2233 N   0  0  0  0  0  0
  -23.4274  -30.4766   21.5419 C   0  0  2  0  0  0
  -24.8757  -28.9238   20.1132 C   0  0  0  0  0  0
  -22.7521  -29.4590   22.4922 C   0  0  0  0  0  0
  -18.0304  -28.1390   22.8487 C   0  0  0  0  0  0
  -24.1501  -36.7276   23.2633 C   0  0  0  0  0  0
  -25.9712  -30.7761   21.3694 C   0  0  0  0  0  0
  -26.0485  -29.3986   20.7150 C   0  0  0  0  0  0
  -27.2312  -28.5907   20.7050 C   0  0  0  0  0  0
  -26.0200  -26.8506   19.5359 C   0  0  0  0  0  0
  -24.8672  -27.6581   19.5089 C   0  0  0  0  0  0
  -23.6447  -29.8101   20.1585 C   0  0  0  0  0  0
  -25.4127  -36.3038   24.0297 C   0  0  1  0  0  0
  -20.5916  -28.3691   23.1279 C   0  0  2  0  0  0
  -20.6799  -26.9418   22.5408 C   0  0  0  0  0  0
  -19.5762  -26.6401   21.5217 C   0  0  0  0  0  0
  -18.1940  -26.7936   22.1626 C   0  0  0  0  0  0
  -19.1558  -28.8861   23.2864 C   0  0  0  0  0  0
  -18.9475  -30.1477   23.8866 C   0  0  0  0  0  0
  -17.6464  -30.6586   24.0567 C   0  0  0  0  0  0
  -25.9075  -34.9425   23.5059 C   0  0  0  0  0  0
  -16.5357  -29.9078   23.6338 C   0  0  0  0  0  0
  -16.7288  -28.6508   23.0336 C   0  0  0  0  0  0
  -26.4515  -31.6575   25.0681 C   0  0  0  0  0  0
  -25.3719  -31.3709   26.1382 C   0  0  0  0  0  0
  -27.0381  -30.3001   24.6155 C   0  0  0  0  0  0
  -27.6063  -32.4335   25.7471 C   0  0  0  0  0  0
  -27.5576  -37.1790   24.8455 C   0  0  0  0  0  0
  -21.4235  -29.3023   22.3669 N   0  0  0  0  0  0
  -26.4287  -37.3750   23.9398 N   0  0  0  0  0  0
  -24.6957  -31.0524   22.0931 N   0  0  0  0  0  0
  -23.4221  -28.8133   23.3019 O   0  0  0  0  0  0
  -28.3315  -26.3923   20.1328 O   0  0  0  0  0  0
  -26.5654  -34.8906   22.4638 O   0  0  0  0  0  0
  -23.5469  -32.1402   23.7245 O   0  0  0  0  0  0
  -29.1450  -21.3170   18.4115 C   0  0  0  0  0  0
  -29.2854  -21.3293   19.8250 C   0  0  0  0  0  0
  -28.6080  -23.6761   19.7902 C   0  0  0  0  0  0
  -28.5091  -23.5719   18.3707 C   0  0  0  0  0  0
  -28.1220  -19.4860   16.9908 C   0  0  0  0  0  0
  -26.8198  -24.3697   16.6513 C   0  0  0  0  0  0
  -29.2711  -25.0891   16.5001 C   0  0  0  0  0  0
  -29.4204  -20.1039   17.5325 C   0  0  0  0  0  0
  -29.9487  -20.0830   20.5716 C   0  0  0  0  0  0
  -28.1408  -24.9745   20.6040 C   0  0  0  0  0  0
  -29.3442  -18.5729   20.5506 C   0  0  0  0  0  0
  -30.3701  -17.3152   20.5425 C   0  0  0  0  0  0
  -28.1069  -24.7058   17.4289 C   0  0  0  0  0  0
  -29.0054  -22.5265   20.4925 N   0  0  0  0  0  0
  -28.7744  -22.4136   17.7175 N   0  0  0  0  0  0
  -29.8858  -15.8687   20.6567 N   0  0  0  0  0  0
  -31.4699  -12.5364   19.1703 H   0  0  0  0  0  0
  -30.3473  -11.4571   19.9482 H   0  0  0  0  0  0
  -29.7787  -11.7082   17.5217 H   0  0  0  0  0  0
  -29.6401  -13.4395   17.7047 H   0  0  0  0  0  0
  -27.9088  -11.2729   18.9394 H   0  0  0  0  0  0
  -27.3687  -12.4877   17.8090 H   0  0  0  0  0  0
  -27.6407  -14.2469   19.4685 H   0  0  0  0  0  0
  -28.7172  -12.1729   21.4405 H   0  0  0  0  0  0
  -28.4317  -13.8603   21.7859 H   0  0  0  0  0  0
  -25.2717   -9.5739   22.4751 H   0  0  0  0  0  0
  -23.9993   -7.4665   22.7488 H   0  0  0  0  0  0
  -21.0828   -8.8720   19.8936 H   0  0  0  0  0  0
  -22.3617  -10.9657   19.6160 H   0  0  0  0  0  0
  -21.1972   -7.6127   23.9681 H   0  0  0  0  0  0
  -21.1515   -6.0531   25.9072 H   0  0  0  0  0  0
  -22.0572   -2.7584   23.2885 H   0  0  0  0  0  0
  -22.4066  -11.9856   22.4815 H   0  0  0  0  0  0
  -21.1066  -13.1209   22.2596 H   0  0  0  0  0  0
  -24.6613  -15.8466   20.5505 H   0  0  0  0  0  0
  -26.2745  -15.6338   20.0986 H   0  0  0  0  0  0
  -26.7210  -32.5412   23.1040 H   0  0  0  0  0  0
  -25.0051  -33.9702   25.0341 H   0  0  0  0  0  0
  -22.7181  -31.2936   21.3963 H   0  0  0  0  0  0
  -23.3758  -35.9606   23.3263 H   0  0  0  0  0  0
  -24.3574  -36.8972   22.2054 H   0  0  0  0  0  0
  -23.7300  -37.6466   23.6722 H   0  0  0  0  0  0
  -26.1006  -31.5378   20.5988 H   0  0  0  0  0  0
  -26.8502  -30.8292   21.9997 H   0  0  0  0  0  0
  -28.1364  -28.9614   21.1660 H   0  0  0  0  0  0
  -25.9535  -25.8702   19.0883 H   0  0  0  0  0  0
  -23.9691  -27.2861   19.0352 H   0  0  0  0  0  0
  -23.7630  -30.5872   19.4020 H   0  0  0  0  0  0
  -22.7632  -29.2388   19.8597 H   0  0  0  0  0  0
  -25.1319  -36.1838   25.0784 H   0  0  0  0  0  0
  -20.9981  -28.3269   24.1409 H   0  0  0  0  0  0
  -20.5748  -26.2284   23.3595 H   0  0  0  0  0  0
  -21.6661  -26.7454   22.1176 H   0  0  0  0  0  0
  -19.6918  -25.6315   21.1254 H   0  0  0  0  0  0
  -19.6708  -27.3204   20.6740 H   0  0  0  0  0  0
  -17.4220  -26.6700   21.4019 H   0  0  0  0  0  0
  -18.0298  -26.0074   22.9012 H   0  0  0  0  0  0
  -19.7947  -30.7319   24.2208 H   0  0  0  0  0  0
  -17.5014  -31.6258   24.5185 H   0  0  0  0  0  0
  -15.5361  -30.2956   23.7693 H   0  0  0  0  0  0
  -15.8697  -28.0845   22.7003 H   0  0  0  0  0  0
  -24.5885  -30.7084   25.7681 H   0  0  0  0  0  0
  -24.8895  -32.2861   26.4814 H   0  0  0  0  0  0
  -25.7995  -30.8862   27.0163 H   0  0  0  0  0  0
  -26.2954  -29.6722   24.1210 H   0  0  0  0  0  0
  -27.4127  -29.7284   25.4657 H   0  0  0  0  0  0
  -27.8792  -30.4298   23.9338 H   0  0  0  0  0  0
  -27.2677  -33.3682   26.1961 H   0  0  0  0  0  0
  -28.3908  -32.6850   25.0315 H   0  0  0  0  0  0
  -28.0678  -31.8509   26.5456 H   0  0  0  0  0  0
  -28.2561  -38.0119   24.7521 H   0  0  0  0  0  0
  -28.1129  -36.2651   24.6276 H   0  0  0  0  0  0
  -27.2277  -37.1411   25.8854 H   0  0  0  0  0  0
  -20.9418  -29.8745   21.6883 H   0  0  0  0  0  0
  -26.0142  -38.2807   24.1427 H   0  0  0  0  0  0
  -28.3233  -18.5878   16.4088 H   0  0  0  0  0  0
  -27.5986  -20.1903   16.3420 H   0  0  0  0  0  0
  -27.4427  -19.2131   17.7992 H   0  0  0  0  0  0
  -25.9938  -24.1543   17.3310 H   0  0  0  0  0  0
  -26.9537  -23.4977   16.0093 H   0  0  0  0  0  0
  -26.5142  -25.2014   16.0164 H   0  0  0  0  0  0
  -30.1479  -25.3758   17.0823 H   0  0  0  0  0  0
  -29.0108  -25.9291   15.8563 H   0  0  0  0  0  0
  -29.5648  -24.2596   15.8577 H   0  0  0  0  0  0
  -30.0091  -19.3540   18.0537 H   0  0  0  0  0  0
  -30.0509  -20.4120   16.6972 H   0  0  0  0  0  0
  -30.1203  -20.3704   21.6089 H   0  0  0  0  0  0
  -30.9551  -20.0238   20.1558 H   0  0  0  0  0  0
  -28.6658  -24.9310   21.5592 H   0  0  0  0  0  0
  -27.0983  -24.8063   20.8718 H   0  0  0  0  0  0
  -28.6933  -18.4659   19.6871 H   0  0  0  0  0  0
  -28.6775  -18.4834   21.4085 H   0  0  0  0  0  0
  -31.1053  -17.4621   21.3349 H   0  0  0  0  0  0
  -30.9405  -17.3770   19.6138 H   0  0  0  0  0  0
  -27.8926  -25.5993   17.9957 H   0  0  0  0  0  0
  -28.9079  -15.7312   20.8644 H   0  0  0  0  0  0
  1 25  1  0  0  0
  1 30  2  0  0  0
  1 86  1  0  0  0
  2  3  1  0  0  0
  2 25  1  0  0  0
  2 87  1  0  0  0
  2 88  1  0  0  0
  3  4  1  0  0  0
  3 89  1  0  0  0
  3 90  1  0  0  0
  4  5  1  0  0  0
  4 91  1  0  0  0
  4 92  1  0  0  0
  5  6  1  0  0  0
  5 26  1  0  0  0
  5 93  1  0  0  0
  6 25  1  0  0  0
  6 94  1  0  0  0
  6 95  1  0  0  0
  7  8  2  0  0  0
  7 26  1  0  0  0
  7 29  1  0  0  0
  8  9  1  0  0  0
  8 22  1  0  0  0
  9 10  1  0  0  0
  9 27  2  0  0  0
 10 11  2  0  0  0
 10 15  1  0  0  0
 11 12  1  0  0  0
 11 96  1  0  0  0
 12 13  2  0  0  0
 12 97  1  0  0  0
 13 14  1  0  0  0
 13 31  1  0  0  0
 14 15  2  0  0  0
 14 98  1  0  0  0
 15 99  1  0  0  0
 16 17  2  0  0  0
 16 21  1  0  0  0
 16 31  1  0  0  0
 17 18  1  0  0  0
 17100  1  0  0  0
 18 19  2  0  0  0
 18101  1  0  0  0
 19 20  1  0  0  0
 19 24  1  0  0  0
 20 21  2  0  0  0
 20102  1  0  0  0
 21 23  1  0  0  0
 22 28  1  0  0  0
 22 32  2  0  0  0
 26 27  1  0  0  0
 28103  1  0  0  0
 28104  1  0  0  0
 29105  1  0  0  0
 29106  1  0  0  0
 33 34  1  0  0  0
 33 66  1  0  0  0
 33 70  2  0  0  0
 34 36  1  0  0  0
 34 59  1  0  0  0
 34107  1  0  0  0
 35 44  2  0  0  0
 35 45  1  0  0  0
 35 68  1  0  0  0
 36 56  1  0  0  0
 36108  1  0  0  0
 37 39  1  0  0  0
 37 47  1  0  0  0
 37 66  1  0  0  0
 37109  1  0  0  0
 38 43  2  0  0  0
 38 46  1  0  0  0
 38 47  1  0  0  0
 39 64  1  0  0  0
 39 67  2  0  0  0
 40 52  1  0  0  0
 40 53  2  0  0  0
 40 58  1  0  0  0
 41110  1  0  0  0
 41111  1  0  0  0
 41112  1  0  0  0
 41 48  1  0  0  0
 42 43  1  0  0  0
 42 66  1  0  0  0
 42113  1  0  0  0
 42114  1  0  0  0
 43 44  1  0  0  0
 44115  1  0  0  0
 45 46  2  0  0  0
 45116  1  0  0  0
 46117  1  0  0  0
 47118  1  0  0  0
 47119  1  0  0  0
 48 56  1  0  0  0
 48 65  1  0  0  0
 48120  1  0  0  0
 49 50  1  0  0  0
 49 53  1  0  0  0
 49 64  1  0  0  0
 49121  1  0  0  0
 50 51  1  0  0  0
 50122  1  0  0  0
 50123  1  0  0  0
 51 52  1  0  0  0
 51124  1  0  0  0
 51125  1  0  0  0
 52126  1  0  0  0
 52127  1  0  0  0
 53 54  1  0  0  0
 54 55  2  0  0  0
 54128  1  0  0  0
 55 57  1  0  0  0
 55129  1  0  0  0
 56 69  2  0  0  0
 57 58  2  0  0  0
 57130  1  0  0  0
 58131  1  0  0  0
 59 60  1  0  0  0
 59 61  1  0  0  0
 59 62  1  0  0  0
 60132  1  0  0  0
 60133  1  0  0  0
 60134  1  0  0  0
 61135  1  0  0  0
 61136  1  0  0  0
 61137  1  0  0  0
 62138  1  0  0  0
 62139  1  0  0  0
 62140  1  0  0  0
 63 65  1  0  0  0
 63141  1  0  0  0
 63142  1  0  0  0
 63143  1  0  0  0
 64144  1  0  0  0
 65145  1  0  0  0
 68 80  1  0  0  0
 71 72  2  0  0  0
 71 78  1  0  0  0
 71 85  1  0  0  0
 72 79  1  0  0  0
 72 84  1  0  0  0
 73 74  1  0  0  0
 73 80  1  0  0  0
 73 84  2  0  0  0
 74 83  1  0  0  0
 74 85  2  0  0  0
 75 78  1  0  0  0
 75146  1  0  0  0
 75147  1  0  0  0
 75148  1  0  0  0
 76149  1  0  0  0
 76150  1  0  0  0
 76151  1  0  0  0
 76 83  1  0  0  0
 77 83  1  0  0  0
 77152  1  0  0  0
 77153  1  0  0  0
 77154  1  0  0  0
 78155  1  0  0  0
 78156  1  0  0  0
 79 81  1  0  0  0
 79157  1  0  0  0
 79158  1  0  0  0
 80159  1  0  0  0
 80160  1  0  0  0
 81 82  1  0  0  0
 81161  1  0  0  0
 81162  1  0  0  0
 82 86  1  0  0  0
 82163  1  0  0  0
 82164  1  0  0  0
 83165  1  0  0  0
 86166  1  0  0  0
M  ISO  4   1 100  68 101  80 101  86 100
M  END
> <chiral flag>
0

> <version>
0

> <s_m_source_file>
/data/baiqing/PycharmProjects/Reinvent-master-3.2/result/LINK_invent/BTK/process_docking_weight1_custom_sum_contain_oxygen_bond_distance_aromatic_linkinvent_7_9_3/rearranged_h_0076.sdf

> <i_m_source_file_index>
7

> <r_mmod_Potential_Energy-OPLS-2005>
207.613006591797

> <r_mmod_Stretch_Energy-OPLS-2005>
130.470397949219

> <r_mmod_Bend_Energy-OPLS-2005>
178.379669189453

> <r_mmod_Torsional_Energy-OPLS-2005>
213.537689208984

> <r_mmod_Improper_Torsional_Energy-OPLS-2005>
5.96399402618408

> <r_mmod_Van_der_Waal_Energy-OPLS-2005>
138.897811889648

> <r_mmod_Electrostatic_Energy-OPLS-2005>
-320.919525146484

> <r_mmod_Solvation_Energy-OPLS-2005>
-214.144454956055

> <b_mmod_Minimization_Converged-OPLS-2005>
0

> <r_mmod_RMS_Derivative-OPLS-2005>
2.97619247436523

$$$$
7
                    3D
 Structure written by MMmdl.
164172  0  0  1  0            999 V2000
  -30.6773  -14.4757   20.4930 C   0  0  0  0  0  0
  -30.4252  -12.2760   19.4292 C   0  0  0  0  0  0
  -29.4967  -12.4410   18.2077 C   0  0  0  0  0  0
  -28.0141  -12.3323   18.6213 C   0  0  0  0  0  0
  -27.6564  -13.1955   19.8622 C   0  0  2  0  0  0
  -28.7027  -13.0074   20.9852 C   0  0  0  0  0  0
  -25.2615  -13.8144   20.5710 C   0  0  0  0  0  0
  -24.1847  -13.0435   20.9221 C   0  0  0  0  0  0
  -24.6374  -11.6902   20.8757 C   0  0  0  0  0  0
  -23.9031  -10.4299   21.0411 C   0  0  0  0  0  0
  -24.3597   -9.4226   21.9190 C   0  0  0  0  0  0
  -23.6288   -8.2246   22.0744 C   0  0  0  0  0  0
  -22.4275   -8.0273   21.3537 C   0  0  0  0  0  0
  -21.9909   -9.0243   20.4643 C   0  0  0  0  0  0
  -22.7209  -10.2137   20.3057 C   0  0  0  0  0  0
  -21.6850   -6.0735   22.5285 C   0  0  0  0  0  0
  -21.4001   -6.5635   23.8221 C   0  0  0  0  0  0
  -21.3671   -5.6788   24.9186 C   0  0  0  0  0  0
  -21.6042   -4.3049   24.7233 C   0  0  0  0  0  0
  -21.8817   -3.8142   23.4351 C   0  0  0  0  0  0
  -21.9194   -4.6963   22.3409 C   0  0  0  0  0  0
  -22.7876  -13.5256   21.1865 C   0  0  0  0  0  0
  -22.1659   -4.2143   21.0987 F   0  0  0  0  0  0
  -21.5651   -3.4536   25.7751 F   0  0  0  0  0  0
  -30.0265  -13.2877   20.4160 N   0  0  0  0  0  0
  -26.3008  -12.9267   20.3336 N   0  0  0  0  0  0
  -25.9295  -11.6451   20.5779 N   0  0  0  0  0  0
  -22.0461  -12.8271   22.0408 N   0  0  0  0  0  0
  -25.4396  -15.1852   20.4170 N   0  0  0  0  0  0
  -31.8707  -14.6092   20.1996 O   0  0  0  0  0  0
  -21.6636   -6.8870   21.4241 O   0  0  0  0  0  0
  -22.3584  -14.5548   20.6687 O   0  0  0  0  0  0
  -24.6157  -31.8674   23.2100 C   0  0  0  0  0  0
  -25.9057  -32.4813   23.8382 C   0  0  1  0  0  0
  -27.2283  -27.4351   20.1094 C   0  0  0  0  0  0
  -25.5926  -33.8610   24.2322 N   0  0  0  0  0  0
  -23.4041  -30.4921   21.5494 C   0  0  2  0  0  0
  -24.8490  -28.9570   20.1113 C   0  0  0  0  0  0
  -22.7398  -29.4683   22.4976 C   0  0  0  0  0  0
  -18.0257  -28.1408   22.8474 C   0  0  0  0  0  0
  -24.1481  -36.7294   23.2640 C   0  0  0  0  0  0
  -25.9309  -30.8364   21.3616 C   0  0  0  0  0  0
  -26.0071  -29.4705   20.7083 C   0  0  0  0  0  0
  -27.2031  -28.7200   20.6968 C   0  0  0  0  0  0
  -26.0573  -26.9336   19.5031 C   0  0  0  0  0  0
  -24.8694  -27.6909   19.4985 C   0  0  0  0  0  0
  -23.6120  -29.8243   20.1622 C   0  0  0  0  0  0
  -25.4113  -36.3100   24.0340 C   0  0  1  0  0  0
  -20.5855  -28.3705   23.1314 C   0  0  2  0  0  0
  -20.6765  -26.9409   22.5504 C   0  0  0  0  0  0
  -19.5761  -26.6310   21.5311 C   0  0  0  0  0  0
  -18.1906  -26.7922   22.1665 C   0  0  0  0  0  0
  -19.1510  -28.8873   23.2882 C   0  0  0  0  0  0
  -18.9421  -30.1475   23.8900 C   0  0  0  0  0  0
  -17.6418  -30.6590   24.0580 C   0  0  0  0  0  0
  -25.9045  -34.9472   23.5121 C   0  0  0  0  0  0
  -16.5315  -29.9097   23.6324 C   0  0  0  0  0  0
  -16.7240  -28.6534   23.0329 C   0  0  0  0  0  0
  -26.4508  -31.6584   25.0694 C   0  0  0  0  0  0
  -25.3773  -31.3674   26.1435 C   0  0  0  0  0  0
  -27.0338  -30.3025   24.6046 C   0  0  0  0  0  0
  -27.6095  -32.4294   25.7447 C   0  0  0  0  0  0
  -27.5582  -37.1805   24.8473 C   0  0  0  0  0  0
  -21.4126  -29.3033   22.3679 N   0  0  0  0  0  0
  -26.4303  -37.3786   23.9402 N   0  0  0  0  0  0
  -24.6688  -31.0800   22.0984 N   0  0  0  0  0  0
  -23.4161  -28.8237   23.3043 O   0  0  0  0  0  0
  -28.3938  -26.7036   20.1196 O   0  0  0  0  0  0
  -26.5590  -34.8933   22.4677 O   0  0  0  0  0  0
  -23.5350  -32.1439   23.7494 O   0  0  0  0  0  0
  -26.6747  -20.1885   22.1902 C   0  0  0  0  0  0
  -26.8417  -22.2518   20.9349 C   0  0  0  0  0  0
  -26.0538  -21.3302   21.6481 C   0  0  0  0  0  0
  -28.0568  -20.0084   21.9953 C   0  0  0  0  0  0
  -28.2233  -22.0146   20.8010 C   0  0  0  0  0  0
  -24.5659  -21.5631   21.8018 C   0  0  0  0  0  0
  -29.7704  -16.1965   19.1117 C   0  0  0  0  0  0
  -28.7608  -18.7366   22.4728 C   0  0  0  0  0  0
  -29.1536  -22.9537   20.0305 C   0  0  0  0  0  0
  -28.7499  -17.6358   21.3924 C   0  0  0  0  0  0
  -28.5894  -24.3124   19.5316 C   0  0  0  0  0  0
  -29.8231  -16.5172   21.5555 C   0  0  0  0  0  0
  -28.3067  -25.3618   20.6287 C   0  0  0  0  0  0
  -28.8114  -20.9071   21.3175 N   0  0  0  0  0  0
  -29.8592  -15.5551   20.4350 N   0  0  0  0  0  0
  -31.4697  -12.3722   19.1257 H   0  0  0  0  0  0
  -30.3273  -11.2757   19.8544 H   0  0  0  0  0  0
  -29.7259  -11.6782   17.4631 H   0  0  0  0  0  0
  -29.6784  -13.3965   17.7174 H   0  0  0  0  0  0
  -27.8217  -11.2825   18.8434 H   0  0  0  0  0  0
  -27.3653  -12.5873   17.7828 H   0  0  0  0  0  0
  -27.6822  -14.2339   19.5361 H   0  0  0  0  0  0
  -28.6792  -11.9851   21.3661 H   0  0  0  0  0  0
  -28.4913  -13.6584   21.8355 H   0  0  0  0  0  0
  -25.2737   -9.5721   22.4779 H   0  0  0  0  0  0
  -24.0003   -7.4638   22.7467 H   0  0  0  0  0  0
  -21.0840   -8.8755   19.8955 H   0  0  0  0  0  0
  -22.3651  -10.9679   19.6184 H   0  0  0  0  0  0
  -21.1962   -7.6138   23.9731 H   0  0  0  0  0  0
  -21.1515   -6.0511   25.9096 H   0  0  0  0  0  0
  -22.0590   -2.7599   23.2847 H   0  0  0  0  0  0
  -22.4008  -11.9915   22.4817 H   0  0  0  0  0  0
  -21.1069  -13.1321   22.2549 H   0  0  0  0  0  0
  -24.6851  -15.8488   20.5500 H   0  0  0  0  0  0
  -26.3083  -15.6205   20.1315 H   0  0  0  0  0  0
  -26.7126  -32.5519   23.1145 H   0  0  0  0  0  0
  -25.0117  -33.9776   25.0495 H   0  0  0  0  0  0
  -22.6941  -31.3094   21.4084 H   0  0  0  0  0  0
  -23.3749  -35.9621   23.3328 H   0  0  0  0  0  0
  -24.3570  -36.8886   22.2047 H   0  0  0  0  0  0
  -23.7238  -37.6514   23.6626 H   0  0  0  0  0  0
  -26.0435  -31.6051   20.5961 H   0  0  0  0  0  0
  -26.8188  -30.8868   21.9803 H   0  0  0  0  0  0
  -28.1016  -29.1160   21.1495 H   0  0  0  0  0  0
  -26.0648  -25.9647   19.0232 H   0  0  0  0  0  0
  -23.9827  -27.2988   19.0199 H   0  0  0  0  0  0
  -23.7200  -30.6001   19.4028 H   0  0  0  0  0  0
  -22.7357  -29.2462   19.8653 H   0  0  0  0  0  0
  -25.1293  -36.1971   25.0837 H   0  0  0  0  0  0
  -20.9950  -28.3320   24.1434 H   0  0  0  0  0  0
  -20.5632  -26.2354   23.3749 H   0  0  0  0  0  0
  -21.6649  -26.7396   22.1350 H   0  0  0  0  0  0
  -19.6923  -25.6164   21.1487 H   0  0  0  0  0  0
  -19.6746  -27.3026   20.6765 H   0  0  0  0  0  0
  -17.4200  -26.6643   21.4041 H   0  0  0  0  0  0
  -18.0262  -26.0108   22.9098 H   0  0  0  0  0  0
  -19.7897  -30.7299   24.2263 H   0  0  0  0  0  0
  -17.4967  -31.6266   24.5184 H   0  0  0  0  0  0
  -15.5323  -30.2999   23.7627 H   0  0  0  0  0  0
  -15.8646  -28.0851   22.7031 H   0  0  0  0  0  0
  -24.5972  -30.7001   25.7761 H   0  0  0  0  0  0
  -24.8940  -32.2819   26.4854 H   0  0  0  0  0  0
  -25.8143  -30.8856   27.0186 H   0  0  0  0  0  0
  -26.2874  -29.6778   24.1122 H   0  0  0  0  0  0
  -27.4164  -29.7258   25.4482 H   0  0  0  0  0  0
  -27.8680  -30.4359   23.9153 H   0  0  0  0  0  0
  -27.2736  -33.3603   26.2021 H   0  0  0  0  0  0
  -28.3901  -32.6844   25.0261 H   0  0  0  0  0  0
  -28.0757  -31.8402   26.5354 H   0  0  0  0  0  0
  -28.2621  -38.0077   24.7515 H   0  0  0  0  0  0
  -28.1058  -36.2624   24.6319 H   0  0  0  0  0  0
  -27.2286  -37.1481   25.8870 H   0  0  0  0  0  0
  -20.9289  -29.8678   21.6833 H   0  0  0  0  0  0
  -26.0190  -38.2862   24.1408 H   0  0  0  0  0  0
  -26.0936  -19.4483   22.7235 H   0  0  0  0  0  0
  -26.3775  -23.1200   20.4926 H   0  0  0  0  0  0
  -24.1803  -21.0948   22.7071 H   0  0  0  0  0  0
  -24.0276  -21.1553   20.9462 H   0  0  0  0  0  0
  -24.3503  -22.6303   21.8592 H   0  0  0  0  0  0
  -28.7496  -16.5162   18.8982 H   0  0  0  0  0  0
  -30.0576  -15.5357   18.2943 H   0  0  0  0  0  0
  -30.4287  -17.0654   19.0552 H   0  0  0  0  0  0
  -28.2931  -18.3684   23.3870 H   0  0  0  0  0  0
  -29.7881  -18.9901   22.7382 H   0  0  0  0  0  0
  -29.5072  -22.3962   19.1608 H   0  0  0  0  0  0
  -30.0377  -23.1398   20.6423 H   0  0  0  0  0  0
  -28.9186  -18.1618   20.4544 H   0  0  0  0  0  0
  -27.7514  -17.2008   21.3222 H   0  0  0  0  0  0
  -27.7133  -24.1643   18.9007 H   0  0  0  0  0  0
  -29.3490  -24.7346   18.8733 H   0  0  0  0  0  0
  -29.6451  -15.9722   22.4851 H   0  0  0  0  0  0
  -30.8107  -16.9721   21.6500 H   0  0  0  0  0  0
  -29.0603  -25.2767   21.4123 H   0  0  0  0  0  0
  -27.3522  -25.1637   21.1191 H   0  0  0  0  0  0
  1 25  1  0  0  0
  1 30  2  0  0  0
  1 85  1  0  0  0
  2  3  1  0  0  0
  2 25  1  0  0  0
  2 86  1  0  0  0
  2 87  1  0  0  0
  3  4  1  0  0  0
  3 88  1  0  0  0
  3 89  1  0  0  0
  4  5  1  0  0  0
  4 90  1  0  0  0
  4 91  1  0  0  0
  5  6  1  0  0  0
  5 26  1  0  0  0
  5 92  1  0  0  0
  6 25  1  0  0  0
  6 93  1  0  0  0
  6 94  1  0  0  0
  7  8  2  0  0  0
  7 26  1  0  0  0
  7 29  1  0  0  0
  8  9  1  0  0  0
  8 22  1  0  0  0
  9 10  1  0  0  0
  9 27  2  0  0  0
 10 11  2  0  0  0
 10 15  1  0  0  0
 11 12  1  0  0  0
 11 95  1  0  0  0
 12 13  2  0  0  0
 12 96  1  0  0  0
 13 14  1  0  0  0
 13 31  1  0  0  0
 14 15  2  0  0  0
 14 97  1  0  0  0
 15 98  1  0  0  0
 16 17  2  0  0  0
 16 21  1  0  0  0
 16 31  1  0  0  0
 17 18  1  0  0  0
 17 99  1  0  0  0
 18 19  2  0  0  0
 18100  1  0  0  0
 19 20  1  0  0  0
 19 24  1  0  0  0
 20 21  2  0  0  0
 20101  1  0  0  0
 21 23  1  0  0  0
 22 28  1  0  0  0
 22 32  2  0  0  0
 26 27  1  0  0  0
 28102  1  0  0  0
 28103  1  0  0  0
 29104  1  0  0  0
 29105  1  0  0  0
 33 34  1  0  0  0
 33 66  1  0  0  0
 33 70  2  0  0  0
 34 36  1  0  0  0
 34 59  1  0  0  0
 34106  1  0  0  0
 35 44  2  0  0  0
 35 45  1  0  0  0
 35 68  1  0  0  0
 36 56  1  0  0  0
 36107  1  0  0  0
 37 39  1  0  0  0
 37 47  1  0  0  0
 37 66  1  0  0  0
 37108  1  0  0  0
 38 43  2  0  0  0
 38 46  1  0  0  0
 38 47  1  0  0  0
 39 64  1  0  0  0
 39 67  2  0  0  0
 40 52  1  0  0  0
 40 53  2  0  0  0
 40 58  1  0  0  0
 41109  1  0  0  0
 41110  1  0  0  0
 41111  1  0  0  0
 41 48  1  0  0  0
 42 43  1  0  0  0
 42 66  1  0  0  0
 42112  1  0  0  0
 42113  1  0  0  0
 43 44  1  0  0  0
 44114  1  0  0  0
 45 46  2  0  0  0
 45115  1  0  0  0
 46116  1  0  0  0
 47117  1  0  0  0
 47118  1  0  0  0
 48 56  1  0  0  0
 48 65  1  0  0  0
 48119  1  0  0  0
 49 50  1  0  0  0
 49 53  1  0  0  0
 49 64  1  0  0  0
 49120  1  0  0  0
 50 51  1  0  0  0
 50121  1  0  0  0
 50122  1  0  0  0
 51 52  1  0  0  0
 51123  1  0  0  0
 51124  1  0  0  0
 52125  1  0  0  0
 52126  1  0  0  0
 53 54  1  0  0  0
 54 55  2  0  0  0
 54127  1  0  0  0
 55 57  1  0  0  0
 55128  1  0  0  0
 56 69  2  0  0  0
 57 58  2  0  0  0
 57129  1  0  0  0
 58130  1  0  0  0
 59 60  1  0  0  0
 59 61  1  0  0  0
 59 62  1  0  0  0
 60131  1  0  0  0
 60132  1  0  0  0
 60133  1  0  0  0
 61134  1  0  0  0
 61135  1  0  0  0
 61136  1  0  0  0
 62137  1  0  0  0
 62138  1  0  0  0
 62139  1  0  0  0
 63 65  1  0  0  0
 63140  1  0  0  0
 63141  1  0  0  0
 63142  1  0  0  0
 64143  1  0  0  0
 65144  1  0  0  0
 68 83  1  0  0  0
 71 73  2  0  0  0
 71 74  1  0  0  0
 71145  1  0  0  0
 72 73  1  0  0  0
 72 75  2  0  0  0
 72146  1  0  0  0
 73 76  1  0  0  0
 74 78  1  0  0  0
 74 84  2  0  0  0
 75 79  1  0  0  0
 75 84  1  0  0  0
 76147  1  0  0  0
 76148  1  0  0  0
 76149  1  0  0  0
 77 85  1  0  0  0
 77150  1  0  0  0
 77151  1  0  0  0
 77152  1  0  0  0
 78 80  1  0  0  0
 78153  1  0  0  0
 78154  1  0  0  0
 79 81  1  0  0  0
 79155  1  0  0  0
 79156  1  0  0  0
 80 82  1  0  0  0
 80157  1  0  0  0
 80158  1  0  0  0
 81 83  1  0  0  0
 81159  1  0  0  0
 81160  1  0  0  0
 82 85  1  0  0  0
 82161  1  0  0  0
 82162  1  0  0  0
 83163  1  0  0  0
 83164  1  0  0  0
M  ISO  4   1 100  68 101  83 101  85 100
M  END
> <chiral flag>
0

> <version>
0

> <s_m_source_file>
/data/baiqing/PycharmProjects/Reinvent-master-3.2/result/LINK_invent/BTK/process_docking_weight1_custom_sum_contain_oxygen_bond_distance_aromatic_linkinvent_7_9_3/rearranged_h_0076.sdf

> <i_m_source_file_index>
8

> <r_mmod_Potential_Energy-OPLS-2005>
-35.7056198120117

> <r_mmod_Stretch_Energy-OPLS-2005>
37.129322052002

> <r_mmod_Bend_Energy-OPLS-2005>
100.01806640625

> <r_mmod_Torsional_Energy-OPLS-2005>
310.240997314453

> <r_mmod_Improper_Torsional_Energy-OPLS-2005>
17.5874614715576

> <r_mmod_Van_der_Waal_Energy-OPLS-2005>
150.890151977539

> <r_mmod_Electrostatic_Energy-OPLS-2005>
-467.933990478516

> <r_mmod_Solvation_Energy-OPLS-2005>
-202.952346801758

> <b_mmod_Minimization_Converged-OPLS-2005>
0

> <r_mmod_RMS_Derivative-OPLS-2005>
2.70138645172119

$$$$
8
                    3D
 Structure written by MMmdl.
173181  0  0  1  0            999 V2000
  -30.6444  -14.7382   20.6182 C   0  0  0  0  0  0
  -30.4138  -12.4768   19.5231 C   0  0  0  0  0  0
  -29.5205  -12.5352   18.2642 C   0  0  0  0  0  0
  -28.0491  -12.3277   18.6559 C   0  0  0  0  0  0
  -27.6427  -13.2241   19.8526 C   0  0  2  0  0  0
  -28.6574  -13.1603   21.0140 C   0  0  0  0  0  0
  -25.2472  -13.8109   20.5246 C   0  0  0  0  0  0
  -24.1812  -13.0446   20.9110 C   0  0  0  0  0  0
  -24.6379  -11.6909   20.8752 C   0  0  0  0  0  0
  -23.9035  -10.4304   21.0435 C   0  0  0  0  0  0
  -24.3597   -9.4212   21.9206 C   0  0  0  0  0  0
  -23.6280   -8.2239   22.0776 C   0  0  0  0  0  0
  -22.4260   -8.0297   21.3565 C   0  0  0  0  0  0
  -21.9882   -9.0268   20.4660 C   0  0  0  0  0  0
  -22.7204  -10.2151   20.3077 C   0  0  0  0  0  0
  -21.6846   -6.0719   22.5280 C   0  0  0  0  0  0
  -21.4012   -6.5616   23.8215 C   0  0  0  0  0  0
  -21.3662   -5.6771   24.9182 C   0  0  0  0  0  0
  -21.6052   -4.3033   24.7236 C   0  0  0  0  0  0
  -21.8813   -3.8125   23.4352 C   0  0  0  0  0  0
  -21.9181   -4.6944   22.3406 C   0  0  0  0  0  0
  -22.7850  -13.5270   21.1795 C   0  0  0  0  0  0
  -22.1649   -4.2127   21.0980 F   0  0  0  0  0  0
  -21.5640   -3.4519   25.7744 F   0  0  0  0  0  0
  -29.9720  -13.5324   20.4840 N   0  0  0  0  0  0
  -26.2911  -12.9311   20.3127 N   0  0  0  0  0  0
  -25.9318  -11.6484   20.5793 N   0  0  0  0  0  0
  -22.0461  -12.8340   22.0394 N   0  0  0  0  0  0
  -25.4189  -15.1716   20.2948 N   0  0  0  0  0  0
  -31.7056  -14.8163   19.9868 O   0  0  0  0  0  0
  -21.6644   -6.8880   21.4246 O   0  0  0  0  0  0
  -22.3550  -14.5572   20.6635 O   0  0  0  0  0  0
  -24.6305  -31.8553   23.1960 C   0  0  0  0  0  0
  -25.9132  -32.4756   23.8316 C   0  0  1  0  0  0
  -27.2299  -27.2658   20.1481 C   0  0  0  0  0  0
  -25.5931  -33.8554   24.2259 N   0  0  0  0  0  0
  -23.4291  -30.4745   21.5398 C   0  0  2  0  0  0
  -24.8796  -28.9158   20.1135 C   0  0  0  0  0  0
  -22.7504  -29.4601   22.4915 C   0  0  0  0  0  0
  -18.0291  -28.1400   22.8474 C   0  0  0  0  0  0
  -24.1485  -36.7276   23.2648 C   0  0  0  0  0  0
  -25.9719  -30.7720   21.3701 C   0  0  0  0  0  0
  -26.0498  -29.3913   20.7203 C   0  0  0  0  0  0
  -27.2300  -28.5825   20.7184 C   0  0  0  0  0  0
  -26.0392  -26.8519   19.5161 C   0  0  0  0  0  0
  -24.8788  -27.6543   19.4967 C   0  0  0  0  0  0
  -23.6484  -29.8018   20.1589 C   0  0  0  0  0  0
  -25.4102  -36.3064   24.0340 C   0  0  1  0  0  0
  -20.5891  -28.3704   23.1274 C   0  0  2  0  0  0
  -20.6775  -26.9415   22.5445 C   0  0  0  0  0  0
  -19.5774  -26.6360   21.5233 C   0  0  0  0  0  0
  -18.1938  -26.7934   22.1623 C   0  0  0  0  0  0
  -19.1544  -28.8872   23.2865 C   0  0  0  0  0  0
  -18.9472  -30.1462   23.8892 C   0  0  0  0  0  0
  -17.6478  -30.6604   24.0548 C   0  0  0  0  0  0
  -25.9051  -34.9447   23.5097 C   0  0  0  0  0  0
  -16.5367  -29.9100   23.6326 C   0  0  0  0  0  0
  -16.7272  -28.6520   23.0346 C   0  0  0  0  0  0
  -26.4509  -31.6558   25.0685 C   0  0  0  0  0  0
  -25.3743  -31.3696   26.1410 C   0  0  0  0  0  0
  -27.0361  -30.2980   24.6143 C   0  0  0  0  0  0
  -27.6069  -32.4299   25.7456 C   0  0  0  0  0  0
  -27.5566  -37.1786   24.8469 C   0  0  0  0  0  0
  -21.4212  -29.3044   22.3640 N   0  0  0  0  0  0
  -26.4268  -37.3763   23.9421 N   0  0  0  0  0  0
  -24.6963  -31.0525   22.0925 N   0  0  0  0  0  0
  -23.4188  -28.8150   23.3036 O   0  0  0  0  0  0
  -28.3322  -26.3836   20.1640 O   0  0  0  0  0  0
  -26.5616  -34.8932   22.4668 O   0  0  0  0  0  0
  -23.5463  -32.1380   23.7268 O   0  0  0  0  0  0
  -27.6029  -18.7469   21.4297 C   0  0  0  0  0  0
  -27.0081  -17.7173   22.1004 C   0  0  0  0  0  0
  -29.0613  -17.0168   21.4061 C   0  0  0  0  0  0
  -25.1486  -16.3991   23.2732 C   0  0  0  0  0  0
  -24.7383  -18.7193   22.4213 C   0  0  0  0  0  0
  -26.2677  -18.3374   24.3668 C   0  0  0  0  0  0
  -31.5772  -16.9264   21.5934 C   0  0  0  0  0  0
  -30.2751  -15.4734   23.0423 C   0  0  0  0  0  0
  -28.8444  -22.2334   20.7939 C   0  0  0  0  0  0
  -29.2617  -20.8820   19.9941 C   0  0  0  0  0  0
  -28.8289  -23.6763   20.0282 C   0  0  0  0  0  0
  -29.8240  -19.4912   20.6515 C   0  0  0  0  0  0
  -28.1508  -24.9896   20.7008 C   0  0  0  0  0  0
  -25.7987  -17.7703   23.0143 C   0  0  0  0  0  0
  -30.3104  -16.0256   21.5869 C   0  0  0  0  0  0
  -28.8754  -18.3746   21.0885 N   0  0  0  0  0  0
  -27.8818  -16.6633   21.9686 N   0  3  0  0  0  0
  -31.4626  -12.5629   19.2374 H   0  0  0  0  0  0
  -30.3372  -11.4949   19.9916 H   0  0  0  0  0  0
  -29.8323  -11.7777   17.5441 H   0  0  0  0  0  0
  -29.6444  -13.4979   17.7671 H   0  0  0  0  0  0
  -27.9226  -11.2792   18.9274 H   0  0  0  0  0  0
  -27.3961  -12.5037   17.8002 H   0  0  0  0  0  0
  -27.6543  -14.2480   19.4770 H   0  0  0  0  0  0
  -28.6870  -12.1630   21.4533 H   0  0  0  0  0  0
  -28.3258  -13.8303   21.8017 H   0  0  0  0  0  0
  -25.2728   -9.5687   22.4807 H   0  0  0  0  0  0
  -23.9979   -7.4606   22.7487 H   0  0  0  0  0  0
  -21.0812   -8.8776   19.8959 H   0  0  0  0  0  0
  -22.3649  -10.9701   19.6207 H   0  0  0  0  0  0
  -21.2017   -7.6125   23.9726 H   0  0  0  0  0  0
  -21.1484   -6.0495   25.9086 H   0  0  0  0  0  0
  -22.0584   -2.7586   23.2856 H   0  0  0  0  0  0
  -22.3997  -12.0031   22.4892 H   0  0  0  0  0  0
  -21.1102  -13.1473   22.2546 H   0  0  0  0  0  0
  -24.6239  -15.7983   20.3300 H   0  0  0  0  0  0
  -26.2040  -15.5629   19.7915 H   0  0  0  0  0  0
  -26.7197  -32.5418   23.1066 H   0  0  0  0  0  0
  -25.0057  -33.9683   25.0390 H   0  0  0  0  0  0
  -22.7271  -31.2959   21.3893 H   0  0  0  0  0  0
  -23.3750  -35.9606   23.3310 H   0  0  0  0  0  0
  -24.3566  -36.8890   22.2058 H   0  0  0  0  0  0
  -23.7251  -37.6485   23.6666 H   0  0  0  0  0  0
  -26.0969  -31.5272   20.5921 H   0  0  0  0  0  0
  -26.8555  -30.8347   21.9933 H   0  0  0  0  0  0
  -28.1296  -28.9467   21.1928 H   0  0  0  0  0  0
  -25.9952  -25.8808   19.0448 H   0  0  0  0  0  0
  -23.9830  -27.2831   19.0163 H   0  0  0  0  0  0
  -23.7723  -30.5740   19.4005 H   0  0  0  0  0  0
  -22.7684  -29.2331   19.8540 H   0  0  0  0  0  0
  -25.1292  -36.1896   25.0832 H   0  0  0  0  0  0
  -20.9973  -28.3311   24.1396 H   0  0  0  0  0  0
  -20.5635  -26.2340   23.3671 H   0  0  0  0  0  0
  -21.6652  -26.7407   22.1278 H   0  0  0  0  0  0
  -19.6924  -25.6253   21.1312 H   0  0  0  0  0  0
  -19.6740  -27.3125   20.6739 H   0  0  0  0  0  0
  -17.4211  -26.6657   21.4021 H   0  0  0  0  0  0
  -18.0336  -26.0097   22.9055 H   0  0  0  0  0  0
  -19.7949  -30.7260   24.2279 H   0  0  0  0  0  0
  -17.5038  -31.6276   24.5165 H   0  0  0  0  0  0
  -15.5373  -30.3004   23.7658 H   0  0  0  0  0  0
  -15.8662  -28.0825   22.7084 H   0  0  0  0  0  0
  -24.5925  -30.7031   25.7746 H   0  0  0  0  0  0
  -24.8920  -32.2862   26.4818 H   0  0  0  0  0  0
  -25.8068  -30.8895   27.0196 H   0  0  0  0  0  0
  -26.2938  -29.6701   24.1190 H   0  0  0  0  0  0
  -27.4100  -29.7252   25.4642 H   0  0  0  0  0  0
  -27.8794  -30.4275   23.9348 H   0  0  0  0  0  0
  -27.2679  -33.3614   26.2001 H   0  0  0  0  0  0
  -28.3884  -32.6819   25.0275 H   0  0  0  0  0  0
  -28.0722  -31.8429   26.5382 H   0  0  0  0  0  0
  -28.2598  -38.0074   24.7497 H   0  0  0  0  0  0
  -28.1050  -36.2602   24.6311 H   0  0  0  0  0  0
  -27.2281  -37.1459   25.8875 H   0  0  0  0  0  0
  -20.9403  -29.8745   21.6819 H   0  0  0  0  0  0
  -26.0152  -38.2837   24.1421 H   0  0  0  0  0  0
  -27.2624  -19.7653   21.3245 H   0  0  0  0  0  0
  -24.5799  -16.0505   22.4188 H   0  0  0  0  0  0
  -24.4208  -16.4679   24.0829 H   0  0  0  0  0  0
  -25.8715  -15.6364   23.5592 H   0  0  0  0  0  0
  -24.3987  -18.3732   21.4451 H   0  0  0  0  0  0
  -25.1165  -19.7346   22.3008 H   0  0  0  0  0  0
  -23.8631  -18.7838   23.0678 H   0  0  0  0  0  0
  -27.0195  -17.6984   24.8307 H   0  0  0  0  0  0
  -25.4350  -18.4255   25.0657 H   0  0  0  0  0  0
  -26.6994  -19.3330   24.2612 H   0  0  0  0  0  0
  -31.5006  -17.7319   22.3241 H   0  0  0  0  0  0
  -31.7653  -17.3770   20.6200 H   0  0  0  0  0  0
  -32.4751  -16.3631   21.8533 H   0  0  0  0  0  0
  -30.3460  -16.2804   23.7747 H   0  0  0  0  0  0
  -31.1035  -14.7922   23.2433 H   0  0  0  0  0  0
  -29.3663  -14.9321   23.2900 H   0  0  0  0  0  0
  -29.5124  -22.3296   21.6517 H   0  0  0  0  0  0
  -27.8545  -22.0732   21.2220 H   0  0  0  0  0  0
  -30.0713  -21.2048   19.3394 H   0  0  0  0  0  0
  -28.4623  -20.6284   19.2963 H   0  0  0  0  0  0
  -28.3616  -23.5353   19.0537 H   0  0  0  0  0  0
  -29.8665  -23.9277   19.8069 H   0  0  0  0  0  0
  -30.4558  -19.7271   21.5063 H   0  0  0  0  0  0
  -30.4795  -19.0358   19.9100 H   0  0  0  0  0  0
  -28.5346  -25.0437   21.7215 H   0  0  0  0  0  0
  -27.0889  -24.7807   20.8265 H   0  0  0  0  0  0
  -27.7153  -15.7642   22.4005 H   0  0  0  0  0  0
  1 25  1  0  0  0
  1 30  2  0  0  0
  1 85  1  0  0  0
  2  3  1  0  0  0
  2 25  1  0  0  0
  2 88  1  0  0  0
  2 89  1  0  0  0
  3  4  1  0  0  0
  3 90  1  0  0  0
  3 91  1  0  0  0
  4  5  1  0  0  0
  4 92  1  0  0  0
  4 93  1  0  0  0
  5  6  1  0  0  0
  5 26  1  0  0  0
  5 94  1  0  0  0
  6 25  1  0  0  0
  6 95  1  0  0  0
  6 96  1  0  0  0
  7  8  2  0  0  0
  7 26  1  0  0  0
  7 29  1  0  0  0
  8  9  1  0  0  0
  8 22  1  0  0  0
  9 10  1  0  0  0
  9 27  2  0  0  0
 10 11  2  0  0  0
 10 15  1  0  0  0
 11 12  1  0  0  0
 11 97  1  0  0  0
 12 13  2  0  0  0
 12 98  1  0  0  0
 13 14  1  0  0  0
 13 31  1  0  0  0
 14 15  2  0  0  0
 14 99  1  0  0  0
 15100  1  0  0  0
 16 17  2  0  0  0
 16 21  1  0  0  0
 16 31  1  0  0  0
 17 18  1  0  0  0
 17101  1  0  0  0
 18 19  2  0  0  0
 18102  1  0  0  0
 19 20  1  0  0  0
 19 24  1  0  0  0
 20 21  2  0  0  0
 20103  1  0  0  0
 21 23  1  0  0  0
 22 28  1  0  0  0
 22 32  2  0  0  0
 26 27  1  0  0  0
 28104  1  0  0  0
 28105  1  0  0  0
 29106  1  0  0  0
 29107  1  0  0  0
 33 34  1  0  0  0
 33 66  1  0  0  0
 33 70  2  0  0  0
 34 36  1  0  0  0
 34 59  1  0  0  0
 34108  1  0  0  0
 35 44  2  0  0  0
 35 45  1  0  0  0
 35 68  1  0  0  0
 36 56  1  0  0  0
 36109  1  0  0  0
 37 39  1  0  0  0
 37 47  1  0  0  0
 37 66  1  0  0  0
 37110  1  0  0  0
 38 43  2  0  0  0
 38 46  1  0  0  0
 38 47  1  0  0  0
 39 64  1  0  0  0
 39 67  2  0  0  0
 40 52  1  0  0  0
 40 53  2  0  0  0
 40 58  1  0  0  0
 41111  1  0  0  0
 41112  1  0  0  0
 41113  1  0  0  0
 41 48  1  0  0  0
 42 43  1  0  0  0
 42 66  1  0  0  0
 42114  1  0  0  0
 42115  1  0  0  0
 43 44  1  0  0  0
 44116  1  0  0  0
 45 46  2  0  0  0
 45117  1  0  0  0
 46118  1  0  0  0
 47119  1  0  0  0
 47120  1  0  0  0
 48 56  1  0  0  0
 48 65  1  0  0  0
 48121  1  0  0  0
 49 50  1  0  0  0
 49 53  1  0  0  0
 49 64  1  0  0  0
 49122  1  0  0  0
 50 51  1  0  0  0
 50123  1  0  0  0
 50124  1  0  0  0
 51 52  1  0  0  0
 51125  1  0  0  0
 51126  1  0  0  0
 52127  1  0  0  0
 52128  1  0  0  0
 53 54  1  0  0  0
 54 55  2  0  0  0
 54129  1  0  0  0
 55 57  1  0  0  0
 55130  1  0  0  0
 56 69  2  0  0  0
 57 58  2  0  0  0
 57131  1  0  0  0
 58132  1  0  0  0
 59 60  1  0  0  0
 59 61  1  0  0  0
 59 62  1  0  0  0
 60133  1  0  0  0
 60134  1  0  0  0
 60135  1  0  0  0
 61136  1  0  0  0
 61137  1  0  0  0
 61138  1  0  0  0
 62139  1  0  0  0
 62140  1  0  0  0
 62141  1  0  0  0
 63 65  1  0  0  0
 63142  1  0  0  0
 63143  1  0  0  0
 63144  1  0  0  0
 64145  1  0  0  0
 65146  1  0  0  0
 68 83  1  0  0  0
 71 72  2  0  0  0
 71 86  1  0  0  0
 71147  1  0  0  0
 72 84  1  0  0  0
 72 87  1  0  0  0
 73 85  1  0  0  0
 73 86  1  0  0  0
 73 87  2  0  0  0
 74148  1  0  0  0
 74149  1  0  0  0
 74150  1  0  0  0
 74 84  1  0  0  0
 75 84  1  0  0  0
 75151  1  0  0  0
 75152  1  0  0  0
 75153  1  0  0  0
 76 84  1  0  0  0
 76154  1  0  0  0
 76155  1  0  0  0
 76156  1  0  0  0
 77157  1  0  0  0
 77158  1  0  0  0
 77159  1  0  0  0
 77 85  1  0  0  0
 78 85  1  0  0  0
 78160  1  0  0  0
 78161  1  0  0  0
 78162  1  0  0  0
 79 80  1  0  0  0
 79 81  1  0  0  0
 79163  1  0  0  0
 79164  1  0  0  0
 80 82  1  0  0  0
 80165  1  0  0  0
 80166  1  0  0  0
 81 83  1  0  0  0
 81167  1  0  0  0
 81168  1  0  0  0
 82 86  1  0  0  0
 82169  1  0  0  0
 82170  1  0  0  0
 83171  1  0  0  0
 83172  1  0  0  0
 87173  1  0  0  0
M  CHG  1  87   1
M  ISO  4   1 100  68 101  83 101  85 100
M  END
> <chiral flag>
0

> <version>
0

> <s_m_source_file>
/data/baiqing/PycharmProjects/Reinvent-master-3.2/result/LINK_invent/BTK/process_docking_weight1_custom_sum_contain_oxygen_bond_distance_aromatic_linkinvent_7_9_3/rearranged_h_0076.sdf

> <i_m_source_file_index>
9

> <r_mmod_Potential_Energy-OPLS-2005>
328.493774414062

> <r_mmod_Stretch_Energy-OPLS-2005>
160.413040161133

> <r_mmod_Bend_Energy-OPLS-2005>
262.008331298828

> <r_mmod_Torsional_Energy-OPLS-2005>
262.074310302734

> <r_mmod_Improper_Torsional_Energy-OPLS-2005>
8.6884880065918

> <r_mmod_Van_der_Waal_Energy-OPLS-2005>
119.874160766602

> <r_mmod_Electrostatic_Energy-OPLS-2005>
-195.260543823242

> <r_mmod_Solvation_Energy-OPLS-2005>
-371.241455078125

> <b_mmod_Minimization_Converged-OPLS-2005>
0

> <r_mmod_RMS_Derivative-OPLS-2005>
3.05508613586426

$$$$
9
                    3D
 Structure written by MMmdl.
157165  0  0  1  0            999 V2000
  -30.6805  -14.5376   20.5348 C   0  0  0  0  0  0
  -30.4253  -12.3377   19.4375 C   0  0  0  0  0  0
  -29.4987  -12.5000   18.2141 C   0  0  0  0  0  0
  -28.0206  -12.3537   18.6266 C   0  0  0  0  0  0
  -27.6562  -13.2127   19.8673 C   0  0  2  0  0  0
  -28.6997  -13.0383   20.9942 C   0  0  0  0  0  0
  -25.2569  -13.8173   20.5684 C   0  0  0  0  0  0
  -24.1828  -13.0443   20.9188 C   0  0  0  0  0  0
  -24.6390  -11.6910   20.8739 C   0  0  0  0  0  0
  -23.9057  -10.4294   21.0408 C   0  0  0  0  0  0
  -24.3611   -9.4209   21.9185 C   0  0  0  0  0  0
  -23.6287   -8.2242   22.0754 C   0  0  0  0  0  0
  -22.4269   -8.0279   21.3542 C   0  0  0  0  0  0
  -21.9905   -9.0254   20.4647 C   0  0  0  0  0  0
  -22.7231  -10.2135   20.3057 C   0  0  0  0  0  0
  -21.6851   -6.0733   22.5279 C   0  0  0  0  0  0
  -21.4016   -6.5639   23.8212 C   0  0  0  0  0  0
  -21.3661   -5.6789   24.9173 C   0  0  0  0  0  0
  -21.6044   -4.3052   24.7223 C   0  0  0  0  0  0
  -21.8818   -3.8146   23.4345 C   0  0  0  0  0  0
  -21.9194   -4.6961   22.3401 C   0  0  0  0  0  0
  -22.7851  -13.5239   21.1844 C   0  0  0  0  0  0
  -22.1662   -4.2149   21.0978 F   0  0  0  0  0  0
  -21.5628   -3.4537   25.7736 F   0  0  0  0  0  0
  -30.0238  -13.3468   20.4326 N   0  0  0  0  0  0
  -26.2999  -12.9350   20.3338 N   0  0  0  0  0  0
  -25.9318  -11.6507   20.5761 N   0  0  0  0  0  0
  -22.0485  -12.8240   22.0403 N   0  0  0  0  0  0
  -25.4288  -15.1894   20.4097 N   0  0  0  0  0  0
  -31.8320  -14.6944   20.1219 O   0  0  0  0  0  0
  -21.6636   -6.8876   21.4237 O   0  0  0  0  0  0
  -22.3542  -14.5545   20.6685 O   0  0  0  0  0  0
  -24.6201  -31.8652   23.2079 C   0  0  0  0  0  0
  -25.9074  -32.4807   23.8385 C   0  0  1  0  0  0
  -27.2252  -27.3831   20.1040 C   0  0  0  0  0  0
  -25.5915  -33.8607   24.2313 N   0  0  0  0  0  0
  -23.4096  -30.4908   21.5496 C   0  0  2  0  0  0
  -24.8544  -28.9559   20.1110 C   0  0  0  0  0  0
  -22.7438  -29.4651   22.4963 C   0  0  0  0  0  0
  -18.0278  -28.1381   22.8490 C   0  0  0  0  0  0
  -24.1488  -36.7309   23.2637 C   0  0  0  0  0  0
  -25.9448  -30.8163   21.3688 C   0  0  0  0  0  0
  -26.0199  -29.4492   20.7107 C   0  0  0  0  0  0
  -27.2088  -28.6732   20.6994 C   0  0  0  0  0  0
  -26.0386  -26.9276   19.4819 C   0  0  0  0  0  0
  -24.8620  -27.6974   19.4905 C   0  0  0  0  0  0
  -23.6200  -29.8287   20.1628 C   0  0  0  0  0  0
  -25.4111  -36.3103   24.0334 C   0  0  1  0  0  0
  -20.5873  -28.3678   23.1301 C   0  0  2  0  0  0
  -20.6769  -26.9409   22.5413 C   0  0  0  0  0  0
  -19.5746  -26.6386   21.5212 C   0  0  0  0  0  0
  -18.1925  -26.7926   22.1625 C   0  0  0  0  0  0
  -19.1529  -28.8846   23.2894 C   0  0  0  0  0  0
  -18.9455  -30.1449   23.8907 C   0  0  0  0  0  0
  -17.6457  -30.6586   24.0566 C   0  0  0  0  0  0
  -25.9043  -34.9469   23.5122 C   0  0  0  0  0  0
  -16.5348  -29.9089   23.6326 C   0  0  0  0  0  0
  -16.7266  -28.6505   23.0348 C   0  0  0  0  0  0
  -26.4485  -31.6596   25.0728 C   0  0  0  0  0  0
  -25.3738  -31.3712   26.1468 C   0  0  0  0  0  0
  -27.0318  -30.3032   24.6131 C   0  0  0  0  0  0
  -27.6055  -32.4320   25.7493 C   0  0  0  0  0  0
  -27.5582  -37.1809   24.8464 C   0  0  0  0  0  0
  -21.4159  -29.3043   22.3705 N   0  0  0  0  0  0
  -26.4294  -37.3791   23.9410 N   0  0  0  0  0  0
  -24.6766  -31.0722   22.0998 N   0  0  0  0  0  0
  -23.4192  -28.8185   23.3014 O   0  0  0  0  0  0
  -28.3653  -26.5849   20.1514 O   0  0  0  0  0  0
  -26.5604  -34.8925   22.4683 O   0  0  0  0  0  0
  -23.5380  -32.1419   23.7449 O   0  0  0  0  0  0
  -29.6103  -22.1697   18.4766 C   0  0  0  0  0  0
  -29.9207  -21.0292   17.7865 C   0  0  0  0  0  0
  -29.5887  -20.4614   19.9160 C   0  0  0  0  0  0
  -29.5054  -19.5703   21.1468 C   0  0  0  0  0  0
  -29.1740  -18.0441   20.9347 C   0  0  0  0  0  0
  -29.3346  -24.2863   20.6673 C   0  0  0  0  0  0
  -29.0630  -22.7478   20.8962 C   0  0  0  0  0  0
  -30.3628  -17.0252   20.9333 C   0  0  0  0  0  0
  -28.1659  -25.1420   20.0873 C   0  0  0  0  0  0
  -29.4258  -21.8124   19.7916 N   0  0  0  0  0  0
  -29.9048  -20.0100   18.6962 N   0  3  0  0  0  0
  -29.9408  -15.5996   20.9381 N   0  0  0  0  0  0
  -31.4693  -12.4403   19.1363 H   0  0  0  0  0  0
  -30.3339  -11.3360   19.8597 H   0  0  0  0  0  0
  -29.7478  -11.7608   17.4516 H   0  0  0  0  0  0
  -29.6578  -13.4782   17.7568 H   0  0  0  0  0  0
  -27.8422  -11.2995   18.8418 H   0  0  0  0  0  0
  -27.3686  -12.6063   17.7896 H   0  0  0  0  0  0
  -27.6863  -14.2533   19.5439 H   0  0  0  0  0  0
  -28.6874  -12.0149   21.3723 H   0  0  0  0  0  0
  -28.4594  -13.6723   21.8487 H   0  0  0  0  0  0
  -25.2758   -9.5688   22.4759 H   0  0  0  0  0  0
  -23.9999   -7.4636   22.7476 H   0  0  0  0  0  0
  -21.0834   -8.8772   19.8956 H   0  0  0  0  0  0
  -22.3688  -10.9673   19.6164 H   0  0  0  0  0  0
  -21.2008   -7.6147   23.9716 H   0  0  0  0  0  0
  -21.1485   -6.0519   25.9076 H   0  0  0  0  0  0
  -22.0597   -2.7608   23.2842 H   0  0  0  0  0  0
  -22.4088  -11.9900   22.4800 H   0  0  0  0  0  0
  -21.1104  -13.1276   22.2595 H   0  0  0  0  0  0
  -24.6604  -15.8432   20.5150 H   0  0  0  0  0  0
  -26.2761  -15.6280   20.0723 H   0  0  0  0  0  0
  -26.7143  -32.5501   23.1141 H   0  0  0  0  0  0
  -25.0072  -33.9763   25.0463 H   0  0  0  0  0  0
  -22.7006  -31.3098   21.4114 H   0  0  0  0  0  0
  -23.3748  -35.9644   23.3306 H   0  0  0  0  0  0
  -24.3582  -36.8918   22.2051 H   0  0  0  0  0  0
  -23.7243  -37.6516   23.6648 H   0  0  0  0  0  0
  -26.0667  -31.5831   20.6026 H   0  0  0  0  0  0
  -26.8292  -30.8648   21.9923 H   0  0  0  0  0  0
  -28.1048  -29.0479   21.1746 H   0  0  0  0  0  0
  -25.9965  -25.9683   18.9876 H   0  0  0  0  0  0
  -23.9680  -27.3149   19.0172 H   0  0  0  0  0  0
  -23.7346  -30.6069   19.4073 H   0  0  0  0  0  0
  -22.7412  -29.2554   19.8619 H   0  0  0  0  0  0
  -25.1287  -36.1966   25.0827 H   0  0  0  0  0  0
  -20.9966  -28.3249   24.1422 H   0  0  0  0  0  0
  -20.5675  -26.2287   23.3605 H   0  0  0  0  0  0
  -21.6639  -26.7450   22.1205 H   0  0  0  0  0  0
  -19.6910  -25.6299   21.1238 H   0  0  0  0  0  0
  -19.6685  -27.3201   20.6746 H   0  0  0  0  0  0
  -17.4195  -26.6672   21.4027 H   0  0  0  0  0  0
  -18.0330  -26.0066   22.9021 H   0  0  0  0  0  0
  -19.7932  -30.7260   24.2284 H   0  0  0  0  0  0
  -17.5014  -31.6268   24.5167 H   0  0  0  0  0  0
  -15.5350  -30.2997   23.7644 H   0  0  0  0  0  0
  -15.8665  -28.0832   22.7056 H   0  0  0  0  0  0
  -24.5914  -30.7057   25.7804 H   0  0  0  0  0  0
  -24.8927  -32.2869   26.4914 H   0  0  0  0  0  0
  -25.8084  -30.8882   27.0228 H   0  0  0  0  0  0
  -26.2872  -29.6792   24.1173 H   0  0  0  0  0  0
  -27.4061  -29.7274   25.4606 H   0  0  0  0  0  0
  -27.8723  -30.4341   23.9310 H   0  0  0  0  0  0
  -27.2671  -33.3611   26.2092 H   0  0  0  0  0  0
  -28.3853  -32.6895   25.0313 H   0  0  0  0  0  0
  -28.0736  -31.8431   26.5390 H   0  0  0  0  0  0
  -28.2601  -38.0105   24.7515 H   0  0  0  0  0  0
  -28.1076  -36.2637   24.6284 H   0  0  0  0  0  0
  -27.2300  -37.1454   25.8867 H   0  0  0  0  0  0
  -20.9321  -29.8780   21.6937 H   0  0  0  0  0  0
  -26.0181  -38.2869   24.1409 H   0  0  0  0  0  0
  -29.5202  -23.1854   18.1200 H   0  0  0  0  0  0
  -30.1460  -20.8724   16.7406 H   0  0  0  0  0  0
  -28.7209  -20.0143   21.7597 H   0  0  0  0  0  0
  -30.4374  -19.6989   21.6968 H   0  0  0  0  0  0
  -28.5464  -17.9118   20.0525 H   0  0  0  0  0  0
  -28.5362  -17.7570   21.7717 H   0  0  0  0  0  0
  -30.2429  -24.4349   20.0830 H   0  0  0  0  0  0
  -29.5619  -24.7103   21.6460 H   0  0  0  0  0  0
  -28.0163  -22.5750   21.1481 H   0  0  0  0  0  0
  -29.6400  -22.4271   21.7644 H   0  0  0  0  0  0
  -30.9857  -17.1902   21.8137 H   0  0  0  0  0  0
  -31.0025  -17.2163   20.0696 H   0  0  0  0  0  0
  -27.2700  -24.8812   20.6538 H   0  0  0  0  0  0
  -27.9847  -24.8499   19.0525 H   0  0  0  0  0  0
  -30.1010  -19.0425   18.4708 H   0  0  0  0  0  0
  -28.9986  -15.3951   21.2362 H   0  0  0  0  0  0
  1 25  1  0  0  0
  1 30  2  0  0  0
  1 82  1  0  0  0
  2  3  1  0  0  0
  2 25  1  0  0  0
  2 83  1  0  0  0
  2 84  1  0  0  0
  3  4  1  0  0  0
  3 85  1  0  0  0
  3 86  1  0  0  0
  4  5  1  0  0  0
  4 87  1  0  0  0
  4 88  1  0  0  0
  5  6  1  0  0  0
  5 26  1  0  0  0
  5 89  1  0  0  0
  6 25  1  0  0  0
  6 90  1  0  0  0
  6 91  1  0  0  0
  7  8  2  0  0  0
  7 26  1  0  0  0
  7 29  1  0  0  0
  8  9  1  0  0  0
  8 22  1  0  0  0
  9 10  1  0  0  0
  9 27  2  0  0  0
 10 11  2  0  0  0
 10 15  1  0  0  0
 11 12  1  0  0  0
 11 92  1  0  0  0
 12 13  2  0  0  0
 12 93  1  0  0  0
 13 14  1  0  0  0
 13 31  1  0  0  0
 14 15  2  0  0  0
 14 94  1  0  0  0
 15 95  1  0  0  0
 16 17  2  0  0  0
 16 21  1  0  0  0
 16 31  1  0  0  0
 17 18  1  0  0  0
 17 96  1  0  0  0
 18 19  2  0  0  0
 18 97  1  0  0  0
 19 20  1  0  0  0
 19 24  1  0  0  0
 20 21  2  0  0  0
 20 98  1  0  0  0
 21 23  1  0  0  0
 22 28  1  0  0  0
 22 32  2  0  0  0
 26 27  1  0  0  0
 28 99  1  0  0  0
 28100  1  0  0  0
 29101  1  0  0  0
 29102  1  0  0  0
 33 34  1  0  0  0
 33 66  1  0  0  0
 33 70  2  0  0  0
 34 36  1  0  0  0
 34 59  1  0  0  0
 34103  1  0  0  0
 35 44  2  0  0  0
 35 45  1  0  0  0
 35 68  1  0  0  0
 36 56  1  0  0  0
 36104  1  0  0  0
 37 39  1  0  0  0
 37 47  1  0  0  0
 37 66  1  0  0  0
 37105  1  0  0  0
 38 43  2  0  0  0
 38 46  1  0  0  0
 38 47  1  0  0  0
 39 64  1  0  0  0
 39 67  2  0  0  0
 40 52  1  0  0  0
 40 53  2  0  0  0
 40 58  1  0  0  0
 41106  1  0  0  0
 41107  1  0  0  0
 41108  1  0  0  0
 41 48  1  0  0  0
 42 43  1  0  0  0
 42 66  1  0  0  0
 42109  1  0  0  0
 42110  1  0  0  0
 43 44  1  0  0  0
 44111  1  0  0  0
 45 46  2  0  0  0
 45112  1  0  0  0
 46113  1  0  0  0
 47114  1  0  0  0
 47115  1  0  0  0
 48 56  1  0  0  0
 48 65  1  0  0  0
 48116  1  0  0  0
 49 50  1  0  0  0
 49 53  1  0  0  0
 49 64  1  0  0  0
 49117  1  0  0  0
 50 51  1  0  0  0
 50118  1  0  0  0
 50119  1  0  0  0
 51 52  1  0  0  0
 51120  1  0  0  0
 51121  1  0  0  0
 52122  1  0  0  0
 52123  1  0  0  0
 53 54  1  0  0  0
 54 55  2  0  0  0
 54124  1  0  0  0
 55 57  1  0  0  0
 55125  1  0  0  0
 56 69  2  0  0  0
 57 58  2  0  0  0
 57126  1  0  0  0
 58127  1  0  0  0
 59 60  1  0  0  0
 59 61  1  0  0  0
 59 62  1  0  0  0
 60128  1  0  0  0
 60129  1  0  0  0
 60130  1  0  0  0
 61131  1  0  0  0
 61132  1  0  0  0
 61133  1  0  0  0
 62134  1  0  0  0
 62135  1  0  0  0
 62136  1  0  0  0
 63 65  1  0  0  0
 63137  1  0  0  0
 63138  1  0  0  0
 63139  1  0  0  0
 64140  1  0  0  0
 65141  1  0  0  0
 68 79  1  0  0  0
 71 72  2  0  0  0
 71 80  1  0  0  0
 71142  1  0  0  0
 72 81  1  0  0  0
 72143  1  0  0  0
 73 74  1  0  0  0
 73 80  1  0  0  0
 73 81  2  0  0  0
 74 75  1  0  0  0
 74144  1  0  0  0
 74145  1  0  0  0
 75 78  1  0  0  0
 75146  1  0  0  0
 75147  1  0  0  0
 76 77  1  0  0  0
 76 79  1  0  0  0
 76148  1  0  0  0
 76149  1  0  0  0
 77 80  1  0  0  0
 77150  1  0  0  0
 77151  1  0  0  0
 78 82  1  0  0  0
 78152  1  0  0  0
 78153  1  0  0  0
 79154  1  0  0  0
 79155  1  0  0  0
 81156  1  0  0  0
 82157  1  0  0  0
M  CHG  1  81   1
M  ISO  4   1 100  68 101  79 101  82 100
M  END
> <chiral flag>
0

> <version>
0

> <s_m_source_file>
/data/baiqing/PycharmProjects/Reinvent-master-3.2/result/LINK_invent/BTK/process_docking_weight1_custom_sum_contain_oxygen_bond_distance_aromatic_linkinvent_7_9_3/rearranged_h_0076.sdf

> <i_m_source_file_index>
10

> <r_mmod_Potential_Energy-OPLS-2005>
-119.965759277344

> <r_mmod_Stretch_Energy-OPLS-2005>
51.1170883178711

> <r_mmod_Bend_Energy-OPLS-2005>
108.273155212402

> <r_mmod_Torsional_Energy-OPLS-2005>
229.448944091797

> <r_mmod_Improper_Torsional_Energy-OPLS-2005>
4.21106815338135

> <r_mmod_Van_der_Waal_Energy-OPLS-2005>
126.291297912598

> <r_mmod_Electrostatic_Energy-OPLS-2005>
-223.915451049805

> <r_mmod_Solvation_Energy-OPLS-2005>
-440.082763671875

> <b_mmod_Minimization_Converged-OPLS-2005>
0

> <r_mmod_RMS_Derivative-OPLS-2005>
0.583430409431458

$$$$
10
                    3D
 Structure written by MMmdl.
162170  0  0  1  0            999 V2000
  -30.6436  -14.5595   20.4947 C   0  0  0  0  0  0
  -30.4270  -12.3406   19.4519 C   0  0  0  0  0  0
  -29.5100  -12.4906   18.2195 C   0  0  0  0  0  0
  -28.0284  -12.3456   18.6208 C   0  0  0  0  0  0
  -27.6504  -13.2138   19.8511 C   0  0  2  0  0  0
  -28.6852  -13.0626   20.9884 C   0  0  0  0  0  0
  -25.2551  -13.8189   20.5650 C   0  0  0  0  0  0
  -24.1820  -13.0443   20.9182 C   0  0  0  0  0  0
  -24.6389  -11.6917   20.8716 C   0  0  0  0  0  0
  -23.9080  -10.4296   21.0399 C   0  0  0  0  0  0
  -24.3632   -9.4216   21.9179 C   0  0  0  0  0  0
  -23.6309   -8.2256   22.0763 C   0  0  0  0  0  0
  -22.4293   -8.0289   21.3560 C   0  0  0  0  0  0
  -21.9922   -9.0246   20.4648 C   0  0  0  0  0  0
  -22.7254  -10.2133   20.3042 C   0  0  0  0  0  0
  -21.6852   -6.0753   22.5288 C   0  0  0  0  0  0
  -21.4016   -6.5654   23.8225 C   0  0  0  0  0  0
  -21.3653   -5.6803   24.9188 C   0  0  0  0  0  0
  -21.6031   -4.3063   24.7234 C   0  0  0  0  0  0
  -21.8822   -3.8163   23.4352 C   0  0  0  0  0  0
  -21.9195   -4.6982   22.3410 C   0  0  0  0  0  0
  -22.7842  -13.5229   21.1852 C   0  0  0  0  0  0
  -22.1659   -4.2166   21.0992 F   0  0  0  0  0  0
  -21.5620   -3.4542   25.7748 F   0  0  0  0  0  0
  -30.0111  -13.3569   20.4298 N   0  0  0  0  0  0
  -26.2952  -12.9352   20.3206 N   0  0  0  0  0  0
  -25.9299  -11.6509   20.5669 N   0  0  0  0  0  0
  -22.0486  -12.8204   22.0405 N   0  0  0  0  0  0
  -25.4244  -15.1922   20.4131 N   0  0  0  0  0  0
  -31.8154  -14.7106   20.1393 O   0  0  0  0  0  0
  -21.6648   -6.8898   21.4255 O   0  0  0  0  0  0
  -22.3517  -14.5527   20.6706 O   0  0  0  0  0  0
  -24.6135  -31.8730   23.2033 C   0  0  0  0  0  0
  -25.9047  -32.4839   23.8331 C   0  0  1  0  0  0
  -27.2253  -27.4067   20.0923 C   0  0  0  0  0  0
  -25.5900  -33.8620   24.2270 N   0  0  0  0  0  0
  -23.4003  -30.4915   21.5516 C   0  0  2  0  0  0
  -24.8449  -28.9571   20.1116 C   0  0  0  0  0  0
  -22.7416  -29.4632   22.4998 C   0  0  0  0  0  0
  -18.0280  -28.1315   22.8497 C   0  0  0  0  0  0
  -24.1524  -36.7277   23.2665 C   0  0  0  0  0  0
  -25.9331  -30.8309   21.3577 C   0  0  0  0  0  0
  -26.0101  -29.4635   20.7007 C   0  0  0  0  0  0
  -27.2014  -28.6959   20.6851 C   0  0  0  0  0  0
  -26.0358  -26.9214   19.5043 C   0  0  0  0  0  0
  -24.8534  -27.6856   19.5089 C   0  0  0  0  0  0
  -23.6085  -29.8294   20.1656 C   0  0  0  0  0  0
  -25.4163  -36.3105   24.0326 C   0  0  1  0  0  0
  -20.5873  -28.3589   23.1355 C   0  0  2  0  0  0
  -20.6785  -26.9326   22.5440 C   0  0  0  0  0  0
  -19.5769  -26.6332   21.5231 C   0  0  0  0  0  0
  -18.1935  -26.7853   22.1626 C   0  0  0  0  0  0
  -19.1517  -28.8761   23.2924 C   0  0  0  0  0  0
  -18.9462  -30.1390   23.8900 C   0  0  0  0  0  0
  -17.6470  -30.6548   24.0534 C   0  0  0  0  0  0
  -25.9081  -34.9488   23.5112 C   0  0  0  0  0  0
  -16.5355  -29.9038   23.6313 C   0  0  0  0  0  0
  -16.7264  -28.6450   23.0339 C   0  0  0  0  0  0
  -26.4487  -31.6604   25.0647 C   0  0  0  0  0  0
  -25.3702  -31.3664   26.1350 C   0  0  0  0  0  0
  -27.0398  -30.3111   24.5924 C   0  0  0  0  0  0
  -27.6072  -32.4323   25.7379 C   0  0  0  0  0  0
  -27.5613  -37.1780   24.8465 C   0  0  0  0  0  0
  -21.4144  -29.2958   22.3742 N   0  0  0  0  0  0
  -26.4353  -37.3789   23.9383 N   0  0  0  0  0  0
  -24.6681  -31.0791   22.0948 N   0  0  0  0  0  0
  -23.4204  -28.8190   23.3047 O   0  0  0  0  0  0
  -28.4016  -26.6731   20.1220 O   0  0  0  0  0  0
  -26.5688  -34.8947   22.4705 O   0  0  0  0  0  0
  -23.5334  -32.1520   23.7400 O   0  0  0  0  0  0
  -29.0350  -21.8139   20.4382 C   0  0  0  0  0  0
  -28.0757  -22.7754   20.2073 C   0  0  0  0  0  0
  -27.1319  -22.0744   19.3993 C   0  0  0  0  0  0
  -25.8536  -22.6042   18.8126 C   0  0  0  0  0  0
  -28.7369  -24.3513   22.0505 C   0  0  0  0  0  0
  -28.2236  -18.2128   21.5993 C   0  0  0  0  0  0
  -29.4633  -19.3968   19.6444 C   0  0  0  0  0  0
  -30.1905  -17.0337   20.4048 C   0  0  0  0  0  0
  -28.4499  -25.2953   19.6709 C   0  0  0  0  0  0
  -27.9833  -24.2246   20.7144 C   0  0  1  0  0  0
  -28.9859  -18.0337   20.2756 C   0  0  1  0  0  0
  -27.4847  -20.8101   19.1675 N   0  0  0  0  0  0
  -28.6631  -20.6313   19.8144 N   0  0  0  0  0  0
  -29.8445  -15.6284   20.7289 N   0  0  0  0  0  0
  -28.1303  -17.4594   19.4272 F   0  0  0  0  0  0
  -31.4751  -12.4457   19.1624 H   0  0  0  0  0  0
  -30.3336  -11.3444   19.8886 H   0  0  0  0  0  0
  -29.7726  -11.7468   17.4655 H   0  0  0  0  0  0
  -29.6728  -13.4654   17.7540 H   0  0  0  0  0  0
  -27.8502  -11.2930   18.8408 H   0  0  0  0  0  0
  -27.3871  -12.5912   17.7737 H   0  0  0  0  0  0
  -27.6698  -14.2491   19.5068 H   0  0  0  0  0  0
  -28.6699  -12.0525   21.3990 H   0  0  0  0  0  0
  -28.4397  -13.7287   21.8174 H   0  0  0  0  0  0
  -25.2773   -9.5697   22.4743 H   0  0  0  0  0  0
  -24.0014   -7.4656   22.7475 H   0  0  0  0  0  0
  -21.0853   -8.8747   19.8943 H   0  0  0  0  0  0
  -22.3700  -10.9659   19.6132 H   0  0  0  0  0  0
  -21.2017   -7.6164   23.9736 H   0  0  0  0  0  0
  -21.1459   -6.0537   25.9096 H   0  0  0  0  0  0
  -22.0607   -2.7621   23.2851 H   0  0  0  0  0  0
  -22.4109  -11.9871   22.4787 H   0  0  0  0  0  0
  -21.1085  -13.1196   22.2580 H   0  0  0  0  0  0
  -24.6499  -15.8374   20.5285 H   0  0  0  0  0  0
  -26.2675  -15.6448   20.0796 H   0  0  0  0  0  0
  -26.7092  -32.5593   23.1071 H   0  0  0  0  0  0
  -24.9913  -33.9747   25.0309 H   0  0  0  0  0  0
  -22.6878  -31.3084   21.4185 H   0  0  0  0  0  0
  -23.3806  -35.9602   23.3339 H   0  0  0  0  0  0
  -24.3601  -36.8895   22.2077 H   0  0  0  0  0  0
  -23.7240  -37.6460   23.6681 H   0  0  0  0  0  0
  -26.0534  -31.6032   20.5964 H   0  0  0  0  0  0
  -26.8171  -30.8827   21.9792 H   0  0  0  0  0  0
  -28.0996  -29.0850   21.1427 H   0  0  0  0  0  0
  -25.9851  -25.9469   19.0437 H   0  0  0  0  0  0
  -23.9543  -27.2830   19.0607 H   0  0  0  0  0  0
  -23.7157  -30.6121   19.4151 H   0  0  0  0  0  0
  -22.7295  -29.2581   19.8635 H   0  0  0  0  0  0
  -25.1340  -36.1994   25.0813 H   0  0  0  0  0  0
  -20.9964  -28.3167   24.1480 H   0  0  0  0  0  0
  -20.5768  -26.2170   23.3620 H   0  0  0  0  0  0
  -21.6658  -26.7434   22.1194 H   0  0  0  0  0  0
  -19.6958  -25.6249   21.1239 H   0  0  0  0  0  0
  -19.6715  -27.3193   20.6797 H   0  0  0  0  0  0
  -17.4229  -26.6634   21.3993 H   0  0  0  0  0  0
  -18.0263  -25.9986   22.8993 H   0  0  0  0  0  0
  -19.7967  -30.7178   24.2265 H   0  0  0  0  0  0
  -17.5049  -31.6238   24.5126 H   0  0  0  0  0  0
  -15.5351  -30.2948   23.7636 H   0  0  0  0  0  0
  -15.8672  -28.0788   22.7021 H   0  0  0  0  0  0
  -24.5855  -30.7085   25.7554 H   0  0  0  0  0  0
  -24.8912  -32.2830   26.4820 H   0  0  0  0  0  0
  -25.8005  -30.8735   27.0078 H   0  0  0  0  0  0
  -26.2957  -29.6731   24.1126 H   0  0  0  0  0  0
  -27.4479  -29.7434   25.4280 H   0  0  0  0  0  0
  -27.8603  -30.4527   23.8884 H   0  0  0  0  0  0
  -27.2726  -33.3633   26.1952 H   0  0  0  0  0  0
  -28.3846  -32.6857   25.0153 H   0  0  0  0  0  0
  -28.0762  -31.8430   26.5265 H   0  0  0  0  0  0
  -28.2621  -38.0095   24.7593 H   0  0  0  0  0  0
  -28.1133  -36.2624   24.6251 H   0  0  0  0  0  0
  -27.2298  -37.1333   25.8862 H   0  0  0  0  0  0
  -20.9296  -29.8605   21.6905 H   0  0  0  0  0  0
  -26.0255  -38.2878   24.1394 H   0  0  0  0  0  0
  -29.9696  -21.8792   20.9771 H   0  0  0  0  0  0
  -26.0199  -22.9994   17.8097 H   0  0  0  0  0  0
  -25.4446  -23.4119   19.4174 H   0  0  0  0  0  0
  -25.0868  -21.8317   18.7482 H   0  0  0  0  0  0
  -28.3458  -23.6445   22.7818 H   0  0  0  0  0  0
  -28.6419  -25.3514   22.4760 H   0  0  0  0  0  0
  -29.8006  -24.1428   21.9377 H   0  0  0  0  0  0
  -28.8317  -18.7267   22.3428 H   0  0  0  0  0  0
  -27.9152  -17.2566   22.0193 H   0  0  0  0  0  0
  -27.3199  -18.8035   21.4500 H   0  0  0  0  0  0
  -29.6196  -19.2533   18.5756 H   0  0  0  0  0  0
  -30.4536  -19.6225   20.0403 H   0  0  0  0  0  0
  -30.9057  -17.4046   21.1407 H   0  0  0  0  0  0
  -30.7254  -17.0293   19.4524 H   0  0  0  0  0  0
  -27.9266  -25.1718   18.7235 H   0  0  0  0  0  0
  -29.4938  -25.1078   19.4202 H   0  0  0  0  0  0
  -26.9391  -24.4453   20.9391 H   0  0  0  0  0  0
  -28.8815  -15.4431   20.9627 H   0  0  0  0  0  0
  1 25  1  0  0  0
  1 30  2  0  0  0
  1 84  1  0  0  0
  2  3  1  0  0  0
  2 25  1  0  0  0
  2 86  1  0  0  0
  2 87  1  0  0  0
  3  4  1  0  0  0
  3 88  1  0  0  0
  3 89  1  0  0  0
  4  5  1  0  0  0
  4 90  1  0  0  0
  4 91  1  0  0  0
  5  6  1  0  0  0
  5 26  1  0  0  0
  5 92  1  0  0  0
  6 25  1  0  0  0
  6 93  1  0  0  0
  6 94  1  0  0  0
  7  8  2  0  0  0
  7 26  1  0  0  0
  7 29  1  0  0  0
  8  9  1  0  0  0
  8 22  1  0  0  0
  9 10  1  0  0  0
  9 27  2  0  0  0
 10 11  2  0  0  0
 10 15  1  0  0  0
 11 12  1  0  0  0
 11 95  1  0  0  0
 12 13  2  0  0  0
 12 96  1  0  0  0
 13 14  1  0  0  0
 13 31  1  0  0  0
 14 15  2  0  0  0
 14 97  1  0  0  0
 15 98  1  0  0  0
 16 17  2  0  0  0
 16 21  1  0  0  0
 16 31  1  0  0  0
 17 18  1  0  0  0
 17 99  1  0  0  0
 18 19  2  0  0  0
 18100  1  0  0  0
 19 20  1  0  0  0
 19 24  1  0  0  0
 20 21  2  0  0  0
 20101  1  0  0  0
 21 23  1  0  0  0
 22 28  1  0  0  0
 22 32  2  0  0  0
 26 27  1  0  0  0
 28102  1  0  0  0
 28103  1  0  0  0
 29104  1  0  0  0
 29105  1  0  0  0
 33 34  1  0  0  0
 33 66  1  0  0  0
 33 70  2  0  0  0
 34 36  1  0  0  0
 34 59  1  0  0  0
 34106  1  0  0  0
 35 44  2  0  0  0
 35 45  1  0  0  0
 35 68  1  0  0  0
 36 56  1  0  0  0
 36107  1  0  0  0
 37 39  1  0  0  0
 37 47  1  0  0  0
 37 66  1  0  0  0
 37108  1  0  0  0
 38 43  2  0  0  0
 38 46  1  0  0  0
 38 47  1  0  0  0
 39 64  1  0  0  0
 39 67  2  0  0  0
 40 52  1  0  0  0
 40 53  2  0  0  0
 40 58  1  0  0  0
 41109  1  0  0  0
 41110  1  0  0  0
 41111  1  0  0  0
 41 48  1  0  0  0
 42 43  1  0  0  0
 42 66  1  0  0  0
 42112  1  0  0  0
 42113  1  0  0  0
 43 44  1  0  0  0
 44114  1  0  0  0
 45 46  2  0  0  0
 45115  1  0  0  0
 46116  1  0  0  0
 47117  1  0  0  0
 47118  1  0  0  0
 48 56  1  0  0  0
 48 65  1  0  0  0
 48119  1  0  0  0
 49 50  1  0  0  0
 49 53  1  0  0  0
 49 64  1  0  0  0
 49120  1  0  0  0
 50 51  1  0  0  0
 50121  1  0  0  0
 50122  1  0  0  0
 51 52  1  0  0  0
 51123  1  0  0  0
 51124  1  0  0  0
 52125  1  0  0  0
 52126  1  0  0  0
 53 54  1  0  0  0
 54 55  2  0  0  0
 54127  1  0  0  0
 55 57  1  0  0  0
 55128  1  0  0  0
 56 69  2  0  0  0
 57 58  2  0  0  0
 57129  1  0  0  0
 58130  1  0  0  0
 59 60  1  0  0  0
 59 61  1  0  0  0
 59 62  1  0  0  0
 60131  1  0  0  0
 60132  1  0  0  0
 60133  1  0  0  0
 61134  1  0  0  0
 61135  1  0  0  0
 61136  1  0  0  0
 62137  1  0  0  0
 62138  1  0  0  0
 62139  1  0  0  0
 63 65  1  0  0  0
 63140  1  0  0  0
 63141  1  0  0  0
 63142  1  0  0  0
 64143  1  0  0  0
 65144  1  0  0  0
 68 79  1  0  0  0
 71 72  2  0  0  0
 71 83  1  0  0  0
 71145  1  0  0  0
 72 73  1  0  0  0
 72 80  1  0  0  0
 73 74  1  0  0  0
 73 82  2  0  0  0
 74146  1  0  0  0
 74147  1  0  0  0
 74148  1  0  0  0
 75149  1  0  0  0
 75150  1  0  0  0
 75151  1  0  0  0
 75 80  1  0  0  0
 76152  1  0  0  0
 76153  1  0  0  0
 76154  1  0  0  0
 76 81  1  0  0  0
 77 81  1  0  0  0
 77 83  1  0  0  0
 77155  1  0  0  0
 77156  1  0  0  0
 78 81  1  0  0  0
 78 84  1  0  0  0
 78157  1  0  0  0
 78158  1  0  0  0
 79 80  1  0  0  0
 79159  1  0  0  0
 79160  1  0  0  0
 80161  1  0  0  0
 81 85  1  0  0  0
 82 83  1  0  0  0
 84162  1  0  0  0
M  ISO  4   1 100  68 101  79 101  84 100
M  END
> <chiral flag>
0

> <version>
0

> <s_m_source_file>
/data/baiqing/PycharmProjects/Reinvent-master-3.2/result/LINK_invent/BTK/process_docking_weight1_custom_sum_contain_oxygen_bond_distance_aromatic_linkinvent_7_9_3/rearranged_h_0076.sdf

> <i_m_source_file_index>
11

> <r_mmod_Potential_Energy-OPLS-2005>
-131.989120483398

> <r_mmod_Stretch_Energy-OPLS-2005>
46.2410316467285

> <r_mmod_Bend_Energy-OPLS-2005>
115.206787109375

> <r_mmod_Torsional_Energy-OPLS-2005>
218.470626831055

> <r_mmod_Improper_Torsional_Energy-OPLS-2005>
7.11018228530884

> <r_mmod_Van_der_Waal_Energy-OPLS-2005>
117.177635192871

> <r_mmod_Electrostatic_Energy-OPLS-2005>
-449.282592773438

> <r_mmod_Solvation_Energy-OPLS-2005>
-212.068801879883

> <b_mmod_Minimization_Converged-OPLS-2005>
0

> <r_mmod_RMS_Derivative-OPLS-2005>
4.59809255599976

$$$$
11
                    3D
 Structure written by MMmdl.
175183  0  0  1  0            999 V2000
  -30.6888  -14.5319   20.5371 C   0  0  0  0  0  0
  -30.4245  -12.3381   19.4199 C   0  0  0  0  0  0
  -29.4899  -12.4957   18.2007 C   0  0  0  0  0  0
  -28.0137  -12.3471   18.6186 C   0  0  0  0  0  0
  -27.6567  -13.2025   19.8642 C   0  0  2  0  0  0
  -28.7015  -13.0084   20.9803 C   0  0  0  0  0  0
  -25.2608  -13.8163   20.5711 C   0  0  0  0  0  0
  -24.1848  -13.0447   20.9189 C   0  0  0  0  0  0
  -24.6377  -11.6910   20.8753 C   0  0  0  0  0  0
  -23.9033  -10.4296   21.0384 C   0  0  0  0  0  0
  -24.3597   -9.4221   21.9162 C   0  0  0  0  0  0
  -23.6258   -8.2260   22.0754 C   0  0  0  0  0  0
  -22.4238   -8.0284   21.3560 C   0  0  0  0  0  0
  -21.9862   -9.0251   20.4658 C   0  0  0  0  0  0
  -22.7197  -10.2132   20.3038 C   0  0  0  0  0  0
  -21.6866   -6.0691   22.5266 C   0  0  0  0  0  0
  -21.4023   -6.5600   23.8185 C   0  0  0  0  0  0
  -21.3674   -5.6772   24.9165 C   0  0  0  0  0  0
  -21.6063   -4.3035   24.7226 C   0  0  0  0  0  0
  -21.8827   -3.8110   23.4359 C   0  0  0  0  0  0
  -21.9204   -4.6909   22.3394 C   0  0  0  0  0  0
  -22.7873  -13.5258   21.1830 C   0  0  0  0  0  0
  -22.1665   -4.2077   21.0976 F   0  0  0  0  0  0
  -21.5644   -3.4542   25.7757 F   0  0  0  0  0  0
  -30.0200  -13.3443   20.4202 N   0  0  0  0  0  0
  -26.3015  -12.9313   20.3343 N   0  0  0  0  0  0
  -25.9309  -11.6489   20.5785 N   0  0  0  0  0  0
  -22.0527  -12.8269   22.0407 N   0  0  0  0  0  0
  -25.4341  -15.1882   20.4158 N   0  0  0  0  0  0
  -31.8385  -14.6657   20.1105 O   0  0  0  0  0  0
  -21.6649   -6.8848   21.4229 O   0  0  0  0  0  0
  -22.3566  -14.5561   20.6675 O   0  0  0  0  0  0
  -24.6178  -31.8654   23.2071 C   0  0  0  0  0  0
  -25.9057  -32.4809   23.8380 C   0  0  1  0  0  0
  -27.2262  -27.4102   20.1001 C   0  0  0  0  0  0
  -25.5900  -33.8606   24.2308 N   0  0  0  0  0  0
  -23.4065  -30.4888   21.5479 C   0  0  2  0  0  0
  -24.8523  -28.9500   20.1138 C   0  0  0  0  0  0
  -22.7412  -29.4641   22.4963 C   0  0  0  0  0  0
  -18.0279  -28.1374   22.8492 C   0  0  0  0  0  0
  -24.1486  -36.7307   23.2637 C   0  0  0  0  0  0
  -25.9388  -30.8235   21.3645 C   0  0  0  0  0  0
  -26.0150  -29.4570   20.7100 C   0  0  0  0  0  0
  -27.2085  -28.6943   20.6977 C   0  0  0  0  0  0
  -26.0480  -26.9199   19.5023 C   0  0  0  0  0  0
  -24.8648  -27.6813   19.5073 C   0  0  0  0  0  0
  -23.6166  -29.8201   20.1633 C   0  0  0  0  0  0
  -25.4108  -36.3101   24.0335 C   0  0  1  0  0  0
  -20.5869  -28.3663   23.1313 C   0  0  2  0  0  0
  -20.6760  -26.9393   22.5424 C   0  0  0  0  0  0
  -19.5735  -26.6376   21.5213 C   0  0  0  0  0  0
  -18.1911  -26.7923   22.1623 C   0  0  0  0  0  0
  -19.1525  -28.8838   23.2903 C   0  0  0  0  0  0
  -18.9460  -30.1438   23.8908 C   0  0  0  0  0  0
  -17.6458  -30.6585   24.0566 C   0  0  0  0  0  0
  -25.9035  -34.9468   23.5124 C   0  0  0  0  0  0
  -16.5355  -29.9082   23.6328 C   0  0  0  0  0  0
  -16.7265  -28.6508   23.0352 C   0  0  0  0  0  0
  -26.4478  -31.6602   25.0726 C   0  0  0  0  0  0
  -25.3741  -31.3729   26.1481 C   0  0  0  0  0  0
  -27.0315  -30.3039   24.6124 C   0  0  0  0  0  0
  -27.6048  -32.4332   25.7492 C   0  0  0  0  0  0
  -27.5580  -37.1807   24.8461 C   0  0  0  0  0  0
  -21.4141  -29.3033   22.3715 N   0  0  0  0  0  0
  -26.4291  -37.3791   23.9407 N   0  0  0  0  0  0
  -24.6726  -31.0741   22.0979 N   0  0  0  0  0  0
  -23.4190  -28.8169   23.3002 O   0  0  0  0  0  0
  -28.3627  -26.6262   20.1062 O   0  0  0  0  0  0
  -26.5601  -34.8922   22.4685 O   0  0  0  0  0  0
  -23.5361  -32.1418   23.7454 O   0  0  0  0  0  0
  -29.4847  -21.1952   18.4787 C   0  0  0  0  0  0
  -29.4363  -21.7748   19.7234 C   0  0  0  0  0  0
  -29.2690  -19.5148   19.9384 C   0  0  0  0  0  0
  -27.2915  -21.1427   23.8765 C   0  0  0  0  0  0
  -32.0542  -23.3799   19.4046 C   0  0  0  0  0  0
  -29.9257  -16.6554   18.5306 C   0  0  0  0  0  0
  -29.6405  -15.8192   22.2673 C   0  0  0  0  0  0
  -29.0633  -18.0901   20.4896 C   0  0  0  0  0  0
  -27.5588  -20.7472   22.4213 C   0  0  0  0  0  0
  -30.6413  -23.9592   19.2379 C   0  0  0  0  0  0
  -28.2402  -24.0611   20.0564 C   0  0  0  0  0  0
  -29.0529  -20.7983   22.0585 C   0  0  0  0  0  0
  -28.2446  -25.4004   20.8645 C   0  0  0  0  0  0
  -29.5742  -23.2541   20.1054 C   0  0  1  0  0  0
  -30.0531  -16.9296   20.0540 C   0  0  1  0  0  0
  -29.2578  -20.7041   20.6002 N   0  0  0  0  0  0
  -29.3747  -19.8411   18.6451 N   0  3  0  0  0  0
  -29.9345  -15.6387   20.8378 N   0  0  0  0  0  0
  -31.4654  -12.4462   19.1067 H   0  0  0  0  0  0
  -30.3446  -11.3331   19.8362 H   0  0  0  0  0  0
  -29.7313  -11.7561   17.4362 H   0  0  0  0  0  0
  -29.6462  -13.4736   17.7412 H   0  0  0  0  0  0
  -27.8341  -11.2901   18.8238 H   0  0  0  0  0  0
  -27.3534  -12.6051   17.7897 H   0  0  0  0  0  0
  -27.6958  -14.2459   19.5547 H   0  0  0  0  0  0
  -28.7009  -11.9731   21.3221 H   0  0  0  0  0  0
  -28.4371  -13.5983   21.8540 H   0  0  0  0  0  0
  -25.2748   -9.5712   22.4714 H   0  0  0  0  0  0
  -23.9985   -7.4675   22.7490 H   0  0  0  0  0  0
  -21.0778   -8.8781   19.8979 H   0  0  0  0  0  0
  -22.3649  -10.9655   19.6144 H   0  0  0  0  0  0
  -21.2006   -7.6105   23.9660 H   0  0  0  0  0  0
  -21.1498   -6.0509   25.9061 H   0  0  0  0  0  0
  -22.0593   -2.7548   23.2907 H   0  0  0  0  0  0
  -22.4145  -11.9938   22.4790 H   0  0  0  0  0  0
  -21.1163  -13.1346   22.2627 H   0  0  0  0  0  0
  -24.6662  -15.8393   20.5390 H   0  0  0  0  0  0
  -26.2923  -15.6348   20.1252 H   0  0  0  0  0  0
  -26.7124  -32.5514   23.1132 H   0  0  0  0  0  0
  -25.0066  -33.9757   25.0470 H   0  0  0  0  0  0
  -22.6970  -31.3072   21.4074 H   0  0  0  0  0  0
  -23.3743  -35.9642   23.3306 H   0  0  0  0  0  0
  -24.3579  -36.8921   22.2049 H   0  0  0  0  0  0
  -23.7246  -37.6514   23.6656 H   0  0  0  0  0  0
  -26.0593  -31.5893   20.5977 H   0  0  0  0  0  0
  -26.8240  -30.8741   21.9872 H   0  0  0  0  0  0
  -28.1066  -29.0749   21.1645 H   0  0  0  0  0  0
  -26.0454  -25.9440   19.0366 H   0  0  0  0  0  0
  -23.9701  -27.2849   19.0473 H   0  0  0  0  0  0
  -23.7273  -30.5944   19.4037 H   0  0  0  0  0  0
  -22.7398  -29.2421   19.8664 H   0  0  0  0  0  0
  -25.1280  -36.1955   25.0827 H   0  0  0  0  0  0
  -20.9971  -28.3233   24.1426 H   0  0  0  0  0  0
  -20.5645  -26.2262   23.3609 H   0  0  0  0  0  0
  -21.6637  -26.7412   22.1233 H   0  0  0  0  0  0
  -19.6890  -25.6287   21.1231 H   0  0  0  0  0  0
  -19.6672  -27.3192   20.6745 H   0  0  0  0  0  0
  -17.4180  -26.6688   21.4027 H   0  0  0  0  0  0
  -18.0297  -26.0066   22.9015 H   0  0  0  0  0  0
  -19.7934  -30.7256   24.2285 H   0  0  0  0  0  0
  -17.5020  -31.6268   24.5158 H   0  0  0  0  0  0
  -15.5354  -30.2996   23.7649 H   0  0  0  0  0  0
  -15.8664  -28.0827   22.7062 H   0  0  0  0  0  0
  -24.5892  -30.7093   25.7832 H   0  0  0  0  0  0
  -24.8963  -32.2902   26.4939 H   0  0  0  0  0  0
  -25.8103  -30.8895   27.0235 H   0  0  0  0  0  0
  -26.2872  -29.6796   24.1170 H   0  0  0  0  0  0
  -27.4065  -29.7278   25.4594 H   0  0  0  0  0  0
  -27.8712  -30.4342   23.9295 H   0  0  0  0  0  0
  -27.2653  -33.3614   26.2101 H   0  0  0  0  0  0
  -28.3849  -32.6930   25.0322 H   0  0  0  0  0  0
  -28.0733  -31.8447   26.5391 H   0  0  0  0  0  0
  -28.2602  -38.0100   24.7509 H   0  0  0  0  0  0
  -28.1073  -36.2636   24.6283 H   0  0  0  0  0  0
  -27.2305  -37.1456   25.8867 H   0  0  0  0  0  0
  -20.9276  -29.8789   21.6976 H   0  0  0  0  0  0
  -26.0174  -38.2863   24.1418 H   0  0  0  0  0  0
  -29.6018  -21.6438   17.5016 H   0  0  0  0  0  0
  -26.2370  -21.0161   24.1246 H   0  0  0  0  0  0
  -27.5496  -22.1887   24.0526 H   0  0  0  0  0  0
  -27.8720  -20.5321   24.5688 H   0  0  0  0  0  0
  -32.7747  -23.9421   18.8109 H   0  0  0  0  0  0
  -32.1070  -22.3400   19.0843 H   0  0  0  0  0  0
  -32.3755  -23.4278   20.4459 H   0  0  0  0  0  0
  -30.1586  -17.5318   17.9326 H   0  0  0  0  0  0
  -28.9215  -16.3243   18.2612 H   0  0  0  0  0  0
  -30.6242  -15.8984   18.1785 H   0  0  0  0  0  0
  -30.1651  -16.6786   22.6840 H   0  0  0  0  0  0
  -29.9414  -14.9680   22.8820 H   0  0  0  0  0  0
  -28.5699  -15.9565   22.4171 H   0  0  0  0  0  0
  -28.0421  -17.8207   20.2185 H   0  0  0  0  0  0
  -29.0518  -18.1963   21.5672 H   0  0  0  0  0  0
  -26.9920  -21.4117   21.7685 H   0  0  0  0  0  0
  -27.1716  -19.7432   22.2402 H   0  0  0  0  0  0
  -30.3491  -23.9319   18.1863 H   0  0  0  0  0  0
  -30.6799  -25.0182   19.5012 H   0  0  0  0  0  0
  -27.9196  -24.2272   19.0265 H   0  0  0  0  0  0
  -27.4664  -23.4325   20.4992 H   0  0  0  0  0  0
  -29.6072  -20.0015   22.5520 H   0  0  0  0  0  0
  -29.5006  -21.7179   22.4259 H   0  0  0  0  0  0
  -29.0666  -25.3946   21.5811 H   0  0  0  0  0  0
  -27.3486  -25.4251   21.4892 H   0  0  0  0  0  0
  -29.9412  -23.2997   21.1282 H   0  0  0  0  0  0
  -31.0647  -17.2958   20.2361 H   0  0  0  0  0  0
  -29.3653  -19.1769   17.8810 H   0  0  0  0  0  0
  1 25  1  0  0  0
  1 30  2  0  0  0
  1 88  1  0  0  0
  2  3  1  0  0  0
  2 25  1  0  0  0
  2 89  1  0  0  0
  2 90  1  0  0  0
  3  4  1  0  0  0
  3 91  1  0  0  0
  3 92  1  0  0  0
  4  5  1  0  0  0
  4 93  1  0  0  0
  4 94  1  0  0  0
  5  6  1  0  0  0
  5 26  1  0  0  0
  5 95  1  0  0  0
  6 25  1  0  0  0
  6 96  1  0  0  0
  6 97  1  0  0  0
  7  8  2  0  0  0
  7 26  1  0  0  0
  7 29  1  0  0  0
  8  9  1  0  0  0
  8 22  1  0  0  0
  9 10  1  0  0  0
  9 27  2  0  0  0
 10 11  2  0  0  0
 10 15  1  0  0  0
 11 12  1  0  0  0
 11 98  1  0  0  0
 12 13  2  0  0  0
 12 99  1  0  0  0
 13 14  1  0  0  0
 13 31  1  0  0  0
 14 15  2  0  0  0
 14100  1  0  0  0
 15101  1  0  0  0
 16 17  2  0  0  0
 16 21  1  0  0  0
 16 31  1  0  0  0
 17 18  1  0  0  0
 17102  1  0  0  0
 18 19  2  0  0  0
 18103  1  0  0  0
 19 20  1  0  0  0
 19 24  1  0  0  0
 20 21  2  0  0  0
 20104  1  0  0  0
 21 23  1  0  0  0
 22 28  1  0  0  0
 22 32  2  0  0  0
 26 27  1  0  0  0
 28105  1  0  0  0
 28106  1  0  0  0
 29107  1  0  0  0
 29108  1  0  0  0
 33 34  1  0  0  0
 33 66  1  0  0  0
 33 70  2  0  0  0
 34 36  1  0  0  0
 34 59  1  0  0  0
 34109  1  0  0  0
 35 44  2  0  0  0
 35 45  1  0  0  0
 35 68  1  0  0  0
 36 56  1  0  0  0
 36110  1  0  0  0
 37 39  1  0  0  0
 37 47  1  0  0  0
 37 66  1  0  0  0
 37111  1  0  0  0
 38 43  2  0  0  0
 38 46  1  0  0  0
 38 47  1  0  0  0
 39 64  1  0  0  0
 39 67  2  0  0  0
 40 52  1  0  0  0
 40 53  2  0  0  0
 40 58  1  0  0  0
 41112  1  0  0  0
 41113  1  0  0  0
 41114  1  0  0  0
 41 48  1  0  0  0
 42 43  1  0  0  0
 42 66  1  0  0  0
 42115  1  0  0  0
 42116  1  0  0  0
 43 44  1  0  0  0
 44117  1  0  0  0
 45 46  2  0  0  0
 45118  1  0  0  0
 46119  1  0  0  0
 47120  1  0  0  0
 47121  1  0  0  0
 48 56  1  0  0  0
 48 65  1  0  0  0
 48122  1  0  0  0
 49 50  1  0  0  0
 49 53  1  0  0  0
 49 64  1  0  0  0
 49123  1  0  0  0
 50 51  1  0  0  0
 50124  1  0  0  0
 50125  1  0  0  0
 51 52  1  0  0  0
 51126  1  0  0  0
 51127  1  0  0  0
 52128  1  0  0  0
 52129  1  0  0  0
 53 54  1  0  0  0
 54 55  2  0  0  0
 54130  1  0  0  0
 55 57  1  0  0  0
 55131  1  0  0  0
 56 69  2  0  0  0
 57 58  2  0  0  0
 57132  1  0  0  0
 58133  1  0  0  0
 59 60  1  0  0  0
 59 61  1  0  0  0
 59 62  1  0  0  0
 60134  1  0  0  0
 60135  1  0  0  0
 60136  1  0  0  0
 61137  1  0  0  0
 61138  1  0  0  0
 61139  1  0  0  0
 62140  1  0  0  0
 62141  1  0  0  0
 62142  1  0  0  0
 63 65  1  0  0  0
 63143  1  0  0  0
 63144  1  0  0  0
 63145  1  0  0  0
 64146  1  0  0  0
 65147  1  0  0  0
 68 83  1  0  0  0
 71 72  2  0  0  0
 71 87  1  0  0  0
 71148  1  0  0  0
 72 84  1  0  0  0
 72 86  1  0  0  0
 73 78  1  0  0  0
 73 86  1  0  0  0
 73 87  2  0  0  0
 74 79  1  0  0  0
 74149  1  0  0  0
 74150  1  0  0  0
 74151  1  0  0  0
 75 80  1  0  0  0
 75152  1  0  0  0
 75153  1  0  0  0
 75154  1  0  0  0
 76155  1  0  0  0
 76156  1  0  0  0
 76157  1  0  0  0
 76 85  1  0  0  0
 77 88  1  0  0  0
 77158  1  0  0  0
 77159  1  0  0  0
 77160  1  0  0  0
 78 85  1  0  0  0
 78161  1  0  0  0
 78162  1  0  0  0
 79 82  1  0  0  0
 79163  1  0  0  0
 79164  1  0  0  0
 80165  1  0  0  0
 80166  1  0  0  0
 80 84  1  0  0  0
 81 83  1  0  0  0
 81 84  1  0  0  0
 81167  1  0  0  0
 81168  1  0  0  0
 82 86  1  0  0  0
 82169  1  0  0  0
 82170  1  0  0  0
 83171  1  0  0  0
 83172  1  0  0  0
 84173  1  0  0  0
 85 88  1  0  0  0
 85174  1  0  0  0
 87175  1  0  0  0
M  CHG  1  87   1
M  ISO  4   1 100  68 101  83 101  88 100
M  END
> <chiral flag>
0

> <version>
0

> <s_m_source_file>
/data/baiqing/PycharmProjects/Reinvent-master-3.2/result/LINK_invent/BTK/process_docking_weight1_custom_sum_contain_oxygen_bond_distance_aromatic_linkinvent_7_9_3/rearranged_h_0076.sdf

> <i_m_source_file_index>
12

> <r_mmod_Potential_Energy-OPLS-2005>
177.785598754883

> <r_mmod_Stretch_Energy-OPLS-2005>
59.1541748046875

> <r_mmod_Bend_Energy-OPLS-2005>
114.871307373047

> <r_mmod_Torsional_Energy-OPLS-2005>
340.432067871094

> <r_mmod_Improper_Torsional_Energy-OPLS-2005>
10.8550004959106

> <r_mmod_Van_der_Waal_Energy-OPLS-2005>
129.34716796875

> <r_mmod_Electrostatic_Energy-OPLS-2005>
-104.344345092773

> <r_mmod_Solvation_Energy-OPLS-2005>
-392.745971679688

> <b_mmod_Minimization_Converged-OPLS-2005>
0

> <r_mmod_RMS_Derivative-OPLS-2005>
3.39322805404663

$$$$
12
                    3D
 Structure written by MMmdl.
160168  0  0  1  0            999 V2000
  -30.7159  -14.4879   20.5671 C   0  0  0  0  0  0
  -30.4256  -12.3208   19.4254 C   0  0  0  0  0  0
  -29.5002  -12.5066   18.2062 C   0  0  0  0  0  0
  -28.0211  -12.3555   18.6150 C   0  0  0  0  0  0
  -27.6587  -13.2009   19.8655 C   0  0  2  0  0  0
  -28.7024  -13.0176   20.9913 C   0  0  0  0  0  0
  -25.2591  -13.8140   20.5646 C   0  0  0  0  0  0
  -24.1838  -13.0438   20.9151 C   0  0  0  0  0  0
  -24.6379  -11.6910   20.8703 C   0  0  0  0  0  0
  -23.9042  -10.4317   21.0382 C   0  0  0  0  0  0
  -24.3607   -9.4251   21.9170 C   0  0  0  0  0  0
  -23.6309   -8.2272   22.0753 C   0  0  0  0  0  0
  -22.4288   -8.0299   21.3546 C   0  0  0  0  0  0
  -21.9912   -9.0266   20.4640 C   0  0  0  0  0  0
  -22.7216  -10.2156   20.3038 C   0  0  0  0  0  0
  -21.6873   -6.0751   22.5291 C   0  0  0  0  0  0
  -21.4007   -6.5646   23.8221 C   0  0  0  0  0  0
  -21.3659   -5.6791   24.9181 C   0  0  0  0  0  0
  -21.6053   -4.3063   24.7219 C   0  0  0  0  0  0
  -21.8830   -3.8157   23.4346 C   0  0  0  0  0  0
  -21.9192   -4.6979   22.3401 C   0  0  0  0  0  0
  -22.7873  -13.5259   21.1851 C   0  0  0  0  0  0
  -22.1658   -4.2171   21.0980 F   0  0  0  0  0  0
  -21.5636   -3.4536   25.7723 F   0  0  0  0  0  0
  -30.0364  -13.3156   20.4373 N   0  0  0  0  0  0
  -26.3010  -12.9292   20.3303 N   0  0  0  0  0  0
  -25.9301  -11.6463   20.5725 N   0  0  0  0  0  0
  -22.0482  -12.8259   22.0393 N   0  0  0  0  0  0
  -25.4318  -15.1856   20.4071 N   0  0  0  0  0  0
  -31.8535  -14.6571   20.1205 O   0  0  0  0  0  0
  -21.6662   -6.8891   21.4245 O   0  0  0  0  0  0
  -22.3586  -14.5583   20.6740 O   0  0  0  0  0  0
  -24.6142  -31.8662   23.2096 C   0  0  0  0  0  0
  -25.9028  -32.4818   23.8396 C   0  0  1  0  0  0
  -27.2474  -27.4372   20.0996 C   0  0  0  0  0  0
  -25.5883  -33.8616   24.2324 N   0  0  0  0  0  0
  -23.4065  -30.4873   21.5472 C   0  0  2  0  0  0
  -24.8596  -28.9527   20.1155 C   0  0  0  0  0  0
  -22.7427  -29.4636   22.4963 C   0  0  0  0  0  0
  -18.0271  -28.1387   22.8488 C   0  0  0  0  0  0
  -24.1488  -36.7321   23.2639 C   0  0  0  0  0  0
  -25.9342  -30.8344   21.3629 C   0  0  0  0  0  0
  -26.0182  -29.4676   20.7124 C   0  0  0  0  0  0
  -27.2183  -28.7173   20.7005 C   0  0  0  0  0  0
  -26.0748  -26.9353   19.4991 C   0  0  0  0  0  0
  -24.8824  -27.6854   19.5059 C   0  0  0  0  0  0
  -23.6192  -29.8176   20.1627 C   0  0  0  0  0  0
  -25.4108  -36.3112   24.0337 C   0  0  1  0  0  0
  -20.5867  -28.3669   23.1315 C   0  0  2  0  0  0
  -20.6759  -26.9400   22.5419 C   0  0  0  0  0  0
  -19.5741  -26.6387   21.5211 C   0  0  0  0  0  0
  -18.1921  -26.7932   22.1622 C   0  0  0  0  0  0
  -19.1525  -28.8842   23.2901 C   0  0  0  0  0  0
  -18.9441  -30.1450   23.8910 C   0  0  0  0  0  0
  -17.6450  -30.6590   24.0567 C   0  0  0  0  0  0
  -25.9027  -34.9472   23.5129 C   0  0  0  0  0  0
  -16.5341  -29.9094   23.6327 C   0  0  0  0  0  0
  -16.7269  -28.6515   23.0338 C   0  0  0  0  0  0
  -26.4465  -31.6604   25.0723 C   0  0  0  0  0  0
  -25.3733  -31.3706   26.1475 C   0  0  0  0  0  0
  -27.0291  -30.3050   24.6088 C   0  0  0  0  0  0
  -27.6050  -32.4321   25.7482 C   0  0  0  0  0  0
  -27.5582  -37.1817   24.8465 C   0  0  0  0  0  0
  -21.4145  -29.3035   22.3716 N   0  0  0  0  0  0
  -26.4298  -37.3795   23.9403 N   0  0  0  0  0  0
  -24.6701  -31.0762   22.0988 N   0  0  0  0  0  0
  -23.4193  -28.8168   23.2994 O   0  0  0  0  0  0
  -28.3901  -26.6653   20.0870 O   0  0  0  0  0  0
  -26.5589  -34.8926   22.4690 O   0  0  0  0  0  0
  -23.5333  -32.1390   23.7487 O   0  0  0  0  0  0
  -30.3055  -21.5136   18.9988 C   0  0  0  0  0  0
  -30.5813  -20.1294   19.0035 C   0  0  0  0  0  0
  -29.3746  -22.0036   19.9351 C   0  0  0  0  0  0
  -29.9006  -19.3022   19.9325 C   0  0  0  0  0  0
  -30.6306  -17.2701   18.5530 C   0  0  0  0  0  0
  -28.3526  -17.3859   19.5036 C   0  0  0  0  0  0
  -28.8111  -23.4282   19.8270 C   0  0  0  0  0  0
  -29.3454  -24.4518   20.8534 C   0  0  0  0  0  0
  -30.3574  -16.9638   21.0367 C   0  0  0  0  0  0
  -28.4059  -25.6609   21.1145 C   0  0  0  0  0  0
  -29.8267  -17.7487   19.7850 C   0  0  0  0  0  0
  -28.8415  -21.1879   20.8825 N   0  0  0  0  0  0
  -29.1015  -19.8683   20.8814 N   0  0  0  0  0  0
  -30.0035  -15.5214   21.0516 N   0  0  0  0  0  0
  -31.4701  -12.4144   19.1231 H   0  0  0  0  0  0
  -30.3253  -11.3167   19.8358 H   0  0  0  0  0  0
  -29.7493  -11.7824   17.4285 H   0  0  0  0  0  0
  -29.6643  -13.4915   17.7668 H   0  0  0  0  0  0
  -27.8383  -11.2988   18.8141 H   0  0  0  0  0  0
  -27.3753  -12.6159   17.7757 H   0  0  0  0  0  0
  -27.6871  -14.2401   19.5491 H   0  0  0  0  0  0
  -28.6829  -11.9950   21.3674 H   0  0  0  0  0  0
  -28.4554  -13.6481   21.8472 H   0  0  0  0  0  0
  -25.2749   -9.5766   22.4734 H   0  0  0  0  0  0
  -24.0051   -7.4674   22.7465 H   0  0  0  0  0  0
  -21.0844   -8.8761   19.8953 H   0  0  0  0  0  0
  -22.3644  -10.9691   19.6158 H   0  0  0  0  0  0
  -21.1989   -7.6152   23.9737 H   0  0  0  0  0  0
  -21.1467   -6.0507   25.9083 H   0  0  0  0  0  0
  -22.0603   -2.7620   23.2825 H   0  0  0  0  0  0
  -22.4048  -11.9918   22.4820 H   0  0  0  0  0  0
  -21.1102  -13.1337   22.2560 H   0  0  0  0  0  0
  -24.6624  -15.8359   20.5192 H   0  0  0  0  0  0
  -26.2879  -15.6341   20.1108 H   0  0  0  0  0  0
  -26.7099  -32.5546   23.1169 H   0  0  0  0  0  0
  -25.0042  -33.9776   25.0473 H   0  0  0  0  0  0
  -22.6957  -31.3039   21.4049 H   0  0  0  0  0  0
  -23.3741  -35.9664   23.3319 H   0  0  0  0  0  0
  -24.3576  -36.8914   22.2048 H   0  0  0  0  0  0
  -23.7250  -37.6538   23.6638 H   0  0  0  0  0  0
  -26.0404  -31.5992   20.5927 H   0  0  0  0  0  0
  -26.8239  -30.8929   21.9786 H   0  0  0  0  0  0
  -28.1154  -29.1101   21.1592 H   0  0  0  0  0  0
  -26.0861  -25.9596   19.0336 H   0  0  0  0  0  0
  -23.9919  -27.2837   19.0421 H   0  0  0  0  0  0
  -23.7291  -30.5917   19.4017 H   0  0  0  0  0  0
  -22.7456  -29.2347   19.8649 H   0  0  0  0  0  0
  -25.1287  -36.1985   25.0832 H   0  0  0  0  0  0
  -20.9959  -28.3225   24.1439 H   0  0  0  0  0  0
  -20.5659  -26.2263   23.3600 H   0  0  0  0  0  0
  -21.6626  -26.7437   22.1209 H   0  0  0  0  0  0
  -19.6894  -25.6299   21.1236 H   0  0  0  0  0  0
  -19.6694  -27.3207   20.6747 H   0  0  0  0  0  0
  -17.4187  -26.6679   21.4031 H   0  0  0  0  0  0
  -18.0328  -26.0083   22.9031 H   0  0  0  0  0  0
  -19.7915  -30.7263   24.2290 H   0  0  0  0  0  0
  -17.5000  -31.6272   24.5167 H   0  0  0  0  0  0
  -15.5343  -30.2997   23.7647 H   0  0  0  0  0  0
  -15.8664  -28.0854   22.7026 H   0  0  0  0  0  0
  -24.5897  -30.7066   25.7812 H   0  0  0  0  0  0
  -24.8932  -32.2857   26.4954 H   0  0  0  0  0  0
  -25.8085  -30.8852   27.0218 H   0  0  0  0  0  0
  -26.2826  -29.6824   24.1140 H   0  0  0  0  0  0
  -27.4063  -29.7281   25.4543 H   0  0  0  0  0  0
  -27.8665  -30.4385   23.9233 H   0  0  0  0  0  0
  -27.2676  -33.3608   26.2104 H   0  0  0  0  0  0
  -28.3838  -32.6900   25.0291 H   0  0  0  0  0  0
  -28.0742  -31.8412   26.5360 H   0  0  0  0  0  0
  -28.2614  -38.0102   24.7495 H   0  0  0  0  0  0
  -28.1063  -36.2628   24.6313 H   0  0  0  0  0  0
  -27.2291  -37.1499   25.8867 H   0  0  0  0  0  0
  -20.9297  -29.8776   21.6961 H   0  0  0  0  0  0
  -26.0190  -38.2878   24.1399 H   0  0  0  0  0  0
  -30.7343  -22.1590   18.2458 H   0  0  0  0  0  0
  -31.2270  -19.7286   18.2379 H   0  0  0  0  0  0
  -30.3030  -17.7669   17.6407 H   0  0  0  0  0  0
  -30.5067  -16.2051   18.3668 H   0  0  0  0  0  0
  -31.7001  -17.4514   18.6762 H   0  0  0  0  0  0
  -27.9777  -17.9416   18.6446 H   0  0  0  0  0  0
  -27.7089  -17.6158   20.3538 H   0  0  0  0  0  0
  -28.2307  -16.3335   19.2720 H   0  0  0  0  0  0
  -27.7269  -23.3535   19.9218 H   0  0  0  0  0  0
  -28.9897  -23.8112   18.8222 H   0  0  0  0  0  0
  -30.3483  -24.7785   20.5792 H   0  0  0  0  0  0
  -29.4557  -23.9299   21.8041 H   0  0  0  0  0  0
  -29.9353  -17.3984   21.9436 H   0  0  0  0  0  0
  -31.4386  -17.0900   21.1284 H   0  0  0  0  0  0
  -28.7270  -26.1554   22.0326 H   0  0  0  0  0  0
  -27.4008  -25.2861   21.3157 H   0  0  0  0  0  0
  -29.0745  -15.2976   21.3720 H   0  0  0  0  0  0
  1 25  1  0  0  0
  1 30  2  0  0  0
  1 84  1  0  0  0
  2  3  1  0  0  0
  2 25  1  0  0  0
  2 85  1  0  0  0
  2 86  1  0  0  0
  3  4  1  0  0  0
  3 87  1  0  0  0
  3 88  1  0  0  0
  4  5  1  0  0  0
  4 89  1  0  0  0
  4 90  1  0  0  0
  5  6  1  0  0  0
  5 26  1  0  0  0
  5 91  1  0  0  0
  6 25  1  0  0  0
  6 92  1  0  0  0
  6 93  1  0  0  0
  7  8  2  0  0  0
  7 26  1  0  0  0
  7 29  1  0  0  0
  8  9  1  0  0  0
  8 22  1  0  0  0
  9 10  1  0  0  0
  9 27  2  0  0  0
 10 11  2  0  0  0
 10 15  1  0  0  0
 11 12  1  0  0  0
 11 94  1  0  0  0
 12 13  2  0  0  0
 12 95  1  0  0  0
 13 14  1  0  0  0
 13 31  1  0  0  0
 14 15  2  0  0  0
 14 96  1  0  0  0
 15 97  1  0  0  0
 16 17  2  0  0  0
 16 21  1  0  0  0
 16 31  1  0  0  0
 17 18  1  0  0  0
 17 98  1  0  0  0
 18 19  2  0  0  0
 18 99  1  0  0  0
 19 20  1  0  0  0
 19 24  1  0  0  0
 20 21  2  0  0  0
 20100  1  0  0  0
 21 23  1  0  0  0
 22 28  1  0  0  0
 22 32  2  0  0  0
 26 27  1  0  0  0
 28101  1  0  0  0
 28102  1  0  0  0
 29103  1  0  0  0
 29104  1  0  0  0
 33 34  1  0  0  0
 33 66  1  0  0  0
 33 70  2  0  0  0
 34 36  1  0  0  0
 34 59  1  0  0  0
 34105  1  0  0  0
 35 44  2  0  0  0
 35 45  1  0  0  0
 35 68  1  0  0  0
 36 56  1  0  0  0
 36106  1  0  0  0
 37 39  1  0  0  0
 37 47  1  0  0  0
 37 66  1  0  0  0
 37107  1  0  0  0
 38 43  2  0  0  0
 38 46  1  0  0  0
 38 47  1  0  0  0
 39 64  1  0  0  0
 39 67  2  0  0  0
 40 52  1  0  0  0
 40 53  2  0  0  0
 40 58  1  0  0  0
 41108  1  0  0  0
 41109  1  0  0  0
 41110  1  0  0  0
 41 48  1  0  0  0
 42 43  1  0  0  0
 42 66  1  0  0  0
 42111  1  0  0  0
 42112  1  0  0  0
 43 44  1  0  0  0
 44113  1  0  0  0
 45 46  2  0  0  0
 45114  1  0  0  0
 46115  1  0  0  0
 47116  1  0  0  0
 47117  1  0  0  0
 48 56  1  0  0  0
 48 65  1  0  0  0
 48118  1  0  0  0
 49 50  1  0  0  0
 49 53  1  0  0  0
 49 64  1  0  0  0
 49119  1  0  0  0
 50 51  1  0  0  0
 50120  1  0  0  0
 50121  1  0  0  0
 51 52  1  0  0  0
 51122  1  0  0  0
 51123  1  0  0  0
 52124  1  0  0  0
 52125  1  0  0  0
 53 54  1  0  0  0
 54 55  2  0  0  0
 54126  1  0  0  0
 55 57  1  0  0  0
 55127  1  0  0  0
 56 69  2  0  0  0
 57 58  2  0  0  0
 57128  1  0  0  0
 58129  1  0  0  0
 59 60  1  0  0  0
 59 61  1  0  0  0
 59 62  1  0  0  0
 60130  1  0  0  0
 60131  1  0  0  0
 60132  1  0  0  0
 61133  1  0  0  0
 61134  1  0  0  0
 61135  1  0  0  0
 62136  1  0  0  0
 62137  1  0  0  0
 62138  1  0  0  0
 63 65  1  0  0  0
 63139  1  0  0  0
 63140  1  0  0  0
 63141  1  0  0  0
 64142  1  0  0  0
 65143  1  0  0  0
 68 80  1  0  0  0
 71 72  2  0  0  0
 71 73  1  0  0  0
 71144  1  0  0  0
 72 74  1  0  0  0
 72145  1  0  0  0
 73 77  1  0  0  0
 73 82  2  0  0  0
 74 81  1  0  0  0
 74 83  2  0  0  0
 75146  1  0  0  0
 75147  1  0  0  0
 75148  1  0  0  0
 75 81  1  0  0  0
 76 81  1  0  0  0
 76149  1  0  0  0
 76150  1  0  0  0
 76151  1  0  0  0
 77 78  1  0  0  0
 77152  1  0  0  0
 77153  1  0  0  0
 78 80  1  0  0  0
 78154  1  0  0  0
 78155  1  0  0  0
 79 81  1  0  0  0
 79 84  1  0  0  0
 79156  1  0  0  0
 79157  1  0  0  0
 80158  1  0  0  0
 80159  1  0  0  0
 82 83  1  0  0  0
 84160  1  0  0  0
M  ISO  4   1 100  68 101  80 101  84 100
M  END
> <chiral flag>
0

> <version>
0

> <s_m_source_file>
/data/baiqing/PycharmProjects/Reinvent-master-3.2/result/LINK_invent/BTK/process_docking_weight1_custom_sum_contain_oxygen_bond_distance_aromatic_linkinvent_7_9_3/rearranged_h_0076.sdf

> <i_m_source_file_index>
13

> <r_mmod_Potential_Energy-OPLS-2005>
-83.2576065063477

> <r_mmod_Stretch_Energy-OPLS-2005>
45.2410583496094

> <r_mmod_Bend_Energy-OPLS-2005>
106.524597167969

> <r_mmod_Torsional_Energy-OPLS-2005>
228.841812133789

> <r_mmod_Improper_Torsional_Energy-OPLS-2005>
5.50139617919922

> <r_mmod_Van_der_Waal_Energy-OPLS-2005>
152.788162231445

> <r_mmod_Electrostatic_Energy-OPLS-2005>
-415.655395507812

> <r_mmod_Solvation_Energy-OPLS-2005>
-220.800674438477

> <b_mmod_Minimization_Converged-OPLS-2005>
0

> <r_mmod_RMS_Derivative-OPLS-2005>
2.54664826393127

$$$$
13
                    3D
 Structure written by MMmdl.
153161  0  0  1  0            999 V2000
  -30.6400  -14.6555   20.4998 C   0  0  0  0  0  0
  -30.4301  -12.4070   19.4506 C   0  0  0  0  0  0
  -29.5009  -12.5005   18.2213 C   0  0  0  0  0  0
  -28.0266  -12.3355   18.6390 C   0  0  0  0  0  0
  -27.6459  -13.2225   19.8548 C   0  0  2  0  0  0
  -28.6925  -13.1095   20.9845 C   0  0  0  0  0  0
  -25.2528  -13.8182   20.5698 C   0  0  0  0  0  0
  -24.1808  -13.0437   20.9210 C   0  0  0  0  0  0
  -24.6391  -11.6912   20.8750 C   0  0  0  0  0  0
  -23.9067  -10.4288   21.0412 C   0  0  0  0  0  0
  -24.3618   -9.4202   21.9190 C   0  0  0  0  0  0
  -23.6292   -8.2237   22.0754 C   0  0  0  0  0  0
  -22.4274   -8.0276   21.3545 C   0  0  0  0  0  0
  -21.9912   -9.0251   20.4648 C   0  0  0  0  0  0
  -22.7241  -10.2130   20.3058 C   0  0  0  0  0  0
  -21.6849   -6.0733   22.5281 C   0  0  0  0  0  0
  -21.4010   -6.5638   23.8215 C   0  0  0  0  0  0
  -21.3662   -5.6792   24.9177 C   0  0  0  0  0  0
  -21.6044   -4.3053   24.7225 C   0  0  0  0  0  0
  -21.8819   -3.8146   23.4348 C   0  0  0  0  0  0
  -21.9191   -4.6963   22.3405 C   0  0  0  0  0  0
  -22.7830  -13.5221   21.1874 C   0  0  0  0  0  0
  -22.1659   -4.2146   21.0983 F   0  0  0  0  0  0
  -21.5632   -3.4539   25.7740 F   0  0  0  0  0  0
  -29.9995  -13.4472   20.4064 N   0  0  0  0  0  0
  -26.2952  -12.9374   20.3300 N   0  0  0  0  0  0
  -25.9316  -11.6526   20.5762 N   0  0  0  0  0  0
  -22.0477  -12.8202   22.0425 N   0  0  0  0  0  0
  -25.4234  -15.1909   20.4127 N   0  0  0  0  0  0
  -31.8218  -14.7744   20.1672 O   0  0  0  0  0  0
  -21.6636   -6.8875   21.4243 O   0  0  0  0  0  0
  -22.3512  -14.5528   20.6727 O   0  0  0  0  0  0
  -24.6273  -31.8592   23.1993 C   0  0  0  0  0  0
  -25.9126  -32.4768   23.8329 C   0  0  1  0  0  0
  -27.2332  -27.3120   20.1035 C   0  0  0  0  0  0
  -25.5956  -33.8571   24.2265 N   0  0  0  0  0  0
  -23.4204  -30.4819   21.5427 C   0  0  2  0  0  0
  -24.8655  -28.9317   20.1109 C   0  0  0  0  0  0
  -22.7488  -29.4624   22.4923 C   0  0  0  0  0  0
  -18.0301  -28.1381   22.8486 C   0  0  0  0  0  0
  -24.1501  -36.7269   23.2639 C   0  0  0  0  0  0
  -25.9617  -30.7872   21.3692 C   0  0  0  0  0  0
  -26.0350  -29.4137   20.7092 C   0  0  0  0  0  0
  -27.2166  -28.6156   20.6950 C   0  0  0  0  0  0
  -26.0228  -26.8648   19.5281 C   0  0  0  0  0  0
  -24.8613  -27.6611   19.5146 C   0  0  0  0  0  0
  -23.6348  -29.8139   20.1584 C   0  0  0  0  0  0
  -25.4128  -36.3067   24.0326 C   0  0  1  0  0  0
  -20.5900  -28.3694   23.1270 C   0  0  2  0  0  0
  -20.6791  -26.9415   22.5399 C   0  0  0  0  0  0
  -19.5765  -26.6380   21.5211 C   0  0  0  0  0  0
  -18.1946  -26.7926   22.1616 C   0  0  0  0  0  0
  -19.1551  -28.8858   23.2875 C   0  0  0  0  0  0
  -18.9472  -30.1462   23.8890 C   0  0  0  0  0  0
  -17.6472  -30.6590   24.0564 C   0  0  0  0  0  0
  -25.9066  -34.9444   23.5088 C   0  0  0  0  0  0
  -16.5367  -29.9081   23.6330 C   0  0  0  0  0  0
  -16.7287  -28.6495   23.0354 C   0  0  0  0  0  0
  -26.4504  -31.6587   25.0707 C   0  0  0  0  0  0
  -25.3724  -31.3736   26.1436 C   0  0  0  0  0  0
  -27.0352  -30.3016   24.6147 C   0  0  0  0  0  0
  -27.6076  -32.4325   25.7468 C   0  0  0  0  0  0
  -27.5585  -37.1790   24.8468 C   0  0  0  0  0  0
  -21.4205  -29.3046   22.3669 N   0  0  0  0  0  0
  -26.4298  -37.3770   23.9414 N   0  0  0  0  0  0
  -24.6886  -31.0602   22.0937 N   0  0  0  0  0  0
  -23.4212  -28.8176   23.3015 O   0  0  0  0  0  0
  -28.3826  -26.5055   20.1761 O   0  0  0  0  0  0
  -26.5625  -34.8918   22.4650 O   0  0  0  0  0  0
  -23.5436  -32.1390   23.7319 O   0  0  0  0  0  0
  -30.4771  -22.0764   19.9727 C   0  0  0  0  0  0
  -29.5039  -21.2447   20.5760 C   0  0  0  0  0  0
  -29.0023  -23.8782   19.9410 C   0  0  0  0  0  0
  -28.0785  -25.2279   17.9226 C   0  0  0  0  0  0
  -29.8973  -19.8353   21.1707 C   0  0  0  0  0  0
  -29.5166  -18.4303   20.5098 C   0  0  0  0  0  0
  -30.3387  -17.1745   21.0761 C   0  0  0  0  0  0
  -28.6917  -25.3171   19.3333 C   0  0  1  0  0  0
  -30.2197  -23.3763   19.6581 N   0  0  0  0  0  0
  -28.2837  -21.8118   20.8338 N   0  0  0  0  0  0
  -28.0281  -23.1119   20.4991 N   0  0  0  0  0  0
  -29.8799  -15.7602   20.8007 N   0  0  0  0  0  0
  -31.4720  -12.5260   19.1472 H   0  0  0  0  0  0
  -30.3635  -11.4199   19.9110 H   0  0  0  0  0  0
  -29.7682  -11.7388   17.4869 H   0  0  0  0  0  0
  -29.6368  -13.4637   17.7274 H   0  0  0  0  0  0
  -27.8734  -11.2848   18.8880 H   0  0  0  0  0  0
  -27.3668  -12.5455   17.7962 H   0  0  0  0  0  0
  -27.6539  -14.2519   19.4959 H   0  0  0  0  0  0
  -28.7118  -12.0982   21.3931 H   0  0  0  0  0  0
  -28.4413  -13.7671   21.8182 H   0  0  0  0  0  0
  -25.2763   -9.5674   22.4766 H   0  0  0  0  0  0
  -23.9999   -7.4624   22.7468 H   0  0  0  0  0  0
  -21.0843   -8.8773   19.8947 H   0  0  0  0  0  0
  -22.3707  -10.9671   19.6164 H   0  0  0  0  0  0
  -21.2001   -7.6146   23.9718 H   0  0  0  0  0  0
  -21.1485   -6.0523   25.9081 H   0  0  0  0  0  0
  -22.0596   -2.7606   23.2851 H   0  0  0  0  0  0
  -22.4092  -11.9850   22.4788 H   0  0  0  0  0  0
  -21.1100  -13.1224   22.2649 H   0  0  0  0  0  0
  -24.6584  -15.8464   20.5312 H   0  0  0  0  0  0
  -26.2714  -15.6317   20.0805 H   0  0  0  0  0  0
  -26.7187  -32.5425   23.1067 H   0  0  0  0  0  0
  -25.0177  -33.9725   25.0459 H   0  0  0  0  0  0
  -22.7150  -31.3026   21.3976 H   0  0  0  0  0  0
  -23.3777  -35.9585   23.3289 H   0  0  0  0  0  0
  -24.3595  -36.8897   22.2055 H   0  0  0  0  0  0
  -23.7233  -37.6458   23.6667 H   0  0  0  0  0  0
  -26.0964  -31.5512   20.6019 H   0  0  0  0  0  0
  -26.8406  -30.8332   22.0000 H   0  0  0  0  0  0
  -28.1176  -28.9871   21.1629 H   0  0  0  0  0  0
  -25.9273  -25.8713   19.1274 H   0  0  0  0  0  0
  -23.9567  -27.2719   19.0684 H   0  0  0  0  0  0
  -23.7549  -30.5890   19.4006 H   0  0  0  0  0  0
  -22.7535  -29.2451   19.8562 H   0  0  0  0  0  0
  -25.1300  -36.1911   25.0814 H   0  0  0  0  0  0
  -21.0003  -28.3268   24.1383 H   0  0  0  0  0  0
  -20.5706  -26.2307   23.3599 H   0  0  0  0  0  0
  -21.6658  -26.7453   22.1183 H   0  0  0  0  0  0
  -19.6938  -25.6288   21.1247 H   0  0  0  0  0  0
  -19.6704  -27.3188   20.6736 H   0  0  0  0  0  0
  -17.4218  -26.6699   21.4010 H   0  0  0  0  0  0
  -18.0338  -26.0052   22.8990 H   0  0  0  0  0  0
  -19.7950  -30.7290   24.2246 H   0  0  0  0  0  0
  -17.5023  -31.6268   24.5169 H   0  0  0  0  0  0
  -15.5365  -30.2989   23.7647 H   0  0  0  0  0  0
  -15.8684  -28.0816   22.7066 H   0  0  0  0  0  0
  -24.5918  -30.7061   25.7761 H   0  0  0  0  0  0
  -24.8896  -32.2910   26.4823 H   0  0  0  0  0  0
  -25.8041  -30.8948   27.0235 H   0  0  0  0  0  0
  -26.2919  -29.6763   24.1187 H   0  0  0  0  0  0
  -27.4093  -29.7278   25.4637 H   0  0  0  0  0  0
  -27.8765  -30.4322   23.9334 H   0  0  0  0  0  0
  -27.2708  -33.3660   26.1991 H   0  0  0  0  0  0
  -28.3904  -32.6829   25.0290 H   0  0  0  0  0  0
  -28.0718  -31.8477   26.5418 H   0  0  0  0  0  0
  -28.2591  -38.0100   24.7537 H   0  0  0  0  0  0
  -28.1093  -36.2634   24.6265 H   0  0  0  0  0  0
  -27.2309  -37.1397   25.8872 H   0  0  0  0  0  0
  -20.9400  -29.8753   21.6851 H   0  0  0  0  0  0
  -26.0171  -38.2836   24.1429 H   0  0  0  0  0  0
  -31.4790  -21.7166   19.7884 H   0  0  0  0  0  0
  -28.7548  -24.6885   17.2587 H   0  0  0  0  0  0
  -27.9106  -26.2114   17.4852 H   0  0  0  0  0  0
  -27.1455  -24.6668   17.9179 H   0  0  0  0  0  0
  -29.5429  -19.8240   22.2021 H   0  0  0  0  0  0
  -30.9839  -19.8524   21.2647 H   0  0  0  0  0  0
  -29.6845  -18.4898   19.4343 H   0  0  0  0  0  0
  -28.4467  -18.2639   20.6384 H   0  0  0  0  0  0
  -30.3633  -17.2609   22.1634 H   0  0  0  0  0  0
  -31.3798  -17.2789   20.7652 H   0  0  0  0  0  0
  -29.7004  -25.6474   19.0804 H   0  0  0  0  0  0
  -28.9048  -15.5699   20.9768 H   0  0  0  0  0  0
  1 25  1  0  0  0
  1 30  2  0  0  0
  1 82  1  0  0  0
  2  3  1  0  0  0
  2 25  1  0  0  0
  2 83  1  0  0  0
  2 84  1  0  0  0
  3  4  1  0  0  0
  3 85  1  0  0  0
  3 86  1  0  0  0
  4  5  1  0  0  0
  4 87  1  0  0  0
  4 88  1  0  0  0
  5  6  1  0  0  0
  5 26  1  0  0  0
  5 89  1  0  0  0
  6 25  1  0  0  0
  6 90  1  0  0  0
  6 91  1  0  0  0
  7  8  2  0  0  0
  7 26  1  0  0  0
  7 29  1  0  0  0
  8  9  1  0  0  0
  8 22  1  0  0  0
  9 10  1  0  0  0
  9 27  2  0  0  0
 10 11  2  0  0  0
 10 15  1  0  0  0
 11 12  1  0  0  0
 11 92  1  0  0  0
 12 13  2  0  0  0
 12 93  1  0  0  0
 13 14  1  0  0  0
 13 31  1  0  0  0
 14 15  2  0  0  0
 14 94  1  0  0  0
 15 95  1  0  0  0
 16 17  2  0  0  0
 16 21  1  0  0  0
 16 31  1  0  0  0
 17 18  1  0  0  0
 17 96  1  0  0  0
 18 19  2  0  0  0
 18 97  1  0  0  0
 19 20  1  0  0  0
 19 24  1  0  0  0
 20 21  2  0  0  0
 20 98  1  0  0  0
 21 23  1  0  0  0
 22 28  1  0  0  0
 22 32  2  0  0  0
 26 27  1  0  0  0
 28 99  1  0  0  0
 28100  1  0  0  0
 29101  1  0  0  0
 29102  1  0  0  0
 33 34  1  0  0  0
 33 66  1  0  0  0
 33 70  2  0  0  0
 34 36  1  0  0  0
 34 59  1  0  0  0
 34103  1  0  0  0
 35 44  2  0  0  0
 35 45  1  0  0  0
 35 68  1  0  0  0
 36 56  1  0  0  0
 36104  1  0  0  0
 37 39  1  0  0  0
 37 47  1  0  0  0
 37 66  1  0  0  0
 37105  1  0  0  0
 38 43  2  0  0  0
 38 46  1  0  0  0
 38 47  1  0  0  0
 39 64  1  0  0  0
 39 67  2  0  0  0
 40 52  1  0  0  0
 40 53  2  0  0  0
 40 58  1  0  0  0
 41106  1  0  0  0
 41107  1  0  0  0
 41108  1  0  0  0
 41 48  1  0  0  0
 42 43  1  0  0  0
 42 66  1  0  0  0
 42109  1  0  0  0
 42110  1  0  0  0
 43 44  1  0  0  0
 44111  1  0  0  0
 45 46  2  0  0  0
 45112  1  0  0  0
 46113  1  0  0  0
 47114  1  0  0  0
 47115  1  0  0  0
 48 56  1  0  0  0
 48 65  1  0  0  0
 48116  1  0  0  0
 49 50  1  0  0  0
 49 53  1  0  0  0
 49 64  1  0  0  0
 49117  1  0  0  0
 50 51  1  0  0  0
 50118  1  0  0  0
 50119  1  0  0  0
 51 52  1  0  0  0
 51120  1  0  0  0
 51121  1  0  0  0
 52122  1  0  0  0
 52123  1  0  0  0
 53 54  1  0  0  0
 54 55  2  0  0  0
 54124  1  0  0  0
 55 57  1  0  0  0
 55125  1  0  0  0
 56 69  2  0  0  0
 57 58  2  0  0  0
 57126  1  0  0  0
 58127  1  0  0  0
 59 60  1  0  0  0
 59 61  1  0  0  0
 59 62  1  0  0  0
 60128  1  0  0  0
 60129  1  0  0  0
 60130  1  0  0  0
 61131  1  0  0  0
 61132  1  0  0  0
 61133  1  0  0  0
 62134  1  0  0  0
 62135  1  0  0  0
 62136  1  0  0  0
 63 65  1  0  0  0
 63137  1  0  0  0
 63138  1  0  0  0
 63139  1  0  0  0
 64140  1  0  0  0
 65141  1  0  0  0
 68 78  1  0  0  0
 71 72  2  0  0  0
 71 79  1  0  0  0
 71142  1  0  0  0
 72 75  1  0  0  0
 72 80  1  0  0  0
 73 78  1  0  0  0
 73 79  2  0  0  0
 73 81  1  0  0  0
 74143  1  0  0  0
 74144  1  0  0  0
 74145  1  0  0  0
 74 78  1  0  0  0
 75 76  1  0  0  0
 75146  1  0  0  0
 75147  1  0  0  0
 76 77  1  0  0  0
 76148  1  0  0  0
 76149  1  0  0  0
 77 82  1  0  0  0
 77150  1  0  0  0
 77151  1  0  0  0
 78152  1  0  0  0
 80 81  2  0  0  0
 82153  1  0  0  0
M  ISO  4   1 100  68 101  78 101  82 100
M  END
> <chiral flag>
0

> <version>
0

> <s_m_source_file>
/data/baiqing/PycharmProjects/Reinvent-master-3.2/result/LINK_invent/BTK/process_docking_weight1_custom_sum_contain_oxygen_bond_distance_aromatic_linkinvent_7_9_3/rearranged_h_0076.sdf

> <i_m_source_file_index>
14

> <r_mmod_Potential_Energy-OPLS-2005>
112.79216003418

> <r_mmod_Stretch_Energy-OPLS-2005>
94.2514419555664

> <r_mmod_Bend_Energy-OPLS-2005>
198.497955322266

> <r_mmod_Torsional_Energy-OPLS-2005>
189.566543579102

> <r_mmod_Improper_Torsional_Energy-OPLS-2005>
6.80922889709473

> <r_mmod_Van_der_Waal_Energy-OPLS-2005>
149.996887207031

> <r_mmod_Electrostatic_Energy-OPLS-2005>
-340.217407226562

> <r_mmod_Solvation_Energy-OPLS-2005>
-238.65299987793

> <b_mmod_Minimization_Converged-OPLS-2005>
0

> <r_mmod_RMS_Derivative-OPLS-2005>
1.18413960933685

$$$$
14
                    3D
 Structure written by MMmdl.
167175  0  0  1  0            999 V2000
  -30.5991  -15.0015   20.2802 C   0  0  0  0  0  0
  -30.4327  -12.6194   19.4592 C   0  0  0  0  0  0
  -29.5019  -12.4435   18.2404 C   0  0  0  0  0  0
  -28.0417  -12.2552   18.6882 C   0  0  0  0  0  0
  -27.6070  -13.2278   19.8170 C   0  0  2  0  0  0
  -28.6747  -13.3830   20.9165 C   0  0  0  0  0  0
  -25.2407  -13.7989   20.5917 C   0  0  0  0  0  0
  -24.1714  -13.0242   20.9326 C   0  0  0  0  0  0
  -24.6352  -11.6771   20.8826 C   0  0  0  0  0  0
  -23.9053  -10.4186   21.0427 C   0  0  0  0  0  0
  -24.3611   -9.4131   21.9209 C   0  0  0  0  0  0
  -23.6275   -8.2188   22.0771 C   0  0  0  0  0  0
  -22.4254   -8.0254   21.3559 C   0  0  0  0  0  0
  -21.9901   -9.0223   20.4656 C   0  0  0  0  0  0
  -22.7239  -10.2080   20.3062 C   0  0  0  0  0  0
  -21.6831   -6.0738   22.5292 C   0  0  0  0  0  0
  -21.3993   -6.5644   23.8222 C   0  0  0  0  0  0
  -21.3644   -5.6794   24.9182 C   0  0  0  0  0  0
  -21.6028   -4.3054   24.7229 C   0  0  0  0  0  0
  -21.8828   -3.8158   23.4347 C   0  0  0  0  0  0
  -21.9194   -4.6975   22.3409 C   0  0  0  0  0  0
  -22.7755  -13.5080   21.1925 C   0  0  0  0  0  0
  -22.1669   -4.2162   21.0984 F   0  0  0  0  0  0
  -21.5630   -3.4542   25.7745 F   0  0  0  0  0  0
  -29.9263  -13.7757   20.2484 N   0  0  0  0  0  0
  -26.2822  -12.9244   20.3342 N   0  0  0  0  0  0
  -25.9286  -11.6393   20.5829 N   0  0  0  0  0  0
  -22.0361  -12.8107   22.0465 N   0  0  0  0  0  0
  -25.3900  -15.1672   20.4589 N   0  0  0  0  0  0
  -31.8113  -14.8728   20.4710 O   0  0  0  0  0  0
  -21.6601   -6.8867   21.4251 O   0  0  0  0  0  0
  -22.3493  -14.5408   20.6760 O   0  0  0  0  0  0
  -24.6434  -31.8469   23.1875 C   0  0  0  0  0  0
  -25.9213  -32.4705   23.8292 C   0  0  1  0  0  0
  -27.2257  -27.1506   20.1462 C   0  0  0  0  0  0
  -25.5961  -33.8509   24.2213 N   0  0  0  0  0  0
  -23.4488  -30.4637   21.5308 C   0  0  2  0  0  0
  -24.9006  -28.8951   20.1062 C   0  0  0  0  0  0
  -22.7598  -29.4543   22.4837 C   0  0  0  0  0  0
  -18.0327  -28.1393   22.8474 C   0  0  0  0  0  0
  -24.1507  -36.7259   23.2646 C   0  0  0  0  0  0
  -26.0037  -30.7223   21.3884 C   0  0  0  0  0  0
  -26.0762  -29.3352   20.7279 C   0  0  0  0  0  0
  -27.2381  -28.4780   20.7326 C   0  0  0  0  0  0
  -26.0234  -26.8083   19.4849 C   0  0  0  0  0  0
  -24.8876  -27.6449   19.4682 C   0  0  0  0  0  0
  -23.6770  -29.7956   20.1501 C   0  0  0  0  0  0
  -25.4132  -36.3042   24.0325 C   0  0  1  0  0  0
  -20.5933  -28.3724   23.1226 C   0  0  2  0  0  0
  -20.6807  -26.9425   22.5404 C   0  0  0  0  0  0
  -19.5775  -26.6381   21.5215 C   0  0  0  0  0  0
  -18.1964  -26.7936   22.1628 C   0  0  0  0  0  0
  -19.1578  -28.8872   23.2846 C   0  0  0  0  0  0
  -18.9494  -30.1474   23.8872 C   0  0  0  0  0  0
  -17.6484  -30.6578   24.0562 C   0  0  0  0  0  0
  -25.9077  -34.9411   23.5074 C   0  0  0  0  0  0
  -16.5375  -29.9071   23.6333 C   0  0  0  0  0  0
  -16.7314  -28.6492   23.0345 C   0  0  0  0  0  0
  -26.4530  -31.6558   25.0719 C   0  0  0  0  0  0
  -25.3719  -31.3697   26.1408 C   0  0  0  0  0  0
  -27.0407  -30.2974   24.6270 C   0  0  0  0  0  0
  -27.6084  -32.4315   25.7478 C   0  0  0  0  0  0
  -27.5592  -37.1782   24.8467 C   0  0  0  0  0  0
  -21.4289  -29.3039   22.3601 N   0  0  0  0  0  0
  -26.4308  -37.3745   23.9400 N   0  0  0  0  0  0
  -24.7175  -31.0329   22.0901 N   0  0  0  0  0  0
  -23.4252  -28.8128   23.3004 O   0  0  0  0  0  0
  -28.2844  -26.1755   20.2261 O   0  0  0  0  0  0
  -26.5672  -34.8911   22.4657 O   0  0  0  0  0  0
  -23.5549  -32.1345   23.7075 O   0  0  0  0  0  0
  -30.4434  -18.6489   21.0985 C   0  0  0  0  0  0
  -29.7029  -17.9505   20.1599 C   0  0  0  0  0  0
  -29.0930  -20.2807   20.2738 C   0  0  0  0  0  0
  -31.5138  -16.9422   18.9001 C   0  0  0  0  0  0
  -29.4474  -16.0733   18.2062 C   0  0  0  0  0  0
  -26.8773  -17.4482   19.0101 C   0  0  0  0  0  0
  -27.7234  -19.2913   17.4886 C   0  0  0  0  0  0
  -26.2884  -19.7548   19.4845 C   0  0  0  0  0  0
  -28.4351  -21.7797   20.0398 C   0  0  0  0  0  0
  -28.9680  -23.3293   20.3721 C   0  0  0  0  0  0
  -28.0063  -24.6634   20.0258 C   0  0  0  0  0  0
  -30.1569  -16.4628   19.5171 C   0  0  0  0  0  0
  -27.4657  -18.8740   18.9551 C   0  0  0  0  0  0
  -28.7338  -18.9983   19.7941 N   0  0  0  0  0  0
  -30.0965  -19.9934   21.1106 N   0  3  0  0  0  0
  -31.4559  -12.7802   19.1138 H   0  0  0  0  0  0
  -30.4597  -11.7145   20.0691 H   0  0  0  0  0  0
  -29.8229  -11.5832   17.6500 H   0  0  0  0  0  0
  -29.5686  -13.2938   17.5701 H   0  0  0  0  0  0
  -27.9542  -11.2293   19.0465 H   0  0  0  0  0  0
  -27.3682  -12.3314   17.8350 H   0  0  0  0  0  0
  -27.4946  -14.1897   19.3418 H   0  0  0  0  0  0
  -28.8013  -12.4583   21.4840 H   0  0  0  0  0  0
  -28.3756  -14.1526   21.6286 H   0  0  0  0  0  0
  -25.2750   -9.5614   22.4789 H   0  0  0  0  0  0
  -23.9981   -7.4579   22.7486 H   0  0  0  0  0  0
  -21.0843   -8.8747   19.8962 H   0  0  0  0  0  0
  -22.3714  -10.9641   19.6192 H   0  0  0  0  0  0
  -21.1969   -7.6152   23.9720 H   0  0  0  0  0  0
  -21.1446   -6.0525   25.9077 H   0  0  0  0  0  0
  -22.0617   -2.7626   23.2833 H   0  0  0  0  0  0
  -22.3946  -11.9785   22.4914 H   0  0  0  0  0  0
  -21.0973  -13.1164   22.2593 H   0  0  0  0  0  0
  -24.6050  -15.7938   20.5930 H   0  0  0  0  0  0
  -26.2271  -15.6402   20.1512 H   0  0  0  0  0  0
  -26.7283  -32.5322   23.1028 H   0  0  0  0  0  0
  -25.0078  -33.9635   25.0340 H   0  0  0  0  0  0
  -22.7488  -31.2868   21.3775 H   0  0  0  0  0  0
  -23.3781  -35.9582   23.3290 H   0  0  0  0  0  0
  -24.3593  -36.8912   22.2067 H   0  0  0  0  0  0
  -23.7256  -37.6446   23.6686 H   0  0  0  0  0  0
  -26.1632  -31.4781   20.6189 H   0  0  0  0  0  0
  -26.8711  -30.7696   22.0351 H   0  0  0  0  0  0
  -28.1323  -28.8047   21.2467 H   0  0  0  0  0  0
  -25.9198  -25.8522   18.9944 H   0  0  0  0  0  0
  -23.9923  -27.3039   18.9672 H   0  0  0  0  0  0
  -23.8113  -30.5705   19.3952 H   0  0  0  0  0  0
  -22.7923  -29.2364   19.8417 H   0  0  0  0  0  0
  -25.1314  -36.1894   25.0820 H   0  0  0  0  0  0
  -21.0033  -28.3339   24.1334 H   0  0  0  0  0  0
  -20.5721  -26.2347   23.3641 H   0  0  0  0  0  0
  -21.6678  -26.7449   22.1189 H   0  0  0  0  0  0
  -19.6943  -25.6285   21.1258 H   0  0  0  0  0  0
  -19.6697  -27.3198   20.6752 H   0  0  0  0  0  0
  -17.4240  -26.6708   21.4027 H   0  0  0  0  0  0
  -18.0329  -26.0078   22.9015 H   0  0  0  0  0  0
  -19.7970  -30.7294   24.2234 H   0  0  0  0  0  0
  -17.5033  -31.6254   24.5181 H   0  0  0  0  0  0
  -15.5370  -30.2950   23.7642 H   0  0  0  0  0  0
  -15.8740  -28.0800   22.7030 H   0  0  0  0  0  0
  -24.5921  -30.7032   25.7695 H   0  0  0  0  0  0
  -24.8871  -32.2842   26.4827 H   0  0  0  0  0  0
  -25.8014  -30.8866   27.0197 H   0  0  0  0  0  0
  -26.3015  -29.6667   24.1310 H   0  0  0  0  0  0
  -27.4084  -29.7291   25.4825 H   0  0  0  0  0  0
  -27.8901  -30.4232   23.9550 H   0  0  0  0  0  0
  -27.2714  -33.3637   26.2012 H   0  0  0  0  0  0
  -28.3888  -32.6835   25.0288 H   0  0  0  0  0  0
  -28.0757  -31.8469   26.5410 H   0  0  0  0  0  0
  -28.2592  -38.0100   24.7520 H   0  0  0  0  0  0
  -28.1111  -36.2620   24.6281 H   0  0  0  0  0  0
  -27.2302  -37.1405   25.8874 H   0  0  0  0  0  0
  -20.9524  -29.8737   21.6760 H   0  0  0  0  0  0
  -26.0189  -38.2830   24.1377 H   0  0  0  0  0  0
  -31.2882  -18.3066   21.6802 H   0  0  0  0  0  0
  -31.3792  -17.7731   18.2051 H   0  0  0  0  0  0
  -32.0280  -16.1616   18.3371 H   0  0  0  0  0  0
  -32.2205  -17.2784   19.6599 H   0  0  0  0  0  0
  -29.3361  -16.9072   17.5256 H   0  0  0  0  0  0
  -28.4927  -15.6015   18.3413 H   0  0  0  0  0  0
  -30.0377  -15.3506   17.6466 H   0  0  0  0  0  0
  -25.8077  -17.4205   19.2086 H   0  0  0  0  0  0
  -27.3299  -16.8492   19.7982 H   0  0  0  0  0  0
  -26.9539  -16.9462   18.0478 H   0  0  0  0  0  0
  -26.8283  -19.1527   16.8803 H   0  0  0  0  0  0
  -28.5232  -18.7331   17.0125 H   0  0  0  0  0  0
  -28.0020  -20.3381   17.3987 H   0  0  0  0  0  0
  -25.3018  -19.4036   19.1813 H   0  0  0  0  0  0
  -26.2909  -20.7586   19.0678 H   0  0  0  0  0  0
  -26.2717  -19.8129   20.5743 H   0  0  0  0  0  0
  -27.4937  -21.7324   20.5805 H   0  0  0  0  0  0
  -28.2019  -21.8048   18.9788 H   0  0  0  0  0  0
  -29.9188  -23.4696   19.8581 H   0  0  0  0  0  0
  -29.2052  -23.3685   21.4358 H   0  0  0  0  0  0
  -27.0730  -24.4728   20.5574 H   0  0  0  0  0  0
  -27.7575  -24.5594   18.9687 H   0  0  0  0  0  0
  -30.5678  -20.6858   21.6789 H   0  0  0  0  0  0
  1 25  1  0  0  0
  1 30  2  0  0  0
  1 82  1  0  0  0
  2  3  1  0  0  0
  2 25  1  0  0  0
  2 86  1  0  0  0
  2 87  1  0  0  0
  3  4  1  0  0  0
  3 88  1  0  0  0
  3 89  1  0  0  0
  4  5  1  0  0  0
  4 90  1  0  0  0
  4 91  1  0  0  0
  5  6  1  0  0  0
  5 26  1  0  0  0
  5 92  1  0  0  0
  6 25  1  0  0  0
  6 93  1  0  0  0
  6 94  1  0  0  0
  7  8  2  0  0  0
  7 26  1  0  0  0
  7 29  1  0  0  0
  8  9  1  0  0  0
  8 22  1  0  0  0
  9 10  1  0  0  0
  9 27  2  0  0  0
 10 11  2  0  0  0
 10 15  1  0  0  0
 11 12  1  0  0  0
 11 95  1  0  0  0
 12 13  2  0  0  0
 12 96  1  0  0  0
 13 14  1  0  0  0
 13 31  1  0  0  0
 14 15  2  0  0  0
 14 97  1  0  0  0
 15 98  1  0  0  0
 16 17  2  0  0  0
 16 21  1  0  0  0
 16 31  1  0  0  0
 17 18  1  0  0  0
 17 99  1  0  0  0
 18 19  2  0  0  0
 18100  1  0  0  0
 19 20  1  0  0  0
 19 24  1  0  0  0
 20 21  2  0  0  0
 20101  1  0  0  0
 21 23  1  0  0  0
 22 28  1  0  0  0
 22 32  2  0  0  0
 26 27  1  0  0  0
 28102  1  0  0  0
 28103  1  0  0  0
 29104  1  0  0  0
 29105  1  0  0  0
 33 34  1  0  0  0
 33 66  1  0  0  0
 33 70  2  0  0  0
 34 36  1  0  0  0
 34 59  1  0  0  0
 34106  1  0  0  0
 35 44  2  0  0  0
 35 45  1  0  0  0
 35 68  1  0  0  0
 36 56  1  0  0  0
 36107  1  0  0  0
 37 39  1  0  0  0
 37 47  1  0  0  0
 37 66  1  0  0  0
 37108  1  0  0  0
 38 43  2  0  0  0
 38 46  1  0  0  0
 38 47  1  0  0  0
 39 64  1  0  0  0
 39 67  2  0  0  0
 40 52  1  0  0  0
 40 53  2  0  0  0
 40 58  1  0  0  0
 41109  1  0  0  0
 41110  1  0  0  0
 41111  1  0  0  0
 41 48  1  0  0  0
 42 43  1  0  0  0
 42 66  1  0  0  0
 42112  1  0  0  0
 42113  1  0  0  0
 43 44  1  0  0  0
 44114  1  0  0  0
 45 46  2  0  0  0
 45115  1  0  0  0
 46116  1  0  0  0
 47117  1  0  0  0
 47118  1  0  0  0
 48 56  1  0  0  0
 48 65  1  0  0  0
 48119  1  0  0  0
 49 50  1  0  0  0
 49 53  1  0  0  0
 49 64  1  0  0  0
 49120  1  0  0  0
 50 51  1  0  0  0
 50121  1  0  0  0
 50122  1  0  0  0
 51 52  1  0  0  0
 51123  1  0  0  0
 51124  1  0  0  0
 52125  1  0  0  0
 52126  1  0  0  0
 53 54  1  0  0  0
 54 55  2  0  0  0
 54127  1  0  0  0
 55 57  1  0  0  0
 55128  1  0  0  0
 56 69  2  0  0  0
 57 58  2  0  0  0
 57129  1  0  0  0
 58130  1  0  0  0
 59 60  1  0  0  0
 59 61  1  0  0  0
 59 62  1  0  0  0
 60131  1  0  0  0
 60132  1  0  0  0
 60133  1  0  0  0
 61134  1  0  0  0
 61135  1  0  0  0
 61136  1  0  0  0
 62137  1  0  0  0
 62138  1  0  0  0
 62139  1  0  0  0
 63 65  1  0  0  0
 63140  1  0  0  0
 63141  1  0  0  0
 63142  1  0  0  0
 64143  1  0  0  0
 65144  1  0  0  0
 68 81  1  0  0  0
 71 72  2  0  0  0
 71 85  1  0  0  0
 71145  1  0  0  0
 72 82  1  0  0  0
 72 84  1  0  0  0
 73 79  1  0  0  0
 73 84  1  0  0  0
 73 85  2  0  0  0
 74146  1  0  0  0
 74147  1  0  0  0
 74148  1  0  0  0
 74 82  1  0  0  0
 75 82  1  0  0  0
 75149  1  0  0  0
 75150  1  0  0  0
 75151  1  0  0  0
 76152  1  0  0  0
 76153  1  0  0  0
 76154  1  0  0  0
 76 83  1  0  0  0
 77 83  1  0  0  0
 77155  1  0  0  0
 77156  1  0  0  0
 77157  1  0  0  0
 78 83  1  0  0  0
 78158  1  0  0  0
 78159  1  0  0  0
 78160  1  0  0  0
 79 80  1  0  0  0
 79161  1  0  0  0
 79162  1  0  0  0
 80 81  1  0  0  0
 80163  1  0  0  0
 80164  1  0  0  0
 81165  1  0  0  0
 81166  1  0  0  0
 83 84  1  0  0  0
 85167  1  0  0  0
M  CHG  1  85   1
M  ISO  4   1 100  68 101  81 101  82 100
M  END
> <chiral flag>
0

> <version>
0

> <s_m_source_file>
/data/baiqing/PycharmProjects/Reinvent-master-3.2/result/LINK_invent/BTK/process_docking_weight1_custom_sum_contain_oxygen_bond_distance_aromatic_linkinvent_7_9_3/rearranged_h_0076.sdf

> <i_m_source_file_index>
15

> <r_mmod_Potential_Energy-OPLS-2005>
845.188903808594

> <r_mmod_Stretch_Energy-OPLS-2005>
306.37548828125

> <r_mmod_Bend_Energy-OPLS-2005>
354.116302490234

> <r_mmod_Torsional_Energy-OPLS-2005>
321.771392822266

> <r_mmod_Improper_Torsional_Energy-OPLS-2005>
21.8137493133545

> <r_mmod_Van_der_Waal_Energy-OPLS-2005>
169.90071105957

> <r_mmod_Electrostatic_Energy-OPLS-2005>
-172.092636108398

> <r_mmod_Solvation_Energy-OPLS-2005>
-392.611633300781

> <b_mmod_Minimization_Converged-OPLS-2005>
0

> <r_mmod_RMS_Derivative-OPLS-2005>
3.03693127632141

$$$$
15
                    3D
 Structure written by MMmdl.
176184  0  0  1  0            999 V2000
  -30.6549  -14.6171   20.1213 C   0  0  0  0  0  0
  -30.4009  -12.3275   19.4000 C   0  0  0  0  0  0
  -29.4697  -12.3589   18.1794 C   0  0  0  0  0  0
  -27.9762  -12.3507   18.5961 C   0  0  0  0  0  0
  -27.6348  -13.1907   19.8740 C   0  0  2  0  0  0
  -28.7277  -13.1563   20.9520 C   0  0  0  0  0  0
  -25.2536  -13.8056   20.5753 C   0  0  0  0  0  0
  -24.1839  -13.0390   20.9131 C   0  0  0  0  0  0
  -24.6427  -11.6837   20.8828 C   0  0  0  0  0  0
  -23.9144  -10.4307   21.0502 C   0  0  0  0  0  0
  -24.3708   -9.4204   21.9262 C   0  0  0  0  0  0
  -23.6383   -8.2255   22.0805 C   0  0  0  0  0  0
  -22.4369   -8.0326   21.3592 C   0  0  0  0  0  0
  -22.0012   -9.0282   20.4682 C   0  0  0  0  0  0
  -22.7340  -10.2151   20.3113 C   0  0  0  0  0  0
  -21.6855   -6.0810   22.5287 C   0  0  0  0  0  0
  -21.3987   -6.5702   23.8218 C   0  0  0  0  0  0
  -21.3628   -5.6825   24.9183 C   0  0  0  0  0  0
  -21.6063   -4.3093   24.7200 C   0  0  0  0  0  0
  -21.8814   -3.8204   23.4308 C   0  0  0  0  0  0
  -21.9203   -4.7060   22.3400 C   0  0  0  0  0  0
  -22.7868  -13.5143   21.1755 C   0  0  0  0  0  0
  -22.1694   -4.2291   21.0983 F   0  0  0  0  0  0
  -21.5612   -3.4557   25.7680 F   0  0  0  0  0  0
  -29.9953  -13.4362   20.2639 N   0  0  0  0  0  0
  -26.2987  -12.9203   20.3572 N   0  0  0  0  0  0
  -25.9333  -11.6373   20.5891 N   0  0  0  0  0  0
  -22.0561  -12.8165   22.0325 N   0  0  0  0  0  0
  -25.3997  -15.1839   20.4186 N   0  0  0  0  0  0
  -31.8634  -14.6093   20.3570 O   0  0  0  0  0  0
  -21.6693   -6.8969   21.4256 O   0  0  0  0  0  0
  -22.3585  -14.5492   20.6623 O   0  0  0  0  0  0
  -24.6066  -31.8741   23.2064 C   0  0  0  0  0  0
  -25.8991  -32.4821   23.8366 C   0  0  1  0  0  0
  -27.2130  -27.4574   20.0666 C   0  0  0  0  0  0
  -25.5909  -33.8627   24.2287 N   0  0  0  0  0  0
  -23.3912  -30.5029   21.5477 C   0  0  2  0  0  0
  -24.8246  -28.9788   20.0991 C   0  0  0  0  0  0
  -22.7360  -29.4764   22.5036 C   0  0  0  0  0  0
  -18.0277  -28.1354   22.8439 C   0  0  0  0  0  0
  -24.1532  -36.7292   23.2648 C   0  0  0  0  0  0
  -25.9220  -30.8375   21.3659 C   0  0  0  0  0  0
  -25.9842  -29.4822   20.7012 C   0  0  0  0  0  0
  -27.1735  -28.7230   20.6848 C   0  0  0  0  0  0
  -26.0287  -26.9616   19.4626 C   0  0  0  0  0  0
  -24.8451  -27.7184   19.4842 C   0  0  0  0  0  0
  -23.5796  -29.8340   20.1618 C   0  0  0  0  0  0
  -25.4177  -36.3086   24.0313 C   0  0  1  0  0  0
  -20.5862  -28.3658   23.1337 C   0  0  2  0  0  0
  -20.6851  -26.9430   22.5414 C   0  0  0  0  0  0
  -19.5834  -26.6367   21.5219 C   0  0  0  0  0  0
  -18.1963  -26.7897   22.1558 C   0  0  0  0  0  0
  -19.1527  -28.8836   23.2858 C   0  0  0  0  0  0
  -18.9463  -30.1424   23.8868 C   0  0  0  0  0  0
  -17.6473  -30.6572   24.0562 C   0  0  0  0  0  0
  -25.9094  -34.9460   23.5119 C   0  0  0  0  0  0
  -16.5367  -29.9059   23.6365 C   0  0  0  0  0  0
  -16.7256  -28.6494   23.0361 C   0  0  0  0  0  0
  -26.4413  -31.6615   25.0721 C   0  0  0  0  0  0
  -25.3638  -31.3657   26.1462 C   0  0  0  0  0  0
  -27.0234  -30.3065   24.6047 C   0  0  0  0  0  0
  -27.5978  -32.4436   25.7428 C   0  0  0  0  0  0
  -27.5624  -37.1806   24.8462 C   0  0  0  0  0  0
  -21.4121  -29.3029   22.3736 N   0  0  0  0  0  0
  -26.4355  -37.3780   23.9380 N   0  0  0  0  0  0
  -24.6571  -31.0891   22.0933 N   0  0  0  0  0  0
  -23.4206  -28.8336   23.3074 O   0  0  0  0  0  0
  -28.4150  -26.7834   20.0808 O   0  0  0  0  0  0
  -26.5645  -34.8886   22.4662 O   0  0  0  0  0  0
  -23.5296  -32.1528   23.7501 O   0  0  0  0  0  0
  -28.8022  -19.3220   20.9249 C   0  0  0  0  0  0
  -29.2616  -20.6119   21.0055 C   0  0  0  0  0  0
  -30.7487  -19.3865   19.8568 C   0  0  0  0  0  0
  -33.2842  -19.1246   19.9659 C   0  0  0  0  0  0
  -32.2795  -20.6967   18.2803 C   0  0  0  0  0  0
  -29.1734  -15.7467   18.0420 C   0  0  0  0  0  0
  -31.3868  -16.3168   18.4590 C   0  0  0  0  0  0
  -29.3881  -24.9410   22.0740 C   0  0  0  0  0  0
  -26.9813  -24.4778   21.5601 C   0  0  0  0  0  0
  -28.7296  -21.8959   21.5854 C   0  0  0  0  0  0
  -28.7987  -23.0352   20.5346 C   0  0  0  0  0  0
  -29.5458  -17.0059   20.2887 C   0  0  0  0  0  0
  -28.4911  -25.3972   19.7356 C   0  0  0  0  0  0
  -32.0579  -19.3770   19.0753 C   0  0  0  0  0  0
  -30.1441  -15.9114   19.2840 C   0  0  0  0  0  0
  -28.4058  -24.4658   20.9830 C   0  0  0  0  0  0
  -29.7457  -18.5326   20.2696 N   0  0  0  0  0  0
  -30.4833  -20.5638   20.4256 N   0  3  0  0  0  0
  -31.4419  -12.4087   19.0733 H   0  0  0  0  0  0
  -30.3118  -11.3834   19.9297 H   0  0  0  0  0  0
  -29.6902  -11.5072   17.5337 H   0  0  0  0  0  0
  -29.7029  -13.2143   17.5539 H   0  0  0  0  0  0
  -27.6957  -11.3045   18.7461 H   0  0  0  0  0  0
  -27.3549  -12.6989   17.7656 H   0  0  0  0  0  0
  -27.5890  -14.2302   19.6248 H   0  0  0  0  0  0
  -28.7817  -12.1939   21.4612 H   0  0  0  0  0  0
  -28.5430  -13.8968   21.7324 H   0  0  0  0  0  0
  -25.2814   -9.5725   22.4906 H   0  0  0  0  0  0
  -24.0101   -7.4659   22.7535 H   0  0  0  0  0  0
  -21.0942   -8.8840   19.8981 H   0  0  0  0  0  0
  -22.3800  -10.9778   19.6317 H   0  0  0  0  0  0
  -21.1945   -7.6205   23.9766 H   0  0  0  0  0  0
  -21.1433   -6.0552   25.9087 H   0  0  0  0  0  0
  -22.0591   -2.7690   23.2735 H   0  0  0  0  0  0
  -22.4139  -11.9749   22.4678 H   0  0  0  0  0  0
  -21.1170  -13.1201   22.2535 H   0  0  0  0  0  0
  -24.5854  -15.7788   20.5390 H   0  0  0  0  0  0
  -26.2144  -15.6873   20.0899 H   0  0  0  0  0  0
  -26.7032  -32.5490   23.1087 H   0  0  0  0  0  0
  -25.0149  -33.9821   25.0491 H   0  0  0  0  0  0
  -22.6764  -31.3182   21.4131 H   0  0  0  0  0  0
  -23.3791  -35.9625   23.3320 H   0  0  0  0  0  0
  -24.3639  -36.8921   22.2059 H   0  0  0  0  0  0
  -23.7309  -37.6499   23.6695 H   0  0  0  0  0  0
  -26.0802  -31.6172   20.6221 H   0  0  0  0  0  0
  -26.7915  -30.8510   22.0084 H   0  0  0  0  0  0
  -28.0650  -29.1194   21.1468 H   0  0  0  0  0  0
  -25.9752  -26.0126   18.9569 H   0  0  0  0  0  0
  -23.9498  -27.3436   19.0032 H   0  0  0  0  0  0
  -23.6270  -30.6046   19.3916 H   0  0  0  0  0  0
  -22.7076  -29.2289   19.9024 H   0  0  0  0  0  0
  -25.1355  -36.1956   25.0809 H   0  0  0  0  0  0
  -20.9900  -28.3184   24.1464 H   0  0  0  0  0  0
  -20.5946  -26.2202   23.3529 H   0  0  0  0  0  0
  -21.6703  -26.7585   22.1102 H   0  0  0  0  0  0
  -19.7108  -25.6281   21.1235 H   0  0  0  0  0  0
  -19.6847  -27.3177   20.6742 H   0  0  0  0  0  0
  -17.4299  -26.6646   21.3881 H   0  0  0  0  0  0
  -18.0326  -26.0031   22.8922 H   0  0  0  0  0  0
  -19.7968  -30.7246   24.2218 H   0  0  0  0  0  0
  -17.5051  -31.6263   24.5129 H   0  0  0  0  0  0
  -15.5376  -30.2972   23.7780 H   0  0  0  0  0  0
  -15.8618  -28.0830   22.7110 H   0  0  0  0  0  0
  -24.5928  -30.6858   25.7819 H   0  0  0  0  0  0
  -24.8615  -32.2703   26.4878 H   0  0  0  0  0  0
  -25.7994  -30.8931   27.0267 H   0  0  0  0  0  0
  -26.2673  -29.6855   24.1225 H   0  0  0  0  0  0
  -27.4143  -29.7321   25.4453 H   0  0  0  0  0  0
  -27.8466  -30.4401   23.9031 H   0  0  0  0  0  0
  -27.2583  -33.3832   26.1819 H   0  0  0  0  0  0
  -28.3786  -32.6940   25.0217 H   0  0  0  0  0  0
  -28.0610  -31.8699   26.5456 H   0  0  0  0  0  0
  -28.2615  -38.0130   24.7611 H   0  0  0  0  0  0
  -28.1159  -36.2684   24.6209 H   0  0  0  0  0  0
  -27.2324  -37.1342   25.8850 H   0  0  0  0  0  0
  -20.9307  -29.8565   21.6785 H   0  0  0  0  0  0
  -26.0237  -38.2871   24.1320 H   0  0  0  0  0  0
  -27.8821  -18.9318   21.3408 H   0  0  0  0  0  0
  -33.2487  -18.1435   20.4384 H   0  0  0  0  0  0
  -33.3749  -19.8773   20.7506 H   0  0  0  0  0  0
  -34.2021  -19.1723   19.3758 H   0  0  0  0  0  0
  -31.4466  -20.9137   17.6084 H   0  0  0  0  0  0
  -33.1733  -20.6323   17.6538 H   0  0  0  0  0  0
  -32.4275  -21.5668   18.9225 H   0  0  0  0  0  0
  -28.8843  -16.7238   17.6429 H   0  0  0  0  0  0
  -28.2208  -15.2644   18.1653 H   0  0  0  0  0  0
  -29.6448  -15.2705   17.1786 H   0  0  0  0  0  0
  -31.1443  -16.9985   17.6442 H   0  0  0  0  0  0
  -31.7929  -15.4466   17.9365 H   0  0  0  0  0  0
  -32.2023  -16.6949   19.0617 H   0  0  0  0  0  0
  -29.3518  -24.3114   22.9631 H   0  0  0  0  0  0
  -29.1625  -25.9535   22.4093 H   0  0  0  0  0  0
  -30.4136  -24.9317   21.7073 H   0  0  0  0  0  0
  -26.9533  -24.0017   22.5398 H   0  0  0  0  0  0
  -26.2868  -23.9647   20.8953 H   0  0  0  0  0  0
  -26.6094  -25.4912   21.7015 H   0  0  0  0  0  0
  -29.3277  -22.1366   22.4681 H   0  0  0  0  0  0
  -27.7060  -21.7478   21.9327 H   0  0  0  0  0  0
  -28.1960  -22.7342   19.6761 H   0  0  0  0  0  0
  -29.8230  -23.0959   20.1690 H   0  0  0  0  0  0
  -29.7439  -16.7108   21.3234 H   0  0  0  0  0  0
  -28.4605  -16.8566   20.2396 H   0  0  0  0  0  0
  -27.7792  -25.1003   18.9720 H   0  0  0  0  0  0
  -29.4577  -25.2759   19.2385 H   0  0  0  0  0  0
  -32.0141  -18.6565   18.2824 H   0  0  0  0  0  0
  -31.1482  -21.3295   20.4054 H   0  0  0  0  0  0
  1 25  1  0  0  0
  1 30  2  0  0  0
  1 85  1  0  0  0
  2  3  1  0  0  0
  2 25  1  0  0  0
  2 89  1  0  0  0
  2 90  1  0  0  0
  3  4  1  0  0  0
  3 91  1  0  0  0
  3 92  1  0  0  0
  4  5  1  0  0  0
  4 93  1  0  0  0
  4 94  1  0  0  0
  5  6  1  0  0  0
  5 26  1  0  0  0
  5 95  1  0  0  0
  6 25  1  0  0  0
  6 96  1  0  0  0
  6 97  1  0  0  0
  7  8  2  0  0  0
  7 26  1  0  0  0
  7 29  1  0  0  0
  8  9  1  0  0  0
  8 22  1  0  0  0
  9 10  1  0  0  0
  9 27  2  0  0  0
 10 11  2  0  0  0
 10 15  1  0  0  0
 11 12  1  0  0  0
 11 98  1  0  0  0
 12 13  2  0  0  0
 12 99  1  0  0  0
 13 14  1  0  0  0
 13 31  1  0  0  0
 14 15  2  0  0  0
 14100  1  0  0  0
 15101  1  0  0  0
 16 17  2  0  0  0
 16 21  1  0  0  0
 16 31  1  0  0  0
 17 18  1  0  0  0
 17102  1  0  0  0
 18 19  2  0  0  0
 18103  1  0  0  0
 19 20  1  0  0  0
 19 24  1  0  0  0
 20 21  2  0  0  0
 20104  1  0  0  0
 21 23  1  0  0  0
 22 28  1  0  0  0
 22 32  2  0  0  0
 26 27  1  0  0  0
 28105  1  0  0  0
 28106  1  0  0  0
 29107  1  0  0  0
 29108  1  0  0  0
 33 34  1  0  0  0
 33 66  1  0  0  0
 33 70  2  0  0  0
 34 36  1  0  0  0
 34 59  1  0  0  0
 34109  1  0  0  0
 35 44  2  0  0  0
 35 45  1  0  0  0
 35 68  1  0  0  0
 36 56  1  0  0  0
 36110  1  0  0  0
 37 39  1  0  0  0
 37 47  1  0  0  0
 37 66  1  0  0  0
 37111  1  0  0  0
 38 43  2  0  0  0
 38 46  1  0  0  0
 38 47  1  0  0  0
 39 64  1  0  0  0
 39 67  2  0  0  0
 40 52  1  0  0  0
 40 53  2  0  0  0
 40 58  1  0  0  0
 41112  1  0  0  0
 41113  1  0  0  0
 41114  1  0  0  0
 41 48  1  0  0  0
 42 43  1  0  0  0
 42 66  1  0  0  0
 42115  1  0  0  0
 42116  1  0  0  0
 43 44  1  0  0  0
 44117  1  0  0  0
 45 46  2  0  0  0
 45118  1  0  0  0
 46119  1  0  0  0
 47120  1  0  0  0
 47121  1  0  0  0
 48 56  1  0  0  0
 48 65  1  0  0  0
 48122  1  0  0  0
 49 50  1  0  0  0
 49 53  1  0  0  0
 49 64  1  0  0  0
 49123  1  0  0  0
 50 51  1  0  0  0
 50124  1  0  0  0
 50125  1  0  0  0
 51 52  1  0  0  0
 51126  1  0  0  0
 51127  1  0  0  0
 52128  1  0  0  0
 52129  1  0  0  0
 53 54  1  0  0  0
 54 55  2  0  0  0
 54130  1  0  0  0
 55 57  1  0  0  0
 55131  1  0  0  0
 56 69  2  0  0  0
 57 58  2  0  0  0
 57132  1  0  0  0
 58133  1  0  0  0
 59 60  1  0  0  0
 59 61  1  0  0  0
 59 62  1  0  0  0
 60134  1  0  0  0
 60135  1  0  0  0
 60136  1  0  0  0
 61137  1  0  0  0
 61138  1  0  0  0
 61139  1  0  0  0
 62140  1  0  0  0
 62141  1  0  0  0
 62142  1  0  0  0
 63 65  1  0  0  0
 63143  1  0  0  0
 63144  1  0  0  0
 63145  1  0  0  0
 64146  1  0  0  0
 65147  1  0  0  0
 68 83  1  0  0  0
 71 72  2  0  0  0
 71 87  1  0  0  0
 71148  1  0  0  0
 72 80  1  0  0  0
 72 88  1  0  0  0
 73 84  1  0  0  0
 73 87  1  0  0  0
 73 88  2  0  0  0
 74149  1  0  0  0
 74150  1  0  0  0
 74151  1  0  0  0
 74 84  1  0  0  0
 75 84  1  0  0  0
 75152  1  0  0  0
 75153  1  0  0  0
 75154  1  0  0  0
 76155  1  0  0  0
 76156  1  0  0  0
 76157  1  0  0  0
 76 85  1  0  0  0
 77 85  1  0  0  0
 77158  1  0  0  0
 77159  1  0  0  0
 77160  1  0  0  0
 78161  1  0  0  0
 78162  1  0  0  0
 78163  1  0  0  0
 78 86  1  0  0  0
 79 86  1  0  0  0
 79164  1  0  0  0
 79165  1  0  0  0
 79166  1  0  0  0
 80 81  1  0  0  0
 80167  1  0  0  0
 80168  1  0  0  0
 81 86  1  0  0  0
 81169  1  0  0  0
 81170  1  0  0  0
 82 85  1  0  0  0
 82 87  1  0  0  0
 82171  1  0  0  0
 82172  1  0  0  0
 83 86  1  0  0  0
 83173  1  0  0  0
 83174  1  0  0  0
 84175  1  0  0  0
 88176  1  0  0  0
M  CHG  1  88   1
M  ISO  4   1 100  68 101  83 101  85 100
M  END
> <chiral flag>
0

> <version>
0

> <s_m_source_file>
/data/baiqing/PycharmProjects/Reinvent-master-3.2/result/LINK_invent/BTK/process_docking_weight1_custom_sum_contain_oxygen_bond_distance_aromatic_linkinvent_7_9_3/rearranged_h_0076.sdf

> <i_m_source_file_index>
16

> <r_mmod_Potential_Energy-OPLS-2005>
348.903350830078

> <r_mmod_Stretch_Energy-OPLS-2005>
74.7853317260742

> <r_mmod_Bend_Energy-OPLS-2005>
271.216796875

> <r_mmod_Torsional_Energy-OPLS-2005>
287.013519287109

> <r_mmod_Improper_Torsional_Energy-OPLS-2005>
11.7255086898804

> <r_mmod_Van_der_Waal_Energy-OPLS-2005>
175.618743896484

> <r_mmod_Electrostatic_Energy-OPLS-2005>
-168.703811645508

> <r_mmod_Solvation_Energy-OPLS-2005>
-377.291778564453

> <b_mmod_Minimization_Converged-OPLS-2005>
0

> <r_mmod_RMS_Derivative-OPLS-2005>
10.7336549758911

$$$$
16
                    3D
 Structure written by MMmdl.
171179  0  0  1  0            999 V2000
  -30.9164  -14.2348   20.7861 C   0  0  0  0  0  0
  -30.3971  -12.2805   19.3907 C   0  0  0  0  0  0
  -29.4758  -12.5489   18.1902 C   0  0  0  0  0  0
  -28.0087  -12.3699   18.6016 C   0  0  0  0  0  0
  -27.6597  -13.2155   19.8448 C   0  0  2  0  0  0
  -28.6885  -13.0471   20.9807 C   0  0  0  0  0  0
  -25.2589  -13.8190   20.5624 C   0  0  0  0  0  0
  -24.1863  -13.0455   20.9164 C   0  0  0  0  0  0
  -24.6444  -11.6927   20.8716 C   0  0  0  0  0  0
  -23.9112  -10.4311   21.0406 C   0  0  0  0  0  0
  -24.3647   -9.4220   21.9191 C   0  0  0  0  0  0
  -23.6300   -8.2261   22.0766 C   0  0  0  0  0  0
  -22.4283   -8.0308   21.3560 C   0  0  0  0  0  0
  -21.9932   -9.0292   20.4661 C   0  0  0  0  0  0
  -22.7281  -10.2159   20.3057 C   0  0  0  0  0  0
  -21.6860   -6.0738   22.5276 C   0  0  0  0  0  0
  -21.4025   -6.5639   23.8211 C   0  0  0  0  0  0
  -21.3662   -5.6790   24.9168 C   0  0  0  0  0  0
  -21.6040   -4.3051   24.7219 C   0  0  0  0  0  0
  -21.8822   -3.8151   23.4340 C   0  0  0  0  0  0
  -21.9205   -4.6966   22.3399 C   0  0  0  0  0  0
  -22.7890  -13.5242   21.1857 C   0  0  0  0  0  0
  -22.1671   -4.2153   21.0972 F   0  0  0  0  0  0
  -21.5631   -3.4536   25.7729 F   0  0  0  0  0  0
  -30.0760  -13.2020   20.4958 N   0  0  0  0  0  0
  -26.3015  -12.9388   20.3171 N   0  0  0  0  0  0
  -25.9357  -11.6543   20.5648 N   0  0  0  0  0  0
  -22.0517  -12.8237   22.0404 N   0  0  0  0  0  0
  -25.4302  -15.1906   20.4092 N   0  0  0  0  0  0
  -31.6603  -14.7079   19.9208 O   0  0  0  0  0  0
  -21.6649   -6.8894   21.4250 O   0  0  0  0  0  0
  -22.3565  -14.5555   20.6712 O   0  0  0  0  0  0
  -24.6097  -31.8679   23.2098 C   0  0  0  0  0  0
  -25.9003  -32.4806   23.8384 C   0  0  1  0  0  0
  -27.2369  -27.4603   20.0972 C   0  0  0  0  0  0
  -25.5876  -33.8610   24.2318 N   0  0  0  0  0  0
  -23.3955  -30.4913   21.5496 C   0  0  2  0  0  0
  -24.8430  -28.9542   20.1174 C   0  0  0  0  0  0
  -22.7371  -29.4657   22.4990 C   0  0  0  0  0  0
  -18.0270  -28.1346   22.8458 C   0  0  0  0  0  0
  -24.1479  -36.7330   23.2632 C   0  0  0  0  0  0
  -25.9214  -30.8413   21.3587 C   0  0  0  0  0  0
  -26.0003  -29.4767   20.7085 C   0  0  0  0  0  0
  -27.2025  -28.7377   20.6927 C   0  0  0  0  0  0
  -26.0648  -26.9401   19.5065 C   0  0  0  0  0  0
  -24.8673  -27.6827   19.5155 C   0  0  0  0  0  0
  -23.6018  -29.8168   20.1655 C   0  0  0  0  0  0
  -25.4097  -36.3101   24.0330 C   0  0  1  0  0  0
  -20.5854  -28.3639   23.1298 C   0  0  2  0  0  0
  -20.6762  -26.9374   22.5399 C   0  0  0  0  0  0
  -19.5761  -26.6364   21.5171 C   0  0  0  0  0  0
  -18.1938  -26.7892   22.1579 C   0  0  0  0  0  0
  -19.1518  -28.8811   23.2873 C   0  0  0  0  0  0
  -18.9453  -30.1420   23.8864 C   0  0  0  0  0  0
  -17.6452  -30.6548   24.0553 C   0  0  0  0  0  0
  -25.9021  -34.9462   23.5123 C   0  0  0  0  0  0
  -16.5351  -29.9053   23.6310 C   0  0  0  0  0  0
  -16.7264  -28.6486   23.0302 C   0  0  0  0  0  0
  -26.4452  -31.6581   25.0700 C   0  0  0  0  0  0
  -25.3734  -31.3678   26.1461 C   0  0  0  0  0  0
  -27.0312  -30.3034   24.6067 C   0  0  0  0  0  0
  -27.6024  -32.4309   25.7464 C   0  0  0  0  0  0
  -27.5578  -37.1808   24.8457 C   0  0  0  0  0  0
  -21.4114  -29.3012   22.3709 N   0  0  0  0  0  0
  -26.4289  -37.3781   23.9402 N   0  0  0  0  0  0
  -24.6598  -31.0797   22.0983 N   0  0  0  0  0  0
  -23.4153  -28.8201   23.3019 O   0  0  0  0  0  0
  -28.4166  -26.7581   20.0621 O   0  0  0  0  0  0
  -26.5587  -34.8906   22.4683 O   0  0  0  0  0  0
  -23.5294  -32.1455   23.7509 O   0  0  0  0  0  0
  -30.7201  -19.6993   20.2062 C   0  0  0  0  0  0
  -31.8676  -21.2736   21.1688 C   0  0  0  0  0  0
  -31.7125  -19.1327   20.9794 C   0  0  0  0  0  0
  -33.5367  -17.5242   20.4717 C   0  0  0  0  0  0
  -32.8840  -17.6266   23.5378 C   0  0  0  0  0  0
  -30.4840  -17.2467   22.9990 C   0  0  0  0  0  0
  -30.7011  -13.7095   23.2378 C   0  0  0  0  0  0
  -29.4235  -23.1293   20.5188 C   0  0  0  0  0  0
  -29.1255  -24.4562   19.7970 C   0  0  0  0  0  0
  -30.1150  -22.1063   19.5973 C   0  0  0  0  0  0
  -32.2379  -15.4639   22.4801 C   0  0  0  0  0  0
  -28.3968  -25.4737   20.6843 C   0  0  0  0  0  0
  -32.1234  -17.6760   21.0813 C   0  0  1  0  0  0
  -31.9261  -17.0023   22.4940 C   0  0  0  0  0  0
  -32.4354  -20.1548   21.5985 N   0  0  0  0  0  0
  -30.8483  -21.0809   20.3208 N   0  0  0  0  0  0
  -31.1322  -14.5465   22.1000 N   0  0  0  0  0  0
  -31.4417  -12.3554   19.0815 H   0  0  0  0  0  0
  -30.2712  -11.2530   19.7350 H   0  0  0  0  0  0
  -29.7164  -11.8734   17.3685 H   0  0  0  0  0  0
  -29.6381  -13.5607   17.8142 H   0  0  0  0  0  0
  -27.8364  -11.3143   18.8066 H   0  0  0  0  0  0
  -27.3519  -12.6369   17.7728 H   0  0  0  0  0  0
  -27.6953  -14.2577   19.5280 H   0  0  0  0  0  0
  -28.5796  -12.0777   21.4691 H   0  0  0  0  0  0
  -28.4253  -13.8142   21.7069 H   0  0  0  0  0  0
  -25.2795   -9.5671   22.4771 H   0  0  0  0  0  0
  -24.0001   -7.4646   22.7489 H   0  0  0  0  0  0
  -21.0861   -8.8830   19.8972 H   0  0  0  0  0  0
  -22.3758  -10.9703   19.6159 H   0  0  0  0  0  0
  -21.2019   -7.6150   23.9710 H   0  0  0  0  0  0
  -21.1480   -6.0518   25.9066 H   0  0  0  0  0  0
  -22.0606   -2.7617   23.2833 H   0  0  0  0  0  0
  -22.4127  -11.9892   22.4790 H   0  0  0  0  0  0
  -21.1141  -13.1280   22.2619 H   0  0  0  0  0  0
  -24.6703  -15.8500   20.5377 H   0  0  0  0  0  0
  -26.2907  -15.6316   20.1065 H   0  0  0  0  0  0
  -26.7066  -32.5525   23.1146 H   0  0  0  0  0  0
  -25.0031  -33.9780   25.0460 H   0  0  0  0  0  0
  -22.6828  -31.3068   21.4076 H   0  0  0  0  0  0
  -23.3715  -35.9685   23.3299 H   0  0  0  0  0  0
  -24.3582  -36.8960   22.2047 H   0  0  0  0  0  0
  -23.7271  -37.6548   23.6661 H   0  0  0  0  0  0
  -26.0279  -31.6054   20.5874 H   0  0  0  0  0  0
  -26.8110  -30.8986   21.9740 H   0  0  0  0  0  0
  -28.1007  -29.1400   21.1411 H   0  0  0  0  0  0
  -26.0801  -25.9663   19.0374 H   0  0  0  0  0  0
  -23.9765  -27.2724   19.0592 H   0  0  0  0  0  0
  -23.7048  -30.5879   19.4022 H   0  0  0  0  0  0
  -22.7277  -29.2327   19.8717 H   0  0  0  0  0  0
  -25.1272  -36.1960   25.0827 H   0  0  0  0  0  0
  -20.9949  -28.3218   24.1417 H   0  0  0  0  0  0
  -20.5640  -26.2248   23.3588 H   0  0  0  0  0  0
  -21.6642  -26.7419   22.1210 H   0  0  0  0  0  0
  -19.6936  -25.6276   21.1197 H   0  0  0  0  0  0
  -19.6698  -27.3163   20.6690 H   0  0  0  0  0  0
  -17.4201  -26.6601   21.3985 H   0  0  0  0  0  0
  -18.0374  -26.0030   22.8975 H   0  0  0  0  0  0
  -19.7939  -30.7242   24.2204 H   0  0  0  0  0  0
  -17.5020  -31.6220   24.5163 H   0  0  0  0  0  0
  -15.5353  -30.2943   23.7656 H   0  0  0  0  0  0
  -15.8668  -28.0827   22.6972 H   0  0  0  0  0  0
  -24.5891  -30.7030   25.7819 H   0  0  0  0  0  0
  -24.8916  -32.2824   26.4919 H   0  0  0  0  0  0
  -25.8086  -30.8846   27.0217 H   0  0  0  0  0  0
  -26.2870  -29.6765   24.1132 H   0  0  0  0  0  0
  -27.4132  -29.7286   25.4512 H   0  0  0  0  0  0
  -27.8661  -30.4371   23.9187 H   0  0  0  0  0  0
  -27.2637  -33.3598   26.2056 H   0  0  0  0  0  0
  -28.3810  -32.6891   25.0281 H   0  0  0  0  0  0
  -28.0704  -31.8429   26.5368 H   0  0  0  0  0  0
  -28.2576  -38.0121   24.7514 H   0  0  0  0  0  0
  -28.1102  -36.2654   24.6268 H   0  0  0  0  0  0
  -27.2310  -37.1448   25.8865 H   0  0  0  0  0  0
  -20.9268  -29.8750   21.6946 H   0  0  0  0  0  0
  -26.0175  -38.2859   24.1391 H   0  0  0  0  0  0
  -29.9860  -19.2424   19.5552 H   0  0  0  0  0  0
  -32.2283  -22.2544   21.4463 H   0  0  0  0  0  0
  -33.5750  -17.9877   19.4857 H   0  0  0  0  0  0
  -33.8341  -16.4890   20.3298 H   0  0  0  0  0  0
  -34.2964  -18.0142   21.0796 H   0  0  0  0  0  0
  -32.7509  -17.1739   24.5213 H   0  0  0  0  0  0
  -32.7064  -18.6918   23.6726 H   0  0  0  0  0  0
  -33.9323  -17.4968   23.2691 H   0  0  0  0  0  0
  -30.2810  -16.6925   23.9171 H   0  0  0  0  0  0
  -29.7447  -16.9423   22.2597 H   0  0  0  0  0  0
  -30.3006  -18.3014   23.2113 H   0  0  0  0  0  0
  -31.0053  -14.1094   24.2061 H   0  0  0  0  0  0
  -31.1293  -12.7085   23.1538 H   0  0  0  0  0  0
  -29.6254  -13.6239   23.3320 H   0  0  0  0  0  0
  -28.5014  -22.6970   20.9076 H   0  0  0  0  0  0
  -30.0465  -23.3437   21.3885 H   0  0  0  0  0  0
  -28.5280  -24.2685   18.9046 H   0  0  0  0  0  0
  -30.0644  -24.8904   19.4527 H   0  0  0  0  0  0
  -30.8319  -22.6114   18.9492 H   0  0  0  0  0  0
  -29.3859  -21.6334   18.9391 H   0  0  0  0  0  0
  -32.6123  -15.1844   23.4653 H   0  0  0  0  0  0
  -33.1157  -15.2405   21.8767 H   0  0  0  0  0  0
  -28.9068  -25.5680   21.6430 H   0  0  0  0  0  0
  -27.3906  -25.1146   20.9048 H   0  0  0  0  0  0
  -31.4618  -17.1420   20.4024 H   0  0  0  0  0  0
  1 25  1  0  0  0
  1 30  2  0  0  0
  1 87  1  0  0  0
  2  3  1  0  0  0
  2 25  1  0  0  0
  2 88  1  0  0  0
  2 89  1  0  0  0
  3  4  1  0  0  0
  3 90  1  0  0  0
  3 91  1  0  0  0
  4  5  1  0  0  0
  4 92  1  0  0  0
  4 93  1  0  0  0
  5  6  1  0  0  0
  5 26  1  0  0  0
  5 94  1  0  0  0
  6 25  1  0  0  0
  6 95  1  0  0  0
  6 96  1  0  0  0
  7  8  2  0  0  0
  7 26  1  0  0  0
  7 29  1  0  0  0
  8  9  1  0  0  0
  8 22  1  0  0  0
  9 10  1  0  0  0
  9 27  2  0  0  0
 10 11  2  0  0  0
 10 15  1  0  0  0
 11 12  1  0  0  0
 11 97  1  0  0  0
 12 13  2  0  0  0
 12 98  1  0  0  0
 13 14  1  0  0  0
 13 31  1  0  0  0
 14 15  2  0  0  0
 14 99  1  0  0  0
 15100  1  0  0  0
 16 17  2  0  0  0
 16 21  1  0  0  0
 16 31  1  0  0  0
 17 18  1  0  0  0
 17101  1  0  0  0
 18 19  2  0  0  0
 18102  1  0  0  0
 19 20  1  0  0  0
 19 24  1  0  0  0
 20 21  2  0  0  0
 20103  1  0  0  0
 21 23  1  0  0  0
 22 28  1  0  0  0
 22 32  2  0  0  0
 26 27  1  0  0  0
 28104  1  0  0  0
 28105  1  0  0  0
 29106  1  0  0  0
 29107  1  0  0  0
 33 34  1  0  0  0
 33 66  1  0  0  0
 33 70  2  0  0  0
 34 36  1  0  0  0
 34 59  1  0  0  0
 34108  1  0  0  0
 35 44  2  0  0  0
 35 45  1  0  0  0
 35 68  1  0  0  0
 36 56  1  0  0  0
 36109  1  0  0  0
 37 39  1  0  0  0
 37 47  1  0  0  0
 37 66  1  0  0  0
 37110  1  0  0  0
 38 43  2  0  0  0
 38 46  1  0  0  0
 38 47  1  0  0  0
 39 64  1  0  0  0
 39 67  2  0  0  0
 40 52  1  0  0  0
 40 53  2  0  0  0
 40 58  1  0  0  0
 41111  1  0  0  0
 41112  1  0  0  0
 41113  1  0  0  0
 41 48  1  0  0  0
 42 43  1  0  0  0
 42 66  1  0  0  0
 42114  1  0  0  0
 42115  1  0  0  0
 43 44  1  0  0  0
 44116  1  0  0  0
 45 46  2  0  0  0
 45117  1  0  0  0
 46118  1  0  0  0
 47119  1  0  0  0
 47120  1  0  0  0
 48 56  1  0  0  0
 48 65  1  0  0  0
 48121  1  0  0  0
 49 50  1  0  0  0
 49 53  1  0  0  0
 49 64  1  0  0  0
 49122  1  0  0  0
 50 51  1  0  0  0
 50123  1  0  0  0
 50124  1  0  0  0
 51 52  1  0  0  0
 51125  1  0  0  0
 51126  1  0  0  0
 52127  1  0  0  0
 52128  1  0  0  0
 53 54  1  0  0  0
 54 55  2  0  0  0
 54129  1  0  0  0
 55 57  1  0  0  0
 55130  1  0  0  0
 56 69  2  0  0  0
 57 58  2  0  0  0
 57131  1  0  0  0
 58132  1  0  0  0
 59 60  1  0  0  0
 59 61  1  0  0  0
 59 62  1  0  0  0
 60133  1  0  0  0
 60134  1  0  0  0
 60135  1  0  0  0
 61136  1  0  0  0
 61137  1  0  0  0
 61138  1  0  0  0
 62139  1  0  0  0
 62140  1  0  0  0
 62141  1  0  0  0
 63 65  1  0  0  0
 63142  1  0  0  0
 63143  1  0  0  0
 63144  1  0  0  0
 64145  1  0  0  0
 65146  1  0  0  0
 68 82  1  0  0  0
 71 73  2  0  0  0
 71 86  1  0  0  0
 71147  1  0  0  0
 72 85  2  0  0  0
 72 86  1  0  0  0
 72148  1  0  0  0
 73 83  1  0  0  0
 73 85  1  0  0  0
 74149  1  0  0  0
 74150  1  0  0  0
 74151  1  0  0  0
 74 83  1  0  0  0
 75152  1  0  0  0
 75153  1  0  0  0
 75154  1  0  0  0
 75 84  1  0  0  0
 76 84  1  0  0  0
 76155  1  0  0  0
 76156  1  0  0  0
 76157  1  0  0  0
 77 87  1  0  0  0
 77158  1  0  0  0
 77159  1  0  0  0
 77160  1  0  0  0
 78 79  1  0  0  0
 78 80  1  0  0  0
 78161  1  0  0  0
 78162  1  0  0  0
 79 82  1  0  0  0
 79163  1  0  0  0
 79164  1  0  0  0
 80 86  1  0  0  0
 80165  1  0  0  0
 80166  1  0  0  0
 81 84  1  0  0  0
 81 87  1  0  0  0
 81167  1  0  0  0
 81168  1  0  0  0
 82169  1  0  0  0
 82170  1  0  0  0
 83 84  1  0  0  0
 83171  1  0  0  0
M  ISO  4   1 100  68 101  82 101  87 100
M  END
> <chiral flag>
0

> <version>
0

> <s_m_source_file>
/data/baiqing/PycharmProjects/Reinvent-master-3.2/result/LINK_invent/BTK/process_docking_weight1_custom_sum_contain_oxygen_bond_distance_aromatic_linkinvent_7_9_3/rearranged_h_0076.sdf

> <i_m_source_file_index>
17

> <r_mmod_Potential_Energy-OPLS-2005>
140.065826416016

> <r_mmod_Stretch_Energy-OPLS-2005>
42.3468284606934

> <r_mmod_Bend_Energy-OPLS-2005>
122.34024810791

> <r_mmod_Torsional_Energy-OPLS-2005>
307.806671142578

> <r_mmod_Improper_Torsional_Energy-OPLS-2005>
8.63758277893066

> <r_mmod_Van_der_Waal_Energy-OPLS-2005>
148.19352722168

> <r_mmod_Electrostatic_Energy-OPLS-2005>
-311.710968017578

> <r_mmod_Solvation_Energy-OPLS-2005>
-194.433853149414

> <b_mmod_Minimization_Converged-OPLS-2005>
0

> <r_mmod_RMS_Derivative-OPLS-2005>
2.71663689613342

$$$$
17
                    3D
 Structure written by MMmdl.
163171  0  0  1  0            999 V2000
  -31.3446  -14.7828   21.0997 C   0  0  0  0  0  0
  -30.7766  -13.5887   18.9475 C   0  0  0  0  0  0
  -29.4485  -13.2599   17.6318 C   0  0  0  0  0  0
  -27.6112  -13.5118   18.0793 C   0  0  0  0  0  0
  -27.1548  -14.0048   19.8904 C   0  0  2  0  0  0
  -28.6238  -14.2807   21.2304 C   0  0  0  0  0  0
  -24.9514  -13.9661   20.7362 C   0  0  0  0  0  0
  -24.0089  -13.0509   20.9930 C   0  0  0  0  0  0
  -24.5984  -11.7540   20.8672 C   0  0  0  0  0  0
  -23.9342  -10.4421   21.0077 C   0  0  0  0  0  0
  -24.3877   -9.4400   21.8957 C   0  0  0  0  0  0
  -23.6513   -8.2422   22.0658 C   0  0  0  0  0  0
  -22.4466   -8.0355   21.3493 C   0  0  0  0  0  0
  -22.0129   -9.0264   20.4520 C   0  0  0  0  0  0
  -22.7488  -10.2109   20.2793 C   0  0  0  0  0  0
  -21.6959   -6.0821   22.5291 C   0  0  0  0  0  0
  -21.4084   -6.5697   23.8228 C   0  0  0  0  0  0
  -21.3664   -5.6819   24.9171 C   0  0  0  0  0  0
  -21.6036   -4.3082   24.7210 C   0  0  0  0  0  0
  -21.8816   -3.8194   23.4325 C   0  0  0  0  0  0
  -21.9228   -4.7033   22.3397 C   0  0  0  0  0  0
  -22.6042  -13.4470   21.2391 C   0  0  0  0  0  0
  -22.1687   -4.2215   21.0975 F   0  0  0  0  0  0
  -21.5599   -3.4551   25.7711 F   0  0  0  0  0  0
  -30.3328  -14.1029   20.6229 N   0  0  0  0  0  0
  -26.0419  -13.2576   20.3917 N   0  0  0  0  0  0
  -25.8870  -11.8904   20.5127 N   0  0  0  0  0  0
  -21.9166  -12.7220   22.1020 N   0  0  0  0  0  0
  -24.9355  -15.3629   20.7308 N   0  0  0  0  0  0
  -32.3927  -14.7885   20.4698 O   0  0  0  0  0  0
  -21.6778   -6.8980   21.4257 O   0  0  0  0  0  0
  -22.1465  -14.4653   20.7181 O   0  0  0  0  0  0
  -24.7235  -31.7570   23.1218 C   0  0  0  0  0  0
  -25.9635  -32.4243   23.7905 C   0  0  1  0  0  0
  -27.1024  -26.3086   20.1385 C   0  0  0  0  0  0
  -25.6070  -33.8095   24.1756 N   0  0  0  0  0  0
  -23.5522  -30.3558   21.4914 C   0  0  2  0  0  0
  -24.9724  -28.6262   20.1020 C   0  0  0  0  0  0
  -22.7899  -29.4118   22.4624 C   0  0  0  0  0  0
  -18.0367  -28.1457   22.8431 C   0  0  0  0  0  0
  -24.1493  -36.7045   23.2667 C   0  0  0  0  0  0
  -26.1467  -30.3457   21.4362 C   0  0  0  0  0  0
  -26.1754  -28.8767   20.7693 C   0  0  0  0  0  0
  -27.2155  -27.7498   20.7542 C   0  0  0  0  0  0
  -25.8849  -26.3747   19.4136 C   0  0  0  0  0  0
  -24.8880  -27.4086   19.4053 C   0  0  0  0  0  0
  -23.8068  -29.6422   20.1309 C   0  0  0  0  0  0
  -25.4155  -36.2750   24.0258 C   0  0  1  0  0  0
  -20.6016  -28.3832   23.1081 C   0  0  2  0  0  0
  -20.6816  -26.9454   22.5408 C   0  0  0  0  0  0
  -19.5808  -26.6374   21.5219 C   0  0  0  0  0  0
  -18.1987  -26.7975   22.1604 C   0  0  0  0  0  0
  -19.1639  -28.8979   23.2730 C   0  0  0  0  0  0
  -18.9532  -30.1554   23.8790 C   0  0  0  0  0  0
  -17.6518  -30.6621   24.0554 C   0  0  0  0  0  0
  -25.9169  -34.9166   23.4857 C   0  0  0  0  0  0
  -16.5408  -29.9096   23.6372 C   0  0  0  0  0  0
  -16.7343  -28.6534   23.0357 C   0  0  0  0  0  0
  -26.4677  -31.6454   25.0696 C   0  0  0  0  0  0
  -25.3641  -31.3884   26.1242 C   0  0  0  0  0  0
  -27.0651  -30.2756   24.6856 C   0  0  0  0  0  0
  -27.6059  -32.4402   25.7527 C   0  0  0  0  0  0
  -27.5543  -37.1676   24.8474 C   0  0  0  0  0  0
  -21.4523  -29.3005   22.3369 N   0  0  0  0  0  0
  -26.4246  -37.3554   23.9415 N   0  0  0  0  0  0
  -24.8396  -30.8627   22.0678 N   0  0  0  0  0  0
  -23.4200  -28.7756   23.3101 O   0  0  0  0  0  0
  -27.9161  -24.8708   20.1465 O   0  0  0  0  0  0
  -26.5839  -34.8818   22.4499 O   0  0  0  0  0  0
  -23.6194  -32.0838   23.5955 O   0  0  0  0  0  0
  -30.3538  -16.8076   18.1498 C   0  0  0  0  0  0
  -30.1474  -17.2825   19.4153 C   0  0  0  0  0  0
  -28.9515  -15.3357   19.0941 C   0  0  0  0  0  0
  -28.8794  -12.5334   19.7610 C   0  0  0  0  0  0
  -30.5819  -15.2328   23.3773 C   0  0  0  0  0  0
  -30.8637  -18.3257   20.2169 C   0  0  0  0  0  0
  -32.1204  -17.7694   20.9021 C   0  0  0  0  0  0
  -28.3600  -20.9066   19.9377 C   0  0  0  0  0  0
  -28.0907  -18.8012   19.4935 C   0  0  0  0  0  0
  -31.8594  -16.9467   22.1986 C   0  0  0  0  0  0
  -27.6854  -22.9650   19.8008 C   0  0  0  0  0  0
  -28.8516  -16.9270   19.6373 N   0  0  0  0  0  0
  -29.4197  -15.8302   17.9149 N   0  3  0  0  0  0
  -31.0938  -15.6824   22.0794 N   0  0  0  0  0  0
  -31.4258  -14.3145   18.4584 H   0  0  0  0  0  0
  -31.4494  -12.7291   19.0092 H   0  0  0  0  0  0
  -29.5691  -12.2224   17.3098 H   0  0  0  0  0  0
  -29.6923  -13.7410   16.6823 H   0  0  0  0  0  0
  -27.0310  -12.6325   17.7887 H   0  0  0  0  0  0
  -27.1948  -14.2676   17.4115 H   0  0  0  0  0  0
  -26.7916  -14.9836   19.6139 H   0  0  0  0  0  0
  -28.4790  -13.6397   22.1042 H   0  0  0  0  0  0
  -28.4785  -15.2712   21.6619 H   0  0  0  0  0  0
  -25.2938   -9.6018   22.4626 H   0  0  0  0  0  0
  -24.0214   -7.4914   22.7487 H   0  0  0  0  0  0
  -21.1040   -8.8780   19.8871 H   0  0  0  0  0  0
  -22.3844  -10.9612   19.5920 H   0  0  0  0  0  0
  -21.2105   -7.6204   23.9761 H   0  0  0  0  0  0
  -21.1464   -6.0536   25.9081 H   0  0  0  0  0  0
  -22.0578   -2.7650   23.2804 H   0  0  0  0  0  0
  -22.3244  -11.9097   22.5402 H   0  0  0  0  0  0
  -20.9663  -12.9751   22.3291 H   0  0  0  0  0  0
  -24.0782  -15.8791   20.9004 H   0  0  0  0  0  0
  -25.7101  -15.9620   20.4792 H   0  0  0  0  0  0
  -26.7777  -32.4590   23.0655 H   0  0  0  0  0  0
  -25.0101  -33.9065   24.9838 H   0  0  0  0  0  0
  -22.8989  -31.2076   21.2885 H   0  0  0  0  0  0
  -23.3779  -35.9346   23.3241 H   0  0  0  0  0  0
  -24.3553  -36.8820   22.2103 H   0  0  0  0  0  0
  -23.7232  -37.6178   23.6836 H   0  0  0  0  0  0
  -26.3956  -31.0455   20.6369 H   0  0  0  0  0  0
  -26.9885  -30.4051   22.1140 H   0  0  0  0  0  0
  -28.1125  -27.9409   21.3259 H   0  0  0  0  0  0
  -25.6298  -25.4839   18.8577 H   0  0  0  0  0  0
  -23.9864  -27.2070   18.8460 H   0  0  0  0  0  0
  -24.0273  -30.3983   19.3775 H   0  0  0  0  0  0
  -22.8919  -29.1544   19.7911 H   0  0  0  0  0  0
  -25.1377  -36.1451   25.0747 H   0  0  0  0  0  0
  -21.0091  -28.3481   24.1212 H   0  0  0  0  0  0
  -20.5669  -26.2455   23.3697 H   0  0  0  0  0  0
  -21.6669  -26.7350   22.1227 H   0  0  0  0  0  0
  -19.6947  -25.6259   21.1314 H   0  0  0  0  0  0
  -19.6760  -27.3127   20.6713 H   0  0  0  0  0  0
  -17.4250  -26.6735   21.4003 H   0  0  0  0  0  0
  -18.0343  -26.0148   22.9034 H   0  0  0  0  0  0
  -19.8011  -30.7409   24.2083 H   0  0  0  0  0  0
  -17.5071  -31.6275   24.5197 H   0  0  0  0  0  0
  -15.5407  -30.2963   23.7765 H   0  0  0  0  0  0
  -15.8746  -28.0837   22.7097 H   0  0  0  0  0  0
  -24.5886  -30.7156   25.7561 H   0  0  0  0  0  0
  -24.8758  -32.3135   26.4330 H   0  0  0  0  0  0
  -25.7747  -30.9294   27.0248 H   0  0  0  0  0  0
  -26.3423  -29.6260   24.1915 H   0  0  0  0  0  0
  -27.4005  -29.7358   25.5729 H   0  0  0  0  0  0
  -27.9436  -30.3817   24.0481 H   0  0  0  0  0  0
  -27.2571  -33.3835   26.1753 H   0  0  0  0  0  0
  -28.4050  -32.6762   25.0479 H   0  0  0  0  0  0
  -28.0536  -31.8771   26.5731 H   0  0  0  0  0  0
  -28.2506  -38.0015   24.7481 H   0  0  0  0  0  0
  -28.1080  -36.2522   24.6324 H   0  0  0  0  0  0
  -27.2261  -37.1335   25.8880 H   0  0  0  0  0  0
  -20.9913  -29.8622   21.6342 H   0  0  0  0  0  0
  -26.0027  -38.2584   24.1425 H   0  0  0  0  0  0
  -31.1170  -17.0484   17.4222 H   0  0  0  0  0  0
  -28.3285  -12.1573   20.6309 H   0  0  0  0  0  0
  -29.7693  -11.9643   20.0733 H   0  0  0  0  0  0
  -28.4920  -11.7480   19.0943 H   0  0  0  0  0  0
  -29.6632  -15.7655   23.6279 H   0  0  0  0  0  0
  -31.3092  -15.4272   24.1660 H   0  0  0  0  0  0
  -30.3707  -14.1622   23.4064 H   0  0  0  0  0  0
  -30.2085  -18.7460   20.9779 H   0  0  0  0  0  0
  -31.1306  -19.1471   19.5505 H   0  0  0  0  0  0
  -32.7386  -17.2403   20.1769 H   0  0  0  0  0  0
  -32.7221  -18.6305   21.1935 H   0  0  0  0  0  0
  -29.3835  -21.0353   19.5838 H   0  0  0  0  0  0
  -28.4800  -20.8408   21.0190 H   0  0  0  0  0  0
  -27.9085  -18.8506   18.4197 H   0  0  0  0  0  0
  -27.0909  -18.6396   19.8970 H   0  0  0  0  0  0
  -31.3480  -17.5950   22.9121 H   0  0  0  0  0  0
  -32.8224  -16.7106   22.6525 H   0  0  0  0  0  0
  -26.6625  -22.8549   20.1577 H   0  0  0  0  0  0
  -27.5667  -23.0365   18.7189 H   0  0  0  0  0  0
  -29.4605  -15.2683   17.0734 H   0  0  0  0  0  0
  1 25  1  0  0  0
  1 30  2  0  0  0
  1 84  1  0  0  0
  2  3  1  0  0  0
  2 25  1  0  0  0
  2 85  1  0  0  0
  2 86  1  0  0  0
  3  4  1  0  0  0
  3 87  1  0  0  0
  3 88  1  0  0  0
  4  5  1  0  0  0
  4 89  1  0  0  0
  4 90  1  0  0  0
  5  6  1  0  0  0
  5 26  1  0  0  0
  5 91  1  0  0  0
  6 25  1  0  0  0
  6 92  1  0  0  0
  6 93  1  0  0  0
  7  8  2  0  0  0
  7 26  1  0  0  0
  7 29  1  0  0  0
  8  9  1  0  0  0
  8 22  1  0  0  0
  9 10  1  0  0  0
  9 27  2  0  0  0
 10 11  2  0  0  0
 10 15  1  0  0  0
 11 12  1  0  0  0
 11 94  1  0  0  0
 12 13  2  0  0  0
 12 95  1  0  0  0
 13 14  1  0  0  0
 13 31  1  0  0  0
 14 15  2  0  0  0
 14 96  1  0  0  0
 15 97  1  0  0  0
 16 17  2  0  0  0
 16 21  1  0  0  0
 16 31  1  0  0  0
 17 18  1  0  0  0
 17 98  1  0  0  0
 18 19  2  0  0  0
 18 99  1  0  0  0
 19 20  1  0  0  0
 19 24  1  0  0  0
 20 21  2  0  0  0
 20100  1  0  0  0
 21 23  1  0  0  0
 22 28  1  0  0  0
 22 32  2  0  0  0
 26 27  1  0  0  0
 28101  1  0  0  0
 28102  1  0  0  0
 29103  1  0  0  0
 29104  1  0  0  0
 33 34  1  0  0  0
 33 66  1  0  0  0
 33 70  2  0  0  0
 34 36  1  0  0  0
 34 59  1  0  0  0
 34105  1  0  0  0
 35 44  2  0  0  0
 35 45  1  0  0  0
 35 68  1  0  0  0
 36 56  1  0  0  0
 36106  1  0  0  0
 37 39  1  0  0  0
 37 47  1  0  0  0
 37 66  1  0  0  0
 37107  1  0  0  0
 38 43  2  0  0  0
 38 46  1  0  0  0
 38 47  1  0  0  0
 39 64  1  0  0  0
 39 67  2  0  0  0
 40 52  1  0  0  0
 40 53  2  0  0  0
 40 58  1  0  0  0
 41108  1  0  0  0
 41109  1  0  0  0
 41110  1  0  0  0
 41 48  1  0  0  0
 42 43  1  0  0  0
 42 66  1  0  0  0
 42111  1  0  0  0
 42112  1  0  0  0
 43 44  1  0  0  0
 44113  1  0  0  0
 45 46  2  0  0  0
 45114  1  0  0  0
 46115  1  0  0  0
 47116  1  0  0  0
 47117  1  0  0  0
 48 56  1  0  0  0
 48 65  1  0  0  0
 48118  1  0  0  0
 49 50  1  0  0  0
 49 53  1  0  0  0
 49 64  1  0  0  0
 49119  1  0  0  0
 50 51  1  0  0  0
 50120  1  0  0  0
 50121  1  0  0  0
 51 52  1  0  0  0
 51122  1  0  0  0
 51123  1  0  0  0
 52124  1  0  0  0
 52125  1  0  0  0
 53 54  1  0  0  0
 54 55  2  0  0  0
 54126  1  0  0  0
 55 57  1  0  0  0
 55127  1  0  0  0
 56 69  2  0  0  0
 57 58  2  0  0  0
 57128  1  0  0  0
 58129  1  0  0  0
 59 60  1  0  0  0
 59 61  1  0  0  0
 59 62  1  0  0  0
 60130  1  0  0  0
 60131  1  0  0  0
 60132  1  0  0  0
 61133  1  0  0  0
 61134  1  0  0  0
 61135  1  0  0  0
 62136  1  0  0  0
 62137  1  0  0  0
 62138  1  0  0  0
 63 65  1  0  0  0
 63139  1  0  0  0
 63140  1  0  0  0
 63141  1  0  0  0
 64142  1  0  0  0
 65143  1  0  0  0
 68 81  1  0  0  0
 71 72  2  0  0  0
 71 83  1  0  0  0
 71144  1  0  0  0
 72 76  1  0  0  0
 72 82  1  0  0  0
 73 74  1  0  0  0
 73 82  1  0  0  0
 73 83  2  0  0  0
 74145  1  0  0  0
 74146  1  0  0  0
 74147  1  0  0  0
 75 84  1  0  0  0
 75148  1  0  0  0
 75149  1  0  0  0
 75150  1  0  0  0
 76 77  1  0  0  0
 76151  1  0  0  0
 76152  1  0  0  0
 77 80  1  0  0  0
 77153  1  0  0  0
 77154  1  0  0  0
 78 79  1  0  0  0
 78 81  1  0  0  0
 78155  1  0  0  0
 78156  1  0  0  0
 79 82  1  0  0  0
 79157  1  0  0  0
 79158  1  0  0  0
 80 84  1  0  0  0
 80159  1  0  0  0
 80160  1  0  0  0
 81161  1  0  0  0
 81162  1  0  0  0
 83163  1  0  0  0
M  CHG  1  83   1
M  ISO  4   1 100  68 101  81 101  84 100
M  END
> <chiral flag>
0

> <version>
0

> <s_m_source_file>
/data/baiqing/PycharmProjects/Reinvent-master-3.2/result/LINK_invent/BTK/process_docking_weight1_custom_sum_contain_oxygen_bond_distance_aromatic_linkinvent_7_9_3/rearranged_h_0076.sdf

> <i_m_source_file_index>
18

> <r_mmod_Potential_Energy-OPLS-2005>
10522.63671875

> <r_mmod_Stretch_Energy-OPLS-2005>
5793.69482421875

> <r_mmod_Bend_Energy-OPLS-2005>
1118.5634765625

> <r_mmod_Torsional_Energy-OPLS-2005>
540.853332519531

> <r_mmod_Improper_Torsional_Energy-OPLS-2005>
43.8074150085449

> <r_mmod_Van_der_Waal_Energy-OPLS-2005>
1739.81518554688

> <r_mmod_Electrostatic_Energy-OPLS-2005>
-164.940811157227

> <r_mmod_Solvation_Energy-OPLS-2005>
-389.230407714844

> <b_mmod_Minimization_Converged-OPLS-2005>
0

> <r_mmod_RMS_Derivative-OPLS-2005>
4.42042255401611

$$$$
18
                    3D
 Structure written by MMmdl.
160168  0  0  1  0            999 V2000
  -30.6513  -14.6992   20.5661 C   0  0  0  0  0  0
  -30.4311  -12.4545   19.4740 C   0  0  0  0  0  0
  -29.5143  -12.5670   18.2367 C   0  0  0  0  0  0
  -28.0330  -12.4030   18.6315 C   0  0  0  0  0  0
  -27.6529  -13.2412   19.8790 C   0  0  2  0  0  0
  -28.6960  -13.0758   21.0011 C   0  0  0  0  0  0
  -25.2516  -13.8214   20.5749 C   0  0  0  0  0  0
  -24.1824  -13.0443   20.9210 C   0  0  0  0  0  0
  -24.6439  -11.6922   20.8770 C   0  0  0  0  0  0
  -23.9122  -10.4298   21.0437 C   0  0  0  0  0  0
  -24.3660   -9.4187   21.9213 C   0  0  0  0  0  0
  -23.6308   -8.2238   22.0774 C   0  0  0  0  0  0
  -22.4282   -8.0307   21.3559 C   0  0  0  0  0  0
  -21.9951   -9.0285   20.4657 C   0  0  0  0  0  0
  -22.7303  -10.2147   20.3075 C   0  0  0  0  0  0
  -21.6855   -6.0748   22.5270 C   0  0  0  0  0  0
  -21.4031   -6.5658   23.8208 C   0  0  0  0  0  0
  -21.3656   -5.6813   24.9171 C   0  0  0  0  0  0
  -21.6057   -4.3071   24.7229 C   0  0  0  0  0  0
  -21.8810   -3.8164   23.4347 C   0  0  0  0  0  0
  -21.9203   -4.6976   22.3407 C   0  0  0  0  0  0
  -22.7815  -13.5182   21.1850 C   0  0  0  0  0  0
  -22.1647   -4.2159   21.0968 F   0  0  0  0  0  0
  -21.5627   -3.4553   25.7736 F   0  0  0  0  0  0
  -30.0008  -13.4815   20.4573 N   0  0  0  0  0  0
  -26.3000  -12.9465   20.3409 N   0  0  0  0  0  0
  -25.9385  -11.6588   20.5816 N   0  0  0  0  0  0
  -22.0445  -12.8184   22.0384 N   0  0  0  0  0  0
  -25.4160  -15.1948   20.4137 N   0  0  0  0  0  0
  -31.7647  -14.7924   20.0352 O   0  0  0  0  0  0
  -21.6646   -6.8893   21.4237 O   0  0  0  0  0  0
  -22.3494  -14.5484   20.6667 O   0  0  0  0  0  0
  -24.6304  -31.8574   23.2079 C   0  0  0  0  0  0
  -25.9163  -32.4765   23.8362 C   0  0  1  0  0  0
  -27.2000  -27.2802   20.1031 C   0  0  0  0  0  0
  -25.5973  -33.8562   24.2297 N   0  0  0  0  0  0
  -23.4251  -30.4820   21.5542 C   0  0  2  0  0  0
  -24.8632  -28.9348   20.1098 C   0  0  0  0  0  0
  -22.7500  -29.4605   22.5008 C   0  0  0  0  0  0
  -18.0277  -28.1380   22.8482 C   0  0  0  0  0  0
  -24.1485  -36.7273   23.2655 C   0  0  0  0  0  0
  -25.9705  -30.7654   21.3919 C   0  0  0  0  0  0
  -26.0345  -29.3904   20.7312 C   0  0  0  0  0  0
  -27.2092  -28.5733   20.7225 C   0  0  0  0  0  0
  -26.0251  -26.9078   19.4310 C   0  0  0  0  0  0
  -24.8681  -27.7038   19.4363 C   0  0  0  0  0  0
  -23.6344  -29.8213   20.1663 C   0  0  0  0  0  0
  -25.4113  -36.3085   24.0348 C   0  0  1  0  0  0
  -20.5865  -28.3680   23.1278 C   0  0  2  0  0  0
  -20.6752  -26.9392   22.5422 C   0  0  0  0  0  0
  -19.5731  -26.6371   21.5211 C   0  0  0  0  0  0
  -18.1905  -26.7942   22.1602 C   0  0  0  0  0  0
  -19.1526  -28.8848   23.2869 C   0  0  0  0  0  0
  -18.9465  -30.1463   23.8852 C   0  0  0  0  0  0
  -17.6473  -30.6583   24.0543 C   0  0  0  0  0  0
  -25.9042  -34.9444   23.5110 C   0  0  0  0  0  0
  -16.5349  -29.9071   23.6357 C   0  0  0  0  0  0
  -16.7260  -28.6489   23.0346 C   0  0  0  0  0  0
  -26.4511  -31.6617   25.0778 C   0  0  0  0  0  0
  -25.3712  -31.3768   26.1490 C   0  0  0  0  0  0
  -27.0403  -30.3049   24.6295 C   0  0  0  0  0  0
  -27.6073  -32.4385   25.7520 C   0  0  0  0  0  0
  -27.5584  -37.1788   24.8472 C   0  0  0  0  0  0
  -21.4224  -29.3044   22.3723 N   0  0  0  0  0  0
  -26.4290  -37.3795   23.9415 N   0  0  0  0  0  0
  -24.6946  -31.0528   22.1082 N   0  0  0  0  0  0
  -23.4193  -28.8125   23.3074 O   0  0  0  0  0  0
  -28.2951  -26.4012   20.0536 O   0  0  0  0  0  0
  -26.5625  -34.8931   22.4684 O   0  0  0  0  0  0
  -23.5468  -32.1385   23.7414 O   0  0  0  0  0  0
  -30.3713  -19.1650   19.5276 C   0  0  0  0  0  0
  -28.8081  -18.3179   20.7606 C   0  0  0  0  0  0
  -29.1045  -19.5066   20.0817 C   0  0  0  0  0  0
  -29.2940  -15.8407   22.6041 C   0  0  0  0  0  0
  -26.5874  -23.2622   19.4296 C   0  0  0  0  0  0
  -28.7156  -23.9584   18.2850 C   0  0  0  0  0  0
  -28.2852  -20.8309   19.7927 C   0  0  0  0  0  0
  -28.7642  -22.3047   20.2722 C   0  0  0  0  0  0
  -28.1673  -24.9945   20.5602 C   0  0  0  0  0  0
  -30.1386  -16.0305   21.3296 C   0  0  2  0  0  0
  -28.0717  -23.6456   19.6515 C   0  0  0  0  0  0
  -30.8014  -17.9382   19.8441 N   0  0  0  0  0  0
  -29.8448  -17.3577   20.6155 N   0  0  0  0  0  0
  -31.4752  -12.5591   19.1775 H   0  0  0  0  0  0
  -30.3649  -11.4561   19.9071 H   0  0  0  0  0  0
  -29.7881  -11.8223   17.4887 H   0  0  0  0  0  0
  -29.6583  -13.5413   17.7668 H   0  0  0  0  0  0
  -27.8508  -11.3446   18.8272 H   0  0  0  0  0  0
  -27.3922  -12.6783   17.7924 H   0  0  0  0  0  0
  -27.6736  -14.2868   19.5706 H   0  0  0  0  0  0
  -28.7337  -12.0354   21.3301 H   0  0  0  0  0  0
  -28.4018  -13.6191   21.8879 H   0  0  0  0  0  0
  -25.2796   -9.5652   22.4800 H   0  0  0  0  0  0
  -24.0018   -7.4626   22.7478 H   0  0  0  0  0  0
  -21.0912   -8.8836   19.8935 H   0  0  0  0  0  0
  -22.3805  -10.9713   19.6198 H   0  0  0  0  0  0
  -21.2024   -7.6164   23.9710 H   0  0  0  0  0  0
  -21.1480   -6.0542   25.9071 H   0  0  0  0  0  0
  -22.0598   -2.7628   23.2845 H   0  0  0  0  0  0
  -22.4069  -11.9899   22.4871 H   0  0  0  0  0  0
  -21.1026  -13.1183   22.2507 H   0  0  0  0  0  0
  -24.6412  -15.8409   20.5050 H   0  0  0  0  0  0
  -26.2666  -15.6379   20.0912 H   0  0  0  0  0  0
  -26.7214  -32.5384   23.1061 H   0  0  0  0  0  0
  -25.0212  -33.9674   25.0508 H   0  0  0  0  0  0
  -22.7241  -31.3062   21.4167 H   0  0  0  0  0  0
  -23.3782  -35.9570   23.3331 H   0  0  0  0  0  0
  -24.3572  -36.8891   22.2070 H   0  0  0  0  0  0
  -23.7201  -37.6465   23.6655 H   0  0  0  0  0  0
  -26.1130  -31.5285   20.6261 H   0  0  0  0  0  0
  -26.8469  -30.8027   22.0286 H   0  0  0  0  0  0
  -28.1087  -28.9204   21.2141 H   0  0  0  0  0  0
  -26.0121  -26.0118   18.8424 H   0  0  0  0  0  0
  -23.9939  -27.3749   18.8912 H   0  0  0  0  0  0
  -23.7415  -30.5990   19.4098 H   0  0  0  0  0  0
  -22.7500  -29.2523   19.8703 H   0  0  0  0  0  0
  -25.1277  -36.1972   25.0850 H   0  0  0  0  0  0
  -20.9899  -28.3239   24.1413 H   0  0  0  0  0  0
  -20.5674  -26.2265   23.3609 H   0  0  0  0  0  0
  -21.6624  -26.7443   22.1195 H   0  0  0  0  0  0
  -19.6924  -25.6274   21.1257 H   0  0  0  0  0  0
  -19.6712  -27.3154   20.6710 H   0  0  0  0  0  0
  -17.4203  -26.6710   21.3981 H   0  0  0  0  0  0
  -18.0284  -26.0070   22.8969 H   0  0  0  0  0  0
  -19.7948  -30.7283   24.2198 H   0  0  0  0  0  0
  -17.5022  -31.6260   24.5146 H   0  0  0  0  0  0
  -15.5344  -30.2927   23.7747 H   0  0  0  0  0  0
  -15.8667  -28.0802   22.7072 H   0  0  0  0  0  0
  -24.5936  -30.7054   25.7849 H   0  0  0  0  0  0
  -24.8800  -32.2898   26.4859 H   0  0  0  0  0  0
  -25.7991  -30.9033   27.0331 H   0  0  0  0  0  0
  -26.3013  -29.6743   24.1346 H   0  0  0  0  0  0
  -27.4133  -29.7383   25.4844 H   0  0  0  0  0  0
  -27.8839  -30.4383   23.9519 H   0  0  0  0  0  0
  -27.2729  -33.3750   26.1995 H   0  0  0  0  0  0
  -28.3873  -32.6861   25.0314 H   0  0  0  0  0  0
  -28.0720  -31.8580   26.5503 H   0  0  0  0  0  0
  -28.2617  -38.0084   24.7543 H   0  0  0  0  0  0
  -28.1055  -36.2613   24.6243 H   0  0  0  0  0  0
  -27.2283  -37.1370   25.8875 H   0  0  0  0  0  0
  -20.9456  -29.8790   21.6920 H   0  0  0  0  0  0
  -26.0193  -38.2882   24.1432 H   0  0  0  0  0  0
  -30.9820  -19.7726   18.8761 H   0  0  0  0  0  0
  -27.9309  -18.0775   21.3487 H   0  0  0  0  0  0
  -29.4267  -16.6910   23.2726 H   0  0  0  0  0  0
  -29.6134  -14.9645   23.1709 H   0  0  0  0  0  0
  -28.2300  -15.7585   22.3948 H   0  0  0  0  0  0
  -26.4805  -22.4840   18.6746 H   0  0  0  0  0  0
  -25.9541  -24.0638   19.0796 H   0  0  0  0  0  0
  -26.1419  -22.8935   20.3518 H   0  0  0  0  0  0
  -28.8063  -23.0653   17.6638 H   0  0  0  0  0  0
  -29.7127  -24.3868   18.4028 H   0  0  0  0  0  0
  -28.1182  -24.6858   17.7291 H   0  0  0  0  0  0
  -27.2604  -20.6903   20.1398 H   0  0  0  0  0  0
  -28.1827  -20.8899   18.7076 H   0  0  0  0  0  0
  -29.8378  -22.3846   20.0935 H   0  0  0  0  0  0
  -28.6584  -22.3386   21.3577 H   0  0  0  0  0  0
  -29.0676  -24.8845   21.1669 H   0  0  0  0  0  0
  -27.3546  -24.9705   21.2870 H   0  0  0  0  0  0
  -31.0946  -16.2721   21.8010 H   0  0  0  0  0  0
  1 25  1  0  0  0
  1 30  2  0  0  0
  1 80  1  0  0  0
  2  3  1  0  0  0
  2 25  1  0  0  0
  2 84  1  0  0  0
  2 85  1  0  0  0
  3  4  1  0  0  0
  3 86  1  0  0  0
  3 87  1  0  0  0
  4  5  1  0  0  0
  4 88  1  0  0  0
  4 89  1  0  0  0
  5  6  1  0  0  0
  5 26  1  0  0  0
  5 90  1  0  0  0
  6 25  1  0  0  0
  6 91  1  0  0  0
  6 92  1  0  0  0
  7  8  2  0  0  0
  7 26  1  0  0  0
  7 29  1  0  0  0
  8  9  1  0  0  0
  8 22  1  0  0  0
  9 10  1  0  0  0
  9 27  2  0  0  0
 10 11  2  0  0  0
 10 15  1  0  0  0
 11 12  1  0  0  0
 11 93  1  0  0  0
 12 13  2  0  0  0
 12 94  1  0  0  0
 13 14  1  0  0  0
 13 31  1  0  0  0
 14 15  2  0  0  0
 14 95  1  0  0  0
 15 96  1  0  0  0
 16 17  2  0  0  0
 16 21  1  0  0  0
 16 31  1  0  0  0
 17 18  1  0  0  0
 17 97  1  0  0  0
 18 19  2  0  0  0
 18 98  1  0  0  0
 19 20  1  0  0  0
 19 24  1  0  0  0
 20 21  2  0  0  0
 20 99  1  0  0  0
 21 23  1  0  0  0
 22 28  1  0  0  0
 22 32  2  0  0  0
 26 27  1  0  0  0
 28100  1  0  0  0
 28101  1  0  0  0
 29102  1  0  0  0
 29103  1  0  0  0
 33 34  1  0  0  0
 33 66  1  0  0  0
 33 70  2  0  0  0
 34 36  1  0  0  0
 34 59  1  0  0  0
 34104  1  0  0  0
 35 44  2  0  0  0
 35 45  1  0  0  0
 35 68  1  0  0  0
 36 56  1  0  0  0
 36105  1  0  0  0
 37 39  1  0  0  0
 37 47  1  0  0  0
 37 66  1  0  0  0
 37106  1  0  0  0
 38 43  2  0  0  0
 38 46  1  0  0  0
 38 47  1  0  0  0
 39 64  1  0  0  0
 39 67  2  0  0  0
 40 52  1  0  0  0
 40 53  2  0  0  0
 40 58  1  0  0  0
 41107  1  0  0  0
 41108  1  0  0  0
 41109  1  0  0  0
 41 48  1  0  0  0
 42 43  1  0  0  0
 42 66  1  0  0  0
 42110  1  0  0  0
 42111  1  0  0  0
 43 44  1  0  0  0
 44112  1  0  0  0
 45 46  2  0  0  0
 45113  1  0  0  0
 46114  1  0  0  0
 47115  1  0  0  0
 47116  1  0  0  0
 48 56  1  0  0  0
 48 65  1  0  0  0
 48117  1  0  0  0
 49 50  1  0  0  0
 49 53  1  0  0  0
 49 64  1  0  0  0
 49118  1  0  0  0
 50 51  1  0  0  0
 50119  1  0  0  0
 50120  1  0  0  0
 51 52  1  0  0  0
 51121  1  0  0  0
 51122  1  0  0  0
 52123  1  0  0  0
 52124  1  0  0  0
 53 54  1  0  0  0
 54 55  2  0  0  0
 54125  1  0  0  0
 55 57  1  0  0  0
 55126  1  0  0  0
 56 69  2  0  0  0
 57 58  2  0  0  0
 57127  1  0  0  0
 58128  1  0  0  0
 59 60  1  0  0  0
 59 61  1  0  0  0
 59 62  1  0  0  0
 60129  1  0  0  0
 60130  1  0  0  0
 60131  1  0  0  0
 61132  1  0  0  0
 61133  1  0  0  0
 61134  1  0  0  0
 62135  1  0  0  0
 62136  1  0  0  0
 62137  1  0  0  0
 63 65  1  0  0  0
 63138  1  0  0  0
 63139  1  0  0  0
 63140  1  0  0  0
 64141  1  0  0  0
 65142  1  0  0  0
 68 79  1  0  0  0
 71 73  1  0  0  0
 71 82  2  0  0  0
 71143  1  0  0  0
 72 73  2  0  0  0
 72 83  1  0  0  0
 72144  1  0  0  0
 73 77  1  0  0  0
 74145  1  0  0  0
 74146  1  0  0  0
 74147  1  0  0  0
 74 80  1  0  0  0
 75148  1  0  0  0
 75149  1  0  0  0
 75150  1  0  0  0
 75 81  1  0  0  0
 76 81  1  0  0  0
 76151  1  0  0  0
 76152  1  0  0  0
 76153  1  0  0  0
 77 78  1  0  0  0
 77154  1  0  0  0
 77155  1  0  0  0
 78 81  1  0  0  0
 78156  1  0  0  0
 78157  1  0  0  0
 79 81  1  0  0  0
 79158  1  0  0  0
 79159  1  0  0  0
 80 83  1  0  0  0
 80160  1  0  0  0
 82 83  1  0  0  0
M  ISO  4   1 100  68 101  79 101  80 100
M  END
> <chiral flag>
0

> <version>
0

> <s_m_source_file>
/data/baiqing/PycharmProjects/Reinvent-master-3.2/result/LINK_invent/BTK/process_docking_weight1_custom_sum_contain_oxygen_bond_distance_aromatic_linkinvent_7_9_3/rearranged_h_0076.sdf

> <i_m_source_file_index>
19

> <r_mmod_Potential_Energy-OPLS-2005>
313.393432617188

> <r_mmod_Stretch_Energy-OPLS-2005>
124.98934173584

> <r_mmod_Bend_Energy-OPLS-2005>
220.989273071289

> <r_mmod_Torsional_Energy-OPLS-2005>
245.214431762695

> <r_mmod_Improper_Torsional_Energy-OPLS-2005>
3.80548167228699

> <r_mmod_Van_der_Waal_Energy-OPLS-2005>
121.802909851074

> <r_mmod_Electrostatic_Energy-OPLS-2005>
-258.808044433594

> <r_mmod_Solvation_Energy-OPLS-2005>
-208.536331176758

> <b_mmod_Minimization_Converged-OPLS-2005>
0

> <r_mmod_RMS_Derivative-OPLS-2005>
4.94858026504517

$$$$
19
                    3D
 Structure written by MMmdl.
164172  0  0  1  0            999 V2000
  -30.6112  -14.7374   20.4699 C   0  0  0  0  0  0
  -30.4311  -12.4543   19.4653 C   0  0  0  0  0  0
  -29.5044  -12.5045   18.2311 C   0  0  0  0  0  0
  -28.0309  -12.3304   18.6482 C   0  0  0  0  0  0
  -27.6398  -13.2306   19.8506 C   0  0  2  0  0  0
  -28.6860  -13.1595   20.9829 C   0  0  0  0  0  0
  -25.2498  -13.8192   20.5694 C   0  0  0  0  0  0
  -24.1791  -13.0437   20.9209 C   0  0  0  0  0  0
  -24.6381  -11.6916   20.8760 C   0  0  0  0  0  0
  -23.9062  -10.4291   21.0415 C   0  0  0  0  0  0
  -24.3614   -9.4206   21.9192 C   0  0  0  0  0  0
  -23.6291   -8.2240   22.0758 C   0  0  0  0  0  0
  -22.4277   -8.0274   21.3545 C   0  0  0  0  0  0
  -21.9908   -9.0249   20.4650 C   0  0  0  0  0  0
  -22.7233  -10.2132   20.3062 C   0  0  0  0  0  0
  -21.6851   -6.0731   22.5278 C   0  0  0  0  0  0
  -21.4015   -6.5639   23.8211 C   0  0  0  0  0  0
  -21.3658   -5.6795   24.9173 C   0  0  0  0  0  0
  -21.6046   -4.3057   24.7230 C   0  0  0  0  0  0
  -21.8816   -3.8144   23.4351 C   0  0  0  0  0  0
  -21.9192   -4.6958   22.3404 C   0  0  0  0  0  0
  -22.7814  -13.5219   21.1874 C   0  0  0  0  0  0
  -22.1660   -4.2141   21.0983 F   0  0  0  0  0  0
  -21.5629   -3.4543   25.7743 F   0  0  0  0  0  0
  -29.9841  -13.5142   20.3970 N   0  0  0  0  0  0
  -26.2923  -12.9402   20.3296 N   0  0  0  0  0  0
  -25.9313  -11.6547   20.5770 N   0  0  0  0  0  0
  -22.0472  -12.8201   22.0437 N   0  0  0  0  0  0
  -25.4164  -15.1916   20.4079 N   0  0  0  0  0  0
  -31.8032  -14.8352   20.1663 O   0  0  0  0  0  0
  -21.6643   -6.8874   21.4239 O   0  0  0  0  0  0
  -22.3495  -14.5523   20.6725 O   0  0  0  0  0  0
  -24.6320  -31.8538   23.1968 C   0  0  0  0  0  0
  -25.9142  -32.4748   23.8313 C   0  0  1  0  0  0
  -27.2209  -27.2565   20.1298 C   0  0  0  0  0  0
  -25.5938  -33.8548   24.2232 N   0  0  0  0  0  0
  -23.4292  -30.4781   21.5391 C   0  0  2  0  0  0
  -24.8773  -28.9252   20.1080 C   0  0  0  0  0  0
  -22.7509  -29.4606   22.4885 C   0  0  0  0  0  0
  -18.0297  -28.1387   22.8470 C   0  0  0  0  0  0
  -24.1500  -36.7280   23.2642 C   0  0  0  0  0  0
  -25.9771  -30.7662   21.3787 C   0  0  0  0  0  0
  -26.0497  -29.3898   20.7179 C   0  0  0  0  0  0
  -27.2240  -28.5689   20.7158 C   0  0  0  0  0  0
  -26.0246  -26.8642   19.4857 C   0  0  0  0  0  0
  -24.8717  -27.6722   19.4790 C   0  0  0  0  0  0
  -23.6483  -29.8130   20.1554 C   0  0  0  0  0  0
  -25.4125  -36.3062   24.0323 C   0  0  1  0  0  0
  -20.5904  -28.3706   23.1250 C   0  0  2  0  0  0
  -20.6790  -26.9418   22.5400 C   0  0  0  0  0  0
  -19.5776  -26.6374   21.5203 C   0  0  0  0  0  0
  -18.1949  -26.7927   22.1604 C   0  0  0  0  0  0
  -19.1550  -28.8863   23.2861 C   0  0  0  0  0  0
  -18.9476  -30.1459   23.8889 C   0  0  0  0  0  0
  -17.6475  -30.6588   24.0560 C   0  0  0  0  0  0
  -25.9059  -34.9436   23.5077 C   0  0  0  0  0  0
  -16.5366  -29.9080   23.6333 C   0  0  0  0  0  0
  -16.7284  -28.6501   23.0345 C   0  0  0  0  0  0
  -26.4498  -31.6587   25.0717 C   0  0  0  0  0  0
  -25.3705  -31.3756   26.1432 C   0  0  0  0  0  0
  -27.0337  -30.2992   24.6234 C   0  0  0  0  0  0
  -27.6057  -32.4333   25.7476 C   0  0  0  0  0  0
  -27.5584  -37.1794   24.8462 C   0  0  0  0  0  0
  -21.4211  -29.3054   22.3640 N   0  0  0  0  0  0
  -26.4294  -37.3766   23.9409 N   0  0  0  0  0  0
  -24.6983  -31.0507   22.0942 N   0  0  0  0  0  0
  -23.4206  -28.8140   23.2982 O   0  0  0  0  0  0
  -28.3133  -26.3560   20.1994 O   0  0  0  0  0  0
  -26.5636  -34.8917   22.4646 O   0  0  0  0  0  0
  -23.5469  -32.1354   23.7262 O   0  0  0  0  0  0
  -27.8245  -21.7030   22.2121 C   0  0  0  0  0  0
  -27.2840  -20.9297   23.2440 C   0  0  0  0  0  0
  -28.5904  -21.1174   21.1773 C   0  0  0  0  0  0
  -27.5030  -19.5517   23.2350 C   0  0  0  0  0  0
  -28.7875  -19.6528   21.2613 C   0  0  0  0  0  0
  -27.9931  -17.9466   25.1412 C   0  0  0  0  0  0
  -25.8660  -17.6834   23.7526 C   0  0  0  0  0  0
  -29.0342  -22.1648   20.0765 C   0  0  0  0  0  0
  -29.4388  -18.6050   20.2657 C   0  0  0  0  0  0
  -29.1767  -23.7637   20.4243 C   0  0  0  0  0  0
  -30.2852  -17.3338   20.8553 C   0  0  0  0  0  0
  -28.0689  -24.8765   20.0275 C   0  0  0  0  0  0
  -26.9076  -18.6611   24.3209 C   0  0  0  0  0  0
  -28.2222  -18.9497   22.2701 N   0  0  0  0  0  0
  -29.8439  -15.8714   20.6946 N   0  0  0  0  0  0
  -31.4704  -12.5836   19.1592 H   0  0  0  0  0  0
  -30.3819  -11.4774   19.9487 H   0  0  0  0  0  0
  -29.7838  -11.7304   17.5154 H   0  0  0  0  0  0
  -29.6279  -13.4581   17.7154 H   0  0  0  0  0  0
  -27.8860  -11.2813   18.9112 H   0  0  0  0  0  0
  -27.3720  -12.5240   17.8008 H   0  0  0  0  0  0
  -27.6346  -14.2532   19.4718 H   0  0  0  0  0  0
  -28.7224  -12.1586   21.4158 H   0  0  0  0  0  0
  -28.4237  -13.8360   21.7978 H   0  0  0  0  0  0
  -25.2755   -9.5687   22.4766 H   0  0  0  0  0  0
  -24.0000   -7.4633   22.7474 H   0  0  0  0  0  0
  -21.0839   -8.8765   19.8955 H   0  0  0  0  0  0
  -22.3687  -10.9671   19.6170 H   0  0  0  0  0  0
  -21.2009   -7.6146   23.9711 H   0  0  0  0  0  0
  -21.1483   -6.0529   25.9078 H   0  0  0  0  0  0
  -22.0597   -2.7605   23.2857 H   0  0  0  0  0  0
  -22.4097  -11.9854   22.4804 H   0  0  0  0  0  0
  -21.1091  -13.1218   22.2664 H   0  0  0  0  0  0
  -24.6443  -15.8404   20.5134 H   0  0  0  0  0  0
  -26.2603  -15.6356   20.0700 H   0  0  0  0  0  0
  -26.7211  -32.5389   23.1050 H   0  0  0  0  0  0
  -25.0111  -33.9682   25.0401 H   0  0  0  0  0  0
  -22.7279  -31.3020   21.3915 H   0  0  0  0  0  0
  -23.3767  -35.9609   23.3287 H   0  0  0  0  0  0
  -24.3599  -36.8914   22.2062 H   0  0  0  0  0  0
  -23.7241  -37.6470   23.6680 H   0  0  0  0  0  0
  -26.1222  -31.5307   20.6140 H   0  0  0  0  0  0
  -26.8515  -30.8082   22.0170 H   0  0  0  0  0  0
  -28.1207  -28.9175   21.2084 H   0  0  0  0  0  0
  -25.9488  -25.9073   18.9914 H   0  0  0  0  0  0
  -23.9767  -27.3141   18.9884 H   0  0  0  0  0  0
  -23.7714  -30.5898   19.3995 H   0  0  0  0  0  0
  -22.7663  -29.2470   19.8493 H   0  0  0  0  0  0
  -25.1302  -36.1905   25.0815 H   0  0  0  0  0  0
  -21.0005  -28.3293   24.1364 H   0  0  0  0  0  0
  -20.5692  -26.2317   23.3604 H   0  0  0  0  0  0
  -21.6658  -26.7432   22.1201 H   0  0  0  0  0  0
  -19.6955  -25.6277   21.1247 H   0  0  0  0  0  0
  -19.6731  -27.3175   20.6729 H   0  0  0  0  0  0
  -17.4220  -26.6677   21.3999 H   0  0  0  0  0  0
  -18.0349  -26.0056   22.8988 H   0  0  0  0  0  0
  -19.7961  -30.7272   24.2256 H   0  0  0  0  0  0
  -17.5035  -31.6269   24.5159 H   0  0  0  0  0  0
  -15.5375  -30.2987   23.7668 H   0  0  0  0  0  0
  -15.8676  -28.0824   22.7065 H   0  0  0  0  0  0
  -24.5913  -30.7059   25.7760 H   0  0  0  0  0  0
  -24.8856  -32.2929   26.4789 H   0  0  0  0  0  0
  -25.8004  -30.8988   27.0251 H   0  0  0  0  0  0
  -26.2918  -29.6738   24.1255 H   0  0  0  0  0  0
  -27.3989  -29.7262   25.4767 H   0  0  0  0  0  0
  -27.8808  -30.4233   23.9485 H   0  0  0  0  0  0
  -27.2691  -33.3675   26.1983 H   0  0  0  0  0  0
  -28.3899  -32.6824   25.0312 H   0  0  0  0  0  0
  -28.0694  -31.8498   26.5444 H   0  0  0  0  0  0
  -28.2584  -38.0108   24.7510 H   0  0  0  0  0  0
  -28.1089  -36.2630   24.6269 H   0  0  0  0  0  0
  -27.2304  -37.1416   25.8867 H   0  0  0  0  0  0
  -20.9405  -29.8761   21.6824 H   0  0  0  0  0  0
  -26.0165  -38.2835   24.1417 H   0  0  0  0  0  0
  -27.6127  -22.7614   22.2191 H   0  0  0  0  0  0
  -26.6903  -21.3950   24.0190 H   0  0  0  0  0  0
  -28.6984  -18.6644   25.5606 H   0  0  0  0  0  0
  -28.5578  -17.2448   24.5267 H   0  0  0  0  0  0
  -27.5567  -17.3899   25.9709 H   0  0  0  0  0  0
  -25.0651  -18.2221   23.2455 H   0  0  0  0  0  0
  -25.4120  -17.0858   24.5432 H   0  0  0  0  0  0
  -26.3144  -16.9984   23.0322 H   0  0  0  0  0  0
  -28.3715  -22.0505   19.2186 H   0  0  0  0  0  0
  -30.0077  -21.8183   19.7268 H   0  0  0  0  0  0
  -30.1027  -19.1778   19.6181 H   0  0  0  0  0  0
  -28.6518  -18.2377   19.6066 H   0  0  0  0  0  0
  -30.0681  -24.0826   19.8828 H   0  0  0  0  0  0
  -29.4625  -23.8883   21.4689 H   0  0  0  0  0  0
  -30.4659  -17.5010   21.9173 H   0  0  0  0  0  0
  -31.2789  -17.4018   20.4114 H   0  0  0  0  0  0
  -27.1626  -24.6206   20.5781 H   0  0  0  0  0  0
  -27.8351  -24.7187   18.9743 H   0  0  0  0  0  0
  -26.3758  -19.3152   25.0145 H   0  0  0  0  0  0
  -28.8667  -15.6940   20.8735 H   0  0  0  0  0  0
  1 25  1  0  0  0
  1 30  2  0  0  0
  1 85  1  0  0  0
  2  3  1  0  0  0
  2 25  1  0  0  0
  2 86  1  0  0  0
  2 87  1  0  0  0
  3  4  1  0  0  0
  3 88  1  0  0  0
  3 89  1  0  0  0
  4  5  1  0  0  0
  4 90  1  0  0  0
  4 91  1  0  0  0
  5  6  1  0  0  0
  5 26  1  0  0  0
  5 92  1  0  0  0
  6 25  1  0  0  0
  6 93  1  0  0  0
  6 94  1  0  0  0
  7  8  2  0  0  0
  7 26  1  0  0  0
  7 29  1  0  0  0
  8  9  1  0  0  0
  8 22  1  0  0  0
  9 10  1  0  0  0
  9 27  2  0  0  0
 10 11  2  0  0  0
 10 15  1  0  0  0
 11 12  1  0  0  0
 11 95  1  0  0  0
 12 13  2  0  0  0
 12 96  1  0  0  0
 13 14  1  0  0  0
 13 31  1  0  0  0
 14 15  2  0  0  0
 14 97  1  0  0  0
 15 98  1  0  0  0
 16 17  2  0  0  0
 16 21  1  0  0  0
 16 31  1  0  0  0
 17 18  1  0  0  0
 17 99  1  0  0  0
 18 19  2  0  0  0
 18100  1  0  0  0
 19 20  1  0  0  0
 19 24  1  0  0  0
 20 21  2  0  0  0
 20101  1  0  0  0
 21 23  1  0  0  0
 22 28  1  0  0  0
 22 32  2  0  0  0
 26 27  1  0  0  0
 28102  1  0  0  0
 28103  1  0  0  0
 29104  1  0  0  0
 29105  1  0  0  0
 33 34  1  0  0  0
 33 66  1  0  0  0
 33 70  2  0  0  0
 34 36  1  0  0  0
 34 59  1  0  0  0
 34106  1  0  0  0
 35 44  2  0  0  0
 35 45  1  0  0  0
 35 68  1  0  0  0
 36 56  1  0  0  0
 36107  1  0  0  0
 37 39  1  0  0  0
 37 47  1  0  0  0
 37 66  1  0  0  0
 37108  1  0  0  0
 38 43  2  0  0  0
 38 46  1  0  0  0
 38 47  1  0  0  0
 39 64  1  0  0  0
 39 67  2  0  0  0
 40 52  1  0  0  0
 40 53  2  0  0  0
 40 58  1  0  0  0
 41109  1  0  0  0
 41110  1  0  0  0
 41111  1  0  0  0
 41 48  1  0  0  0
 42 43  1  0  0  0
 42 66  1  0  0  0
 42112  1  0  0  0
 42113  1  0  0  0
 43 44  1  0  0  0
 44114  1  0  0  0
 45 46  2  0  0  0
 45115  1  0  0  0
 46116  1  0  0  0
 47117  1  0  0  0
 47118  1  0  0  0
 48 56  1  0  0  0
 48 65  1  0  0  0
 48119  1  0  0  0
 49 50  1  0  0  0
 49 53  1  0  0  0
 49 64  1  0  0  0
 49120  1  0  0  0
 50 51  1  0  0  0
 50121  1  0  0  0
 50122  1  0  0  0
 51 52  1  0  0  0
 51123  1  0  0  0
 51124  1  0  0  0
 52125  1  0  0  0
 52126  1  0  0  0
 53 54  1  0  0  0
 54 55  2  0  0  0
 54127  1  0  0  0
 55 57  1  0  0  0
 55128  1  0  0  0
 56 69  2  0  0  0
 57 58  2  0  0  0
 57129  1  0  0  0
 58130  1  0  0  0
 59 60  1  0  0  0
 59 61  1  0  0  0
 59 62  1  0  0  0
 60131  1  0  0  0
 60132  1  0  0  0
 60133  1  0  0  0
 61134  1  0  0  0
 61135  1  0  0  0
 61136  1  0  0  0
 62137  1  0  0  0
 62138  1  0  0  0
 62139  1  0  0  0
 63 65  1  0  0  0
 63140  1  0  0  0
 63141  1  0  0  0
 63142  1  0  0  0
 64143  1  0  0  0
 65144  1  0  0  0
 68 82  1  0  0  0
 71 72  2  0  0  0
 71 73  1  0  0  0
 71145  1  0  0  0
 72 74  1  0  0  0
 72146  1  0  0  0
 73 75  2  0  0  0
 73 78  1  0  0  0
 74 83  1  0  0  0
 74 84  2  0  0  0
 75 79  1  0  0  0
 75 84  1  0  0  0
 76147  1  0  0  0
 76148  1  0  0  0
 76149  1  0  0  0
 76 83  1  0  0  0
 77 83  1  0  0  0
 77150  1  0  0  0
 77151  1  0  0  0
 77152  1  0  0  0
 78 80  1  0  0  0
 78153  1  0  0  0
 78154  1  0  0  0
 79 81  1  0  0  0
 79155  1  0  0  0
 79156  1  0  0  0
 80 82  1  0  0  0
 80157  1  0  0  0
 80158  1  0  0  0
 81 85  1  0  0  0
 81159  1  0  0  0
 81160  1  0  0  0
 82161  1  0  0  0
 82162  1  0  0  0
 83163  1  0  0  0
 85164  1  0  0  0
M  ISO  4   1 100  68 101  82 101  85 100
M  END
> <chiral flag>
0

> <version>
0

> <s_m_source_file>
/data/baiqing/PycharmProjects/Reinvent-master-3.2/result/LINK_invent/BTK/process_docking_weight1_custom_sum_contain_oxygen_bond_distance_aromatic_linkinvent_7_9_3/rearranged_h_0076.sdf

> <i_m_source_file_index>
20

> <r_mmod_Potential_Energy-OPLS-2005>
47.018180847168

> <r_mmod_Stretch_Energy-OPLS-2005>
138.09716796875

> <r_mmod_Bend_Energy-OPLS-2005>
204.332366943359

> <r_mmod_Torsional_Energy-OPLS-2005>
214.789535522461

> <r_mmod_Improper_Torsional_Energy-OPLS-2005>
4.7492356300354

> <r_mmod_Van_der_Waal_Energy-OPLS-2005>
137.983657836914

> <r_mmod_Electrostatic_Energy-OPLS-2005>
-528.799072265625

> <r_mmod_Solvation_Energy-OPLS-2005>
-210.399017333984

> <b_mmod_Minimization_Converged-OPLS-2005>
0

> <r_mmod_RMS_Derivative-OPLS-2005>
1.33400082588196

$$$$
20
                    3D
 Structure written by MMmdl.
171179  0  0  1  0            999 V2000
  -30.6472  -14.5978   20.5448 C   0  0  0  0  0  0
  -30.4372  -12.3802   19.4456 C   0  0  0  0  0  0
  -29.5072  -12.5143   18.2202 C   0  0  0  0  0  0
  -28.0299  -12.3481   18.6305 C   0  0  0  0  0  0
  -27.6556  -13.2076   19.8675 C   0  0  2  0  0  0
  -28.7002  -13.0474   20.9955 C   0  0  0  0  0  0
  -25.2577  -13.8146   20.5669 C   0  0  0  0  0  0
  -24.1834  -13.0430   20.9193 C   0  0  0  0  0  0
  -24.6396  -11.6899   20.8738 C   0  0  0  0  0  0
  -23.9061  -10.4285   21.0398 C   0  0  0  0  0  0
  -24.3626   -9.4206   21.9173 C   0  0  0  0  0  0
  -23.6313   -8.2234   22.0748 C   0  0  0  0  0  0
  -22.4289   -8.0270   21.3544 C   0  0  0  0  0  0
  -21.9915   -9.0243   20.4645 C   0  0  0  0  0  0
  -22.7231  -10.2130   20.3052 C   0  0  0  0  0  0
  -21.6852   -6.0746   22.5289 C   0  0  0  0  0  0
  -21.4006   -6.5654   23.8224 C   0  0  0  0  0  0
  -21.3658   -5.6799   24.9178 C   0  0  0  0  0  0
  -21.6047   -4.3059   24.7225 C   0  0  0  0  0  0
  -21.8817   -3.8156   23.4345 C   0  0  0  0  0  0
  -21.9195   -4.6976   22.3405 C   0  0  0  0  0  0
  -22.7862  -13.5225   21.1852 C   0  0  0  0  0  0
  -22.1657   -4.2158   21.0982 F   0  0  0  0  0  0
  -21.5636   -3.4550   25.7739 F   0  0  0  0  0  0
  -30.0183  -13.3862   20.4382 N   0  0  0  0  0  0
  -26.2994  -12.9306   20.3325 N   0  0  0  0  0  0
  -25.9322  -11.6476   20.5761 N   0  0  0  0  0  0
  -22.0496  -12.8235   22.0419 N   0  0  0  0  0  0
  -25.4302  -15.1862   20.4074 N   0  0  0  0  0  0
  -31.8002  -14.7709   20.1423 O   0  0  0  0  0  0
  -21.6634   -6.8883   21.4250 O   0  0  0  0  0  0
  -22.3551  -14.5533   20.6678 O   0  0  0  0  0  0
  -24.6230  -31.8614   23.2053 C   0  0  0  0  0  0
  -25.9090  -32.4791   23.8368 C   0  0  1  0  0  0
  -27.2203  -27.3386   20.1171 C   0  0  0  0  0  0
  -25.5923  -33.8596   24.2291 N   0  0  0  0  0  0
  -23.4152  -30.4861   21.5477 C   0  0  2  0  0  0
  -24.8598  -28.9416   20.1159 C   0  0  0  0  0  0
  -22.7454  -29.4639   22.4968 C   0  0  0  0  0  0
  -18.0279  -28.1380   22.8489 C   0  0  0  0  0  0
  -24.1490  -36.7297   23.2634 C   0  0  0  0  0  0
  -25.9558  -30.7984   21.3741 C   0  0  0  0  0  0
  -26.0290  -29.4284   20.7137 C   0  0  0  0  0  0
  -27.2142  -28.6399   20.7000 C   0  0  0  0  0  0
  -26.0275  -26.8960   19.5010 C   0  0  0  0  0  0
  -24.8596  -27.6801   19.5014 C   0  0  0  0  0  0
  -23.6270  -29.8188   20.1638 C   0  0  0  0  0  0
  -25.4113  -36.3096   24.0331 C   0  0  1  0  0  0
  -20.5879  -28.3675   23.1296 C   0  0  2  0  0  0
  -20.6766  -26.9398   22.5420 C   0  0  0  0  0  0
  -19.5751  -26.6374   21.5214 C   0  0  0  0  0  0
  -18.1922  -26.7929   22.1610 C   0  0  0  0  0  0
  -19.1530  -28.8844   23.2886 C   0  0  0  0  0  0
  -18.9453  -30.1448   23.8896 C   0  0  0  0  0  0
  -17.6456  -30.6586   24.0560 C   0  0  0  0  0  0
  -25.9051  -34.9463   23.5113 C   0  0  0  0  0  0
  -16.5345  -29.9081   23.6337 C   0  0  0  0  0  0
  -16.7262  -28.6495   23.0359 C   0  0  0  0  0  0
  -26.4477  -31.6608   25.0738 C   0  0  0  0  0  0
  -25.3717  -31.3773   26.1477 C   0  0  0  0  0  0
  -27.0291  -30.3016   24.6202 C   0  0  0  0  0  0
  -27.6047  -32.4342   25.7486 C   0  0  0  0  0  0
  -27.5598  -37.1789   24.8445 C   0  0  0  0  0  0
  -21.4175  -29.3039   22.3698 N   0  0  0  0  0  0
  -26.4289  -37.3791   23.9421 N   0  0  0  0  0  0
  -24.6831  -31.0651   22.0991 N   0  0  0  0  0  0
  -23.4194  -28.8175   23.3036 O   0  0  0  0  0  0
  -28.3530  -26.5205   20.1428 O   0  0  0  0  0  0
  -26.5617  -34.8924   22.4680 O   0  0  0  0  0  0
  -23.5394  -32.1401   23.7397 O   0  0  0  0  0  0
  -28.1931  -21.8348   20.1238 C   0  0  0  0  0  0
  -30.6795  -21.8337   20.4117 C   0  0  0  0  0  0
  -28.2007  -20.2976   20.4455 C   0  0  0  0  0  0
  -30.6574  -20.2919   20.6829 C   0  0  0  0  0  0
  -29.3686  -22.6268   20.7557 C   0  0  1  0  0  0
  -29.4974  -19.5845   19.9491 C   0  0  1  0  0  0
  -31.4856  -25.7843   20.5256 C   0  0  0  0  0  0
  -30.4393  -17.6472   18.5991 C   0  0  0  0  0  0
  -28.1292  -17.4604   19.4737 C   0  0  0  0  0  0
  -30.5059  -24.8875   21.2955 C   0  0  0  0  0  0
  -30.1243  -17.1156   21.0188 C   0  0  0  0  0  0
  -28.1600  -25.0693   20.3349 C   0  0  0  0  0  0
  -29.4741  -24.1856   20.3775 C   0  0  2  0  0  0
  -29.5445  -17.9740   19.8163 C   0  0  0  0  0  0
  -29.8658  -15.6357   20.9561 N   0  0  0  0  0  0
  -31.4778  -12.5072   19.1437 H   0  0  0  0  0  0
  -30.3710  -11.3781   19.8727 H   0  0  0  0  0  0
  -29.7738  -11.7755   17.4622 H   0  0  0  0  0  0
  -29.6505  -13.4922   17.7575 H   0  0  0  0  0  0
  -27.8666  -11.2928   18.8517 H   0  0  0  0  0  0
  -27.3744  -12.5877   17.7921 H   0  0  0  0  0  0
  -27.6754  -14.2438   19.5381 H   0  0  0  0  0  0
  -28.7083  -12.0212   21.3658 H   0  0  0  0  0  0
  -28.4453  -13.6705   21.8545 H   0  0  0  0  0  0
  -25.2777   -9.5709   22.4745 H   0  0  0  0  0  0
  -24.0053   -7.4630   22.7467 H   0  0  0  0  0  0
  -21.0846   -8.8741   19.8954 H   0  0  0  0  0  0
  -22.3669  -10.9672   19.6169 H   0  0  0  0  0  0
  -21.1978   -7.6162   23.9736 H   0  0  0  0  0  0
  -21.1485   -6.0518   25.9083 H   0  0  0  0  0  0
  -22.0596   -2.7620   23.2831 H   0  0  0  0  0  0
  -22.4109  -11.9904   22.4815 H   0  0  0  0  0  0
  -21.1100  -13.1255   22.2586 H   0  0  0  0  0  0
  -24.6646  -15.8419   20.5214 H   0  0  0  0  0  0
  -26.2784  -15.6224   20.0722 H   0  0  0  0  0  0
  -26.7156  -32.5454   23.1112 H   0  0  0  0  0  0
  -25.0085  -33.9755   25.0442 H   0  0  0  0  0  0
  -22.7069  -31.3047   21.4054 H   0  0  0  0  0  0
  -23.3777  -35.9602   23.3257 H   0  0  0  0  0  0
  -24.3591  -36.8954   22.2056 H   0  0  0  0  0  0
  -23.7203  -37.6472   23.6675 H   0  0  0  0  0  0
  -26.0922  -31.5660   20.6112 H   0  0  0  0  0  0
  -26.8340  -30.8391   22.0073 H   0  0  0  0  0  0
  -28.1164  -29.0117   21.1658 H   0  0  0  0  0  0
  -25.9701  -25.9383   19.0072 H   0  0  0  0  0  0
  -23.9623  -27.3032   19.0303 H   0  0  0  0  0  0
  -23.7401  -30.5932   19.4029 H   0  0  0  0  0  0
  -22.7480  -29.2431   19.8678 H   0  0  0  0  0  0
  -25.1292  -36.1948   25.0821 H   0  0  0  0  0  0
  -20.9963  -28.3243   24.1420 H   0  0  0  0  0  0
  -20.5657  -26.2285   23.3621 H   0  0  0  0  0  0
  -21.6639  -26.7426   22.1222 H   0  0  0  0  0  0
  -19.6914  -25.6279   21.1256 H   0  0  0  0  0  0
  -19.6713  -27.3174   20.6736 H   0  0  0  0  0  0
  -17.4212  -26.6701   21.3988 H   0  0  0  0  0  0
  -18.0294  -26.0052   22.8980 H   0  0  0  0  0  0
  -19.7932  -30.7263   24.2261 H   0  0  0  0  0  0
  -17.5010  -31.6273   24.5149 H   0  0  0  0  0  0
  -15.5344  -30.2980   23.7662 H   0  0  0  0  0  0
  -15.8664  -28.0813   22.7081 H   0  0  0  0  0  0
  -24.5895  -30.7103   25.7839 H   0  0  0  0  0  0
  -24.8901  -32.2949   26.4865 H   0  0  0  0  0  0
  -25.8044  -30.8999   27.0275 H   0  0  0  0  0  0
  -26.2855  -29.6795   24.1209 H   0  0  0  0  0  0
  -27.3940  -29.7255   25.4714 H   0  0  0  0  0  0
  -27.8752  -30.4276   23.9446 H   0  0  0  0  0  0
  -27.2661  -33.3633   26.2082 H   0  0  0  0  0  0
  -28.3832  -32.6925   25.0298 H   0  0  0  0  0  0
  -28.0742  -31.8467   26.5384 H   0  0  0  0  0  0
  -28.2580  -38.0122   24.7565 H   0  0  0  0  0  0
  -28.1137  -36.2669   24.6175 H   0  0  0  0  0  0
  -27.2345  -37.1310   25.8851 H   0  0  0  0  0  0
  -20.9338  -29.8760   21.6918 H   0  0  0  0  0  0
  -26.0183  -38.2862   24.1464 H   0  0  0  0  0  0
  -27.2493  -22.2616   20.4650 H   0  0  0  0  0  0
  -28.2093  -21.9734   19.0419 H   0  0  0  0  0  0
  -30.9090  -21.9881   19.3564 H   0  0  0  0  0  0
  -31.5266  -22.2502   20.9534 H   0  0  0  0  0  0
  -27.3152  -19.8721   19.9772 H   0  0  0  0  0  0
  -28.0765  -20.1380   21.5175 H   0  0  0  0  0  0
  -30.5814  -20.1047   21.7560 H   0  0  0  0  0  0
  -31.6090  -19.8612   20.3686 H   0  0  0  0  0  0
  -29.2248  -22.5689   21.8360 H   0  0  0  0  0  0
  -29.5688  -19.9283   18.9159 H   0  0  0  0  0  0
  -32.1769  -26.2816   21.2056 H   0  0  0  0  0  0
  -30.9592  -26.5577   19.9662 H   0  0  0  0  0  0
  -32.0766  -25.2021   19.8171 H   0  0  0  0  0  0
  -30.1028  -18.1511   17.6929 H   0  0  0  0  0  0
  -30.4546  -16.5802   18.3748 H   0  0  0  0  0  0
  -31.4719  -17.9504   18.7747 H   0  0  0  0  0  0
  -27.6770  -18.0393   18.6669 H   0  0  0  0  0  0
  -27.4717  -17.5140   20.3426 H   0  0  0  0  0  0
  -28.1363  -16.4265   19.1356 H   0  0  0  0  0  0
  -29.9867  -25.4818   22.0492 H   0  0  0  0  0  0
  -31.0826  -24.1672   21.8736 H   0  0  0  0  0  0
  -29.6836  -17.4783   21.9486 H   0  0  0  0  0  0
  -31.1976  -17.2881   21.1211 H   0  0  0  0  0  0
  -27.6035  -24.9220   21.2615 H   0  0  0  0  0  0
  -27.5418  -24.6622   19.5374 H   0  0  0  0  0  0
  -29.8629  -24.2104   19.3590 H   0  0  0  0  0  0
  -28.9412  -15.3599   21.2492 H   0  0  0  0  0  0
  1 25  1  0  0  0
  1 30  2  0  0  0
  1 85  1  0  0  0
  2  3  1  0  0  0
  2 25  1  0  0  0
  2 86  1  0  0  0
  2 87  1  0  0  0
  3  4  1  0  0  0
  3 88  1  0  0  0
  3 89  1  0  0  0
  4  5  1  0  0  0
  4 90  1  0  0  0
  4 91  1  0  0  0
  5  6  1  0  0  0
  5 26  1  0  0  0
  5 92  1  0  0  0
  6 25  1  0  0  0
  6 93  1  0  0  0
  6 94  1  0  0  0
  7  8  2  0  0  0
  7 26  1  0  0  0
  7 29  1  0  0  0
  8  9  1  0  0  0
  8 22  1  0  0  0
  9 10  1  0  0  0
  9 27  2  0  0  0
 10 11  2  0  0  0
 10 15  1  0  0  0
 11 12  1  0  0  0
 11 95  1  0  0  0
 12 13  2  0  0  0
 12 96  1  0  0  0
 13 14  1  0  0  0
 13 31  1  0  0  0
 14 15  2  0  0  0
 14 97  1  0  0  0
 15 98  1  0  0  0
 16 17  2  0  0  0
 16 21  1  0  0  0
 16 31  1  0  0  0
 17 18  1  0  0  0
 17 99  1  0  0  0
 18 19  2  0  0  0
 18100  1  0  0  0
 19 20  1  0  0  0
 19 24  1  0  0  0
 20 21  2  0  0  0
 20101  1  0  0  0
 21 23  1  0  0  0
 22 28  1  0  0  0
 22 32  2  0  0  0
 26 27  1  0  0  0
 28102  1  0  0  0
 28103  1  0  0  0
 29104  1  0  0  0
 29105  1  0  0  0
 33 34  1  0  0  0
 33 66  1  0  0  0
 33 70  2  0  0  0
 34 36  1  0  0  0
 34 59  1  0  0  0
 34106  1  0  0  0
 35 44  2  0  0  0
 35 45  1  0  0  0
 35 68  1  0  0  0
 36 56  1  0  0  0
 36107  1  0  0  0
 37 39  1  0  0  0
 37 47  1  0  0  0
 37 66  1  0  0  0
 37108  1  0  0  0
 38 43  2  0  0  0
 38 46  1  0  0  0
 38 47  1  0  0  0
 39 64  1  0  0  0
 39 67  2  0  0  0
 40 52  1  0  0  0
 40 53  2  0  0  0
 40 58  1  0  0  0
 41109  1  0  0  0
 41110  1  0  0  0
 41111  1  0  0  0
 41 48  1  0  0  0
 42 43  1  0  0  0
 42 66  1  0  0  0
 42112  1  0  0  0
 42113  1  0  0  0
 43 44  1  0  0  0
 44114  1  0  0  0
 45 46  2  0  0  0
 45115  1  0  0  0
 46116  1  0  0  0
 47117  1  0  0  0
 47118  1  0  0  0
 48 56  1  0  0  0
 48 65  1  0  0  0
 48119  1  0  0  0
 49 50  1  0  0  0
 49 53  1  0  0  0
 49 64  1  0  0  0
 49120  1  0  0  0
 50 51  1  0  0  0
 50121  1  0  0  0
 50122  1  0  0  0
 51 52  1  0  0  0
 51123  1  0  0  0
 51124  1  0  0  0
 52125  1  0  0  0
 52126  1  0  0  0
 53 54  1  0  0  0
 54 55  2  0  0  0
 54127  1  0  0  0
 55 57  1  0  0  0
 55128  1  0  0  0
 56 69  2  0  0  0
 57 58  2  0  0  0
 57129  1  0  0  0
 58130  1  0  0  0
 59 60  1  0  0  0
 59 61  1  0  0  0
 59 62  1  0  0  0
 60131  1  0  0  0
 60132  1  0  0  0
 60133  1  0  0  0
 61134  1  0  0  0
 61135  1  0  0  0
 61136  1  0  0  0
 62137  1  0  0  0
 62138  1  0  0  0
 62139  1  0  0  0
 63 65  1  0  0  0
 63140  1  0  0  0
 63141  1  0  0  0
 63142  1  0  0  0
 64143  1  0  0  0
 65144  1  0  0  0
 68 82  1  0  0  0
 71 73  1  0  0  0
 71145  1  0  0  0
 71146  1  0  0  0
 71 75  1  0  0  0
 72 74  1  0  0  0
 72 75  1  0  0  0
 72147  1  0  0  0
 72148  1  0  0  0
 73149  1  0  0  0
 73150  1  0  0  0
 73 76  1  0  0  0
 74 76  1  0  0  0
 74151  1  0  0  0
 74152  1  0  0  0
 75 83  1  0  0  0
 75153  1  0  0  0
 76 84  1  0  0  0
 76154  1  0  0  0
 77 80  1  0  0  0
 77155  1  0  0  0
 77156  1  0  0  0
 77157  1  0  0  0
 78158  1  0  0  0
 78159  1  0  0  0
 78160  1  0  0  0
 78 84  1  0  0  0
 79 84  1  0  0  0
 79161  1  0  0  0
 79162  1  0  0  0
 79163  1  0  0  0
 80164  1  0  0  0
 80165  1  0  0  0
 80 83  1  0  0  0
 81 84  1  0  0  0
 81 85  1  0  0  0
 81166  1  0  0  0
 81167  1  0  0  0
 82 83  1  0  0  0
 82168  1  0  0  0
 82169  1  0  0  0
 83170  1  0  0  0
 85171  1  0  0  0
M  ISO  4   1 100  68 101  82 101  85 100
M  END
> <chiral flag>
0

> <version>
0

> <s_m_source_file>
/data/baiqing/PycharmProjects/Reinvent-master-3.2/result/LINK_invent/BTK/process_docking_weight1_custom_sum_contain_oxygen_bond_distance_aromatic_linkinvent_7_9_3/rearranged_h_0076.sdf

> <i_m_source_file_index>
21

> <r_mmod_Potential_Energy-OPLS-2005>
86.1199264526367

> <r_mmod_Stretch_Energy-OPLS-2005>
77.884033203125

> <r_mmod_Bend_Energy-OPLS-2005>
152.07014465332

> <r_mmod_Torsional_Energy-OPLS-2005>
276.112457275391

> <r_mmod_Improper_Torsional_Energy-OPLS-2005>
3.7658007144928

> <r_mmod_Van_der_Waal_Energy-OPLS-2005>
131.585418701172

> <r_mmod_Electrostatic_Energy-OPLS-2005>
-406.097869873047

> <r_mmod_Solvation_Energy-OPLS-2005>
-186.221710205078

> <b_mmod_Minimization_Converged-OPLS-2005>
0

> <r_mmod_RMS_Derivative-OPLS-2005>
2.29921650886536

$$$$
21
                    3D
 Structure written by MMmdl.
161169  0  0  1  0            999 V2000
  -30.6843  -14.5312   20.5242 C   0  0  0  0  0  0
  -30.4219  -12.3264   19.4480 C   0  0  0  0  0  0
  -29.5006  -12.4985   18.2214 C   0  0  0  0  0  0
  -28.0215  -12.3566   18.6296 C   0  0  0  0  0  0
  -27.6579  -13.2133   19.8723 C   0  0  2  0  0  0
  -28.7001  -13.0397   21.0023 C   0  0  0  0  0  0
  -25.2568  -13.8170   20.5679 C   0  0  0  0  0  0
  -24.1827  -13.0436   20.9180 C   0  0  0  0  0  0
  -24.6391  -11.6907   20.8736 C   0  0  0  0  0  0
  -23.9059  -10.4290   21.0403 C   0  0  0  0  0  0
  -24.3611   -9.4208   21.9182 C   0  0  0  0  0  0
  -23.6289   -8.2244   22.0752 C   0  0  0  0  0  0
  -22.4273   -8.0278   21.3541 C   0  0  0  0  0  0
  -21.9906   -9.0252   20.4645 C   0  0  0  0  0  0
  -22.7231  -10.2132   20.3054 C   0  0  0  0  0  0
  -21.6856   -6.0735   22.5278 C   0  0  0  0  0  0
  -21.4017   -6.5639   23.8211 C   0  0  0  0  0  0
  -21.3659   -5.6792   24.9174 C   0  0  0  0  0  0
  -21.6046   -4.3055   24.7225 C   0  0  0  0  0  0
  -21.8819   -3.8146   23.4347 C   0  0  0  0  0  0
  -21.9193   -4.6962   22.3403 C   0  0  0  0  0  0
  -22.7852  -13.5235   21.1841 C   0  0  0  0  0  0
  -22.1660   -4.2146   21.0981 F   0  0  0  0  0  0
  -21.5627   -3.4539   25.7739 F   0  0  0  0  0  0
  -30.0276  -13.3384   20.4445 N   0  0  0  0  0  0
  -26.3006  -12.9350   20.3356 N   0  0  0  0  0  0
  -25.9323  -11.6505   20.5774 N   0  0  0  0  0  0
  -22.0497  -12.8230   22.0403 N   0  0  0  0  0  0
  -25.4279  -15.1889   20.4087 N   0  0  0  0  0  0
  -31.8327  -14.6764   20.0981 O   0  0  0  0  0  0
  -21.6639   -6.8875   21.4239 O   0  0  0  0  0  0
  -22.3539  -14.5542   20.6691 O   0  0  0  0  0  0
  -24.6184  -31.8658   23.2098 C   0  0  0  0  0  0
  -25.9065  -32.4811   23.8398 C   0  0  1  0  0  0
  -27.2186  -27.3814   20.1211 C   0  0  0  0  0  0
  -25.5909  -33.8612   24.2324 N   0  0  0  0  0  0
  -23.4090  -30.4910   21.5496 C   0  0  2  0  0  0
  -24.8572  -28.9576   20.1109 C   0  0  0  0  0  0
  -22.7436  -29.4645   22.4959 C   0  0  0  0  0  0
  -18.0278  -28.1378   22.8490 C   0  0  0  0  0  0
  -24.1488  -36.7309   23.2637 C   0  0  0  0  0  0
  -25.9447  -30.8138   21.3765 C   0  0  0  0  0  0
  -26.0191  -29.4452   20.7244 C   0  0  0  0  0  0
  -27.2044  -28.6633   20.7308 C   0  0  0  0  0  0
  -26.0566  -26.9544   19.4440 C   0  0  0  0  0  0
  -24.8732  -27.7122   19.4643 C   0  0  0  0  0  0
  -23.6217  -29.8292   20.1629 C   0  0  0  0  0  0
  -25.4111  -36.3106   24.0334 C   0  0  1  0  0  0
  -20.5874  -28.3674   23.1301 C   0  0  2  0  0  0
  -20.6768  -26.9404   22.5414 C   0  0  0  0  0  0
  -19.5746  -26.6383   21.5211 C   0  0  0  0  0  0
  -18.1926  -26.7923   22.1624 C   0  0  0  0  0  0
  -19.1529  -28.8842   23.2894 C   0  0  0  0  0  0
  -18.9455  -30.1445   23.8909 C   0  0  0  0  0  0
  -17.6458  -30.6585   24.0565 C   0  0  0  0  0  0
  -25.9039  -34.9468   23.5126 C   0  0  0  0  0  0
  -16.5348  -29.9086   23.6326 C   0  0  0  0  0  0
  -16.7267  -28.6500   23.0353 C   0  0  0  0  0  0
  -26.4483  -31.6595   25.0736 C   0  0  0  0  0  0
  -25.3742  -31.3711   26.1481 C   0  0  0  0  0  0
  -27.0322  -30.3028   24.6143 C   0  0  0  0  0  0
  -27.6055  -32.4323   25.7497 C   0  0  0  0  0  0
  -27.5580  -37.1813   24.8466 C   0  0  0  0  0  0
  -21.4158  -29.3037   22.3700 N   0  0  0  0  0  0
  -26.4296  -37.3791   23.9405 N   0  0  0  0  0  0
  -24.6751  -31.0725   22.1024 N   0  0  0  0  0  0
  -23.4191  -28.8182   23.3009 O   0  0  0  0  0  0
  -28.3412  -26.5605   20.1255 O   0  0  0  0  0  0
  -26.5602  -34.8920   22.4688 O   0  0  0  0  0  0
  -23.5365  -32.1434   23.7461 O   0  0  0  0  0  0
  -30.4135  -22.6280   22.6307 C   0  0  0  0  0  0
  -30.1811  -20.7439   21.7555 C   0  0  0  0  0  0
  -26.9686  -24.6109   21.0426 C   0  0  0  0  0  0
  -28.7711  -25.7665   22.3233 C   0  0  0  0  0  0
  -29.9847  -19.6007   20.7660 C   0  0  0  0  0  0
  -29.8175  -18.1547   21.3718 C   0  0  0  0  0  0
  -29.3867  -24.3282   20.2617 C   0  0  0  0  0  0
  -29.2622  -22.7490   20.3787 C   0  0  0  0  0  0
  -30.1859  -16.9974   20.3893 C   0  0  0  0  0  0
  -28.3395  -25.3177   20.9160 C   0  0  0  0  0  0
  -30.9537  -21.7815   23.5064 N   0  0  0  0  0  0
  -30.8153  -20.5471   22.9236 N   0  0  0  0  0  0
  -29.9069  -22.0682   21.5184 N   0  0  0  0  0  0
  -29.9355  -15.6093   20.8657 N   0  0  0  0  0  0
  -31.4686  -12.4147   19.1516 H   0  0  0  0  0  0
  -30.3173  -11.3255   19.8696 H   0  0  0  0  0  0
  -29.7486  -11.7618   17.4560 H   0  0  0  0  0  0
  -29.6651  -13.4780   17.7694 H   0  0  0  0  0  0
  -27.8374  -11.3022   18.8402 H   0  0  0  0  0  0
  -27.3731  -12.6156   17.7916 H   0  0  0  0  0  0
  -27.6880  -14.2541   19.5494 H   0  0  0  0  0  0
  -28.6827  -12.0185   21.3860 H   0  0  0  0  0  0
  -28.4653  -13.6816   21.8527 H   0  0  0  0  0  0
  -25.2757   -9.5690   22.4752 H   0  0  0  0  0  0
  -24.0001   -7.4640   22.7475 H   0  0  0  0  0  0
  -21.0836   -8.8774   19.8953 H   0  0  0  0  0  0
  -22.3690  -10.9671   19.6164 H   0  0  0  0  0  0
  -21.2012   -7.6148   23.9713 H   0  0  0  0  0  0
  -21.1480   -6.0523   25.9076 H   0  0  0  0  0  0
  -22.0598   -2.7607   23.2849 H   0  0  0  0  0  0
  -22.4116  -11.9892   22.4790 H   0  0  0  0  0  0
  -21.1116  -13.1254   22.2608 H   0  0  0  0  0  0
  -24.6605  -15.8431   20.5178 H   0  0  0  0  0  0
  -26.2788  -15.6290   20.0815 H   0  0  0  0  0  0
  -26.7133  -32.5517   23.1156 H   0  0  0  0  0  0
  -25.0061  -33.9771   25.0471 H   0  0  0  0  0  0
  -22.6985  -31.3085   21.4098 H   0  0  0  0  0  0
  -23.3747  -35.9646   23.3315 H   0  0  0  0  0  0
  -24.3583  -36.8909   22.2048 H   0  0  0  0  0  0
  -23.7241  -37.6517   23.6643 H   0  0  0  0  0  0
  -26.0692  -31.5776   20.6079 H   0  0  0  0  0  0
  -26.8284  -30.8643   22.0006 H   0  0  0  0  0  0
  -28.0961  -29.0270   21.2219 H   0  0  0  0  0  0
  -26.0558  -26.0161   18.9099 H   0  0  0  0  0  0
  -23.9893  -27.3403   18.9649 H   0  0  0  0  0  0
  -23.7344  -30.6069   19.4066 H   0  0  0  0  0  0
  -22.7442  -29.2537   19.8630 H   0  0  0  0  0  0
  -25.1287  -36.1974   25.0826 H   0  0  0  0  0  0
  -20.9969  -28.3245   24.1420 H   0  0  0  0  0  0
  -20.5666  -26.2285   23.3608 H   0  0  0  0  0  0
  -21.6639  -26.7438   22.1209 H   0  0  0  0  0  0
  -19.6911  -25.6295   21.1236 H   0  0  0  0  0  0
  -19.6686  -27.3197   20.6744 H   0  0  0  0  0  0
  -17.4194  -26.6670   21.4027 H   0  0  0  0  0  0
  -18.0330  -26.0062   22.9018 H   0  0  0  0  0  0
  -19.7933  -30.7255   24.2286 H   0  0  0  0  0  0
  -17.5016  -31.6267   24.5161 H   0  0  0  0  0  0
  -15.5351  -30.2997   23.7639 H   0  0  0  0  0  0
  -15.8665  -28.0823   22.7068 H   0  0  0  0  0  0
  -24.5917  -30.7051   25.7826 H   0  0  0  0  0  0
  -24.8930  -32.2867   26.4928 H   0  0  0  0  0  0
  -25.8095  -30.8887   27.0242 H   0  0  0  0  0  0
  -26.2882  -29.6782   24.1185 H   0  0  0  0  0  0
  -27.4062  -29.7270   25.4619 H   0  0  0  0  0  0
  -27.8731  -30.4333   23.9329 H   0  0  0  0  0  0
  -27.2671  -33.3615   26.2095 H   0  0  0  0  0  0
  -28.3853  -32.6898   25.0317 H   0  0  0  0  0  0
  -28.0739  -31.8438   26.5397 H   0  0  0  0  0  0
  -28.2609  -38.0100   24.7504 H   0  0  0  0  0  0
  -28.1064  -36.2631   24.6305 H   0  0  0  0  0  0
  -27.2298  -37.1481   25.8870 H   0  0  0  0  0  0
  -20.9321  -29.8770   21.6930 H   0  0  0  0  0  0
  -26.0185  -38.2872   24.1397 H   0  0  0  0  0  0
  -30.4298  -23.6915   22.8031 H   0  0  0  0  0  0
  -27.0311  -23.7545   21.7140 H   0  0  0  0  0  0
  -26.6102  -24.2375   20.0839 H   0  0  0  0  0  0
  -26.2045  -25.2581   21.4730 H   0  0  0  0  0  0
  -28.7126  -24.9544   23.0459 H   0  0  0  0  0  0
  -28.1196  -26.5548   22.7015 H   0  0  0  0  0  0
  -29.7885  -26.1586   22.3259 H   0  0  0  0  0  0
  -30.8534  -19.6105   20.1073 H   0  0  0  0  0  0
  -29.1279  -19.8257   20.1306 H   0  0  0  0  0  0
  -30.4714  -18.0455   22.2369 H   0  0  0  0  0  0
  -28.8011  -18.0366   21.7488 H   0  0  0  0  0  0
  -29.3105  -24.5183   19.1902 H   0  0  0  0  0  0
  -30.4029  -24.6430   20.5020 H   0  0  0  0  0  0
  -29.7322  -22.3301   19.4879 H   0  0  0  0  0  0
  -28.2271  -22.4161   20.3184 H   0  0  0  0  0  0
  -31.2326  -17.1162   20.1030 H   0  0  0  0  0  0
  -29.6164  -17.1240   19.4675 H   0  0  0  0  0  0
  -29.0097  -15.4064   21.2128 H   0  0  0  0  0  0
  1 25  1  0  0  0
  1 30  2  0  0  0
  1 84  1  0  0  0
  2  3  1  0  0  0
  2 25  1  0  0  0
  2 85  1  0  0  0
  2 86  1  0  0  0
  3  4  1  0  0  0
  3 87  1  0  0  0
  3 88  1  0  0  0
  4  5  1  0  0  0
  4 89  1  0  0  0
  4 90  1  0  0  0
  5  6  1  0  0  0
  5 26  1  0  0  0
  5 91  1  0  0  0
  6 25  1  0  0  0
  6 92  1  0  0  0
  6 93  1  0  0  0
  7  8  2  0  0  0
  7 26  1  0  0  0
  7 29  1  0  0  0
  8  9  1  0  0  0
  8 22  1  0  0  0
  9 10  1  0  0  0
  9 27  2  0  0  0
 10 11  2  0  0  0
 10 15  1  0  0  0
 11 12  1  0  0  0
 11 94  1  0  0  0
 12 13  2  0  0  0
 12 95  1  0  0  0
 13 14  1  0  0  0
 13 31  1  0  0  0
 14 15  2  0  0  0
 14 96  1  0  0  0
 15 97  1  0  0  0
 16 17  2  0  0  0
 16 21  1  0  0  0
 16 31  1  0  0  0
 17 18  1  0  0  0
 17 98  1  0  0  0
 18 19  2  0  0  0
 18 99  1  0  0  0
 19 20  1  0  0  0
 19 24  1  0  0  0
 20 21  2  0  0  0
 20100  1  0  0  0
 21 23  1  0  0  0
 22 28  1  0  0  0
 22 32  2  0  0  0
 26 27  1  0  0  0
 28101  1  0  0  0
 28102  1  0  0  0
 29103  1  0  0  0
 29104  1  0  0  0
 33 34  1  0  0  0
 33 66  1  0  0  0
 33 70  2  0  0  0
 34 36  1  0  0  0
 34 59  1  0  0  0
 34105  1  0  0  0
 35 44  2  0  0  0
 35 45  1  0  0  0
 35 68  1  0  0  0
 36 56  1  0  0  0
 36106  1  0  0  0
 37 39  1  0  0  0
 37 47  1  0  0  0
 37 66  1  0  0  0
 37107  1  0  0  0
 38 43  2  0  0  0
 38 46  1  0  0  0
 38 47  1  0  0  0
 39 64  1  0  0  0
 39 67  2  0  0  0
 40 52  1  0  0  0
 40 53  2  0  0  0
 40 58  1  0  0  0
 41108  1  0  0  0
 41109  1  0  0  0
 41110  1  0  0  0
 41 48  1  0  0  0
 42 43  1  0  0  0
 42 66  1  0  0  0
 42111  1  0  0  0
 42112  1  0  0  0
 43 44  1  0  0  0
 44113  1  0  0  0
 45 46  2  0  0  0
 45114  1  0  0  0
 46115  1  0  0  0
 47116  1  0  0  0
 47117  1  0  0  0
 48 56  1  0  0  0
 48 65  1  0  0  0
 48118  1  0  0  0
 49 50  1  0  0  0
 49 53  1  0  0  0
 49 64  1  0  0  0
 49119  1  0  0  0
 50 51  1  0  0  0
 50120  1  0  0  0
 50121  1  0  0  0
 51 52  1  0  0  0
 51122  1  0  0  0
 51123  1  0  0  0
 52124  1  0  0  0
 52125  1  0  0  0
 53 54  1  0  0  0
 54 55  2  0  0  0
 54126  1  0  0  0
 55 57  1  0  0  0
 55127  1  0  0  0
 56 69  2  0  0  0
 57 58  2  0  0  0
 57128  1  0  0  0
 58129  1  0  0  0
 59 60  1  0  0  0
 59 61  1  0  0  0
 59 62  1  0  0  0
 60130  1  0  0  0
 60131  1  0  0  0
 60132  1  0  0  0
 61133  1  0  0  0
 61134  1  0  0  0
 61135  1  0  0  0
 62136  1  0  0  0
 62137  1  0  0  0
 62138  1  0  0  0
 63 65  1  0  0  0
 63139  1  0  0  0
 63140  1  0  0  0
 63141  1  0  0  0
 64142  1  0  0  0
 65143  1  0  0  0
 68 80  1  0  0  0
 71 81  2  0  0  0
 71 83  1  0  0  0
 71144  1  0  0  0
 72 75  1  0  0  0
 72 82  2  0  0  0
 72 83  1  0  0  0
 73145  1  0  0  0
 73146  1  0  0  0
 73147  1  0  0  0
 73 80  1  0  0  0
 74 80  1  0  0  0
 74148  1  0  0  0
 74149  1  0  0  0
 74150  1  0  0  0
 75 76  1  0  0  0
 75151  1  0  0  0
 75152  1  0  0  0
 76 79  1  0  0  0
 76153  1  0  0  0
 76154  1  0  0  0
 77 78  1  0  0  0
 77 80  1  0  0  0
 77155  1  0  0  0
 77156  1  0  0  0
 78 83  1  0  0  0
 78157  1  0  0  0
 78158  1  0  0  0
 79 84  1  0  0  0
 79159  1  0  0  0
 79160  1  0  0  0
 81 82  1  0  0  0
 84161  1  0  0  0
M  ISO  4   1 100  68 101  80 101  84 100
M  END
> <chiral flag>
0

> <version>
0

> <s_m_source_file>
/data/baiqing/PycharmProjects/Reinvent-master-3.2/result/LINK_invent/BTK/process_docking_weight1_custom_sum_contain_oxygen_bond_distance_aromatic_linkinvent_7_9_3/rearranged_h_0076.sdf

> <i_m_source_file_index>
22

> <r_mmod_Potential_Energy-OPLS-2005>
-16.7153949737549

> <r_mmod_Stretch_Energy-OPLS-2005>
56.9162788391113

> <r_mmod_Bend_Energy-OPLS-2005>
137.857131958008

> <r_mmod_Torsional_Energy-OPLS-2005>
256.918304443359

> <r_mmod_Improper_Torsional_Energy-OPLS-2005>
7.24031400680542

> <r_mmod_Van_der_Waal_Energy-OPLS-2005>
132.601608276367

> <r_mmod_Electrostatic_Energy-OPLS-2005>
-390.180267333984

> <r_mmod_Solvation_Energy-OPLS-2005>
-242.902572631836

> <b_mmod_Minimization_Converged-OPLS-2005>
0

> <r_mmod_RMS_Derivative-OPLS-2005>
0.600941300392151

$$$$
22
                    3D
 Structure written by MMmdl.
169177  0  0  1  0            999 V2000
  -30.7142  -14.4305   20.5660 C   0  0  0  0  0  0
  -30.4257  -12.2916   19.3868 C   0  0  0  0  0  0
  -29.4913  -12.5152   18.1787 C   0  0  0  0  0  0
  -28.0131  -12.3726   18.6044 C   0  0  0  0  0  0
  -27.6710  -13.1984   19.8743 C   0  0  2  0  0  0
  -28.7172  -12.9524   20.9831 C   0  0  0  0  0  0
  -25.2663  -13.8163   20.5697 C   0  0  0  0  0  0
  -24.1874  -13.0464   20.9155 C   0  0  0  0  0  0
  -24.6390  -11.6916   20.8669 C   0  0  0  0  0  0
  -23.9005  -10.4327   21.0361 C   0  0  0  0  0  0
  -24.3575   -9.4251   21.9149 C   0  0  0  0  0  0
  -23.6298   -8.2270   22.0726 C   0  0  0  0  0  0
  -22.4281   -8.0264   21.3513 C   0  0  0  0  0  0
  -21.9877   -9.0242   20.4633 C   0  0  0  0  0  0
  -22.7154  -10.2150   20.3036 C   0  0  0  0  0  0
  -21.6884   -6.0721   22.5259 C   0  0  0  0  0  0
  -21.4034   -6.5627   23.8197 C   0  0  0  0  0  0
  -21.3667   -5.6758   24.9154 C   0  0  0  0  0  0
  -21.6060   -4.3025   24.7210 C   0  0  0  0  0  0
  -21.8831   -3.8121   23.4328 C   0  0  0  0  0  0
  -21.9226   -4.6944   22.3384 C   0  0  0  0  0  0
  -22.7897  -13.5276   21.1796 C   0  0  0  0  0  0
  -22.1670   -4.2115   21.0961 F   0  0  0  0  0  0
  -21.5625   -3.4517   25.7730 F   0  0  0  0  0  0
  -30.0452  -13.2580   20.4220 N   0  0  0  0  0  0
  -26.3081  -12.9300   20.3370 N   0  0  0  0  0  0
  -25.9324  -11.6455   20.5721 N   0  0  0  0  0  0
  -22.0502  -12.8326   22.0380 N   0  0  0  0  0  0
  -25.4435  -15.1876   20.4172 N   0  0  0  0  0  0
  -31.8293  -14.6425   20.0871 O   0  0  0  0  0  0
  -21.6647   -6.8861   21.4225 O   0  0  0  0  0  0
  -22.3595  -14.5588   20.6616 O   0  0  0  0  0  0
  -24.6134  -31.8705   23.2147 C   0  0  0  0  0  0
  -25.9032  -32.4843   23.8445 C   0  0  1  0  0  0
  -27.2420  -27.4707   20.0892 C   0  0  0  0  0  0
  -25.5903  -33.8646   24.2366 N   0  0  0  0  0  0
  -23.4012  -30.4929   21.5545 C   0  0  2  0  0  0
  -24.8496  -28.9639   20.1175 C   0  0  0  0  0  0
  -22.7419  -29.4657   22.5022 C   0  0  0  0  0  0
  -18.0272  -28.1384   22.8496 C   0  0  0  0  0  0
  -24.1483  -36.7315   23.2638 C   0  0  0  0  0  0
  -25.9277  -30.8443   21.3664 C   0  0  0  0  0  0
  -26.0070  -29.4835   20.7097 C   0  0  0  0  0  0
  -27.2102  -28.7486   20.6949 C   0  0  0  0  0  0
  -26.0652  -26.9507   19.5158 C   0  0  0  0  0  0
  -24.8703  -27.6928   19.5170 C   0  0  0  0  0  0
  -23.6099  -29.8261   20.1684 C   0  0  0  0  0  0
  -25.4103  -36.3130   24.0352 C   0  0  1  0  0  0
  -20.5864  -28.3655   23.1336 C   0  0  2  0  0  0
  -20.6759  -26.9396   22.5430 C   0  0  0  0  0  0
  -19.5738  -26.6381   21.5227 C   0  0  0  0  0  0
  -18.1912  -26.7931   22.1627 C   0  0  0  0  0  0
  -19.1520  -28.8839   23.2915 C   0  0  0  0  0  0
  -18.9443  -30.1445   23.8921 C   0  0  0  0  0  0
  -17.6449  -30.6583   24.0563 C   0  0  0  0  0  0
  -25.9030  -34.9493   23.5151 C   0  0  0  0  0  0
  -16.5336  -29.9087   23.6326 C   0  0  0  0  0  0
  -16.7259  -28.6499   23.0346 C   0  0  0  0  0  0
  -26.4460  -31.6622   25.0768 C   0  0  0  0  0  0
  -25.3719  -31.3729   26.1515 C   0  0  0  0  0  0
  -27.0284  -30.3067   24.6128 C   0  0  0  0  0  0
  -27.6061  -32.4335   25.7497 C   0  0  0  0  0  0
  -27.5595  -37.1804   24.8458 C   0  0  0  0  0  0
  -21.4149  -29.3021   22.3759 N   0  0  0  0  0  0
  -26.4293  -37.3812   23.9427 N   0  0  0  0  0  0
  -24.6649  -31.0836   22.1024 N   0  0  0  0  0  0
  -23.4196  -28.8195   23.3059 O   0  0  0  0  0  0
  -28.3476  -26.6607   20.0458 O   0  0  0  0  0  0
  -26.5579  -34.8932   22.4704 O   0  0  0  0  0  0
  -23.5332  -32.1449   23.7537 O   0  0  0  0  0  0
  -31.4110  -19.4257   18.5197 C   0  0  0  0  0  0
  -31.5790  -20.7374   18.1766 C   0  0  0  0  0  0
  -29.3865  -20.3815   18.4939 C   0  0  0  0  0  0
  -30.0231  -19.1861   18.7393 C   0  0  0  0  0  0
  -28.0787  -17.5518   18.5136 C   0  0  0  0  0  0
  -32.0918  -26.6117   20.0101 C   0  0  0  0  0  0
  -30.5158  -23.6653   19.0318 C   0  0  0  0  0  0
  -30.4258  -25.1721   18.7065 C   0  0  0  0  0  0
  -29.3606  -17.7610   20.7271 C   0  0  0  0  0  0
  -30.1130  -22.7482   17.8607 C   0  0  0  0  0  0
  -30.3973  -16.7964   21.3396 C   0  0  0  0  0  0
  -29.6397  -27.2443   20.0154 C   0  0  0  0  0  0
  -29.4292  -17.8597   19.1825 C   0  0  2  0  0  0
  -30.6514  -26.0823   19.9442 C   0  0  2  0  0  0
  -30.3393  -21.3407   18.1696 N   0  0  0  0  0  0
  -30.0060  -15.3986   21.1584 N   0  0  0  0  0  0
  -31.4701  -12.3903   19.0815 H   0  0  0  0  0  0
  -30.3198  -11.2724   19.7636 H   0  0  0  0  0  0
  -29.7317  -11.8043   17.3874 H   0  0  0  0  0  0
  -29.6533  -13.5068   17.7556 H   0  0  0  0  0  0
  -27.8303  -11.3139   18.7849 H   0  0  0  0  0  0
  -27.3593  -12.6662   17.7821 H   0  0  0  0  0  0
  -27.7251  -14.2489   19.5849 H   0  0  0  0  0  0
  -28.6957  -11.9099   21.3086 H   0  0  0  0  0  0
  -28.4860  -13.5384   21.8726 H   0  0  0  0  0  0
  -25.2743   -9.5764   22.4676 H   0  0  0  0  0  0
  -24.0030   -7.4693   22.7471 H   0  0  0  0  0  0
  -21.0787   -8.8747   19.8985 H   0  0  0  0  0  0
  -22.3596  -10.9655   19.6125 H   0  0  0  0  0  0
  -21.1997   -7.6134   23.9700 H   0  0  0  0  0  0
  -21.1476   -6.0471   25.9058 H   0  0  0  0  0  0
  -22.0610   -2.7582   23.2821 H   0  0  0  0  0  0
  -22.4104  -12.0024   22.4831 H   0  0  0  0  0  0
  -21.1110  -13.1373   22.2534 H   0  0  0  0  0  0
  -24.6801  -15.8422   20.5542 H   0  0  0  0  0  0
  -26.2951  -15.6325   20.1027 H   0  0  0  0  0  0
  -26.7110  -32.5566   23.1227 H   0  0  0  0  0  0
  -25.0101  -33.9814   25.0543 H   0  0  0  0  0  0
  -22.6895  -31.3088   21.4175 H   0  0  0  0  0  0
  -23.3759  -35.9635   23.3302 H   0  0  0  0  0  0
  -24.3586  -36.8917   22.2055 H   0  0  0  0  0  0
  -23.7210  -37.6516   23.6633 H   0  0  0  0  0  0
  -26.0458  -31.6132   20.6021 H   0  0  0  0  0  0
  -26.8139  -30.8923   21.9870 H   0  0  0  0  0  0
  -28.0916  -29.1590   21.1647 H   0  0  0  0  0  0
  -26.0783  -25.9690   19.0609 H   0  0  0  0  0  0
  -23.9798  -27.2827   19.0624 H   0  0  0  0  0  0
  -23.7183  -30.6016   19.4099 H   0  0  0  0  0  0
  -22.7353  -29.2446   19.8725 H   0  0  0  0  0  0
  -25.1270  -36.2012   25.0843 H   0  0  0  0  0  0
  -20.9946  -28.3208   24.1460 H   0  0  0  0  0  0
  -20.5659  -26.2264   23.3610 H   0  0  0  0  0  0
  -21.6630  -26.7440   22.1225 H   0  0  0  0  0  0
  -19.6893  -25.6293   21.1246 H   0  0  0  0  0  0
  -19.6683  -27.3196   20.6761 H   0  0  0  0  0  0
  -17.4195  -26.6703   21.4014 H   0  0  0  0  0  0
  -18.0289  -26.0069   22.9006 H   0  0  0  0  0  0
  -19.7918  -30.7256   24.2307 H   0  0  0  0  0  0
  -17.4995  -31.6263   24.5163 H   0  0  0  0  0  0
  -15.5338  -30.2986   23.7634 H   0  0  0  0  0  0
  -15.8661  -28.0819   22.7053 H   0  0  0  0  0  0
  -24.5908  -30.7052   25.7862 H   0  0  0  0  0  0
  -24.8878  -32.2875   26.4950 H   0  0  0  0  0  0
  -25.8068  -30.8924   27.0287 H   0  0  0  0  0  0
  -26.2829  -29.6855   24.1148 H   0  0  0  0  0  0
  -27.4028  -29.7285   25.4588 H   0  0  0  0  0  0
  -27.8682  -30.4409   23.9302 H   0  0  0  0  0  0
  -27.2720  -33.3644   26.2088 H   0  0  0  0  0  0
  -28.3838  -32.6879   25.0283 H   0  0  0  0  0  0
  -28.0763  -31.8451   26.5384 H   0  0  0  0  0  0
  -28.2599  -38.0116   24.7556 H   0  0  0  0  0  0
  -28.1103  -36.2659   24.6211 H   0  0  0  0  0  0
  -27.2331  -37.1371   25.8862 H   0  0  0  0  0  0
  -20.9322  -29.8759   21.6987 H   0  0  0  0  0  0
  -26.0194  -38.2893   24.1443 H   0  0  0  0  0  0
  -32.2134  -18.7072   18.6181 H   0  0  0  0  0  0
  -32.4707  -21.3051   17.9443 H   0  0  0  0  0  0
  -28.3360  -20.6413   18.5397 H   0  0  0  0  0  0
  -28.1873  -17.4680   17.4326 H   0  0  0  0  0  0
  -27.3248  -18.3086   18.7264 H   0  0  0  0  0  0
  -27.6911  -16.5930   18.8595 H   0  0  0  0  0  0
  -32.8183  -25.8125   19.8612 H   0  0  0  0  0  0
  -32.2964  -27.0685   20.9799 H   0  0  0  0  0  0
  -32.2706  -27.3708   19.2473 H   0  0  0  0  0  0
  -29.8688  -23.4325   19.8799 H   0  0  0  0  0  0
  -31.5317  -23.4309   19.3513 H   0  0  0  0  0  0
  -29.4445  -25.3625   18.2728 H   0  0  0  0  0  0
  -31.1351  -25.4260   17.9182 H   0  0  0  0  0  0
  -29.4999  -18.7546   21.1565 H   0  0  0  0  0  0
  -28.3603  -17.4574   21.0476 H   0  0  0  0  0  0
  -30.6991  -22.9987   16.9771 H   0  0  0  0  0  0
  -29.0665  -22.8987   17.5955 H   0  0  0  0  0  0
  -30.4801  -16.9660   22.4132 H   0  0  0  0  0  0
  -31.3828  -17.0022   20.9204 H   0  0  0  0  0  0
  -29.7330  -27.8983   19.1470 H   0  0  0  0  0  0
  -29.8240  -27.8360   20.9115 H   0  0  0  0  0  0
  -30.1174  -17.0920   18.8220 H   0  0  0  0  0  0
  -30.4900  -25.4791   20.8380 H   0  0  0  0  0  0
  -29.0876  -15.1347   21.4808 H   0  0  0  0  0  0
  1 25  1  0  0  0
  1 30  2  0  0  0
  1 86  1  0  0  0
  2  3  1  0  0  0
  2 25  1  0  0  0
  2 87  1  0  0  0
  2 88  1  0  0  0
  3  4  1  0  0  0
  3 89  1  0  0  0
  3 90  1  0  0  0
  4  5  1  0  0  0
  4 91  1  0  0  0
  4 92  1  0  0  0
  5  6  1  0  0  0
  5 26  1  0  0  0
  5 93  1  0  0  0
  6 25  1  0  0  0
  6 94  1  0  0  0
  6 95  1  0  0  0
  7  8  2  0  0  0
  7 26  1  0  0  0
  7 29  1  0  0  0
  8  9  1  0  0  0
  8 22  1  0  0  0
  9 10  1  0  0  0
  9 27  2  0  0  0
 10 11  2  0  0  0
 10 15  1  0  0  0
 11 12  1  0  0  0
 11 96  1  0  0  0
 12 13  2  0  0  0
 12 97  1  0  0  0
 13 14  1  0  0  0
 13 31  1  0  0  0
 14 15  2  0  0  0
 14 98  1  0  0  0
 15 99  1  0  0  0
 16 17  2  0  0  0
 16 21  1  0  0  0
 16 31  1  0  0  0
 17 18  1  0  0  0
 17100  1  0  0  0
 18 19  2  0  0  0
 18101  1  0  0  0
 19 20  1  0  0  0
 19 24  1  0  0  0
 20 21  2  0  0  0
 20102  1  0  0  0
 21 23  1  0  0  0
 22 28  1  0  0  0
 22 32  2  0  0  0
 26 27  1  0  0  0
 28103  1  0  0  0
 28104  1  0  0  0
 29105  1  0  0  0
 29106  1  0  0  0
 33 34  1  0  0  0
 33 66  1  0  0  0
 33 70  2  0  0  0
 34 36  1  0  0  0
 34 59  1  0  0  0
 34107  1  0  0  0
 35 44  2  0  0  0
 35 45  1  0  0  0
 35 68  1  0  0  0
 36 56  1  0  0  0
 36108  1  0  0  0
 37 39  1  0  0  0
 37 47  1  0  0  0
 37 66  1  0  0  0
 37109  1  0  0  0
 38 43  2  0  0  0
 38 46  1  0  0  0
 38 47  1  0  0  0
 39 64  1  0  0  0
 39 67  2  0  0  0
 40 52  1  0  0  0
 40 53  2  0  0  0
 40 58  1  0  0  0
 41110  1  0  0  0
 41111  1  0  0  0
 41112  1  0  0  0
 41 48  1  0  0  0
 42 43  1  0  0  0
 42 66  1  0  0  0
 42113  1  0  0  0
 42114  1  0  0  0
 43 44  1  0  0  0
 44115  1  0  0  0
 45 46  2  0  0  0
 45116  1  0  0  0
 46117  1  0  0  0
 47118  1  0  0  0
 47119  1  0  0  0
 48 56  1  0  0  0
 48 65  1  0  0  0
 48120  1  0  0  0
 49 50  1  0  0  0
 49 53  1  0  0  0
 49 64  1  0  0  0
 49121  1  0  0  0
 50 51  1  0  0  0
 50122  1  0  0  0
 50123  1  0  0  0
 51 52  1  0  0  0
 51124  1  0  0  0
 51125  1  0  0  0
 52126  1  0  0  0
 52127  1  0  0  0
 53 54  1  0  0  0
 54 55  2  0  0  0
 54128  1  0  0  0
 55 57  1  0  0  0
 55129  1  0  0  0
 56 69  2  0  0  0
 57 58  2  0  0  0
 57130  1  0  0  0
 58131  1  0  0  0
 59 60  1  0  0  0
 59 61  1  0  0  0
 59 62  1  0  0  0
 60132  1  0  0  0
 60133  1  0  0  0
 60134  1  0  0  0
 61135  1  0  0  0
 61136  1  0  0  0
 61137  1  0  0  0
 62138  1  0  0  0
 62139  1  0  0  0
 62140  1  0  0  0
 63 65  1  0  0  0
 63141  1  0  0  0
 63142  1  0  0  0
 63143  1  0  0  0
 64144  1  0  0  0
 65145  1  0  0  0
 68 82  1  0  0  0
 71 72  2  0  0  0
 71 74  1  0  0  0
 71146  1  0  0  0
 72 85  1  0  0  0
 72147  1  0  0  0
 73 74  2  0  0  0
 73 85  1  0  0  0
 73148  1  0  0  0
 74 83  1  0  0  0
 75149  1  0  0  0
 75150  1  0  0  0
 75151  1  0  0  0
 75 83  1  0  0  0
 76152  1  0  0  0
 76153  1  0  0  0
 76154  1  0  0  0
 76 84  1  0  0  0
 77 78  1  0  0  0
 77 80  1  0  0  0
 77155  1  0  0  0
 77156  1  0  0  0
 78 84  1  0  0  0
 78157  1  0  0  0
 78158  1  0  0  0
 79 81  1  0  0  0
 79 83  1  0  0  0
 79159  1  0  0  0
 79160  1  0  0  0
 80 85  1  0  0  0
 80161  1  0  0  0
 80162  1  0  0  0
 81 86  1  0  0  0
 81163  1  0  0  0
 81164  1  0  0  0
 82 84  1  0  0  0
 82165  1  0  0  0
 82166  1  0  0  0
 83167  1  0  0  0
 84168  1  0  0  0
 86169  1  0  0  0
M  ISO  4   1 100  68 101  82 101  86 100
M  END
> <chiral flag>
0

> <version>
0

> <s_m_source_file>
/data/baiqing/PycharmProjects/Reinvent-master-3.2/result/LINK_invent/BTK/process_docking_weight1_custom_sum_contain_oxygen_bond_distance_aromatic_linkinvent_7_9_3/rearranged_h_0076.sdf

> <i_m_source_file_index>
23

> <r_mmod_Potential_Energy-OPLS-2005>
-67.5522918701172

> <r_mmod_Stretch_Energy-OPLS-2005>
32.1236267089844

> <r_mmod_Bend_Energy-OPLS-2005>
101.079154968262

> <r_mmod_Torsional_Energy-OPLS-2005>
240.995712280273

> <r_mmod_Improper_Torsional_Energy-OPLS-2005>
3.02434802055359

> <r_mmod_Van_der_Waal_Energy-OPLS-2005>
123.178108215332

> <r_mmod_Electrostatic_Energy-OPLS-2005>
-374.357788085938

> <r_mmod_Solvation_Energy-OPLS-2005>
-203.638961791992

> <b_mmod_Minimization_Converged-OPLS-2005>
0

> <r_mmod_RMS_Derivative-OPLS-2005>
4.38402891159058

$$$$
23
                    3D
 Structure written by MMmdl.
166174  0  0  1  0            999 V2000
  -30.7182  -14.4879   20.6317 C   0  0  0  0  0  0
  -30.4260  -12.3359   19.4467 C   0  0  0  0  0  0
  -29.5098  -12.5255   18.2216 C   0  0  0  0  0  0
  -28.0329  -12.3568   18.6268 C   0  0  0  0  0  0
  -27.6616  -13.2128   19.8699 C   0  0  2  0  0  0
  -28.6915  -13.0241   21.0056 C   0  0  0  0  0  0
  -25.2573  -13.8157   20.5615 C   0  0  0  0  0  0
  -24.1824  -13.0430   20.9084 C   0  0  0  0  0  0
  -24.6390  -11.6897   20.8654 C   0  0  0  0  0  0
  -23.9050  -10.4295   21.0377 C   0  0  0  0  0  0
  -24.3601   -9.4222   21.9160 C   0  0  0  0  0  0
  -23.6282   -8.2254   22.0744 C   0  0  0  0  0  0
  -22.4259   -8.0272   21.3526 C   0  0  0  0  0  0
  -21.9875   -9.0233   20.4634 C   0  0  0  0  0  0
  -22.7198  -10.2124   20.3042 C   0  0  0  0  0  0
  -21.6860   -6.0730   22.5267 C   0  0  0  0  0  0
  -21.4020   -6.5627   23.8205 C   0  0  0  0  0  0
  -21.3650   -5.6782   24.9171 C   0  0  0  0  0  0
  -21.6048   -4.3041   24.7227 C   0  0  0  0  0  0
  -21.8831   -3.8136   23.4349 C   0  0  0  0  0  0
  -21.9205   -4.6952   22.3403 C   0  0  0  0  0  0
  -22.7842  -13.5196   21.1814 C   0  0  0  0  0  0
  -22.1650   -4.2132   21.0978 F   0  0  0  0  0  0
  -21.5638   -3.4529   25.7747 F   0  0  0  0  0  0
  -30.0288  -13.3247   20.4647 N   0  0  0  0  0  0
  -26.3025  -12.9347   20.3301 N   0  0  0  0  0  0
  -25.9319  -11.6497   20.5694 N   0  0  0  0  0  0
  -22.0520  -12.8193   22.0400 N   0  0  0  0  0  0
  -25.4377  -15.1873   20.4010 N   0  0  0  0  0  0
  -31.8037  -14.6965   20.0839 O   0  0  0  0  0  0
  -21.6627   -6.8858   21.4227 O   0  0  0  0  0  0
  -22.3518  -14.5527   20.6705 O   0  0  0  0  0  0
  -24.6065  -31.8692   23.2095 C   0  0  0  0  0  0
  -25.8955  -32.4830   23.8402 C   0  0  1  0  0  0
  -27.2381  -27.4430   20.1170 C   0  0  0  0  0  0
  -25.5834  -33.8641   24.2329 N   0  0  0  0  0  0
  -23.3978  -30.4872   21.5484 C   0  0  2  0  0  0
  -24.8470  -28.9504   20.1213 C   0  0  0  0  0  0
  -22.7357  -29.4655   22.5010 C   0  0  0  0  0  0
  -18.0256  -28.1396   22.8498 C   0  0  0  0  0  0
  -24.1473  -36.7299   23.2645 C   0  0  0  0  0  0
  -25.9241  -30.8391   21.3631 C   0  0  0  0  0  0
  -26.0036  -29.4733   20.7115 C   0  0  0  0  0  0
  -27.2002  -28.7259   20.7043 C   0  0  0  0  0  0
  -26.0667  -26.9341   19.5122 C   0  0  0  0  0  0
  -24.8720  -27.6773   19.5227 C   0  0  0  0  0  0
  -23.6050  -29.8076   20.1684 C   0  0  0  0  0  0
  -25.4099  -36.3102   24.0336 C   0  0  1  0  0  0
  -20.5842  -28.3643   23.1359 C   0  0  2  0  0  0
  -20.6738  -26.9388   22.5437 C   0  0  0  0  0  0
  -19.5729  -26.6400   21.5216 C   0  0  0  0  0  0
  -18.1903  -26.7943   22.1624 C   0  0  0  0  0  0
  -19.1510  -28.8836   23.2932 C   0  0  0  0  0  0
  -18.9443  -30.1445   23.8942 C   0  0  0  0  0  0
  -17.6455  -30.6602   24.0581 C   0  0  0  0  0  0
  -25.9020  -34.9477   23.5138 C   0  0  0  0  0  0
  -16.5337  -29.9114   23.6325 C   0  0  0  0  0  0
  -16.7258  -28.6530   23.0336 C   0  0  0  0  0  0
  -26.4429  -31.6608   25.0718 C   0  0  0  0  0  0
  -25.3745  -31.3673   26.1496 C   0  0  0  0  0  0
  -27.0251  -30.3058   24.6071 C   0  0  0  0  0  0
  -27.6017  -32.4338   25.7451 C   0  0  0  0  0  0
  -27.5567  -37.1787   24.8467 C   0  0  0  0  0  0
  -21.4087  -29.3016   22.3745 N   0  0  0  0  0  0
  -26.4283  -37.3786   23.9406 N   0  0  0  0  0  0
  -24.6611  -31.0777   22.0997 N   0  0  0  0  0  0
  -23.4134  -28.8235   23.3066 O   0  0  0  0  0  0
  -28.4323  -26.7613   20.1276 O   0  0  0  0  0  0
  -26.5617  -34.8909   22.4715 O   0  0  0  0  0  0
  -23.5261  -32.1467   23.7468 O   0  0  0  0  0  0
  -29.8455  -22.7395   21.4205 C   0  0  0  0  0  0
  -29.8351  -23.2120   20.0899 C   0  0  0  0  0  0
  -29.8964  -22.1751   19.1158 C   0  0  0  0  0  0
  -30.2741  -20.5968   20.7588 C   0  0  0  0  0  0
  -28.1041  -22.5056   17.3553 C   0  0  0  0  0  0
  -30.0301  -25.2495   18.4150 C   0  0  0  0  0  0
  -30.9512  -25.3941   20.6674 C   0  0  0  0  0  0
  -29.6074  -22.3183   17.6266 C   0  0  0  0  0  0
  -30.8923  -19.2427   21.1173 C   0  0  0  0  0  0
  -29.9980  -17.9795   21.0155 C   0  0  0  0  0  0
  -30.6895  -16.7675   21.7135 C   0  0  0  0  0  0
  -28.4296  -25.3416   20.3218 C   0  0  0  0  0  0
  -29.7928  -24.7576   19.8611 C   0  0  0  0  0  0
  -30.0697  -21.4515   21.7502 N   0  0  0  0  0  0
  -30.1320  -20.8906   19.4745 N   0  0  0  0  0  0
  -30.1304  -15.4380   21.3909 N   0  0  0  0  0  0
  -31.4756  -12.4333   19.1599 H   0  0  0  0  0  0
  -30.3256  -11.3305   19.8576 H   0  0  0  0  0  0
  -29.7789  -11.8060   17.4487 H   0  0  0  0  0  0
  -29.6641  -13.5157   17.7889 H   0  0  0  0  0  0
  -27.8773  -11.3001   18.8473 H   0  0  0  0  0  0
  -27.3808  -12.5962   17.7858 H   0  0  0  0  0  0
  -27.6947  -14.2565   19.5501 H   0  0  0  0  0  0
  -28.6718  -11.9974   21.3749 H   0  0  0  0  0  0
  -28.4251  -13.6464   21.8614 H   0  0  0  0  0  0
  -25.2770   -9.5700   22.4694 H   0  0  0  0  0  0
  -24.0012   -7.4652   22.7451 H   0  0  0  0  0  0
  -21.0815   -8.8716   19.8924 H   0  0  0  0  0  0
  -22.3651  -10.9628   19.6127 H   0  0  0  0  0  0
  -21.2009   -7.6138   23.9686 H   0  0  0  0  0  0
  -21.1447   -6.0525   25.9065 H   0  0  0  0  0  0
  -22.0636   -2.7599   23.2851 H   0  0  0  0  0  0
  -22.4109  -11.9826   22.4769 H   0  0  0  0  0  0
  -21.1139  -13.1218   22.2639 H   0  0  0  0  0  0
  -24.6854  -15.8600   20.4947 H   0  0  0  0  0  0
  -26.3188  -15.6071   20.1301 H   0  0  0  0  0  0
  -26.7037  -32.5576   23.1183 H   0  0  0  0  0  0
  -24.9877  -33.9855   25.0398 H   0  0  0  0  0  0
  -22.6841  -31.3013   21.3999 H   0  0  0  0  0  0
  -23.3738  -35.9628   23.3321 H   0  0  0  0  0  0
  -24.3573  -36.8914   22.2059 H   0  0  0  0  0  0
  -23.7223  -37.6498   23.6678 H   0  0  0  0  0  0
  -26.0318  -31.6105   20.6000 H   0  0  0  0  0  0
  -26.8152  -30.8976   21.9789 H   0  0  0  0  0  0
  -28.0978  -29.1174   21.1611 H   0  0  0  0  0  0
  -26.0567  -25.9740   19.0190 H   0  0  0  0  0  0
  -23.9808  -27.2615   19.0719 H   0  0  0  0  0  0
  -23.6989  -30.5750   19.3984 H   0  0  0  0  0  0
  -22.7380  -29.2072   19.8868 H   0  0  0  0  0  0
  -25.1278  -36.1954   25.0831 H   0  0  0  0  0  0
  -20.9947  -28.3187   24.1476 H   0  0  0  0  0  0
  -20.5611  -26.2240   23.3600 H   0  0  0  0  0  0
  -21.6608  -26.7416   22.1249 H   0  0  0  0  0  0
  -19.6869  -25.6310   21.1239 H   0  0  0  0  0  0
  -19.6697  -27.3224   20.6755 H   0  0  0  0  0  0
  -17.4165  -26.6701   21.4029 H   0  0  0  0  0  0
  -18.0300  -26.0098   22.9036 H   0  0  0  0  0  0
  -19.7922  -30.7254   24.2315 H   0  0  0  0  0  0
  -17.5012  -31.6292   24.5163 H   0  0  0  0  0  0
  -15.5341  -30.3043   23.7623 H   0  0  0  0  0  0
  -15.8648  -28.0889   22.7005 H   0  0  0  0  0  0
  -24.5901  -30.7041   25.7817 H   0  0  0  0  0  0
  -24.8966  -32.2820   26.5023 H   0  0  0  0  0  0
  -25.8158  -30.8776   27.0194 H   0  0  0  0  0  0
  -26.2766  -29.6818   24.1171 H   0  0  0  0  0  0
  -27.4060  -29.7286   25.4502 H   0  0  0  0  0  0
  -27.8587  -30.4361   23.9168 H   0  0  0  0  0  0
  -27.2625  -33.3602   26.2096 H   0  0  0  0  0  0
  -28.3768  -32.6970   25.0242 H   0  0  0  0  0  0
  -28.0757  -31.8441   26.5310 H   0  0  0  0  0  0
  -28.2581  -38.0082   24.7506 H   0  0  0  0  0  0
  -28.1066  -36.2616   24.6300 H   0  0  0  0  0  0
  -27.2303  -37.1432   25.8877 H   0  0  0  0  0  0
  -20.9193  -29.8710   21.6990 H   0  0  0  0  0  0
  -26.0160  -38.2847   24.1467 H   0  0  0  0  0  0
  -29.7191  -23.4122   22.2562 H   0  0  0  0  0  0
  -27.7285  -23.4550   17.7321 H   0  0  0  0  0  0
  -27.5249  -21.7182   17.8398 H   0  0  0  0  0  0
  -27.8954  -22.4745   16.2857 H   0  0  0  0  0  0
  -30.9800  -24.9018   18.0107 H   0  0  0  0  0  0
  -30.0809  -26.3379   18.3806 H   0  0  0  0  0  0
  -29.2245  -24.9923   17.7332 H   0  0  0  0  0  0
  -31.9178  -25.0076   20.3385 H   0  0  0  0  0  0
  -30.8799  -25.2278   21.7419 H   0  0  0  0  0  0
  -30.9853  -26.4752   20.5308 H   0  0  0  0  0  0
  -29.9206  -21.4030   17.1236 H   0  0  0  0  0  0
  -30.2246  -23.0738   17.1496 H   0  0  0  0  0  0
  -31.2986  -19.3113   22.1292 H   0  0  0  0  0  0
  -31.7624  -19.0977   20.4778 H   0  0  0  0  0  0
  -29.7911  -17.7844   19.9610 H   0  0  0  0  0  0
  -29.0337  -18.1712   21.4864 H   0  0  0  0  0  0
  -30.6181  -16.9055   22.7968 H   0  0  0  0  0  0
  -31.7612  -16.7853   21.4997 H   0  0  0  0  0  0
  -28.2459  -25.1363   21.3775 H   0  0  0  0  0  0
  -27.6382  -24.8465   19.7673 H   0  0  0  0  0  0
  -29.2610  -15.1887   21.8387 H   0  0  0  0  0  0
  1 25  1  0  0  0
  1 30  2  0  0  0
  1 86  1  0  0  0
  2  3  1  0  0  0
  2 25  1  0  0  0
  2 87  1  0  0  0
  2 88  1  0  0  0
  3  4  1  0  0  0
  3 89  1  0  0  0
  3 90  1  0  0  0
  4  5  1  0  0  0
  4 91  1  0  0  0
  4 92  1  0  0  0
  5  6  1  0  0  0
  5 26  1  0  0  0
  5 93  1  0  0  0
  6 25  1  0  0  0
  6 94  1  0  0  0
  6 95  1  0  0  0
  7  8  2  0  0  0
  7 26  1  0  0  0
  7 29  1  0  0  0
  8  9  1  0  0  0
  8 22  1  0  0  0
  9 10  1  0  0  0
  9 27  2  0  0  0
 10 11  2  0  0  0
 10 15  1  0  0  0
 11 12  1  0  0  0
 11 96  1  0  0  0
 12 13  2  0  0  0
 12 97  1  0  0  0
 13 14  1  0  0  0
 13 31  1  0  0  0
 14 15  2  0  0  0
 14 98  1  0  0  0
 15 99  1  0  0  0
 16 17  2  0  0  0
 16 21  1  0  0  0
 16 31  1  0  0  0
 17 18  1  0  0  0
 17100  1  0  0  0
 18 19  2  0  0  0
 18101  1  0  0  0
 19 20  1  0  0  0
 19 24  1  0  0  0
 20 21  2  0  0  0
 20102  1  0  0  0
 21 23  1  0  0  0
 22 28  1  0  0  0
 22 32  2  0  0  0
 26 27  1  0  0  0
 28103  1  0  0  0
 28104  1  0  0  0
 29105  1  0  0  0
 29106  1  0  0  0
 33 34  1  0  0  0
 33 66  1  0  0  0
 33 70  2  0  0  0
 34 36  1  0  0  0
 34 59  1  0  0  0
 34107  1  0  0  0
 35 44  2  0  0  0
 35 45  1  0  0  0
 35 68  1  0  0  0
 36 56  1  0  0  0
 36108  1  0  0  0
 37 39  1  0  0  0
 37 47  1  0  0  0
 37 66  1  0  0  0
 37109  1  0  0  0
 38 43  2  0  0  0
 38 46  1  0  0  0
 38 47  1  0  0  0
 39 64  1  0  0  0
 39 67  2  0  0  0
 40 52  1  0  0  0
 40 53  2  0  0  0
 40 58  1  0  0  0
 41110  1  0  0  0
 41111  1  0  0  0
 41112  1  0  0  0
 41 48  1  0  0  0
 42 43  1  0  0  0
 42 66  1  0  0  0
 42113  1  0  0  0
 42114  1  0  0  0
 43 44  1  0  0  0
 44115  1  0  0  0
 45 46  2  0  0  0
 45116  1  0  0  0
 46117  1  0  0  0
 47118  1  0  0  0
 47119  1  0  0  0
 48 56  1  0  0  0
 48 65  1  0  0  0
 48120  1  0  0  0
 49 50  1  0  0  0
 49 53  1  0  0  0
 49 64  1  0  0  0
 49121  1  0  0  0
 50 51  1  0  0  0
 50122  1  0  0  0
 50123  1  0  0  0
 51 52  1  0  0  0
 51124  1  0  0  0
 51125  1  0  0  0
 52126  1  0  0  0
 52127  1  0  0  0
 53 54  1  0  0  0
 54 55  2  0  0  0
 54128  1  0  0  0
 55 57  1  0  0  0
 55129  1  0  0  0
 56 69  2  0  0  0
 57 58  2  0  0  0
 57130  1  0  0  0
 58131  1  0  0  0
 59 60  1  0  0  0
 59 61  1  0  0  0
 59 62  1  0  0  0
 60132  1  0  0  0
 60133  1  0  0  0
 60134  1  0  0  0
 61135  1  0  0  0
 61136  1  0  0  0
 61137  1  0  0  0
 62138  1  0  0  0
 62139  1  0  0  0
 62140  1  0  0  0
 63 65  1  0  0  0
 63141  1  0  0  0
 63142  1  0  0  0
 63143  1  0  0  0
 64144  1  0  0  0
 65145  1  0  0  0
 68 82  1  0  0  0
 71 72  2  0  0  0
 71 84  1  0  0  0
 71146  1  0  0  0
 72 73  1  0  0  0
 72 83  1  0  0  0
 73 78  1  0  0  0
 73 85  2  0  0  0
 74 79  1  0  0  0
 74 84  2  0  0  0
 74 85  1  0  0  0
 75 78  1  0  0  0
 75147  1  0  0  0
 75148  1  0  0  0
 75149  1  0  0  0
 76150  1  0  0  0
 76151  1  0  0  0
 76152  1  0  0  0
 76 83  1  0  0  0
 77 83  1  0  0  0
 77153  1  0  0  0
 77154  1  0  0  0
 77155  1  0  0  0
 78156  1  0  0  0
 78157  1  0  0  0
 79 80  1  0  0  0
 79158  1  0  0  0
 79159  1  0  0  0
 80 81  1  0  0  0
 80160  1  0  0  0
 80161  1  0  0  0
 81 86  1  0  0  0
 81162  1  0  0  0
 81163  1  0  0  0
 82 83  1  0  0  0
 82164  1  0  0  0
 82165  1  0  0  0
 86166  1  0  0  0
M  ISO  4   1 100  68 101  82 101  86 100
M  END
> <chiral flag>
0

> <version>
0

> <s_m_source_file>
/data/baiqing/PycharmProjects/Reinvent-master-3.2/result/LINK_invent/BTK/process_docking_weight1_custom_sum_contain_oxygen_bond_distance_aromatic_linkinvent_7_9_3/rearranged_h_0076.sdf

> <i_m_source_file_index>
24

> <r_mmod_Potential_Energy-OPLS-2005>
-443.790863037109

> <r_mmod_Stretch_Energy-OPLS-2005>
42.0740776062012

> <r_mmod_Bend_Energy-OPLS-2005>
131.040725708008

> <r_mmod_Torsional_Energy-OPLS-2005>
203.096008300781

> <r_mmod_Improper_Torsional_Energy-OPLS-2005>
2.9342896938324

> <r_mmod_Van_der_Waal_Energy-OPLS-2005>
175.280197143555

> <r_mmod_Electrostatic_Energy-OPLS-2005>
-789.321472167969

> <r_mmod_Solvation_Energy-OPLS-2005>
-222.57292175293

> <b_mmod_Minimization_Converged-OPLS-2005>
0

> <r_mmod_RMS_Derivative-OPLS-2005>
5.11221361160278

$$$$
24
                    3D
 Structure written by MMmdl.
181189  0  0  1  0            999 V2000
  -30.7044  -14.5260   20.4300 C   0  0  0  0  0  0
  -30.4141  -12.3052   19.4277 C   0  0  0  0  0  0
  -29.4816  -12.4300   18.2046 C   0  0  0  0  0  0
  -28.0063  -12.3087   18.6300 C   0  0  0  0  0  0
  -27.6455  -13.1959   19.8519 C   0  0  2  0  0  0
  -28.7022  -13.0804   20.9713 C   0  0  0  0  0  0
  -25.2537  -13.8009   20.5738 C   0  0  0  0  0  0
  -24.1798  -13.0332   20.9241 C   0  0  0  0  0  0
  -24.6364  -11.6815   20.8784 C   0  0  0  0  0  0
  -23.9031  -10.4228   21.0426 C   0  0  0  0  0  0
  -24.3601   -9.4164   21.9201 C   0  0  0  0  0  0
  -23.6284   -8.2203   22.0765 C   0  0  0  0  0  0
  -22.4271   -8.0244   21.3552 C   0  0  0  0  0  0
  -21.9894   -9.0211   20.4656 C   0  0  0  0  0  0
  -22.7207  -10.2092   20.3072 C   0  0  0  0  0  0
  -21.6835   -6.0724   22.5283 C   0  0  0  0  0  0
  -21.3995   -6.5638   23.8213 C   0  0  0  0  0  0
  -21.3665   -5.6799   24.9174 C   0  0  0  0  0  0
  -21.6055   -4.3064   24.7230 C   0  0  0  0  0  0
  -21.8818   -3.8147   23.4353 C   0  0  0  0  0  0
  -21.9191   -4.6958   22.3407 C   0  0  0  0  0  0
  -22.7835  -13.5173   21.1876 C   0  0  0  0  0  0
  -22.1656   -4.2145   21.0982 F   0  0  0  0  0  0
  -21.5645   -3.4551   25.7746 F   0  0  0  0  0  0
  -30.0163  -13.3530   20.3774 N   0  0  0  0  0  0
  -26.2964  -12.9210   20.3347 N   0  0  0  0  0  0
  -25.9294  -11.6388   20.5827 N   0  0  0  0  0  0
  -22.0466  -12.8185   22.0433 N   0  0  0  0  0  0
  -25.4159  -15.1675   20.4157 N   0  0  0  0  0  0
  -31.9275  -14.5633   20.2724 O   0  0  0  0  0  0
  -21.6630   -6.8852   21.4241 O   0  0  0  0  0  0
  -22.3546  -14.5482   20.6706 O   0  0  0  0  0  0
  -24.6146  -31.8689   23.2092 C   0  0  0  0  0  0
  -25.9043  -32.4830   23.8385 C   0  0  1  0  0  0
  -27.2370  -27.4460   20.0885 C   0  0  0  0  0  0
  -25.5891  -33.8625   24.2328 N   0  0  0  0  0  0
  -23.4014  -30.4927   21.5511 C   0  0  2  0  0  0
  -24.8458  -28.9619   20.1140 C   0  0  0  0  0  0
  -22.7427  -29.4657   22.4987 C   0  0  0  0  0  0
  -18.0271  -28.1351   22.8499 C   0  0  0  0  0  0
  -24.1488  -36.7312   23.2641 C   0  0  0  0  0  0
  -25.9291  -30.8373   21.3613 C   0  0  0  0  0  0
  -26.0050  -29.4726   20.7103 C   0  0  0  0  0  0
  -27.2002  -28.7200   20.6958 C   0  0  0  0  0  0
  -26.0556  -26.9484   19.4868 C   0  0  0  0  0  0
  -24.8657  -27.6980   19.5008 C   0  0  0  0  0  0
  -23.6080  -29.8273   20.1647 C   0  0  0  0  0  0
  -25.4102  -36.3121   24.0350 C   0  0  1  0  0  0
  -20.5869  -28.3657   23.1313 C   0  0  2  0  0  0
  -20.6763  -26.9388   22.5423 C   0  0  0  0  0  0
  -19.5731  -26.6366   21.5232 C   0  0  0  0  0  0
  -18.1908  -26.7891   22.1640 C   0  0  0  0  0  0
  -19.1524  -28.8821   23.2901 C   0  0  0  0  0  0
  -18.9455  -30.1428   23.8908 C   0  0  0  0  0  0
  -17.6457  -30.6561   24.0569 C   0  0  0  0  0  0
  -25.9027  -34.9487   23.5139 C   0  0  0  0  0  0
  -16.5348  -29.9072   23.6323 C   0  0  0  0  0  0
  -16.7264  -28.6485   23.0337 C   0  0  0  0  0  0
  -26.4474  -31.6598   25.0708 C   0  0  0  0  0  0
  -25.3743  -31.3696   26.1464 C   0  0  0  0  0  0
  -27.0287  -30.3039   24.6048 C   0  0  0  0  0  0
  -27.6051  -32.4316   25.7455 C   0  0  0  0  0  0
  -27.5583  -37.1800   24.8466 C   0  0  0  0  0  0
  -21.4150  -29.3025   22.3740 N   0  0  0  0  0  0
  -26.4290  -37.3802   23.9425 N   0  0  0  0  0  0
  -24.6666  -31.0802   22.0993 N   0  0  0  0  0  0
  -23.4199  -28.8184   23.3017 O   0  0  0  0  0  0
  -28.4243  -26.7403   20.1108 O   0  0  0  0  0  0
  -26.5594  -34.8946   22.4701 O   0  0  0  0  0  0
  -23.5341  -32.1430   23.7499 O   0  0  0  0  0  0
  -30.4871  -18.8600   20.3067 C   0  0  0  0  0  0
  -30.2785  -20.0052   19.4880 C   0  0  0  0  0  0
  -29.3979  -18.0319   20.2318 C   0  0  0  0  0  0
  -29.0399  -19.8537   18.9265 C   0  0  0  0  0  0
  -28.3567  -20.7089   17.8979 C   0  0  0  0  0  0
  -28.8286  -17.5082   23.1890 C   0  0  0  0  0  0
  -26.2276  -19.6258   21.2882 C   0  0  0  0  0  0
  -26.8876  -17.1279   18.2777 C   0  0  0  0  0  0
  -30.3859  -16.0366   18.6059 C   0  0  0  0  0  0
  -31.2756  -21.1201   19.2391 C   0  0  0  0  0  0
  -29.6442  -16.5572   22.2992 C   0  0  0  0  0  0
  -26.1801  -18.3126   20.4900 C   0  0  0  0  0  0
  -31.0144  -22.4264   20.0246 C   0  0  0  0  0  0
  -29.7903  -23.2347   19.5507 C   0  0  0  0  0  0
  -29.6963  -24.6546   20.1397 C   0  0  0  0  0  0
  -28.3954  -25.3647   19.7256 C   0  0  0  0  0  0
  -29.2662  -16.6101   20.7901 C   0  0  2  0  0  0
  -27.0357  -18.3418   19.2050 C   0  0  1  0  0  0
  -28.4382  -18.7120   19.4619 N   0  0  0  0  0  0
  -29.9979  -15.5930   19.9636 N   0  0  0  0  0  0
  -31.4568  -12.3923   19.1180 H   0  0  0  0  0  0
  -30.3156  -11.3223   19.8922 H   0  0  0  0  0  0
  -29.7214  -11.6549   17.4749 H   0  0  0  0  0  0
  -29.6335  -13.3764   17.6901 H   0  0  0  0  0  0
  -27.8278  -11.2598   18.8721 H   0  0  0  0  0  0
  -27.3497  -12.5359   17.7887 H   0  0  0  0  0  0
  -27.6552  -14.2201   19.4933 H   0  0  0  0  0  0
  -28.6952  -12.0825   21.4119 H   0  0  0  0  0  0
  -28.4788  -13.7760   21.7795 H   0  0  0  0  0  0
  -25.2749   -9.5653   22.4770 H   0  0  0  0  0  0
  -24.0008   -7.4594   22.7477 H   0  0  0  0  0  0
  -21.0830   -8.8701   19.8965 H   0  0  0  0  0  0
  -22.3651  -10.9633   19.6190 H   0  0  0  0  0  0
  -21.1960   -7.6141   23.9702 H   0  0  0  0  0  0
  -21.1504   -6.0537   25.9075 H   0  0  0  0  0  0
  -22.0600   -2.7612   23.2855 H   0  0  0  0  0  0
  -22.4055  -11.9839   22.4823 H   0  0  0  0  0  0
  -21.1094  -13.1241   22.2627 H   0  0  0  0  0  0
  -24.6389  -15.8090   20.5220 H   0  0  0  0  0  0
  -26.2505  -15.6075   20.0579 H   0  0  0  0  0  0
  -26.7118  -32.5559   23.1147 H   0  0  0  0  0  0
  -25.0081  -33.9789   25.0501 H   0  0  0  0  0  0
  -22.6911  -31.3110   21.4135 H   0  0  0  0  0  0
  -23.3771  -35.9627   23.3295 H   0  0  0  0  0  0
  -24.3598  -36.8922   22.2060 H   0  0  0  0  0  0
  -23.7217  -37.6506   23.6645 H   0  0  0  0  0  0
  -26.0400  -31.6021   20.5914 H   0  0  0  0  0  0
  -26.8190  -30.8919   21.9761 H   0  0  0  0  0  0
  -28.0971  -29.1101   21.1571 H   0  0  0  0  0  0
  -26.0297  -25.9855   18.9982 H   0  0  0  0  0  0
  -23.9756  -27.2978   19.0356 H   0  0  0  0  0  0
  -23.7155  -30.6041   19.4067 H   0  0  0  0  0  0
  -22.7322  -29.2468   19.8688 H   0  0  0  0  0  0
  -25.1278  -36.1989   25.0841 H   0  0  0  0  0  0
  -20.9962  -28.3215   24.1430 H   0  0  0  0  0  0
  -20.5682  -26.2265   23.3618 H   0  0  0  0  0  0
  -21.6628  -26.7418   22.1200 H   0  0  0  0  0  0
  -19.6903  -25.6294   21.1218 H   0  0  0  0  0  0
  -19.6648  -27.3224   20.6798 H   0  0  0  0  0  0
  -17.4189  -26.6677   21.4023 H   0  0  0  0  0  0
  -18.0271  -26.0006   22.9001 H   0  0  0  0  0  0
  -19.7932  -30.7244   24.2256 H   0  0  0  0  0  0
  -17.5013  -31.6237   24.5178 H   0  0  0  0  0  0
  -15.5348  -30.2985   23.7613 H   0  0  0  0  0  0
  -15.8658  -28.0823   22.7013 H   0  0  0  0  0  0
  -24.5925  -30.7029   25.7802 H   0  0  0  0  0  0
  -24.8938  -32.2859   26.4907 H   0  0  0  0  0  0
  -25.8114  -30.8872   27.0217 H   0  0  0  0  0  0
  -26.2801  -29.6801   24.1146 H   0  0  0  0  0  0
  -27.4124  -29.7261   25.4466 H   0  0  0  0  0  0
  -27.8610  -30.4367   23.9130 H   0  0  0  0  0  0
  -27.2672  -33.3620   26.2026 H   0  0  0  0  0  0
  -28.3847  -32.6865   25.0264 H   0  0  0  0  0  0
  -28.0728  -31.8446   26.5368 H   0  0  0  0  0  0
  -28.2589  -38.0109   24.7547 H   0  0  0  0  0  0
  -28.1091  -36.2647   24.6243 H   0  0  0  0  0  0
  -27.2319  -37.1388   25.8873 H   0  0  0  0  0  0
  -20.9315  -29.8780   21.6990 H   0  0  0  0  0  0
  -26.0191  -38.2881   24.1440 H   0  0  0  0  0  0
  -31.3901  -18.6276   20.8538 H   0  0  0  0  0  0
  -29.0361  -21.4439   17.4727 H   0  0  0  0  0  0
  -27.5101  -21.2452   18.3269 H   0  0  0  0  0  0
  -27.9970  -20.1057   17.0633 H   0  0  0  0  0  0
  -29.1080  -17.3948   24.2372 H   0  0  0  0  0  0
  -27.7619  -17.3003   23.1148 H   0  0  0  0  0  0
  -28.9874  -18.5520   22.9166 H   0  0  0  0  0  0
  -25.5731  -19.5806   22.1586 H   0  0  0  0  0  0
  -25.9096  -20.4689   20.6754 H   0  0  0  0  0  0
  -27.2353  -19.8371   21.6468 H   0  0  0  0  0  0
  -25.8368  -16.9125   18.0831 H   0  0  0  0  0  0
  -27.3412  -16.2309   18.6827 H   0  0  0  0  0  0
  -27.3593  -17.3230   17.3139 H   0  0  0  0  0  0
  -29.5582  -16.4828   18.0600 H   0  0  0  0  0  0
  -30.7596  -15.2246   17.9828 H   0  0  0  0  0  0
  -31.1925  -16.7686   18.6601 H   0  0  0  0  0  0
  -31.3261  -21.3233   18.1681 H   0  0  0  0  0  0
  -32.2625  -20.7420   19.5086 H   0  0  0  0  0  0
  -29.5130  -15.5525   22.6996 H   0  0  0  0  0  0
  -30.7028  -16.7938   22.4225 H   0  0  0  0  0  0
  -25.1438  -18.1042   20.2223 H   0  0  0  0  0  0
  -26.4880  -17.5071   21.1494 H   0  0  0  0  0  0
  -31.8983  -23.0565   19.9169 H   0  0  0  0  0  0
  -30.9316  -22.2076   21.0895 H   0  0  0  0  0  0
  -28.8835  -22.6831   19.7967 H   0  0  0  0  0  0
  -29.8196  -23.3245   18.4643 H   0  0  0  0  0  0
  -30.5519  -25.2426   19.8064 H   0  0  0  0  0  0
  -29.7545  -24.6118   21.2285 H   0  0  0  0  0  0
  -27.5589  -24.8478   20.1997 H   0  0  0  0  0  0
  -28.2590  -25.2974   18.6452 H   0  0  0  0  0  0
  -28.2271  -16.2997   20.7431 H   0  0  0  0  0  0
  -26.5753  -19.1460   18.6364 H   0  0  0  0  0  0
  1 25  1  0  0  0
  1 30  2  0  0  0
  1 90  1  0  0  0
  2  3  1  0  0  0
  2 25  1  0  0  0
  2 91  1  0  0  0
  2 92  1  0  0  0
  3  4  1  0  0  0
  3 93  1  0  0  0
  3 94  1  0  0  0
  4  5  1  0  0  0
  4 95  1  0  0  0
  4 96  1  0  0  0
  5  6  1  0  0  0
  5 26  1  0  0  0
  5 97  1  0  0  0
  6 25  1  0  0  0
  6 98  1  0  0  0
  6 99  1  0  0  0
  7  8  2  0  0  0
  7 26  1  0  0  0
  7 29  1  0  0  0
  8  9  1  0  0  0
  8 22  1  0  0  0
  9 10  1  0  0  0
  9 27  2  0  0  0
 10 11  2  0  0  0
 10 15  1  0  0  0
 11 12  1  0  0  0
 11100  1  0  0  0
 12 13  2  0  0  0
 12101  1  0  0  0
 13 14  1  0  0  0
 13 31  1  0  0  0
 14 15  2  0  0  0
 14102  1  0  0  0
 15103  1  0  0  0
 16 17  2  0  0  0
 16 21  1  0  0  0
 16 31  1  0  0  0
 17 18  1  0  0  0
 17104  1  0  0  0
 18 19  2  0  0  0
 18105  1  0  0  0
 19 20  1  0  0  0
 19 24  1  0  0  0
 20 21  2  0  0  0
 20106  1  0  0  0
 21 23  1  0  0  0
 22 28  1  0  0  0
 22 32  2  0  0  0
 26 27  1  0  0  0
 28107  1  0  0  0
 28108  1  0  0  0
 29109  1  0  0  0
 29110  1  0  0  0
 33 34  1  0  0  0
 33 66  1  0  0  0
 33 70  2  0  0  0
 34 36  1  0  0  0
 34 59  1  0  0  0
 34111  1  0  0  0
 35 44  2  0  0  0
 35 45  1  0  0  0
 35 68  1  0  0  0
 36 56  1  0  0  0
 36112  1  0  0  0
 37 39  1  0  0  0
 37 47  1  0  0  0
 37 66  1  0  0  0
 37113  1  0  0  0
 38 43  2  0  0  0
 38 46  1  0  0  0
 38 47  1  0  0  0
 39 64  1  0  0  0
 39 67  2  0  0  0
 40 52  1  0  0  0
 40 53  2  0  0  0
 40 58  1  0  0  0
 41114  1  0  0  0
 41115  1  0  0  0
 41116  1  0  0  0
 41 48  1  0  0  0
 42 43  1  0  0  0
 42 66  1  0  0  0
 42117  1  0  0  0
 42118  1  0  0  0
 43 44  1  0  0  0
 44119  1  0  0  0
 45 46  2  0  0  0
 45120  1  0  0  0
 46121  1  0  0  0
 47122  1  0  0  0
 47123  1  0  0  0
 48 56  1  0  0  0
 48 65  1  0  0  0
 48124  1  0  0  0
 49 50  1  0  0  0
 49 53  1  0  0  0
 49 64  1  0  0  0
 49125  1  0  0  0
 50 51  1  0  0  0
 50126  1  0  0  0
 50127  1  0  0  0
 51 52  1  0  0  0
 51128  1  0  0  0
 51129  1  0  0  0
 52130  1  0  0  0
 52131  1  0  0  0
 53 54  1  0  0  0
 54 55  2  0  0  0
 54132  1  0  0  0
 55 57  1  0  0  0
 55133  1  0  0  0
 56 69  2  0  0  0
 57 58  2  0  0  0
 57134  1  0  0  0
 58135  1  0  0  0
 59 60  1  0  0  0
 59 61  1  0  0  0
 59 62  1  0  0  0
 60136  1  0  0  0
 60137  1  0  0  0
 60138  1  0  0  0
 61139  1  0  0  0
 61140  1  0  0  0
 61141  1  0  0  0
 62142  1  0  0  0
 62143  1  0  0  0
 62144  1  0  0  0
 63 65  1  0  0  0
 63145  1  0  0  0
 63146  1  0  0  0
 63147  1  0  0  0
 64148  1  0  0  0
 65149  1  0  0  0
 68 86  1  0  0  0
 71 72  1  0  0  0
 71 73  2  0  0  0
 71150  1  0  0  0
 72 74  2  0  0  0
 72 80  1  0  0  0
 73 87  1  0  0  0
 73 89  1  0  0  0
 74 75  1  0  0  0
 74 89  1  0  0  0
 75151  1  0  0  0
 75152  1  0  0  0
 75153  1  0  0  0
 76 81  1  0  0  0
 76154  1  0  0  0
 76155  1  0  0  0
 76156  1  0  0  0
 77 82  1  0  0  0
 77157  1  0  0  0
 77158  1  0  0  0
 77159  1  0  0  0
 78160  1  0  0  0
 78161  1  0  0  0
 78162  1  0  0  0
 78 88  1  0  0  0
 79 90  1  0  0  0
 79163  1  0  0  0
 79164  1  0  0  0
 79165  1  0  0  0
 80 83  1  0  0  0
 80166  1  0  0  0
 80167  1  0  0  0
 81168  1  0  0  0
 81169  1  0  0  0
 81 87  1  0  0  0
 82 88  1  0  0  0
 82170  1  0  0  0
 82171  1  0  0  0
 83 84  1  0  0  0
 83172  1  0  0  0
 83173  1  0  0  0
 84 85  1  0  0  0
 84174  1  0  0  0
 84175  1  0  0  0
 85 86  1  0  0  0
 85176  1  0  0  0
 85177  1  0  0  0
 86178  1  0  0  0
 86179  1  0  0  0
 87 90  1  0  0  0
 87180  1  0  0  0
 88 89  1  0  0  0
 88181  1  0  0  0
M  ISO  4   1 100  68 101  86 101  90 100
M  END
> <chiral flag>
0

> <version>
0

> <s_m_source_file>
/data/baiqing/PycharmProjects/Reinvent-master-3.2/result/LINK_invent/BTK/process_docking_weight1_custom_sum_contain_oxygen_bond_distance_aromatic_linkinvent_7_9_3/rearranged_h_0076.sdf

> <i_m_source_file_index>
25

> <r_mmod_Potential_Energy-OPLS-2005>
156.478439331055

> <r_mmod_Stretch_Energy-OPLS-2005>
43.4467735290527

> <r_mmod_Bend_Energy-OPLS-2005>
119.810577392578

> <r_mmod_Torsional_Energy-OPLS-2005>
321.707672119141

> <r_mmod_Improper_Torsional_Energy-OPLS-2005>
27.0826511383057

> <r_mmod_Van_der_Waal_Energy-OPLS-2005>
124.947860717773

> <r_mmod_Electrostatic_Energy-OPLS-2005>
-335.633422851562

> <r_mmod_Solvation_Energy-OPLS-2005>
-176.506195068359

> <b_mmod_Minimization_Converged-OPLS-2005>
0

> <r_mmod_RMS_Derivative-OPLS-2005>
2.11097145080566

$$$$
25
                    3D
 Structure written by MMmdl.
164172  0  0  1  0            999 V2000
  -30.7345  -14.4434   20.5355 C   0  0  0  0  0  0
  -30.4046  -12.2786   19.4246 C   0  0  0  0  0  0
  -29.4876  -12.4896   18.2038 C   0  0  0  0  0  0
  -28.0096  -12.3653   18.6204 C   0  0  0  0  0  0
  -27.6595  -13.2122   19.8752 C   0  0  2  0  0  0
  -28.7029  -13.0188   20.9990 C   0  0  0  0  0  0
  -25.2584  -13.8167   20.5736 C   0  0  0  0  0  0
  -24.1831  -13.0435   20.9199 C   0  0  0  0  0  0
  -24.6380  -11.6903   20.8749 C   0  0  0  0  0  0
  -23.9073  -10.4282   21.0425 C   0  0  0  0  0  0
  -24.3605   -9.4207   21.9211 C   0  0  0  0  0  0
  -23.6278   -8.2233   22.0768 C   0  0  0  0  0  0
  -22.4269   -8.0256   21.3551 C   0  0  0  0  0  0
  -21.9901   -9.0249   20.4663 C   0  0  0  0  0  0
  -22.7236  -10.2133   20.3089 C   0  0  0  0  0  0
  -21.6847   -6.0717   22.5279 C   0  0  0  0  0  0
  -21.4015   -6.5631   23.8213 C   0  0  0  0  0  0
  -21.3675   -5.6795   24.9171 C   0  0  0  0  0  0
  -21.6042   -4.3049   24.7229 C   0  0  0  0  0  0
  -21.8816   -3.8138   23.4358 C   0  0  0  0  0  0
  -21.9189   -4.6948   22.3406 C   0  0  0  0  0  0
  -22.7858  -13.5235   21.1870 C   0  0  0  0  0  0
  -22.1663   -4.2115   21.0991 F   0  0  0  0  0  0
  -21.5634   -3.4549   25.7761 F   0  0  0  0  0  0
  -30.0332  -13.2851   20.4301 N   0  0  0  0  0  0
  -26.3021  -12.9345   20.3414 N   0  0  0  0  0  0
  -25.9308  -11.6500   20.5800 N   0  0  0  0  0  0
  -22.0500  -12.8219   22.0420 N   0  0  0  0  0  0
  -25.4277  -15.1876   20.4138 N   0  0  0  0  0  0
  -31.8856  -14.5681   20.1106 O   0  0  0  0  0  0
  -21.6640   -6.8852   21.4235 O   0  0  0  0  0  0
  -22.3544  -14.5553   20.6739 O   0  0  0  0  0  0
  -24.6079  -31.8720   23.2123 C   0  0  0  0  0  0
  -25.8988  -32.4830   23.8443 C   0  0  1  0  0  0
  -27.2226  -27.4621   20.1027 C   0  0  0  0  0  0
  -25.5873  -33.8624   24.2386 N   0  0  0  0  0  0
  -23.3932  -30.4920   21.5549 C   0  0  2  0  0  0
  -24.8413  -28.9644   20.1178 C   0  0  0  0  0  0
  -22.7350  -29.4643   22.5047 C   0  0  0  0  0  0
  -18.0264  -28.1381   22.8494 C   0  0  0  0  0  0
  -24.1737  -36.7698   23.2835 C   0  0  0  0  0  0
  -25.9173  -30.8468   21.3633 C   0  0  0  0  0  0
  -26.0001  -29.4825   20.7141 C   0  0  0  0  0  0
  -27.1955  -28.7359   20.7056 C   0  0  0  0  0  0
  -26.0565  -26.9558   19.4935 C   0  0  0  0  0  0
  -24.8627  -27.6980   19.5071 C   0  0  0  0  0  0
  -23.5993  -29.8242   20.1674 C   0  0  0  0  0  0
  -25.4297  -36.3152   24.0444 C   0  0  1  0  0  0
  -20.5812  -28.3653   23.1360 C   0  0  2  0  0  0
  -20.6761  -26.9402   22.5432 C   0  0  0  0  0  0
  -19.5745  -26.6392   21.5228 C   0  0  0  0  0  0
  -18.1909  -26.7925   22.1641 C   0  0  0  0  0  0
  -19.1485  -28.8859   23.2915 C   0  0  0  0  0  0
  -18.9424  -30.1467   23.8920 C   0  0  0  0  0  0
  -17.6421  -30.6576   24.0569 C   0  0  0  0  0  0
  -25.8979  -34.9476   23.5176 C   0  0  0  0  0  0
  -16.5327  -29.9060   23.6316 C   0  0  0  0  0  0
  -16.7245  -28.6489   23.0326 C   0  0  0  0  0  0
  -26.4419  -31.6578   25.0733 C   0  0  0  0  0  0
  -25.3752  -31.3607   26.1559 C   0  0  0  0  0  0
  -27.0202  -30.3031   24.6062 C   0  0  0  0  0  0
  -27.6062  -32.4203   25.7469 C   0  0  0  0  0  0
  -27.5415  -37.2206   24.8969 C   0  0  0  0  0  0
  -21.4095  -29.3024   22.3774 N   0  0  0  0  0  0
  -26.4826  -37.3353   23.8994 N   0  0  0  0  0  0
  -24.6580  -31.0837   22.1040 N   0  0  0  0  0  0
  -23.4128  -28.8191   23.3092 O   0  0  0  0  0  0
  -28.3778  -26.7247   20.1015 O   0  0  0  0  0  0
  -26.5601  -34.9020   22.4764 O   0  0  0  0  0  0
  -23.5304  -32.1433   23.7570 O   0  0  0  0  0  0
  -31.0236  -23.1923   18.7647 C   0  0  0  0  0  0
  -30.9899  -23.5082   20.9563 C   0  0  0  0  0  0
  -30.0965  -21.6872   20.0779 C   0  0  0  0  0  0
  -31.3862  -23.6887   17.3835 C   0  0  0  0  0  0
  -31.2585  -24.4137   22.1482 C   0  0  0  0  0  0
  -30.4487  -25.7314   22.1516 C   0  0  0  0  0  0
  -28.9171  -25.5827   22.1730 C   0  0  0  0  0  0
  -29.5456  -18.0267   20.9885 C   0  0  0  0  0  0
  -29.9233  -19.5286   21.2385 C   0  0  0  0  0  0
  -30.6245  -16.8793   20.9273 C   0  0  0  0  0  0
  -28.2692  -25.4692   20.7826 C   0  0  0  0  0  0
  -31.3777  -23.9737   19.7748 N   0  0  0  0  0  0
  -30.3776  -22.0333   18.8395 N   0  0  0  0  0  0
  -30.3434  -22.3646   21.1855 N   0  0  0  0  0  0
  -29.4807  -20.4663   20.2022 N   0  0  0  0  0  0
  -30.0536  -15.5212   20.9612 N   0  0  0  0  0  0
  -31.4533  -12.3393   19.1278 H   0  0  0  0  0  0
  -30.2694  -11.2757   19.8336 H   0  0  0  0  0  0
  -29.7159  -11.7549   17.4312 H   0  0  0  0  0  0
  -29.6675  -13.4706   17.7588 H   0  0  0  0  0  0
  -27.8175  -11.3104   18.8265 H   0  0  0  0  0  0
  -27.3564  -12.6375   17.7918 H   0  0  0  0  0  0
  -27.6987  -14.2592   19.5716 H   0  0  0  0  0  0
  -28.6671  -12.0016   21.3910 H   0  0  0  0  0  0
  -28.4835  -13.6688   21.8474 H   0  0  0  0  0  0
  -25.2740   -9.5660   22.4800 H   0  0  0  0  0  0
  -23.9977   -7.4616   22.7494 H   0  0  0  0  0  0
  -21.0825   -8.8765   19.8978 H   0  0  0  0  0  0
  -22.3684  -10.9668   19.6198 H   0  0  0  0  0  0
  -21.2015   -7.6140   23.9689 H   0  0  0  0  0  0
  -21.1514   -6.0544   25.9073 H   0  0  0  0  0  0
  -22.0585   -2.7595   23.2881 H   0  0  0  0  0  0
  -22.4099  -11.9846   22.4770 H   0  0  0  0  0  0
  -21.1129  -13.1275   22.2695 H   0  0  0  0  0  0
  -24.6634  -15.8436   20.5327 H   0  0  0  0  0  0
  -26.2815  -15.6266   20.0929 H   0  0  0  0  0  0
  -26.7084  -32.5540   23.1236 H   0  0  0  0  0  0
  -25.0189  -33.9765   25.0672 H   0  0  0  0  0  0
  -22.6798  -31.3078   21.4193 H   0  0  0  0  0  0
  -23.3646  -36.0485   23.3842 H   0  0  0  0  0  0
  -24.3696  -36.8970   22.2175 H   0  0  0  0  0  0
  -23.8158  -37.7243   23.6705 H   0  0  0  0  0  0
  -26.0136  -31.6126   20.5929 H   0  0  0  0  0  0
  -26.8080  -30.9107   21.9757 H   0  0  0  0  0  0
  -28.0878  -29.1248   21.1772 H   0  0  0  0  0  0
  -26.0719  -25.9896   19.0103 H   0  0  0  0  0  0
  -23.9710  -27.3009   19.0427 H   0  0  0  0  0  0
  -23.7043  -30.5945   19.4024 H   0  0  0  0  0  0
  -22.7214  -29.2373   19.8818 H   0  0  0  0  0  0
  -25.1753  -36.2247   25.1007 H   0  0  0  0  0  0
  -20.9906  -28.3241   24.1484 H   0  0  0  0  0  0
  -20.5722  -26.2260   23.3620 H   0  0  0  0  0  0
  -21.6638  -26.7519   22.1203 H   0  0  0  0  0  0
  -19.6931  -25.6307   21.1247 H   0  0  0  0  0  0
  -19.6677  -27.3226   20.6773 H   0  0  0  0  0  0
  -17.4191  -26.6652   21.4017 H   0  0  0  0  0  0
  -18.0321  -26.0058   22.9047 H   0  0  0  0  0  0
  -19.7912  -30.7263   24.2269 H   0  0  0  0  0  0
  -17.4991  -31.6262   24.5170 H   0  0  0  0  0  0
  -15.5318  -30.2971   23.7671 H   0  0  0  0  0  0
  -15.8654  -28.0845   22.6990 H   0  0  0  0  0  0
  -24.6000  -30.6834   25.7971 H   0  0  0  0  0  0
  -24.8843  -32.2691   26.5034 H   0  0  0  0  0  0
  -25.8188  -30.8881   27.0323 H   0  0  0  0  0  0
  -26.2784  -29.6858   24.0972 H   0  0  0  0  0  0
  -27.3799  -29.7185   25.4534 H   0  0  0  0  0  0
  -27.8662  -30.4334   23.9341 H   0  0  0  0  0  0
  -27.2669  -33.3432   26.2175 H   0  0  0  0  0  0
  -28.3763  -32.6854   25.0220 H   0  0  0  0  0  0
  -28.0749  -31.8215   26.5281 H   0  0  0  0  0  0
  -27.1784  -37.4550   25.9018 H   0  0  0  0  0  0
  -28.3301  -37.9366   24.6645 H   0  0  0  0  0  0
  -28.0002  -36.2316   24.9121 H   0  0  0  0  0  0
  -20.9223  -29.8720   21.7004 H   0  0  0  0  0  0
  -26.9165  -37.2084   22.9841 H   0  0  0  0  0  0
  -31.0755  -24.7280   17.2543 H   0  0  0  0  0  0
  -30.9053  -23.0952   16.6046 H   0  0  0  0  0  0
  -32.4644  -23.6408   17.2304 H   0  0  0  0  0  0
  -32.3205  -24.6489   22.1689 H   0  0  0  0  0  0
  -31.0594  -23.8647   23.0698 H   0  0  0  0  0  0
  -30.7461  -26.3482   21.3008 H   0  0  0  0  0  0
  -30.7442  -26.2926   23.0395 H   0  0  0  0  0  0
  -28.6410  -24.7248   22.7872 H   0  0  0  0  0  0
  -28.4875  -26.4506   22.6743 H   0  0  0  0  0  0
  -29.7938  -17.9872   22.0502 H   0  0  0  0  0  0
  -29.9262  -18.2461   19.9933 H   0  0  0  0  0  0
  -31.0092  -19.6212   21.3361 H   0  0  0  0  0  0
  -29.5068  -19.9028   22.1792 H   0  0  0  0  0  0
  -31.3678  -16.9396   21.7318 H   0  0  0  0  0  0
  -31.2552  -16.9503   20.0321 H   0  0  0  0  0  0
  -27.2374  -25.1394   20.9219 H   0  0  0  0  0  0
  -28.7327  -24.6975   20.1721 H   0  0  0  0  0  0
  -29.2999  -20.0477   19.2984 H   0  0  0  0  0  0
  -29.0971  -15.3944   21.2608 H   0  0  0  0  0  0
  1 25  1  0  0  0
  1 30  2  0  0  0
  1 86  1  0  0  0
  2  3  1  0  0  0
  2 25  1  0  0  0
  2 87  1  0  0  0
  2 88  1  0  0  0
  3  4  1  0  0  0
  3 89  1  0  0  0
  3 90  1  0  0  0
  4  5  1  0  0  0
  4 91  1  0  0  0
  4 92  1  0  0  0
  5  6  1  0  0  0
  5 26  1  0  0  0
  5 93  1  0  0  0
  6 25  1  0  0  0
  6 94  1  0  0  0
  6 95  1  0  0  0
  7  8  2  0  0  0
  7 26  1  0  0  0
  7 29  1  0  0  0
  8  9  1  0  0  0
  8 22  1  0  0  0
  9 10  1  0  0  0
  9 27  2  0  0  0
 10 11  2  0  0  0
 10 15  1  0  0  0
 11 12  1  0  0  0
 11 96  1  0  0  0
 12 13  2  0  0  0
 12 97  1  0  0  0
 13 14  1  0  0  0
 13 31  1  0  0  0
 14 15  2  0  0  0
 14 98  1  0  0  0
 15 99  1  0  0  0
 16 17  2  0  0  0
 16 21  1  0  0  0
 16 31  1  0  0  0
 17 18  1  0  0  0
 17100  1  0  0  0
 18 19  2  0  0  0
 18101  1  0  0  0
 19 20  1  0  0  0
 19 24  1  0  0  0
 20 21  2  0  0  0
 20102  1  0  0  0
 21 23  1  0  0  0
 22 28  1  0  0  0
 22 32  2  0  0  0
 26 27  1  0  0  0
 28103  1  0  0  0
 28104  1  0  0  0
 29105  1  0  0  0
 29106  1  0  0  0
 33 34  1  0  0  0
 33 66  1  0  0  0
 33 70  2  0  0  0
 34 36  1  0  0  0
 34 59  1  0  0  0
 34107  1  0  0  0
 35 44  2  0  0  0
 35 45  1  0  0  0
 35 68  1  0  0  0
 36 56  1  0  0  0
 36108  1  0  0  0
 37 39  1  0  0  0
 37 47  1  0  0  0
 37 66  1  0  0  0
 37109  1  0  0  0
 38 43  2  0  0  0
 38 46  1  0  0  0
 38 47  1  0  0  0
 39 64  1  0  0  0
 39 67  2  0  0  0
 40 52  1  0  0  0
 40 53  2  0  0  0
 40 58  1  0  0  0
 41110  1  0  0  0
 41111  1  0  0  0
 41112  1  0  0  0
 41 48  1  0  0  0
 42 43  1  0  0  0
 42 66  1  0  0  0
 42113  1  0  0  0
 42114  1  0  0  0
 43 44  1  0  0  0
 44115  1  0  0  0
 45 46  2  0  0  0
 45116  1  0  0  0
 46117  1  0  0  0
 47118  1  0  0  0
 47119  1  0  0  0
 48 56  1  0  0  0
 48 65  1  0  0  0
 48120  1  0  0  0
 49 50  1  0  0  0
 49 53  1  0  0  0
 49 64  1  0  0  0
 49121  1  0  0  0
 50 51  1  0  0  0
 50122  1  0  0  0
 50123  1  0  0  0
 51 52  1  0  0  0
 51124  1  0  0  0
 51125  1  0  0  0
 52126  1  0  0  0
 52127  1  0  0  0
 53 54  1  0  0  0
 54 55  2  0  0  0
 54128  1  0  0  0
 55 57  1  0  0  0
 55129  1  0  0  0
 56 69  2  0  0  0
 57 58  2  0  0  0
 57130  1  0  0  0
 58131  1  0  0  0
 59 60  1  0  0  0
 59 61  1  0  0  0
 59 62  1  0  0  0
 60132  1  0  0  0
 60133  1  0  0  0
 60134  1  0  0  0
 61135  1  0  0  0
 61136  1  0  0  0
 61137  1  0  0  0
 62138  1  0  0  0
 62139  1  0  0  0
 62140  1  0  0  0
 63 65  1  0  0  0
 63141  1  0  0  0
 63142  1  0  0  0
 63143  1  0  0  0
 64144  1  0  0  0
 65145  1  0  0  0
 68 81  1  0  0  0
 71 74  1  0  0  0
 71 82  2  0  0  0
 71 83  1  0  0  0
 72 75  1  0  0  0
 72 82  1  0  0  0
 72 84  2  0  0  0
 73 83  2  0  0  0
 73 84  1  0  0  0
 73 85  1  0  0  0
 74146  1  0  0  0
 74147  1  0  0  0
 74148  1  0  0  0
 75 76  1  0  0  0
 75149  1  0  0  0
 75150  1  0  0  0
 76 77  1  0  0  0
 76151  1  0  0  0
 76152  1  0  0  0
 77 81  1  0  0  0
 77153  1  0  0  0
 77154  1  0  0  0
 78 79  1  0  0  0
 78 80  1  0  0  0
 78155  1  0  0  0
 78156  1  0  0  0
 79 85  1  0  0  0
 79157  1  0  0  0
 79158  1  0  0  0
 80 86  1  0  0  0
 80159  1  0  0  0
 80160  1  0  0  0
 81161  1  0  0  0
 81162  1  0  0  0
 85163  1  0  0  0
 86164  1  0  0  0
M  ISO  4   1 100  68 101  81 101  86 100
M  END
> <chiral flag>
0

> <version>
0

> <s_m_source_file>
/data/baiqing/PycharmProjects/Reinvent-master-3.2/result/LINK_invent/BTK/process_docking_weight1_custom_sum_contain_oxygen_bond_distance_aromatic_linkinvent_7_9_3/rearranged_h_0076.sdf

> <i_m_source_file_index>
26

> <r_mmod_Potential_Energy-OPLS-2005>
-587.076232910156

> <r_mmod_Stretch_Energy-OPLS-2005>
35.3107070922852

> <r_mmod_Bend_Energy-OPLS-2005>
322.264404296875

> <r_mmod_Torsional_Energy-OPLS-2005>
234.63737487793

> <r_mmod_Improper_Torsional_Energy-OPLS-2005>
7.65577411651611

> <r_mmod_Van_der_Waal_Energy-OPLS-2005>
197.615295410156

> <r_mmod_Electrostatic_Energy-OPLS-2005>
-1170.81506347656

> <r_mmod_Solvation_Energy-OPLS-2005>
-227.061889648438

> <b_mmod_Minimization_Converged-OPLS-2005>
0

> <r_mmod_RMS_Derivative-OPLS-2005>
6.0684609413147

$$$$
26
                    3D
 Structure written by MMmdl.
165173  0  0  1  0            999 V2000
  -30.7034  -14.3803   20.6797 C   0  0  0  0  0  0
  -30.4206  -12.2924   19.3852 C   0  0  0  0  0  0
  -29.4771  -12.5546   18.1915 C   0  0  0  0  0  0
  -27.9959  -12.4073   18.6017 C   0  0  0  0  0  0
  -27.6680  -13.1932   19.8979 C   0  0  2  0  0  0
  -28.7086  -12.8845   20.9949 C   0  0  0  0  0  0
  -25.2643  -13.8125   20.5783 C   0  0  0  0  0  0
  -24.1854  -13.0427   20.9172 C   0  0  0  0  0  0
  -24.6365  -11.6863   20.8717 C   0  0  0  0  0  0
  -23.9006  -10.4315   21.0379 C   0  0  0  0  0  0
  -24.3603   -9.4263   21.9162 C   0  0  0  0  0  0
  -23.6299   -8.2256   22.0730 C   0  0  0  0  0  0
  -22.4272   -8.0300   21.3520 C   0  0  0  0  0  0
  -21.9886   -9.0242   20.4610 C   0  0  0  0  0  0
  -22.7183  -10.2151   20.3017 C   0  0  0  0  0  0
  -21.6844   -6.0752   22.5268 C   0  0  0  0  0  0
  -21.4019   -6.5633   23.8233 C   0  0  0  0  0  0
  -21.3666   -5.6771   24.9168 C   0  0  0  0  0  0
  -21.6056   -4.3027   24.7217 C   0  0  0  0  0  0
  -21.8809   -3.8154   23.4314 C   0  0  0  0  0  0
  -21.9217   -4.6974   22.3408 C   0  0  0  0  0  0
  -22.7912  -13.5261   21.1855 C   0  0  0  0  0  0
  -22.1668   -4.2162   21.0974 F   0  0  0  0  0  0
  -21.5637   -3.4544   25.7724 F   0  0  0  0  0  0
  -30.0479  -13.2085   20.4696 N   0  0  0  0  0  0
  -26.3061  -12.9247   20.3508 N   0  0  0  0  0  0
  -25.9288  -11.6434   20.5748 N   0  0  0  0  0  0
  -22.0580  -12.8238   22.0410 N   0  0  0  0  0  0
  -25.4426  -15.1856   20.4291 N   0  0  0  0  0  0
  -31.7005  -14.7365   20.0380 O   0  0  0  0  0  0
  -21.6635   -6.8882   21.4225 O   0  0  0  0  0  0
  -22.3600  -14.5575   20.6713 O   0  0  0  0  0  0
  -24.6120  -31.8717   23.2191 C   0  0  0  0  0  0
  -25.9004  -32.4902   23.8449 C   0  0  1  0  0  0
  -27.2318  -27.4320   20.0760 C   0  0  0  0  0  0
  -25.5816  -33.8703   24.2420 N   0  0  0  0  0  0
  -23.4009  -30.4926   21.5665 C   0  0  2  0  0  0
  -24.8396  -28.9446   20.1309 C   0  0  0  0  0  0
  -22.7388  -29.4757   22.5222 C   0  0  0  0  0  0
  -18.0269  -28.1385   22.8575 C   0  0  0  0  0  0
  -24.1468  -36.7310   23.2644 C   0  0  0  0  0  0
  -25.9278  -30.8282   21.3742 C   0  0  0  0  0  0
  -26.0014  -29.4574   20.7231 C   0  0  0  0  0  0
  -27.2051  -28.7138   20.6798 C   0  0  0  0  0  0
  -26.0590  -26.9394   19.4711 C   0  0  0  0  0  0
  -24.8640  -27.6915   19.4934 C   0  0  0  0  0  0
  -23.5943  -29.7951   20.1968 C   0  0  0  0  0  0
  -25.4100  -36.3205   24.0379 C   0  0  1  0  0  0
  -20.5848  -28.3745   23.1394 C   0  0  2  0  0  0
  -20.6900  -26.9606   22.5230 C   0  0  0  0  0  0
  -19.5843  -26.6629   21.5055 C   0  0  0  0  0  0
  -18.2049  -26.7955   22.1602 C   0  0  0  0  0  0
  -19.1467  -28.8867   23.2931 C   0  0  0  0  0  0
  -18.9306  -30.1499   23.8896 C   0  0  0  0  0  0
  -17.6320  -30.6623   24.0545 C   0  0  0  0  0  0
  -25.8984  -34.9520   23.5214 C   0  0  0  0  0  0
  -16.5283  -29.9084   23.6285 C   0  0  0  0  0  0
  -16.7230  -28.6481   23.0394 C   0  0  0  0  0  0
  -26.4458  -31.6669   25.0770 C   0  0  0  0  0  0
  -25.3718  -31.3709   26.1506 C   0  0  0  0  0  0
  -27.0292  -30.3109   24.6195 C   0  0  0  0  0  0
  -27.6058  -32.4413   25.7518 C   0  0  0  0  0  0
  -27.5612  -37.1831   24.8490 C   0  0  0  0  0  0
  -21.4112  -29.3233   22.3964 N   0  0  0  0  0  0
  -26.4338  -37.3855   23.9397 N   0  0  0  0  0  0
  -24.6654  -31.0794   22.1128 N   0  0  0  0  0  0
  -23.4152  -28.8243   23.3247 O   0  0  0  0  0  0
  -28.4199  -26.7544   19.9106 O   0  0  0  0  0  0
  -26.5574  -34.8932   22.4812 O   0  0  0  0  0  0
  -23.5305  -32.1420   23.7577 O   0  0  0  0  0  0
  -28.2193  -19.3710   21.4283 C   0  0  0  0  0  0
  -28.0928  -20.6459   21.9062 C   0  0  0  0  0  0
  -28.4471  -20.5431   23.2870 C   0  0  0  0  0  0
  -28.4656  -21.6312   24.3427 C   0  0  0  0  0  0
  -29.0417  -16.5312   23.8878 C   0  0  0  0  0  0
  -30.1292  -25.2215   20.1370 C   0  0  0  0  0  0
  -27.6248  -21.8510   21.1035 C   0  0  0  0  0  0
  -28.1650  -23.2182   21.5618 C   0  0  0  0  0  0
  -27.8071  -24.3753   20.5844 C   0  0  0  0  0  0
  -29.8275  -16.5781   21.4308 C   0  0  0  0  0  0
  -28.7721  -17.0779   22.4674 C   0  0  2  0  0  0
  -28.7476  -25.6000   20.7005 C   0  0  2  0  0  0
  -28.7503  -19.2896   23.6085 N   0  0  0  0  0  0
  -28.6131  -18.5492   22.4676 N   0  0  0  0  0  0
  -30.1792  -15.1633   21.6289 N   0  0  0  0  0  0
  -31.4602  -12.4245   19.0726 H   0  0  0  0  0  0
  -30.3462  -11.2605   19.7315 H   0  0  0  0  0  0
  -29.6969  -11.8863   17.3587 H   0  0  0  0  0  0
  -29.6544  -13.5692   17.8272 H   0  0  0  0  0  0
  -27.7696  -11.3467   18.7402 H   0  0  0  0  0  0
  -27.3474  -12.7543   17.7962 H   0  0  0  0  0  0
  -27.7408  -14.2590   19.6763 H   0  0  0  0  0  0
  -28.6867  -11.8262   21.2624 H   0  0  0  0  0  0
  -28.4582  -13.4121   21.9158 H   0  0  0  0  0  0
  -25.2765   -9.5748   22.4711 H   0  0  0  0  0  0
  -24.0084   -7.4613   22.7386 H   0  0  0  0  0  0
  -21.0865   -8.8723   19.8845 H   0  0  0  0  0  0
  -22.3670  -10.9677   19.6130 H   0  0  0  0  0  0
  -21.1969   -7.6143   23.9732 H   0  0  0  0  0  0
  -21.1505   -6.0497   25.9075 H   0  0  0  0  0  0
  -22.0595   -2.7626   23.2819 H   0  0  0  0  0  0
  -22.4275  -11.9905   22.4742 H   0  0  0  0  0  0
  -21.1146  -13.1150   22.2538 H   0  0  0  0  0  0
  -24.6827  -15.8466   20.5485 H   0  0  0  0  0  0
  -26.3005  -15.6258   20.1251 H   0  0  0  0  0  0
  -26.6979  -32.5612   23.1100 H   0  0  0  0  0  0
  -25.0082  -33.9914   25.0639 H   0  0  0  0  0  0
  -22.7023  -31.3207   21.4125 H   0  0  0  0  0  0
  -23.3800  -35.9589   23.3338 H   0  0  0  0  0  0
  -24.3517  -36.8861   22.2047 H   0  0  0  0  0  0
  -23.7123  -37.6496   23.6590 H   0  0  0  0  0  0
  -26.0352  -31.5998   20.6120 H   0  0  0  0  0  0
  -26.8147  -30.8846   21.9900 H   0  0  0  0  0  0
  -28.1097  -29.1328   21.0948 H   0  0  0  0  0  0
  -26.0690  -25.9960   18.9393 H   0  0  0  0  0  0
  -23.9813  -27.3128   18.9969 H   0  0  0  0  0  0
  -23.6657  -30.5429   19.4086 H   0  0  0  0  0  0
  -22.7211  -29.1923   19.9474 H   0  0  0  0  0  0
  -25.1259  -36.2145   25.0888 H   0  0  0  0  0  0
  -20.9925  -28.3301   24.1496 H   0  0  0  0  0  0
  -20.5895  -26.2441   23.3354 H   0  0  0  0  0  0
  -21.6781  -26.7984   22.0818 H   0  0  0  0  0  0
  -19.7154  -25.6611   21.0909 H   0  0  0  0  0  0
  -19.6649  -27.3692   20.6728 H   0  0  0  0  0  0
  -17.4367  -26.6726   21.3989 H   0  0  0  0  0  0
  -18.0617  -25.9998   22.8866 H   0  0  0  0  0  0
  -19.7736  -30.7372   24.2180 H   0  0  0  0  0  0
  -17.4870  -31.6340   24.5190 H   0  0  0  0  0  0
  -15.5240  -30.2910   23.7517 H   0  0  0  0  0  0
  -15.8611  -28.0811   22.7228 H   0  0  0  0  0  0
  -24.5861  -30.7125   25.7783 H   0  0  0  0  0  0
  -24.8899  -32.2828   26.5068 H   0  0  0  0  0  0
  -25.8002  -30.8737   27.0213 H   0  0  0  0  0  0
  -26.2837  -29.6888   24.1237 H   0  0  0  0  0  0
  -27.3993  -29.7377   25.4702 H   0  0  0  0  0  0
  -27.8728  -30.4415   23.9411 H   0  0  0  0  0  0
  -27.2731  -33.3733   26.2139 H   0  0  0  0  0  0
  -28.3835  -32.7014   25.0320 H   0  0  0  0  0  0
  -28.0824  -31.8526   26.5380 H   0  0  0  0  0  0
  -28.2697  -38.0083   24.7562 H   0  0  0  0  0  0
  -28.1048  -36.2617   24.6306 H   0  0  0  0  0  0
  -27.2296  -37.1461   25.8895 H   0  0  0  0  0  0
  -20.9157  -29.9353   21.7625 H   0  0  0  0  0  0
  -26.0261  -38.2964   24.1406 H   0  0  0  0  0  0
  -28.0119  -18.9933   20.4330 H   0  0  0  0  0  0
  -29.2685  -22.3591   24.1978 H   0  0  0  0  0  0
  -28.5623  -21.2529   25.3648 H   0  0  0  0  0  0
  -27.5272  -22.1880   24.3147 H   0  0  0  0  0  0
  -28.9657  -15.4454   23.9637 H   0  0  0  0  0  0
  -28.3213  -16.9382   24.5979 H   0  0  0  0  0  0
  -30.0412  -16.8198   24.2226 H   0  0  0  0  0  0
  -30.6392  -24.4689   20.7370 H   0  0  0  0  0  0
  -30.7855  -26.0922   20.1001 H   0  0  0  0  0  0
  -30.0658  -24.8184   19.1212 H   0  0  0  0  0  0
  -26.5361  -21.8836   21.0849 H   0  0  0  0  0  0
  -27.9365  -21.7331   20.0640 H   0  0  0  0  0  0
  -27.7579  -23.4792   22.5360 H   0  0  0  0  0  0
  -29.2423  -23.1266   21.7026 H   0  0  0  0  0  0
  -26.7745  -24.6587   20.7775 H   0  0  0  0  0  0
  -27.8297  -24.0155   19.5546 H   0  0  0  0  0  0
  -30.7474  -17.1633   21.4955 H   0  0  0  0  0  0
  -29.4361  -16.7232   20.4151 H   0  0  0  0  0  0
  -27.8083  -16.6713   22.1426 H   0  0  0  0  0  0
  -28.8363  -25.8998   21.7495 H   0  0  0  0  0  0
  -30.5100  -14.9273   22.5638 H   0  0  0  0  0  0
  1 25  1  0  0  0
  1 30  2  0  0  0
  1 85  1  0  0  0
  2  3  1  0  0  0
  2 25  1  0  0  0
  2 86  1  0  0  0
  2 87  1  0  0  0
  3  4  1  0  0  0
  3 88  1  0  0  0
  3 89  1  0  0  0
  4  5  1  0  0  0
  4 90  1  0  0  0
  4 91  1  0  0  0
  5  6  1  0  0  0
  5 26  1  0  0  0
  5 92  1  0  0  0
  6 25  1  0  0  0
  6 93  1  0  0  0
  6 94  1  0  0  0
  7  8  2  0  0  0
  7 26  1  0  0  0
  7 29  1  0  0  0
  8  9  1  0  0  0
  8 22  1  0  0  0
  9 10  1  0  0  0
  9 27  2  0  0  0
 10 11  2  0  0  0
 10 15  1  0  0  0
 11 12  1  0  0  0
 11 95  1  0  0  0
 12 13  2  0  0  0
 12 96  1  0  0  0
 13 14  1  0  0  0
 13 31  1  0  0  0
 14 15  2  0  0  0
 14 97  1  0  0  0
 15 98  1  0  0  0
 16 17  2  0  0  0
 16 21  1  0  0  0
 16 31  1  0  0  0
 17 18  1  0  0  0
 17 99  1  0  0  0
 18 19  2  0  0  0
 18100  1  0  0  0
 19 20  1  0  0  0
 19 24  1  0  0  0
 20 21  2  0  0  0
 20101  1  0  0  0
 21 23  1  0  0  0
 22 28  1  0  0  0
 22 32  2  0  0  0
 26 27  1  0  0  0
 28102  1  0  0  0
 28103  1  0  0  0
 29104  1  0  0  0
 29105  1  0  0  0
 33 34  1  0  0  0
 33 66  1  0  0  0
 33 70  2  0  0  0
 34 36  1  0  0  0
 34 59  1  0  0  0
 34106  1  0  0  0
 35 44  2  0  0  0
 35 45  1  0  0  0
 35 68  1  0  0  0
 36 56  1  0  0  0
 36107  1  0  0  0
 37 39  1  0  0  0
 37 47  1  0  0  0
 37 66  1  0  0  0
 37108  1  0  0  0
 38 43  2  0  0  0
 38 46  1  0  0  0
 38 47  1  0  0  0
 39 64  1  0  0  0
 39 67  2  0  0  0
 40 52  1  0  0  0
 40 53  2  0  0  0
 40 58  1  0  0  0
 41109  1  0  0  0
 41110  1  0  0  0
 41111  1  0  0  0
 41 48  1  0  0  0
 42 43  1  0  0  0
 42 66  1  0  0  0
 42112  1  0  0  0
 42113  1  0  0  0
 43 44  1  0  0  0
 44114  1  0  0  0
 45 46  2  0  0  0
 45115  1  0  0  0
 46116  1  0  0  0
 47117  1  0  0  0
 47118  1  0  0  0
 48 56  1  0  0  0
 48 65  1  0  0  0
 48119  1  0  0  0
 49 50  1  0  0  0
 49 53  1  0  0  0
 49 64  1  0  0  0
 49120  1  0  0  0
 50 51  1  0  0  0
 50121  1  0  0  0
 50122  1  0  0  0
 51 52  1  0  0  0
 51123  1  0  0  0
 51124  1  0  0  0
 52125  1  0  0  0
 52126  1  0  0  0
 53 54  1  0  0  0
 54 55  2  0  0  0
 54127  1  0  0  0
 55 57  1  0  0  0
 55128  1  0  0  0
 56 69  2  0  0  0
 57 58  2  0  0  0
 57129  1  0  0  0
 58130  1  0  0  0
 59 60  1  0  0  0
 59 61  1  0  0  0
 59 62  1  0  0  0
 60131  1  0  0  0
 60132  1  0  0  0
 60133  1  0  0  0
 61134  1  0  0  0
 61135  1  0  0  0
 61136  1  0  0  0
 62137  1  0  0  0
 62138  1  0  0  0
 62139  1  0  0  0
 63 65  1  0  0  0
 63140  1  0  0  0
 63141  1  0  0  0
 63142  1  0  0  0
 64143  1  0  0  0
 65144  1  0  0  0
 68 82  1  0  0  0
 71 72  2  0  0  0
 71 84  1  0  0  0
 71145  1  0  0  0
 72 73  1  0  0  0
 72 77  1  0  0  0
 73 74  1  0  0  0
 73 83  2  0  0  0
 74146  1  0  0  0
 74147  1  0  0  0
 74148  1  0  0  0
 75149  1  0  0  0
 75150  1  0  0  0
 75151  1  0  0  0
 75 81  1  0  0  0
 76152  1  0  0  0
 76153  1  0  0  0
 76154  1  0  0  0
 76 82  1  0  0  0
 77 78  1  0  0  0
 77155  1  0  0  0
 77156  1  0  0  0
 78 79  1  0  0  0
 78157  1  0  0  0
 78158  1  0  0  0
 79 82  1  0  0  0
 79159  1  0  0  0
 79160  1  0  0  0
 80 81  1  0  0  0
 80 85  1  0  0  0
 80161  1  0  0  0
 80162  1  0  0  0
 81 84  1  0  0  0
 81163  1  0  0  0
 82164  1  0  0  0
 83 84  1  0  0  0
 85165  1  0  0  0
M  ISO  4   1 100  68 101  82 101  85 100
M  END
> <chiral flag>
0

> <version>
0

> <s_m_source_file>
/data/baiqing/PycharmProjects/Reinvent-master-3.2/result/LINK_invent/BTK/process_docking_weight1_custom_sum_contain_oxygen_bond_distance_aromatic_linkinvent_7_9_3/rearranged_h_0076.sdf

> <i_m_source_file_index>
27

> <r_mmod_Potential_Energy-OPLS-2005>
-43.4748649597168

> <r_mmod_Stretch_Energy-OPLS-2005>
38.616527557373

> <r_mmod_Bend_Energy-OPLS-2005>
112.314979553223

> <r_mmod_Torsional_Energy-OPLS-2005>
313.287445068359

> <r_mmod_Improper_Torsional_Energy-OPLS-2005>
5.65280199050903

> <r_mmod_Van_der_Waal_Energy-OPLS-2005>
130.237533569336

> <r_mmod_Electrostatic_Energy-OPLS-2005>
-442.351898193359

> <r_mmod_Solvation_Energy-OPLS-2005>
-212.910903930664

> <b_mmod_Minimization_Converged-OPLS-2005>
0

> <r_mmod_RMS_Derivative-OPLS-2005>
10.6362600326538

$$$$
27
                    3D
 Structure written by MMmdl.
173181  0  0  1  0            999 V2000
  -30.6608  -14.5450   20.5078 C   0  0  0  0  0  0
  -30.4259  -12.3350   19.4375 C   0  0  0  0  0  0
  -29.5018  -12.4993   18.2135 C   0  0  0  0  0  0
  -28.0195  -12.3619   18.6200 C   0  0  0  0  0  0
  -27.6542  -13.2144   19.8664 C   0  0  2  0  0  0
  -28.6989  -13.0344   20.9908 C   0  0  0  0  0  0
  -25.2558  -13.8177   20.5708 C   0  0  0  0  0  0
  -24.1814  -13.0451   20.9198 C   0  0  0  0  0  0
  -24.6369  -11.6911   20.8721 C   0  0  0  0  0  0
  -23.9025  -10.4289   21.0388 C   0  0  0  0  0  0
  -24.3569   -9.4208   21.9170 C   0  0  0  0  0  0
  -23.6266   -8.2230   22.0738 C   0  0  0  0  0  0
  -22.4250   -8.0254   21.3534 C   0  0  0  0  0  0
  -21.9879   -9.0224   20.4640 C   0  0  0  0  0  0
  -22.7192  -10.2121   20.3054 C   0  0  0  0  0  0
  -21.6858   -6.0702   22.5271 C   0  0  0  0  0  0
  -21.4017   -6.5611   23.8203 C   0  0  0  0  0  0
  -21.3676   -5.6767   24.9166 C   0  0  0  0  0  0
  -21.6064   -4.3026   24.7223 C   0  0  0  0  0  0
  -21.8826   -3.8116   23.4341 C   0  0  0  0  0  0
  -21.9196   -4.6931   22.3391 C   0  0  0  0  0  0
  -22.7839  -13.5244   21.1831 C   0  0  0  0  0  0
  -22.1665   -4.2107   21.0979 F   0  0  0  0  0  0
  -21.5634   -3.4522   25.7753 F   0  0  0  0  0  0
  -30.0218  -13.3447   20.4300 N   0  0  0  0  0  0
  -26.2988  -12.9361   20.3345 N   0  0  0  0  0  0
  -25.9301  -11.6506   20.5742 N   0  0  0  0  0  0
  -22.0455  -12.8259   22.0402 N   0  0  0  0  0  0
  -25.4266  -15.1905   20.4140 N   0  0  0  0  0  0
  -31.8190  -14.7060   20.1164 O   0  0  0  0  0  0
  -21.6633   -6.8841   21.4236 O   0  0  0  0  0  0
  -22.3535  -14.5527   20.6640 O   0  0  0  0  0  0
  -24.6214  -31.8617   23.2044 C   0  0  0  0  0  0
  -25.9094  -32.4796   23.8361 C   0  0  1  0  0  0
  -27.2382  -27.4016   20.0687 C   0  0  0  0  0  0
  -25.5933  -33.8591   24.2305 N   0  0  0  0  0  0
  -23.4118  -30.4849   21.5469 C   0  0  2  0  0  0
  -24.8592  -28.9507   20.1034 C   0  0  0  0  0  0
  -22.7448  -29.4625   22.4963 C   0  0  0  0  0  0
  -18.0306  -28.1367   22.8463 C   0  0  0  0  0  0
  -24.1478  -36.7304   23.2632 C   0  0  0  0  0  0
  -25.9445  -30.8145   21.3644 C   0  0  0  0  0  0
  -26.0221  -29.4501   20.7014 C   0  0  0  0  0  0
  -27.2128  -28.6781   20.6897 C   0  0  0  0  0  0
  -26.0502  -26.9189   19.4902 C   0  0  0  0  0  0
  -24.8695  -27.6841   19.4955 C   0  0  0  0  0  0
  -23.6212  -29.8186   20.1601 C   0  0  0  0  0  0
  -25.4111  -36.3106   24.0324 C   0  0  1  0  0  0
  -20.5901  -28.3667   23.1324 C   0  0  2  0  0  0
  -20.6815  -26.9390   22.5438 C   0  0  0  0  0  0
  -19.5841  -26.6417   21.5185 C   0  0  0  0  0  0
  -18.1997  -26.7936   22.1553 C   0  0  0  0  0  0
  -19.1546  -28.8823   23.2898 C   0  0  0  0  0  0
  -18.9456  -30.1423   23.8917 C   0  0  0  0  0  0
  -17.6453  -30.6552   24.0566 C   0  0  0  0  0  0
  -25.9059  -34.9470   23.5127 C   0  0  0  0  0  0
  -16.5354  -29.9050   23.6301 C   0  0  0  0  0  0
  -16.7288  -28.6476   23.0309 C   0  0  0  0  0  0
  -26.4505  -31.6586   25.0702 C   0  0  0  0  0  0
  -25.3761  -31.3685   26.1440 C   0  0  0  0  0  0
  -27.0347  -30.3031   24.6103 C   0  0  0  0  0  0
  -27.6070  -32.4306   25.7457 C   0  0  0  0  0  0
  -27.5586  -37.1807   24.8456 C   0  0  0  0  0  0
  -21.4163  -29.3047   22.3724 N   0  0  0  0  0  0
  -26.4302  -37.3795   23.9400 N   0  0  0  0  0  0
  -24.6779  -31.0681   22.0975 N   0  0  0  0  0  0
  -23.4201  -28.8154   23.3010 O   0  0  0  0  0  0
  -28.3396  -26.5733   20.1846 O   0  0  0  0  0  0
  -26.5603  -34.8921   22.4678 O   0  0  0  0  0  0
  -23.5400  -32.1406   23.7417 O   0  0  0  0  0  0
  -26.8587  -23.1881   19.2409 C   0  0  0  0  0  0
  -28.1814  -23.5605   19.1268 C   0  0  0  0  0  0
  -28.0345  -21.5903   20.1901 C   0  0  0  0  0  0
  -27.9001  -24.9623   17.0692 C   0  0  0  0  0  0
  -30.1355  -24.2090   17.7379 C   0  0  0  0  0  0
  -24.3517  -21.7104   19.3140 C   0  0  0  0  0  0
  -25.1598  -21.3950   21.6599 C   0  0  0  0  0  0
  -25.6733  -19.6930   19.8720 C   0  0  0  0  0  0
  -29.0898  -18.0651   20.8099 C   0  0  0  0  0  0
  -30.2415  -17.0349   20.5668 C   0  0  0  0  0  0
  -29.3801  -19.5542   20.4051 C   0  0  0  0  0  0
  -29.0599  -26.1020   19.0305 C   0  0  0  0  0  0
  -28.7903  -24.7129   18.3101 C   0  0  0  0  0  0
  -25.5295  -21.2013   20.1789 C   0  0  0  0  0  0
  -26.7823  -21.9608   19.8657 N   0  0  0  0  0  0
  -28.8808  -22.5509   19.7804 N   0  3  0  0  0  0
  -29.8855  -15.6127   20.8201 N   0  0  0  0  0  0
  -28.3506  -20.4325   20.8974 O   0  0  0  0  0  0
  -31.4698  -12.4383   19.1361 H   0  0  0  0  0  0
  -30.3340  -11.3353   19.8628 H   0  0  0  0  0  0
  -29.7511  -11.7618   17.4502 H   0  0  0  0  0  0
  -29.6671  -13.4785   17.7590 H   0  0  0  0  0  0
  -27.8327  -11.3076   18.8255 H   0  0  0  0  0  0
  -27.3708  -12.6265   17.7828 H   0  0  0  0  0  0
  -27.6852  -14.2551   19.5460 H   0  0  0  0  0  0
  -28.6891  -12.0085   21.3631 H   0  0  0  0  0  0
  -28.4623  -13.6666   21.8475 H   0  0  0  0  0  0
  -25.2706   -9.5704   22.4757 H   0  0  0  0  0  0
  -23.9986   -7.4628   22.7461 H   0  0  0  0  0  0
  -21.0812   -8.8728   19.8947 H   0  0  0  0  0  0
  -22.3625  -10.9648   19.6166 H   0  0  0  0  0  0
  -21.2007   -7.6120   23.9701 H   0  0  0  0  0  0
  -21.1508   -6.0493   25.9077 H   0  0  0  0  0  0
  -22.0595   -2.7577   23.2864 H   0  0  0  0  0  0
  -22.4037  -11.9935   22.4824 H   0  0  0  0  0  0
  -21.1079  -13.1313   22.2559 H   0  0  0  0  0  0
  -24.6542  -15.8402   20.5117 H   0  0  0  0  0  0
  -26.2740  -15.6293   20.0797 H   0  0  0  0  0  0
  -26.7150  -32.5508   23.1100 H   0  0  0  0  0  0
  -25.0097  -33.9686   25.0472 H   0  0  0  0  0  0
  -22.7043  -31.3049   21.4069 H   0  0  0  0  0  0
  -23.3752  -35.9630   23.3311 H   0  0  0  0  0  0
  -24.3563  -36.8911   22.2044 H   0  0  0  0  0  0
  -23.7218  -37.6506   23.6632 H   0  0  0  0  0  0
  -26.0697  -31.5860   20.6030 H   0  0  0  0  0  0
  -26.8264  -30.8653   21.9887 H   0  0  0  0  0  0
  -28.1024  -29.0459   21.1799 H   0  0  0  0  0  0
  -26.0110  -25.9229   19.0914 H   0  0  0  0  0  0
  -23.9698  -27.2808   19.0540 H   0  0  0  0  0  0
  -23.7303  -30.5914   19.3999 H   0  0  0  0  0  0
  -22.7459  -29.2372   19.8666 H   0  0  0  0  0  0
  -25.1310  -36.1955   25.0823 H   0  0  0  0  0  0
  -21.0012  -28.3249   24.1435 H   0  0  0  0  0  0
  -20.5713  -26.2214   23.3589 H   0  0  0  0  0  0
  -21.6699  -26.7446   22.1251 H   0  0  0  0  0  0
  -19.7026  -25.6351   21.1157 H   0  0  0  0  0  0
  -19.6837  -27.3293   20.6766 H   0  0  0  0  0  0
  -17.4312  -26.6714   21.3897 H   0  0  0  0  0  0
  -18.0374  -26.0042   22.8908 H   0  0  0  0  0  0
  -19.7934  -30.7237   24.2298 H   0  0  0  0  0  0
  -17.5010  -31.6221   24.5196 H   0  0  0  0  0  0
  -15.5361  -30.2952   23.7619 H   0  0  0  0  0  0
  -15.8699  -28.0803   22.6961 H   0  0  0  0  0  0
  -24.5938  -30.7035   25.7762 H   0  0  0  0  0  0
  -24.8971  -32.2854   26.4892 H   0  0  0  0  0  0
  -25.8148  -30.8836   27.0182 H   0  0  0  0  0  0
  -26.2903  -29.6738   24.1216 H   0  0  0  0  0  0
  -27.4180  -29.7311   25.4565 H   0  0  0  0  0  0
  -27.8708  -30.4351   23.9231 H   0  0  0  0  0  0
  -27.2701  -33.3600   26.2054 H   0  0  0  0  0  0
  -28.3877  -32.6879   25.0285 H   0  0  0  0  0  0
  -28.0743  -31.8419   26.5354 H   0  0  0  0  0  0
  -28.2636  -38.0080   24.7553 H   0  0  0  0  0  0
  -28.1076  -36.2634   24.6279 H   0  0  0  0  0  0
  -27.2289  -37.1452   25.8851 H   0  0  0  0  0  0
  -20.9313  -29.8786   21.6953 H   0  0  0  0  0  0
  -26.0196  -38.2872   24.1427 H   0  0  0  0  0  0
  -25.9811  -23.6848   18.8582 H   0  0  0  0  0  0
  -27.7647  -24.0487   16.4883 H   0  0  0  0  0  0
  -28.3535  -25.6948   16.4003 H   0  0  0  0  0  0
  -26.9094  -25.3354   17.3076 H   0  0  0  0  0  0
  -30.0067  -23.2890   17.1657 H   0  0  0  0  0  0
  -30.8628  -24.0063   18.5240 H   0  0  0  0  0  0
  -30.5855  -24.9468   17.0719 H   0  0  0  0  0  0
  -23.4451  -21.1330   19.4935 H   0  0  0  0  0  0
  -24.5777  -21.6279   18.2490 H   0  0  0  0  0  0
  -24.0944  -22.7476   19.5286 H   0  0  0  0  0  0
  -24.2425  -20.8620   21.9116 H   0  0  0  0  0  0
  -24.9994  -22.4483   21.8941 H   0  0  0  0  0  0
  -25.9433  -21.0267   22.3225 H   0  0  0  0  0  0
  -24.7088  -19.1857   19.9168 H   0  0  0  0  0  0
  -26.3063  -19.1763   20.5918 H   0  0  0  0  0  0
  -26.0790  -19.5215   18.8745 H   0  0  0  0  0  0
  -28.8276  -18.0407   21.8679 H   0  0  0  0  0  0
  -28.2013  -17.7334   20.2727 H   0  0  0  0  0  0
  -31.0954  -17.2954   21.1939 H   0  0  0  0  0  0
  -30.5853  -17.1304   19.5347 H   0  0  0  0  0  0
  -29.4699  -19.6310   19.3202 H   0  0  0  0  0  0
  -30.3337  -19.8766   20.8239 H   0  0  0  0  0  0
  -29.1065  -26.9045   18.2908 H   0  0  0  0  0  0
  -30.0780  -26.0546   19.4175 H   0  0  0  0  0  0
  -29.8844  -22.5192   19.9062 H   0  0  0  0  0  0
  -28.9434  -15.4111   21.1213 H   0  0  0  0  0  0
  1 25  1  0  0  0
  1 30  2  0  0  0
  1 87  1  0  0  0
  2  3  1  0  0  0
  2 25  1  0  0  0
  2 89  1  0  0  0
  2 90  1  0  0  0
  3  4  1  0  0  0
  3 91  1  0  0  0
  3 92  1  0  0  0
  4  5  1  0  0  0
  4 93  1  0  0  0
  4 94  1  0  0  0
  5  6  1  0  0  0
  5 26  1  0  0  0
  5 95  1  0  0  0
  6 25  1  0  0  0
  6 96  1  0  0  0
  6 97  1  0  0  0
  7  8  2  0  0  0
  7 26  1  0  0  0
  7 29  1  0  0  0
  8  9  1  0  0  0
  8 22  1  0  0  0
  9 10  1  0  0  0
  9 27  2  0  0  0
 10 11  2  0  0  0
 10 15  1  0  0  0
 11 12  1  0  0  0
 11 98  1  0  0  0
 12 13  2  0  0  0
 12 99  1  0  0  0
 13 14  1  0  0  0
 13 31  1  0  0  0
 14 15  2  0  0  0
 14100  1  0  0  0
 15101  1  0  0  0
 16 17  2  0  0  0
 16 21  1  0  0  0
 16 31  1  0  0  0
 17 18  1  0  0  0
 17102  1  0  0  0
 18 19  2  0  0  0
 18103  1  0  0  0
 19 20  1  0  0  0
 19 24  1  0  0  0
 20 21  2  0  0  0
 20104  1  0  0  0
 21 23  1  0  0  0
 22 28  1  0  0  0
 22 32  2  0  0  0
 26 27  1  0  0  0
 28105  1  0  0  0
 28106  1  0  0  0
 29107  1  0  0  0
 29108  1  0  0  0
 33 34  1  0  0  0
 33 66  1  0  0  0
 33 70  2  0  0  0
 34 36  1  0  0  0
 34 59  1  0  0  0
 34109  1  0  0  0
 35 44  2  0  0  0
 35 45  1  0  0  0
 35 68  1  0  0  0
 36 56  1  0  0  0
 36110  1  0  0  0
 37 39  1  0  0  0
 37 47  1  0  0  0
 37 66  1  0  0  0
 37111  1  0  0  0
 38 43  2  0  0  0
 38 46  1  0  0  0
 38 47  1  0  0  0
 39 64  1  0  0  0
 39 67  2  0  0  0
 40 52  1  0  0  0
 40 53  2  0  0  0
 40 58  1  0  0  0
 41112  1  0  0  0
 41113  1  0  0  0
 41114  1  0  0  0
 41 48  1  0  0  0
 42 43  1  0  0  0
 42 66  1  0  0  0
 42115  1  0  0  0
 42116  1  0  0  0
 43 44  1  0  0  0
 44117  1  0  0  0
 45 46  2  0  0  0
 45118  1  0  0  0
 46119  1  0  0  0
 47120  1  0  0  0
 47121  1  0  0  0
 48 56  1  0  0  0
 48 65  1  0  0  0
 48122  1  0  0  0
 49 50  1  0  0  0
 49 53  1  0  0  0
 49 64  1  0  0  0
 49123  1  0  0  0
 50 51  1  0  0  0
 50124  1  0  0  0
 50125  1  0  0  0
 51 52  1  0  0  0
 51126  1  0  0  0
 51127  1  0  0  0
 52128  1  0  0  0
 52129  1  0  0  0
 53 54  1  0  0  0
 54 55  2  0  0  0
 54130  1  0  0  0
 55 57  1  0  0  0
 55131  1  0  0  0
 56 69  2  0  0  0
 57 58  2  0  0  0
 57132  1  0  0  0
 58133  1  0  0  0
 59 60  1  0  0  0
 59 61  1  0  0  0
 59 62  1  0  0  0
 60134  1  0  0  0
 60135  1  0  0  0
 60136  1  0  0  0
 61137  1  0  0  0
 61138  1  0  0  0
 61139  1  0  0  0
 62140  1  0  0  0
 62141  1  0  0  0
 62142  1  0  0  0
 63 65  1  0  0  0
 63143  1  0  0  0
 63144  1  0  0  0
 63145  1  0  0  0
 64146  1  0  0  0
 65147  1  0  0  0
 68 82  1  0  0  0
 71 72  2  0  0  0
 71 85  1  0  0  0
 71148  1  0  0  0
 72 83  1  0  0  0
 72 86  1  0  0  0
 73 85  1  0  0  0
 73 86  2  0  0  0
 73 88  1  0  0  0
 74149  1  0  0  0
 74150  1  0  0  0
 74151  1  0  0  0
 74 83  1  0  0  0
 75 83  1  0  0  0
 75152  1  0  0  0
 75153  1  0  0  0
 75154  1  0  0  0
 76155  1  0  0  0
 76156  1  0  0  0
 76157  1  0  0  0
 76 84  1  0  0  0
 77 84  1  0  0  0
 77158  1  0  0  0
 77159  1  0  0  0
 77160  1  0  0  0
 78 84  1  0  0  0
 78161  1  0  0  0
 78162  1  0  0  0
 78163  1  0  0  0
 79 80  1  0  0  0
 79 81  1  0  0  0
 79164  1  0  0  0
 79165  1  0  0  0
 80 87  1  0  0  0
 80166  1  0  0  0
 80167  1  0  0  0
 81 88  1  0  0  0
 81168  1  0  0  0
 81169  1  0  0  0
 82 83  1  0  0  0
 82170  1  0  0  0
 82171  1  0  0  0
 84 85  1  0  0  0
 86172  1  0  0  0
 87173  1  0  0  0
M  CHG  1  86   1
M  ISO  4   1 100  68 101  82 101  87 100
M  END
> <chiral flag>
0

> <version>
0

> <s_m_source_file>
/data/baiqing/PycharmProjects/Reinvent-master-3.2/result/LINK_invent/BTK/process_docking_weight1_custom_sum_contain_oxygen_bond_distance_aromatic_linkinvent_7_9_3/rearranged_h_0076.sdf

> <i_m_source_file_index>
28

> <r_mmod_Potential_Energy-OPLS-2005>
33.1432723999023

> <r_mmod_Stretch_Energy-OPLS-2005>
53.6968154907227

> <r_mmod_Bend_Energy-OPLS-2005>
162.631072998047

> <r_mmod_Torsional_Energy-OPLS-2005>
293.378326416016

> <r_mmod_Improper_Torsional_Energy-OPLS-2005>
7.20090293884277

> <r_mmod_Van_der_Waal_Energy-OPLS-2005>
123.081901550293

> <r_mmod_Electrostatic_Energy-OPLS-2005>
-238.591522216797

> <r_mmod_Solvation_Energy-OPLS-2005>
-395.498657226562

> <b_mmod_Minimization_Converged-OPLS-2005>
0

> <r_mmod_RMS_Derivative-OPLS-2005>
3.222416639328

$$$$
28
                    3D
 Structure written by MMmdl.
162170  0  0  1  0            999 V2000
  -30.6362  -14.6815   20.5403 C   0  0  0  0  0  0
  -30.4358  -12.4336   19.4624 C   0  0  0  0  0  0
  -29.5089  -12.5331   18.2289 C   0  0  0  0  0  0
  -28.0290  -12.3652   18.6299 C   0  0  0  0  0  0
  -27.6514  -13.2227   19.8668 C   0  0  2  0  0  0
  -28.6956  -13.0428   20.9863 C   0  0  0  0  0  0
  -25.2526  -13.8163   20.5664 C   0  0  0  0  0  0
  -24.1807  -13.0417   20.9172 C   0  0  0  0  0  0
  -24.6396  -11.6898   20.8728 C   0  0  0  0  0  0
  -23.9069  -10.4283   21.0400 C   0  0  0  0  0  0
  -24.3619   -9.4203   21.9183 C   0  0  0  0  0  0
  -23.6294   -8.2238   22.0756 C   0  0  0  0  0  0
  -22.4277   -8.0276   21.3543 C   0  0  0  0  0  0
  -21.9907   -9.0249   20.4646 C   0  0  0  0  0  0
  -22.7237  -10.2128   20.3054 C   0  0  0  0  0  0
  -21.6853   -6.0734   22.5277 C   0  0  0  0  0  0
  -21.4012   -6.5638   23.8209 C   0  0  0  0  0  0
  -21.3661   -5.6792   24.9171 C   0  0  0  0  0  0
  -21.6046   -4.3055   24.7225 C   0  0  0  0  0  0
  -21.8820   -3.8147   23.4346 C   0  0  0  0  0  0
  -21.9190   -4.6962   22.3402 C   0  0  0  0  0  0
  -22.7835  -13.5212   21.1850 C   0  0  0  0  0  0
  -22.1661   -4.2149   21.0980 F   0  0  0  0  0  0
  -21.5632   -3.4538   25.7738 F   0  0  0  0  0  0
  -29.9992  -13.4571   20.4472 N   0  0  0  0  0  0
  -26.2977  -12.9368   20.3328 N   0  0  0  0  0  0
  -25.9328  -11.6512   20.5745 N   0  0  0  0  0  0
  -22.0487  -12.8202   22.0413 N   0  0  0  0  0  0
  -25.4166  -15.1880   20.4071 N   0  0  0  0  0  0
  -31.7780  -14.7701   20.0776 O   0  0  0  0  0  0
  -21.6640   -6.8876   21.4239 O   0  0  0  0  0  0
  -22.3518  -14.5524   20.6712 O   0  0  0  0  0  0
  -24.6258  -31.8583   23.2001 C   0  0  0  0  0  0
  -25.9104  -32.4771   23.8337 C   0  0  1  0  0  0
  -27.2294  -27.3152   20.1309 C   0  0  0  0  0  0
  -25.5915  -33.8572   24.2265 N   0  0  0  0  0  0
  -23.4207  -30.4782   21.5427 C   0  0  2  0  0  0
  -24.8696  -28.9236   20.1178 C   0  0  0  0  0  0
  -22.7472  -29.4610   22.4942 C   0  0  0  0  0  0
  -18.0285  -28.1388   22.8482 C   0  0  0  0  0  0
  -24.1490  -36.7294   23.2639 C   0  0  0  0  0  0
  -25.9601  -30.7891   21.3691 C   0  0  0  0  0  0
  -26.0375  -29.4129   20.7174 C   0  0  0  0  0  0
  -27.2238  -28.6218   20.7089 C   0  0  0  0  0  0
  -26.0413  -26.8671   19.5201 C   0  0  0  0  0  0
  -24.8727  -27.6560   19.5101 C   0  0  0  0  0  0
  -23.6374  -29.8056   20.1609 C   0  0  0  0  0  0
  -25.4116  -36.3081   24.0327 C   0  0  1  0  0  0
  -20.5884  -28.3683   23.1290 C   0  0  2  0  0  0
  -20.6770  -26.9405   22.5418 C   0  0  0  0  0  0
  -19.5753  -26.6392   21.5210 C   0  0  0  0  0  0
  -18.1927  -26.7936   22.1610 C   0  0  0  0  0  0
  -19.1538  -28.8851   23.2884 C   0  0  0  0  0  0
  -18.9465  -30.1451   23.8908 C   0  0  0  0  0  0
  -17.6468  -30.6585   24.0575 C   0  0  0  0  0  0
  -25.9052  -34.9449   23.5100 C   0  0  0  0  0  0
  -16.5357  -29.9091   23.6334 C   0  0  0  0  0  0
  -16.7274  -28.6512   23.0348 C   0  0  0  0  0  0
  -26.4493  -31.6580   25.0705 C   0  0  0  0  0  0
  -25.3732  -31.3715   26.1436 C   0  0  0  0  0  0
  -27.0333  -30.3005   24.6152 C   0  0  0  0  0  0
  -27.6053  -32.4316   25.7481 C   0  0  0  0  0  0
  -27.5580  -37.1801   24.8465 C   0  0  0  0  0  0
  -21.4185  -29.3036   22.3687 N   0  0  0  0  0  0
  -26.4294  -37.3776   23.9408 N   0  0  0  0  0  0
  -24.6877  -31.0593   22.0946 N   0  0  0  0  0  0
  -23.4194  -28.8153   23.3026 O   0  0  0  0  0  0
  -28.3534  -26.4815   20.1114 O   0  0  0  0  0  0
  -26.5626  -34.8917   22.4670 O   0  0  0  0  0  0
  -23.5423  -32.1378   23.7331 O   0  0  0  0  0  0
  -29.5317  -19.9398   20.5038 C   0  0  0  0  0  0
  -28.5839  -21.0300   20.5170 C   0  0  0  0  0  0
  -27.2302  -20.6581   20.2989 C   0  0  0  0  0  0
  -29.1259  -18.5777   20.2630 C   0  0  0  0  0  0
  -26.9203  -19.3039   20.0128 C   0  0  0  0  0  0
  -26.0970  -21.6778   20.3996 C   0  0  0  0  0  0
  -25.5006  -18.8538   19.7162 C   0  0  0  0  0  0
  -28.8030  -16.0184   22.0121 C   0  0  0  0  0  0
  -28.9648  -22.5152   20.9103 C   0  0  0  0  0  0
  -30.0820  -17.3293   20.1065 C   0  0  0  0  0  0
  -28.5834  -23.7925   20.0093 C   0  0  0  0  0  0
  -28.2725  -25.1621   20.7813 C   0  0  0  0  0  0
  -30.0467  -16.0671   21.1072 C   0  0  2  0  0  0
  -27.8343  -18.3119   19.9893 N   0  0  0  0  0  0
  -31.4754  -12.5553   19.1550 H   0  0  0  0  0  0
  -30.3862  -11.4347   19.8980 H   0  0  0  0  0  0
  -29.7840  -11.7814   17.4882 H   0  0  0  0  0  0
  -29.6475  -13.5022   17.7471 H   0  0  0  0  0  0
  -27.8619  -11.3094   18.8463 H   0  0  0  0  0  0
  -27.3790  -12.6086   17.7890 H   0  0  0  0  0  0
  -27.6773  -14.2653   19.5488 H   0  0  0  0  0  0
  -28.7339  -11.9939   21.2840 H   0  0  0  0  0  0
  -28.4103  -13.5509   21.8977 H   0  0  0  0  0  0
  -25.2761   -9.5682   22.4759 H   0  0  0  0  0  0
  -24.0006   -7.4625   22.7471 H   0  0  0  0  0  0
  -21.0840   -8.8764   19.8948 H   0  0  0  0  0  0
  -22.3692  -10.9670   19.6167 H   0  0  0  0  0  0
  -21.2005   -7.6147   23.9712 H   0  0  0  0  0  0
  -21.1486   -6.0524   25.9074 H   0  0  0  0  0  0
  -22.0600   -2.7611   23.2844 H   0  0  0  0  0  0
  -22.4104  -11.9860   22.4794 H   0  0  0  0  0  0
  -21.1113  -13.1233   22.2633 H   0  0  0  0  0  0
  -24.6500  -15.8366   20.5418 H   0  0  0  0  0  0
  -26.2784  -15.6439   20.1319 H   0  0  0  0  0  0
  -26.7168  -32.5446   23.1083 H   0  0  0  0  0  0
  -25.0052  -33.9714   25.0404 H   0  0  0  0  0  0
  -22.7148  -31.2981   21.3953 H   0  0  0  0  0  0
  -23.3750  -35.9629   23.3305 H   0  0  0  0  0  0
  -24.3578  -36.8916   22.2053 H   0  0  0  0  0  0
  -23.7248  -37.6497   23.6661 H   0  0  0  0  0  0
  -26.0870  -31.5493   20.5971 H   0  0  0  0  0  0
  -26.8418  -30.8441   21.9961 H   0  0  0  0  0  0
  -28.1257  -28.9970   21.1719 H   0  0  0  0  0  0
  -26.0179  -25.8925   19.0531 H   0  0  0  0  0  0
  -23.9763  -27.2750   19.0403 H   0  0  0  0  0  0
  -23.7577  -30.5784   19.4007 H   0  0  0  0  0  0
  -22.7577  -29.2339   19.8595 H   0  0  0  0  0  0
  -25.1297  -36.1931   25.0820 H   0  0  0  0  0  0
  -20.9973  -28.3253   24.1413 H   0  0  0  0  0  0
  -20.5658  -26.2290   23.3616 H   0  0  0  0  0  0
  -21.6638  -26.7427   22.1213 H   0  0  0  0  0  0
  -19.6916  -25.6306   21.1231 H   0  0  0  0  0  0
  -19.6707  -27.3209   20.6746 H   0  0  0  0  0  0
  -17.4207  -26.6698   21.4000 H   0  0  0  0  0  0
  -18.0308  -26.0071   22.8996 H   0  0  0  0  0  0
  -19.7942  -30.7260   24.2285 H   0  0  0  0  0  0
  -17.5025  -31.6262   24.5183 H   0  0  0  0  0  0
  -15.5358  -30.2997   23.7661 H   0  0  0  0  0  0
  -15.8671  -28.0841   22.7057 H   0  0  0  0  0  0
  -24.5911  -30.7058   25.7768 H   0  0  0  0  0  0
  -24.8914  -32.2877   26.4859 H   0  0  0  0  0  0
  -25.8062  -30.8897   27.0210 H   0  0  0  0  0  0
  -26.2897  -29.6757   24.1187 H   0  0  0  0  0  0
  -27.4047  -29.7260   25.4649 H   0  0  0  0  0  0
  -27.8760  -30.4295   23.9355 H   0  0  0  0  0  0
  -27.2659  -33.3615   26.2058 H   0  0  0  0  0  0
  -28.3863  -32.6881   25.0309 H   0  0  0  0  0  0
  -28.0719  -31.8439   26.5398 H   0  0  0  0  0  0
  -28.2599  -38.0096   24.7507 H   0  0  0  0  0  0
  -28.1073  -36.2627   24.6297 H   0  0  0  0  0  0
  -27.2293  -37.1458   25.8867 H   0  0  0  0  0  0
  -20.9359  -29.8753   21.6895 H   0  0  0  0  0  0
  -26.0175  -38.2851   24.1407 H   0  0  0  0  0  0
  -30.5774  -20.1471   20.6878 H   0  0  0  0  0  0
  -26.3374  -22.5118   21.0563 H   0  0  0  0  0  0
  -25.1929  -21.2329   20.8151 H   0  0  0  0  0  0
  -25.8518  -22.0732   19.4139 H   0  0  0  0  0  0
  -24.9124  -18.8212   20.6332 H   0  0  0  0  0  0
  -25.4816  -17.8600   19.2690 H   0  0  0  0  0  0
  -25.0138  -19.5316   19.0151 H   0  0  0  0  0  0
  -28.6139  -16.9943   22.4596 H   0  0  0  0  0  0
  -28.9451  -15.3408   22.8534 H   0  0  0  0  0  0
  -27.9057  -15.7429   21.4629 H   0  0  0  0  0  0
  -30.0394  -22.5460   21.0926 H   0  0  0  0  0  0
  -28.5257  -22.6686   21.8967 H   0  0  0  0  0  0
  -31.1040  -17.7087   20.0816 H   0  0  0  0  0  0
  -29.9169  -16.9504   19.0972 H   0  0  0  0  0  0
  -27.7221  -23.5651   19.3846 H   0  0  0  0  0  0
  -29.3983  -23.9556   19.3040 H   0  0  0  0  0  0
  -28.9929  -25.2307   21.5969 H   0  0  0  0  0  0
  -27.3077  -25.0613   21.2814 H   0  0  0  0  0  0
  -30.8128  -16.3345   21.8361 H   0  0  0  0  0  0
  1 25  1  0  0  0
  1 30  2  0  0  0
  1 83  1  0  0  0
  2  3  1  0  0  0
  2 25  1  0  0  0
  2 85  1  0  0  0
  2 86  1  0  0  0
  3  4  1  0  0  0
  3 87  1  0  0  0
  3 88  1  0  0  0
  4  5  1  0  0  0
  4 89  1  0  0  0
  4 90  1  0  0  0
  5  6  1  0  0  0
  5 26  1  0  0  0
  5 91  1  0  0  0
  6 25  1  0  0  0
  6 92  1  0  0  0
  6 93  1  0  0  0
  7  8  2  0  0  0
  7 26  1  0  0  0
  7 29  1  0  0  0
  8  9  1  0  0  0
  8 22  1  0  0  0
  9 10  1  0  0  0
  9 27  2  0  0  0
 10 11  2  0  0  0
 10 15  1  0  0  0
 11 12  1  0  0  0
 11 94  1  0  0  0
 12 13  2  0  0  0
 12 95  1  0  0  0
 13 14  1  0  0  0
 13 31  1  0  0  0
 14 15  2  0  0  0
 14 96  1  0  0  0
 15 97  1  0  0  0
 16 17  2  0  0  0
 16 21  1  0  0  0
 16 31  1  0  0  0
 17 18  1  0  0  0
 17 98  1  0  0  0
 18 19  2  0  0  0
 18 99  1  0  0  0
 19 20  1  0  0  0
 19 24  1  0  0  0
 20 21  2  0  0  0
 20100  1  0  0  0
 21 23  1  0  0  0
 22 28  1  0  0  0
 22 32  2  0  0  0
 26 27  1  0  0  0
 28101  1  0  0  0
 28102  1  0  0  0
 29103  1  0  0  0
 29104  1  0  0  0
 33 34  1  0  0  0
 33 66  1  0  0  0
 33 70  2  0  0  0
 34 36  1  0  0  0
 34 59  1  0  0  0
 34105  1  0  0  0
 35 44  2  0  0  0
 35 45  1  0  0  0
 35 68  1  0  0  0
 36 56  1  0  0  0
 36106  1  0  0  0
 37 39  1  0  0  0
 37 47  1  0  0  0
 37 66  1  0  0  0
 37107  1  0  0  0
 38 43  2  0  0  0
 38 46  1  0  0  0
 38 47  1  0  0  0
 39 64  1  0  0  0
 39 67  2  0  0  0
 40 52  1  0  0  0
 40 53  2  0  0  0
 40 58  1  0  0  0
 41108  1  0  0  0
 41109  1  0  0  0
 41110  1  0  0  0
 41 48  1  0  0  0
 42 43  1  0  0  0
 42 66  1  0  0  0
 42111  1  0  0  0
 42112  1  0  0  0
 43 44  1  0  0  0
 44113  1  0  0  0
 45 46  2  0  0  0
 45114  1  0  0  0
 46115  1  0  0  0
 47116  1  0  0  0
 47117  1  0  0  0
 48 56  1  0  0  0
 48 65  1  0  0  0
 48118  1  0  0  0
 49 50  1  0  0  0
 49 53  1  0  0  0
 49 64  1  0  0  0
 49119  1  0  0  0
 50 51  1  0  0  0
 50120  1  0  0  0
 50121  1  0  0  0
 51 52  1  0  0  0
 51122  1  0  0  0
 51123  1  0  0  0
 52124  1  0  0  0
 52125  1  0  0  0
 53 54  1  0  0  0
 54 55  2  0  0  0
 54126  1  0  0  0
 55 57  1  0  0  0
 55127  1  0  0  0
 56 69  2  0  0  0
 57 58  2  0  0  0
 57128  1  0  0  0
 58129  1  0  0  0
 59 60  1  0  0  0
 59 61  1  0  0  0
 59 62  1  0  0  0
 60130  1  0  0  0
 60131  1  0  0  0
 60132  1  0  0  0
 61133  1  0  0  0
 61134  1  0  0  0
 61135  1  0  0  0
 62136  1  0  0  0
 62137  1  0  0  0
 62138  1  0  0  0
 63 65  1  0  0  0
 63139  1  0  0  0
 63140  1  0  0  0
 63141  1  0  0  0
 64142  1  0  0  0
 65143  1  0  0  0
 68 82  1  0  0  0
 71 72  2  0  0  0
 71 74  1  0  0  0
 71144  1  0  0  0
 72 73  1  0  0  0
 72 79  1  0  0  0
 73 75  2  0  0  0
 73 76  1  0  0  0
 74 80  1  0  0  0
 74 84  2  0  0  0
 75 77  1  0  0  0
 75 84  1  0  0  0
 76145  1  0  0  0
 76146  1  0  0  0
 76147  1  0  0  0
 77148  1  0  0  0
 77149  1  0  0  0
 77150  1  0  0  0
 78151  1  0  0  0
 78152  1  0  0  0
 78153  1  0  0  0
 78 83  1  0  0  0
 79 81  1  0  0  0
 79154  1  0  0  0
 79155  1  0  0  0
 80 83  1  0  0  0
 80156  1  0  0  0
 80157  1  0  0  0
 81 82  1  0  0  0
 81158  1  0  0  0
 81159  1  0  0  0
 82160  1  0  0  0
 82161  1  0  0  0
 83162  1  0  0  0
M  ISO  4   1 100  68 101  82 101  83 100
M  END
> <chiral flag>
0

> <version>
0

> <s_m_source_file>
/data/baiqing/PycharmProjects/Reinvent-master-3.2/result/LINK_invent/BTK/process_docking_weight1_custom_sum_contain_oxygen_bond_distance_aromatic_linkinvent_7_9_3/rearranged_h_0076.sdf

> <i_m_source_file_index>
29

> <r_mmod_Potential_Energy-OPLS-2005>
-48.613109588623

> <r_mmod_Stretch_Energy-OPLS-2005>
100.774383544922

> <r_mmod_Bend_Energy-OPLS-2005>
182.223678588867

> <r_mmod_Torsional_Energy-OPLS-2005>
206.653274536133

> <r_mmod_Improper_Torsional_Energy-OPLS-2005>
3.19464087486267

> <r_mmod_Van_der_Waal_Energy-OPLS-2005>
143.123794555664

> <r_mmod_Electrostatic_Energy-OPLS-2005>
-542.130920410156

> <r_mmod_Solvation_Energy-OPLS-2005>
-192.336700439453

> <b_mmod_Minimization_Converged-OPLS-2005>
0

> <r_mmod_RMS_Derivative-OPLS-2005>
0.593236923217773

$$$$
29
                    3D
 Structure written by MMmdl.
167175  0  0  1  0            999 V2000
  -30.8207  -14.3016   20.7364 C   0  0  0  0  0  0
  -30.4075  -12.2865   19.3802 C   0  0  0  0  0  0
  -29.4734  -12.5419   18.1863 C   0  0  0  0  0  0
  -28.0035  -12.3856   18.6105 C   0  0  0  0  0  0
  -27.6670  -13.2057   19.8823 C   0  0  2  0  0  0
  -28.7055  -12.9566   20.9991 C   0  0  0  0  0  0
  -25.2604  -13.8172   20.5684 C   0  0  0  0  0  0
  -24.1845  -13.0449   20.9163 C   0  0  0  0  0  0
  -24.6392  -11.6916   20.8721 C   0  0  0  0  0  0
  -23.9053  -10.4301   21.0394 C   0  0  0  0  0  0
  -24.3603   -9.4220   21.9178 C   0  0  0  0  0  0
  -23.6282   -8.2255   22.0754 C   0  0  0  0  0  0
  -22.4268   -8.0283   21.3543 C   0  0  0  0  0  0
  -21.9900   -9.0255   20.4644 C   0  0  0  0  0  0
  -22.7221  -10.2139   20.3051 C   0  0  0  0  0  0
  -21.6853   -6.0732   22.5276 C   0  0  0  0  0  0
  -21.4018   -6.5636   23.8208 C   0  0  0  0  0  0
  -21.3661   -5.6790   24.9171 C   0  0  0  0  0  0
  -21.6046   -4.3052   24.7225 C   0  0  0  0  0  0
  -21.8818   -3.8143   23.4347 C   0  0  0  0  0  0
  -21.9191   -4.6959   22.3402 C   0  0  0  0  0  0
  -22.7868  -13.5250   21.1826 C   0  0  0  0  0  0
  -22.1659   -4.2146   21.0979 F   0  0  0  0  0  0
  -21.5629   -3.4539   25.7739 F   0  0  0  0  0  0
  -30.0564  -13.2149   20.4641 N   0  0  0  0  0  0
  -26.3049  -12.9343   20.3400 N   0  0  0  0  0  0
  -25.9322  -11.6498   20.5763 N   0  0  0  0  0  0
  -22.0500  -12.8250   22.0383 N   0  0  0  0  0  0
  -25.4344  -15.1887   20.4100 N   0  0  0  0  0  0
  -31.7527  -14.6745   20.0167 O   0  0  0  0  0  0
  -21.6637   -6.8877   21.4239 O   0  0  0  0  0  0
  -22.3558  -14.5557   20.6675 O   0  0  0  0  0  0
  -24.6109  -31.8700   23.2125 C   0  0  0  0  0  0
  -25.9016  -32.4835   23.8407 C   0  0  1  0  0  0
  -27.2362  -27.4750   20.0877 C   0  0  0  0  0  0
  -25.5889  -33.8633   24.2341 N   0  0  0  0  0  0
  -23.3981  -30.4929   21.5524 C   0  0  2  0  0  0
  -24.8469  -28.9665   20.1111 C   0  0  0  0  0  0
  -22.7388  -29.4661   22.5006 C   0  0  0  0  0  0
  -18.0266  -28.1376   22.8497 C   0  0  0  0  0  0
  -24.1490  -36.7318   23.2635 C   0  0  0  0  0  0
  -25.9227  -30.8487   21.3600 C   0  0  0  0  0  0
  -26.0040  -29.4868   20.7060 C   0  0  0  0  0  0
  -27.2055  -28.7467   20.6941 C   0  0  0  0  0  0
  -26.0695  -26.9614   19.4841 C   0  0  0  0  0  0
  -24.8721  -27.7011   19.4980 C   0  0  0  0  0  0
  -23.6047  -29.8258   20.1660 C   0  0  0  0  0  0
  -25.4112  -36.3121   24.0339 C   0  0  1  0  0  0
  -20.5853  -28.3658   23.1336 C   0  0  2  0  0  0
  -20.6757  -26.9399   22.5426 C   0  0  0  0  0  0
  -19.5740  -26.6389   21.5215 C   0  0  0  0  0  0
  -18.1914  -26.7929   22.1616 C   0  0  0  0  0  0
  -19.1514  -28.8832   23.2915 C   0  0  0  0  0  0
  -18.9445  -30.1439   23.8926 C   0  0  0  0  0  0
  -17.6450  -30.6584   24.0570 C   0  0  0  0  0  0
  -25.9038  -34.9482   23.5139 C   0  0  0  0  0  0
  -16.5342  -29.9091   23.6325 C   0  0  0  0  0  0
  -16.7257  -28.6505   23.0354 C   0  0  0  0  0  0
  -26.4460  -31.6602   25.0717 C   0  0  0  0  0  0
  -25.3739  -31.3688   26.1469 C   0  0  0  0  0  0
  -27.0285  -30.3054   24.6058 C   0  0  0  0  0  0
  -27.6043  -32.4311   25.7479 C   0  0  0  0  0  0
  -27.5596  -37.1803   24.8457 C   0  0  0  0  0  0
  -21.4120  -29.3027   22.3744 N   0  0  0  0  0  0
  -26.4299  -37.3806   23.9416 N   0  0  0  0  0  0
  -24.6618  -31.0835   22.1007 N   0  0  0  0  0  0
  -23.4171  -28.8204   23.3040 O   0  0  0  0  0  0
  -28.3767  -26.7148   20.1147 O   0  0  0  0  0  0
  -26.5603  -34.8928   22.4700 O   0  0  0  0  0  0
  -23.5309  -32.1433   23.7537 O   0  0  0  0  0  0
  -31.4712  -18.3725   21.8683 C   0  0  0  0  0  0
  -30.7530  -17.2681   22.3893 C   0  0  0  0  0  0
  -28.9036  -18.6119   22.6701 C   0  0  0  0  0  0
  -29.6196  -19.7196   22.1473 C   0  0  0  0  0  0
  -27.4729  -18.7314   23.1566 C   0  0  0  0  0  0
  -32.5562  -16.6324   24.7403 C   0  0  0  0  0  0
  -30.5558  -15.0867   24.8787 C   0  0  0  0  0  0
  -29.1769  -24.4756   20.7378 C   0  0  0  0  0  0
  -28.7963  -23.2592   21.5994 C   0  0  0  0  0  0
  -28.2877  -25.6759   21.0884 C   0  0  0  0  0  0
  -29.6762  -22.0208   21.3972 C   0  0  0  0  0  0
  -31.4085  -15.8994   22.5534 C   0  0  1  0  0  0
  -31.7618  -15.5274   24.0229 C   0  0  0  0  0  0
  -30.9067  -19.5971   21.7337 N   0  0  0  0  0  0
  -29.4580  -17.3822   22.7739 N   0  0  0  0  0  0
  -30.6042  -14.8457   21.9362 N   0  0  0  0  0  0
  -29.0132  -20.9542   22.0697 O   0  0  0  0  0  0
  -31.4501  -12.3830   19.0710 H   0  0  0  0  0  0
  -30.2999  -11.2592   19.7316 H   0  0  0  0  0  0
  -29.7032  -11.8525   17.3726 H   0  0  0  0  0  0
  -29.6388  -13.5465   17.7941 H   0  0  0  0  0  0
  -27.8171  -11.3262   18.7907 H   0  0  0  0  0  0
  -27.3430  -12.6752   17.7921 H   0  0  0  0  0  0
  -27.7237  -14.2597   19.6083 H   0  0  0  0  0  0
  -28.6526  -11.9229   21.3440 H   0  0  0  0  0  0
  -28.4572  -13.5706   21.8652 H   0  0  0  0  0  0
  -25.2746   -9.5701   22.4756 H   0  0  0  0  0  0
  -23.9992   -7.4652   22.7481 H   0  0  0  0  0  0
  -21.0831   -8.8767   19.8952 H   0  0  0  0  0  0
  -22.3670  -10.9677   19.6161 H   0  0  0  0  0  0
  -21.2016   -7.6144   23.9710 H   0  0  0  0  0  0
  -21.1485   -6.0522   25.9074 H   0  0  0  0  0  0
  -22.0596   -2.7605   23.2846 H   0  0  0  0  0  0
  -22.4101  -11.9901   22.4764 H   0  0  0  0  0  0
  -21.1124  -13.1297   22.2589 H   0  0  0  0  0  0
  -24.6752  -15.8510   20.5251 H   0  0  0  0  0  0
  -26.3025  -15.6257   20.1249 H   0  0  0  0  0  0
  -26.7096  -32.5571   23.1188 H   0  0  0  0  0  0
  -25.0054  -33.9808   25.0495 H   0  0  0  0  0  0
  -22.6851  -31.3080   21.4149 H   0  0  0  0  0  0
  -23.3763  -35.9638   23.3281 H   0  0  0  0  0  0
  -24.3586  -36.8945   22.2052 H   0  0  0  0  0  0
  -23.7222  -37.6508   23.6660 H   0  0  0  0  0  0
  -26.0280  -31.6175   20.5932 H   0  0  0  0  0  0
  -26.8126  -30.9037   21.9752 H   0  0  0  0  0  0
  -28.0984  -29.1380   21.1614 H   0  0  0  0  0  0
  -26.0875  -25.9856   19.0186 H   0  0  0  0  0  0
  -23.9826  -27.2935   19.0381 H   0  0  0  0  0  0
  -23.7051  -30.6007   19.4053 H   0  0  0  0  0  0
  -22.7313  -29.2397   19.8748 H   0  0  0  0  0  0
  -25.1285  -36.1994   25.0833 H   0  0  0  0  0  0
  -20.9943  -28.3220   24.1456 H   0  0  0  0  0  0
  -20.5661  -26.2261   23.3604 H   0  0  0  0  0  0
  -21.6631  -26.7438   22.1228 H   0  0  0  0  0  0
  -19.6906  -25.6303   21.1235 H   0  0  0  0  0  0
  -19.6693  -27.3207   20.6750 H   0  0  0  0  0  0
  -17.4191  -26.6683   21.4011 H   0  0  0  0  0  0
  -18.0304  -26.0059   22.8999 H   0  0  0  0  0  0
  -19.7917  -30.7247   24.2317 H   0  0  0  0  0  0
  -17.5003  -31.6267   24.5164 H   0  0  0  0  0  0
  -15.5348  -30.3010   23.7624 H   0  0  0  0  0  0
  -15.8651  -28.0835   22.7068 H   0  0  0  0  0  0
  -24.5927  -30.7016   25.7804 H   0  0  0  0  0  0
  -24.8916  -32.2835   26.4926 H   0  0  0  0  0  0
  -25.8106  -30.8856   27.0216 H   0  0  0  0  0  0
  -26.2812  -29.6826   24.1125 H   0  0  0  0  0  0
  -27.4085  -29.7277   25.4494 H   0  0  0  0  0  0
  -27.8633  -30.4392   23.9172 H   0  0  0  0  0  0
  -27.2674  -33.3604   26.2086 H   0  0  0  0  0  0
  -28.3841  -32.6871   25.0295 H   0  0  0  0  0  0
  -28.0720  -31.8412   26.5374 H   0  0  0  0  0  0
  -28.2586  -38.0132   24.7567 H   0  0  0  0  0  0
  -28.1121  -36.2666   24.6211 H   0  0  0  0  0  0
  -27.2318  -37.1374   25.8858 H   0  0  0  0  0  0
  -20.9274  -29.8759   21.6980 H   0  0  0  0  0  0
  -26.0191  -38.2875   24.1452 H   0  0  0  0  0  0
  -32.5014  -18.2752   21.5588 H   0  0  0  0  0  0
  -27.1369  -19.7674   23.1891 H   0  0  0  0  0  0
  -27.3820  -18.3221   24.1627 H   0  0  0  0  0  0
  -26.8041  -18.1774   22.4985 H   0  0  0  0  0  0
  -32.8903  -16.2999   25.7239 H   0  0  0  0  0  0
  -31.9575  -17.5320   24.8867 H   0  0  0  0  0  0
  -33.4455  -16.9108   24.1733 H   0  0  0  0  0  0
  -30.8781  -14.7829   25.8754 H   0  0  0  0  0  0
  -30.0313  -14.2347   24.4465 H   0  0  0  0  0  0
  -29.8342  -15.8935   25.0062 H   0  0  0  0  0  0
  -29.0525  -24.2205   19.6846 H   0  0  0  0  0  0
  -30.2263  -24.7362   20.8782 H   0  0  0  0  0  0
  -27.7626  -22.9899   21.3769 H   0  0  0  0  0  0
  -28.8156  -23.5353   22.6546 H   0  0  0  0  0  0
  -28.5728  -26.0769   22.0621 H   0  0  0  0  0  0
  -27.2598  -25.3225   21.1970 H   0  0  0  0  0  0
  -30.6721  -22.2021   21.8049 H   0  0  0  0  0  0
  -29.7774  -21.7850   20.3366 H   0  0  0  0  0  0
  -32.3655  -15.9628   22.0313 H   0  0  0  0  0  0
  -32.4197  -14.6586   23.9669 H   0  0  0  0  0  0
  -29.8359  -14.4876   22.4806 H   0  0  0  0  0  0
  1 25  1  0  0  0
  1 30  2  0  0  0
  1 86  1  0  0  0
  2  3  1  0  0  0
  2 25  1  0  0  0
  2 88  1  0  0  0
  2 89  1  0  0  0
  3  4  1  0  0  0
  3 90  1  0  0  0
  3 91  1  0  0  0
  4  5  1  0  0  0
  4 92  1  0  0  0
  4 93  1  0  0  0
  5  6  1  0  0  0
  5 26  1  0  0  0
  5 94  1  0  0  0
  6 25  1  0  0  0
  6 95  1  0  0  0
  6 96  1  0  0  0
  7  8  2  0  0  0
  7 26  1  0  0  0
  7 29  1  0  0  0
  8  9  1  0  0  0
  8 22  1  0  0  0
  9 10  1  0  0  0
  9 27  2  0  0  0
 10 11  2  0  0  0
 10 15  1  0  0  0
 11 12  1  0  0  0
 11 97  1  0  0  0
 12 13  2  0  0  0
 12 98  1  0  0  0
 13 14  1  0  0  0
 13 31  1  0  0  0
 14 15  2  0  0  0
 14 99  1  0  0  0
 15100  1  0  0  0
 16 17  2  0  0  0
 16 21  1  0  0  0
 16 31  1  0  0  0
 17 18  1  0  0  0
 17101  1  0  0  0
 18 19  2  0  0  0
 18102  1  0  0  0
 19 20  1  0  0  0
 19 24  1  0  0  0
 20 21  2  0  0  0
 20103  1  0  0  0
 21 23  1  0  0  0
 22 28  1  0  0  0
 22 32  2  0  0  0
 26 27  1  0  0  0
 28104  1  0  0  0
 28105  1  0  0  0
 29106  1  0  0  0
 29107  1  0  0  0
 33 34  1  0  0  0
 33 66  1  0  0  0
 33 70  2  0  0  0
 34 36  1  0  0  0
 34 59  1  0  0  0
 34108  1  0  0  0
 35 44  2  0  0  0
 35 45  1  0  0  0
 35 68  1  0  0  0
 36 56  1  0  0  0
 36109  1  0  0  0
 37 39  1  0  0  0
 37 47  1  0  0  0
 37 66  1  0  0  0
 37110  1  0  0  0
 38 43  2  0  0  0
 38 46  1  0  0  0
 38 47  1  0  0  0
 39 64  1  0  0  0
 39 67  2  0  0  0
 40 52  1  0  0  0
 40 53  2  0  0  0
 40 58  1  0  0  0
 41111  1  0  0  0
 41112  1  0  0  0
 41113  1  0  0  0
 41 48  1  0  0  0
 42 43  1  0  0  0
 42 66  1  0  0  0
 42114  1  0  0  0
 42115  1  0  0  0
 43 44  1  0  0  0
 44116  1  0  0  0
 45 46  2  0  0  0
 45117  1  0  0  0
 46118  1  0  0  0
 47119  1  0  0  0
 47120  1  0  0  0
 48 56  1  0  0  0
 48 65  1  0  0  0
 48121  1  0  0  0
 49 50  1  0  0  0
 49 53  1  0  0  0
 49 64  1  0  0  0
 49122  1  0  0  0
 50 51  1  0  0  0
 50123  1  0  0  0
 50124  1  0  0  0
 51 52  1  0  0  0
 51125  1  0  0  0
 51126  1  0  0  0
 52127  1  0  0  0
 52128  1  0  0  0
 53 54  1  0  0  0
 54 55  2  0  0  0
 54129  1  0  0  0
 55 57  1  0  0  0
 55130  1  0  0  0
 56 69  2  0  0  0
 57 58  2  0  0  0
 57131  1  0  0  0
 58132  1  0  0  0
 59 60  1  0  0  0
 59 61  1  0  0  0
 59 62  1  0  0  0
 60133  1  0  0  0
 60134  1  0  0  0
 60135  1  0  0  0
 61136  1  0  0  0
 61137  1  0  0  0
 61138  1  0  0  0
 62139  1  0  0  0
 62140  1  0  0  0
 62141  1  0  0  0
 63 65  1  0  0  0
 63142  1  0  0  0
 63143  1  0  0  0
 63144  1  0  0  0
 64145  1  0  0  0
 65146  1  0  0  0
 68 80  1  0  0  0
 71 72  2  0  0  0
 71 84  1  0  0  0
 71147  1  0  0  0
 72 82  1  0  0  0
 72 85  1  0  0  0
 73 74  1  0  0  0
 73 75  1  0  0  0
 73 85  2  0  0  0
 74 84  2  0  0  0
 74 87  1  0  0  0
 75148  1  0  0  0
 75149  1  0  0  0
 75150  1  0  0  0
 76151  1  0  0  0
 76152  1  0  0  0
 76153  1  0  0  0
 76 83  1  0  0  0
 77 83  1  0  0  0
 77154  1  0  0  0
 77155  1  0  0  0
 77156  1  0  0  0
 78 79  1  0  0  0
 78 80  1  0  0  0
 78157  1  0  0  0
 78158  1  0  0  0
 79 81  1  0  0  0
 79159  1  0  0  0
 79160  1  0  0  0
 80161  1  0  0  0
 80162  1  0  0  0
 81 87  1  0  0  0
 81163  1  0  0  0
 81164  1  0  0  0
 82 83  1  0  0  0
 82 86  1  0  0  0
 82165  1  0  0  0
 83166  1  0  0  0
 86167  1  0  0  0
M  ISO  4   1 100  68 101  80 101  86 100
M  END
> <chiral flag>
0

> <version>
0

> <s_m_source_file>
/data/baiqing/PycharmProjects/Reinvent-master-3.2/result/LINK_invent/BTK/process_docking_weight1_custom_sum_contain_oxygen_bond_distance_aromatic_linkinvent_7_9_3/rearranged_h_0076.sdf

> <i_m_source_file_index>
30

> <r_mmod_Potential_Energy-OPLS-2005>
-86.4822387695312

> <r_mmod_Stretch_Energy-OPLS-2005>
34.2536735534668

> <r_mmod_Bend_Energy-OPLS-2005>
96.9169769287109

> <r_mmod_Torsional_Energy-OPLS-2005>
210.313003540039

> <r_mmod_Improper_Torsional_Energy-OPLS-2005>
3.26632761955261

> <r_mmod_Van_der_Waal_Energy-OPLS-2005>
163.666076660156

> <r_mmod_Electrostatic_Energy-OPLS-2005>
-408.0390625

> <r_mmod_Solvation_Energy-OPLS-2005>
-195.460494995117

> <b_mmod_Minimization_Converged-OPLS-2005>
0

> <r_mmod_RMS_Derivative-OPLS-2005>
0.843356728553772

$$$$
30
                    3D
 Structure written by MMmdl.
157165  0  0  1  0            999 V2000
  -30.6056  -14.7310   20.4734 C   0  0  0  0  0  0
  -30.4393  -12.4530   19.4547 C   0  0  0  0  0  0
  -29.5083  -12.4995   18.2237 C   0  0  0  0  0  0
  -28.0347  -12.3237   18.6430 C   0  0  0  0  0  0
  -27.6418  -13.2254   19.8442 C   0  0  2  0  0  0
  -28.6885  -13.1478   20.9748 C   0  0  0  0  0  0
  -25.2529  -13.8185   20.5687 C   0  0  0  0  0  0
  -24.1812  -13.0441   20.9212 C   0  0  0  0  0  0
  -24.6398  -11.6916   20.8750 C   0  0  0  0  0  0
  -23.9079  -10.4292   21.0414 C   0  0  0  0  0  0
  -24.3630   -9.4203   21.9184 C   0  0  0  0  0  0
  -23.6301   -8.2240   22.0751 C   0  0  0  0  0  0
  -22.4282   -8.0284   21.3544 C   0  0  0  0  0  0
  -21.9924   -9.0264   20.4649 C   0  0  0  0  0  0
  -22.7256  -10.2138   20.3059 C   0  0  0  0  0  0
  -21.6854   -6.0745   22.5278 C   0  0  0  0  0  0
  -21.4018   -6.5645   23.8214 C   0  0  0  0  0  0
  -21.3656   -5.6790   24.9171 C   0  0  0  0  0  0
  -21.6044   -4.3056   24.7219 C   0  0  0  0  0  0
  -21.8821   -3.8153   23.4339 C   0  0  0  0  0  0
  -21.9195   -4.6971   22.3400 C   0  0  0  0  0  0
  -22.7836  -13.5229   21.1866 C   0  0  0  0  0  0
  -22.1664   -4.2164   21.0976 F   0  0  0  0  0  0
  -21.5624   -3.4537   25.7729 F   0  0  0  0  0  0
  -29.9864  -13.5065   20.3879 N   0  0  0  0  0  0
  -26.2943  -12.9380   20.3252 N   0  0  0  0  0  0
  -25.9321  -11.6531   20.5732 N   0  0  0  0  0  0
  -22.0473  -12.8225   22.0416 N   0  0  0  0  0  0
  -25.4216  -15.1912   20.4102 N   0  0  0  0  0  0
  -31.8045  -14.8418   20.2035 O   0  0  0  0  0  0
  -21.6641   -6.8888   21.4240 O   0  0  0  0  0  0
  -22.3524  -14.5531   20.6698 O   0  0  0  0  0  0
  -24.6302  -31.8553   23.1973 C   0  0  0  0  0  0
  -25.9127  -32.4756   23.8324 C   0  0  1  0  0  0
  -27.2239  -27.2724   20.1381 C   0  0  0  0  0  0
  -25.5921  -33.8557   24.2253 N   0  0  0  0  0  0
  -23.4277  -30.4755   21.5406 C   0  0  2  0  0  0
  -24.8761  -28.9173   20.1148 C   0  0  0  0  0  0
  -22.7500  -29.4601   22.4924 C   0  0  0  0  0  0
  -18.0293  -28.1387   22.8491 C   0  0  0  0  0  0
  -24.1487  -36.7283   23.2643 C   0  0  0  0  0  0
  -25.9712  -30.7734   21.3730 C   0  0  0  0  0  0
  -26.0472  -29.3942   20.7194 C   0  0  0  0  0  0
  -27.2281  -28.5857   20.7143 C   0  0  0  0  0  0
  -26.0327  -26.8527   19.5123 C   0  0  0  0  0  0
  -24.8727  -27.6543   19.5000 C   0  0  0  0  0  0
  -23.6459  -29.8040   20.1586 C   0  0  0  0  0  0
  -25.4112  -36.3071   24.0330 C   0  0  1  0  0  0
  -20.5895  -28.3696   23.1277 C   0  0  2  0  0  0
  -20.6780  -26.9415   22.5414 C   0  0  0  0  0  0
  -19.5753  -26.6385   21.5219 C   0  0  0  0  0  0
  -18.1934  -26.7933   22.1629 C   0  0  0  0  0  0
  -19.1547  -28.8860   23.2879 C   0  0  0  0  0  0
  -18.9467  -30.1459   23.8899 C   0  0  0  0  0  0
  -17.6466  -30.6591   24.0562 C   0  0  0  0  0  0
  -25.9049  -34.9442   23.5097 C   0  0  0  0  0  0
  -16.5355  -29.9088   23.6332 C   0  0  0  0  0  0
  -16.7280  -28.6503   23.0359 C   0  0  0  0  0  0
  -26.4496  -31.6581   25.0715 C   0  0  0  0  0  0
  -25.3715  -31.3735   26.1436 C   0  0  0  0  0  0
  -27.0350  -30.3003   24.6193 C   0  0  0  0  0  0
  -27.6053  -32.4321   25.7486 C   0  0  0  0  0  0
  -27.5577  -37.1797   24.8468 C   0  0  0  0  0  0
  -21.4209  -29.3043   22.3666 N   0  0  0  0  0  0
  -26.4289  -37.3767   23.9409 N   0  0  0  0  0  0
  -24.6955  -31.0525   22.0937 N   0  0  0  0  0  0
  -23.4204  -28.8153   23.3028 O   0  0  0  0  0  0
  -28.3199  -26.3855   20.1465 O   0  0  0  0  0  0
  -26.5626  -34.8922   22.4668 O   0  0  0  0  0  0
  -23.5451  -32.1366   23.7272 O   0  0  0  0  0  0
  -30.8145  -23.4538   20.3928 C   0  0  0  0  0  0
  -31.8099  -22.5366   20.5859 C   0  0  0  0  0  0
  -29.8609  -21.4153   20.4536 C   0  0  0  0  0  0
  -33.2848  -22.6962   20.7587 C   0  0  0  0  0  0
  -29.0020  -20.0990   20.5304 C   0  0  0  0  0  0
  -29.6331  -18.5986   20.2522 C   0  0  0  0  0  0
  -28.3311  -23.5868   20.0984 C   0  0  0  0  0  0
  -30.1790  -17.2812   21.0650 C   0  0  0  0  0  0
  -28.1485  -25.0452   20.8005 C   0  0  0  0  0  0
  -29.6121  -22.7877   20.3385 N   0  0  0  0  0  0
  -31.1897  -21.3199   20.6076 N   0  3  0  0  0  0
  -29.8112  -15.8474   20.6795 N   0  0  0  0  0  0
  -31.4762  -12.5959   19.1453 H   0  0  0  0  0  0
  -30.4015  -11.4746   19.9367 H   0  0  0  0  0  0
  -29.7874  -11.7228   17.5101 H   0  0  0  0  0  0
  -29.6312  -13.4507   17.7028 H   0  0  0  0  0  0
  -27.8938  -11.2754   18.9098 H   0  0  0  0  0  0
  -27.3753  -12.5108   17.7951 H   0  0  0  0  0  0
  -27.6373  -14.2474   19.4640 H   0  0  0  0  0  0
  -28.7255  -12.1452   21.4020 H   0  0  0  0  0  0
  -28.4238  -13.8182   21.7945 H   0  0  0  0  0  0
  -25.2776   -9.5676   22.4760 H   0  0  0  0  0  0
  -24.0015   -7.4628   22.7468 H   0  0  0  0  0  0
  -21.0857   -8.8792   19.8953 H   0  0  0  0  0  0
  -22.3725  -10.9681   19.6171 H   0  0  0  0  0  0
  -21.2013   -7.6153   23.9726 H   0  0  0  0  0  0
  -21.1471   -6.0514   25.9074 H   0  0  0  0  0  0
  -22.0602   -2.7618   23.2828 H   0  0  0  0  0  0
  -22.4090  -11.9906   22.4837 H   0  0  0  0  0  0
  -21.1079  -13.1245   22.2588 H   0  0  0  0  0  0
  -24.6510  -15.8413   20.5196 H   0  0  0  0  0  0
  -26.2614  -15.6313   20.0561 H   0  0  0  0  0  0
  -26.7199  -32.5412   23.1072 H   0  0  0  0  0  0
  -25.0057  -33.9688   25.0393 H   0  0  0  0  0  0
  -22.7243  -31.2974   21.3923 H   0  0  0  0  0  0
  -23.3750  -35.9613   23.3302 H   0  0  0  0  0  0
  -24.3579  -36.8905   22.2058 H   0  0  0  0  0  0
  -23.7241  -37.6485   23.6664 H   0  0  0  0  0  0
  -26.1046  -31.5336   20.6020 H   0  0  0  0  0  0
  -26.8507  -30.8261   22.0032 H   0  0  0  0  0  0
  -28.1296  -28.9485   21.1881 H   0  0  0  0  0  0
  -25.9937  -25.8795   19.0427 H   0  0  0  0  0  0
  -23.9749  -27.2830   19.0248 H   0  0  0  0  0  0
  -23.7699  -30.5778   19.3999 H   0  0  0  0  0  0
  -22.7649  -29.2353   19.8552 H   0  0  0  0  0  0
  -25.1294  -36.1919   25.0822 H   0  0  0  0  0  0
  -20.9989  -28.3274   24.1396 H   0  0  0  0  0  0
  -20.5686  -26.2305   23.3616 H   0  0  0  0  0  0
  -21.6646  -26.7443   22.1203 H   0  0  0  0  0  0
  -19.6911  -25.6296   21.1248 H   0  0  0  0  0  0
  -19.6690  -27.3196   20.6749 H   0  0  0  0  0  0
  -17.4204  -26.6691   21.4026 H   0  0  0  0  0  0
  -18.0325  -26.0073   22.9024 H   0  0  0  0  0  0
  -19.7940  -30.7275   24.2274 H   0  0  0  0  0  0
  -17.5018  -31.6273   24.5157 H   0  0  0  0  0  0
  -15.5355  -30.2986   23.7655 H   0  0  0  0  0  0
  -15.8683  -28.0815   22.7081 H   0  0  0  0  0  0
  -24.5885  -30.7092   25.7760 H   0  0  0  0  0  0
  -24.8911  -32.2908   26.4848 H   0  0  0  0  0  0
  -25.8023  -30.8917   27.0221 H   0  0  0  0  0  0
  -26.2938  -29.6747   24.1207 H   0  0  0  0  0  0
  -27.4033  -29.7269   25.4709 H   0  0  0  0  0  0
  -27.8807  -30.4292   23.9436 H   0  0  0  0  0  0
  -27.2664  -33.3622   26.2057 H   0  0  0  0  0  0
  -28.3861  -32.6878   25.0312 H   0  0  0  0  0  0
  -28.0721  -31.8451   26.5404 H   0  0  0  0  0  0
  -28.2598  -38.0091   24.7506 H   0  0  0  0  0  0
  -28.1070  -36.2622   24.6299 H   0  0  0  0  0  0
  -27.2296  -37.1454   25.8873 H   0  0  0  0  0  0
  -20.9397  -29.8751   21.6858 H   0  0  0  0  0  0
  -26.0169  -38.2841   24.1407 H   0  0  0  0  0  0
  -30.8793  -24.5310   20.3028 H   0  0  0  0  0  0
  -33.6004  -23.6890   20.4384 H   0  0  0  0  0  0
  -33.8240  -21.9542   20.1700 H   0  0  0  0  0  0
  -33.5566  -22.5708   21.8068 H   0  0  0  0  0  0
  -28.2034  -20.2698   19.8073 H   0  0  0  0  0  0
  -28.5149  -20.1310   21.5078 H   0  0  0  0  0  0
  -28.6242  -18.2036   20.3785 H   0  0  0  0  0  0
  -30.2535  -19.0150   21.0414 H   0  0  0  0  0  0
  -28.2038  -23.6812   19.0202 H   0  0  0  0  0  0
  -27.5182  -22.9432   20.4351 H   0  0  0  0  0  0
  -29.8675  -17.3567   22.1113 H   0  0  0  0  0  0
  -31.2730  -17.3067   21.0982 H   0  0  0  0  0  0
  -28.7951  -25.0631   21.6782 H   0  0  0  0  0  0
  -27.1500  -25.0319   21.2391 H   0  0  0  0  0  0
  -31.6736  -20.4386   20.7328 H   0  0  0  0  0  0
  -28.8293  -15.6287   20.7599 H   0  0  0  0  0  0
  1 25  1  0  0  0
  1 30  2  0  0  0
  1 82  1  0  0  0
  2  3  1  0  0  0
  2 25  1  0  0  0
  2 83  1  0  0  0
  2 84  1  0  0  0
  3  4  1  0  0  0
  3 85  1  0  0  0
  3 86  1  0  0  0
  4  5  1  0  0  0
  4 87  1  0  0  0
  4 88  1  0  0  0
  5  6  1  0  0  0
  5 26  1  0  0  0
  5 89  1  0  0  0
  6 25  1  0  0  0
  6 90  1  0  0  0
  6 91  1  0  0  0
  7  8  2  0  0  0
  7 26  1  0  0  0
  7 29  1  0  0  0
  8  9  1  0  0  0
  8 22  1  0  0  0
  9 10  1  0  0  0
  9 27  2  0  0  0
 10 11  2  0  0  0
 10 15  1  0  0  0
 11 12  1  0  0  0
 11 92  1  0  0  0
 12 13  2  0  0  0
 12 93  1  0  0  0
 13 14  1  0  0  0
 13 31  1  0  0  0
 14 15  2  0  0  0
 14 94  1  0  0  0
 15 95  1  0  0  0
 16 17  2  0  0  0
 16 21  1  0  0  0
 16 31  1  0  0  0
 17 18  1  0  0  0
 17 96  1  0  0  0
 18 19  2  0  0  0
 18 97  1  0  0  0
 19 20  1  0  0  0
 19 24  1  0  0  0
 20 21  2  0  0  0
 20 98  1  0  0  0
 21 23  1  0  0  0
 22 28  1  0  0  0
 22 32  2  0  0  0
 26 27  1  0  0  0
 28 99  1  0  0  0
 28100  1  0  0  0
 29101  1  0  0  0
 29102  1  0  0  0
 33 34  1  0  0  0
 33 66  1  0  0  0
 33 70  2  0  0  0
 34 36  1  0  0  0
 34 59  1  0  0  0
 34103  1  0  0  0
 35 44  2  0  0  0
 35 45  1  0  0  0
 35 68  1  0  0  0
 36 56  1  0  0  0
 36104  1  0  0  0
 37 39  1  0  0  0
 37 47  1  0  0  0
 37 66  1  0  0  0
 37105  1  0  0  0
 38 43  2  0  0  0
 38 46  1  0  0  0
 38 47  1  0  0  0
 39 64  1  0  0  0
 39 67  2  0  0  0
 40 52  1  0  0  0
 40 53  2  0  0  0
 40 58  1  0  0  0
 41106  1  0  0  0
 41107  1  0  0  0
 41108  1  0  0  0
 41 48  1  0  0  0
 42 43  1  0  0  0
 42 66  1  0  0  0
 42109  1  0  0  0
 42110  1  0  0  0
 43 44  1  0  0  0
 44111  1  0  0  0
 45 46  2  0  0  0
 45112  1  0  0  0
 46113  1  0  0  0
 47114  1  0  0  0
 47115  1  0  0  0
 48 56  1  0  0  0
 48 65  1  0  0  0
 48116  1  0  0  0
 49 50  1  0  0  0
 49 53  1  0  0  0
 49 64  1  0  0  0
 49117  1  0  0  0
 50 51  1  0  0  0
 50118  1  0  0  0
 50119  1  0  0  0
 51 52  1  0  0  0
 51120  1  0  0  0
 51121  1  0  0  0
 52122  1  0  0  0
 52123  1  0  0  0
 53 54  1  0  0  0
 54 55  2  0  0  0
 54124  1  0  0  0
 55 57  1  0  0  0
 55125  1  0  0  0
 56 69  2  0  0  0
 57 58  2  0  0  0
 57126  1  0  0  0
 58127  1  0  0  0
 59 60  1  0  0  0
 59 61  1  0  0  0
 59 62  1  0  0  0
 60128  1  0  0  0
 60129  1  0  0  0
 60130  1  0  0  0
 61131  1  0  0  0
 61132  1  0  0  0
 61133  1  0  0  0
 62134  1  0  0  0
 62135  1  0  0  0
 62136  1  0  0  0
 63 65  1  0  0  0
 63137  1  0  0  0
 63138  1  0  0  0
 63139  1  0  0  0
 64140  1  0  0  0
 65141  1  0  0  0
 68 79  1  0  0  0
 71 72  2  0  0  0
 71 80  1  0  0  0
 71142  1  0  0  0
 72 74  1  0  0  0
 72 81  1  0  0  0
 73 75  1  0  0  0
 73 80  1  0  0  0
 73 81  2  0  0  0
 74143  1  0  0  0
 74144  1  0  0  0
 74145  1  0  0  0
 75 76  1  0  0  0
 75146  1  0  0  0
 75147  1  0  0  0
 76 78  1  0  0  0
 76148  1  0  0  0
 76149  1  0  0  0
 77 79  1  0  0  0
 77 80  1  0  0  0
 77150  1  0  0  0
 77151  1  0  0  0
 78 82  1  0  0  0
 78152  1  0  0  0
 78153  1  0  0  0
 79154  1  0  0  0
 79155  1  0  0  0
 81156  1  0  0  0
 82157  1  0  0  0
M  CHG  1  81   1
M  ISO  4   1 100  68 101  79 101  82 100
M  END
> <chiral flag>
0

> <version>
0

> <s_m_source_file>
/data/baiqing/PycharmProjects/Reinvent-master-3.2/result/LINK_invent/BTK/process_docking_weight1_custom_sum_contain_oxygen_bond_distance_aromatic_linkinvent_7_9_3/rearranged_h_0076.sdf

> <i_m_source_file_index>
31

> <r_mmod_Potential_Energy-OPLS-2005>
388.538146972656

> <r_mmod_Stretch_Energy-OPLS-2005>
132.345138549805

> <r_mmod_Bend_Energy-OPLS-2005>
426.829620361328

> <r_mmod_Torsional_Energy-OPLS-2005>
254.109619140625

> <r_mmod_Improper_Torsional_Energy-OPLS-2005>
4.6938624382019

> <r_mmod_Van_der_Waal_Energy-OPLS-2005>
123.753868103027

> <r_mmod_Electrostatic_Energy-OPLS-2005>
-212.710205078125

> <r_mmod_Solvation_Energy-OPLS-2005>
-420.624450683594

> <b_mmod_Minimization_Converged-OPLS-2005>
0

> <r_mmod_RMS_Derivative-OPLS-2005>
1.12862539291382

$$$$
31
                    3D
 Structure written by MMmdl.
173181  0  0  1  0            999 V2000
  -30.7783  -14.3636   20.4355 C   0  0  0  0  0  0
  -30.3842  -12.2067   19.4262 C   0  0  0  0  0  0
  -29.4915  -12.4650   18.1981 C   0  0  0  0  0  0
  -28.0035  -12.3815   18.5975 C   0  0  0  0  0  0
  -27.6577  -13.2187   19.8641 C   0  0  2  0  0  0
  -28.7065  -13.0369   20.9886 C   0  0  0  0  0  0
  -25.2566  -13.8213   20.5672 C   0  0  0  0  0  0
  -24.1835  -13.0441   20.9155 C   0  0  0  0  0  0
  -24.6408  -11.6917   20.8745 C   0  0  0  0  0  0
  -23.9086  -10.4287   21.0419 C   0  0  0  0  0  0
  -24.3639   -9.4196   21.9182 C   0  0  0  0  0  0
  -23.6301   -8.2245   22.0772 C   0  0  0  0  0  0
  -22.4289   -8.0294   21.3558 C   0  0  0  0  0  0
  -21.9934   -9.0268   20.4665 C   0  0  0  0  0  0
  -22.7269  -10.2134   20.3044 C   0  0  0  0  0  0
  -21.6844   -6.0737   22.5279 C   0  0  0  0  0  0
  -21.4014   -6.5647   23.8217 C   0  0  0  0  0  0
  -21.3660   -5.6807   24.9187 C   0  0  0  0  0  0
  -21.6040   -4.3067   24.7235 C   0  0  0  0  0  0
  -21.8817   -3.8148   23.4355 C   0  0  0  0  0  0
  -21.9197   -4.6968   22.3404 C   0  0  0  0  0  0
  -22.7865  -13.5225   21.1824 C   0  0  0  0  0  0
  -22.1659   -4.2161   21.0975 F   0  0  0  0  0  0
  -21.5637   -3.4532   25.7735 F   0  0  0  0  0  0
  -30.0401  -13.2358   20.4090 N   0  0  0  0  0  0
  -26.3013  -12.9396   20.3369 N   0  0  0  0  0  0
  -25.9329  -11.6549   20.5771 N   0  0  0  0  0  0
  -22.0505  -12.8207   22.0383 N   0  0  0  0  0  0
  -25.4222  -15.1922   20.4101 N   0  0  0  0  0  0
  -32.0021  -14.3770   20.3207 O   0  0  0  0  0  0
  -21.6642   -6.8885   21.4252 O   0  0  0  0  0  0
  -22.3531  -14.5525   20.6711 O   0  0  0  0  0  0
  -24.6130  -31.8676   23.2122 C   0  0  0  0  0  0
  -25.9077  -32.4770   23.8377 C   0  0  1  0  0  0
  -27.2322  -27.4854   20.0861 C   0  0  0  0  0  0
  -25.5956  -33.8580   24.2317 N   0  0  0  0  0  0
  -23.3948  -30.4971   21.5511 C   0  0  2  0  0  0
  -24.8337  -28.9747   20.1060 C   0  0  0  0  0  0
  -22.7353  -29.4691   22.4974 C   0  0  0  0  0  0
  -18.0253  -28.1438   22.8440 C   0  0  0  0  0  0
  -24.1496  -36.7322   23.2639 C   0  0  0  0  0  0
  -25.9145  -30.8549   21.3455 C   0  0  0  0  0  0
  -25.9890  -29.4947   20.6966 C   0  0  0  0  0  0
  -27.1886  -28.7579   20.6817 C   0  0  0  0  0  0
  -26.0552  -26.9667   19.4913 C   0  0  0  0  0  0
  -24.8591  -27.7101   19.4968 C   0  0  0  0  0  0
  -23.5915  -29.8338   20.1637 C   0  0  0  0  0  0
  -25.4106  -36.3052   24.0318 C   0  0  1  0  0  0
  -20.5835  -28.3730   23.1289 C   0  0  2  0  0  0
  -20.6758  -26.9458   22.5412 C   0  0  0  0  0  0
  -19.5779  -26.6418   21.5191 C   0  0  0  0  0  0
  -18.1930  -26.7988   22.1568 C   0  0  0  0  0  0
  -19.1493  -28.8900   23.2873 C   0  0  0  0  0  0
  -18.9441  -30.1504   23.8892 C   0  0  0  0  0  0
  -17.6449  -30.6627   24.0605 C   0  0  0  0  0  0
  -25.9026  -34.9426   23.5093 C   0  0  0  0  0  0
  -16.5336  -29.9146   23.6339 C   0  0  0  0  0  0
  -16.7239  -28.6580   23.0304 C   0  0  0  0  0  0
  -26.4560  -31.6518   25.0664 C   0  0  0  0  0  0
  -25.3856  -31.3563   26.1420 C   0  0  0  0  0  0
  -27.0416  -30.2985   24.5959 C   0  0  0  0  0  0
  -27.6125  -32.4255   25.7448 C   0  0  0  0  0  0
  -27.5572  -37.1773   24.8469 C   0  0  0  0  0  0
  -21.4080  -29.3085   22.3663 N   0  0  0  0  0  0
  -26.4288  -37.3741   23.9385 N   0  0  0  0  0  0
  -24.6616  -31.0833   22.0977 N   0  0  0  0  0  0
  -23.4137  -28.8200   23.2975 O   0  0  0  0  0  0
  -28.4413  -26.8283   20.1303 O   0  0  0  0  0  0
  -26.5586  -34.8896   22.4651 O   0  0  0  0  0  0
  -23.5339  -32.1415   23.7554 O   0  0  0  0  0  0
  -27.9863  -18.8827   19.4124 C   0  0  0  0  0  0
  -28.1102  -20.2440   19.3535 C   0  0  0  0  0  0
  -28.7879  -21.0971   18.3208 C   0  0  0  0  0  0
  -28.4085  -17.8277   17.0932 C   0  0  0  0  0  0
  -31.1530  -18.6094   18.1897 C   0  0  0  0  0  0
  -27.0300  -24.9833   21.9587 C   0  0  0  0  0  0
  -29.4708  -24.3669   21.9184 C   0  0  0  0  0  0
  -27.8545  -23.1567   20.4105 C   0  0  0  0  0  0
  -27.6465  -21.9243   21.3034 C   0  0  0  0  0  0
  -30.7266  -16.3404   19.0557 C   0  0  0  0  0  0
  -28.4962  -25.4421   19.8488 C   0  0  0  0  0  0
  -28.6813  -17.8152   18.6102 C   0  0  1  0  0  0
  -30.1773  -17.7601   19.0346 C   0  0  2  0  0  0
  -28.1934  -24.5055   21.0620 C   0  0  0  0  0  0
  -27.2734  -18.5439   20.5598 N   0  0  0  0  0  0
  -27.0225  -19.6124   21.2404 N   0  0  0  0  0  0
  -27.5666  -20.6594   20.5731 N   0  0  0  0  0  0
  -30.1048  -15.4468   20.0412 N   0  0  0  0  0  0
  -31.4386  -12.2212   19.1453 H   0  0  0  0  0  0
  -30.1935  -11.2129   19.8384 H   0  0  0  0  0  0
  -29.7073  -11.7396   17.4112 H   0  0  0  0  0  0
  -29.7087  -13.4477   17.7747 H   0  0  0  0  0  0
  -27.7628  -11.3294   18.7643 H   0  0  0  0  0  0
  -27.3806  -12.7065   17.7630 H   0  0  0  0  0  0
  -27.6843  -14.2639   19.5553 H   0  0  0  0  0  0
  -28.6441  -12.0349   21.4213 H   0  0  0  0  0  0
  -28.5267  -13.7373   21.8062 H   0  0  0  0  0  0
  -25.2792   -9.5663   22.4752 H   0  0  0  0  0  0
  -24.0010   -7.4636   22.7475 H   0  0  0  0  0  0
  -21.0883   -8.8796   19.8954 H   0  0  0  0  0  0
  -22.3757  -10.9680   19.6150 H   0  0  0  0  0  0
  -21.2000   -7.6152   23.9724 H   0  0  0  0  0  0
  -21.1493   -6.0529   25.9087 H   0  0  0  0  0  0
  -22.0596   -2.7610   23.2844 H   0  0  0  0  0  0
  -22.4133  -11.9855   22.4735 H   0  0  0  0  0  0
  -21.1122  -13.1228   22.2608 H   0  0  0  0  0  0
  -24.6528  -15.8418   20.5363 H   0  0  0  0  0  0
  -26.2812  -15.6560   20.1423 H   0  0  0  0  0  0
  -26.7144  -32.5477   23.1140 H   0  0  0  0  0  0
  -25.0170  -33.9783   25.0518 H   0  0  0  0  0  0
  -22.6822  -31.3136   21.4228 H   0  0  0  0  0  0
  -23.3699  -35.9724   23.3303 H   0  0  0  0  0  0
  -24.3606  -36.8938   22.2054 H   0  0  0  0  0  0
  -23.7319  -37.6557   23.6671 H   0  0  0  0  0  0
  -26.0019  -31.6102   20.5640 H   0  0  0  0  0  0
  -26.8184  -30.9286   21.9355 H   0  0  0  0  0  0
  -28.0801  -29.1593   21.1415 H   0  0  0  0  0  0
  -26.0113  -25.9891   19.0353 H   0  0  0  0  0  0
  -23.9668  -27.3061   19.0378 H   0  0  0  0  0  0
  -23.6792  -30.6147   19.4058 H   0  0  0  0  0  0
  -22.7166  -29.2450   19.8786 H   0  0  0  0  0  0
  -25.1258  -36.1924   25.0803 H   0  0  0  0  0  0
  -20.9920  -28.3354   24.1428 H   0  0  0  0  0  0
  -20.5662  -26.2322   23.3600 H   0  0  0  0  0  0
  -21.6632  -26.7524   22.1228 H   0  0  0  0  0  0
  -19.6961  -25.6322   21.1249 H   0  0  0  0  0  0
  -19.6802  -27.3198   20.6702 H   0  0  0  0  0  0
  -17.4198  -26.6712   21.3960 H   0  0  0  0  0  0
  -18.0369  -26.0175   22.8998 H   0  0  0  0  0  0
  -19.7924  -30.7319   24.2224 H   0  0  0  0  0  0
  -17.5020  -31.6292   24.5245 H   0  0  0  0  0  0
  -15.5345  -30.3063   23.7715 H   0  0  0  0  0  0
  -15.8618  -28.0955   22.6976 H   0  0  0  0  0  0
  -24.6044  -30.6890   25.7740 H   0  0  0  0  0  0
  -24.9044  -32.2687   26.4925 H   0  0  0  0  0  0
  -25.8261  -30.8682   27.0112 H   0  0  0  0  0  0
  -26.2918  -29.6648   24.1159 H   0  0  0  0  0  0
  -27.4425  -29.7293   25.4346 H   0  0  0  0  0  0
  -27.8635  -30.4349   23.8918 H   0  0  0  0  0  0
  -27.2717  -33.3544   26.2052 H   0  0  0  0  0  0
  -28.3939  -32.6810   25.0271 H   0  0  0  0  0  0
  -28.0796  -31.8341   26.5336 H   0  0  0  0  0  0
  -28.2548  -38.0098   24.7464 H   0  0  0  0  0  0
  -28.1080  -36.2589   24.6326 H   0  0  0  0  0  0
  -27.2272  -37.1471   25.8878 H   0  0  0  0  0  0
  -20.9217  -29.8757   21.6848 H   0  0  0  0  0  0
  -26.0147  -38.2801   24.1434 H   0  0  0  0  0  0
  -29.0687  -20.5448   17.4331 H   0  0  0  0  0  0
  -29.7150  -21.5215   18.7083 H   0  0  0  0  0  0
  -28.1288  -21.8917   17.9698 H   0  0  0  0  0  0
  -27.3422  -17.7301   16.8893 H   0  0  0  0  0  0
  -28.9125  -16.9931   16.6072 H   0  0  0  0  0  0
  -28.7512  -18.7226   16.5875 H   0  0  0  0  0  0
  -32.1766  -18.4959   18.5458 H   0  0  0  0  0  0
  -30.9526  -19.6728   18.2461 H   0  0  0  0  0  0
  -31.1538  -18.3046   17.1425 H   0  0  0  0  0  0
  -26.8310  -24.2730   22.7640 H   0  0  0  0  0  0
  -26.0987  -25.1058   21.4078 H   0  0  0  0  0  0
  -27.2643  -25.9387   22.4302 H   0  0  0  0  0  0
  -29.2583  -23.8956   22.8778 H   0  0  0  0  0  0
  -29.9259  -25.3357   22.1303 H   0  0  0  0  0  0
  -30.2252  -23.7552   21.4247 H   0  0  0  0  0  0
  -27.0001  -23.2574   19.7390 H   0  0  0  0  0  0
  -28.7296  -22.9922   19.8017 H   0  0  0  0  0  0
  -26.7333  -22.0471   21.8881 H   0  0  0  0  0  0
  -28.4651  -21.8247   22.0182 H   0  0  0  0  0  0
  -31.8002  -16.4260   19.2258 H   0  0  0  0  0  0
  -30.6204  -15.8910   18.0668 H   0  0  0  0  0  0
  -29.5200  -25.2481   19.5147 H   0  0  0  0  0  0
  -27.9054  -25.2020   18.9665 H   0  0  0  0  0  0
  -28.2316  -16.8736   18.9326 H   0  0  0  0  0  0
  -30.2488  -18.1135   20.0646 H   0  0  0  0  0  0
  -29.0980  -15.4118   20.0896 H   0  0  0  0  0  0
  1 25  1  0  0  0
  1 30  2  0  0  0
  1 88  1  0  0  0
  2  3  1  0  0  0
  2 25  1  0  0  0
  2 89  1  0  0  0
  2 90  1  0  0  0
  3  4  1  0  0  0
  3 91  1  0  0  0
  3 92  1  0  0  0
  4  5  1  0  0  0
  4 93  1  0  0  0
  4 94  1  0  0  0
  5  6  1  0  0  0
  5 26  1  0  0  0
  5 95  1  0  0  0
  6 25  1  0  0  0
  6 96  1  0  0  0
  6 97  1  0  0  0
  7  8  2  0  0  0
  7 26  1  0  0  0
  7 29  1  0  0  0
  8  9  1  0  0  0
  8 22  1  0  0  0
  9 10  1  0  0  0
  9 27  2  0  0  0
 10 11  2  0  0  0
 10 15  1  0  0  0
 11 12  1  0  0  0
 11 98  1  0  0  0
 12 13  2  0  0  0
 12 99  1  0  0  0
 13 14  1  0  0  0
 13 31  1  0  0  0
 14 15  2  0  0  0
 14100  1  0  0  0
 15101  1  0  0  0
 16 17  2  0  0  0
 16 21  1  0  0  0
 16 31  1  0  0  0
 17 18  1  0  0  0
 17102  1  0  0  0
 18 19  2  0  0  0
 18103  1  0  0  0
 19 20  1  0  0  0
 19 24  1  0  0  0
 20 21  2  0  0  0
 20104  1  0  0  0
 21 23  1  0  0  0
 22 28  1  0  0  0
 22 32  2  0  0  0
 26 27  1  0  0  0
 28105  1  0  0  0
 28106  1  0  0  0
 29107  1  0  0  0
 29108  1  0  0  0
 33 34  1  0  0  0
 33 66  1  0  0  0
 33 70  2  0  0  0
 34 36  1  0  0  0
 34 59  1  0  0  0
 34109  1  0  0  0
 35 44  2  0  0  0
 35 45  1  0  0  0
 35 68  1  0  0  0
 36 56  1  0  0  0
 36110  1  0  0  0
 37 39  1  0  0  0
 37 47  1  0  0  0
 37 66  1  0  0  0
 37111  1  0  0  0
 38 43  2  0  0  0
 38 46  1  0  0  0
 38 47  1  0  0  0
 39 64  1  0  0  0
 39 67  2  0  0  0
 40 52  1  0  0  0
 40 53  2  0  0  0
 40 58  1  0  0  0
 41112  1  0  0  0
 41113  1  0  0  0
 41114  1  0  0  0
 41 48  1  0  0  0
 42 43  1  0  0  0
 42 66  1  0  0  0
 42115  1  0  0  0
 42116  1  0  0  0
 43 44  1  0  0  0
 44117  1  0  0  0
 45 46  2  0  0  0
 45118  1  0  0  0
 46119  1  0  0  0
 47120  1  0  0  0
 47121  1  0  0  0
 48 56  1  0  0  0
 48 65  1  0  0  0
 48122  1  0  0  0
 49 50  1  0  0  0
 49 53  1  0  0  0
 49 64  1  0  0  0
 49123  1  0  0  0
 50 51  1  0  0  0
 50124  1  0  0  0
 50125  1  0  0  0
 51 52  1  0  0  0
 51126  1  0  0  0
 51127  1  0  0  0
 52128  1  0  0  0
 52129  1  0  0  0
 53 54  1  0  0  0
 54 55  2  0  0  0
 54130  1  0  0  0
 55 57  1  0  0  0
 55131  1  0  0  0
 56 69  2  0  0  0
 57 58  2  0  0  0
 57132  1  0  0  0
 58133  1  0  0  0
 59 60  1  0  0  0
 59 61  1  0  0  0
 59 62  1  0  0  0
 60134  1  0  0  0
 60135  1  0  0  0
 60136  1  0  0  0
 61137  1  0  0  0
 61138  1  0  0  0
 61139  1  0  0  0
 62140  1  0  0  0
 62141  1  0  0  0
 62142  1  0  0  0
 63 65  1  0  0  0
 63143  1  0  0  0
 63144  1  0  0  0
 63145  1  0  0  0
 64146  1  0  0  0
 65147  1  0  0  0
 68 81  1  0  0  0
 71 72  2  0  0  0
 71 82  1  0  0  0
 71 85  1  0  0  0
 72 73  1  0  0  0
 72 87  1  0  0  0
 73148  1  0  0  0
 73149  1  0  0  0
 73150  1  0  0  0
 74151  1  0  0  0
 74152  1  0  0  0
 74153  1  0  0  0
 74 82  1  0  0  0
 75154  1  0  0  0
 75155  1  0  0  0
 75156  1  0  0  0
 75 83  1  0  0  0
 76157  1  0  0  0
 76158  1  0  0  0
 76159  1  0  0  0
 76 84  1  0  0  0
 77 84  1  0  0  0
 77160  1  0  0  0
 77161  1  0  0  0
 77162  1  0  0  0
 78 79  1  0  0  0
 78 84  1  0  0  0
 78163  1  0  0  0
 78164  1  0  0  0
 79 87  1  0  0  0
 79165  1  0  0  0
 79166  1  0  0  0
 80 83  1  0  0  0
 80 88  1  0  0  0
 80167  1  0  0  0
 80168  1  0  0  0
 81 84  1  0  0  0
 81169  1  0  0  0
 81170  1  0  0  0
 82 83  1  0  0  0
 82171  1  0  0  0
 83172  1  0  0  0
 85 86  2  0  0  0
 86 87  1  0  0  0
 88173  1  0  0  0
M  ISO  4   1 100  68 101  81 101  88 100
M  END
> <chiral flag>
0

> <version>
0

> <s_m_source_file>
/data/baiqing/PycharmProjects/Reinvent-master-3.2/result/LINK_invent/BTK/process_docking_weight1_custom_sum_contain_oxygen_bond_distance_aromatic_linkinvent_7_9_3/rearranged_h_0076.sdf

> <i_m_source_file_index>
32

> <r_mmod_Potential_Energy-OPLS-2005>
56.5883445739746

> <r_mmod_Stretch_Energy-OPLS-2005>
33.4808654785156

> <r_mmod_Bend_Energy-OPLS-2005>
139.975997924805

> <r_mmod_Torsional_Energy-OPLS-2005>
270.896759033203

> <r_mmod_Improper_Torsional_Energy-OPLS-2005>
21.2163867950439

> <r_mmod_Van_der_Waal_Energy-OPLS-2005>
158.92170715332

> <r_mmod_Electrostatic_Energy-OPLS-2005>
-407.018920898438

> <r_mmod_Solvation_Energy-OPLS-2005>
-197.07405090332

> <b_mmod_Minimization_Converged-OPLS-2005>
0

> <r_mmod_RMS_Derivative-OPLS-2005>
5.73819828033447

$$$$
32
                    3D
 Structure written by MMmdl.
166174  0  0  1  0            999 V2000
  -30.6528  -14.6715   20.5030 C   0  0  0  0  0  0
  -30.4217  -12.4186   19.4593 C   0  0  0  0  0  0
  -29.4990  -12.5147   18.2270 C   0  0  0  0  0  0
  -28.0266  -12.3427   18.6446 C   0  0  0  0  0  0
  -27.6448  -13.2302   19.8598 C   0  0  2  0  0  0
  -28.6900  -13.1332   20.9922 C   0  0  0  0  0  0
  -25.2514  -13.8200   20.5711 C   0  0  0  0  0  0
  -24.1797  -13.0445   20.9194 C   0  0  0  0  0  0
  -24.6389  -11.6924   20.8746 C   0  0  0  0  0  0
  -23.9064  -10.4300   21.0407 C   0  0  0  0  0  0
  -24.3614   -9.4216   21.9185 C   0  0  0  0  0  0
  -23.6290   -8.2249   22.0753 C   0  0  0  0  0  0
  -22.4274   -8.0285   21.3543 C   0  0  0  0  0  0
  -21.9910   -9.0257   20.4647 C   0  0  0  0  0  0
  -22.7235  -10.2139   20.3058 C   0  0  0  0  0  0
  -21.6852   -6.0735   22.5275 C   0  0  0  0  0  0
  -21.4016   -6.5637   23.8210 C   0  0  0  0  0  0
  -21.3663   -5.6789   24.9173 C   0  0  0  0  0  0
  -21.6044   -4.3055   24.7223 C   0  0  0  0  0  0
  -21.8816   -3.8146   23.4344 C   0  0  0  0  0  0
  -21.9189   -4.6960   22.3399 C   0  0  0  0  0  0
  -22.7820  -13.5229   21.1854 C   0  0  0  0  0  0
  -22.1657   -4.2148   21.0977 F   0  0  0  0  0  0
  -21.5629   -3.4539   25.7737 F   0  0  0  0  0  0
  -29.9981  -13.4664   20.4147 N   0  0  0  0  0  0
  -26.2951  -12.9413   20.3339 N   0  0  0  0  0  0
  -25.9325  -11.6551   20.5773 N   0  0  0  0  0  0
  -22.0471  -12.8222   22.0416 N   0  0  0  0  0  0
  -25.4192  -15.1924   20.4150 N   0  0  0  0  0  0
  -31.8119  -14.7821   20.0907 O   0  0  0  0  0  0
  -21.6638   -6.8881   21.4240 O   0  0  0  0  0  0
  -22.3505  -14.5536   20.6701 O   0  0  0  0  0  0
  -24.6270  -31.8574   23.2001 C   0  0  0  0  0  0
  -25.9106  -32.4768   23.8332 C   0  0  1  0  0  0
  -27.2226  -27.2945   20.1081 C   0  0  0  0  0  0
  -25.5910  -33.8573   24.2247 N   0  0  0  0  0  0
  -23.4210  -30.4806   21.5437 C   0  0  2  0  0  0
  -24.8667  -28.9323   20.1085 C   0  0  0  0  0  0
  -22.7473  -29.4606   22.4923 C   0  0  0  0  0  0
  -18.0280  -28.1381   22.8488 C   0  0  0  0  0  0
  -24.1485  -36.7301   23.2637 C   0  0  0  0  0  0
  -25.9639  -30.7799   21.3741 C   0  0  0  0  0  0
  -26.0358  -29.4049   20.7161 C   0  0  0  0  0  0
  -27.2118  -28.5946   20.7111 C   0  0  0  0  0  0
  -26.0211  -26.8718   19.4944 C   0  0  0  0  0  0
  -24.8625  -27.6724   19.4917 C   0  0  0  0  0  0
  -23.6361  -29.8159   20.1586 C   0  0  0  0  0  0
  -25.4113  -36.3078   24.0317 C   0  0  1  0  0  0
  -20.5881  -28.3690   23.1282 C   0  0  2  0  0  0
  -20.6772  -26.9408   22.5419 C   0  0  0  0  0  0
  -19.5748  -26.6380   21.5218 C   0  0  0  0  0  0
  -18.1923  -26.7922   22.1625 C   0  0  0  0  0  0
  -19.1534  -28.8853   23.2874 C   0  0  0  0  0  0
  -18.9460  -30.1453   23.8891 C   0  0  0  0  0  0
  -17.6463  -30.6584   24.0568 C   0  0  0  0  0  0
  -25.9050  -34.9451   23.5086 C   0  0  0  0  0  0
  -16.5353  -29.9086   23.6331 C   0  0  0  0  0  0
  -16.7269  -28.6507   23.0347 C   0  0  0  0  0  0
  -26.4481  -31.6595   25.0717 C   0  0  0  0  0  0
  -25.3697  -31.3763   26.1438 C   0  0  0  0  0  0
  -27.0318  -30.3007   24.6192 C   0  0  0  0  0  0
  -27.6022  -32.4349   25.7496 C   0  0  0  0  0  0
  -27.5575  -37.1803   24.8451 C   0  0  0  0  0  0
  -21.4182  -29.3042   22.3679 N   0  0  0  0  0  0
  -26.4284  -37.3780   23.9407 N   0  0  0  0  0  0
  -24.6899  -31.0561   22.0965 N   0  0  0  0  0  0
  -23.4189  -28.8128   23.2994 O   0  0  0  0  0  0
  -28.3481  -26.4515   20.1842 O   0  0  0  0  0  0
  -26.5633  -34.8921   22.4658 O   0  0  0  0  0  0
  -23.5432  -32.1394   23.7319 O   0  0  0  0  0  0
  -27.4628  -23.0911   20.5542 C   0  0  0  0  0  0
  -27.5501  -21.7018   20.8834 C   0  0  0  0  0  0
  -28.5777  -23.7581   19.9983 C   0  0  0  0  0  0
  -28.7641  -20.9850   20.6163 C   0  0  0  0  0  0
  -25.7469  -19.5193   19.5656 C   0  0  0  0  0  0
  -23.9996  -20.1130   21.2933 C   0  0  0  0  0  0
  -30.4059  -16.3126   22.2762 C   0  0  0  0  0  0
  -26.3333  -21.0603   21.5441 C   0  0  0  0  0  0
  -28.9966  -19.4656   21.0455 C   0  0  0  0  0  0
  -28.4958  -25.2151   19.3689 C   0  0  0  0  0  0
  -29.6981  -18.3860   20.1000 C   0  0  0  0  0  0
  -29.2691  -16.8245   20.1397 C   0  0  0  0  0  0
  -25.2511  -20.5965   20.5459 C   0  0  0  0  0  0
  -29.7199  -23.0225   19.8031 N   0  0  0  0  0  0
  -29.8166  -21.7014   20.1158 N   0  0  0  0  0  0
  -29.9782  -15.7830   20.9837 N   0  0  0  0  0  0
  -31.4649  -12.5236   19.1573 H   0  0  0  0  0  0
  -30.3455  -11.4330   19.9214 H   0  0  0  0  0  0
  -29.7707  -11.7597   17.4884 H   0  0  0  0  0  0
  -29.6319  -13.4818   17.7398 H   0  0  0  0  0  0
  -27.8772  -11.2915   18.8945 H   0  0  0  0  0  0
  -27.3661  -12.5510   17.8016 H   0  0  0  0  0  0
  -27.6502  -14.2591   19.4991 H   0  0  0  0  0  0
  -28.7101  -12.1301   21.4212 H   0  0  0  0  0  0
  -28.4337  -13.8094   21.8099 H   0  0  0  0  0  0
  -25.2759   -9.5693   22.4759 H   0  0  0  0  0  0
  -23.9998   -7.4645   22.7480 H   0  0  0  0  0  0
  -21.0835   -8.8774   19.8960 H   0  0  0  0  0  0
  -22.3686  -10.9677   19.6168 H   0  0  0  0  0  0
  -21.2014   -7.6144   23.9713 H   0  0  0  0  0  0
  -21.1486   -6.0522   25.9075 H   0  0  0  0  0  0
  -22.0591   -2.7608   23.2842 H   0  0  0  0  0  0
  -22.4087  -11.9882   22.4799 H   0  0  0  0  0  0
  -21.1095  -13.1260   22.2636 H   0  0  0  0  0  0
  -24.6512  -15.8445   20.5308 H   0  0  0  0  0  0
  -26.2771  -15.6380   20.1178 H   0  0  0  0  0  0
  -26.7165  -32.5425   23.1071 H   0  0  0  0  0  0
  -25.0037  -33.9722   25.0378 H   0  0  0  0  0  0
  -22.7155  -31.3016   21.4002 H   0  0  0  0  0  0
  -23.3746  -35.9628   23.3279 H   0  0  0  0  0  0
  -24.3571  -36.8964   22.2054 H   0  0  0  0  0  0
  -23.7252  -37.6497   23.6691 H   0  0  0  0  0  0
  -26.0923  -31.5412   20.6033 H   0  0  0  0  0  0
  -26.8454  -30.8324   22.0016 H   0  0  0  0  0  0
  -28.1077  -28.9510   21.1995 H   0  0  0  0  0  0
  -25.9259  -25.8978   19.0428 H   0  0  0  0  0  0
  -23.9608  -27.2994   19.0257 H   0  0  0  0  0  0
  -23.7550  -30.5935   19.4031 H   0  0  0  0  0  0
  -22.7555  -29.2467   19.8566 H   0  0  0  0  0  0
  -25.1295  -36.1915   25.0808 H   0  0  0  0  0  0
  -20.9970  -28.3272   24.1404 H   0  0  0  0  0  0
  -20.5681  -26.2293   23.3620 H   0  0  0  0  0  0
  -21.6637  -26.7437   22.1209 H   0  0  0  0  0  0
  -19.6913  -25.6291   21.1251 H   0  0  0  0  0  0
  -19.6690  -27.3188   20.6747 H   0  0  0  0  0  0
  -17.4198  -26.6676   21.4020 H   0  0  0  0  0  0
  -18.0308  -26.0055   22.9013 H   0  0  0  0  0  0
  -19.7936  -30.7266   24.2256 H   0  0  0  0  0  0
  -17.5021  -31.6263   24.5170 H   0  0  0  0  0  0
  -15.5356  -30.2990   23.7664 H   0  0  0  0  0  0
  -15.8666  -28.0838   22.7052 H   0  0  0  0  0  0
  -24.5841  -30.7148   25.7773 H   0  0  0  0  0  0
  -24.8916  -32.2947   26.4855 H   0  0  0  0  0  0
  -25.7992  -30.8940   27.0225 H   0  0  0  0  0  0
  -26.2903  -29.6771   24.1184 H   0  0  0  0  0  0
  -27.3970  -29.7254   25.4712 H   0  0  0  0  0  0
  -27.8785  -30.4280   23.9440 H   0  0  0  0  0  0
  -27.2607  -33.3655   26.2041 H   0  0  0  0  0  0
  -28.3842  -32.6919   25.0337 H   0  0  0  0  0  0
  -28.0665  -31.8500   26.5446 H   0  0  0  0  0  0
  -28.2574  -38.0116   24.7517 H   0  0  0  0  0  0
  -28.1098  -36.2654   24.6255 H   0  0  0  0  0  0
  -27.2294  -37.1424   25.8853 H   0  0  0  0  0  0
  -20.9352  -29.8797   21.6925 H   0  0  0  0  0  0
  -26.0156  -38.2847   24.1430 H   0  0  0  0  0  0
  -26.5403  -23.6355   20.7005 H   0  0  0  0  0  0
  -24.9635  -19.2480   18.8574 H   0  0  0  0  0  0
  -26.0435  -18.6086   20.0856 H   0  0  0  0  0  0
  -26.5980  -19.8666   18.9798 H   0  0  0  0  0  0
  -23.2034  -19.8433   20.5989 H   0  0  0  0  0  0
  -23.6082  -20.8892   21.9523 H   0  0  0  0  0  0
  -24.2165  -19.2375   21.9062 H   0  0  0  0  0  0
  -29.5961  -16.8638   22.7553 H   0  0  0  0  0  0
  -31.2559  -16.9858   22.1556 H   0  0  0  0  0  0
  -30.7044  -15.5134   22.9580 H   0  0  0  0  0  0
  -25.8968  -21.8108   22.2058 H   0  0  0  0  0  0
  -26.6177  -20.2562   22.2201 H   0  0  0  0  0  0
  -28.0289  -19.0319   21.2735 H   0  0  0  0  0  0
  -29.5215  -19.4795   22.0001 H   0  0  0  0  0  0
  -27.7900  -25.1755   18.5429 H   0  0  0  0  0  0
  -29.4463  -25.3604   18.8550 H   0  0  0  0  0  0
  -30.7817  -18.4902   20.1563 H   0  0  0  0  0  0
  -29.4538  -18.7154   19.0893 H   0  0  0  0  0  0
  -29.3266  -16.4623   19.1113 H   0  0  0  0  0  0
  -28.2078  -16.7646   20.3806 H   0  0  0  0  0  0
  -24.9576  -21.4651   19.9544 H   0  0  0  0  0  0
  1 25  1  0  0  0
  1 30  2  0  0  0
  1 86  1  0  0  0
  2  3  1  0  0  0
  2 25  1  0  0  0
  2 87  1  0  0  0
  2 88  1  0  0  0
  3  4  1  0  0  0
  3 89  1  0  0  0
  3 90  1  0  0  0
  4  5  1  0  0  0
  4 91  1  0  0  0
  4 92  1  0  0  0
  5  6  1  0  0  0
  5 26  1  0  0  0
  5 93  1  0  0  0
  6 25  1  0  0  0
  6 94  1  0  0  0
  6 95  1  0  0  0
  7  8  2  0  0  0
  7 26  1  0  0  0
  7 29  1  0  0  0
  8  9  1  0  0  0
  8 22  1  0  0  0
  9 10  1  0  0  0
  9 27  2  0  0  0
 10 11  2  0  0  0
 10 15  1  0  0  0
 11 12  1  0  0  0
 11 96  1  0  0  0
 12 13  2  0  0  0
 12 97  1  0  0  0
 13 14  1  0  0  0
 13 31  1  0  0  0
 14 15  2  0  0  0
 14 98  1  0  0  0
 15 99  1  0  0  0
 16 17  2  0  0  0
 16 21  1  0  0  0
 16 31  1  0  0  0
 17 18  1  0  0  0
 17100  1  0  0  0
 18 19  2  0  0  0
 18101  1  0  0  0
 19 20  1  0  0  0
 19 24  1  0  0  0
 20 21  2  0  0  0
 20102  1  0  0  0
 21 23  1  0  0  0
 22 28  1  0  0  0
 22 32  2  0  0  0
 26 27  1  0  0  0
 28103  1  0  0  0
 28104  1  0  0  0
 29105  1  0  0  0
 29106  1  0  0  0
 33 34  1  0  0  0
 33 66  1  0  0  0
 33 70  2  0  0  0
 34 36  1  0  0  0
 34 59  1  0  0  0
 34107  1  0  0  0
 35 44  2  0  0  0
 35 45  1  0  0  0
 35 68  1  0  0  0
 36 56  1  0  0  0
 36108  1  0  0  0
 37 39  1  0  0  0
 37 47  1  0  0  0
 37 66  1  0  0  0
 37109  1  0  0  0
 38 43  2  0  0  0
 38 46  1  0  0  0
 38 47  1  0  0  0
 39 64  1  0  0  0
 39 67  2  0  0  0
 40 52  1  0  0  0
 40 53  2  0  0  0
 40 58  1  0  0  0
 41110  1  0  0  0
 41111  1  0  0  0
 41112  1  0  0  0
 41 48  1  0  0  0
 42 43  1  0  0  0
 42 66  1  0  0  0
 42113  1  0  0  0
 42114  1  0  0  0
 43 44  1  0  0  0
 44115  1  0  0  0
 45 46  2  0  0  0
 45116  1  0  0  0
 46117  1  0  0  0
 47118  1  0  0  0
 47119  1  0  0  0
 48 56  1  0  0  0
 48 65  1  0  0  0
 48120  1  0  0  0
 49 50  1  0  0  0
 49 53  1  0  0  0
 49 64  1  0  0  0
 49121  1  0  0  0
 50 51  1  0  0  0
 50122  1  0  0  0
 50123  1  0  0  0
 51 52  1  0  0  0
 51124  1  0  0  0
 51125  1  0  0  0
 52126  1  0  0  0
 52127  1  0  0  0
 53 54  1  0  0  0
 54 55  2  0  0  0
 54128  1  0  0  0
 55 57  1  0  0  0
 55129  1  0  0  0
 56 69  2  0  0  0
 57 58  2  0  0  0
 57130  1  0  0  0
 58131  1  0  0  0
 59 60  1  0  0  0
 59 61  1  0  0  0
 59 62  1  0  0  0
 60132  1  0  0  0
 60133  1  0  0  0
 60134  1  0  0  0
 61135  1  0  0  0
 61136  1  0  0  0
 61137  1  0  0  0
 62138  1  0  0  0
 62139  1  0  0  0
 62140  1  0  0  0
 63 65  1  0  0  0
 63141  1  0  0  0
 63142  1  0  0  0
 63143  1  0  0  0
 64144  1  0  0  0
 65145  1  0  0  0
 68 80  1  0  0  0
 71 72  2  0  0  0
 71 73  1  0  0  0
 71146  1  0  0  0
 72 74  1  0  0  0
 72 78  1  0  0  0
 73 80  1  0  0  0
 73 84  2  0  0  0
 74 79  1  0  0  0
 74 85  2  0  0  0
 75147  1  0  0  0
 75148  1  0  0  0
 75149  1  0  0  0
 75 83  1  0  0  0
 76 83  1  0  0  0
 76150  1  0  0  0
 76151  1  0  0  0
 76152  1  0  0  0
 77 86  1  0  0  0
 77153  1  0  0  0
 77154  1  0  0  0
 77155  1  0  0  0
 78 83  1  0  0  0
 78156  1  0  0  0
 78157  1  0  0  0
 79 81  1  0  0  0
 79158  1  0  0  0
 79159  1  0  0  0
 80160  1  0  0  0
 80161  1  0  0  0
 81 82  1  0  0  0
 81162  1  0  0  0
 81163  1  0  0  0
 82 86  1  0  0  0
 82164  1  0  0  0
 82165  1  0  0  0
 83166  1  0  0  0
 84 85  1  0  0  0
M  ISO  4   1 100  68 101  80 101  86 100
M  END
> <chiral flag>
0

> <version>
0

> <s_m_source_file>
/data/baiqing/PycharmProjects/Reinvent-master-3.2/result/LINK_invent/BTK/process_docking_weight1_custom_sum_contain_oxygen_bond_distance_aromatic_linkinvent_7_9_3/rearranged_h_0076.sdf

> <i_m_source_file_index>
33

> <r_mmod_Potential_Energy-OPLS-2005>
362.544311523438

> <r_mmod_Stretch_Energy-OPLS-2005>
105.076507568359

> <r_mmod_Bend_Energy-OPLS-2005>
189.031448364258

> <r_mmod_Torsional_Energy-OPLS-2005>
316.291412353516

> <r_mmod_Improper_Torsional_Energy-OPLS-2005>
5.50292015075684

> <r_mmod_Van_der_Waal_Energy-OPLS-2005>
131.821685791016

> <r_mmod_Electrostatic_Energy-OPLS-2005>
-226.433578491211

> <r_mmod_Solvation_Energy-OPLS-2005>
-217.823059082031

> <b_mmod_Minimization_Converged-OPLS-2005>
0

> <r_mmod_RMS_Derivative-OPLS-2005>
1.11636757850647

$$$$
33
                    3D
 Structure written by MMmdl.
172180  0  0  1  0            999 V2000
  -30.6765  -14.5402   20.5219 C   0  0  0  0  0  0
  -30.4239  -12.3334   19.4461 C   0  0  0  0  0  0
  -29.5004  -12.4951   18.2197 C   0  0  0  0  0  0
  -28.0213  -12.3533   18.6288 C   0  0  0  0  0  0
  -27.6565  -13.2126   19.8695 C   0  0  2  0  0  0
  -28.6989  -13.0416   20.9992 C   0  0  0  0  0  0
  -25.2568  -13.8165   20.5690 C   0  0  0  0  0  0
  -24.1827  -13.0436   20.9193 C   0  0  0  0  0  0
  -24.6389  -11.6903   20.8738 C   0  0  0  0  0  0
  -23.9060  -10.4290   21.0410 C   0  0  0  0  0  0
  -24.3615   -9.4211   21.9188 C   0  0  0  0  0  0
  -23.6295   -8.2244   22.0756 C   0  0  0  0  0  0
  -22.4279   -8.0282   21.3547 C   0  0  0  0  0  0
  -21.9910   -9.0254   20.4650 C   0  0  0  0  0  0
  -22.7233  -10.2135   20.3061 C   0  0  0  0  0  0
  -21.6859   -6.0743   22.5285 C   0  0  0  0  0  0
  -21.4010   -6.5646   23.8217 C   0  0  0  0  0  0
  -21.3659   -5.6796   24.9180 C   0  0  0  0  0  0
  -21.6045   -4.3055   24.7227 C   0  0  0  0  0  0
  -21.8818   -3.8154   23.4345 C   0  0  0  0  0  0
  -21.9193   -4.6971   22.3404 C   0  0  0  0  0  0
  -22.7849  -13.5231   21.1858 C   0  0  0  0  0  0
  -22.1662   -4.2161   21.0978 F   0  0  0  0  0  0
  -21.5637   -3.4534   25.7737 F   0  0  0  0  0  0
  -30.0238  -13.3463   20.4384 N   0  0  0  0  0  0
  -26.2999  -12.9345   20.3351 N   0  0  0  0  0  0
  -25.9317  -11.6500   20.5764 N   0  0  0  0  0  0
  -22.0499  -12.8211   22.0415 N   0  0  0  0  0  0
  -25.4277  -15.1884   20.4089 N   0  0  0  0  0  0
  -31.8278  -14.6910   20.1046 O   0  0  0  0  0  0
  -21.6643   -6.8878   21.4243 O   0  0  0  0  0  0
  -22.3533  -14.5540   20.6714 O   0  0  0  0  0  0
  -24.6193  -31.8657   23.2079 C   0  0  0  0  0  0
  -25.9073  -32.4808   23.8384 C   0  0  1  0  0  0
  -27.2268  -27.3878   20.1040 C   0  0  0  0  0  0
  -25.5912  -33.8606   24.2310 N   0  0  0  0  0  0
  -23.4083  -30.4917   21.5489 C   0  0  2  0  0  0
  -24.8532  -28.9565   20.1122 C   0  0  0  0  0  0
  -22.7430  -29.4661   22.4965 C   0  0  0  0  0  0
  -18.0277  -28.1378   22.8486 C   0  0  0  0  0  0
  -24.1488  -36.7307   23.2637 C   0  0  0  0  0  0
  -25.9433  -30.8182   21.3685 C   0  0  0  0  0  0
  -26.0182  -29.4521   20.7102 C   0  0  0  0  0  0
  -27.2077  -28.6777   20.6978 C   0  0  0  0  0  0
  -26.0367  -26.9245   19.4927 C   0  0  0  0  0  0
  -24.8607  -27.6953   19.4976 C   0  0  0  0  0  0
  -23.6182  -29.8281   20.1631 C   0  0  0  0  0  0
  -25.4111  -36.3101   24.0332 C   0  0  1  0  0  0
  -20.5869  -28.3672   23.1300 C   0  0  2  0  0  0
  -20.6765  -26.9403   22.5410 C   0  0  0  0  0  0
  -19.5745  -26.6385   21.5207 C   0  0  0  0  0  0
  -18.1926  -26.7925   22.1620 C   0  0  0  0  0  0
  -19.1527  -28.8841   23.2893 C   0  0  0  0  0  0
  -18.9452  -30.1448   23.8902 C   0  0  0  0  0  0
  -17.6456  -30.6585   24.0566 C   0  0  0  0  0  0
  -25.9038  -34.9467   23.5118 C   0  0  0  0  0  0
  -16.5348  -29.9087   23.6326 C   0  0  0  0  0  0
  -16.7268  -28.6503   23.0346 C   0  0  0  0  0  0
  -26.4475  -31.6601   25.0731 C   0  0  0  0  0  0
  -25.3727  -31.3722   26.1471 C   0  0  0  0  0  0
  -27.0305  -30.3035   24.6142 C   0  0  0  0  0  0
  -27.6044  -32.4320   25.7499 C   0  0  0  0  0  0
  -27.5581  -37.1807   24.8461 C   0  0  0  0  0  0
  -21.4151  -29.3045   22.3706 N   0  0  0  0  0  0
  -26.4293  -37.3792   23.9409 N   0  0  0  0  0  0
  -24.6754  -31.0730   22.0995 N   0  0  0  0  0  0
  -23.4184  -28.8200   23.3019 O   0  0  0  0  0  0
  -28.3777  -26.6057   20.1435 O   0  0  0  0  0  0
  -26.5604  -34.8923   22.4679 O   0  0  0  0  0  0
  -23.5376  -32.1423   23.7454 O   0  0  0  0  0  0
  -28.5583  -20.4966   23.0289 C   0  0  0  0  0  0
  -28.3007  -22.6495   22.5455 C   0  0  0  0  0  0
  -28.1110  -21.7440   23.5503 C   0  0  0  0  0  0
  -29.0347  -20.6635   21.7552 C   0  0  0  0  0  0
  -30.6350  -24.7436   19.3899 C   0  0  0  0  0  0
  -27.4539  -20.7547   25.7798 C   0  0  0  0  0  0
  -26.1471  -22.6581   24.8040 C   0  0  0  0  0  0
  -28.4829  -23.0314   25.6513 C   0  0  0  0  0  0
  -29.6416  -19.5991   20.8443 C   0  0  0  0  0  0
  -29.4466  -18.1091   21.3139 C   0  0  0  0  0  0
  -29.2635  -22.7462   20.2104 C   0  0  0  0  0  0
  -30.2520  -17.0254   20.5276 C   0  0  0  0  0  0
  -28.2173  -25.1672   19.9889 C   0  0  0  0  0  0
  -29.4841  -24.3109   20.3151 C   0  0  2  0  0  0
  -27.5503  -22.0387   24.9338 C   0  0  0  0  0  0
  -28.8965  -22.0359   21.4528 N   0  0  0  0  0  0
  -29.9251  -15.6143   20.8682 N   0  0  0  0  0  0
  -31.4694  -12.4296   19.1481 H   0  0  0  0  0  0
  -30.3288  -11.3338   19.8710 H   0  0  0  0  0  0
  -29.7511  -11.7535   17.4595 H   0  0  0  0  0  0
  -29.6636  -13.4718   17.7608 H   0  0  0  0  0  0
  -27.8379  -11.2992   18.8412 H   0  0  0  0  0  0
  -27.3740  -12.6107   17.7896 H   0  0  0  0  0  0
  -27.6839  -14.2530   19.5458 H   0  0  0  0  0  0
  -28.6848  -12.0193   21.3798 H   0  0  0  0  0  0
  -28.4602  -13.6805   21.8512 H   0  0  0  0  0  0
  -25.2765   -9.5689   22.4757 H   0  0  0  0  0  0
  -24.0025   -7.4630   22.7452 H   0  0  0  0  0  0
  -21.0860   -8.8744   19.8938 H   0  0  0  0  0  0
  -22.3687  -10.9669   19.6161 H   0  0  0  0  0  0
  -21.1994   -7.6152   23.9721 H   0  0  0  0  0  0
  -21.1488   -6.0529   25.9083 H   0  0  0  0  0  0
  -22.0599   -2.7617   23.2843 H   0  0  0  0  0  0
  -22.4128  -11.9868   22.4793 H   0  0  0  0  0  0
  -21.1111  -13.1214   22.2627 H   0  0  0  0  0  0
  -24.6589  -15.8415   20.5155 H   0  0  0  0  0  0
  -26.2759  -15.6281   20.0756 H   0  0  0  0  0  0
  -26.7142  -32.5497   23.1139 H   0  0  0  0  0  0
  -25.0067  -33.9764   25.0459 H   0  0  0  0  0  0
  -22.6988  -31.3101   21.4102 H   0  0  0  0  0  0
  -23.3749  -35.9638   23.3302 H   0  0  0  0  0  0
  -24.3583  -36.8923   22.2050 H   0  0  0  0  0  0
  -23.7242  -37.6511   23.6655 H   0  0  0  0  0  0
  -26.0647  -31.5869   20.6039 H   0  0  0  0  0  0
  -26.8272  -30.8657   21.9927 H   0  0  0  0  0  0
  -28.1046  -29.0551   21.1683 H   0  0  0  0  0  0
  -25.9861  -25.9614   19.0079 H   0  0  0  0  0  0
  -23.9652  -27.3092   19.0300 H   0  0  0  0  0  0
  -23.7297  -30.6045   19.4054 H   0  0  0  0  0  0
  -22.7403  -29.2522   19.8650 H   0  0  0  0  0  0
  -25.1291  -36.1955   25.0826 H   0  0  0  0  0  0
  -20.9961  -28.3243   24.1419 H   0  0  0  0  0  0
  -20.5661  -26.2282   23.3603 H   0  0  0  0  0  0
  -21.6639  -26.7441   22.1209 H   0  0  0  0  0  0
  -19.6908  -25.6298   21.1237 H   0  0  0  0  0  0
  -19.6688  -27.3196   20.6740 H   0  0  0  0  0  0
  -17.4193  -26.6668   21.4025 H   0  0  0  0  0  0
  -18.0332  -26.0066   22.9017 H   0  0  0  0  0  0
  -19.7932  -30.7263   24.2273 H   0  0  0  0  0  0
  -17.5014  -31.6266   24.5166 H   0  0  0  0  0  0
  -15.5350  -30.2991   23.7653 H   0  0  0  0  0  0
  -15.8664  -28.0835   22.7048 H   0  0  0  0  0  0
  -24.5890  -30.7086   25.7801 H   0  0  0  0  0  0
  -24.8929  -32.2881   26.4933 H   0  0  0  0  0  0
  -25.8070  -30.8875   27.0223 H   0  0  0  0  0  0
  -26.2862  -29.6809   24.1159 H   0  0  0  0  0  0
  -27.4011  -29.7270   25.4629 H   0  0  0  0  0  0
  -27.8732  -30.4338   23.9347 H   0  0  0  0  0  0
  -27.2660  -33.3602   26.2120 H   0  0  0  0  0  0
  -28.3839  -32.6913   25.0322 H   0  0  0  0  0  0
  -28.0729  -31.8417   26.5383 H   0  0  0  0  0  0
  -28.2594  -38.0107   24.7516 H   0  0  0  0  0  0
  -28.1081  -36.2642   24.6276 H   0  0  0  0  0  0
  -27.2303  -37.1446   25.8863 H   0  0  0  0  0  0
  -20.9305  -29.8776   21.6940 H   0  0  0  0  0  0
  -26.0176  -38.2865   24.1416 H   0  0  0  0  0  0
  -28.5473  -19.5539   23.5576 H   0  0  0  0  0  0
  -28.0750  -23.7063   22.5410 H   0  0  0  0  0  0
  -31.5550  -24.2069   19.6247 H   0  0  0  0  0  0
  -30.8475  -25.8081   19.4966 H   0  0  0  0  0  0
  -30.3958  -24.5561   18.3424 H   0  0  0  0  0  0
  -26.8044  -20.0144   25.3118 H   0  0  0  0  0  0
  -27.0497  -20.9604   26.7717 H   0  0  0  0  0  0
  -28.4331  -20.2953   25.9201 H   0  0  0  0  0  0
  -25.4608  -21.9827   24.2919 H   0  0  0  0  0  0
  -26.1671  -23.5923   24.2415 H   0  0  0  0  0  0
  -25.7190  -22.8802   25.7821 H   0  0  0  0  0  0
  -29.4918  -22.6276   25.7474 H   0  0  0  0  0  0
  -28.1262  -23.2628   26.6556 H   0  0  0  0  0  0
  -28.5607  -23.9741   25.1083 H   0  0  0  0  0  0
  -30.7102  -19.7970   20.7508 H   0  0  0  0  0  0
  -29.2325  -19.7091   19.8390 H   0  0  0  0  0  0
  -28.3818  -17.8747   21.2783 H   0  0  0  0  0  0
  -29.7387  -18.0266   22.3613 H   0  0  0  0  0  0
  -30.1805  -22.2784   19.8504 H   0  0  0  0  0  0
  -28.5082  -22.5256   19.4549 H   0  0  0  0  0  0
  -31.3186  -17.2015   20.6786 H   0  0  0  0  0  0
  -30.0753  -17.1546   19.4585 H   0  0  0  0  0  0
  -27.3967  -24.8284   20.6234 H   0  0  0  0  0  0
  -27.9292  -24.9552   18.9578 H   0  0  0  0  0  0
  -29.8102  -24.5509   21.3274 H   0  0  0  0  0  0
  -28.9861  -15.4191   21.1832 H   0  0  0  0  0  0
  1 25  1  0  0  0
  1 30  2  0  0  0
  1 87  1  0  0  0
  2  3  1  0  0  0
  2 25  1  0  0  0
  2 88  1  0  0  0
  2 89  1  0  0  0
  3  4  1  0  0  0
  3 90  1  0  0  0
  3 91  1  0  0  0
  4  5  1  0  0  0
  4 92  1  0  0  0
  4 93  1  0  0  0
  5  6  1  0  0  0
  5 26  1  0  0  0
  5 94  1  0  0  0
  6 25  1  0  0  0
  6 95  1  0  0  0
  6 96  1  0  0  0
  7  8  2  0  0  0
  7 26  1  0  0  0
  7 29  1  0  0  0
  8  9  1  0  0  0
  8 22  1  0  0  0
  9 10  1  0  0  0
  9 27  2  0  0  0
 10 11  2  0  0  0
 10 15  1  0  0  0
 11 12  1  0  0  0
 11 97  1  0  0  0
 12 13  2  0  0  0
 12 98  1  0  0  0
 13 14  1  0  0  0
 13 31  1  0  0  0
 14 15  2  0  0  0
 14 99  1  0  0  0
 15100  1  0  0  0
 16 17  2  0  0  0
 16 21  1  0  0  0
 16 31  1  0  0  0
 17 18  1  0  0  0
 17101  1  0  0  0
 18 19  2  0  0  0
 18102  1  0  0  0
 19 20  1  0  0  0
 19 24  1  0  0  0
 20 21  2  0  0  0
 20103  1  0  0  0
 21 23  1  0  0  0
 22 28  1  0  0  0
 22 32  2  0  0  0
 26 27  1  0  0  0
 28104  1  0  0  0
 28105  1  0  0  0
 29106  1  0  0  0
 29107  1  0  0  0
 33 34  1  0  0  0
 33 66  1  0  0  0
 33 70  2  0  0  0
 34 36  1  0  0  0
 34 59  1  0  0  0
 34108  1  0  0  0
 35 44  2  0  0  0
 35 45  1  0  0  0
 35 68  1  0  0  0
 36 56  1  0  0  0
 36109  1  0  0  0
 37 39  1  0  0  0
 37 47  1  0  0  0
 37 66  1  0  0  0
 37110  1  0  0  0
 38 43  2  0  0  0
 38 46  1  0  0  0
 38 47  1  0  0  0
 39 64  1  0  0  0
 39 67  2  0  0  0
 40 52  1  0  0  0
 40 53  2  0  0  0
 40 58  1  0  0  0
 41111  1  0  0  0
 41112  1  0  0  0
 41113  1  0  0  0
 41 48  1  0  0  0
 42 43  1  0  0  0
 42 66  1  0  0  0
 42114  1  0  0  0
 42115  1  0  0  0
 43 44  1  0  0  0
 44116  1  0  0  0
 45 46  2  0  0  0
 45117  1  0  0  0
 46118  1  0  0  0
 47119  1  0  0  0
 47120  1  0  0  0
 48 56  1  0  0  0
 48 65  1  0  0  0
 48121  1  0  0  0
 49 50  1  0  0  0
 49 53  1  0  0  0
 49 64  1  0  0  0
 49122  1  0  0  0
 50 51  1  0  0  0
 50123  1  0  0  0
 50124  1  0  0  0
 51 52  1  0  0  0
 51125  1  0  0  0
 51126  1  0  0  0
 52127  1  0  0  0
 52128  1  0  0  0
 53 54  1  0  0  0
 54 55  2  0  0  0
 54129  1  0  0  0
 55 57  1  0  0  0
 55130  1  0  0  0
 56 69  2  0  0  0
 57 58  2  0  0  0
 57131  1  0  0  0
 58132  1  0  0  0
 59 60  1  0  0  0
 59 61  1  0  0  0
 59 62  1  0  0  0
 60133  1  0  0  0
 60134  1  0  0  0
 60135  1  0  0  0
 61136  1  0  0  0
 61137  1  0  0  0
 61138  1  0  0  0
 62139  1  0  0  0
 62140  1  0  0  0
 62141  1  0  0  0
 63 65  1  0  0  0
 63142  1  0  0  0
 63143  1  0  0  0
 63144  1  0  0  0
 64145  1  0  0  0
 65146  1  0  0  0
 68 83  1  0  0  0
 71 73  1  0  0  0
 71 74  2  0  0  0
 71147  1  0  0  0
 72 73  2  0  0  0
 72 86  1  0  0  0
 72148  1  0  0  0
 73 85  1  0  0  0
 74 79  1  0  0  0
 74 86  1  0  0  0
 75149  1  0  0  0
 75150  1  0  0  0
 75151  1  0  0  0
 75 84  1  0  0  0
 76152  1  0  0  0
 76153  1  0  0  0
 76154  1  0  0  0
 76 85  1  0  0  0
 77 85  1  0  0  0
 77155  1  0  0  0
 77156  1  0  0  0
 77157  1  0  0  0
 78 85  1  0  0  0
 78158  1  0  0  0
 78159  1  0  0  0
 78160  1  0  0  0
 79 80  1  0  0  0
 79161  1  0  0  0
 79162  1  0  0  0
 80 82  1  0  0  0
 80163  1  0  0  0
 80164  1  0  0  0
 81 84  1  0  0  0
 81 86  1  0  0  0
 81165  1  0  0  0
 81166  1  0  0  0
 82 87  1  0  0  0
 82167  1  0  0  0
 82168  1  0  0  0
 83 84  1  0  0  0
 83169  1  0  0  0
 83170  1  0  0  0
 84171  1  0  0  0
 87172  1  0  0  0
M  ISO  4   1 100  68 101  83 101  87 100
M  END
> <chiral flag>
0

> <version>
0

> <s_m_source_file>
/data/baiqing/PycharmProjects/Reinvent-master-3.2/result/LINK_invent/BTK/process_docking_weight1_custom_sum_contain_oxygen_bond_distance_aromatic_linkinvent_7_9_3/rearranged_h_0076.sdf

> <i_m_source_file_index>
34

> <r_mmod_Potential_Energy-OPLS-2005>
-73.0569763183594

> <r_mmod_Stretch_Energy-OPLS-2005>
52.345588684082

> <r_mmod_Bend_Energy-OPLS-2005>
113.627601623535

> <r_mmod_Torsional_Energy-OPLS-2005>
222.216064453125

> <r_mmod_Improper_Torsional_Energy-OPLS-2005>
5.85415410995483

> <r_mmod_Van_der_Waal_Energy-OPLS-2005>
130.770111083984

> <r_mmod_Electrostatic_Energy-OPLS-2005>
-422.207550048828

> <r_mmod_Solvation_Energy-OPLS-2005>
-199.519973754883

> <b_mmod_Minimization_Converged-OPLS-2005>
0

> <r_mmod_RMS_Derivative-OPLS-2005>
1.27819991111755

$$$$
34
                    3D
 Structure written by MMmdl.
164172  0  0  1  0            999 V2000
  -30.5763  -14.7640   20.4636 C   0  0  0  0  0  0
  -30.4343  -12.4712   19.4789 C   0  0  0  0  0  0
  -29.5110  -12.5131   18.2419 C   0  0  0  0  0  0
  -28.0345  -12.3409   18.6516 C   0  0  0  0  0  0
  -27.6386  -13.2330   19.8581 C   0  0  2  0  0  0
  -28.6781  -13.1696   20.9941 C   0  0  0  0  0  0
  -25.2502  -13.8214   20.5722 C   0  0  0  0  0  0
  -24.1798  -13.0460   20.9239 C   0  0  0  0  0  0
  -24.6410  -11.6931   20.8818 C   0  0  0  0  0  0
  -23.9093  -10.4307   21.0445 C   0  0  0  0  0  0
  -24.3638   -9.4205   21.9213 C   0  0  0  0  0  0
  -23.6296   -8.2242   22.0765 C   0  0  0  0  0  0
  -22.4272   -8.0320   21.3562 C   0  0  0  0  0  0
  -21.9933   -9.0300   20.4675 C   0  0  0  0  0  0
  -22.7268  -10.2166   20.3094 C   0  0  0  0  0  0
  -21.6848   -6.0765   22.5283 C   0  0  0  0  0  0
  -21.4014   -6.5668   23.8233 C   0  0  0  0  0  0
  -21.3663   -5.6818   24.9193 C   0  0  0  0  0  0
  -21.6023   -4.3074   24.7233 C   0  0  0  0  0  0
  -21.8815   -3.8178   23.4353 C   0  0  0  0  0  0
  -21.9190   -4.6987   22.3422 C   0  0  0  0  0  0
  -22.7824  -13.5242   21.1886 C   0  0  0  0  0  0
  -22.1661   -4.2183   21.0989 F   0  0  0  0  0  0
  -21.5615   -3.4559   25.7737 F   0  0  0  0  0  0
  -29.9751  -13.5283   20.4088 N   0  0  0  0  0  0
  -26.2927  -12.9429   20.3337 N   0  0  0  0  0  0
  -25.9333  -11.6578   20.5788 N   0  0  0  0  0  0
  -22.0462  -12.8246   22.0442 N   0  0  0  0  0  0
  -25.4163  -15.1949   20.4090 N   0  0  0  0  0  0
  -31.7643  -14.8764   20.1464 O   0  0  0  0  0  0
  -21.6641   -6.8906   21.4249 O   0  0  0  0  0  0
  -22.3530  -14.5566   20.6722 O   0  0  0  0  0  0
  -24.6272  -31.8557   23.1974 C   0  0  0  0  0  0
  -25.9120  -32.4756   23.8296 C   0  0  1  0  0  0
  -27.2019  -27.2509   20.1193 C   0  0  0  0  0  0
  -25.5908  -33.8569   24.2210 N   0  0  0  0  0  0
  -23.4174  -30.4764   21.5475 C   0  0  2  0  0  0
  -24.8581  -28.9142   20.1132 C   0  0  0  0  0  0
  -22.7431  -29.4604   22.4987 C   0  0  0  0  0  0
  -18.0253  -28.1336   22.8520 C   0  0  0  0  0  0
  -24.1476  -36.7276   23.2637 C   0  0  0  0  0  0
  -25.9603  -30.7680   21.3686 C   0  0  0  0  0  0
  -26.0318  -29.3862   20.7125 C   0  0  0  0  0  0
  -27.2043  -28.5651   20.7033 C   0  0  0  0  0  0
  -26.0048  -26.8368   19.5025 C   0  0  0  0  0  0
  -24.8478  -27.6475   19.5052 C   0  0  0  0  0  0
  -23.6301  -29.8054   20.1648 C   0  0  0  0  0  0
  -25.4111  -36.3079   24.0322 C   0  0  1  0  0  0
  -20.5853  -28.3641   23.1330 C   0  0  2  0  0  0
  -20.6743  -26.9368   22.5445 C   0  0  0  0  0  0
  -19.5729  -26.6357   21.5227 C   0  0  0  0  0  0
  -18.1906  -26.7880   22.1642 C   0  0  0  0  0  0
  -19.1513  -28.8800   23.2912 C   0  0  0  0  0  0
  -18.9444  -30.1405   23.8921 C   0  0  0  0  0  0
  -17.6458  -30.6582   24.0541 C   0  0  0  0  0  0
  -25.9064  -34.9460   23.5073 C   0  0  0  0  0  0
  -16.5339  -29.9090   23.6325 C   0  0  0  0  0  0
  -16.7243  -28.6477   23.0394 C   0  0  0  0  0  0
  -26.4467  -31.6594   25.0705 C   0  0  0  0  0  0
  -25.3658  -31.3807   26.1414 C   0  0  0  0  0  0
  -27.0287  -30.3003   24.6178 C   0  0  0  0  0  0
  -27.6008  -32.4324   25.7496 C   0  0  0  0  0  0
  -27.5563  -37.1799   24.8471 C   0  0  0  0  0  0
  -21.4143  -29.3016   22.3727 N   0  0  0  0  0  0
  -26.4280  -37.3791   23.9401 N   0  0  0  0  0  0
  -24.6896  -31.0497   22.0961 N   0  0  0  0  0  0
  -23.4130  -28.8147   23.3081 O   0  0  0  0  0  0
  -28.3099  -26.3784   20.2057 O   0  0  0  0  0  0
  -26.5668  -34.8946   22.4657 O   0  0  0  0  0  0
  -23.5445  -32.1398   23.7301 O   0  0  0  0  0  0
  -29.1513  -21.7742   18.0659 C   0  0  0  0  0  0
  -29.5270  -21.0488   16.9225 C   0  0  0  0  0  0
  -28.9687  -21.1533   19.3221 C   0  0  0  0  0  0
  -29.7041  -19.6616   17.0400 C   0  0  0  0  0  0
  -29.1797  -19.6856   19.3385 C   0  0  0  0  0  0
  -29.7638  -21.8026   15.6243 C   0  0  0  0  0  0
  -30.1897  -18.7651   15.9088 C   0  0  0  0  0  0
  -31.0249  -17.7549   21.7745 C   0  0  0  0  0  0
  -28.6659  -22.1971   20.4857 C   0  0  0  0  0  0
  -28.9999  -18.5601   20.4437 C   0  0  0  0  0  0
  -27.8307  -23.6089   20.2834 C   0  0  0  0  0  0
  -28.4061  -24.9840   19.6329 C   0  0  0  0  0  0
  -30.1431  -17.3841   20.5714 C   0  0  1  0  0  0
  -29.4876  -19.0297   18.1969 N   0  0  0  0  0  0
  -29.7783  -15.8873   20.6741 N   0  0  0  0  0  0
  -31.4702  -12.6145   19.1712 H   0  0  0  0  0  0
  -30.4006  -11.4942   19.9651 H   0  0  0  0  0  0
  -29.7944  -11.7322   17.5358 H   0  0  0  0  0  0
  -29.6401  -13.4642   17.7207 H   0  0  0  0  0  0
  -27.8802  -11.2885   18.9005 H   0  0  0  0  0  0
  -27.3827  -12.5523   17.8034 H   0  0  0  0  0  0
  -27.6321  -14.2553   19.4819 H   0  0  0  0  0  0
  -28.7173  -12.1788   21.4459 H   0  0  0  0  0  0
  -28.4052  -13.8572   21.7965 H   0  0  0  0  0  0
  -25.2777   -9.5674   22.4801 H   0  0  0  0  0  0
  -24.0013   -7.4634   22.7480 H   0  0  0  0  0  0
  -21.0869   -8.8833   19.8990 H   0  0  0  0  0  0
  -22.3737  -10.9721   19.6227 H   0  0  0  0  0  0
  -21.2015   -7.6172   23.9743 H   0  0  0  0  0  0
  -21.1478   -6.0546   25.9091 H   0  0  0  0  0  0
  -22.0585   -2.7633   23.2847 H   0  0  0  0  0  0
  -22.4053  -11.9877   22.4796 H   0  0  0  0  0  0
  -21.1111  -13.1314   22.2676 H   0  0  0  0  0  0
  -24.6360  -15.8354   20.5065 H   0  0  0  0  0  0
  -26.2421  -15.6341   20.0249 H   0  0  0  0  0  0
  -26.7152  -32.5373   23.1008 H   0  0  0  0  0  0
  -24.9959  -33.9699   25.0286 H   0  0  0  0  0  0
  -22.7164  -31.3015   21.4052 H   0  0  0  0  0  0
  -23.3762  -35.9590   23.3335 H   0  0  0  0  0  0
  -24.3546  -36.8872   22.2043 H   0  0  0  0  0  0
  -23.7227  -37.6480   23.6653 H   0  0  0  0  0  0
  -26.0819  -31.5321   20.5983 H   0  0  0  0  0  0
  -26.8443  -30.8251   21.9911 H   0  0  0  0  0  0
  -28.1029  -28.9266   21.1851 H   0  0  0  0  0  0
  -25.9338  -25.8590   19.0502 H   0  0  0  0  0  0
  -23.9366  -27.2781   19.0546 H   0  0  0  0  0  0
  -23.7469  -30.5854   19.4115 H   0  0  0  0  0  0
  -22.7451  -29.2451   19.8598 H   0  0  0  0  0  0
  -25.1302  -36.1914   25.0823 H   0  0  0  0  0  0
  -20.9925  -28.3187   24.1454 H   0  0  0  0  0  0
  -20.5626  -26.2230   23.3621 H   0  0  0  0  0  0
  -21.6611  -26.7396   22.1235 H   0  0  0  0  0  0
  -19.6904  -25.6271   21.1241 H   0  0  0  0  0  0
  -19.6677  -27.3179   20.6759 H   0  0  0  0  0  0
  -17.4167  -26.6620   21.4053 H   0  0  0  0  0  0
  -18.0325  -26.0001   22.9015 H   0  0  0  0  0  0
  -19.7928  -30.7195   24.2324 H   0  0  0  0  0  0
  -17.5032  -31.6290   24.5084 H   0  0  0  0  0  0
  -15.5350  -30.3013   23.7648 H   0  0  0  0  0  0
  -15.8621  -28.0796   22.7164 H   0  0  0  0  0  0
  -24.5848  -30.7122   25.7770 H   0  0  0  0  0  0
  -24.8823  -32.3011   26.4707 H   0  0  0  0  0  0
  -25.7951  -30.9094   27.0258 H   0  0  0  0  0  0
  -26.2871  -29.6808   24.1125 H   0  0  0  0  0  0
  -27.3874  -29.7224   25.4699 H   0  0  0  0  0  0
  -27.8784  -30.4276   23.9470 H   0  0  0  0  0  0
  -27.2603  -33.3637   26.2031 H   0  0  0  0  0  0
  -28.3865  -32.6844   25.0366 H   0  0  0  0  0  0
  -28.0601  -31.8454   26.5454 H   0  0  0  0  0  0
  -28.2616  -38.0059   24.7489 H   0  0  0  0  0  0
  -28.1021  -36.2598   24.6343 H   0  0  0  0  0  0
  -27.2268  -37.1502   25.8870 H   0  0  0  0  0  0
  -20.9295  -29.8745   21.6964 H   0  0  0  0  0  0
  -26.0165  -38.2859   24.1432 H   0  0  0  0  0  0
  -29.0320  -22.8426   17.9762 H   0  0  0  0  0  0
  -28.9925  -22.5611   15.4827 H   0  0  0  0  0  0
  -29.7594  -21.1588   14.7437 H   0  0  0  0  0  0
  -30.7250  -22.3135   15.6713 H   0  0  0  0  0  0
  -29.3661  -18.4718   15.2579 H   0  0  0  0  0  0
  -30.6490  -17.8529   16.3024 H   0  0  0  0  0  0
  -30.9542  -19.2522   15.3024 H   0  0  0  0  0  0
  -30.4623  -17.6566   22.7024 H   0  0  0  0  0  0
  -31.3659  -18.7901   21.7050 H   0  0  0  0  0  0
  -31.9127  -17.1267   21.8465 H   0  0  0  0  0  0
  -29.6313  -22.4760   20.9071 H   0  0  0  0  0  0
  -28.1737  -21.6296   21.2806 H   0  0  0  0  0  0
  -28.0420  -18.0856   20.2285 H   0  0  0  0  0  0
  -28.8514  -19.0568   21.4038 H   0  0  0  0  0  0
  -27.5375  -23.9088   21.2908 H   0  0  0  0  0  0
  -26.8791  -23.3756   19.8027 H   0  0  0  0  0  0
  -28.0732  -25.0336   18.5965 H   0  0  0  0  0  0
  -29.4801  -24.8219   19.5478 H   0  0  0  0  0  0
  -30.7692  -17.4387   19.6785 H   0  0  0  0  0  0
  -28.8094  -15.6776   20.8662 H   0  0  0  0  0  0
  1 25  1  0  0  0
  1 30  2  0  0  0
  1 85  1  0  0  0
  2  3  1  0  0  0
  2 25  1  0  0  0
  2 86  1  0  0  0
  2 87  1  0  0  0
  3  4  1  0  0  0
  3 88  1  0  0  0
  3 89  1  0  0  0
  4  5  1  0  0  0
  4 90  1  0  0  0
  4 91  1  0  0  0
  5  6  1  0  0  0
  5 26  1  0  0  0
  5 92  1  0  0  0
  6 25  1  0  0  0
  6 93  1  0  0  0
  6 94  1  0  0  0
  7  8  2  0  0  0
  7 26  1  0  0  0
  7 29  1  0  0  0
  8  9  1  0  0  0
  8 22  1  0  0  0
  9 10  1  0  0  0
  9 27  2  0  0  0
 10 11  2  0  0  0
 10 15  1  0  0  0
 11 12  1  0  0  0
 11 95  1  0  0  0
 12 13  2  0  0  0
 12 96  1  0  0  0
 13 14  1  0  0  0
 13 31  1  0  0  0
 14 15  2  0  0  0
 14 97  1  0  0  0
 15 98  1  0  0  0
 16 17  2  0  0  0
 16 21  1  0  0  0
 16 31  1  0  0  0
 17 18  1  0  0  0
 17 99  1  0  0  0
 18 19  2  0  0  0
 18100  1  0  0  0
 19 20  1  0  0  0
 19 24  1  0  0  0
 20 21  2  0  0  0
 20101  1  0  0  0
 21 23  1  0  0  0
 22 28  1  0  0  0
 22 32  2  0  0  0
 26 27  1  0  0  0
 28102  1  0  0  0
 28103  1  0  0  0
 29104  1  0  0  0
 29105  1  0  0  0
 33 34  1  0  0  0
 33 66  1  0  0  0
 33 70  2  0  0  0
 34 36  1  0  0  0
 34 59  1  0  0  0
 34106  1  0  0  0
 35 44  2  0  0  0
 35 45  1  0  0  0
 35 68  1  0  0  0
 36 56  1  0  0  0
 36107  1  0  0  0
 37 39  1  0  0  0
 37 47  1  0  0  0
 37 66  1  0  0  0
 37108  1  0  0  0
 38 43  2  0  0  0
 38 46  1  0  0  0
 38 47  1  0  0  0
 39 64  1  0  0  0
 39 67  2  0  0  0
 40 52  1  0  0  0
 40 53  2  0  0  0
 40 58  1  0  0  0
 41109  1  0  0  0
 41110  1  0  0  0
 41111  1  0  0  0
 41 48  1  0  0  0
 42 43  1  0  0  0
 42 66  1  0  0  0
 42112  1  0  0  0
 42113  1  0  0  0
 43 44  1  0  0  0
 44114  1  0  0  0
 45 46  2  0  0  0
 45115  1  0  0  0
 46116  1  0  0  0
 47117  1  0  0  0
 47118  1  0  0  0
 48 56  1  0  0  0
 48 65  1  0  0  0
 48119  1  0  0  0
 49 50  1  0  0  0
 49 53  1  0  0  0
 49 64  1  0  0  0
 49120  1  0  0  0
 50 51  1  0  0  0
 50121  1  0  0  0
 50122  1  0  0  0
 51 52  1  0  0  0
 51123  1  0  0  0
 51124  1  0  0  0
 52125  1  0  0  0
 52126  1  0  0  0
 53 54  1  0  0  0
 54 55  2  0  0  0
 54127  1  0  0  0
 55 57  1  0  0  0
 55128  1  0  0  0
 56 69  2  0  0  0
 57 58  2  0  0  0
 57129  1  0  0  0
 58130  1  0  0  0
 59 60  1  0  0  0
 59 61  1  0  0  0
 59 62  1  0  0  0
 60131  1  0  0  0
 60132  1  0  0  0
 60133  1  0  0  0
 61134  1  0  0  0
 61135  1  0  0  0
 61136  1  0  0  0
 62137  1  0  0  0
 62138  1  0  0  0
 62139  1  0  0  0
 63 65  1  0  0  0
 63140  1  0  0  0
 63141  1  0  0  0
 63142  1  0  0  0
 64143  1  0  0  0
 65144  1  0  0  0
 68 82  1  0  0  0
 71 72  2  0  0  0
 71 73  1  0  0  0
 71145  1  0  0  0
 72 74  1  0  0  0
 72 76  1  0  0  0
 73 75  2  0  0  0
 73 79  1  0  0  0
 74 77  1  0  0  0
 74 84  2  0  0  0
 75 80  1  0  0  0
 75 84  1  0  0  0
 76146  1  0  0  0
 76147  1  0  0  0
 76148  1  0  0  0
 77149  1  0  0  0
 77150  1  0  0  0
 77151  1  0  0  0
 78152  1  0  0  0
 78153  1  0  0  0
 78154  1  0  0  0
 78 83  1  0  0  0
 79 81  1  0  0  0
 79155  1  0  0  0
 79156  1  0  0  0
 80 83  1  0  0  0
 80157  1  0  0  0
 80158  1  0  0  0
 81 82  1  0  0  0
 81159  1  0  0  0
 81160  1  0  0  0
 82161  1  0  0  0
 82162  1  0  0  0
 83 85  1  0  0  0
 83163  1  0  0  0
 85164  1  0  0  0
M  ISO  4   1 100  68 101  82 101  85 100
M  END
> <chiral flag>
0

> <version>
0

> <s_m_source_file>
/data/baiqing/PycharmProjects/Reinvent-master-3.2/result/LINK_invent/BTK/process_docking_weight1_custom_sum_contain_oxygen_bond_distance_aromatic_linkinvent_7_9_3/rearranged_h_0076.sdf

> <i_m_source_file_index>
35

> <r_mmod_Potential_Energy-OPLS-2005>
152.78857421875

> <r_mmod_Stretch_Energy-OPLS-2005>
150.233703613281

> <r_mmod_Bend_Energy-OPLS-2005>
252.803375244141

> <r_mmod_Torsional_Energy-OPLS-2005>
214.014495849609

> <r_mmod_Improper_Torsional_Energy-OPLS-2005>
5.45235776901245

> <r_mmod_Van_der_Waal_Energy-OPLS-2005>
135.61540222168

> <r_mmod_Electrostatic_Energy-OPLS-2005>
-476.112152099609

> <r_mmod_Solvation_Energy-OPLS-2005>
-221.734008789062

> <b_mmod_Minimization_Converged-OPLS-2005>
0

> <r_mmod_RMS_Derivative-OPLS-2005>
4.89811134338379

$$$$
35
                    3D
 Structure written by MMmdl.
163171  0  0  1  0            999 V2000
  -30.6550  -14.5369   20.5519 C   0  0  0  0  0  0
  -30.4325  -12.3435   19.4226 C   0  0  0  0  0  0
  -29.4976  -12.5072   18.2049 C   0  0  0  0  0  0
  -28.0186  -12.3579   18.6189 C   0  0  0  0  0  0
  -27.6572  -13.2046   19.8682 C   0  0  2  0  0  0
  -28.7018  -13.0001   20.9877 C   0  0  0  0  0  0
  -25.2575  -13.8137   20.5671 C   0  0  0  0  0  0
  -24.1829  -13.0426   20.9190 C   0  0  0  0  0  0
  -24.6378  -11.6892   20.8728 C   0  0  0  0  0  0
  -23.9048  -10.4283   21.0407 C   0  0  0  0  0  0
  -24.3602   -9.4205   21.9186 C   0  0  0  0  0  0
  -23.6279   -8.2237   22.0754 C   0  0  0  0  0  0
  -22.4269   -8.0269   21.3545 C   0  0  0  0  0  0
  -21.9898   -9.0244   20.4649 C   0  0  0  0  0  0
  -22.7216  -10.2123   20.3056 C   0  0  0  0  0  0
  -21.6845   -6.0725   22.5279 C   0  0  0  0  0  0
  -21.4014   -6.5637   23.8212 C   0  0  0  0  0  0
  -21.3659   -5.6790   24.9178 C   0  0  0  0  0  0
  -21.6043   -4.3054   24.7229 C   0  0  0  0  0  0
  -21.8820   -3.8143   23.4352 C   0  0  0  0  0  0
  -21.9195   -4.6956   22.3406 C   0  0  0  0  0  0
  -22.7860  -13.5236   21.1856 C   0  0  0  0  0  0
  -22.1660   -4.2145   21.0980 F   0  0  0  0  0  0
  -21.5631   -3.4538   25.7741 F   0  0  0  0  0  0
  -30.0234  -13.3340   20.4306 N   0  0  0  0  0  0
  -26.2997  -12.9303   20.3327 N   0  0  0  0  0  0
  -25.9305  -11.6474   20.5754 N   0  0  0  0  0  0
  -22.0485  -12.8228   22.0405 N   0  0  0  0  0  0
  -25.4284  -15.1844   20.4039 N   0  0  0  0  0  0
  -31.7993  -14.7346   20.1360 O   0  0  0  0  0  0
  -21.6632   -6.8868   21.4238 O   0  0  0  0  0  0
  -22.3549  -14.5539   20.6696 O   0  0  0  0  0  0
  -24.6181  -31.8645   23.2066 C   0  0  0  0  0  0
  -25.9051  -32.4813   23.8377 C   0  0  1  0  0  0
  -27.2289  -27.3912   20.1182 C   0  0  0  0  0  0
  -25.5885  -33.8609   24.2304 N   0  0  0  0  0  0
  -23.4088  -30.4882   21.5476 C   0  0  2  0  0  0
  -24.8559  -28.9442   20.1187 C   0  0  0  0  0  0
  -22.7441  -29.4635   22.4958 C   0  0  0  0  0  0
  -18.0280  -28.1391   22.8487 C   0  0  0  0  0  0
  -24.1483  -36.7322   23.2641 C   0  0  0  0  0  0
  -25.9412  -30.8214   21.3617 C   0  0  0  0  0  0
  -26.0191  -29.4473   20.7176 C   0  0  0  0  0  0
  -27.2123  -28.6802   20.7107 C   0  0  0  0  0  0
  -26.0518  -26.9088   19.5146 C   0  0  0  0  0  0
  -24.8683  -27.6746   19.5143 C   0  0  0  0  0  0
  -23.6212  -29.8195   20.1628 C   0  0  0  0  0  0
  -25.4112  -36.3117   24.0338 C   0  0  1  0  0  0
  -20.5873  -28.3670   23.1313 C   0  0  2  0  0  0
  -20.6771  -26.9400   22.5428 C   0  0  0  0  0  0
  -19.5748  -26.6387   21.5222 C   0  0  0  0  0  0
  -18.1923  -26.7933   22.1626 C   0  0  0  0  0  0
  -19.1537  -28.8854   23.2895 C   0  0  0  0  0  0
  -18.9456  -30.1451   23.8907 C   0  0  0  0  0  0
  -17.6454  -30.6591   24.0571 C   0  0  0  0  0  0
  -25.9034  -34.9475   23.5121 C   0  0  0  0  0  0
  -16.5346  -29.9097   23.6322 C   0  0  0  0  0  0
  -16.7270  -28.6525   23.0335 C   0  0  0  0  0  0
  -26.4457  -31.6596   25.0726 C   0  0  0  0  0  0
  -25.3695  -31.3715   26.1455 C   0  0  0  0  0  0
  -27.0274  -30.3045   24.6074 C   0  0  0  0  0  0
  -27.6028  -32.4318   25.7475 C   0  0  0  0  0  0
  -27.5588  -37.1819   24.8471 C   0  0  0  0  0  0
  -21.4165  -29.3033   22.3707 N   0  0  0  0  0  0
  -26.4299  -37.3797   23.9409 N   0  0  0  0  0  0
  -24.6749  -31.0734   22.0968 N   0  0  0  0  0  0
  -23.4214  -28.8155   23.2983 O   0  0  0  0  0  0
  -28.3729  -26.6158   20.0483 O   0  0  0  0  0  0
  -26.5617  -34.8940   22.4700 O   0  0  0  0  0  0
  -23.5363  -32.1397   23.7437 O   0  0  0  0  0  0
  -28.0902  -20.8186   21.9070 C   0  0  0  0  0  0
  -28.2097  -19.4888   21.6123 C   0  0  0  0  0  0
  -29.7606  -20.5966   20.4523 C   0  0  0  0  0  0
  -29.0823  -21.5492   21.1920 C   0  0  0  0  0  0
  -29.7887  -26.0171   21.8292 C   0  0  0  0  0  0
  -28.3728  -17.3985   19.4319 C   0  0  0  0  0  0
  -30.6989  -18.1679   19.0271 C   0  0  0  0  0  0
  -29.3586  -23.0567   21.3760 C   0  0  0  0  0  0
  -28.6716  -24.1148   20.4404 C   0  0  0  0  0  0
  -30.1892  -16.9846   21.2076 C   0  0  0  0  0  0
  -28.5471  -25.5721   21.0380 C   0  0  2  0  0  0
  -29.6283  -17.9852   20.1190 C   0  0  0  0  0  0
  -29.2398  -19.3116   20.7027 N   0  0  0  0  0  0
  -29.8794  -15.5424   21.0162 N   0  0  0  0  0  0
  -31.4736  -12.4667   19.1204 H   0  0  0  0  0  0
  -30.3569  -11.3350   19.8324 H   0  0  0  0  0  0
  -29.7458  -11.7705   17.4394 H   0  0  0  0  0  0
  -29.6536  -13.4859   17.7476 H   0  0  0  0  0  0
  -27.8391  -11.3019   18.8244 H   0  0  0  0  0  0
  -27.3661  -12.6198   17.7853 H   0  0  0  0  0  0
  -27.6937  -14.2496   19.5604 H   0  0  0  0  0  0
  -28.6958  -11.9627   21.3262 H   0  0  0  0  0  0
  -28.4575  -13.5945   21.8691 H   0  0  0  0  0  0
  -25.2750   -9.5684   22.4763 H   0  0  0  0  0  0
  -23.9994   -7.4629   22.7471 H   0  0  0  0  0  0
  -21.0834   -8.8759   19.8949 H   0  0  0  0  0  0
  -22.3679  -10.9665   19.6165 H   0  0  0  0  0  0
  -21.1999   -7.6146   23.9715 H   0  0  0  0  0  0
  -21.1481   -6.0522   25.9080 H   0  0  0  0  0  0
  -22.0598   -2.7607   23.2853 H   0  0  0  0  0  0
  -22.4095  -11.9889   22.4800 H   0  0  0  0  0  0
  -21.1105  -13.1267   22.2598 H   0  0  0  0  0  0
  -24.6580  -15.8372   20.5017 H   0  0  0  0  0  0
  -26.2682  -15.6153   20.0405 H   0  0  0  0  0  0
  -26.7125  -32.5509   23.1143 H   0  0  0  0  0  0
  -25.0010  -33.9753   25.0430 H   0  0  0  0  0  0
  -22.6980  -31.3056   21.4069 H   0  0  0  0  0  0
  -23.3740  -35.9660   23.3318 H   0  0  0  0  0  0
  -24.3582  -36.8928   22.2054 H   0  0  0  0  0  0
  -23.7246  -37.6538   23.6647 H   0  0  0  0  0  0
  -26.0521  -31.5815   20.5862 H   0  0  0  0  0  0
  -26.8307  -30.8824   21.9760 H   0  0  0  0  0  0
  -28.1139  -29.0717   21.1612 H   0  0  0  0  0  0
  -26.0530  -25.9353   19.0435 H   0  0  0  0  0  0
  -23.9754  -27.2821   19.0481 H   0  0  0  0  0  0
  -23.7355  -30.5964   19.4050 H   0  0  0  0  0  0
  -22.7422  -29.2478   19.8589 H   0  0  0  0  0  0
  -25.1282  -36.1983   25.0836 H   0  0  0  0  0  0
  -20.9976  -28.3244   24.1429 H   0  0  0  0  0  0
  -20.5685  -26.2270   23.3620 H   0  0  0  0  0  0
  -21.6633  -26.7439   22.1203 H   0  0  0  0  0  0
  -19.6901  -25.6304   21.1245 H   0  0  0  0  0  0
  -19.6693  -27.3204   20.6762 H   0  0  0  0  0  0
  -17.4195  -26.6685   21.4028 H   0  0  0  0  0  0
  -18.0305  -26.0083   22.9033 H   0  0  0  0  0  0
  -19.7931  -30.7265   24.2285 H   0  0  0  0  0  0
  -17.5011  -31.6267   24.5169 H   0  0  0  0  0  0
  -15.5350  -30.3003   23.7641 H   0  0  0  0  0  0
  -15.8668  -28.0858   22.7023 H   0  0  0  0  0  0
  -24.5872  -30.7068   25.7792 H   0  0  0  0  0  0
  -24.8881  -32.2873   26.4888 H   0  0  0  0  0  0
  -25.8030  -30.8895   27.0225 H   0  0  0  0  0  0
  -26.2821  -29.6843   24.1092 H   0  0  0  0  0  0
  -27.4022  -29.7248   25.4516 H   0  0  0  0  0  0
  -27.8661  -30.4392   23.9239 H   0  0  0  0  0  0
  -27.2658  -33.3618   26.2064 H   0  0  0  0  0  0
  -28.3832  -32.6876   25.0298 H   0  0  0  0  0  0
  -28.0695  -31.8430   26.5383 H   0  0  0  0  0  0
  -28.2606  -38.0106   24.7513 H   0  0  0  0  0  0
  -28.1076  -36.2648   24.6293 H   0  0  0  0  0  0
  -27.2309  -37.1467   25.8871 H   0  0  0  0  0  0
  -20.9329  -29.8790   21.6956 H   0  0  0  0  0  0
  -26.0189  -38.2879   24.1412 H   0  0  0  0  0  0
  -27.3759  -21.2258   22.6094 H   0  0  0  0  0  0
  -27.6387  -18.6423   21.9734 H   0  0  0  0  0  0
  -30.5943  -20.7269   19.7764 H   0  0  0  0  0  0
  -30.6714  -26.0609   21.1894 H   0  0  0  0  0  0
  -30.0153  -25.3526   22.6628 H   0  0  0  0  0  0
  -29.6452  -27.0127   22.2509 H   0  0  0  0  0  0
  -28.6051  -16.5047   18.8513 H   0  0  0  0  0  0
  -27.9326  -18.1188   18.7399 H   0  0  0  0  0  0
  -27.6025  -17.1319   20.1550 H   0  0  0  0  0  0
  -30.9474  -17.2164   18.5551 H   0  0  0  0  0  0
  -31.6247  -18.5757   19.4352 H   0  0  0  0  0  0
  -30.3566  -18.8396   18.2386 H   0  0  0  0  0  0
  -30.4387  -23.2079   21.3516 H   0  0  0  0  0  0
  -29.0614  -23.2761   22.4033 H   0  0  0  0  0  0
  -29.2148  -24.1440   19.4943 H   0  0  0  0  0  0
  -27.6663  -23.7743   20.1949 H   0  0  0  0  0  0
  -29.7668  -17.2429   22.1788 H   0  0  0  0  0  0
  -31.2656  -17.1189   21.3303 H   0  0  0  0  0  0
  -27.6994  -25.5691   21.7276 H   0  0  0  0  0  0
  -28.9456  -15.2657   21.2779 H   0  0  0  0  0  0
  1 25  1  0  0  0
  1 30  2  0  0  0
  1 84  1  0  0  0
  2  3  1  0  0  0
  2 25  1  0  0  0
  2 85  1  0  0  0
  2 86  1  0  0  0
  3  4  1  0  0  0
  3 87  1  0  0  0
  3 88  1  0  0  0
  4  5  1  0  0  0
  4 89  1  0  0  0
  4 90  1  0  0  0
  5  6  1  0  0  0
  5 26  1  0  0  0
  5 91  1  0  0  0
  6 25  1  0  0  0
  6 92  1  0  0  0
  6 93  1  0  0  0
  7  8  2  0  0  0
  7 26  1  0  0  0
  7 29  1  0  0  0
  8  9  1  0  0  0
  8 22  1  0  0  0
  9 10  1  0  0  0
  9 27  2  0  0  0
 10 11  2  0  0  0
 10 15  1  0  0  0
 11 12  1  0  0  0
 11 94  1  0  0  0
 12 13  2  0  0  0
 12 95  1  0  0  0
 13 14  1  0  0  0
 13 31  1  0  0  0
 14 15  2  0  0  0
 14 96  1  0  0  0
 15 97  1  0  0  0
 16 17  2  0  0  0
 16 21  1  0  0  0
 16 31  1  0  0  0
 17 18  1  0  0  0
 17 98  1  0  0  0
 18 19  2  0  0  0
 18 99  1  0  0  0
 19 20  1  0  0  0
 19 24  1  0  0  0
 20 21  2  0  0  0
 20100  1  0  0  0
 21 23  1  0  0  0
 22 28  1  0  0  0
 22 32  2  0  0  0
 26 27  1  0  0  0
 28101  1  0  0  0
 28102  1  0  0  0
 29103  1  0  0  0
 29104  1  0  0  0
 33 34  1  0  0  0
 33 66  1  0  0  0
 33 70  2  0  0  0
 34 36  1  0  0  0
 34 59  1  0  0  0
 34105  1  0  0  0
 35 44  2  0  0  0
 35 45  1  0  0  0
 35 68  1  0  0  0
 36 56  1  0  0  0
 36106  1  0  0  0
 37 39  1  0  0  0
 37 47  1  0  0  0
 37 66  1  0  0  0
 37107  1  0  0  0
 38 43  2  0  0  0
 38 46  1  0  0  0
 38 47  1  0  0  0
 39 64  1  0  0  0
 39 67  2  0  0  0
 40 52  1  0  0  0
 40 53  2  0  0  0
 40 58  1  0  0  0
 41108  1  0  0  0
 41109  1  0  0  0
 41110  1  0  0  0
 41 48  1  0  0  0
 42 43  1  0  0  0
 42 66  1  0  0  0
 42111  1  0  0  0
 42112  1  0  0  0
 43 44  1  0  0  0
 44113  1  0  0  0
 45 46  2  0  0  0
 45114  1  0  0  0
 46115  1  0  0  0
 47116  1  0  0  0
 47117  1  0  0  0
 48 56  1  0  0  0
 48 65  1  0  0  0
 48118  1  0  0  0
 49 50  1  0  0  0
 49 53  1  0  0  0
 49 64  1  0  0  0
 49119  1  0  0  0
 50 51  1  0  0  0
 50120  1  0  0  0
 50121  1  0  0  0
 51 52  1  0  0  0
 51122  1  0  0  0
 51123  1  0  0  0
 52124  1  0  0  0
 52125  1  0  0  0
 53 54  1  0  0  0
 54 55  2  0  0  0
 54126  1  0  0  0
 55 57  1  0  0  0
 55127  1  0  0  0
 56 69  2  0  0  0
 57 58  2  0  0  0
 57128  1  0  0  0
 58129  1  0  0  0
 59 60  1  0  0  0
 59 61  1  0  0  0
 59 62  1  0  0  0
 60130  1  0  0  0
 60131  1  0  0  0
 60132  1  0  0  0
 61133  1  0  0  0
 61134  1  0  0  0
 61135  1  0  0  0
 62136  1  0  0  0
 62137  1  0  0  0
 62138  1  0  0  0
 63 65  1  0  0  0
 63139  1  0  0  0
 63140  1  0  0  0
 63141  1  0  0  0
 64142  1  0  0  0
 65143  1  0  0  0
 68 81  1  0  0  0
 71 72  2  0  0  0
 71 74  1  0  0  0
 71144  1  0  0  0
 72 83  1  0  0  0
 72145  1  0  0  0
 73 74  2  0  0  0
 73 83  1  0  0  0
 73146  1  0  0  0
 74 78  1  0  0  0
 75147  1  0  0  0
 75148  1  0  0  0
 75149  1  0  0  0
 75 81  1  0  0  0
 76150  1  0  0  0
 76151  1  0  0  0
 76152  1  0  0  0
 76 82  1  0  0  0
 77 82  1  0  0  0
 77153  1  0  0  0
 77154  1  0  0  0
 77155  1  0  0  0
 78 79  1  0  0  0
 78156  1  0  0  0
 78157  1  0  0  0
 79 81  1  0  0  0
 79158  1  0  0  0
 79159  1  0  0  0
 80 82  1  0  0  0
 80 84  1  0  0  0
 80160  1  0  0  0
 80161  1  0  0  0
 81162  1  0  0  0
 82 83  1  0  0  0
 84163  1  0  0  0
M  ISO  4   1 100  68 101  81 101  84 100
M  END
> <chiral flag>
0

> <version>
0

> <s_m_source_file>
/data/baiqing/PycharmProjects/Reinvent-master-3.2/result/LINK_invent/BTK/process_docking_weight1_custom_sum_contain_oxygen_bond_distance_aromatic_linkinvent_7_9_3/rearranged_h_0076.sdf

> <i_m_source_file_index>
36

> <r_mmod_Potential_Energy-OPLS-2005>
-62.502513885498

> <r_mmod_Stretch_Energy-OPLS-2005>
53.133373260498

> <r_mmod_Bend_Energy-OPLS-2005>
120.024040222168

> <r_mmod_Torsional_Energy-OPLS-2005>
286.084411621094

> <r_mmod_Improper_Torsional_Energy-OPLS-2005>
4.19927549362183

> <r_mmod_Van_der_Waal_Energy-OPLS-2005>
119.495704650879

> <r_mmod_Electrostatic_Energy-OPLS-2005>
-464.185821533203

> <r_mmod_Solvation_Energy-OPLS-2005>
-201.932098388672

> <b_mmod_Minimization_Converged-OPLS-2005>
0

> <r_mmod_RMS_Derivative-OPLS-2005>
2.39863324165344

$$$$
36
                    3D
 Structure written by MMmdl.
166174  0  0  1  0            999 V2000
  -30.6677  -14.4770   20.5960 C   0  0  0  0  0  0
  -30.4360  -12.3148   19.4208 C   0  0  0  0  0  0
  -29.5053  -12.5265   18.2081 C   0  0  0  0  0  0
  -28.0221  -12.3856   18.6118 C   0  0  0  0  0  0
  -27.6679  -13.2050   19.8834 C   0  0  2  0  0  0
  -28.7064  -12.9514   21.0002 C   0  0  0  0  0  0
  -25.2635  -13.8159   20.5723 C   0  0  0  0  0  0
  -24.1873  -13.0437   20.9205 C   0  0  0  0  0  0
  -24.6436  -11.6900   20.8743 C   0  0  0  0  0  0
  -23.9087  -10.4296   21.0399 C   0  0  0  0  0  0
  -24.3639   -9.4209   21.9186 C   0  0  0  0  0  0
  -23.6320   -8.2246   22.0757 C   0  0  0  0  0  0
  -22.4294   -8.0296   21.3554 C   0  0  0  0  0  0
  -21.9935   -9.0248   20.4643 C   0  0  0  0  0  0
  -22.7259  -10.2132   20.3050 C   0  0  0  0  0  0
  -21.6840   -6.0765   22.5292 C   0  0  0  0  0  0
  -21.3992   -6.5648   23.8225 C   0  0  0  0  0  0
  -21.3671   -5.6799   24.9185 C   0  0  0  0  0  0
  -21.6050   -4.3067   24.7220 C   0  0  0  0  0  0
  -21.8814   -3.8171   23.4333 C   0  0  0  0  0  0
  -21.9189   -4.6998   22.3401 C   0  0  0  0  0  0
  -22.7896  -13.5236   21.1846 C   0  0  0  0  0  0
  -22.1653   -4.2194   21.0977 F   0  0  0  0  0  0
  -21.5649   -3.4546   25.7726 F   0  0  0  0  0  0
  -30.0406  -13.2764   20.4627 N   0  0  0  0  0  0
  -26.3070  -12.9328   20.3398 N   0  0  0  0  0  0
  -25.9355  -11.6491   20.5745 N   0  0  0  0  0  0
  -22.0491  -12.8261   22.0386 N   0  0  0  0  0  0
  -25.4342  -15.1874   20.4186 N   0  0  0  0  0  0
  -31.7753  -14.7212   20.1066 O   0  0  0  0  0  0
  -21.6641   -6.8906   21.4256 O   0  0  0  0  0  0
  -22.3595  -14.5536   20.6667 O   0  0  0  0  0  0
  -24.6130  -31.8684   23.2111 C   0  0  0  0  0  0
  -25.9026  -32.4832   23.8392 C   0  0  1  0  0  0
  -27.2400  -27.4470   20.0818 C   0  0  0  0  0  0
  -25.5890  -33.8628   24.2321 N   0  0  0  0  0  0
  -23.3976  -30.4945   21.5506 C   0  0  2  0  0  0
  -24.8409  -28.9551   20.1190 C   0  0  0  0  0  0
  -22.7386  -29.4665   22.4986 C   0  0  0  0  0  0
  -18.0271  -28.1383   22.8481 C   0  0  0  0  0  0
  -24.1477  -36.7317   23.2641 C   0  0  0  0  0  0
  -25.9250  -30.8373   21.3584 C   0  0  0  0  0  0
  -26.0002  -29.4699   20.7098 C   0  0  0  0  0  0
  -27.1963  -28.7205   20.6928 C   0  0  0  0  0  0
  -26.0501  -26.9279   19.5174 C   0  0  0  0  0  0
  -24.8586  -27.6792   19.5283 C   0  0  0  0  0  0
  -23.6045  -29.8254   20.1651 C   0  0  0  0  0  0
  -25.4100  -36.3115   24.0341 C   0  0  1  0  0  0
  -20.5861  -28.3654   23.1325 C   0  0  2  0  0  0
  -20.6764  -26.9390   22.5422 C   0  0  0  0  0  0
  -19.5754  -26.6378   21.5207 C   0  0  0  0  0  0
  -18.1923  -26.7936   22.1599 C   0  0  0  0  0  0
  -19.1524  -28.8831   23.2908 C   0  0  0  0  0  0
  -18.9461  -30.1444   23.8919 C   0  0  0  0  0  0
  -17.6463  -30.6583   24.0569 C   0  0  0  0  0  0
  -25.9027  -34.9485   23.5127 C   0  0  0  0  0  0
  -16.5348  -29.9090   23.6331 C   0  0  0  0  0  0
  -16.7261  -28.6512   23.0330 C   0  0  0  0  0  0
  -26.4471  -31.6622   25.0717 C   0  0  0  0  0  0
  -25.3768  -31.3720   26.1494 C   0  0  0  0  0  0
  -27.0300  -30.3082   24.6052 C   0  0  0  0  0  0
  -27.6036  -32.4357   25.7481 C   0  0  0  0  0  0
  -27.5581  -37.1808   24.8465 C   0  0  0  0  0  0
  -21.4117  -29.3028   22.3727 N   0  0  0  0  0  0
  -26.4284  -37.3803   23.9419 N   0  0  0  0  0  0
  -24.6639  -31.0798   22.0997 N   0  0  0  0  0  0
  -23.4170  -28.8210   23.3015 O   0  0  0  0  0  0
  -28.4514  -26.7831   20.0749 O   0  0  0  0  0  0
  -26.5586  -34.8939   22.4686 O   0  0  0  0  0  0
  -23.5330  -32.1425   23.7525 O   0  0  0  0  0  0
  -28.7876  -20.9854   20.9915 C   0  0  0  0  0  0
  -30.8295  -21.5303   20.3118 C   0  0  0  0  0  0
  -29.5236  -21.9069   20.1935 C   0  0  0  0  0  0
  -29.6437  -20.0830   21.5826 C   0  0  0  0  0  0
  -29.6180  -19.4965   24.0061 C   0  0  0  0  0  0
  -27.7902  -18.6954   22.5469 C   0  0  0  0  0  0
  -32.2059  -19.8756   21.5622 C   0  0  0  0  0  0
  -28.9972  -23.0618   19.3640 C   0  0  0  0  0  0
  -28.6729  -24.3370   20.1742 C   0  0  0  0  0  0
  -30.0519  -17.6053   22.4109 C   0  0  0  0  0  0
  -30.0066  -16.8992   21.0296 C   0  0  0  0  0  0
  -28.6466  -25.6014   19.2923 C   0  0  0  0  0  0
  -29.3113  -18.9782   22.5850 C   0  0  0  0  0  0
  -30.9283  -20.4549   21.1787 N   0  0  0  0  0  0
  -29.9036  -15.4342   21.1560 N   0  0  0  0  0  0
  -31.4792  -12.4351   19.1249 H   0  0  0  0  0  0
  -30.3500  -11.2936   19.7963 H   0  0  0  0  0  0
  -29.7503  -11.8172   17.4161 H   0  0  0  0  0  0
  -29.6777  -13.5186   17.7894 H   0  0  0  0  0  0
  -27.8264  -11.3280   18.7868 H   0  0  0  0  0  0
  -27.3764  -12.6834   17.7844 H   0  0  0  0  0  0
  -27.7165  -14.2579   19.6073 H   0  0  0  0  0  0
  -28.6859  -11.9039   21.3026 H   0  0  0  0  0  0
  -28.4634  -13.5131   21.9032 H   0  0  0  0  0  0
  -25.2766   -9.5706   22.4786 H   0  0  0  0  0  0
  -24.0033   -7.4634   22.7483 H   0  0  0  0  0  0
  -21.0862   -8.8743   19.8945 H   0  0  0  0  0  0
  -22.3688  -10.9674   19.6177 H   0  0  0  0  0  0
  -21.1949   -7.6143   23.9752 H   0  0  0  0  0  0
  -21.1508   -6.0513   25.9093 H   0  0  0  0  0  0
  -22.0588   -2.7645   23.2802 H   0  0  0  0  0  0
  -22.4024  -11.9897   22.4780 H   0  0  0  0  0  0
  -21.1095  -13.1317   22.2520 H   0  0  0  0  0  0
  -24.6723  -15.8414   20.5544 H   0  0  0  0  0  0
  -26.2937  -15.6361   20.1239 H   0  0  0  0  0  0
  -26.7087  -32.5534   23.1146 H   0  0  0  0  0  0
  -25.0089  -33.9797   25.0501 H   0  0  0  0  0  0
  -22.6861  -31.3120   21.4128 H   0  0  0  0  0  0
  -23.3743  -35.9644   23.3302 H   0  0  0  0  0  0
  -24.3579  -36.8929   22.2055 H   0  0  0  0  0  0
  -23.7224  -37.6516   23.6662 H   0  0  0  0  0  0
  -26.0294  -31.5992   20.5841 H   0  0  0  0  0  0
  -26.8170  -30.8960   21.9699 H   0  0  0  0  0  0
  -28.0938  -29.1215   21.1437 H   0  0  0  0  0  0
  -26.0095  -25.9441   19.0758 H   0  0  0  0  0  0
  -23.9607  -27.2655   19.0890 H   0  0  0  0  0  0
  -23.7178  -30.6021   19.4076 H   0  0  0  0  0  0
  -22.7258  -29.2517   19.8645 H   0  0  0  0  0  0
  -25.1281  -36.1972   25.0837 H   0  0  0  0  0  0
  -20.9965  -28.3217   24.1439 H   0  0  0  0  0  0
  -20.5639  -26.2264   23.3607 H   0  0  0  0  0  0
  -21.6640  -26.7418   22.1233 H   0  0  0  0  0  0
  -19.6912  -25.6287   21.1238 H   0  0  0  0  0  0
  -19.6727  -27.3183   20.6739 H   0  0  0  0  0  0
  -17.4210  -26.6701   21.3981 H   0  0  0  0  0  0
  -18.0299  -26.0062   22.8973 H   0  0  0  0  0  0
  -19.7945  -30.7253   24.2282 H   0  0  0  0  0  0
  -17.5027  -31.6274   24.5152 H   0  0  0  0  0  0
  -15.5352  -30.2999   23.7663 H   0  0  0  0  0  0
  -15.8653  -28.0850   22.7018 H   0  0  0  0  0  0
  -24.5937  -30.7051   25.7873 H   0  0  0  0  0  0
  -24.8969  -32.2871   26.4969 H   0  0  0  0  0  0
  -25.8165  -30.8906   27.0236 H   0  0  0  0  0  0
  -26.2820  -29.6837   24.1150 H   0  0  0  0  0  0
  -27.4151  -29.7318   25.4471 H   0  0  0  0  0  0
  -27.8616  -30.4435   23.9133 H   0  0  0  0  0  0
  -27.2626  -33.3619   26.2122 H   0  0  0  0  0  0
  -28.3817  -32.6988   25.0305 H   0  0  0  0  0  0
  -28.0743  -31.8460   26.5355 H   0  0  0  0  0  0
  -28.2602  -38.0103   24.7512 H   0  0  0  0  0  0
  -28.1075  -36.2638   24.6281 H   0  0  0  0  0  0
  -27.2315  -37.1440   25.8872 H   0  0  0  0  0  0
  -20.9255  -29.8774   21.6987 H   0  0  0  0  0  0
  -26.0173  -38.2875   24.1439 H   0  0  0  0  0  0
  -27.7157  -21.0000   21.1325 H   0  0  0  0  0  0
  -31.7187  -21.9541   19.8626 H   0  0  0  0  0  0
  -29.0429  -20.3938   24.2361 H   0  0  0  0  0  0
  -30.6681  -19.7546   24.1305 H   0  0  0  0  0  0
  -29.3779  -18.7545   24.7693 H   0  0  0  0  0  0
  -27.2087  -19.5696   22.8407 H   0  0  0  0  0  0
  -27.5050  -17.8923   23.2275 H   0  0  0  0  0  0
  -27.4577  -18.4103   21.5489 H   0  0  0  0  0  0
  -33.0232  -20.4698   21.1518 H   0  0  0  0  0  0
  -32.3029  -18.8649   21.1720 H   0  0  0  0  0  0
  -32.3165  -19.8684   22.6450 H   0  0  0  0  0  0
  -28.1165  -22.7371   18.8085 H   0  0  0  0  0  0
  -29.7599  -23.2916   18.6165 H   0  0  0  0  0  0
  -29.4388  -24.4805   20.9382 H   0  0  0  0  0  0
  -27.7292  -24.2181   20.7101 H   0  0  0  0  0  0
  -31.0954  -17.7008   22.7068 H   0  0  0  0  0  0
  -29.6428  -16.9228   23.1570 H   0  0  0  0  0  0
  -30.8648  -17.1906   20.4222 H   0  0  0  0  0  0
  -29.1270  -17.2249   20.4739 H   0  0  0  0  0  0
  -27.9611  -25.5002   18.4515 H   0  0  0  0  0  0
  -29.6269  -25.7111   18.8263 H   0  0  0  0  0  0
  -29.0359  -15.0914   21.5432 H   0  0  0  0  0  0
  1 25  1  0  0  0
  1 30  2  0  0  0
  1 85  1  0  0  0
  2  3  1  0  0  0
  2 25  1  0  0  0
  2 86  1  0  0  0
  2 87  1  0  0  0
  3  4  1  0  0  0
  3 88  1  0  0  0
  3 89  1  0  0  0
  4  5  1  0  0  0
  4 90  1  0  0  0
  4 91  1  0  0  0
  5  6  1  0  0  0
  5 26  1  0  0  0
  5 92  1  0  0  0
  6 25  1  0  0  0
  6 93  1  0  0  0
  6 94  1  0  0  0
  7  8  2  0  0  0
  7 26  1  0  0  0
  7 29  1  0  0  0
  8  9  1  0  0  0
  8 22  1  0  0  0
  9 10  1  0  0  0
  9 27  2  0  0  0
 10 11  2  0  0  0
 10 15  1  0  0  0
 11 12  1  0  0  0
 11 95  1  0  0  0
 12 13  2  0  0  0
 12 96  1  0  0  0
 13 14  1  0  0  0
 13 31  1  0  0  0
 14 15  2  0  0  0
 14 97  1  0  0  0
 15 98  1  0  0  0
 16 17  2  0  0  0
 16 21  1  0  0  0
 16 31  1  0  0  0
 17 18  1  0  0  0
 17 99  1  0  0  0
 18 19  2  0  0  0
 18100  1  0  0  0
 19 20  1  0  0  0
 19 24  1  0  0  0
 20 21  2  0  0  0
 20101  1  0  0  0
 21 23  1  0  0  0
 22 28  1  0  0  0
 22 32  2  0  0  0
 26 27  1  0  0  0
 28102  1  0  0  0
 28103  1  0  0  0
 29104  1  0  0  0
 29105  1  0  0  0
 33 34  1  0  0  0
 33 66  1  0  0  0
 33 70  2  0  0  0
 34 36  1  0  0  0
 34 59  1  0  0  0
 34106  1  0  0  0
 35 44  2  0  0  0
 35 45  1  0  0  0
 35 68  1  0  0  0
 36 56  1  0  0  0
 36107  1  0  0  0
 37 39  1  0  0  0
 37 47  1  0  0  0
 37 66  1  0  0  0
 37108  1  0  0  0
 38 43  2  0  0  0
 38 46  1  0  0  0
 38 47  1  0  0  0
 39 64  1  0  0  0
 39 67  2  0  0  0
 40 52  1  0  0  0
 40 53  2  0  0  0
 40 58  1  0  0  0
 41109  1  0  0  0
 41110  1  0  0  0
 41111  1  0  0  0
 41 48  1  0  0  0
 42 43  1  0  0  0
 42 66  1  0  0  0
 42112  1  0  0  0
 42113  1  0  0  0
 43 44  1  0  0  0
 44114  1  0  0  0
 45 46  2  0  0  0
 45115  1  0  0  0
 46116  1  0  0  0
 47117  1  0  0  0
 47118  1  0  0  0
 48 56  1  0  0  0
 48 65  1  0  0  0
 48119  1  0  0  0
 49 50  1  0  0  0
 49 53  1  0  0  0
 49 64  1  0  0  0
 49120  1  0  0  0
 50 51  1  0  0  0
 50121  1  0  0  0
 50122  1  0  0  0
 51 52  1  0  0  0
 51123  1  0  0  0
 51124  1  0  0  0
 52125  1  0  0  0
 52126  1  0  0  0
 53 54  1  0  0  0
 54 55  2  0  0  0
 54127  1  0  0  0
 55 57  1  0  0  0
 55128  1  0  0  0
 56 69  2  0  0  0
 57 58  2  0  0  0
 57129  1  0  0  0
 58130  1  0  0  0
 59 60  1  0  0  0
 59 61  1  0  0  0
 59 62  1  0  0  0
 60131  1  0  0  0
 60132  1  0  0  0
 60133  1  0  0  0
 61134  1  0  0  0
 61135  1  0  0  0
 61136  1  0  0  0
 62137  1  0  0  0
 62138  1  0  0  0
 62139  1  0  0  0
 63 65  1  0  0  0
 63140  1  0  0  0
 63141  1  0  0  0
 63142  1  0  0  0
 64143  1  0  0  0
 65144  1  0  0  0
 68 82  1  0  0  0
 71 73  1  0  0  0
 71 74  2  0  0  0
 71145  1  0  0  0
 72 73  2  0  0  0
 72 84  1  0  0  0
 72146  1  0  0  0
 73 78  1  0  0  0
 74 83  1  0  0  0
 74 84  1  0  0  0
 75147  1  0  0  0
 75148  1  0  0  0
 75149  1  0  0  0
 75 83  1  0  0  0
 76 83  1  0  0  0
 76150  1  0  0  0
 76151  1  0  0  0
 76152  1  0  0  0
 77 84  1  0  0  0
 77153  1  0  0  0
 77154  1  0  0  0
 77155  1  0  0  0
 78 79  1  0  0  0
 78156  1  0  0  0
 78157  1  0  0  0
 79 82  1  0  0  0
 79158  1  0  0  0
 79159  1  0  0  0
 80 81  1  0  0  0
 80 83  1  0  0  0
 80160  1  0  0  0
 80161  1  0  0  0
 81 85  1  0  0  0
 81162  1  0  0  0
 81163  1  0  0  0
 82164  1  0  0  0
 82165  1  0  0  0
 85166  1  0  0  0
M  ISO  4   1 100  68 101  82 101  85 100
M  END
> <chiral flag>
0

> <version>
0

> <s_m_source_file>
/data/baiqing/PycharmProjects/Reinvent-master-3.2/result/LINK_invent/BTK/process_docking_weight1_custom_sum_contain_oxygen_bond_distance_aromatic_linkinvent_7_9_3/rearranged_h_0076.sdf

> <i_m_source_file_index>
37

> <r_mmod_Potential_Energy-OPLS-2005>
-87.5456695556641

> <r_mmod_Stretch_Energy-OPLS-2005>
38.462574005127

> <r_mmod_Bend_Energy-OPLS-2005>
125.431762695312

> <r_mmod_Torsional_Energy-OPLS-2005>
215.416427612305

> <r_mmod_Improper_Torsional_Energy-OPLS-2005>
4.65914440155029

> <r_mmod_Van_der_Waal_Energy-OPLS-2005>
132.349700927734

> <r_mmod_Electrostatic_Energy-OPLS-2005>
-410.007415771484

> <r_mmod_Solvation_Energy-OPLS-2005>
-206.07487487793

> <b_mmod_Minimization_Converged-OPLS-2005>
0

> <r_mmod_RMS_Derivative-OPLS-2005>
2.72448945045471

$$$$
37
                    3D
 Structure written by MMmdl.
161169  0  0  1  0            999 V2000
  -30.7311  -14.4272   20.6378 C   0  0  0  0  0  0
  -30.4194  -12.3079   19.4070 C   0  0  0  0  0  0
  -29.4874  -12.5169   18.1977 C   0  0  0  0  0  0
  -28.0106  -12.3724   18.6132 C   0  0  0  0  0  0
  -27.6617  -13.2046   19.8756 C   0  0  2  0  0  0
  -28.7009  -12.9678   20.9931 C   0  0  0  0  0  0
  -25.2584  -13.8157   20.5670 C   0  0  0  0  0  0
  -24.1832  -13.0437   20.9162 C   0  0  0  0  0  0
  -24.6382  -11.6902   20.8721 C   0  0  0  0  0  0
  -23.9049  -10.4290   21.0396 C   0  0  0  0  0  0
  -24.3607   -9.4210   21.9176 C   0  0  0  0  0  0
  -23.6286   -8.2244   22.0751 C   0  0  0  0  0  0
  -22.4269   -8.0276   21.3541 C   0  0  0  0  0  0
  -21.9897   -9.0247   20.4644 C   0  0  0  0  0  0
  -22.7220  -10.2129   20.3049 C   0  0  0  0  0  0
  -21.6852   -6.0729   22.5278 C   0  0  0  0  0  0
  -21.4015   -6.5635   23.8211 C   0  0  0  0  0  0
  -21.3660   -5.6789   24.9174 C   0  0  0  0  0  0
  -21.6044   -4.3052   24.7226 C   0  0  0  0  0  0
  -21.8820   -3.8142   23.4348 C   0  0  0  0  0  0
  -21.9194   -4.6957   22.3403 C   0  0  0  0  0  0
  -22.7858  -13.5237   21.1833 C   0  0  0  0  0  0
  -22.1661   -4.2141   21.0981 F   0  0  0  0  0  0
  -21.5628   -3.4538   25.7740 F   0  0  0  0  0  0
  -30.0351  -13.2746   20.4474 N   0  0  0  0  0  0
  -26.3018  -12.9323   20.3361 N   0  0  0  0  0  0
  -25.9307  -11.6483   20.5750 N   0  0  0  0  0  0
  -22.0503  -12.8234   22.0397 N   0  0  0  0  0  0
  -25.4323  -15.1875   20.4089 N   0  0  0  0  0  0
  -31.8092  -14.6593   20.0830 O   0  0  0  0  0  0
  -21.6638   -6.8871   21.4238 O   0  0  0  0  0  0
  -22.3542  -14.5544   20.6684 O   0  0  0  0  0  0
  -24.6140  -31.8681   23.2092 C   0  0  0  0  0  0
  -25.9035  -32.4824   23.8388 C   0  0  1  0  0  0
  -27.2337  -27.4364   20.0968 C   0  0  0  0  0  0
  -25.5896  -33.8622   24.2324 N   0  0  0  0  0  0
  -23.4009  -30.4915   21.5497 C   0  0  2  0  0  0
  -24.8459  -28.9547   20.1146 C   0  0  0  0  0  0
  -22.7402  -29.4660   22.4993 C   0  0  0  0  0  0
  -18.0273  -28.1375   22.8498 C   0  0  0  0  0  0
  -24.1487  -36.7313   23.2639 C   0  0  0  0  0  0
  -25.9286  -30.8358   21.3589 C   0  0  0  0  0  0
  -26.0053  -29.4696   20.7066 C   0  0  0  0  0  0
  -27.2021  -28.7194   20.6896 C   0  0  0  0  0  0
  -26.0553  -26.9321   19.5017 C   0  0  0  0  0  0
  -24.8656  -27.6858   19.5085 C   0  0  0  0  0  0
  -23.6077  -29.8215   20.1646 C   0  0  0  0  0  0
  -25.4108  -36.3112   24.0340 C   0  0  1  0  0  0
  -20.5860  -28.3659   23.1327 C   0  0  2  0  0  0
  -20.6760  -26.9396   22.5422 C   0  0  0  0  0  0
  -19.5740  -26.6388   21.5214 C   0  0  0  0  0  0
  -18.1920  -26.7925   22.1627 C   0  0  0  0  0  0
  -19.1522  -28.8833   23.2913 C   0  0  0  0  0  0
  -18.9450  -30.1442   23.8920 C   0  0  0  0  0  0
  -17.6452  -30.6584   24.0569 C   0  0  0  0  0  0
  -25.9034  -34.9478   23.5130 C   0  0  0  0  0  0
  -16.5344  -29.9087   23.6327 C   0  0  0  0  0  0
  -16.7264  -28.6503   23.0351 C   0  0  0  0  0  0
  -26.4466  -31.6601   25.0713 C   0  0  0  0  0  0
  -25.3740  -31.3706   26.1470 C   0  0  0  0  0  0
  -27.0292  -30.3049   24.6072 C   0  0  0  0  0  0
  -27.6050  -32.4312   25.7472 C   0  0  0  0  0  0
  -27.5583  -37.1810   24.8467 C   0  0  0  0  0  0
  -21.4130  -29.3032   22.3736 N   0  0  0  0  0  0
  -26.4295  -37.3796   23.9411 N   0  0  0  0  0  0
  -24.6660  -31.0791   22.0981 N   0  0  0  0  0  0
  -23.4180  -28.8204   23.3031 O   0  0  0  0  0  0
  -28.4167  -26.7276   20.1075 O   0  0  0  0  0  0
  -26.5597  -34.8928   22.4693 O   0  0  0  0  0  0
  -23.5336  -32.1427   23.7496 O   0  0  0  0  0  0
  -32.1164  -23.7483   21.9372 C   0  0  0  0  0  0
  -31.1520  -22.8011   21.5329 C   0  0  0  0  0  0
  -31.4749  -21.4510   21.8087 C   0  0  0  0  0  0
  -33.4536  -22.1204   22.7799 C   0  0  0  0  0  0
  -34.7319  -21.7212   23.4833 C   0  0  0  0  0  0
  -29.8429  -23.2365   20.8494 C   0  0  0  0  0  0
  -29.6789  -24.7778   20.6978 C   0  0  0  0  0  0
  -30.2328  -17.8763   21.3663 C   0  0  0  0  0  0
  -30.7920  -16.5555   21.9595 C   0  0  0  0  0  0
  -28.3544  -25.2939   20.1035 C   0  0  0  0  0  0
  -31.0826  -19.0712   21.8547 C   0  0  0  0  0  0
  -33.2586  -23.4082   22.5548 N   0  0  0  0  0  0
  -32.6288  -21.1442   22.4393 N   0  0  0  0  0  0
  -30.1610  -15.3266   21.4586 N   0  0  0  0  0  0
  -30.6491  -20.3880   21.4517 O   0  0  0  0  0  0
  -31.4623  -12.4119   19.1023 H   0  0  0  0  0  0
  -30.3247  -11.2916   19.7918 H   0  0  0  0  0  0
  -29.7252  -11.7998   17.4107 H   0  0  0  0  0  0
  -29.6539  -13.5070   17.7704 H   0  0  0  0  0  0
  -27.8213  -11.3151   18.8032 H   0  0  0  0  0  0
  -27.3575  -12.6530   17.7858 H   0  0  0  0  0  0
  -27.7128  -14.2556   19.5901 H   0  0  0  0  0  0
  -28.6748  -11.9265   21.3173 H   0  0  0  0  0  0
  -28.4508  -13.5493   21.8805 H   0  0  0  0  0  0
  -25.2756   -9.5688   22.4743 H   0  0  0  0  0  0
  -23.9997   -7.4638   22.7472 H   0  0  0  0  0  0
  -21.0827   -8.8762   19.8953 H   0  0  0  0  0  0
  -22.3677  -10.9662   19.6153 H   0  0  0  0  0  0
  -21.2011   -7.6144   23.9711 H   0  0  0  0  0  0
  -21.1477   -6.0521   25.9076 H   0  0  0  0  0  0
  -22.0601   -2.7603   23.2853 H   0  0  0  0  0  0
  -22.4119  -11.9895   22.4782 H   0  0  0  0  0  0
  -21.1122  -13.1259   22.2604 H   0  0  0  0  0  0
  -24.6709  -15.8482   20.5206 H   0  0  0  0  0  0
  -26.2937  -15.6243   20.1040 H   0  0  0  0  0  0
  -26.7107  -32.5532   23.1153 H   0  0  0  0  0  0
  -25.0058  -33.9783   25.0478 H   0  0  0  0  0  0
  -22.6894  -31.3083   21.4107 H   0  0  0  0  0  0
  -23.3746  -35.9650   23.3312 H   0  0  0  0  0  0
  -24.3585  -36.8915   22.2052 H   0  0  0  0  0  0
  -23.7240  -37.6522   23.6643 H   0  0  0  0  0  0
  -26.0389  -31.6017   20.5896 H   0  0  0  0  0  0
  -26.8178  -30.8908   21.9754 H   0  0  0  0  0  0
  -28.0992  -29.1165   21.1442 H   0  0  0  0  0  0
  -26.0458  -25.9634   19.0228 H   0  0  0  0  0  0
  -23.9737  -27.2848   19.0466 H   0  0  0  0  0  0
  -23.7138  -30.5950   19.4030 H   0  0  0  0  0  0
  -22.7321  -29.2399   19.8710 H   0  0  0  0  0  0
  -25.1285  -36.1981   25.0833 H   0  0  0  0  0  0
  -20.9963  -28.3217   24.1442 H   0  0  0  0  0  0
  -20.5659  -26.2262   23.3605 H   0  0  0  0  0  0
  -21.6632  -26.7439   22.1214 H   0  0  0  0  0  0
  -19.6897  -25.6304   21.1230 H   0  0  0  0  0  0
  -19.6678  -27.3209   20.6752 H   0  0  0  0  0  0
  -17.4190  -26.6682   21.4027 H   0  0  0  0  0  0
  -18.0317  -26.0061   22.9016 H   0  0  0  0  0  0
  -19.7926  -30.7254   24.2295 H   0  0  0  0  0  0
  -17.5009  -31.6267   24.5166 H   0  0  0  0  0  0
  -15.5346  -30.2999   23.7633 H   0  0  0  0  0  0
  -15.8664  -28.0830   22.7051 H   0  0  0  0  0  0
  -24.5906  -30.7059   25.7811 H   0  0  0  0  0  0
  -24.8936  -32.2862   26.4930 H   0  0  0  0  0  0
  -25.8102  -30.8867   27.0218 H   0  0  0  0  0  0
  -26.2826  -29.6813   24.1139 H   0  0  0  0  0  0
  -27.4092  -29.7281   25.4515 H   0  0  0  0  0  0
  -27.8649  -30.4383   23.9198 H   0  0  0  0  0  0
  -27.2678  -33.3602   26.2081 H   0  0  0  0  0  0
  -28.3839  -32.6887   25.0282 H   0  0  0  0  0  0
  -28.0738  -31.8413   26.5358 H   0  0  0  0  0  0
  -28.2610  -38.0098   24.7513 H   0  0  0  0  0  0
  -28.1069  -36.2631   24.6293 H   0  0  0  0  0  0
  -27.2305  -37.1466   25.8871 H   0  0  0  0  0  0
  -20.9280  -29.8761   21.6970 H   0  0  0  0  0  0
  -26.0186  -38.2878   24.1402 H   0  0  0  0  0  0
  -31.9957  -24.8086   21.7795 H   0  0  0  0  0  0
  -35.2556  -22.5882   23.8860 H   0  0  0  0  0  0
  -35.4012  -21.2121   22.7902 H   0  0  0  0  0  0
  -34.5165  -21.0453   24.3105 H   0  0  0  0  0  0
  -29.0089  -22.8384   21.4297 H   0  0  0  0  0  0
  -29.7891  -22.7621   19.8686 H   0  0  0  0  0  0
  -30.4910  -25.1680   20.0823 H   0  0  0  0  0  0
  -29.7781  -25.2408   21.6803 H   0  0  0  0  0  0
  -29.1923  -18.0108   21.6635 H   0  0  0  0  0  0
  -30.2518  -17.8386   20.2766 H   0  0  0  0  0  0
  -30.6640  -16.5693   23.0427 H   0  0  0  0  0  0
  -31.8713  -16.5126   21.8001 H   0  0  0  0  0  0
  -27.5197  -24.9350   20.7090 H   0  0  0  0  0  0
  -28.2186  -24.9240   19.0865 H   0  0  0  0  0  0
  -32.0971  -18.8982   21.4900 H   0  0  0  0  0  0
  -31.1229  -19.0429   22.9455 H   0  0  0  0  0  0
  -29.2706  -15.0660   21.8580 H   0  0  0  0  0  0
  1 25  1  0  0  0
  1 30  2  0  0  0
  1 84  1  0  0  0
  2  3  1  0  0  0
  2 25  1  0  0  0
  2 86  1  0  0  0
  2 87  1  0  0  0
  3  4  1  0  0  0
  3 88  1  0  0  0
  3 89  1  0  0  0
  4  5  1  0  0  0
  4 90  1  0  0  0
  4 91  1  0  0  0
  5  6  1  0  0  0
  5 26  1  0  0  0
  5 92  1  0  0  0
  6 25  1  0  0  0
  6 93  1  0  0  0
  6 94  1  0  0  0
  7  8  2  0  0  0
  7 26  1  0  0  0
  7 29  1  0  0  0
  8  9  1  0  0  0
  8 22  1  0  0  0
  9 10  1  0  0  0
  9 27  2  0  0  0
 10 11  2  0  0  0
 10 15  1  0  0  0
 11 12  1  0  0  0
 11 95  1  0  0  0
 12 13  2  0  0  0
 12 96  1  0  0  0
 13 14  1  0  0  0
 13 31  1  0  0  0
 14 15  2  0  0  0
 14 97  1  0  0  0
 15 98  1  0  0  0
 16 17  2  0  0  0
 16 21  1  0  0  0
 16 31  1  0  0  0
 17 18  1  0  0  0
 17 99  1  0  0  0
 18 19  2  0  0  0
 18100  1  0  0  0
 19 20  1  0  0  0
 19 24  1  0  0  0
 20 21  2  0  0  0
 20101  1  0  0  0
 21 23  1  0  0  0
 22 28  1  0  0  0
 22 32  2  0  0  0
 26 27  1  0  0  0
 28102  1  0  0  0
 28103  1  0  0  0
 29104  1  0  0  0
 29105  1  0  0  0
 33 34  1  0  0  0
 33 66  1  0  0  0
 33 70  2  0  0  0
 34 36  1  0  0  0
 34 59  1  0  0  0
 34106  1  0  0  0
 35 44  2  0  0  0
 35 45  1  0  0  0
 35 68  1  0  0  0
 36 56  1  0  0  0
 36107  1  0  0  0
 37 39  1  0  0  0
 37 47  1  0  0  0
 37 66  1  0  0  0
 37108  1  0  0  0
 38 43  2  0  0  0
 38 46  1  0  0  0
 38 47  1  0  0  0
 39 64  1  0  0  0
 39 67  2  0  0  0
 40 52  1  0  0  0
 40 53  2  0  0  0
 40 58  1  0  0  0
 41109  1  0  0  0
 41110  1  0  0  0
 41111  1  0  0  0
 41 48  1  0  0  0
 42 43  1  0  0  0
 42 66  1  0  0  0
 42112  1  0  0  0
 42113  1  0  0  0
 43 44  1  0  0  0
 44114  1  0  0  0
 45 46  2  0  0  0
 45115  1  0  0  0
 46116  1  0  0  0
 47117  1  0  0  0
 47118  1  0  0  0
 48 56  1  0  0  0
 48 65  1  0  0  0
 48119  1  0  0  0
 49 50  1  0  0  0
 49 53  1  0  0  0
 49 64  1  0  0  0
 49120  1  0  0  0
 50 51  1  0  0  0
 50121  1  0  0  0
 50122  1  0  0  0
 51 52  1  0  0  0
 51123  1  0  0  0
 51124  1  0  0  0
 52125  1  0  0  0
 52126  1  0  0  0
 53 54  1  0  0  0
 54 55  2  0  0  0
 54127  1  0  0  0
 55 57  1  0  0  0
 55128  1  0  0  0
 56 69  2  0  0  0
 57 58  2  0  0  0
 57129  1  0  0  0
 58130  1  0  0  0
 59 60  1  0  0  0
 59 61  1  0  0  0
 59 62  1  0  0  0
 60131  1  0  0  0
 60132  1  0  0  0
 60133  1  0  0  0
 61134  1  0  0  0
 61135  1  0  0  0
 61136  1  0  0  0
 62137  1  0  0  0
 62138  1  0  0  0
 62139  1  0  0  0
 63 65  1  0  0  0
 63140  1  0  0  0
 63141  1  0  0  0
 63142  1  0  0  0
 64143  1  0  0  0
 65144  1  0  0  0
 68 80  1  0  0  0
 71 72  2  0  0  0
 71 82  1  0  0  0
 71145  1  0  0  0
 72 73  1  0  0  0
 72 76  1  0  0  0
 73 83  2  0  0  0
 73 85  1  0  0  0
 74 75  1  0  0  0
 74 82  2  0  0  0
 74 83  1  0  0  0
 75146  1  0  0  0
 75147  1  0  0  0
 75148  1  0  0  0
 76 77  1  0  0  0
 76149  1  0  0  0
 76150  1  0  0  0
 77 80  1  0  0  0
 77151  1  0  0  0
 77152  1  0  0  0
 78 79  1  0  0  0
 78 81  1  0  0  0
 78153  1  0  0  0
 78154  1  0  0  0
 79 84  1  0  0  0
 79155  1  0  0  0
 79156  1  0  0  0
 80157  1  0  0  0
 80158  1  0  0  0
 81 85  1  0  0  0
 81159  1  0  0  0
 81160  1  0  0  0
 84161  1  0  0  0
M  ISO  4   1 100  68 101  80 101  84 100
M  END
> <chiral flag>
0

> <version>
0

> <s_m_source_file>
/data/baiqing/PycharmProjects/Reinvent-master-3.2/result/LINK_invent/BTK/process_docking_weight1_custom_sum_contain_oxygen_bond_distance_aromatic_linkinvent_7_9_3/rearranged_h_0076.sdf

> <i_m_source_file_index>
38

> <r_mmod_Potential_Energy-OPLS-2005>
-499.420318603516

> <r_mmod_Stretch_Energy-OPLS-2005>
38.2673873901367

> <r_mmod_Bend_Energy-OPLS-2005>
107.26439666748

> <r_mmod_Torsional_Energy-OPLS-2005>
178.292663574219

> <r_mmod_Improper_Torsional_Energy-OPLS-2005>
1.8693026304245

> <r_mmod_Van_der_Waal_Energy-OPLS-2005>
180.975601196289

> <r_mmod_Electrostatic_Energy-OPLS-2005>
-788.971923828125

> <r_mmod_Solvation_Energy-OPLS-2005>
-226.752502441406

> <b_mmod_Minimization_Converged-OPLS-2005>
0

> <r_mmod_RMS_Derivative-OPLS-2005>
0.60725325345993

$$$$
38
                    3D
 Structure written by MMmdl.
165173  0  0  1  0            999 V2000
  -30.7808  -14.4047   20.6588 C   0  0  0  0  0  0
  -30.4193  -12.3095   19.3968 C   0  0  0  0  0  0
  -29.4834  -12.5230   18.1920 C   0  0  0  0  0  0
  -28.0073  -12.3876   18.6122 C   0  0  0  0  0  0
  -27.6695  -13.2100   19.8844 C   0  0  2  0  0  0
  -28.7177  -12.9530   20.9915 C   0  0  0  0  0  0
  -25.2634  -13.8174   20.5702 C   0  0  0  0  0  0
  -24.1876  -13.0450   20.9174 C   0  0  0  0  0  0
  -24.6427  -11.6912   20.8744 C   0  0  0  0  0  0
  -23.9094  -10.4302   21.0422 C   0  0  0  0  0  0
  -24.3641   -9.4212   21.9198 C   0  0  0  0  0  0
  -23.6305   -8.2252   22.0762 C   0  0  0  0  0  0
  -22.4281   -8.0299   21.3557 C   0  0  0  0  0  0
  -21.9933   -9.0279   20.4658 C   0  0  0  0  0  0
  -22.7272  -10.2149   20.3067 C   0  0  0  0  0  0
  -21.6853   -6.0753   22.5280 C   0  0  0  0  0  0
  -21.4015   -6.5652   23.8211 C   0  0  0  0  0  0
  -21.3650   -5.6803   24.9176 C   0  0  0  0  0  0
  -21.6036   -4.3064   24.7224 C   0  0  0  0  0  0
  -21.8822   -3.8162   23.4345 C   0  0  0  0  0  0
  -21.9197   -4.6984   22.3408 C   0  0  0  0  0  0
  -22.7887  -13.5243   21.1825 C   0  0  0  0  0  0
  -22.1664   -4.2166   21.0982 F   0  0  0  0  0  0
  -21.5621   -3.4549   25.7741 F   0  0  0  0  0  0
  -30.0454  -13.2754   20.4435 N   0  0  0  0  0  0
  -26.3084  -12.9357   20.3446 N   0  0  0  0  0  0
  -25.9364  -11.6507   20.5803 N   0  0  0  0  0  0
  -22.0526  -12.8249   22.0376 N   0  0  0  0  0  0
  -25.4372  -15.1896   20.4114 N   0  0  0  0  0  0
  -31.8532  -14.5838   20.0715 O   0  0  0  0  0  0
  -21.6639   -6.8897   21.4241 O   0  0  0  0  0  0
  -22.3578  -14.5550   20.6663 O   0  0  0  0  0  0
  -24.6132  -31.8687   23.2121 C   0  0  0  0  0  0
  -25.9042  -32.4825   23.8400 C   0  0  1  0  0  0
  -27.2240  -27.4296   20.0971 C   0  0  0  0  0  0
  -25.5892  -33.8621   24.2311 N   0  0  0  0  0  0
  -23.4007  -30.4958   21.5542 C   0  0  2  0  0  0
  -24.8443  -28.9677   20.1147 C   0  0  0  0  0  0
  -22.7403  -29.4673   22.5012 C   0  0  0  0  0  0
  -18.0256  -28.1391   22.8486 C   0  0  0  0  0  0
  -24.1490  -36.7317   23.2632 C   0  0  0  0  0  0
  -25.9313  -30.8354   21.3657 C   0  0  0  0  0  0
  -26.0074  -29.4713   20.7108 C   0  0  0  0  0  0
  -27.1981  -28.7063   20.7032 C   0  0  0  0  0  0
  -26.0415  -26.9534   19.4783 C   0  0  0  0  0  0
  -24.8551  -27.7073   19.4994 C   0  0  0  0  0  0
  -23.6064  -29.8335   20.1682 C   0  0  0  0  0  0
  -25.4115  -36.3114   24.0324 C   0  0  1  0  0  0
  -20.5849  -28.3674   23.1332 C   0  0  2  0  0  0
  -20.6759  -26.9417   22.5416 C   0  0  0  0  0  0
  -19.5746  -26.6399   21.5208 C   0  0  0  0  0  0
  -18.1915  -26.7935   22.1620 C   0  0  0  0  0  0
  -19.1504  -28.8843   23.2900 C   0  0  0  0  0  0
  -18.9436  -30.1440   23.8932 C   0  0  0  0  0  0
  -17.6448  -30.6599   24.0577 C   0  0  0  0  0  0
  -25.9045  -34.9477   23.5122 C   0  0  0  0  0  0
  -16.5335  -29.9113   23.6346 C   0  0  0  0  0  0
  -16.7255  -28.6523   23.0385 C   0  0  0  0  0  0
  -26.4466  -31.6615   25.0735 C   0  0  0  0  0  0
  -25.3706  -31.3698   26.1462 C   0  0  0  0  0  0
  -27.0303  -30.3065   24.6128 C   0  0  0  0  0  0
  -27.6056  -32.4315   25.7487 C   0  0  0  0  0  0
  -27.5581  -37.1793   24.8451 C   0  0  0  0  0  0
  -21.4126  -29.3035   22.3735 N   0  0  0  0  0  0
  -26.4292  -37.3809   23.9402 N   0  0  0  0  0  0
  -24.6677  -31.0798   22.1021 N   0  0  0  0  0  0
  -23.4167  -28.8209   23.3046 O   0  0  0  0  0  0
  -28.3916  -26.6854   20.1407 O   0  0  0  0  0  0
  -26.5613  -34.8924   22.4686 O   0  0  0  0  0  0
  -23.5325  -32.1452   23.7522 O   0  0  0  0  0  0
  -30.1573  -18.0722   21.9106 C   0  0  0  0  0  0
  -30.2897  -16.9374   21.0685 C   0  0  0  0  0  0
  -30.2799  -18.3629   19.2297 C   0  0  0  0  0  0
  -30.1440  -19.4880   20.0805 C   0  0  0  0  0  0
  -28.7495  -16.7009   16.9897 C   0  0  0  0  0  0
  -31.2753  -15.4195   22.8940 C   0  0  0  0  0  0
  -30.4410  -18.5134   17.7216 C   0  0  0  0  0  0
  -29.1884  -18.1695   16.8942 C   0  0  0  0  0  0
  -29.4841  -24.4491   20.2732 C   0  0  0  0  0  0
  -29.5160  -23.0796   19.5575 C   0  0  0  0  0  0
  -28.2901  -25.2982   19.7960 C   0  0  0  0  0  0
  -30.0925  -21.9102   20.3774 C   0  0  0  0  0  0
  -30.3405  -15.5076   21.6654 C   0  0  2  0  0  0
  -30.0878  -19.3391   21.4278 N   0  0  0  0  0  0
  -30.3414  -17.1010   19.7199 N   0  0  0  0  0  0
  -30.0657  -20.7562   19.5358 O   0  0  0  0  0  0
  -31.4597  -12.4017   19.0806 H   0  0  0  0  0  0
  -30.3246  -11.2928   19.7789 H   0  0  0  0  0  0
  -29.7138  -11.8018   17.4062 H   0  0  0  0  0  0
  -29.6540  -13.5113   17.7635 H   0  0  0  0  0  0
  -27.8074  -11.3298   18.7902 H   0  0  0  0  0  0
  -27.3544  -12.6861   17.7904 H   0  0  0  0  0  0
  -27.7259  -14.2645   19.6130 H   0  0  0  0  0  0
  -28.6999  -11.9006   21.2762 H   0  0  0  0  0  0
  -28.4683  -13.4820   21.9080 H   0  0  0  0  0  0
  -25.2782   -9.5670   22.4780 H   0  0  0  0  0  0
  -24.0010   -7.4639   22.7484 H   0  0  0  0  0  0
  -21.0859   -8.8822   19.8962 H   0  0  0  0  0  0
  -22.3759  -10.9701   19.6178 H   0  0  0  0  0  0
  -21.2016   -7.6157   23.9723 H   0  0  0  0  0  0
  -21.1456   -6.0529   25.9072 H   0  0  0  0  0  0
  -22.0613   -2.7624   23.2847 H   0  0  0  0  0  0
  -22.4140  -11.9913   22.4772 H   0  0  0  0  0  0
  -21.1135  -13.1286   22.2569 H   0  0  0  0  0  0
  -24.6763  -15.8502   20.5270 H   0  0  0  0  0  0
  -26.2971  -15.6255   20.1014 H   0  0  0  0  0  0
  -26.7118  -32.5578   23.1169 H   0  0  0  0  0  0
  -24.9984  -33.9769   25.0423 H   0  0  0  0  0  0
  -22.6894  -31.3135   21.4185 H   0  0  0  0  0  0
  -23.3748  -35.9654   23.3284 H   0  0  0  0  0  0
  -24.3578  -36.8976   22.2047 H   0  0  0  0  0  0
  -23.7254  -37.6509   23.6680 H   0  0  0  0  0  0
  -26.0418  -31.6039   20.5990 H   0  0  0  0  0  0
  -26.8165  -30.8865   21.9868 H   0  0  0  0  0  0
  -28.0946  -29.0814   21.1789 H   0  0  0  0  0  0
  -25.9995  -25.9976   18.9778 H   0  0  0  0  0  0
  -23.9609  -27.3147   19.0359 H   0  0  0  0  0  0
  -23.7103  -30.6089   19.4086 H   0  0  0  0  0  0
  -22.7267  -29.2533   19.8805 H   0  0  0  0  0  0
  -25.1301  -36.1950   25.0815 H   0  0  0  0  0  0
  -20.9935  -28.3257   24.1462 H   0  0  0  0  0  0
  -20.5686  -26.2282   23.3603 H   0  0  0  0  0  0
  -21.6632  -26.7492   22.1198 H   0  0  0  0  0  0
  -19.6925  -25.6312   21.1243 H   0  0  0  0  0  0
  -19.6696  -27.3197   20.6727 H   0  0  0  0  0  0
  -17.4179  -26.6665   21.4018 H   0  0  0  0  0  0
  -18.0313  -26.0079   22.9014 H   0  0  0  0  0  0
  -19.7911  -30.7228   24.2344 H   0  0  0  0  0  0
  -17.5016  -31.6303   24.5133 H   0  0  0  0  0  0
  -15.5346  -30.3043   23.7654 H   0  0  0  0  0  0
  -15.8646  -28.0875   22.7123 H   0  0  0  0  0  0
  -24.5926  -30.7030   25.7756 H   0  0  0  0  0  0
  -24.8840  -32.2824   26.4898 H   0  0  0  0  0  0
  -25.8025  -30.8867   27.0240 H   0  0  0  0  0  0
  -26.2875  -29.6783   24.1217 H   0  0  0  0  0  0
  -27.4101  -29.7358   25.4611 H   0  0  0  0  0  0
  -27.8686  -30.4373   23.9292 H   0  0  0  0  0  0
  -27.2744  -33.3643   26.2059 H   0  0  0  0  0  0
  -28.3856  -32.6816   25.0284 H   0  0  0  0  0  0
  -28.0730  -31.8433   26.5390 H   0  0  0  0  0  0
  -28.2567  -38.0115   24.7574 H   0  0  0  0  0  0
  -28.1122  -36.2661   24.6214 H   0  0  0  0  0  0
  -27.2309  -37.1377   25.8853 H   0  0  0  0  0  0
  -20.9276  -29.8741   21.6955 H   0  0  0  0  0  0
  -26.0178  -38.2882   24.1443 H   0  0  0  0  0  0
  -30.0980  -17.9703   22.9844 H   0  0  0  0  0  0
  -28.0090  -16.4619   16.2270 H   0  0  0  0  0  0
  -28.3034  -16.4836   17.9608 H   0  0  0  0  0  0
  -29.5962  -16.0281   16.8503 H   0  0  0  0  0  0
  -30.9026  -15.9972   23.7394 H   0  0  0  0  0  0
  -32.2764  -15.7840   22.6589 H   0  0  0  0  0  0
  -31.3774  -14.3900   23.2398 H   0  0  0  0  0  0
  -31.2732  -17.8842   17.4020 H   0  0  0  0  0  0
  -30.7501  -19.5335   17.4930 H   0  0  0  0  0  0
  -28.3623  -18.8251   17.1739 H   0  0  0  0  0  0
  -29.4075  -18.3911   15.8483 H   0  0  0  0  0  0
  -30.4200  -24.9771   20.0916 H   0  0  0  0  0  0
  -29.4091  -24.3063   21.3528 H   0  0  0  0  0  0
  -30.0683  -23.1847   18.6226 H   0  0  0  0  0  0
  -28.5025  -22.8004   19.2695 H   0  0  0  0  0  0
  -27.3994  -24.8561   20.2481 H   0  0  0  0  0  0
  -28.1877  -25.2142   18.7140 H   0  0  0  0  0  0
  -29.4902  -21.7820   21.2775 H   0  0  0  0  0  0
  -31.1192  -22.1139   20.6810 H   0  0  0  0  0  0
  -29.3295  -15.3315   22.0125 H   0  0  0  0  0  0
  1 25  1  0  0  0
  1 30  2  0  0  0
  1 83  1  0  0  0
  2  3  1  0  0  0
  2 25  1  0  0  0
  2 87  1  0  0  0
  2 88  1  0  0  0
  3  4  1  0  0  0
  3 89  1  0  0  0
  3 90  1  0  0  0
  4  5  1  0  0  0
  4 91  1  0  0  0
  4 92  1  0  0  0
  5  6  1  0  0  0
  5 26  1  0  0  0
  5 93  1  0  0  0
  6 25  1  0  0  0
  6 94  1  0  0  0
  6 95  1  0  0  0
  7  8  2  0  0  0
  7 26  1  0  0  0
  7 29  1  0  0  0
  8  9  1  0  0  0
  8 22  1  0  0  0
  9 10  1  0  0  0
  9 27  2  0  0  0
 10 11  2  0  0  0
 10 15  1  0  0  0
 11 12  1  0  0  0
 11 96  1  0  0  0
 12 13  2  0  0  0
 12 97  1  0  0  0
 13 14  1  0  0  0
 13 31  1  0  0  0
 14 15  2  0  0  0
 14 98  1  0  0  0
 15 99  1  0  0  0
 16 17  2  0  0  0
 16 21  1  0  0  0
 16 31  1  0  0  0
 17 18  1  0  0  0
 17100  1  0  0  0
 18 19  2  0  0  0
 18101  1  0  0  0
 19 20  1  0  0  0
 19 24  1  0  0  0
 20 21  2  0  0  0
 20102  1  0  0  0
 21 23  1  0  0  0
 22 28  1  0  0  0
 22 32  2  0  0  0
 26 27  1  0  0  0
 28103  1  0  0  0
 28104  1  0  0  0
 29105  1  0  0  0
 29106  1  0  0  0
 33 34  1  0  0  0
 33 66  1  0  0  0
 33 70  2  0  0  0
 34 36  1  0  0  0
 34 59  1  0  0  0
 34107  1  0  0  0
 35 44  2  0  0  0
 35 45  1  0  0  0
 35 68  1  0  0  0
 36 56  1  0  0  0
 36108  1  0  0  0
 37 39  1  0  0  0
 37 47  1  0  0  0
 37 66  1  0  0  0
 37109  1  0  0  0
 38 43  2  0  0  0
 38 46  1  0  0  0
 38 47  1  0  0  0
 39 64  1  0  0  0
 39 67  2  0  0  0
 40 52  1  0  0  0
 40 53  2  0  0  0
 40 58  1  0  0  0
 41110  1  0  0  0
 41111  1  0  0  0
 41112  1  0  0  0
 41 48  1  0  0  0
 42 43  1  0  0  0
 42 66  1  0  0  0
 42113  1  0  0  0
 42114  1  0  0  0
 43 44  1  0  0  0
 44115  1  0  0  0
 45 46  2  0  0  0
 45116  1  0  0  0
 46117  1  0  0  0
 47118  1  0  0  0
 47119  1  0  0  0
 48 56  1  0  0  0
 48 65  1  0  0  0
 48120  1  0  0  0
 49 50  1  0  0  0
 49 53  1  0  0  0
 49 64  1  0  0  0
 49121  1  0  0  0
 50 51  1  0  0  0
 50122  1  0  0  0
 50123  1  0  0  0
 51 52  1  0  0  0
 51124  1  0  0  0
 51125  1  0  0  0
 52126  1  0  0  0
 52127  1  0  0  0
 53 54  1  0  0  0
 54 55  2  0  0  0
 54128  1  0  0  0
 55 57  1  0  0  0
 55129  1  0  0  0
 56 69  2  0  0  0
 57 58  2  0  0  0
 57130  1  0  0  0
 58131  1  0  0  0
 59 60  1  0  0  0
 59 61  1  0  0  0
 59 62  1  0  0  0
 60132  1  0  0  0
 60133  1  0  0  0
 60134  1  0  0  0
 61135  1  0  0  0
 61136  1  0  0  0
 61137  1  0  0  0
 62138  1  0  0  0
 62139  1  0  0  0
 62140  1  0  0  0
 63 65  1  0  0  0
 63141  1  0  0  0
 63142  1  0  0  0
 63143  1  0  0  0
 64144  1  0  0  0
 65145  1  0  0  0
 68 81  1  0  0  0
 71 72  2  0  0  0
 71 84  1  0  0  0
 71146  1  0  0  0
 72 83  1  0  0  0
 72 85  1  0  0  0
 73 74  1  0  0  0
 73 77  1  0  0  0
 73 85  2  0  0  0
 74 84  2  0  0  0
 74 86  1  0  0  0
 75 78  1  0  0  0
 75147  1  0  0  0
 75148  1  0  0  0
 75149  1  0  0  0
 76150  1  0  0  0
 76151  1  0  0  0
 76152  1  0  0  0
 76 83  1  0  0  0
 77 78  1  0  0  0
 77153  1  0  0  0
 77154  1  0  0  0
 78155  1  0  0  0
 78156  1  0  0  0
 79 80  1  0  0  0
 79 81  1  0  0  0
 79157  1  0  0  0
 79158  1  0  0  0
 80 82  1  0  0  0
 80159  1  0  0  0
 80160  1  0  0  0
 81161  1  0  0  0
 81162  1  0  0  0
 82 86  1  0  0  0
 82163  1  0  0  0
 82164  1  0  0  0
 83165  1  0  0  0
M  ISO  4   1 100  68 101  81 101  83 100
M  END
> <chiral flag>
0

> <version>
0

> <s_m_source_file>
/data/baiqing/PycharmProjects/Reinvent-master-3.2/result/LINK_invent/BTK/process_docking_weight1_custom_sum_contain_oxygen_bond_distance_aromatic_linkinvent_7_9_3/rearranged_h_0076.sdf

> <i_m_source_file_index>
39

> <r_mmod_Potential_Energy-OPLS-2005>
73.5790786743164

> <r_mmod_Stretch_Energy-OPLS-2005>
41.7051544189453

> <r_mmod_Bend_Energy-OPLS-2005>
114.939254760742

> <r_mmod_Torsional_Energy-OPLS-2005>
158.985473632812

> <r_mmod_Improper_Torsional_Energy-OPLS-2005>
1.67196667194366

> <r_mmod_Van_der_Waal_Energy-OPLS-2005>
169.802703857422

> <r_mmod_Electrostatic_Energy-OPLS-2005>
-227.470321655273

> <r_mmod_Solvation_Energy-OPLS-2005>
-197.846435546875

> <b_mmod_Minimization_Converged-OPLS-2005>
0

> <r_mmod_RMS_Derivative-OPLS-2005>
3.00864887237549

$$$$
39
                    3D
 Structure written by MMmdl.
163171  0  0  1  0            999 V2000
  -30.6471  -14.4600   20.5619 C   0  0  0  0  0  0
  -30.4406  -12.2933   19.4070 C   0  0  0  0  0  0
  -29.4992  -12.4870   18.1979 C   0  0  0  0  0  0
  -28.0248  -12.3305   18.6227 C   0  0  0  0  0  0
  -27.6713  -13.1747   19.8759 C   0  0  2  0  0  0
  -28.7102  -12.9251   20.9947 C   0  0  0  0  0  0
  -25.2718  -13.8079   20.5597 C   0  0  0  0  0  0
  -24.1908  -13.0412   20.9130 C   0  0  0  0  0  0
  -24.6424  -11.6876   20.8726 C   0  0  0  0  0  0
  -23.9075  -10.4294   21.0427 C   0  0  0  0  0  0
  -24.3608   -9.4205   21.9227 C   0  0  0  0  0  0
  -23.6271   -8.2236   22.0788 C   0  0  0  0  0  0
  -22.4271   -8.0282   21.3545 C   0  0  0  0  0  0
  -21.9905   -9.0274   20.4670 C   0  0  0  0  0  0
  -22.7235  -10.2146   20.3101 C   0  0  0  0  0  0
  -21.6863   -6.0750   22.5289 C   0  0  0  0  0  0
  -21.4008   -6.5642   23.8206 C   0  0  0  0  0  0
  -21.3648   -5.6789   24.9165 C   0  0  0  0  0  0
  -21.6044   -4.3063   24.7211 C   0  0  0  0  0  0
  -21.8815   -3.8145   23.4340 C   0  0  0  0  0  0
  -21.9194   -4.6976   22.3378 C   0  0  0  0  0  0
  -22.7964  -13.5301   21.1720 C   0  0  0  0  0  0
  -22.1671   -4.2151   21.0976 F   0  0  0  0  0  0
  -21.5622   -3.4545   25.7731 F   0  0  0  0  0  0
  -30.0427  -13.2488   20.4502 N   0  0  0  0  0  0
  -26.3084  -12.9172   20.3350 N   0  0  0  0  0  0
  -25.9328  -11.6372   20.5776 N   0  0  0  0  0  0
  -22.0569  -12.8329   22.0284 N   0  0  0  0  0  0
  -25.4420  -15.1760   20.3812 N   0  0  0  0  0  0
  -31.7468  -14.7272   20.0681 O   0  0  0  0  0  0
  -21.6636   -6.8881   21.4244 O   0  0  0  0  0  0
  -22.3665  -14.5590   20.6570 O   0  0  0  0  0  0
  -24.6092  -31.8709   23.2085 C   0  0  0  0  0  0
  -25.9027  -32.4829   23.8353 C   0  0  1  0  0  0
  -27.2488  -27.4802   20.0807 C   0  0  0  0  0  0
  -25.5914  -33.8621   24.2355 N   0  0  0  0  0  0
  -23.3930  -30.4977   21.5469 C   0  0  2  0  0  0
  -24.8394  -28.9555   20.1268 C   0  0  0  0  0  0
  -22.7341  -29.4792   22.5009 C   0  0  0  0  0  0
  -18.0315  -28.1423   22.8335 C   0  0  0  0  0  0
  -24.1485  -36.7323   23.2645 C   0  0  0  0  0  0
  -25.9175  -30.8514   21.3528 C   0  0  0  0  0  0
  -25.9953  -29.4812   20.7171 C   0  0  0  0  0  0
  -27.1984  -28.7486   20.6946 C   0  0  0  0  0  0
  -26.0716  -26.9604   19.4962 C   0  0  0  0  0  0
  -24.8679  -27.6885   19.5198 C   0  0  0  0  0  0
  -23.5966  -29.8147   20.1673 C   0  0  0  0  0  0
  -25.4105  -36.3127   24.0357 C   0  0  1  0  0  0
  -20.5885  -28.3704   23.1214 C   0  0  2  0  0  0
  -20.6875  -26.9470   22.5217 C   0  0  0  0  0  0
  -19.5847  -26.6520   21.4996 C   0  0  0  0  0  0
  -18.2002  -26.8003   22.1386 C   0  0  0  0  0  0
  -19.1530  -28.8865   23.2869 C   0  0  0  0  0  0
  -18.9394  -30.1405   23.8998 C   0  0  0  0  0  0
  -17.6349  -30.6489   24.0657 C   0  0  0  0  0  0
  -25.9021  -34.9477   23.5143 C   0  0  0  0  0  0
  -16.5267  -29.8988   23.6329 C   0  0  0  0  0  0
  -16.7296  -28.6483   23.0218 C   0  0  0  0  0  0
  -26.4460  -31.6616   25.0691 C   0  0  0  0  0  0
  -25.3784  -31.3689   26.1491 C   0  0  0  0  0  0
  -27.0273  -30.3069   24.6062 C   0  0  0  0  0  0
  -27.6038  -32.4336   25.7483 C   0  0  0  0  0  0
  -27.5590  -37.1815   24.8479 C   0  0  0  0  0  0
  -21.4125  -29.3068   22.3610 N   0  0  0  0  0  0
  -26.4301  -37.3823   23.9417 N   0  0  0  0  0  0
  -24.6585  -31.0869   22.0948 N   0  0  0  0  0  0
  -23.4108  -28.8416   23.3115 O   0  0  0  0  0  0
  -28.4695  -26.8619   19.9699 O   0  0  0  0  0  0
  -26.5579  -34.8909   22.4717 O   0  0  0  0  0  0
  -23.5296  -32.1404   23.7532 O   0  0  0  0  0  0
  -28.6634  -19.6840   19.9927 C   0  0  0  0  0  0
  -28.2427  -18.8677   21.0212 C   0  0  0  0  0  0
  -26.9083  -20.6648   20.9436 C   0  0  0  0  0  0
  -25.7879  -21.6094   21.2836 C   0  0  0  0  0  0
  -28.9878  -17.5977   23.0505 C   0  0  0  0  0  0
  -28.7260  -23.0926   19.7120 C   0  0  0  0  0  0
  -28.0453  -24.4610   19.5822 C   0  0  0  0  0  0
  -27.8975  -21.9481   19.0802 C   0  0  0  0  0  0
  -29.8365  -16.8411   20.7780 C   0  0  0  0  0  0
  -28.6306  -25.5526   20.4961 C   0  0  0  0  0  0
  -28.6700  -17.5171   21.5462 C   0  0  1  0  0  0
  -27.8319  -20.7807   19.9764 N   0  0  0  0  0  0
  -27.1699  -19.5186   21.5774 N   0  3  0  0  0  0
  -29.8497  -15.4042   21.0819 N   0  0  0  0  0  0
  -31.4806  -12.4082   19.1017 H   0  0  0  0  0  0
  -30.3545  -11.2754   19.7848 H   0  0  0  0  0  0
  -29.7385  -11.7585   17.4216 H   0  0  0  0  0  0
  -29.6589  -13.4691   17.7487 H   0  0  0  0  0  0
  -27.8629  -11.2741   18.8408 H   0  0  0  0  0  0
  -27.3576  -12.5688   17.7941 H   0  0  0  0  0  0
  -27.7311  -14.2234   19.5821 H   0  0  0  0  0  0
  -28.6958  -11.8800   21.3043 H   0  0  0  0  0  0
  -28.4662  -13.4898   21.8985 H   0  0  0  0  0  0
  -25.2762   -9.5688   22.4779 H   0  0  0  0  0  0
  -23.9989   -7.4655   22.7539 H   0  0  0  0  0  0
  -21.0814   -8.8787   19.8995 H   0  0  0  0  0  0
  -22.3693  -10.9686   19.6192 H   0  0  0  0  0  0
  -21.2000   -7.6156   23.9696 H   0  0  0  0  0  0
  -21.1477   -6.0536   25.9060 H   0  0  0  0  0  0
  -22.0607   -2.7617   23.2832 H   0  0  0  0  0  0
  -22.4131  -12.0002   22.4709 H   0  0  0  0  0  0
  -21.1215  -13.1431   22.2482 H   0  0  0  0  0  0
  -24.6300  -15.7838   20.3771 H   0  0  0  0  0  0
  -26.2212  -15.5636   19.8611 H   0  0  0  0  0  0
  -26.7125  -32.5547   23.1131 H   0  0  0  0  0  0
  -25.0022  -33.9816   25.0470 H   0  0  0  0  0  0
  -22.6789  -31.3121   21.4025 H   0  0  0  0  0  0
  -23.3737  -35.9660   23.3304 H   0  0  0  0  0  0
  -24.3565  -36.8935   22.2049 H   0  0  0  0  0  0
  -23.7228  -37.6542   23.6633 H   0  0  0  0  0  0
  -26.0249  -31.6107   20.5777 H   0  0  0  0  0  0
  -26.8086  -30.9098   21.9678 H   0  0  0  0  0  0
  -28.1018  -29.1696   21.1083 H   0  0  0  0  0  0
  -26.0629  -26.0277   18.9559 H   0  0  0  0  0  0
  -23.9779  -27.2834   19.0528 H   0  0  0  0  0  0
  -23.6951  -30.5777   19.3905 H   0  0  0  0  0  0
  -22.7248  -29.2189   19.8891 H   0  0  0  0  0  0
  -25.1265  -36.1985   25.0845 H   0  0  0  0  0  0
  -20.9937  -28.3346   24.1329 H   0  0  0  0  0  0
  -20.5858  -26.2194   23.3281 H   0  0  0  0  0  0
  -21.6741  -26.7682   22.0878 H   0  0  0  0  0  0
  -19.7039  -25.6420   21.1016 H   0  0  0  0  0  0
  -19.6740  -27.3364   20.6548 H   0  0  0  0  0  0
  -17.4347  -26.6725   21.3727 H   0  0  0  0  0  0
  -18.0521  -26.0094   22.8736 H   0  0  0  0  0  0
  -19.7916  -30.7249   24.2280 H   0  0  0  0  0  0
  -17.4831  -31.6152   24.5336 H   0  0  0  0  0  0
  -15.5229  -30.2794   23.7541 H   0  0  0  0  0  0
  -15.8784  -28.0855   22.6643 H   0  0  0  0  0  0
  -24.5947  -30.7056   25.7858 H   0  0  0  0  0  0
  -24.8956  -32.2794   26.5023 H   0  0  0  0  0  0
  -25.8166  -30.8809   27.0201 H   0  0  0  0  0  0
  -26.2768  -29.6872   24.1142 H   0  0  0  0  0  0
  -27.4096  -29.7306   25.4497 H   0  0  0  0  0  0
  -27.8587  -30.4419   23.9146 H   0  0  0  0  0  0
  -27.2665  -33.3613   26.2116 H   0  0  0  0  0  0
  -28.3812  -32.6957   25.0311 H   0  0  0  0  0  0
  -28.0753  -31.8428   26.5356 H   0  0  0  0  0  0
  -28.2623  -38.0100   24.7507 H   0  0  0  0  0  0
  -28.1062  -36.2628   24.6292 H   0  0  0  0  0  0
  -27.2300  -37.1463   25.8887 H   0  0  0  0  0  0
  -20.9433  -29.8526   21.6496 H   0  0  0  0  0  0
  -26.0179  -38.2910   24.1409 H   0  0  0  0  0  0
  -29.4742  -19.5721   19.2833 H   0  0  0  0  0  0
  -24.9491  -21.4017   20.6205 H   0  0  0  0  0  0
  -26.1063  -22.6404   21.1533 H   0  0  0  0  0  0
  -25.4904  -21.4616   22.3246 H   0  0  0  0  0  0
  -28.1168  -17.9040   23.6329 H   0  0  0  0  0  0
  -29.7771  -18.3263   23.2409 H   0  0  0  0  0  0
  -29.3341  -16.6398   23.4501 H   0  0  0  0  0  0
  -28.9179  -22.8862   20.7681 H   0  0  0  0  0  0
  -29.7072  -23.1286   19.2367 H   0  0  0  0  0  0
  -26.9851  -24.3494   19.8162 H   0  0  0  0  0  0
  -28.1080  -24.7895   18.5446 H   0  0  0  0  0  0
  -28.3237  -21.6341   18.1259 H   0  0  0  0  0  0
  -26.8745  -22.2537   18.8505 H   0  0  0  0  0  0
  -30.7901  -17.3091   21.0312 H   0  0  0  0  0  0
  -29.6855  -16.9629   19.7032 H   0  0  0  0  0  0
  -29.7116  -25.4106   20.5835 H   0  0  0  0  0  0
  -28.2508  -25.4939   21.5159 H   0  0  0  0  0  0
  -27.7878  -16.8818   21.4272 H   0  0  0  0  0  0
  -26.6341  -19.1832   22.3684 H   0  0  0  0  0  0
  -29.0054  -15.0560   21.5082 H   0  0  0  0  0  0
  1 25  1  0  0  0
  1 30  2  0  0  0
  1 84  1  0  0  0
  2  3  1  0  0  0
  2 25  1  0  0  0
  2 85  1  0  0  0
  2 86  1  0  0  0
  3  4  1  0  0  0
  3 87  1  0  0  0
  3 88  1  0  0  0
  4  5  1  0  0  0
  4 89  1  0  0  0
  4 90  1  0  0  0
  5  6  1  0  0  0
  5 26  1  0  0  0
  5 91  1  0  0  0
  6 25  1  0  0  0
  6 92  1  0  0  0
  6 93  1  0  0  0
  7  8  2  0  0  0
  7 26  1  0  0  0
  7 29  1  0  0  0
  8  9  1  0  0  0
  8 22  1  0  0  0
  9 10  1  0  0  0
  9 27  2  0  0  0
 10 11  2  0  0  0
 10 15  1  0  0  0
 11 12  1  0  0  0
 11 94  1  0  0  0
 12 13  2  0  0  0
 12 95  1  0  0  0
 13 14  1  0  0  0
 13 31  1  0  0  0
 14 15  2  0  0  0
 14 96  1  0  0  0
 15 97  1  0  0  0
 16 17  2  0  0  0
 16 21  1  0  0  0
 16 31  1  0  0  0
 17 18  1  0  0  0
 17 98  1  0  0  0
 18 19  2  0  0  0
 18 99  1  0  0  0
 19 20  1  0  0  0
 19 24  1  0  0  0
 20 21  2  0  0  0
 20100  1  0  0  0
 21 23  1  0  0  0
 22 28  1  0  0  0
 22 32  2  0  0  0
 26 27  1  0  0  0
 28101  1  0  0  0
 28102  1  0  0  0
 29103  1  0  0  0
 29104  1  0  0  0
 33 34  1  0  0  0
 33 66  1  0  0  0
 33 70  2  0  0  0
 34 36  1  0  0  0
 34 59  1  0  0  0
 34105  1  0  0  0
 35 44  2  0  0  0
 35 45  1  0  0  0
 35 68  1  0  0  0
 36 56  1  0  0  0
 36106  1  0  0  0
 37 39  1  0  0  0
 37 47  1  0  0  0
 37 66  1  0  0  0
 37107  1  0  0  0
 38 43  2  0  0  0
 38 46  1  0  0  0
 38 47  1  0  0  0
 39 64  1  0  0  0
 39 67  2  0  0  0
 40 52  1  0  0  0
 40 53  2  0  0  0
 40 58  1  0  0  0
 41108  1  0  0  0
 41109  1  0  0  0
 41110  1  0  0  0
 41 48  1  0  0  0
 42 43  1  0  0  0
 42 66  1  0  0  0
 42111  1  0  0  0
 42112  1  0  0  0
 43 44  1  0  0  0
 44113  1  0  0  0
 45 46  2  0  0  0
 45114  1  0  0  0
 46115  1  0  0  0
 47116  1  0  0  0
 47117  1  0  0  0
 48 56  1  0  0  0
 48 65  1  0  0  0
 48118  1  0  0  0
 49 50  1  0  0  0
 49 53  1  0  0  0
 49 64  1  0  0  0
 49119  1  0  0  0
 50 51  1  0  0  0
 50120  1  0  0  0
 50121  1  0  0  0
 51 52  1  0  0  0
 51122  1  0  0  0
 51123  1  0  0  0
 52124  1  0  0  0
 52125  1  0  0  0
 53 54  1  0  0  0
 54 55  2  0  0  0
 54126  1  0  0  0
 55 57  1  0  0  0
 55127  1  0  0  0
 56 69  2  0  0  0
 57 58  2  0  0  0
 57128  1  0  0  0
 58129  1  0  0  0
 59 60  1  0  0  0
 59 61  1  0  0  0
 59 62  1  0  0  0
 60130  1  0  0  0
 60131  1  0  0  0
 60132  1  0  0  0
 61133  1  0  0  0
 61134  1  0  0  0
 61135  1  0  0  0
 62136  1  0  0  0
 62137  1  0  0  0
 62138  1  0  0  0
 63 65  1  0  0  0
 63139  1  0  0  0
 63140  1  0  0  0
 63141  1  0  0  0
 64142  1  0  0  0
 65143  1  0  0  0
 68 80  1  0  0  0
 71 72  2  0  0  0
 71 82  1  0  0  0
 71144  1  0  0  0
 72 81  1  0  0  0
 72 83  1  0  0  0
 73 74  1  0  0  0
 73 82  1  0  0  0
 73 83  2  0  0  0
 74145  1  0  0  0
 74146  1  0  0  0
 74147  1  0  0  0
 75148  1  0  0  0
 75149  1  0  0  0
 75150  1  0  0  0
 75 81  1  0  0  0
 76 77  1  0  0  0
 76 78  1  0  0  0
 76151  1  0  0  0
 76152  1  0  0  0
 77 80  1  0  0  0
 77153  1  0  0  0
 77154  1  0  0  0
 78 82  1  0  0  0
 78155  1  0  0  0
 78156  1  0  0  0
 79 81  1  0  0  0
 79 84  1  0  0  0
 79157  1  0  0  0
 79158  1  0  0  0
 80159  1  0  0  0
 80160  1  0  0  0
 81161  1  0  0  0
 83162  1  0  0  0
 84163  1  0  0  0
M  CHG  1  83   1
M  ISO  4   1 100  68 101  80 101  84 100
M  END
> <chiral flag>
0

> <version>
0

> <s_m_source_file>
/data/baiqing/PycharmProjects/Reinvent-master-3.2/result/LINK_invent/BTK/process_docking_weight1_custom_sum_contain_oxygen_bond_distance_aromatic_linkinvent_7_9_3/rearranged_h_0076.sdf

> <i_m_source_file_index>
40

> <r_mmod_Potential_Energy-OPLS-2005>
-121.212188720703

> <r_mmod_Stretch_Energy-OPLS-2005>
32.8170051574707

> <r_mmod_Bend_Energy-OPLS-2005>
97.4771881103516

> <r_mmod_Torsional_Energy-OPLS-2005>
260.617004394531

> <r_mmod_Improper_Torsional_Energy-OPLS-2005>
8.0753288269043

> <r_mmod_Van_der_Waal_Energy-OPLS-2005>
128.846221923828

> <r_mmod_Electrostatic_Energy-OPLS-2005>
-238.106689453125

> <r_mmod_Solvation_Energy-OPLS-2005>
-424.981658935547

> <b_mmod_Minimization_Converged-OPLS-2005>
0

> <r_mmod_RMS_Derivative-OPLS-2005>
8.01004981994629

$$$$
40
                    3D
 Structure written by MMmdl.
175184  0  0  1  0            999 V2000
  -30.7321  -14.5352   20.3617 C   0  0  0  0  0  0
  -30.4221  -12.2793   19.4605 C   0  0  0  0  0  0
  -29.4804  -12.2280   18.2401 C   0  0  0  0  0  0
  -27.9920  -12.2778   18.6493 C   0  0  0  0  0  0
  -27.6434  -13.2002   19.8567 C   0  0  2  0  0  0
  -28.7074  -13.1440   20.9659 C   0  0  0  0  0  0
  -25.2555  -13.8184   20.5797 C   0  0  0  0  0  0
  -24.1786  -13.0431   20.9291 C   0  0  0  0  0  0
  -24.6349  -11.6919   20.8876 C   0  0  0  0  0  0
  -23.9025  -10.4288   21.0473 C   0  0  0  0  0  0
  -24.3581   -9.4207   21.9230 C   0  0  0  0  0  0
  -23.6277   -8.2227   22.0784 C   0  0  0  0  0  0
  -22.4261   -8.0272   21.3570 C   0  0  0  0  0  0
  -21.9891   -9.0252   20.4679 C   0  0  0  0  0  0
  -22.7207  -10.2138   20.3109 C   0  0  0  0  0  0
  -21.6828   -6.0736   22.5287 C   0  0  0  0  0  0
  -21.3980   -6.5643   23.8224 C   0  0  0  0  0  0
  -21.3677   -5.6803   24.9192 C   0  0  0  0  0  0
  -21.6060   -4.3063   24.7232 C   0  0  0  0  0  0
  -21.8808   -3.8151   23.4358 C   0  0  0  0  0  0
  -21.9174   -4.6974   22.3411 C   0  0  0  0  0  0
  -22.7807  -13.5252   21.1852 C   0  0  0  0  0  0
  -22.1650   -4.2164   21.0992 F   0  0  0  0  0  0
  -21.5651   -3.4543   25.7743 F   0  0  0  0  0  0
  -30.0144  -13.3797   20.3442 N   0  0  0  0  0  0
  -26.2981  -12.9317   20.3513 N   0  0  0  0  0  0
  -25.9289  -11.6511   20.6032 N   0  0  0  0  0  0
  -22.0374  -12.8316   22.0424 N   0  0  0  0  0  0
  -25.4204  -15.1903   20.4188 N   0  0  0  0  0  0
  -31.9433  -14.5522   20.1624 O   0  0  0  0  0  0
  -21.6632   -6.8865   21.4238 O   0  0  0  0  0  0
  -22.3544  -14.5543   20.6671 O   0  0  0  0  0  0
  -24.6102  -31.8731   23.2082 C   0  0  0  0  0  0
  -25.9037  -32.4840   23.8359 C   0  0  1  0  0  0
  -27.2205  -27.5096   20.0583 C   0  0  0  0  0  0
  -25.5931  -33.8642   24.2338 N   0  0  0  0  0  0
  -23.3902  -30.4995   21.5484 C   0  0  2  0  0  0
  -24.8295  -28.9770   20.0976 C   0  0  0  0  0  0
  -22.7387  -29.4705   22.4973 C   0  0  0  0  0  0
  -18.0281  -28.1430   22.8522 C   0  0  0  0  0  0
  -24.1484  -36.7263   23.2640 C   0  0  0  0  0  0
  -25.9130  -30.8637   21.3431 C   0  0  0  0  0  0
  -25.9883  -29.5139   20.6712 C   0  0  0  0  0  0
  -27.1947  -28.7952   20.6305 C   0  0  0  0  0  0
  -26.0589  -26.9809   19.4619 C   0  0  0  0  0  0
  -24.8559  -27.7105   19.4867 C   0  0  0  0  0  0
  -23.5885  -29.8329   20.1600 C   0  0  0  0  0  0
  -25.4121  -36.3134   24.0356 C   0  0  1  0  0  0
  -20.5875  -28.3687   23.1338 C   0  0  2  0  0  0
  -20.6770  -26.9424   22.5424 C   0  0  0  0  0  0
  -19.5741  -26.6421   21.5241 C   0  0  0  0  0  0
  -18.1918  -26.7974   22.1648 C   0  0  0  0  0  0
  -19.1535  -28.8867   23.2925 C   0  0  0  0  0  0
  -18.9481  -30.1481   23.8941 C   0  0  0  0  0  0
  -17.6489  -30.6628   24.0601 C   0  0  0  0  0  0
  -25.9063  -34.9501   23.5137 C   0  0  0  0  0  0
  -16.5375  -29.9148   23.6342 C   0  0  0  0  0  0
  -16.7266  -28.6560   23.0352 C   0  0  0  0  0  0
  -26.4476  -31.6593   25.0668 C   0  0  0  0  0  0
  -25.3747  -31.3683   26.1410 C   0  0  0  0  0  0
  -27.0289  -30.3055   24.5971 C   0  0  0  0  0  0
  -27.6077  -32.4250   25.7443 C   0  0  0  0  0  0
  -27.5588  -37.1794   24.8495 C   0  0  0  0  0  0
  -21.4121  -29.3055   22.3747 N   0  0  0  0  0  0
  -26.4315  -37.3828   23.9435 N   0  0  0  0  0  0
  -24.6568  -31.0898   22.0924 N   0  0  0  0  0  0
  -23.4199  -28.8262   23.2994 O   0  0  0  0  0  0
  -28.3517  -26.7495   20.1774 O   0  0  0  0  0  0
  -26.5604  -34.8965   22.4693 O   0  0  0  0  0  0
  -23.5324  -32.1430   23.7517 O   0  0  0  0  0  0
  -30.5491  -16.9112   21.1550 C   0  0  0  0  0  0
  -29.7118  -22.1026   22.7404 C   0  0  0  0  0  0
  -31.7576  -21.6704   22.1199 C   0  0  0  0  0  0
  -30.0742  -15.9024   20.2873 C   0  0  0  0  0  0
  -30.3265  -18.2793   20.8637 C   0  0  0  0  0  0
  -31.0031  -22.6977   22.6137 C   0  0  0  0  0  0
  -29.3129  -16.3658   19.1739 C   0  0  0  0  0  0
  -29.3820  -18.5877   19.8447 C   0  0  0  0  0  0
  -28.9728  -19.9644   19.3414 C   0  0  0  0  0  0
  -29.4476  -16.3841   16.5804 C   0  0  0  0  0  0
  -27.8193  -26.6333   22.6342 C   0  0  0  0  0  0
  -27.5888  -24.6510   21.0711 C   0  0  0  0  0  0
  -31.4592  -24.0979   22.9836 C   0  0  0  0  0  0
  -31.3415  -19.2540   21.4919 C   0  0  0  0  0  0
  -29.1329  -15.6043   17.8672 C   0  0  0  0  0  0
  -30.3356  -25.1431   22.9344 C   0  0  0  0  0  0
  -29.9064  -25.6138   21.5260 C   0  0  0  0  0  0
  -28.3963  -25.9301   21.3644 C   0  0  0  0  0  0
  -29.6789  -20.8275   22.3820 N   0  0  0  0  0  0
  -28.8402  -17.6239   19.0813 N   0  0  0  0  0  0
  -30.9304  -20.5746   21.9425 N   0  0  0  0  0  0
  -31.4542  -12.3602   19.1159 H   0  0  0  0  0  0
  -30.3737  -11.3417   20.0149 H   0  0  0  0  0  0
  -29.6471  -11.2735   17.7423 H   0  0  0  0  0  0
  -29.7360  -12.9271   17.4570 H   0  0  0  0  0  0
  -27.7408  -11.2494   18.9166 H   0  0  0  0  0  0
  -27.3661  -12.5262   17.7921 H   0  0  0  0  0  0
  -27.6228  -14.2232   19.5147 H   0  0  0  0  0  0
  -28.6987  -12.1837   21.4839 H   0  0  0  0  0  0
  -28.5017  -13.9042   21.7215 H   0  0  0  0  0  0
  -25.2683   -9.5716   22.4861 H   0  0  0  0  0  0
  -23.9995   -7.4616   22.7508 H   0  0  0  0  0  0
  -21.0820   -8.8764   19.8988 H   0  0  0  0  0  0
  -22.3631  -10.9699   19.6279 H   0  0  0  0  0  0
  -21.1939   -7.6142   23.9735 H   0  0  0  0  0  0
  -21.1526   -6.0526   25.9105 H   0  0  0  0  0  0
  -22.0565   -2.7605   23.2842 H   0  0  0  0  0  0
  -22.3863  -12.0006   22.4934 H   0  0  0  0  0  0
  -21.1024  -13.1490   22.2524 H   0  0  0  0  0  0
  -24.6499  -15.8371   20.5459 H   0  0  0  0  0  0
  -26.2834  -15.6495   20.1498 H   0  0  0  0  0  0
  -26.7099  -32.5559   23.1122 H   0  0  0  0  0  0
  -25.0181  -33.9805   25.0539 H   0  0  0  0  0  0
  -22.6768  -31.3143   21.4142 H   0  0  0  0  0  0
  -23.3808  -35.9536   23.3360 H   0  0  0  0  0  0
  -24.3550  -36.8797   22.2034 H   0  0  0  0  0  0
  -23.7157  -37.6457   23.6596 H   0  0  0  0  0  0
  -26.0197  -31.6348   20.5810 H   0  0  0  0  0  0
  -26.8040  -30.9090   21.9567 H   0  0  0  0  0  0
  -28.0904  -29.1930   21.0859 H   0  0  0  0  0  0
  -26.0724  -25.9957   19.0182 H   0  0  0  0  0  0
  -23.9604  -27.2906   19.0462 H   0  0  0  0  0  0
  -23.6909  -30.6057   19.3978 H   0  0  0  0  0  0
  -22.7146  -29.2469   19.8681 H   0  0  0  0  0  0
  -25.1298  -36.2019   25.0851 H   0  0  0  0  0  0
  -20.9993  -28.3268   24.1449 H   0  0  0  0  0  0
  -20.5724  -26.2294   23.3607 H   0  0  0  0  0  0
  -21.6633  -26.7497   22.1199 H   0  0  0  0  0  0
  -19.6891  -25.6340   21.1241 H   0  0  0  0  0  0
  -19.6687  -27.3266   20.6811 H   0  0  0  0  0  0
  -17.4190  -26.6769   21.4033 H   0  0  0  0  0  0
  -18.0284  -26.0111   22.9039 H   0  0  0  0  0  0
  -19.7959  -30.7290   24.2313 H   0  0  0  0  0  0
  -17.5058  -31.6317   24.5203 H   0  0  0  0  0  0
  -15.5381  -30.3094   23.7636 H   0  0  0  0  0  0
  -15.8665  -28.0916   22.7036 H   0  0  0  0  0  0
  -24.5929  -30.7041   25.7719 H   0  0  0  0  0  0
  -24.8938  -32.2838   26.4866 H   0  0  0  0  0  0
  -25.8080  -30.8822   27.0160 H   0  0  0  0  0  0
  -26.2814  -29.6843   24.1033 H   0  0  0  0  0  0
  -27.4128  -29.7258   25.4379 H   0  0  0  0  0  0
  -27.8619  -30.4436   23.9069 H   0  0  0  0  0  0
  -27.2753  -33.3538   26.2098 H   0  0  0  0  0  0
  -28.3870  -32.6805   25.0247 H   0  0  0  0  0  0
  -28.0777  -31.8302   26.5288 H   0  0  0  0  0  0
  -28.2681  -38.0032   24.7560 H   0  0  0  0  0  0
  -28.1030  -36.2578   24.6358 H   0  0  0  0  0  0
  -27.2294  -37.1481   25.8898 H   0  0  0  0  0  0
  -20.9271  -29.8750   21.6954 H   0  0  0  0  0  0
  -26.0224  -38.2921   24.1444 H   0  0  0  0  0  0
  -31.2615  -16.6448   21.9234 H   0  0  0  0  0  0
  -28.7999  -22.5489   23.1084 H   0  0  0  0  0  0
  -32.8171  -21.6338   21.9024 H   0  0  0  0  0  0
  -29.3492  -20.8101   19.9028 H   0  0  0  0  0  0
  -27.8825  -20.0418   19.3387 H   0  0  0  0  0  0
  -29.3095  -20.0901   18.3102 H   0  0  0  0  0  0
  -28.7429  -17.2039   16.4285 H   0  0  0  0  0  0
  -29.3695  -15.7292   15.7111 H   0  0  0  0  0  0
  -30.4589  -16.7874   16.5931 H   0  0  0  0  0  0
  -26.7758  -26.9294   22.5207 H   0  0  0  0  0  0
  -28.3870  -27.5246   22.8986 H   0  0  0  0  0  0
  -27.8067  -25.9852   23.5082 H   0  0  0  0  0  0
  -27.6581  -23.9326   21.8837 H   0  0  0  0  0  0
  -27.9316  -24.1678   20.1564 H   0  0  0  0  0  0
  -26.5265  -24.8615   20.9461 H   0  0  0  0  0  0
  -32.2965  -24.4285   22.3669 H   0  0  0  0  0  0
  -31.8304  -24.0973   24.0083 H   0  0  0  0  0  0
  -32.1274  -19.3932   20.7476 H   0  0  0  0  0  0
  -31.8417  -18.7791   22.3373 H   0  0  0  0  0  0
  -29.8750  -14.8298   17.8793 H   0  0  0  0  0  0
  -28.1401  -15.1712   17.7741 H   0  0  0  0  0  0
  -30.6549  -26.0336   23.4799 H   0  0  0  0  0  0
  -29.4977  -24.7485   23.4999 H   0  0  0  0  0  0
  -30.2064  -24.8923   20.7649 H   0  0  0  0  0  0
  -30.4779  -26.5189   21.3001 H   0  0  0  0  0  0
  1 25  1  0  0  0
  1 30  2  0  0  0
  1 74  1  0  0  0
  2  3  1  0  0  0
  2 25  1  0  0  0
  2 92  1  0  0  0
  2 93  1  0  0  0
  3  4  1  0  0  0
  3 94  1  0  0  0
  3 95  1  0  0  0
  4  5  1  0  0  0
  4 96  1  0  0  0
  4 97  1  0  0  0
  5  6  1  0  0  0
  5 26  1  0  0  0
  5 98  1  0  0  0
  6 25  1  0  0  0
  6 99  1  0  0  0
  6100  1  0  0  0
  7  8  2  0  0  0
  7 26  1  0  0  0
  7 29  1  0  0  0
  8  9  1  0  0  0
  8 22  1  0  0  0
  9 10  1  0  0  0
  9 27  2  0  0  0
 10 11  2  0  0  0
 10 15  1  0  0  0
 11 12  1  0  0  0
 11101  1  0  0  0
 12 13  2  0  0  0
 12102  1  0  0  0
 13 14  1  0  0  0
 13 31  1  0  0  0
 14 15  2  0  0  0
 14103  1  0  0  0
 15104  1  0  0  0
 16 17  2  0  0  0
 16 21  1  0  0  0
 16 31  1  0  0  0
 17 18  1  0  0  0
 17105  1  0  0  0
 18 19  2  0  0  0
 18106  1  0  0  0
 19 20  1  0  0  0
 19 24  1  0  0  0
 20 21  2  0  0  0
 20107  1  0  0  0
 21 23  1  0  0  0
 22 28  1  0  0  0
 22 32  2  0  0  0
 26 27  1  0  0  0
 28108  1  0  0  0
 28109  1  0  0  0
 29110  1  0  0  0
 29111  1  0  0  0
 33 34  1  0  0  0
 33 66  1  0  0  0
 33 70  2  0  0  0
 34 36  1  0  0  0
 34 59  1  0  0  0
 34112  1  0  0  0
 35 44  2  0  0  0
 35 45  1  0  0  0
 35 68  1  0  0  0
 36 56  1  0  0  0
 36113  1  0  0  0
 37 39  1  0  0  0
 37 47  1  0  0  0
 37 66  1  0  0  0
 37114  1  0  0  0
 38 43  2  0  0  0
 38 46  1  0  0  0
 38 47  1  0  0  0
 39 64  1  0  0  0
 39 67  2  0  0  0
 40 52  1  0  0  0
 40 53  2  0  0  0
 40 58  1  0  0  0
 41115  1  0  0  0
 41116  1  0  0  0
 41117  1  0  0  0
 41 48  1  0  0  0
 42 43  1  0  0  0
 42 66  1  0  0  0
 42118  1  0  0  0
 42119  1  0  0  0
 43 44  1  0  0  0
 44120  1  0  0  0
 45 46  2  0  0  0
 45121  1  0  0  0
 46122  1  0  0  0
 47123  1  0  0  0
 47124  1  0  0  0
 48 56  1  0  0  0
 48 65  1  0  0  0
 48125  1  0  0  0
 49 50  1  0  0  0
 49 53  1  0  0  0
 49 64  1  0  0  0
 49126  1  0  0  0
 50 51  1  0  0  0
 50127  1  0  0  0
 50128  1  0  0  0
 51 52  1  0  0  0
 51129  1  0  0  0
 51130  1  0  0  0
 52131  1  0  0  0
 52132  1  0  0  0
 53 54  1  0  0  0
 54 55  2  0  0  0
 54133  1  0  0  0
 55 57  1  0  0  0
 55134  1  0  0  0
 56 69  2  0  0  0
 57 58  2  0  0  0
 57135  1  0  0  0
 58136  1  0  0  0
 59 60  1  0  0  0
 59 61  1  0  0  0
 59 62  1  0  0  0
 60137  1  0  0  0
 60138  1  0  0  0
 60139  1  0  0  0
 61140  1  0  0  0
 61141  1  0  0  0
 61142  1  0  0  0
 62143  1  0  0  0
 62144  1  0  0  0
 62145  1  0  0  0
 63 65  1  0  0  0
 63146  1  0  0  0
 63147  1  0  0  0
 63148  1  0  0  0
 64149  1  0  0  0
 65150  1  0  0  0
 68 88  1  0  0  0
 71 74  2  0  0  0
 71 75  1  0  0  0
 71151  1  0  0  0
 72 76  1  0  0  0
 72 89  2  0  0  0
 72152  1  0  0  0
 73 76  2  0  0  0
 73 91  1  0  0  0
 73153  1  0  0  0
 74 77  1  0  0  0
 75 78  2  0  0  0
 75 84  1  0  0  0
 76 83  1  0  0  0
 77 85  1  0  0  0
 77 90  2  0  0  0
 78 79  1  0  0  0
 78 90  1  0  0  0
 79154  1  0  0  0
 79155  1  0  0  0
 79156  1  0  0  0
 80 85  1  0  0  0
 80157  1  0  0  0
 80158  1  0  0  0
 80159  1  0  0  0
 81160  1  0  0  0
 81161  1  0  0  0
 81162  1  0  0  0
 81 88  1  0  0  0
 82 88  1  0  0  0
 82163  1  0  0  0
 82164  1  0  0  0
 82165  1  0  0  0
 83 86  1  0  0  0
 83166  1  0  0  0
 83167  1  0  0  0
 84 91  1  0  0  0
 84168  1  0  0  0
 84169  1  0  0  0
 85170  1  0  0  0
 85171  1  0  0  0
 86 87  1  0  0  0
 86172  1  0  0  0
 86173  1  0  0  0
 87 88  1  0  0  0
 87174  1  0  0  0
 87175  1  0  0  0
 89 91  1  0  0  0
M  ISO  4   1 100  68 101  74 100  88 101
M  END
> <chiral flag>
0

> <version>
0

> <s_m_source_file>
/data/baiqing/PycharmProjects/Reinvent-master-3.2/result/LINK_invent/BTK/process_docking_weight1_custom_sum_contain_oxygen_bond_distance_aromatic_linkinvent_7_9_3/rearranged_h_0076.sdf

> <i_m_source_file_index>
41

> <r_mmod_Potential_Energy-OPLS-2005>
0.229526549577713

> <r_mmod_Stretch_Energy-OPLS-2005>
39.7177734375

> <r_mmod_Bend_Energy-OPLS-2005>
149.794708251953

> <r_mmod_Torsional_Energy-OPLS-2005>
304.724639892578

> <r_mmod_Improper_Torsional_Energy-OPLS-2005>
14.6711702346802

> <r_mmod_Van_der_Waal_Energy-OPLS-2005>
170.721694946289

> <r_mmod_Electrostatic_Energy-OPLS-2005>
-522.493957519531

> <r_mmod_Solvation_Energy-OPLS-2005>
-205.478225708008

> <b_mmod_Minimization_Converged-OPLS-2005>
0

> <r_mmod_RMS_Derivative-OPLS-2005>
5.70257139205933

$$$$
41
                    3D
 Structure written by MMmdl.
158166  0  0  1  0            999 V2000
  -30.6668  -14.7693   20.3427 C   0  0  0  0  0  0
  -30.4229  -12.4462   19.4802 C   0  0  0  0  0  0
  -29.5068  -12.3908   18.2402 C   0  0  0  0  0  0
  -28.0301  -12.2509   18.6609 C   0  0  0  0  0  0
  -27.6205  -13.1999   19.8172 C   0  0  2  0  0  0
  -28.6756  -13.2736   20.9384 C   0  0  0  0  0  0
  -25.2508  -13.8102   20.5727 C   0  0  0  0  0  0
  -24.1774  -13.0398   20.9247 C   0  0  0  0  0  0
  -24.6325  -11.6865   20.8801 C   0  0  0  0  0  0
  -23.9005  -10.4269   21.0447 C   0  0  0  0  0  0
  -24.3577   -9.4184   21.9208 C   0  0  0  0  0  0
  -23.6266   -8.2215   22.0756 C   0  0  0  0  0  0
  -22.4253   -8.0256   21.3537 C   0  0  0  0  0  0
  -21.9881   -9.0233   20.4645 C   0  0  0  0  0  0
  -22.7196  -10.2120   20.3073 C   0  0  0  0  0  0
  -21.6845   -6.0719   22.5277 C   0  0  0  0  0  0
  -21.4015   -6.5630   23.8211 C   0  0  0  0  0  0
  -21.3660   -5.6787   24.9175 C   0  0  0  0  0  0
  -21.6043   -4.3049   24.7227 C   0  0  0  0  0  0
  -21.8820   -3.8135   23.4351 C   0  0  0  0  0  0
  -21.9191   -4.6948   22.3404 C   0  0  0  0  0  0
  -22.7810  -13.5226   21.1892 C   0  0  0  0  0  0
  -22.1662   -4.2136   21.0983 F   0  0  0  0  0  0
  -21.5627   -3.4534   25.7741 F   0  0  0  0  0  0
  -29.9722  -13.5768   20.3246 N   0  0  0  0  0  0
  -26.2853  -12.9220   20.3243 N   0  0  0  0  0  0
  -25.9235  -11.6415   20.5808 N   0  0  0  0  0  0
  -22.0437  -12.8229   22.0440 N   0  0  0  0  0  0
  -25.4262  -15.1824   20.4156 N   0  0  0  0  0  0
  -31.8953  -14.6791   20.3315 O   0  0  0  0  0  0
  -21.6624   -6.8852   21.4234 O   0  0  0  0  0  0
  -22.3519  -14.5536   20.6727 O   0  0  0  0  0  0
  -24.6267  -31.8585   23.2002 C   0  0  0  0  0  0
  -25.9112  -32.4772   23.8342 C   0  0  1  0  0  0
  -27.2260  -27.3128   20.1411 C   0  0  0  0  0  0
  -25.5925  -33.8570   24.2275 N   0  0  0  0  0  0
  -23.4212  -30.4790   21.5421 C   0  0  2  0  0  0
  -24.8702  -28.9249   20.1174 C   0  0  0  0  0  0
  -22.7477  -29.4617   22.4938 C   0  0  0  0  0  0
  -18.0306  -28.1367   22.8486 C   0  0  0  0  0  0
  -24.1484  -36.7287   23.2638 C   0  0  0  0  0  0
  -25.9607  -30.7903   21.3686 C   0  0  0  0  0  0
  -26.0377  -29.4140   20.7183 C   0  0  0  0  0  0
  -27.2233  -28.6213   20.7139 C   0  0  0  0  0  0
  -26.0406  -26.8673   19.5236 C   0  0  0  0  0  0
  -24.8735  -27.6576   19.5090 C   0  0  0  0  0  0
  -23.6373  -29.8055   20.1602 C   0  0  0  0  0  0
  -25.4110  -36.3079   24.0328 C   0  0  1  0  0  0
  -20.5901  -28.3692   23.1306 C   0  0  2  0  0  0
  -20.6809  -26.9417   22.5436 C   0  0  0  0  0  0
  -19.5803  -26.6388   21.5222 C   0  0  0  0  0  0
  -18.1970  -26.7915   22.1616 C   0  0  0  0  0  0
  -19.1547  -28.8845   23.2891 C   0  0  0  0  0  0
  -18.9451  -30.1447   23.8896 C   0  0  0  0  0  0
  -17.6443  -30.6570   24.0541 C   0  0  0  0  0  0
  -25.9048  -34.9447   23.5103 C   0  0  0  0  0  0
  -16.5344  -29.9057   23.6306 C   0  0  0  0  0  0
  -16.7284  -28.6473   23.0339 C   0  0  0  0  0  0
  -26.4499  -31.6584   25.0711 C   0  0  0  0  0  0
  -25.3733  -31.3724   26.1439 C   0  0  0  0  0  0
  -27.0345  -30.3012   24.6160 C   0  0  0  0  0  0
  -27.6058  -32.4320   25.7480 C   0  0  0  0  0  0
  -27.5577  -37.1798   24.8468 C   0  0  0  0  0  0
  -21.4187  -29.3059   22.3696 N   0  0  0  0  0  0
  -26.4290  -37.3773   23.9408 N   0  0  0  0  0  0
  -24.6884  -31.0598   22.0942 N   0  0  0  0  0  0
  -23.4198  -28.8148   23.3016 O   0  0  0  0  0  0
  -28.3391  -26.4649   20.1396 O   0  0  0  0  0  0
  -26.5617  -34.8922   22.4669 O   0  0  0  0  0  0
  -23.5429  -32.1382   23.7333 O   0  0  0  0  0  0
  -28.0713  -20.4548   19.6525 C   0  0  0  0  0  0
  -28.2349  -19.0897   19.6507 C   0  0  0  0  0  0
  -29.5100  -19.9307   21.2474 C   0  0  0  0  0  0
  -28.8488  -21.0319   20.6976 C   0  0  0  0  0  0
  -29.0548  -16.1249   18.7753 C   0  0  0  0  0  0
  -31.2783  -17.0109   19.2598 C   0  0  0  0  0  0
  -28.8522  -22.5373   21.1737 C   0  0  0  0  0  0
  -28.5393  -23.7660   20.1898 C   0  0  0  0  0  0
  -29.5481  -17.2808   21.0283 C   0  0  0  0  0  0
  -28.2462  -25.1839   20.8811 C   0  0  0  0  0  0
  -30.0887  -16.2454   19.9168 C   0  0  0  0  0  0
  -29.1481  -18.7086   20.6293 N   0  0  0  0  0  0
  -31.4623  -12.5469   19.1627 H   0  0  0  0  0  0
  -30.3703  -11.5127   20.0428 H   0  0  0  0  0  0
  -29.7857  -11.5386   17.6191 H   0  0  0  0  0  0
  -29.6552  -13.2621   17.6068 H   0  0  0  0  0  0
  -27.8885  -11.2164   18.9754 H   0  0  0  0  0  0
  -27.3739  -12.3933   17.8012 H   0  0  0  0  0  0
  -27.5452  -14.1685   19.3528 H   0  0  0  0  0  0
  -28.7252  -12.3349   21.4914 H   0  0  0  0  0  0
  -28.4095  -14.0495   21.6583 H   0  0  0  0  0  0
  -25.2714   -9.5671   22.4788 H   0  0  0  0  0  0
  -23.9976   -7.4602   22.7466 H   0  0  0  0  0  0
  -21.0814   -8.8751   19.8943 H   0  0  0  0  0  0
  -22.3649  -10.9669   19.6192 H   0  0  0  0  0  0
  -21.2015   -7.6140   23.9715 H   0  0  0  0  0  0
  -21.1482   -6.0515   25.9081 H   0  0  0  0  0  0
  -22.0599   -2.7595   23.2854 H   0  0  0  0  0  0
  -22.4034  -11.9883   22.4832 H   0  0  0  0  0  0
  -21.1057  -13.1267   22.2649 H   0  0  0  0  0  0
  -24.6671  -15.8418   20.5449 H   0  0  0  0  0  0
  -26.2838  -15.6207   20.1078 H   0  0  0  0  0  0
  -26.7179  -32.5441   23.1092 H   0  0  0  0  0  0
  -25.0086  -33.9706   25.0431 H   0  0  0  0  0  0
  -22.7150  -31.2993   21.3943 H   0  0  0  0  0  0
  -23.3747  -35.9620   23.3305 H   0  0  0  0  0  0
  -24.3581  -36.8899   22.2054 H   0  0  0  0  0  0
  -23.7237  -37.6488   23.6657 H   0  0  0  0  0  0
  -26.0881  -31.5502   20.5962 H   0  0  0  0  0  0
  -26.8415  -30.8443   21.9965 H   0  0  0  0  0  0
  -28.1245  -28.9942   21.1804 H   0  0  0  0  0  0
  -26.0175  -25.8904   19.0610 H   0  0  0  0  0  0
  -23.9779  -27.2765   19.0376 H   0  0  0  0  0  0
  -23.7556  -30.5768   19.3977 H   0  0  0  0  0  0
  -22.7584  -29.2317   19.8613 H   0  0  0  0  0  0
  -25.1291  -36.1927   25.0819 H   0  0  0  0  0  0
  -20.9999  -28.3263   24.1428 H   0  0  0  0  0  0
  -20.5711  -26.2297   23.3630 H   0  0  0  0  0  0
  -21.6686  -26.7468   22.1240 H   0  0  0  0  0  0
  -19.6983  -25.6312   21.1230 H   0  0  0  0  0  0
  -19.6750  -27.3207   20.6761 H   0  0  0  0  0  0
  -17.4256  -26.6670   21.4003 H   0  0  0  0  0  0
  -18.0372  -26.0047   22.9006 H   0  0  0  0  0  0
  -19.7914  -30.7273   24.2272 H   0  0  0  0  0  0
  -17.4984  -31.6252   24.5138 H   0  0  0  0  0  0
  -15.5340  -30.2948   23.7624 H   0  0  0  0  0  0
  -15.8692  -28.0777   22.7058 H   0  0  0  0  0  0
  -24.5899  -30.7085   25.7767 H   0  0  0  0  0  0
  -24.8936  -32.2891   26.4878 H   0  0  0  0  0  0
  -25.8055  -30.8890   27.0207 H   0  0  0  0  0  0
  -26.2923  -29.6760   24.1185 H   0  0  0  0  0  0
  -27.4050  -29.7271   25.4662 H   0  0  0  0  0  0
  -27.8784  -30.4309   23.9381 H   0  0  0  0  0  0
  -27.2670  -33.3614   26.2071 H   0  0  0  0  0  0
  -28.3860  -32.6889   25.0301 H   0  0  0  0  0  0
  -28.0739  -31.8438   26.5382 H   0  0  0  0  0  0
  -28.2599  -38.0091   24.7506 H   0  0  0  0  0  0
  -28.1063  -36.2621   24.6297 H   0  0  0  0  0  0
  -27.2296  -37.1454   25.8871 H   0  0  0  0  0  0
  -20.9368  -29.8793   21.6913 H   0  0  0  0  0  0
  -26.0169  -38.2844   24.1410 H   0  0  0  0  0  0
  -27.3993  -20.9850   18.9901 H   0  0  0  0  0  0
  -27.7374  -18.3612   19.0293 H   0  0  0  0  0  0
  -30.1938  -19.9008   22.0866 H   0  0  0  0  0  0
  -29.1297  -16.9394   18.0549 H   0  0  0  0  0  0
  -28.0390  -16.1613   19.1596 H   0  0  0  0  0  0
  -29.1782  -15.2240   18.1859 H   0  0  0  0  0  0
  -30.9784  -17.9719   18.8406 H   0  0  0  0  0  0
  -31.7271  -16.4440   18.4427 H   0  0  0  0  0  0
  -32.0649  -17.2275   19.9846 H   0  0  0  0  0  0
  -29.8152  -22.7233   21.6504 H   0  0  0  0  0  0
  -28.1249  -22.5815   21.9851 H   0  0  0  0  0  0
  -27.6770  -23.5159   19.5725 H   0  0  0  0  0  0
  -29.3760  -23.8708   19.5000 H   0  0  0  0  0  0
  -30.2965  -17.3606   21.8173 H   0  0  0  0  0  0
  -28.6795  -16.8353   21.5145 H   0  0  0  0  0  0
  -28.9665  -25.2910   21.6927 H   0  0  0  0  0  0
  -27.2799  -25.1231   21.3839 H   0  0  0  0  0  0
  1 25  1  0  0  0
  1 30  2  0  0  0
  1 81  1  0  0  0
  2  3  1  0  0  0
  2 25  1  0  0  0
  2 83  1  0  0  0
  2 84  1  0  0  0
  3  4  1  0  0  0
  3 85  1  0  0  0
  3 86  1  0  0  0
  4  5  1  0  0  0
  4 87  1  0  0  0
  4 88  1  0  0  0
  5  6  1  0  0  0
  5 26  1  0  0  0
  5 89  1  0  0  0
  6 25  1  0  0  0
  6 90  1  0  0  0
  6 91  1  0  0  0
  7  8  2  0  0  0
  7 26  1  0  0  0
  7 29  1  0  0  0
  8  9  1  0  0  0
  8 22  1  0  0  0
  9 10  1  0  0  0
  9 27  2  0  0  0
 10 11  2  0  0  0
 10 15  1  0  0  0
 11 12  1  0  0  0
 11 92  1  0  0  0
 12 13  2  0  0  0
 12 93  1  0  0  0
 13 14  1  0  0  0
 13 31  1  0  0  0
 14 15  2  0  0  0
 14 94  1  0  0  0
 15 95  1  0  0  0
 16 17  2  0  0  0
 16 21  1  0  0  0
 16 31  1  0  0  0
 17 18  1  0  0  0
 17 96  1  0  0  0
 18 19  2  0  0  0
 18 97  1  0  0  0
 19 20  1  0  0  0
 19 24  1  0  0  0
 20 21  2  0  0  0
 20 98  1  0  0  0
 21 23  1  0  0  0
 22 28  1  0  0  0
 22 32  2  0  0  0
 26 27  1  0  0  0
 28 99  1  0  0  0
 28100  1  0  0  0
 29101  1  0  0  0
 29102  1  0  0  0
 33 34  1  0  0  0
 33 66  1  0  0  0
 33 70  2  0  0  0
 34 36  1  0  0  0
 34 59  1  0  0  0
 34103  1  0  0  0
 35 44  2  0  0  0
 35 45  1  0  0  0
 35 68  1  0  0  0
 36 56  1  0  0  0
 36104  1  0  0  0
 37 39  1  0  0  0
 37 47  1  0  0  0
 37 66  1  0  0  0
 37105  1  0  0  0
 38 43  2  0  0  0
 38 46  1  0  0  0
 38 47  1  0  0  0
 39 64  1  0  0  0
 39 67  2  0  0  0
 40 52  1  0  0  0
 40 53  2  0  0  0
 40 58  1  0  0  0
 41106  1  0  0  0
 41107  1  0  0  0
 41108  1  0  0  0
 41 48  1  0  0  0
 42 43  1  0  0  0
 42 66  1  0  0  0
 42109  1  0  0  0
 42110  1  0  0  0
 43 44  1  0  0  0
 44111  1  0  0  0
 45 46  2  0  0  0
 45112  1  0  0  0
 46113  1  0  0  0
 47114  1  0  0  0
 47115  1  0  0  0
 48 56  1  0  0  0
 48 65  1  0  0  0
 48116  1  0  0  0
 49 50  1  0  0  0
 49 53  1  0  0  0
 49 64  1  0  0  0
 49117  1  0  0  0
 50 51  1  0  0  0
 50118  1  0  0  0
 50119  1  0  0  0
 51 52  1  0  0  0
 51120  1  0  0  0
 51121  1  0  0  0
 52122  1  0  0  0
 52123  1  0  0  0
 53 54  1  0  0  0
 54 55  2  0  0  0
 54124  1  0  0  0
 55 57  1  0  0  0
 55125  1  0  0  0
 56 69  2  0  0  0
 57 58  2  0  0  0
 57126  1  0  0  0
 58127  1  0  0  0
 59 60  1  0  0  0
 59 61  1  0  0  0
 59 62  1  0  0  0
 60128  1  0  0  0
 60129  1  0  0  0
 60130  1  0  0  0
 61131  1  0  0  0
 61132  1  0  0  0
 61133  1  0  0  0
 62134  1  0  0  0
 62135  1  0  0  0
 62136  1  0  0  0
 63 65  1  0  0  0
 63137  1  0  0  0
 63138  1  0  0  0
 63139  1  0  0  0
 64140  1  0  0  0
 65141  1  0  0  0
 68 80  1  0  0  0
 71 72  2  0  0  0
 71 74  1  0  0  0
 71142  1  0  0  0
 72 82  1  0  0  0
 72143  1  0  0  0
 73 74  2  0  0  0
 73 82  1  0  0  0
 73144  1  0  0  0
 74 77  1  0  0  0
 75145  1  0  0  0
 75146  1  0  0  0
 75147  1  0  0  0
 75 81  1  0  0  0
 76 81  1  0  0  0
 76148  1  0  0  0
 76149  1  0  0  0
 76150  1  0  0  0
 77 78  1  0  0  0
 77151  1  0  0  0
 77152  1  0  0  0
 78 80  1  0  0  0
 78153  1  0  0  0
 78154  1  0  0  0
 79 81  1  0  0  0
 79 82  1  0  0  0
 79155  1  0  0  0
 79156  1  0  0  0
 80157  1  0  0  0
 80158  1  0  0  0
M  ISO  4   1 100  68 101  80 101  81 100
M  END
> <chiral flag>
0

> <version>
0

> <s_m_source_file>
/data/baiqing/PycharmProjects/Reinvent-master-3.2/result/LINK_invent/BTK/process_docking_weight1_custom_sum_contain_oxygen_bond_distance_aromatic_linkinvent_7_9_3/rearranged_h_0076.sdf

> <i_m_source_file_index>
42

> <r_mmod_Potential_Energy-OPLS-2005>
279.356048583984

> <r_mmod_Stretch_Energy-OPLS-2005>
109.158920288086

> <r_mmod_Bend_Energy-OPLS-2005>
176.104461669922

> <r_mmod_Torsional_Energy-OPLS-2005>
256.021209716797

> <r_mmod_Improper_Torsional_Energy-OPLS-2005>
12.6770935058594

> <r_mmod_Van_der_Waal_Energy-OPLS-2005>
129.366073608398

> <r_mmod_Electrostatic_Energy-OPLS-2005>
-312.685272216797

> <r_mmod_Solvation_Energy-OPLS-2005>
-190.781936645508

> <b_mmod_Minimization_Converged-OPLS-2005>
0

> <r_mmod_RMS_Derivative-OPLS-2005>
1.07557332515717

$$$$
42
                    3D
 Structure written by MMmdl.
167175  0  0  1  0            999 V2000
  -30.8461  -14.4734   20.4107 C   0  0  0  0  0  0
  -30.3988  -12.2736   19.4383 C   0  0  0  0  0  0
  -29.4699  -12.3723   18.2110 C   0  0  0  0  0  0
  -27.9956  -12.3001   18.6409 C   0  0  0  0  0  0
  -27.6436  -13.2214   19.8461 C   0  0  2  0  0  0
  -28.7138  -13.1716   20.9597 C   0  0  0  0  0  0
  -25.2483  -13.8237   20.5829 C   0  0  0  0  0  0
  -24.1773  -13.0442   20.9344 C   0  0  0  0  0  0
  -24.6386  -11.6960   20.8823 C   0  0  0  0  0  0
  -23.9079  -10.4297   21.0433 C   0  0  0  0  0  0
  -24.3622   -9.4227   21.9215 C   0  0  0  0  0  0
  -23.6295   -8.2259   22.0802 C   0  0  0  0  0  0
  -22.4268   -8.0302   21.3604 C   0  0  0  0  0  0
  -21.9925   -9.0251   20.4683 C   0  0  0  0  0  0
  -22.7261  -10.2130   20.3068 C   0  0  0  0  0  0
  -21.6862   -6.0732   22.5259 C   0  0  0  0  0  0
  -21.4043   -6.5659   23.8188 C   0  0  0  0  0  0
  -21.3647   -5.6812   24.9120 C   0  0  0  0  0  0
  -21.6016   -4.3082   24.7188 C   0  0  0  0  0  0
  -21.8820   -3.8165   23.4319 C   0  0  0  0  0  0
  -21.9232   -4.6963   22.3364 C   0  0  0  0  0  0
  -22.7775  -13.5237   21.1859 C   0  0  0  0  0  0
  -22.1687   -4.2151   21.0937 F   0  0  0  0  0  0
  -21.5570   -3.4578   25.7706 F   0  0  0  0  0  0
  -30.0396  -13.3728   20.3551 N   0  0  0  0  0  0
  -26.2956  -12.9438   20.3395 N   0  0  0  0  0  0
  -25.9332  -11.6602   20.5892 N   0  0  0  0  0  0
  -22.0405  -12.8158   22.0342 N   0  0  0  0  0  0
  -25.3938  -15.1959   20.4299 N   0  0  0  0  0  0
  -32.0628  -14.3297   20.3403 O   0  0  0  0  0  0
  -21.6656   -6.8886   21.4244 O   0  0  0  0  0  0
  -22.3430  -14.5508   20.6723 O   0  0  0  0  0  0
  -24.6252  -31.8604   23.2025 C   0  0  0  0  0  0
  -25.9077  -32.4838   23.8355 C   0  0  1  0  0  0
  -27.2802  -27.4844   20.0335 C   0  0  0  0  0  0
  -25.5928  -33.8618   24.2301 N   0  0  0  0  0  0
  -23.5676  -30.2383   21.6607 C   0  0  2  0  0  0
  -24.9013  -28.9975   19.9925 C   0  0  0  0  0  0
  -22.6787  -29.4578   22.6498 C   0  0  0  0  0  0
  -17.9940  -28.1346   22.8333 C   0  0  0  0  0  0
  -24.1474  -36.7331   23.2635 C   0  0  0  0  0  0
  -25.9604  -30.8926   21.3040 C   0  0  0  0  0  0
  -26.0585  -29.5344   20.5896 C   0  0  0  0  0  0
  -27.2417  -28.7693   20.6165 C   0  0  0  0  0  0
  -26.1081  -26.9710   19.4259 C   0  0  0  0  0  0
  -24.9198  -27.7143   19.4259 C   0  0  0  0  0  0
  -23.6073  -29.7640   20.1920 C   0  0  0  0  0  0
  -25.4064  -36.3095   24.0343 C   0  0  1  0  0  0
  -20.5354  -28.3743   23.1135 C   0  0  2  0  0  0
  -20.6526  -26.9504   22.5192 C   0  0  0  0  0  0
  -19.5495  -26.6286   21.5104 C   0  0  0  0  0  0
  -18.1607  -26.7961   22.1330 C   0  0  0  0  0  0
  -19.1135  -28.8851   23.2688 C   0  0  0  0  0  0
  -18.9197  -30.1439   23.8746 C   0  0  0  0  0  0
  -17.6229  -30.6572   24.0538 C   0  0  0  0  0  0
  -25.9021  -34.9480   23.5089 C   0  0  0  0  0  0
  -16.5100  -29.9075   23.6365 C   0  0  0  0  0  0
  -16.6959  -28.6524   23.0275 C   0  0  0  0  0  0
  -26.4496  -31.6587   25.0695 C   0  0  0  0  0  0
  -25.3801  -31.3714   26.1499 C   0  0  0  0  0  0
  -27.0381  -30.3060   24.6056 C   0  0  0  0  0  0
  -27.6051  -32.4309   25.7499 C   0  0  0  0  0  0
  -27.5538  -37.1821   24.8459 C   0  0  0  0  0  0
  -21.3783  -29.3263   22.3889 N   0  0  0  0  0  0
  -26.4252  -37.3779   23.9428 N   0  0  0  0  0  0
  -24.6868  -31.1251   22.0583 N   0  0  0  0  0  0
  -23.1927  -28.8506   23.6053 O   0  0  0  0  0  0
  -28.4655  -26.7834   20.0635 O   0  0  0  0  0  0
  -26.5562  -34.8920   22.4635 O   0  0  0  0  0  0
  -23.5443  -32.0968   23.7581 O   0  0  0  0  0  0
  -29.2732  -21.5759   20.7572 C   0  0  0  0  0  0
  -26.8270  -20.4815   20.3891 C   0  0  0  0  0  0
  -28.1000  -22.2704   21.1401 C   0  0  0  0  0  0
  -28.0085  -19.7619   20.0704 C   0  0  0  0  0  0
  -26.8438  -17.9868   18.5858 C   0  0  0  0  0  0
  -29.9224  -16.5250   22.4945 C   0  0  0  0  0  0
  -29.9611  -15.9193   18.5168 C   0  0  0  0  0  0
  -28.2114  -23.5486   21.9807 C   0  0  0  0  0  0
  -27.7169  -24.8819   21.3746 C   0  0  0  0  0  0
  -28.1865  -17.2392   20.6715 C   0  0  0  0  0  0
  -28.4173  -25.3542   20.0814 C   0  0  0  0  0  0
  -28.0039  -18.3163   19.5498 C   0  0  2  0  0  0
  -29.6623  -16.8890   21.0105 C   0  0  1  0  0  0
  -30.4018  -15.9267   19.9964 C   0  0  1  0  0  0
  -26.8688  -21.7315   20.9297 N   0  0  0  0  0  0
  -29.2303  -20.3334   20.2185 N   0  0  0  0  0  0
  -31.5479  -16.6142   19.8743 F   0  0  0  0  0  0
  -31.4401  -12.2961   19.1088 H   0  0  0  0  0  0
  -30.2615  -11.3148   19.9391 H   0  0  0  0  0  0
  -29.6901  -11.5543   17.5220 H   0  0  0  0  0  0
  -29.6451  -13.2811   17.6459 H   0  0  0  0  0  0
  -27.7956  -11.2601   18.9070 H   0  0  0  0  0  0
  -27.3507  -12.5157   17.7876 H   0  0  0  0  0  0
  -27.6329  -14.2370   19.4697 H   0  0  0  0  0  0
  -28.6917  -12.2060   21.4660 H   0  0  0  0  0  0
  -28.5137  -13.9269   21.7221 H   0  0  0  0  0  0
  -25.2756   -9.5730   22.4800 H   0  0  0  0  0  0
  -24.0037   -7.4653   22.7536 H   0  0  0  0  0  0
  -21.0888   -8.8754   19.8965 H   0  0  0  0  0  0
  -22.3736  -10.9655   19.6166 H   0  0  0  0  0  0
  -21.2041   -7.6179   23.9706 H   0  0  0  0  0  0
  -21.1482   -6.0521   25.9035 H   0  0  0  0  0  0
  -22.0636   -2.7657   23.2793 H   0  0  0  0  0  0
  -22.4211  -11.9920   22.4770 H   0  0  0  0  0  0
  -21.1039  -13.1199   22.2596 H   0  0  0  0  0  0
  -24.6457  -15.8454   20.6507 H   0  0  0  0  0  0
  -26.2269  -15.6700   20.1125 H   0  0  0  0  0  0
  -26.7157  -32.5556   23.1122 H   0  0  0  0  0  0
  -25.0228  -33.9776   25.0536 H   0  0  0  0  0  0
  -24.2366  -29.4726   22.0077 H   0  0  0  0  0  0
  -23.3705  -35.9696   23.3302 H   0  0  0  0  0  0
  -24.3587  -36.8974   22.2071 H   0  0  0  0  0  0
  -23.7316  -37.6574   23.6630 H   0  0  0  0  0  0
  -26.0794  -31.6852   20.5650 H   0  0  0  0  0  0
  -26.8376  -30.9201   21.9427 H   0  0  0  0  0  0
  -28.1243  -29.1713   21.0972 H   0  0  0  0  0  0
  -26.1013  -26.0064   18.9401 H   0  0  0  0  0  0
  -24.0252  -27.2916   18.9984 H   0  0  0  0  0  0
  -22.7548  -29.1273   19.9474 H   0  0  0  0  0  0
  -23.5747  -30.6138   19.5124 H   0  0  0  0  0  0
  -25.1230  -36.1963   25.0861 H   0  0  0  0  0  0
  -20.8910  -28.3083   24.1450 H   0  0  0  0  0  0
  -20.5815  -26.2267   23.3320 H   0  0  0  0  0  0
  -21.6360  -26.7921   22.0744 H   0  0  0  0  0  0
  -19.6661  -25.6106   21.1339 H   0  0  0  0  0  0
  -19.6459  -27.2967   20.6537 H   0  0  0  0  0  0
  -17.4052  -26.7021   21.3490 H   0  0  0  0  0  0
  -17.9626  -25.9939   22.8485 H   0  0  0  0  0  0
  -19.7726  -30.7245   24.1977 H   0  0  0  0  0  0
  -17.4867  -31.6269   24.5133 H   0  0  0  0  0  0
  -15.5124  -30.3026   23.7727 H   0  0  0  0  0  0
  -15.8318  -28.0951   22.6882 H   0  0  0  0  0  0
  -24.5907  -30.7113   25.7894 H   0  0  0  0  0  0
  -24.9072  -32.2934   26.4926 H   0  0  0  0  0  0
  -25.8181  -30.8901   27.0267 H   0  0  0  0  0  0
  -26.2958  -29.6775   24.1169 H   0  0  0  0  0  0
  -27.4321  -29.7323   25.4447 H   0  0  0  0  0  0
  -27.8675  -30.4436   23.9112 H   0  0  0  0  0  0
  -27.2598  -33.3535   26.2139 H   0  0  0  0  0  0
  -28.3821  -32.7005   25.0349 H   0  0  0  0  0  0
  -28.0760  -31.8439   26.5401 H   0  0  0  0  0  0
  -28.2517  -38.0112   24.7404 H   0  0  0  0  0  0
  -28.1024  -36.2663   24.6298 H   0  0  0  0  0  0
  -27.2311  -37.1501   25.8865 H   0  0  0  0  0  0
  -20.9572  -29.8671   21.6459 H   0  0  0  0  0  0
  -26.0127  -38.2870   24.1380 H   0  0  0  0  0  0
  -30.2552  -21.9856   20.9418 H   0  0  0  0  0  0
  -25.8521  -20.0448   20.2402 H   0  0  0  0  0  0
  -25.8729  -17.9368   19.0770 H   0  0  0  0  0  0
  -27.0056  -17.0249   18.1042 H   0  0  0  0  0  0
  -26.7756  -18.7189   17.7822 H   0  0  0  0  0  0
  -29.7178  -15.4799   22.7232 H   0  0  0  0  0  0
  -29.3596  -17.1361   23.2033 H   0  0  0  0  0  0
  -30.9736  -16.6814   22.7298 H   0  0  0  0  0  0
  -28.9233  -15.6314   18.3894 H   0  0  0  0  0  0
  -30.5698  -15.2157   17.9501 H   0  0  0  0  0  0
  -30.1126  -16.8739   18.0202 H   0  0  0  0  0  0
  -29.2608  -23.6790   22.2546 H   0  0  0  0  0  0
  -27.6840  -23.3871   22.9215 H   0  0  0  0  0  0
  -27.8941  -25.6511   22.1282 H   0  0  0  0  0  0
  -26.6378  -24.8745   21.2262 H   0  0  0  0  0  0
  -27.7027  -16.3140   20.3953 H   0  0  0  0  0  0
  -27.6636  -17.5707   21.5704 H   0  0  0  0  0  0
  -27.9490  -24.9583   19.1809 H   0  0  0  0  0  0
  -29.4483  -25.0026   20.0772 H   0  0  0  0  0  0
  -28.8767  -18.2795   18.9108 H   0  0  0  0  0  0
  -30.1365  -17.8711   20.9294 H   0  0  0  0  0  0
  1 25  1  0  0  0
  1 30  2  0  0  0
  1 84  1  0  0  0
  2  3  1  0  0  0
  2 25  1  0  0  0
  2 88  1  0  0  0
  2 89  1  0  0  0
  3  4  1  0  0  0
  3 90  1  0  0  0
  3 91  1  0  0  0
  4  5  1  0  0  0
  4 92  1  0  0  0
  4 93  1  0  0  0
  5  6  1  0  0  0
  5 26  1  0  0  0
  5 94  1  0  0  0
  6 25  1  0  0  0
  6 95  1  0  0  0
  6 96  1  0  0  0
  7  8  2  0  0  0
  7 26  1  0  0  0
  7 29  1  0  0  0
  8  9  1  0  0  0
  8 22  1  0  0  0
  9 10  1  0  0  0
  9 27  2  0  0  0
 10 11  2  0  0  0
 10 15  1  0  0  0
 11 12  1  0  0  0
 11 97  1  0  0  0
 12 13  2  0  0  0
 12 98  1  0  0  0
 13 14  1  0  0  0
 13 31  1  0  0  0
 14 15  2  0  0  0
 14 99  1  0  0  0
 15100  1  0  0  0
 16 17  2  0  0  0
 16 21  1  0  0  0
 16 31  1  0  0  0
 17 18  1  0  0  0
 17101  1  0  0  0
 18 19  2  0  0  0
 18102  1  0  0  0
 19 20  1  0  0  0
 19 24  1  0  0  0
 20 21  2  0  0  0
 20103  1  0  0  0
 21 23  1  0  0  0
 22 28  1  0  0  0
 22 32  2  0  0  0
 26 27  1  0  0  0
 28104  1  0  0  0
 28105  1  0  0  0
 29106  1  0  0  0
 29107  1  0  0  0
 33 34  1  0  0  0
 33 66  1  0  0  0
 33 70  2  0  0  0
 34 36  1  0  0  0
 34 59  1  0  0  0
 34108  1  0  0  0
 35 44  2  0  0  0
 35 45  1  0  0  0
 35 68  1  0  0  0
 36 56  1  0  0  0
 36109  1  0  0  0
 37 39  1  0  0  0
 37 47  1  0  0  0
 37 66  1  0  0  0
 37110  1  0  0  0
 38 43  2  0  0  0
 38 46  1  0  0  0
 38 47  1  0  0  0
 39 64  1  0  0  0
 39 67  2  0  0  0
 40 52  1  0  0  0
 40 53  2  0  0  0
 40 58  1  0  0  0
 41111  1  0  0  0
 41112  1  0  0  0
 41113  1  0  0  0
 41 48  1  0  0  0
 42 43  1  0  0  0
 42 66  1  0  0  0
 42114  1  0  0  0
 42115  1  0  0  0
 43 44  1  0  0  0
 44116  1  0  0  0
 45 46  2  0  0  0
 45117  1  0  0  0
 46118  1  0  0  0
 47119  1  0  0  0
 47120  1  0  0  0
 48 56  1  0  0  0
 48 65  1  0  0  0
 48121  1  0  0  0
 49 50  1  0  0  0
 49 53  1  0  0  0
 49 64  1  0  0  0
 49122  1  0  0  0
 50 51  1  0  0  0
 50123  1  0  0  0
 50124  1  0  0  0
 51 52  1  0  0  0
 51125  1  0  0  0
 51126  1  0  0  0
 52127  1  0  0  0
 52128  1  0  0  0
 53 54  1  0  0  0
 54 55  2  0  0  0
 54129  1  0  0  0
 55 57  1  0  0  0
 55130  1  0  0  0
 56 69  2  0  0  0
 57 58  2  0  0  0
 57131  1  0  0  0
 58132  1  0  0  0
 59 60  1  0  0  0
 59 61  1  0  0  0
 59 62  1  0  0  0
 60133  1  0  0  0
 60134  1  0  0  0
 60135  1  0  0  0
 61136  1  0  0  0
 61137  1  0  0  0
 61138  1  0  0  0
 62139  1  0  0  0
 62140  1  0  0  0
 62141  1  0  0  0
 63 65  1  0  0  0
 63142  1  0  0  0
 63143  1  0  0  0
 63144  1  0  0  0
 64145  1  0  0  0
 65146  1  0  0  0
 68 81  1  0  0  0
 71 73  2  0  0  0
 71 86  1  0  0  0
 71147  1  0  0  0
 72 74  1  0  0  0
 72 85  2  0  0  0
 72148  1  0  0  0
 73 78  1  0  0  0
 73 85  1  0  0  0
 74 82  1  0  0  0
 74 86  2  0  0  0
 75149  1  0  0  0
 75150  1  0  0  0
 75151  1  0  0  0
 75 82  1  0  0  0
 76152  1  0  0  0
 76153  1  0  0  0
 76154  1  0  0  0
 76 83  1  0  0  0
 77155  1  0  0  0
 77156  1  0  0  0
 77157  1  0  0  0
 77 84  1  0  0  0
 78 79  1  0  0  0
 78158  1  0  0  0
 78159  1  0  0  0
 79 81  1  0  0  0
 79160  1  0  0  0
 79161  1  0  0  0
 80 82  1  0  0  0
 80 83  1  0  0  0
 80162  1  0  0  0
 80163  1  0  0  0
 81164  1  0  0  0
 81165  1  0  0  0
 82166  1  0  0  0
 83 84  1  0  0  0
 83167  1  0  0  0
 84 87  1  0  0  0
M  ISO  4   1 100  68 101  81 101  84 100
M  END
> <chiral flag>
0

> <version>
0

> <s_m_source_file>
/data/baiqing/PycharmProjects/Reinvent-master-3.2/result/LINK_invent/BTK/process_docking_weight1_custom_sum_contain_oxygen_bond_distance_aromatic_linkinvent_7_9_3/rearranged_h_0076.sdf

> <i_m_source_file_index>
43

> <r_mmod_Potential_Energy-OPLS-2005>
500.225891113281

> <r_mmod_Stretch_Energy-OPLS-2005>
48.2183609008789

> <r_mmod_Bend_Energy-OPLS-2005>
273.931213378906

> <r_mmod_Torsional_Energy-OPLS-2005>
245.694366455078

> <r_mmod_Improper_Torsional_Energy-OPLS-2005>
19.7920246124268

> <r_mmod_Van_der_Waal_Energy-OPLS-2005>
214.433822631836

> <r_mmod_Electrostatic_Energy-OPLS-2005>
-194.746307373047

> <r_mmod_Solvation_Energy-OPLS-2005>
-200.755416870117

> <b_mmod_Minimization_Converged-OPLS-2005>
0

> <r_mmod_RMS_Derivative-OPLS-2005>
9.00708675384521

$$$$
43
                    3D
 Structure written by MMmdl.
172180  0  0  1  0            999 V2000
  -30.7070  -14.4371   20.5958 C   0  0  0  0  0  0
  -30.4204  -12.2989   19.3950 C   0  0  0  0  0  0
  -29.4796  -12.4858   18.1861 C   0  0  0  0  0  0
  -28.0025  -12.3561   18.6104 C   0  0  0  0  0  0
  -27.6537  -13.2048   19.8624 C   0  0  2  0  0  0
  -28.6976  -12.9683   20.9756 C   0  0  0  0  0  0
  -25.2570  -13.8167   20.5726 C   0  0  0  0  0  0
  -24.1828  -13.0444   20.9214 C   0  0  0  0  0  0
  -24.6375  -11.6906   20.8745 C   0  0  0  0  0  0
  -23.9045  -10.4289   21.0423 C   0  0  0  0  0  0
  -24.3603   -9.4191   21.9179 C   0  0  0  0  0  0
  -23.6277   -8.2223   22.0745 C   0  0  0  0  0  0
  -22.4248   -8.0277   21.3542 C   0  0  0  0  0  0
  -21.9899   -9.0253   20.4638 C   0  0  0  0  0  0
  -22.7230  -10.2127   20.3063 C   0  0  0  0  0  0
  -21.6837   -6.0742   22.5283 C   0  0  0  0  0  0
  -21.4007   -6.5647   23.8221 C   0  0  0  0  0  0
  -21.3654   -5.6782   24.9170 C   0  0  0  0  0  0
  -21.6049   -4.3050   24.7220 C   0  0  0  0  0  0
  -21.8810   -3.8155   23.4332 C   0  0  0  0  0  0
  -21.9186   -4.6974   22.3394 C   0  0  0  0  0  0
  -22.7843  -13.5252   21.1820 C   0  0  0  0  0  0
  -22.1655   -4.2176   21.0974 F   0  0  0  0  0  0
  -21.5618   -3.4532   25.7725 F   0  0  0  0  0  0
  -30.0244  -13.2784   20.4163 N   0  0  0  0  0  0
  -26.2976  -12.9338   20.3335 N   0  0  0  0  0  0
  -25.9293  -11.6488   20.5747 N   0  0  0  0  0  0
  -22.0453  -12.8301   22.0397 N   0  0  0  0  0  0
  -25.4264  -15.1896   20.4124 N   0  0  0  0  0  0
  -31.8586  -14.6070   20.1854 O   0  0  0  0  0  0
  -21.6610   -6.8881   21.4235 O   0  0  0  0  0  0
  -22.3538  -14.5523   20.6598 O   0  0  0  0  0  0
  -24.6082  -31.8672   23.2103 C   0  0  0  0  0  0
  -25.8986  -32.4825   23.8400 C   0  0  1  0  0  0
  -27.2576  -27.4868   20.0695 C   0  0  0  0  0  0
  -25.5857  -33.8619   24.2334 N   0  0  0  0  0  0
  -23.3966  -30.4892   21.5503 C   0  0  2  0  0  0
  -24.8500  -28.9584   20.1088 C   0  0  0  0  0  0
  -22.7393  -29.4650   22.5011 C   0  0  0  0  0  0
  -18.0262  -28.1383   22.8476 C   0  0  0  0  0  0
  -24.1473  -36.7333   23.2635 C   0  0  0  0  0  0
  -25.9189  -30.8476   21.3545 C   0  0  0  0  0  0
  -26.0047  -29.4830   20.7052 C   0  0  0  0  0  0
  -27.2065  -28.7471   20.6962 C   0  0  0  0  0  0
  -26.0901  -26.9593   19.4775 C   0  0  0  0  0  0
  -24.8865  -27.6946   19.4908 C   0  0  0  0  0  0
  -23.6044  -29.8146   20.1650 C   0  0  0  0  0  0
  -25.4098  -36.3116   24.0320 C   0  0  1  0  0  0
  -20.5844  -28.3656   23.1342 C   0  0  2  0  0  0
  -20.6745  -26.9404   22.5435 C   0  0  0  0  0  0
  -19.5735  -26.6385   21.5211 C   0  0  0  0  0  0
  -18.1907  -26.7935   22.1605 C   0  0  0  0  0  0
  -19.1502  -28.8836   23.2907 C   0  0  0  0  0  0
  -18.9430  -30.1438   23.8927 C   0  0  0  0  0  0
  -17.6440  -30.6589   24.0562 C   0  0  0  0  0  0
  -25.9017  -34.9468   23.5134 C   0  0  0  0  0  0
  -16.5334  -29.9101   23.6313 C   0  0  0  0  0  0
  -16.7244  -28.6510   23.0330 C   0  0  0  0  0  0
  -26.4428  -31.6591   25.0714 C   0  0  0  0  0  0
  -25.3699  -31.3698   26.1472 C   0  0  0  0  0  0
  -27.0235  -30.3045   24.6030 C   0  0  0  0  0  0
  -27.6036  -32.4271   25.7469 C   0  0  0  0  0  0
  -27.5576  -37.1801   24.8461 C   0  0  0  0  0  0
  -21.4124  -29.3013   22.3745 N   0  0  0  0  0  0
  -26.4285  -37.3804   23.9408 N   0  0  0  0  0  0
  -24.6609  -31.0799   22.1001 N   0  0  0  0  0  0
  -23.4189  -28.8218   23.3054 O   0  0  0  0  0  0
  -28.4054  -26.7351   20.1577 O   0  0  0  0  0  0
  -26.5609  -34.8904   22.4720 O   0  0  0  0  0  0
  -23.5295  -32.1426   23.7516 O   0  0  0  0  0  0
  -28.5864  -20.9379   20.7547 C   0  0  0  0  0  0
  -29.5560  -20.0723   20.1892 C   0  0  0  0  0  0
  -30.7903  -21.9158   19.5196 C   0  0  0  0  0  0
  -29.8333  -22.7819   20.1125 C   0  0  0  0  0  0
  -32.0637  -22.4073   18.8577 C   0  0  0  0  0  0
  -28.9251  -17.9273   18.9749 C   0  0  0  0  0  0
  -31.8410  -17.6401   19.7866 C   0  0  0  0  0  0
  -30.5954  -27.2572   19.4355 C   0  0  0  0  0  0
  -28.8001  -27.1461   17.7079 C   0  0  0  0  0  0
  -29.9908  -24.2987   20.1565 C   0  0  0  0  0  0
  -29.4514  -25.0167   18.8996 C   0  0  0  0  0  0
  -30.5337  -16.6507   21.7782 C   0  0  0  0  0  0
  -29.4426  -18.5448   20.2852 C   0  0  1  0  0  0
  -30.7427  -17.8792   20.8459 C   0  0  2  0  0  0
  -29.2854  -26.5495   19.0433 C   0  0  0  0  0  0
  -28.7170  -22.2866   20.7064 N   0  0  0  0  0  0
  -30.6297  -20.5731   19.5320 N   0  0  0  0  0  0
  -30.0042  -15.4210   21.1770 N   0  0  0  0  0  0
  -31.4625  -12.4106   19.0909 H   0  0  0  0  0  0
  -30.3388  -11.2864   19.7959 H   0  0  0  0  0  0
  -29.7051  -11.7485   17.4143 H   0  0  0  0  0  0
  -29.6482  -13.4638   17.7330 H   0  0  0  0  0  0
  -27.8121  -11.3021   18.8162 H   0  0  0  0  0  0
  -27.3442  -12.6199   17.7825 H   0  0  0  0  0  0
  -27.6951  -14.2519   19.5587 H   0  0  0  0  0  0
  -28.6807  -11.9248   21.2988 H   0  0  0  0  0  0
  -28.4600  -13.5446   21.8700 H   0  0  0  0  0  0
  -25.2752   -9.5656   22.4742 H   0  0  0  0  0  0
  -23.9970   -7.4630   22.7497 H   0  0  0  0  0  0
  -21.0811   -8.8781   19.8974 H   0  0  0  0  0  0
  -22.3695  -10.9651   19.6165 H   0  0  0  0  0  0
  -21.1999   -7.6145   23.9746 H   0  0  0  0  0  0
  -21.1477   -6.0493   25.9077 H   0  0  0  0  0  0
  -22.0595   -2.7620   23.2810 H   0  0  0  0  0  0
  -22.4021  -12.0009   22.4886 H   0  0  0  0  0  0
  -21.1058  -13.1379   22.2511 H   0  0  0  0  0  0
  -24.6518  -15.8373   20.5147 H   0  0  0  0  0  0
  -26.2730  -15.6318   20.0786 H   0  0  0  0  0  0
  -26.7075  -32.5590   23.1196 H   0  0  0  0  0  0
  -24.9926  -33.9787   25.0419 H   0  0  0  0  0  0
  -22.6824  -31.3037   21.4123 H   0  0  0  0  0  0
  -23.3704  -35.9699   23.3316 H   0  0  0  0  0  0
  -24.3581  -36.8942   22.2053 H   0  0  0  0  0  0
  -23.7226  -37.6539   23.6652 H   0  0  0  0  0  0
  -26.0108  -31.6085   20.5784 H   0  0  0  0  0  0
  -26.8153  -30.9227   21.9582 H   0  0  0  0  0  0
  -28.0940  -29.1363   21.1742 H   0  0  0  0  0  0
  -26.1099  -25.9796   19.0183 H   0  0  0  0  0  0
  -24.0000  -27.2852   19.0281 H   0  0  0  0  0  0
  -23.6975  -30.5872   19.4001 H   0  0  0  0  0  0
  -22.7328  -29.2220   19.8765 H   0  0  0  0  0  0
  -25.1259  -36.2001   25.0806 H   0  0  0  0  0  0
  -20.9922  -28.3234   24.1467 H   0  0  0  0  0  0
  -20.5639  -26.2268   23.3617 H   0  0  0  0  0  0
  -21.6626  -26.7448   22.1246 H   0  0  0  0  0  0
  -19.6908  -25.6296   21.1240 H   0  0  0  0  0  0
  -19.6697  -27.3196   20.6749 H   0  0  0  0  0  0
  -17.4187  -26.6667   21.4001 H   0  0  0  0  0  0
  -18.0317  -26.0087   22.9013 H   0  0  0  0  0  0
  -19.7915  -30.7227   24.2338 H   0  0  0  0  0  0
  -17.4996  -31.6274   24.5158 H   0  0  0  0  0  0
  -15.5335  -30.3000   23.7607 H   0  0  0  0  0  0
  -15.8647  -28.0825   22.7036 H   0  0  0  0  0  0
  -24.5869  -30.7054   25.7809 H   0  0  0  0  0  0
  -24.8880  -32.2852   26.4918 H   0  0  0  0  0  0
  -25.8034  -30.8866   27.0234 H   0  0  0  0  0  0
  -26.2743  -29.6832   24.1120 H   0  0  0  0  0  0
  -27.4080  -29.7263   25.4438 H   0  0  0  0  0  0
  -27.8544  -30.4397   23.9106 H   0  0  0  0  0  0
  -27.2697  -33.3560   26.2116 H   0  0  0  0  0  0
  -28.3818  -32.6841   25.0267 H   0  0  0  0  0  0
  -28.0746  -31.8345   26.5328 H   0  0  0  0  0  0
  -28.2595  -38.0099   24.7503 H   0  0  0  0  0  0
  -28.1049  -36.2614   24.6269 H   0  0  0  0  0  0
  -27.2301  -37.1462   25.8870 H   0  0  0  0  0  0
  -20.9306  -29.8730   21.6950 H   0  0  0  0  0  0
  -26.0166  -38.2874   24.1437 H   0  0  0  0  0  0
  -27.7084  -20.5540   21.2536 H   0  0  0  0  0  0
  -32.4960  -23.2536   19.3874 H   0  0  0  0  0  0
  -31.8669  -22.6913   17.8247 H   0  0  0  0  0  0
  -32.8266  -21.6292   18.8526 H   0  0  0  0  0  0
  -27.9553  -18.3466   18.7060 H   0  0  0  0  0  0
  -28.8086  -16.8476   19.0629 H   0  0  0  0  0  0
  -29.6070  -18.1226   18.1470 H   0  0  0  0  0  0
  -32.7311  -17.2041   20.2427 H   0  0  0  0  0  0
  -32.1567  -18.5695   19.3150 H   0  0  0  0  0  0
  -31.5137  -16.9724   18.9906 H   0  0  0  0  0  0
  -30.4397  -28.3312   19.5522 H   0  0  0  0  0  0
  -31.3768  -27.1125   18.6865 H   0  0  0  0  0  0
  -30.9847  -26.8973   20.3868 H   0  0  0  0  0  0
  -28.6770  -28.2286   17.7746 H   0  0  0  0  0  0
  -27.8525  -26.7162   17.3864 H   0  0  0  0  0  0
  -29.5280  -26.9497   16.9186 H   0  0  0  0  0  0
  -31.0345  -24.5593   20.3201 H   0  0  0  0  0  0
  -29.4734  -24.6636   21.0440 H   0  0  0  0  0  0
  -28.4746  -24.5948   18.6564 H   0  0  0  0  0  0
  -30.1028  -24.7867   18.0545 H   0  0  0  0  0  0
  -29.8647  -16.9286   22.5937 H   0  0  0  0  0  0
  -31.4797  -16.4056   22.2634 H   0  0  0  0  0  0
  -28.6700  -18.3710   21.0338 H   0  0  0  0  0  0
  -31.1606  -18.6144   21.5372 H   0  0  0  0  0  0
  -29.0466  -15.1929   21.3944 H   0  0  0  0  0  0
  1 25  1  0  0  0
  1 30  2  0  0  0
  1 88  1  0  0  0
  2  3  1  0  0  0
  2 25  1  0  0  0
  2 89  1  0  0  0
  2 90  1  0  0  0
  3  4  1  0  0  0
  3 91  1  0  0  0
  3 92  1  0  0  0
  4  5  1  0  0  0
  4 93  1  0  0  0
  4 94  1  0  0  0
  5  6  1  0  0  0
  5 26  1  0  0  0
  5 95  1  0  0  0
  6 25  1  0  0  0
  6 96  1  0  0  0
  6 97  1  0  0  0
  7  8  2  0  0  0
  7 26  1  0  0  0
  7 29  1  0  0  0
  8  9  1  0  0  0
  8 22  1  0  0  0
  9 10  1  0  0  0
  9 27  2  0  0  0
 10 11  2  0  0  0
 10 15  1  0  0  0
 11 12  1  0  0  0
 11 98  1  0  0  0
 12 13  2  0  0  0
 12 99  1  0  0  0
 13 14  1  0  0  0
 13 31  1  0  0  0
 14 15  2  0  0  0
 14100  1  0  0  0
 15101  1  0  0  0
 16 17  2  0  0  0
 16 21  1  0  0  0
 16 31  1  0  0  0
 17 18  1  0  0  0
 17102  1  0  0  0
 18 19  2  0  0  0
 18103  1  0  0  0
 19 20  1  0  0  0
 19 24  1  0  0  0
 20 21  2  0  0  0
 20104  1  0  0  0
 21 23  1  0  0  0
 22 28  1  0  0  0
 22 32  2  0  0  0
 26 27  1  0  0  0
 28105  1  0  0  0
 28106  1  0  0  0
 29107  1  0  0  0
 29108  1  0  0  0
 33 34  1  0  0  0
 33 66  1  0  0  0
 33 70  2  0  0  0
 34 36  1  0  0  0
 34 59  1  0  0  0
 34109  1  0  0  0
 35 44  2  0  0  0
 35 45  1  0  0  0
 35 68  1  0  0  0
 36 56  1  0  0  0
 36110  1  0  0  0
 37 39  1  0  0  0
 37 47  1  0  0  0
 37 66  1  0  0  0
 37111  1  0  0  0
 38 43  2  0  0  0
 38 46  1  0  0  0
 38 47  1  0  0  0
 39 64  1  0  0  0
 39 67  2  0  0  0
 40 52  1  0  0  0
 40 53  2  0  0  0
 40 58  1  0  0  0
 41112  1  0  0  0
 41113  1  0  0  0
 41114  1  0  0  0
 41 48  1  0  0  0
 42 43  1  0  0  0
 42 66  1  0  0  0
 42115  1  0  0  0
 42116  1  0  0  0
 43 44  1  0  0  0
 44117  1  0  0  0
 45 46  2  0  0  0
 45118  1  0  0  0
 46119  1  0  0  0
 47120  1  0  0  0
 47121  1  0  0  0
 48 56  1  0  0  0
 48 65  1  0  0  0
 48122  1  0  0  0
 49 50  1  0  0  0
 49 53  1  0  0  0
 49 64  1  0  0  0
 49123  1  0  0  0
 50 51  1  0  0  0
 50124  1  0  0  0
 50125  1  0  0  0
 51 52  1  0  0  0
 51126  1  0  0  0
 51127  1  0  0  0
 52128  1  0  0  0
 52129  1  0  0  0
 53 54  1  0  0  0
 54 55  2  0  0  0
 54130  1  0  0  0
 55 57  1  0  0  0
 55131  1  0  0  0
 56 69  2  0  0  0
 57 58  2  0  0  0
 57132  1  0  0  0
 58133  1  0  0  0
 59 60  1  0  0  0
 59 61  1  0  0  0
 59 62  1  0  0  0
 60134  1  0  0  0
 60135  1  0  0  0
 60136  1  0  0  0
 61137  1  0  0  0
 61138  1  0  0  0
 61139  1  0  0  0
 62140  1  0  0  0
 62141  1  0  0  0
 62142  1  0  0  0
 63 65  1  0  0  0
 63143  1  0  0  0
 63144  1  0  0  0
 63145  1  0  0  0
 64146  1  0  0  0
 65147  1  0  0  0
 68 85  1  0  0  0
 71 72  2  0  0  0
 71 86  1  0  0  0
 71148  1  0  0  0
 72 83  1  0  0  0
 72 87  1  0  0  0
 73 74  1  0  0  0
 73 75  1  0  0  0
 73 87  2  0  0  0
 74 80  1  0  0  0
 74 86  2  0  0  0
 75149  1  0  0  0
 75150  1  0  0  0
 75151  1  0  0  0
 76152  1  0  0  0
 76153  1  0  0  0
 76154  1  0  0  0
 76 83  1  0  0  0
 77155  1  0  0  0
 77156  1  0  0  0
 77157  1  0  0  0
 77 84  1  0  0  0
 78158  1  0  0  0
 78159  1  0  0  0
 78160  1  0  0  0
 78 85  1  0  0  0
 79 85  1  0  0  0
 79161  1  0  0  0
 79162  1  0  0  0
 79163  1  0  0  0
 80 81  1  0  0  0
 80164  1  0  0  0
 80165  1  0  0  0
 81 85  1  0  0  0
 81166  1  0  0  0
 81167  1  0  0  0
 82 84  1  0  0  0
 82 88  1  0  0  0
 82168  1  0  0  0
 82169  1  0  0  0
 83 84  1  0  0  0
 83170  1  0  0  0
 84171  1  0  0  0
 88172  1  0  0  0
M  ISO  4   1 100  68 101  85 101  88 100
M  END
> <chiral flag>
0

> <version>
0

> <s_m_source_file>
/data/baiqing/PycharmProjects/Reinvent-master-3.2/result/LINK_invent/BTK/process_docking_weight1_custom_sum_contain_oxygen_bond_distance_aromatic_linkinvent_7_9_3/rearranged_h_0076.sdf

> <i_m_source_file_index>
44

> <r_mmod_Potential_Energy-OPLS-2005>
-26.145637512207

> <r_mmod_Stretch_Energy-OPLS-2005>
38.0561447143555

> <r_mmod_Bend_Energy-OPLS-2005>
122.564125061035

> <r_mmod_Torsional_Energy-OPLS-2005>
232.604476928711

> <r_mmod_Improper_Torsional_Energy-OPLS-2005>
3.19680976867676

> <r_mmod_Van_der_Waal_Energy-OPLS-2005>
155.044509887695

> <r_mmod_Electrostatic_Energy-OPLS-2005>
-380.040985107422

> <r_mmod_Solvation_Energy-OPLS-2005>
-211.143478393555

> <b_mmod_Minimization_Converged-OPLS-2005>
0

> <r_mmod_RMS_Derivative-OPLS-2005>
4.31071901321411

$$$$
44
                    3D
 Structure written by MMmdl.
172180  0  0  1  0            999 V2000
  -30.6673  -14.6203   20.4528 C   0  0  0  0  0  0
  -30.4180  -12.3718   19.4627 C   0  0  0  0  0  0
  -29.5031  -12.4860   18.2259 C   0  0  0  0  0  0
  -28.0255  -12.3361   18.6369 C   0  0  0  0  0  0
  -27.6454  -13.2254   19.8524 C   0  0  2  0  0  0
  -28.6889  -13.1267   20.9872 C   0  0  0  0  0  0
  -25.2521  -13.8202   20.5681 C   0  0  0  0  0  0
  -24.1809  -13.0448   20.9202 C   0  0  0  0  0  0
  -24.6398  -11.6923   20.8755 C   0  0  0  0  0  0
  -23.9080  -10.4299   21.0419 C   0  0  0  0  0  0
  -24.3627   -9.4212   21.9199 C   0  0  0  0  0  0
  -23.6295   -8.2248   22.0768 C   0  0  0  0  0  0
  -22.4279   -8.0291   21.3552 C   0  0  0  0  0  0
  -21.9922   -9.0269   20.4656 C   0  0  0  0  0  0
  -22.7255  -10.2143   20.3068 C   0  0  0  0  0  0
  -21.6852   -6.0745   22.5285 C   0  0  0  0  0  0
  -21.4012   -6.5646   23.8220 C   0  0  0  0  0  0
  -21.3656   -5.6795   24.9182 C   0  0  0  0  0  0
  -21.6042   -4.3058   24.7226 C   0  0  0  0  0  0
  -21.8820   -3.8154   23.4347 C   0  0  0  0  0  0
  -21.9191   -4.6974   22.3405 C   0  0  0  0  0  0
  -22.7831  -13.5232   21.1854 C   0  0  0  0  0  0
  -22.1657   -4.2160   21.0980 F   0  0  0  0  0  0
  -21.5628   -3.4540   25.7739 F   0  0  0  0  0  0
  -30.0026  -13.4264   20.4087 N   0  0  0  0  0  0
  -26.2952  -12.9397   20.3287 N   0  0  0  0  0  0
  -25.9324  -11.6545   20.5762 N   0  0  0  0  0  0
  -22.0464  -12.8228   22.0405 N   0  0  0  0  0  0
  -25.4203  -15.1928   20.4093 N   0  0  0  0  0  0
  -31.8634  -14.6825   20.1631 O   0  0  0  0  0  0
  -21.6637   -6.8890   21.4247 O   0  0  0  0  0  0
  -22.3515  -14.5537   20.6697 O   0  0  0  0  0  0
  -24.6242  -31.8610   23.2048 C   0  0  0  0  0  0
  -25.9097  -32.4790   23.8376 C   0  0  1  0  0  0
  -27.2139  -27.3363   20.1232 C   0  0  0  0  0  0
  -25.5911  -33.8590   24.2296 N   0  0  0  0  0  0
  -23.4175  -30.4853   21.5468 C   0  0  2  0  0  0
  -24.8631  -28.9441   20.1105 C   0  0  0  0  0  0
  -22.7468  -29.4629   22.4942 C   0  0  0  0  0  0
  -18.0278  -28.1383   22.8483 C   0  0  0  0  0  0
  -24.1477  -36.7300   23.2641 C   0  0  0  0  0  0
  -25.9567  -30.7982   21.3734 C   0  0  0  0  0  0
  -26.0316  -29.4271   20.7155 C   0  0  0  0  0  0
  -27.2146  -28.6338   20.7130 C   0  0  0  0  0  0
  -26.0332  -26.9055   19.4829 C   0  0  0  0  0  0
  -24.8640  -27.6871   19.4850 C   0  0  0  0  0  0
  -23.6319  -29.8232   20.1606 C   0  0  0  0  0  0
  -25.4103  -36.3091   24.0332 C   0  0  1  0  0  0
  -20.5879  -28.3692   23.1280 C   0  0  2  0  0  0
  -20.6767  -26.9419   22.5401 C   0  0  0  0  0  0
  -19.5744  -26.6390   21.5200 C   0  0  0  0  0  0
  -18.1925  -26.7929   22.1619 C   0  0  0  0  0  0
  -19.1531  -28.8852   23.2878 C   0  0  0  0  0  0
  -18.9463  -30.1450   23.8901 C   0  0  0  0  0  0
  -17.6465  -30.6590   24.0558 C   0  0  0  0  0  0
  -25.9042  -34.9457   23.5117 C   0  0  0  0  0  0
  -16.5354  -29.9092   23.6329 C   0  0  0  0  0  0
  -16.7268  -28.6501   23.0360 C   0  0  0  0  0  0
  -26.4493  -31.6597   25.0741 C   0  0  0  0  0  0
  -25.3730  -31.3712   26.1467 C   0  0  0  0  0  0
  -27.0367  -30.3033   24.6193 C   0  0  0  0  0  0
  -27.6049  -32.4341   25.7509 C   0  0  0  0  0  0
  -27.5579  -37.1802   24.8465 C   0  0  0  0  0  0
  -21.4183  -29.3048   22.3678 N   0  0  0  0  0  0
  -26.4284  -37.3786   23.9415 N   0  0  0  0  0  0
  -24.6851  -31.0640   22.0992 N   0  0  0  0  0  0
  -23.4191  -28.8163   23.3019 O   0  0  0  0  0  0
  -28.3045  -26.4662   20.1649 O   0  0  0  0  0  0
  -26.5621  -34.8922   22.4691 O   0  0  0  0  0  0
  -23.5406  -32.1406   23.7376 O   0  0  0  0  0  0
  -30.7437  -19.4281   20.9617 C   0  0  0  0  0  0
  -30.3191  -20.7720   21.1450 C   0  0  0  0  0  0
  -29.8503  -18.4682   20.4253 C   0  0  0  0  0  0
  -28.9909  -21.1182   20.7750 C   0  0  0  0  0  0
  -35.0453  -25.0846   20.6385 C   0  0  0  0  0  0
  -30.9992  -18.1814   17.6453 C   0  0  0  0  0  0
  -31.3005  -21.7840   21.7156 C   0  0  0  0  0  0
  -28.3466  -22.5214   21.0646 C   0  0  0  0  0  0
  -34.1080  -23.9975   20.1016 C   0  0  0  0  0  0
  -30.3339  -17.0016   18.3745 C   0  0  0  0  0  0
  -32.2603  -22.3244   20.6450 C   0  0  0  0  0  0
  -28.7287  -23.8291   20.2450 C   0  0  0  0  0  0
  -33.1877  -23.4212   21.1876 C   0  0  0  0  0  0
  -28.0387  -25.1522   20.7854 C   0  0  0  0  0  0
  -30.3931  -17.0788   19.9246 C   0  0  2  0  0  0
  -28.5769  -18.8550   20.1198 N   0  0  0  0  0  0
  -28.1683  -20.1377   20.2873 N   0  0  0  0  0  0
  -29.9249  -15.7715   20.5084 N   0  0  0  0  0  0
  -31.4642  -12.4618   19.1646 H   0  0  0  0  0  0
  -30.3227  -11.3884   19.9261 H   0  0  0  0  0  0
  -29.7648  -11.7241   17.4901 H   0  0  0  0  0  0
  -29.6561  -13.4500   17.7385 H   0  0  0  0  0  0
  -27.8600  -11.2859   18.8814 H   0  0  0  0  0  0
  -27.3742  -12.5555   17.7898 H   0  0  0  0  0  0
  -27.6514  -14.2525   19.4870 H   0  0  0  0  0  0
  -28.6898  -12.1291   21.4287 H   0  0  0  0  0  0
  -28.4504  -13.8209   21.7945 H   0  0  0  0  0  0
  -25.2775   -9.5681   22.4776 H   0  0  0  0  0  0
  -24.0001   -7.4642   22.7493 H   0  0  0  0  0  0
  -21.0854   -8.8803   19.8957 H   0  0  0  0  0  0
  -22.3733  -10.9689   19.6175 H   0  0  0  0  0  0
  -21.2005   -7.6156   23.9725 H   0  0  0  0  0  0
  -21.1473   -6.0525   25.9082 H   0  0  0  0  0  0
  -22.0600   -2.7617   23.2846 H   0  0  0  0  0  0
  -22.4061  -11.9882   22.4792 H   0  0  0  0  0  0
  -21.1089  -13.1273   22.2602 H   0  0  0  0  0  0
  -24.6523  -15.8456   20.5252 H   0  0  0  0  0  0
  -26.2661  -15.6384   20.0776 H   0  0  0  0  0  0
  -26.7168  -32.5465   23.1129 H   0  0  0  0  0  0
  -25.0034  -33.9735   25.0423 H   0  0  0  0  0  0
  -22.7103  -31.3052   21.4057 H   0  0  0  0  0  0
  -23.3745  -35.9627   23.3291 H   0  0  0  0  0  0
  -24.3569  -36.8944   22.2061 H   0  0  0  0  0  0
  -23.7219  -37.6490   23.6679 H   0  0  0  0  0  0
  -26.0851  -31.5628   20.6056 H   0  0  0  0  0  0
  -26.8379  -30.8471   22.0018 H   0  0  0  0  0  0
  -28.1112  -28.9949   21.1984 H   0  0  0  0  0  0
  -26.0063  -25.9407   18.9967 H   0  0  0  0  0  0
  -23.9692  -27.3120   19.0071 H   0  0  0  0  0  0
  -23.7527  -30.6017   19.4062 H   0  0  0  0  0  0
  -22.7521  -29.2536   19.8575 H   0  0  0  0  0  0
  -25.1278  -36.1950   25.0824 H   0  0  0  0  0  0
  -20.9968  -28.3266   24.1401 H   0  0  0  0  0  0
  -20.5661  -26.2307   23.3599 H   0  0  0  0  0  0
  -21.6638  -26.7446   22.1203 H   0  0  0  0  0  0
  -19.6909  -25.6302   21.1233 H   0  0  0  0  0  0
  -19.6676  -27.3191   20.6720 H   0  0  0  0  0  0
  -17.4195  -26.6666   21.4022 H   0  0  0  0  0  0
  -18.0331  -26.0064   22.9009 H   0  0  0  0  0  0
  -19.7939  -30.7251   24.2284 H   0  0  0  0  0  0
  -17.5030  -31.6271   24.5164 H   0  0  0  0  0  0
  -15.5358  -30.3004   23.7651 H   0  0  0  0  0  0
  -15.8661  -28.0819   22.7098 H   0  0  0  0  0  0
  -24.5898  -30.7078   25.7782 H   0  0  0  0  0  0
  -24.8924  -32.2868   26.4923 H   0  0  0  0  0  0
  -25.8054  -30.8859   27.0225 H   0  0  0  0  0  0
  -26.2962  -29.6752   24.1228 H   0  0  0  0  0  0
  -27.4102  -29.7315   25.4699 H   0  0  0  0  0  0
  -27.8801  -30.4347   23.9410 H   0  0  0  0  0  0
  -27.2667  -33.3647   26.2075 H   0  0  0  0  0  0
  -28.3857  -32.6893   25.0335 H   0  0  0  0  0  0
  -28.0719  -31.8478   26.5432 H   0  0  0  0  0  0
  -28.2579  -38.0119   24.7548 H   0  0  0  0  0  0
  -28.1096  -36.2653   24.6246 H   0  0  0  0  0  0
  -27.2303  -37.1401   25.8869 H   0  0  0  0  0  0
  -20.9363  -29.8788   21.6900 H   0  0  0  0  0  0
  -26.0166  -38.2860   24.1431 H   0  0  0  0  0  0
  -31.7641  -19.1505   21.1833 H   0  0  0  0  0  0
  -35.6928  -25.4641   19.8473 H   0  0  0  0  0  0
  -35.6858  -24.6989   21.4328 H   0  0  0  0  0  0
  -34.4835  -25.9291   21.0401 H   0  0  0  0  0  0
  -30.9896  -18.0225   16.5666 H   0  0  0  0  0  0
  -32.0387  -18.3005   17.9525 H   0  0  0  0  0  0
  -30.4822  -19.1222   17.8372 H   0  0  0  0  0  0
  -31.8700  -21.3051   22.5128 H   0  0  0  0  0  0
  -30.7692  -22.6061   22.1921 H   0  0  0  0  0  0
  -28.5109  -22.7246   22.1226 H   0  0  0  0  0  0
  -27.2663  -22.3952   20.9880 H   0  0  0  0  0  0
  -34.7028  -23.1949   19.6629 H   0  0  0  0  0  0
  -33.5066  -24.4132   19.2917 H   0  0  0  0  0  0
  -30.8061  -16.0836   18.0236 H   0  0  0  0  0  0
  -29.2920  -16.9407   18.0579 H   0  0  0  0  0  0
  -31.6866  -22.7235   19.8083 H   0  0  0  0  0  0
  -32.8563  -21.5050   20.2402 H   0  0  0  0  0  0
  -28.4624  -23.6832   19.1982 H   0  0  0  0  0  0
  -29.8073  -23.9722   20.2695 H   0  0  0  0  0  0
  -32.5883  -24.2249   21.6190 H   0  0  0  0  0  0
  -33.7897  -23.0144   22.0017 H   0  0  0  0  0  0
  -28.3253  -25.2634   21.8315 H   0  0  0  0  0  0
  -26.9687  -24.9489   20.8285 H   0  0  0  0  0  0
  -31.4542  -17.1285   20.1733 H   0  0  0  0  0  0
  -28.9434  -15.6928   20.7235 H   0  0  0  0  0  0
  1 25  1  0  0  0
  1 30  2  0  0  0
  1 88  1  0  0  0
  2  3  1  0  0  0
  2 25  1  0  0  0
  2 89  1  0  0  0
  2 90  1  0  0  0
  3  4  1  0  0  0
  3 91  1  0  0  0
  3 92  1  0  0  0
  4  5  1  0  0  0
  4 93  1  0  0  0
  4 94  1  0  0  0
  5  6  1  0  0  0
  5 26  1  0  0  0
  5 95  1  0  0  0
  6 25  1  0  0  0
  6 96  1  0  0  0
  6 97  1  0  0  0
  7  8  2  0  0  0
  7 26  1  0  0  0
  7 29  1  0  0  0
  8  9  1  0  0  0
  8 22  1  0  0  0
  9 10  1  0  0  0
  9 27  2  0  0  0
 10 11  2  0  0  0
 10 15  1  0  0  0
 11 12  1  0  0  0
 11 98  1  0  0  0
 12 13  2  0  0  0
 12 99  1  0  0  0
 13 14  1  0  0  0
 13 31  1  0  0  0
 14 15  2  0  0  0
 14100  1  0  0  0
 15101  1  0  0  0
 16 17  2  0  0  0
 16 21  1  0  0  0
 16 31  1  0  0  0
 17 18  1  0  0  0
 17102  1  0  0  0
 18 19  2  0  0  0
 18103  1  0  0  0
 19 20  1  0  0  0
 19 24  1  0  0  0
 20 21  2  0  0  0
 20104  1  0  0  0
 21 23  1  0  0  0
 22 28  1  0  0  0
 22 32  2  0  0  0
 26 27  1  0  0  0
 28105  1  0  0  0
 28106  1  0  0  0
 29107  1  0  0  0
 29108  1  0  0  0
 33 34  1  0  0  0
 33 66  1  0  0  0
 33 70  2  0  0  0
 34 36  1  0  0  0
 34 59  1  0  0  0
 34109  1  0  0  0
 35 44  2  0  0  0
 35 45  1  0  0  0
 35 68  1  0  0  0
 36 56  1  0  0  0
 36110  1  0  0  0
 37 39  1  0  0  0
 37 47  1  0  0  0
 37 66  1  0  0  0
 37111  1  0  0  0
 38 43  2  0  0  0
 38 46  1  0  0  0
 38 47  1  0  0  0
 39 64  1  0  0  0
 39 67  2  0  0  0
 40 52  1  0  0  0
 40 53  2  0  0  0
 40 58  1  0  0  0
 41112  1  0  0  0
 41113  1  0  0  0
 41114  1  0  0  0
 41 48  1  0  0  0
 42 43  1  0  0  0
 42 66  1  0  0  0
 42115  1  0  0  0
 42116  1  0  0  0
 43 44  1  0  0  0
 44117  1  0  0  0
 45 46  2  0  0  0
 45118  1  0  0  0
 46119  1  0  0  0
 47120  1  0  0  0
 47121  1  0  0  0
 48 56  1  0  0  0
 48 65  1  0  0  0
 48122  1  0  0  0
 49 50  1  0  0  0
 49 53  1  0  0  0
 49 64  1  0  0  0
 49123  1  0  0  0
 50 51  1  0  0  0
 50124  1  0  0  0
 50125  1  0  0  0
 51 52  1  0  0  0
 51126  1  0  0  0
 51127  1  0  0  0
 52128  1  0  0  0
 52129  1  0  0  0
 53 54  1  0  0  0
 54 55  2  0  0  0
 54130  1  0  0  0
 55 57  1  0  0  0
 55131  1  0  0  0
 56 69  2  0  0  0
 57 58  2  0  0  0
 57132  1  0  0  0
 58133  1  0  0  0
 59 60  1  0  0  0
 59 61  1  0  0  0
 59 62  1  0  0  0
 60134  1  0  0  0
 60135  1  0  0  0
 60136  1  0  0  0
 61137  1  0  0  0
 61138  1  0  0  0
 61139  1  0  0  0
 62140  1  0  0  0
 62141  1  0  0  0
 62142  1  0  0  0
 63 65  1  0  0  0
 63143  1  0  0  0
 63144  1  0  0  0
 63145  1  0  0  0
 64146  1  0  0  0
 65147  1  0  0  0
 68 84  1  0  0  0
 71 72  2  0  0  0
 71 73  1  0  0  0
 71148  1  0  0  0
 72 74  1  0  0  0
 72 77  1  0  0  0
 73 85  1  0  0  0
 73 86  2  0  0  0
 74 78  1  0  0  0
 74 87  2  0  0  0
 75 79  1  0  0  0
 75149  1  0  0  0
 75150  1  0  0  0
 75151  1  0  0  0
 76 80  1  0  0  0
 76152  1  0  0  0
 76153  1  0  0  0
 76154  1  0  0  0
 77 81  1  0  0  0
 77155  1  0  0  0
 77156  1  0  0  0
 78 82  1  0  0  0
 78157  1  0  0  0
 78158  1  0  0  0
 79 83  1  0  0  0
 79159  1  0  0  0
 79160  1  0  0  0
 80161  1  0  0  0
 80162  1  0  0  0
 80 85  1  0  0  0
 81 83  1  0  0  0
 81163  1  0  0  0
 81164  1  0  0  0
 82 84  1  0  0  0
 82165  1  0  0  0
 82166  1  0  0  0
 83167  1  0  0  0
 83168  1  0  0  0
 84169  1  0  0  0
 84170  1  0  0  0
 85 88  1  0  0  0
 85171  1  0  0  0
 86 87  1  0  0  0
 88172  1  0  0  0
M  ISO  4   1 100  68 101  84 101  88 100
M  END
> <chiral flag>
0

> <version>
0

> <s_m_source_file>
/data/baiqing/PycharmProjects/Reinvent-master-3.2/result/LINK_invent/BTK/process_docking_weight1_custom_sum_contain_oxygen_bond_distance_aromatic_linkinvent_7_9_3/rearranged_h_0076.sdf

> <i_m_source_file_index>
45

> <r_mmod_Potential_Energy-OPLS-2005>
28.7574424743652

> <r_mmod_Stretch_Energy-OPLS-2005>
75.4082489013672

> <r_mmod_Bend_Energy-OPLS-2005>
142.298553466797

> <r_mmod_Torsional_Energy-OPLS-2005>
226.757461547852

> <r_mmod_Improper_Torsional_Energy-OPLS-2005>
10.6586923599243

> <r_mmod_Van_der_Waal_Energy-OPLS-2005>
140.006057739258

> <r_mmod_Electrostatic_Energy-OPLS-2005>
-402.0625

> <r_mmod_Solvation_Energy-OPLS-2005>
-213.699722290039

> <b_mmod_Minimization_Converged-OPLS-2005>
0

> <r_mmod_RMS_Derivative-OPLS-2005>
1.07227027416229

$$$$
45
                    3D
 Structure written by MMmdl.
166174  0  0  1  0            999 V2000
  -30.7081  -14.4209   20.5850 C   0  0  0  0  0  0
  -30.4194  -12.2751   19.4166 C   0  0  0  0  0  0
  -29.4968  -12.5096   18.2034 C   0  0  0  0  0  0
  -28.0109  -12.3926   18.6030 C   0  0  0  0  0  0
  -27.6657  -13.2069   19.8809 C   0  0  2  0  0  0
  -28.7038  -12.9535   20.9987 C   0  0  0  0  0  0
  -25.2641  -13.8174   20.5718 C   0  0  0  0  0  0
  -24.1895  -13.0450   20.9178 C   0  0  0  0  0  0
  -24.6421  -11.6909   20.8703 C   0  0  0  0  0  0
  -23.9075  -10.4305   21.0380 C   0  0  0  0  0  0
  -24.3625   -9.4223   21.9159 C   0  0  0  0  0  0
  -23.6305   -8.2253   22.0729 C   0  0  0  0  0  0
  -22.4287   -8.0267   21.3528 C   0  0  0  0  0  0
  -21.9917   -9.0245   20.4633 C   0  0  0  0  0  0
  -22.7237  -10.2136   20.3041 C   0  0  0  0  0  0
  -21.6860   -6.0749   22.5283 C   0  0  0  0  0  0
  -21.4016   -6.5654   23.8208 C   0  0  0  0  0  0
  -21.3672   -5.6800   24.9178 C   0  0  0  0  0  0
  -21.6047   -4.3060   24.7230 C   0  0  0  0  0  0
  -21.8823   -3.8165   23.4350 C   0  0  0  0  0  0
  -21.9204   -4.6985   22.3405 C   0  0  0  0  0  0
  -22.7917  -13.5241   21.1853 C   0  0  0  0  0  0
  -22.1674   -4.2177   21.0980 F   0  0  0  0  0  0
  -21.5627   -3.4539   25.7748 F   0  0  0  0  0  0
  -30.0396  -13.2474   20.4511 N   0  0  0  0  0  0
  -26.3056  -12.9325   20.3386 N   0  0  0  0  0  0
  -25.9343  -11.6478   20.5752 N   0  0  0  0  0  0
  -22.0578  -12.8185   22.0388 N   0  0  0  0  0  0
  -25.4405  -15.1887   20.4153 N   0  0  0  0  0  0
  -31.8146  -14.6331   20.0798 O   0  0  0  0  0  0
  -21.6643   -6.8879   21.4236 O   0  0  0  0  0  0
  -22.3580  -14.5538   20.6707 O   0  0  0  0  0  0
  -24.6100  -31.8713   23.2148 C   0  0  0  0  0  0
  -25.9009  -32.4829   23.8412 C   0  0  1  0  0  0
  -27.2391  -27.4806   20.0832 C   0  0  0  0  0  0
  -25.5903  -33.8628   24.2346 N   0  0  0  0  0  0
  -23.3944  -30.4935   21.5562 C   0  0  2  0  0  0
  -24.8399  -28.9564   20.1276 C   0  0  0  0  0  0
  -22.7379  -29.4660   22.5062 C   0  0  0  0  0  0
  -18.0262  -28.1392   22.8496 C   0  0  0  0  0  0
  -24.1487  -36.7328   23.2626 C   0  0  0  0  0  0
  -25.9176  -30.8446   21.3615 C   0  0  0  0  0  0
  -25.9940  -29.4765   20.7265 C   0  0  0  0  0  0
  -27.1939  -28.7386   20.7212 C   0  0  0  0  0  0
  -26.0754  -26.9632   19.4847 C   0  0  0  0  0  0
  -24.8704  -27.6903   19.5163 C   0  0  0  0  0  0
  -23.5994  -29.8200   20.1718 C   0  0  0  0  0  0
  -25.4095  -36.3120   24.0343 C   0  0  1  0  0  0
  -20.5854  -28.3643   23.1357 C   0  0  2  0  0  0
  -20.6759  -26.9380   22.5443 C   0  0  0  0  0  0
  -19.5735  -26.6389   21.5245 C   0  0  0  0  0  0
  -18.1910  -26.7946   22.1638 C   0  0  0  0  0  0
  -19.1514  -28.8830   23.2931 C   0  0  0  0  0  0
  -18.9449  -30.1454   23.8904 C   0  0  0  0  0  0
  -17.6456  -30.6593   24.0566 C   0  0  0  0  0  0
  -25.9034  -34.9477   23.5134 C   0  0  0  0  0  0
  -16.5340  -29.9093   23.6335 C   0  0  0  0  0  0
  -16.7254  -28.6525   23.0323 C   0  0  0  0  0  0
  -26.4467  -31.6600   25.0717 C   0  0  0  0  0  0
  -25.3758  -31.3711   26.1486 C   0  0  0  0  0  0
  -27.0292  -30.3047   24.6055 C   0  0  0  0  0  0
  -27.6069  -32.4299   25.7463 C   0  0  0  0  0  0
  -27.5602  -37.1780   24.8439 C   0  0  0  0  0  0
  -21.4116  -29.3020   22.3785 N   0  0  0  0  0  0
  -26.4273  -37.3820   23.9459 N   0  0  0  0  0  0
  -24.6589  -31.0843   22.1031 N   0  0  0  0  0  0
  -23.4168  -28.8192   23.3081 O   0  0  0  0  0  0
  -28.4044  -26.7756   19.9466 O   0  0  0  0  0  0
  -26.5604  -34.8912   22.4698 O   0  0  0  0  0  0
  -23.5301  -32.1446   23.7574 O   0  0  0  0  0  0
  -29.7089  -21.9252   21.1420 C   0  0  0  0  0  0
  -27.3857  -20.8011   21.9714 C   0  0  0  0  0  0
  -28.4882  -22.6475   21.1304 C   0  0  0  0  0  0
  -28.5996  -20.0580   21.9355 C   0  0  0  0  0  0
  -31.0229  -22.5332   20.6941 C   0  0  0  0  0  0
  -26.0664  -20.2100   22.4321 C   0  0  0  0  0  0
  -29.5543  -18.3650   23.5543 C   0  0  0  0  0  0
  -28.3973  -24.0661   20.5989 C   0  0  0  0  0  0
  -28.5275  -25.1384   21.6943 C   0  0  0  0  0  0
  -29.0926  -17.7222   21.0374 C   0  0  0  0  0  0
  -30.3540  -16.8246   21.1047 C   0  0  0  0  0  0
  -29.1034  -26.4459   21.1368 C   0  0  0  0  0  0
  -28.7003  -18.5697   22.2866 C   0  0  2  0  0  0
  -27.3334  -22.0938   21.5660 N   0  0  0  0  0  0
  -29.7634  -20.6363   21.5460 N   0  0  0  0  0  0
  -30.0164  -15.4010   21.1849 N   0  0  0  0  0  0
  -31.4661  -12.3600   19.1207 H   0  0  0  0  0  0
  -30.2994  -11.2601   19.8009 H   0  0  0  0  0  0
  -29.7230  -11.7965   17.4100 H   0  0  0  0  0  0
  -29.6916  -13.4990   17.7871 H   0  0  0  0  0  0
  -27.7812  -11.3370   18.7525 H   0  0  0  0  0  0
  -27.3821  -12.7228   17.7749 H   0  0  0  0  0  0
  -27.7176  -14.2629   19.6098 H   0  0  0  0  0  0
  -28.6716  -11.9110   21.3167 H   0  0  0  0  0  0
  -28.4699  -13.5339   21.8920 H   0  0  0  0  0  0
  -25.2786   -9.5713   22.4714 H   0  0  0  0  0  0
  -24.0056   -7.4650   22.7410 H   0  0  0  0  0  0
  -21.0864   -8.8732   19.8922 H   0  0  0  0  0  0
  -22.3678  -10.9656   19.6142 H   0  0  0  0  0  0
  -21.1985   -7.6160   23.9727 H   0  0  0  0  0  0
  -21.1490   -6.0526   25.9074 H   0  0  0  0  0  0
  -22.0591   -2.7627   23.2836 H   0  0  0  0  0  0
  -22.4226  -11.9854   22.4767 H   0  0  0  0  0  0
  -21.1183  -13.1154   22.2598 H   0  0  0  0  0  0
  -24.6771  -15.8471   20.5189 H   0  0  0  0  0  0
  -26.2951  -15.6219   20.0877 H   0  0  0  0  0  0
  -26.7063  -32.5562   23.1170 H   0  0  0  0  0  0
  -25.0070  -33.9799   25.0490 H   0  0  0  0  0  0
  -22.6839  -31.3111   21.4182 H   0  0  0  0  0  0
  -23.3766  -35.9642   23.3238 H   0  0  0  0  0  0
  -24.3601  -36.8996   22.2054 H   0  0  0  0  0  0
  -23.7206  -37.6499   23.6668 H   0  0  0  0  0  0
  -26.0180  -31.6004   20.5810 H   0  0  0  0  0  0
  -26.8089  -30.9087   21.9723 H   0  0  0  0  0  0
  -28.0869  -29.1522   21.1674 H   0  0  0  0  0  0
  -26.1052  -26.0045   18.9865 H   0  0  0  0  0  0
  -23.9813  -27.2835   19.0554 H   0  0  0  0  0  0
  -23.7011  -30.5909   19.4077 H   0  0  0  0  0  0
  -22.7247  -29.2366   19.8774 H   0  0  0  0  0  0
  -25.1252  -36.1982   25.0835 H   0  0  0  0  0  0
  -20.9940  -28.3185   24.1485 H   0  0  0  0  0  0
  -20.5727  -26.2210   23.3606 H   0  0  0  0  0  0
  -21.6613  -26.7483   22.1188 H   0  0  0  0  0  0
  -19.6901  -25.6325   21.1218 H   0  0  0  0  0  0
  -19.6684  -27.3228   20.6811 H   0  0  0  0  0  0
  -17.4195  -26.6707   21.4021 H   0  0  0  0  0  0
  -18.0282  -26.0087   22.9026 H   0  0  0  0  0  0
  -19.7919  -30.7290   24.2236 H   0  0  0  0  0  0
  -17.5001  -31.6261   24.5197 H   0  0  0  0  0  0
  -15.5334  -30.2990   23.7697 H   0  0  0  0  0  0
  -15.8652  -28.0882   22.6997 H   0  0  0  0  0  0
  -24.5908  -30.7074   25.7843 H   0  0  0  0  0  0
  -24.8960  -32.2867   26.4948 H   0  0  0  0  0  0
  -25.8108  -30.8867   27.0233 H   0  0  0  0  0  0
  -26.2804  -29.6800   24.1154 H   0  0  0  0  0  0
  -27.4146  -29.7285   25.4486 H   0  0  0  0  0  0
  -27.8607  -30.4390   23.9127 H   0  0  0  0  0  0
  -27.2721  -33.3594   26.2069 H   0  0  0  0  0  0
  -28.3855  -32.6860   25.0271 H   0  0  0  0  0  0
  -28.0747  -31.8393   26.5345 H   0  0  0  0  0  0
  -28.2535  -38.0169   24.7653 H   0  0  0  0  0  0
  -28.1188  -36.2717   24.6041 H   0  0  0  0  0  0
  -27.2352  -37.1157   25.8839 H   0  0  0  0  0  0
  -20.9276  -29.8724   21.6987 H   0  0  0  0  0  0
  -26.0161  -38.2882   24.1542 H   0  0  0  0  0  0
  -31.1227  -23.5475   21.0814 H   0  0  0  0  0  0
  -31.0714  -22.5739   19.6063 H   0  0  0  0  0  0
  -31.8784  -21.9540   21.0464 H   0  0  0  0  0  0
  -25.6841  -19.5191   21.6817 H   0  0  0  0  0  0
  -25.3181  -20.9865   22.5939 H   0  0  0  0  0  0
  -26.1810  -19.6693   23.3724 H   0  0  0  0  0  0
  -29.1436  -18.9320   24.3879 H   0  0  0  0  0  0
  -30.5835  -18.7011   23.4151 H   0  0  0  0  0  0
  -29.5729  -17.3163   23.8508 H   0  0  0  0  0  0
  -27.4495  -24.1961   20.0741 H   0  0  0  0  0  0
  -29.1575  -24.2070   19.8311 H   0  0  0  0  0  0
  -29.1965  -24.7926   22.4847 H   0  0  0  0  0  0
  -27.5584  -25.3044   22.1658 H   0  0  0  0  0  0
  -28.2285  -17.1312   20.7282 H   0  0  0  0  0  0
  -29.2367  -18.4023   20.1939 H   0  0  0  0  0  0
  -31.0393  -17.0882   21.9079 H   0  0  0  0  0  0
  -30.9204  -17.0055   20.1890 H   0  0  0  0  0  0
  -30.1492  -26.2917   20.8678 H   0  0  0  0  0  0
  -29.0893  -27.2324   21.8921 H   0  0  0  0  0  0
  -27.7049  -18.2229   22.5572 H   0  0  0  0  0  0
  -29.1252  -15.1497   21.5856 H   0  0  0  0  0  0
  1 25  1  0  0  0
  1 30  2  0  0  0
  1 86  1  0  0  0
  2  3  1  0  0  0
  2 25  1  0  0  0
  2 87  1  0  0  0
  2 88  1  0  0  0
  3  4  1  0  0  0
  3 89  1  0  0  0
  3 90  1  0  0  0
  4  5  1  0  0  0
  4 91  1  0  0  0
  4 92  1  0  0  0
  5  6  1  0  0  0
  5 26  1  0  0  0
  5 93  1  0  0  0
  6 25  1  0  0  0
  6 94  1  0  0  0
  6 95  1  0  0  0
  7  8  2  0  0  0
  7 26  1  0  0  0
  7 29  1  0  0  0
  8  9  1  0  0  0
  8 22  1  0  0  0
  9 10  1  0  0  0
  9 27  2  0  0  0
 10 11  2  0  0  0
 10 15  1  0  0  0
 11 12  1  0  0  0
 11 96  1  0  0  0
 12 13  2  0  0  0
 12 97  1  0  0  0
 13 14  1  0  0  0
 13 31  1  0  0  0
 14 15  2  0  0  0
 14 98  1  0  0  0
 15 99  1  0  0  0
 16 17  2  0  0  0
 16 21  1  0  0  0
 16 31  1  0  0  0
 17 18  1  0  0  0
 17100  1  0  0  0
 18 19  2  0  0  0
 18101  1  0  0  0
 19 20  1  0  0  0
 19 24  1  0  0  0
 20 21  2  0  0  0
 20102  1  0  0  0
 21 23  1  0  0  0
 22 28  1  0  0  0
 22 32  2  0  0  0
 26 27  1  0  0  0
 28103  1  0  0  0
 28104  1  0  0  0
 29105  1  0  0  0
 29106  1  0  0  0
 33 34  1  0  0  0
 33 66  1  0  0  0
 33 70  2  0  0  0
 34 36  1  0  0  0
 34 59  1  0  0  0
 34107  1  0  0  0
 35 44  2  0  0  0
 35 45  1  0  0  0
 35 68  1  0  0  0
 36 56  1  0  0  0
 36108  1  0  0  0
 37 39  1  0  0  0
 37 47  1  0  0  0
 37 66  1  0  0  0
 37109  1  0  0  0
 38 43  2  0  0  0
 38 46  1  0  0  0
 38 47  1  0  0  0
 39 64  1  0  0  0
 39 67  2  0  0  0
 40 52  1  0  0  0
 40 53  2  0  0  0
 40 58  1  0  0  0
 41110  1  0  0  0
 41111  1  0  0  0
 41112  1  0  0  0
 41 48  1  0  0  0
 42 43  1  0  0  0
 42 66  1  0  0  0
 42113  1  0  0  0
 42114  1  0  0  0
 43 44  1  0  0  0
 44115  1  0  0  0
 45 46  2  0  0  0
 45116  1  0  0  0
 46117  1  0  0  0
 47118  1  0  0  0
 47119  1  0  0  0
 48 56  1  0  0  0
 48 65  1  0  0  0
 48120  1  0  0  0
 49 50  1  0  0  0
 49 53  1  0  0  0
 49 64  1  0  0  0
 49121  1  0  0  0
 50 51  1  0  0  0
 50122  1  0  0  0
 50123  1  0  0  0
 51 52  1  0  0  0
 51124  1  0  0  0
 51125  1  0  0  0
 52126  1  0  0  0
 52127  1  0  0  0
 53 54  1  0  0  0
 54 55  2  0  0  0
 54128  1  0  0  0
 55 57  1  0  0  0
 55129  1  0  0  0
 56 69  2  0  0  0
 57 58  2  0  0  0
 57130  1  0  0  0
 58131  1  0  0  0
 59 60  1  0  0  0
 59 61  1  0  0  0
 59 62  1  0  0  0
 60132  1  0  0  0
 60133  1  0  0  0
 60134  1  0  0  0
 61135  1  0  0  0
 61136  1  0  0  0
 61137  1  0  0  0
 62138  1  0  0  0
 62139  1  0  0  0
 62140  1  0  0  0
 63 65  1  0  0  0
 63141  1  0  0  0
 63142  1  0  0  0
 63143  1  0  0  0
 64144  1  0  0  0
 65145  1  0  0  0
 68 82  1  0  0  0
 71 73  2  0  0  0
 71 75  1  0  0  0
 71 85  1  0  0  0
 72 74  1  0  0  0
 72 76  1  0  0  0
 72 84  2  0  0  0
 73 78  1  0  0  0
 73 84  1  0  0  0
 74 83  1  0  0  0
 74 85  2  0  0  0
 75146  1  0  0  0
 75147  1  0  0  0
 75148  1  0  0  0
 76149  1  0  0  0
 76150  1  0  0  0
 76151  1  0  0  0
 77152  1  0  0  0
 77153  1  0  0  0
 77154  1  0  0  0
 77 83  1  0  0  0
 78 79  1  0  0  0
 78155  1  0  0  0
 78156  1  0  0  0
 79 82  1  0  0  0
 79157  1  0  0  0
 79158  1  0  0  0
 80 81  1  0  0  0
 80 83  1  0  0  0
 80159  1  0  0  0
 80160  1  0  0  0
 81 86  1  0  0  0
 81161  1  0  0  0
 81162  1  0  0  0
 82163  1  0  0  0
 82164  1  0  0  0
 83165  1  0  0  0
 86166  1  0  0  0
M  ISO  4   1 100  68 101  82 101  86 100
M  END
> <chiral flag>
0

> <version>
0

> <s_m_source_file>
/data/baiqing/PycharmProjects/Reinvent-master-3.2/result/LINK_invent/BTK/process_docking_weight1_custom_sum_contain_oxygen_bond_distance_aromatic_linkinvent_7_9_3/rearranged_h_0076.sdf

> <i_m_source_file_index>
46

> <r_mmod_Potential_Energy-OPLS-2005>
-52.516788482666

> <r_mmod_Stretch_Energy-OPLS-2005>
34.9039916992188

> <r_mmod_Bend_Energy-OPLS-2005>
101.10897064209

> <r_mmod_Torsional_Energy-OPLS-2005>
230.940505981445

> <r_mmod_Improper_Torsional_Energy-OPLS-2005>
3.83248543739319

> <r_mmod_Van_der_Waal_Energy-OPLS-2005>
164.190948486328

> <r_mmod_Electrostatic_Energy-OPLS-2005>
-378.76953125

> <r_mmod_Solvation_Energy-OPLS-2005>
-216.980178833008

> <b_mmod_Minimization_Converged-OPLS-2005>
0

> <r_mmod_RMS_Derivative-OPLS-2005>
3.7011730670929

$$$$
46
                    3D
 Structure written by MMmdl.
166174  0  0  1  0            999 V2000
  -30.6253  -14.7212   20.4511 C   0  0  0  0  0  0
  -30.4358  -12.4345   19.4740 C   0  0  0  0  0  0
  -29.5123  -12.4966   18.2360 C   0  0  0  0  0  0
  -28.0387  -12.3226   18.6520 C   0  0  0  0  0  0
  -27.6483  -13.2262   19.8526 C   0  0  2  0  0  0
  -28.6945  -13.1540   20.9895 C   0  0  0  0  0  0
  -25.2527  -13.8205   20.5667 C   0  0  0  0  0  0
  -24.1817  -13.0451   20.9201 C   0  0  0  0  0  0
  -24.6416  -11.6932   20.8754 C   0  0  0  0  0  0
  -23.9088  -10.4306   21.0418 C   0  0  0  0  0  0
  -24.3641   -9.4212   21.9181 C   0  0  0  0  0  0
  -23.6310   -8.2248   22.0746 C   0  0  0  0  0  0
  -22.4287   -8.0291   21.3546 C   0  0  0  0  0  0
  -21.9938   -9.0263   20.4652 C   0  0  0  0  0  0
  -22.7264  -10.2141   20.3064 C   0  0  0  0  0  0
  -21.6854   -6.0756   22.5289 C   0  0  0  0  0  0
  -21.4015   -6.5653   23.8226 C   0  0  0  0  0  0
  -21.3652   -5.6804   24.9184 C   0  0  0  0  0  0
  -21.6038   -4.3069   24.7230 C   0  0  0  0  0  0
  -21.8814   -3.8166   23.4346 C   0  0  0  0  0  0
  -21.9195   -4.6988   22.3410 C   0  0  0  0  0  0
  -22.7839  -13.5223   21.1867 C   0  0  0  0  0  0
  -22.1658   -4.2180   21.0983 F   0  0  0  0  0  0
  -21.5627   -3.4542   25.7734 F   0  0  0  0  0  0
  -30.0032  -13.4940   20.4128 N   0  0  0  0  0  0
  -26.2977  -12.9404   20.3295 N   0  0  0  0  0  0
  -25.9349  -11.6554   20.5766 N   0  0  0  0  0  0
  -22.0500  -12.8202   22.0436 N   0  0  0  0  0  0
  -25.4201  -15.1913   20.4021 N   0  0  0  0  0  0
  -31.8015  -14.8325   20.0986 O   0  0  0  0  0  0
  -21.6642   -6.8889   21.4240 O   0  0  0  0  0  0
  -22.3521  -14.5531   20.6712 O   0  0  0  0  0  0
  -24.6319  -31.8559   23.1984 C   0  0  0  0  0  0
  -25.9142  -32.4757   23.8338 C   0  0  1  0  0  0
  -27.2247  -27.2623   20.1257 C   0  0  0  0  0  0
  -25.5931  -33.8553   24.2262 N   0  0  0  0  0  0
  -23.4289  -30.4788   21.5423 C   0  0  2  0  0  0
  -24.8765  -28.9280   20.1100 C   0  0  0  0  0  0
  -22.7513  -29.4611   22.4918 C   0  0  0  0  0  0
  -18.0304  -28.1381   22.8488 C   0  0  0  0  0  0
  -24.1485  -36.7288   23.2644 C   0  0  0  0  0  0
  -25.9755  -30.7684   21.3794 C   0  0  0  0  0  0
  -26.0492  -29.3915   20.7190 C   0  0  0  0  0  0
  -27.2251  -28.5724   20.7155 C   0  0  0  0  0  0
  -26.0251  -26.8737   19.4807 C   0  0  0  0  0  0
  -24.8700  -27.6764   19.4790 C   0  0  0  0  0  0
  -23.6464  -29.8137   20.1591 C   0  0  0  0  0  0
  -25.4117  -36.3074   24.0330 C   0  0  1  0  0  0
  -20.5904  -28.3711   23.1270 C   0  0  2  0  0  0
  -20.6794  -26.9426   22.5431 C   0  0  0  0  0  0
  -19.5790  -26.6382   21.5217 C   0  0  0  0  0  0
  -18.1962  -26.7933   22.1612 C   0  0  0  0  0  0
  -19.1554  -28.8864   23.2876 C   0  0  0  0  0  0
  -18.9474  -30.1461   23.8898 C   0  0  0  0  0  0
  -17.6478  -30.6596   24.0565 C   0  0  0  0  0  0
  -25.9057  -34.9440   23.5105 C   0  0  0  0  0  0
  -16.5373  -29.9086   23.6333 C   0  0  0  0  0  0
  -16.7292  -28.6497   23.0362 C   0  0  0  0  0  0
  -26.4497  -31.6579   25.0732 C   0  0  0  0  0  0
  -25.3705  -31.3734   26.1446 C   0  0  0  0  0  0
  -27.0357  -30.2992   24.6232 C   0  0  0  0  0  0
  -27.6040  -32.4334   25.7505 C   0  0  0  0  0  0
  -27.5580  -37.1802   24.8469 C   0  0  0  0  0  0
  -21.4221  -29.3050   22.3660 N   0  0  0  0  0  0
  -26.4291  -37.3774   23.9401 N   0  0  0  0  0  0
  -24.6977  -31.0517   22.0964 N   0  0  0  0  0  0
  -23.4220  -28.8152   23.3013 O   0  0  0  0  0  0
  -28.3158  -26.3567   20.1947 O   0  0  0  0  0  0
  -26.5639  -34.8921   22.4677 O   0  0  0  0  0  0
  -23.5474  -32.1377   23.7284 O   0  0  0  0  0  0
  -29.5582  -20.1433   22.6401 C   0  0  0  0  0  0
  -29.5884  -19.0103   23.4046 C   0  0  0  0  0  0
  -29.7650  -18.3934   21.2504 C   0  0  0  0  0  0
  -29.5556  -18.8087   24.8840 C   0  0  0  0  0  0
  -29.2285  -17.5025   18.8930 C   0  0  0  0  0  0
  -28.1080  -22.0004   18.6744 C   0  0  0  0  0  0
  -27.3955  -21.8254   21.0383 C   0  0  0  0  0  0
  -29.0663  -23.6701   20.3492 C   0  0  0  0  0  0
  -29.7366  -20.9132   20.2631 C   0  0  0  0  0  0
  -28.0481  -24.8890   19.9829 C   0  0  0  0  0  0
  -30.0495  -17.2881   20.1734 C   0  0  2  0  0  0
  -28.6120  -22.1090   20.1296 C   0  0  0  0  0  0
  -29.6357  -19.7888   21.3113 N   0  0  0  0  0  0
  -29.7065  -17.9778   22.5207 N   0  3  0  0  0  0
  -29.8403  -15.8412   20.6512 N   0  0  0  0  0  0
  -31.4773  -12.5540   19.1681 H   0  0  0  0  0  0
  -30.3768  -11.4559   19.9532 H   0  0  0  0  0  0
  -29.7912  -11.7205   17.5215 H   0  0  0  0  0  0
  -29.6423  -13.4511   17.7227 H   0  0  0  0  0  0
  -27.8966  -11.2738   18.9180 H   0  0  0  0  0  0
  -27.3788  -12.5112   17.8041 H   0  0  0  0  0  0
  -27.6453  -14.2469   19.4701 H   0  0  0  0  0  0
  -28.7222  -12.1564   21.4320 H   0  0  0  0  0  0
  -28.4314  -13.8366   21.7994 H   0  0  0  0  0  0
  -25.2791   -9.5674   22.4749 H   0  0  0  0  0  0
  -24.0027   -7.4633   22.7457 H   0  0  0  0  0  0
  -21.0879   -8.8771   19.8951 H   0  0  0  0  0  0
  -22.3725  -10.9669   19.6167 H   0  0  0  0  0  0
  -21.1994   -7.6159   23.9738 H   0  0  0  0  0  0
  -21.1473   -6.0528   25.9089 H   0  0  0  0  0  0
  -22.0602   -2.7628   23.2835 H   0  0  0  0  0  0
  -22.4142  -11.9873   22.4823 H   0  0  0  0  0  0
  -21.1101  -13.1185   22.2627 H   0  0  0  0  0  0
  -24.6379  -15.8322   20.4757 H   0  0  0  0  0  0
  -26.2539  -15.6290   20.0325 H   0  0  0  0  0  0
  -26.7211  -32.5412   23.1088 H   0  0  0  0  0  0
  -25.0029  -33.9676   25.0376 H   0  0  0  0  0  0
  -22.7264  -31.3020   21.3978 H   0  0  0  0  0  0
  -23.3749  -35.9620   23.3312 H   0  0  0  0  0  0
  -24.3574  -36.8905   22.2057 H   0  0  0  0  0  0
  -23.7236  -37.6490   23.6663 H   0  0  0  0  0  0
  -26.1193  -31.5299   20.6120 H   0  0  0  0  0  0
  -26.8511  -30.8132   22.0152 H   0  0  0  0  0  0
  -28.1216  -28.9224   21.2094 H   0  0  0  0  0  0
  -25.9430  -25.9203   18.9820 H   0  0  0  0  0  0
  -23.9727  -27.3140   18.9967 H   0  0  0  0  0  0
  -23.7672  -30.5904   19.4030 H   0  0  0  0  0  0
  -22.7648  -29.2464   19.8572 H   0  0  0  0  0  0
  -25.1297  -36.1931   25.0824 H   0  0  0  0  0  0
  -20.9994  -28.3300   24.1388 H   0  0  0  0  0  0
  -20.5642  -26.2344   23.3646 H   0  0  0  0  0  0
  -21.6676  -26.7424   22.1271 H   0  0  0  0  0  0
  -19.6964  -25.6286   21.1252 H   0  0  0  0  0  0
  -19.6744  -27.3183   20.6737 H   0  0  0  0  0  0
  -17.4249  -26.6691   21.3997 H   0  0  0  0  0  0
  -18.0344  -26.0065   22.8993 H   0  0  0  0  0  0
  -19.7956  -30.7272   24.2262 H   0  0  0  0  0  0
  -17.5031  -31.6274   24.5162 H   0  0  0  0  0  0
  -15.5372  -30.2991   23.7650 H   0  0  0  0  0  0
  -15.8688  -28.0823   22.7081 H   0  0  0  0  0  0
  -24.5881  -30.7089   25.7767 H   0  0  0  0  0  0
  -24.8903  -32.2904   26.4861 H   0  0  0  0  0  0
  -25.8010  -30.8910   27.0230 H   0  0  0  0  0  0
  -26.2957  -29.6732   24.1236 H   0  0  0  0  0  0
  -27.4006  -29.7265   25.4768 H   0  0  0  0  0  0
  -27.8842  -30.4266   23.9511 H   0  0  0  0  0  0
  -27.2630  -33.3638   26.2061 H   0  0  0  0  0  0
  -28.3849  -32.6892   25.0332 H   0  0  0  0  0  0
  -28.0705  -31.8478   26.5436 H   0  0  0  0  0  0
  -28.2604  -38.0093   24.7512 H   0  0  0  0  0  0
  -28.1068  -36.2623   24.6301 H   0  0  0  0  0  0
  -27.2295  -37.1466   25.8872 H   0  0  0  0  0  0
  -20.9394  -29.8792   21.6893 H   0  0  0  0  0  0
  -26.0179  -38.2851   24.1392 H   0  0  0  0  0  0
  -29.5133  -21.1773   22.9531 H   0  0  0  0  0  0
  -29.3828  -19.7554   25.3962 H   0  0  0  0  0  0
  -30.5040  -18.3998   25.2325 H   0  0  0  0  0  0
  -28.7581  -18.1182   25.1567 H   0  0  0  0  0  0
  -29.4666  -18.4502   18.4130 H   0  0  0  0  0  0
  -28.1574  -17.4922   19.0982 H   0  0  0  0  0  0
  -29.4336  -16.7207   18.1610 H   0  0  0  0  0  0
  -27.2642  -22.6592   18.4732 H   0  0  0  0  0  0
  -27.7691  -20.9897   18.4448 H   0  0  0  0  0  0
  -28.8960  -22.2499   17.9626 H   0  0  0  0  0  0
  -26.5452  -22.4574   20.7813 H   0  0  0  0  0  0
  -27.6135  -22.0133   22.0885 H   0  0  0  0  0  0
  -27.0538  -20.7942   20.9421 H   0  0  0  0  0  0
  -29.3571  -23.7862   21.3937 H   0  0  0  0  0  0
  -29.9846  -23.8341   19.7833 H   0  0  0  0  0  0
  -30.6935  -21.3971   20.4608 H   0  0  0  0  0  0
  -29.8964  -20.4255   19.3037 H   0  0  0  0  0  0
  -27.1205  -24.6668   20.5100 H   0  0  0  0  0  0
  -27.8283  -24.7921   18.9205 H   0  0  0  0  0  0
  -31.1043  -17.4146   19.9254 H   0  0  0  0  0  0
  -29.7989  -17.0032   22.7792 H   0  0  0  0  0  0
  -28.8937  -15.6237   20.9223 H   0  0  0  0  0  0
  1 25  1  0  0  0
  1 30  2  0  0  0
  1 85  1  0  0  0
  2  3  1  0  0  0
  2 25  1  0  0  0
  2 86  1  0  0  0
  2 87  1  0  0  0
  3  4  1  0  0  0
  3 88  1  0  0  0
  3 89  1  0  0  0
  4  5  1  0  0  0
  4 90  1  0  0  0
  4 91  1  0  0  0
  5  6  1  0  0  0
  5 26  1  0  0  0
  5 92  1  0  0  0
  6 25  1  0  0  0
  6 93  1  0  0  0
  6 94  1  0  0  0
  7  8  2  0  0  0
  7 26  1  0  0  0
  7 29  1  0  0  0
  8  9  1  0  0  0
  8 22  1  0  0  0
  9 10  1  0  0  0
  9 27  2  0  0  0
 10 11  2  0  0  0
 10 15  1  0  0  0
 11 12  1  0  0  0
 11 95  1  0  0  0
 12 13  2  0  0  0
 12 96  1  0  0  0
 13 14  1  0  0  0
 13 31  1  0  0  0
 14 15  2  0  0  0
 14 97  1  0  0  0
 15 98  1  0  0  0
 16 17  2  0  0  0
 16 21  1  0  0  0
 16 31  1  0  0  0
 17 18  1  0  0  0
 17 99  1  0  0  0
 18 19  2  0  0  0
 18100  1  0  0  0
 19 20  1  0  0  0
 19 24  1  0  0  0
 20 21  2  0  0  0
 20101  1  0  0  0
 21 23  1  0  0  0
 22 28  1  0  0  0
 22 32  2  0  0  0
 26 27  1  0  0  0
 28102  1  0  0  0
 28103  1  0  0  0
 29104  1  0  0  0
 29105  1  0  0  0
 33 34  1  0  0  0
 33 66  1  0  0  0
 33 70  2  0  0  0
 34 36  1  0  0  0
 34 59  1  0  0  0
 34106  1  0  0  0
 35 44  2  0  0  0
 35 45  1  0  0  0
 35 68  1  0  0  0
 36 56  1  0  0  0
 36107  1  0  0  0
 37 39  1  0  0  0
 37 47  1  0  0  0
 37 66  1  0  0  0
 37108  1  0  0  0
 38 43  2  0  0  0
 38 46  1  0  0  0
 38 47  1  0  0  0
 39 64  1  0  0  0
 39 67  2  0  0  0
 40 52  1  0  0  0
 40 53  2  0  0  0
 40 58  1  0  0  0
 41109  1  0  0  0
 41110  1  0  0  0
 41111  1  0  0  0
 41 48  1  0  0  0
 42 43  1  0  0  0
 42 66  1  0  0  0
 42112  1  0  0  0
 42113  1  0  0  0
 43 44  1  0  0  0
 44114  1  0  0  0
 45 46  2  0  0  0
 45115  1  0  0  0
 46116  1  0  0  0
 47117  1  0  0  0
 47118  1  0  0  0
 48 56  1  0  0  0
 48 65  1  0  0  0
 48119  1  0  0  0
 49 50  1  0  0  0
 49 53  1  0  0  0
 49 64  1  0  0  0
 49120  1  0  0  0
 50 51  1  0  0  0
 50121  1  0  0  0
 50122  1  0  0  0
 51 52  1  0  0  0
 51123  1  0  0  0
 51124  1  0  0  0
 52125  1  0  0  0
 52126  1  0  0  0
 53 54  1  0  0  0
 54 55  2  0  0  0
 54127  1  0  0  0
 55 57  1  0  0  0
 55128  1  0  0  0
 56 69  2  0  0  0
 57 58  2  0  0  0
 57129  1  0  0  0
 58130  1  0  0  0
 59 60  1  0  0  0
 59 61  1  0  0  0
 59 62  1  0  0  0
 60131  1  0  0  0
 60132  1  0  0  0
 60133  1  0  0  0
 61134  1  0  0  0
 61135  1  0  0  0
 61136  1  0  0  0
 62137  1  0  0  0
 62138  1  0  0  0
 62139  1  0  0  0
 63 65  1  0  0  0
 63140  1  0  0  0
 63141  1  0  0  0
 63142  1  0  0  0
 64143  1  0  0  0
 65144  1  0  0  0
 68 80  1  0  0  0
 71 72  2  0  0  0
 71 83  1  0  0  0
 71145  1  0  0  0
 72 74  1  0  0  0
 72 84  1  0  0  0
 73 81  1  0  0  0
 73 83  1  0  0  0
 73 84  2  0  0  0
 74146  1  0  0  0
 74147  1  0  0  0
 74148  1  0  0  0
 75149  1  0  0  0
 75150  1  0  0  0
 75151  1  0  0  0
 75 81  1  0  0  0
 76152  1  0  0  0
 76153  1  0  0  0
 76154  1  0  0  0
 76 82  1  0  0  0
 77 82  1  0  0  0
 77155  1  0  0  0
 77156  1  0  0  0
 77157  1  0  0  0
 78 80  1  0  0  0
 78 82  1  0  0  0
 78158  1  0  0  0
 78159  1  0  0  0
 79 82  1  0  0  0
 79 83  1  0  0  0
 79160  1  0  0  0
 79161  1  0  0  0
 80162  1  0  0  0
 80163  1  0  0  0
 81 85  1  0  0  0
 81164  1  0  0  0
 84165  1  0  0  0
 85166  1  0  0  0
M  CHG  1  84   1
M  ISO  4   1 100  68 101  80 101  85 100
M  END
> <chiral flag>
0

> <version>
0

> <s_m_source_file>
/data/baiqing/PycharmProjects/Reinvent-master-3.2/result/LINK_invent/BTK/process_docking_weight1_custom_sum_contain_oxygen_bond_distance_aromatic_linkinvent_7_9_3/rearranged_h_0076.sdf

> <i_m_source_file_index>
47

> <r_mmod_Potential_Energy-OPLS-2005>
139.351043701172

> <r_mmod_Stretch_Energy-OPLS-2005>
140.115615844727

> <r_mmod_Bend_Energy-OPLS-2005>
204.159851074219

> <r_mmod_Torsional_Energy-OPLS-2005>
232.896820068359

> <r_mmod_Improper_Torsional_Energy-OPLS-2005>
7.86095190048218

> <r_mmod_Van_der_Waal_Energy-OPLS-2005>
119.34300994873

> <r_mmod_Electrostatic_Energy-OPLS-2005>
-229.040863037109

> <r_mmod_Solvation_Energy-OPLS-2005>
-416.871612548828

> <b_mmod_Minimization_Converged-OPLS-2005>
0

> <r_mmod_RMS_Derivative-OPLS-2005>
2.20250535011292

$$$$
47
                    3D
 Structure written by MMmdl.
172180  0  0  1  0            999 V2000
  -30.9306  -13.9568   20.4543 C   0  0  0  0  0  0
  -31.1265  -11.8298   18.9599 C   0  0  0  0  0  0
  -29.8093  -12.3984   17.5844 C   0  0  0  0  0  0
  -28.2352  -13.4385   18.1344 C   0  0  0  0  0  0
  -27.8747  -13.9093   20.0306 C   0  0  2  0  0  0
  -29.0145  -13.2946   21.4259 C   0  0  0  0  0  0
  -25.8761  -14.1412   21.0644 C   0  0  0  0  0  0
  -24.1190  -13.4082   20.8075 C   0  0  0  0  0  0
  -23.9970  -12.1340   20.4854 C   0  0  0  0  0  0
  -23.6544  -10.6785   20.9606 C   0  0  0  0  0  0
  -24.1812   -9.7002   21.8948 C   0  0  0  0  0  0
  -23.5892   -8.4130   22.0662 C   0  0  0  0  0  0
  -22.4241   -8.0712   21.3420 C   0  0  0  0  0  0
  -21.9386   -8.9916   20.4076 C   0  0  0  0  0  0
  -22.5535  -10.2352   20.2135 C   0  0  0  0  0  0
  -21.7269   -6.0820   22.5292 C   0  0  0  0  0  0
  -21.4317   -6.5742   23.8190 C   0  0  0  0  0  0
  -21.3749   -5.6876   24.9145 C   0  0  0  0  0  0
  -21.6033   -4.3110   24.7227 C   0  0  0  0  0  0
  -21.8786   -3.8173   23.4366 C   0  0  0  0  0  0
  -21.9332   -4.7000   22.3433 C   0  0  0  0  0  0
  -22.5111  -13.7577   21.0774 C   0  0  0  0  0  0
  -22.1716   -4.2139   21.1009 F   0  0  0  0  0  0
  -21.5538   -3.4593   25.7739 F   0  0  0  0  0  0
  -30.6049  -12.7414   20.5944 N   0  0  0  0  0  0
  -26.6959  -13.7710   20.9012 N   0  0  0  0  0  0
  -24.8471  -13.3454   20.7894 N   0  0  0  0  0  0
  -21.8492  -12.9838   21.9507 N   0  0  0  0  0  0
  -26.6356  -15.3173   21.5666 N   0  0  0  0  0  0
  -31.8876  -14.5966   20.0230 O   0  0  0  0  0  0
  -21.7298   -6.8847   21.4168 O   0  0  0  0  0  0
  -21.9873  -14.7146   20.5297 O   0  0  0  0  0  0
  -24.6953  -31.7942   23.1655 C   0  0  0  0  0  0
  -25.9543  -32.4408   23.8116 C   0  0  1  0  0  0
  -26.6990  -26.4463   20.1779 C   0  0  0  0  0  0
  -25.6118  -33.8266   24.1949 N   0  0  0  0  0  0
  -23.4949  -30.4426   21.5297 C   0  0  2  0  0  0
  -24.8588  -28.8098   20.0640 C   0  0  0  0  0  0
  -22.7725  -29.4355   22.4662 C   0  0  0  0  0  0
  -18.0322  -28.1419   22.8446 C   0  0  0  0  0  0
  -24.1491  -36.7107   23.2649 C   0  0  0  0  0  0
  -26.0824  -30.4153   21.4735 C   0  0  0  0  0  0
  -26.0410  -28.9854   20.7851 C   0  0  0  0  0  0
  -26.9774  -27.8088   20.8309 C   0  0  0  0  0  0
  -25.6497  -26.6203   19.2824 C   0  0  0  0  0  0
  -24.7296  -27.6771   19.2717 C   0  0  0  0  0  0
  -23.7243  -29.8257   20.1298 C   0  0  0  0  0  0
  -25.4162  -36.2874   24.0268 C   0  0  1  0  0  0
  -20.5959  -28.3777   23.1116 C   0  0  2  0  0  0
  -20.6798  -26.9434   22.5384 C   0  0  0  0  0  0
  -19.5771  -26.6360   21.5205 C   0  0  0  0  0  0
  -18.1953  -26.7947   22.1607 C   0  0  0  0  0  0
  -19.1588  -28.8920   23.2771 C   0  0  0  0  0  0
  -18.9498  -30.1503   23.8824 C   0  0  0  0  0  0
  -17.6490  -30.6601   24.0554 C   0  0  0  0  0  0
  -25.9172  -34.9268   23.4932 C   0  0  0  0  0  0
  -16.5381  -29.9083   23.6352 C   0  0  0  0  0  0
  -16.7304  -28.6507   23.0365 C   0  0  0  0  0  0
  -26.4656  -31.6560   25.0833 C   0  0  0  0  0  0
  -25.3669  -31.3965   26.1421 C   0  0  0  0  0  0
  -27.0633  -30.2875   24.6942 C   0  0  0  0  0  0
  -27.6071  -32.4492   25.7614 C   0  0  0  0  0  0
  -27.5577  -37.1724   24.8463 C   0  0  0  0  0  0
  -21.4378  -29.3044   22.3440 N   0  0  0  0  0  0
  -26.4277  -37.3655   23.9413 N   0  0  0  0  0  0
  -24.7888  -30.9259   22.1016 N   0  0  0  0  0  0
  -23.4202  -28.7853   23.2908 O   0  0  0  0  0  0
  -27.1475  -24.9401   20.2865 O   0  0  0  0  0  0
  -26.5765  -34.8859   22.4521 O   0  0  0  0  0  0
  -23.5987  -32.1164   23.6567 O   0  0  0  0  0  0
  -24.3763  -15.1473   22.3329 C   0  0  0  0  0  0
  -25.2057  -13.1780   22.9990 C   0  0  0  0  0  0
  -24.6345  -15.7061   20.1394 C   0  0  0  0  0  0
  -26.1651  -12.1191   19.5337 C   0  0  0  0  0  0
  -25.2118  -12.7951   24.4564 C   0  0  0  0  0  0
  -27.1799  -10.7315   17.5876 C   0  0  0  0  0  0
  -27.0656   -9.8046   19.7470 C   0  0  0  0  0  0
  -24.8682  -23.6121   20.4614 C   0  0  0  0  0  0
  -26.3991  -23.2465   18.4352 C   0  0  0  0  0  0
  -25.4028  -17.5232   20.0519 C   0  0  0  0  0  0
  -25.2729  -19.5502   19.9667 C   0  0  0  0  0  0
  -26.2998  -21.2922   20.2647 C   0  0  0  0  0  0
  -28.8434  -11.6686   19.6779 C   0  0  0  0  0  0
  -27.3309  -11.1984   19.0797 C   0  0  0  0  0  0
  -26.2954  -23.3078   19.9719 C   0  0  0  0  0  0
  -26.0826  -11.7589   21.6679 N   0  0  0  0  0  0
  -25.4775  -14.1042   18.8195 N   0  0  0  0  0  0
  -30.0827  -13.5531   19.5843 N   0  0  0  0  0  0
  -32.1201  -12.1735   18.6635 H   0  0  0  0  0  0
  -31.2528  -10.7514   19.0839 H   0  0  0  0  0  0
  -29.5497  -11.5401   16.9693 H   0  0  0  0  0  0
  -30.3552  -13.0212   16.8741 H   0  0  0  0  0  0
  -28.5011  -14.4199   17.7366 H   0  0  0  0  0  0
  -27.3670  -13.3382   17.4955 H   0  0  0  0  0  0
  -28.1168  -14.9712   19.8960 H   0  0  0  0  0  0
  -28.5814  -12.5375   22.0818 H   0  0  0  0  0  0
  -29.1777  -14.1176   22.1322 H   0  0  0  0  0  0
  -25.0267   -9.9004   22.5313 H   0  0  0  0  0  0
  -24.0134   -7.7174   22.7767 H   0  0  0  0  0  0
  -21.0681   -8.7386   19.8187 H   0  0  0  0  0  0
  -22.1162  -10.8933   19.4745 H   0  0  0  0  0  0
  -21.2431   -7.6272   23.9686 H   0  0  0  0  0  0
  -21.1549   -6.0626   25.9033 H   0  0  0  0  0  0
  -22.0432   -2.7614   23.2860 H   0  0  0  0  0  0
  -22.3096  -12.2152   22.4117 H   0  0  0  0  0  0
  -20.8826  -13.1832   22.1645 H   0  0  0  0  0  0
  -25.7793  -15.6233   22.0577 H   0  0  0  0  0  0
  -26.8906  -15.9744   20.8488 H   0  0  0  0  0  0
  -26.7583  -32.4705   23.0763 H   0  0  0  0  0  0
  -25.0260  -33.9311   25.0103 H   0  0  0  0  0  0
  -22.8255  -31.2943   21.3905 H   0  0  0  0  0  0
  -23.3816  -35.9371   23.3247 H   0  0  0  0  0  0
  -24.3554  -36.8846   22.2080 H   0  0  0  0  0  0
  -23.7181  -37.6233   23.6775 H   0  0  0  0  0  0
  -26.3624  -31.1327   20.7011 H   0  0  0  0  0  0
  -26.9194  -30.4183   22.1569 H   0  0  0  0  0  0
  -27.8255  -27.8800   21.4952 H   0  0  0  0  0  0
  -25.3625  -25.8152   18.6384 H   0  0  0  0  0  0
  -23.8650  -27.5884   18.6295 H   0  0  0  0  0  0
  -23.9570  -30.6200   19.4193 H   0  0  0  0  0  0
  -22.7996  -29.3744   19.7683 H   0  0  0  0  0  0
  -25.1367  -36.1622   25.0754 H   0  0  0  0  0  0
  -21.0040  -28.3407   24.1243 H   0  0  0  0  0  0
  -20.5682  -26.2390   23.3645 H   0  0  0  0  0  0
  -21.6658  -26.7402   22.1190 H   0  0  0  0  0  0
  -19.6927  -25.6246   21.1293 H   0  0  0  0  0  0
  -19.6718  -27.3122   20.6697 H   0  0  0  0  0  0
  -17.4226  -26.6677   21.4015 H   0  0  0  0  0  0
  -18.0346  -26.0110   22.9019 H   0  0  0  0  0  0
  -19.7980  -30.7330   24.2165 H   0  0  0  0  0  0
  -17.5050  -31.6279   24.5163 H   0  0  0  0  0  0
  -15.5383  -30.2967   23.7729 H   0  0  0  0  0  0
  -15.8700  -28.0819   22.7112 H   0  0  0  0  0  0
  -24.5847  -30.7314   25.7747 H   0  0  0  0  0  0
  -24.8879  -32.3228   26.4612 H   0  0  0  0  0  0
  -25.7805  -30.9288   27.0361 H   0  0  0  0  0  0
  -26.3364  -29.6368   24.2076 H   0  0  0  0  0  0
  -27.4065  -29.7489   25.5784 H   0  0  0  0  0  0
  -27.9373  -30.3973   24.0517 H   0  0  0  0  0  0
  -27.2576  -33.3874   26.1936 H   0  0  0  0  0  0
  -28.3985  -32.6940   25.0517 H   0  0  0  0  0  0
  -28.0634  -31.8829   26.5742 H   0  0  0  0  0  0
  -28.2525  -38.0086   24.7575 H   0  0  0  0  0  0
  -28.1142  -36.2614   24.6213 H   0  0  0  0  0  0
  -27.2304  -37.1268   25.8864 H   0  0  0  0  0  0
  -20.9636  -29.8808   21.6634 H   0  0  0  0  0  0
  -26.0094  -38.2690   24.1447 H   0  0  0  0  0  0
  -24.0651  -15.8773   23.0690 H   0  0  0  0  0  0
  -24.8456  -13.6174   25.0689 H   0  0  0  0  0  0
  -26.2248  -12.5451   24.7710 H   0  0  0  0  0  0
  -24.5768  -11.9252   24.6159 H   0  0  0  0  0  0
  -26.2158  -10.2441   17.4303 H   0  0  0  0  0  0
  -27.9419   -9.9958   17.3277 H   0  0  0  0  0  0
  -27.2174  -11.4823   16.8072 H   0  0  0  0  0  0
  -26.0504   -9.4507   19.5625 H   0  0  0  0  0  0
  -27.2019   -9.7886   20.8268 H   0  0  0  0  0  0
  -27.7447   -9.0348   19.3782 H   0  0  0  0  0  0
  -24.2028  -22.7699   20.2671 H   0  0  0  0  0  0
  -24.4062  -24.4702   19.9861 H   0  0  0  0  0  0
  -24.8649  -23.7886   21.5373 H   0  0  0  0  0  0
  -25.7830  -22.4419   18.0321 H   0  0  0  0  0  0
  -27.4279  -23.0346   18.1436 H   0  0  0  0  0  0
  -26.1119  -24.1438   17.9045 H   0  0  0  0  0  0
  -26.2446  -17.3308   19.3883 H   0  0  0  0  0  0
  -25.8274  -17.5423   21.0511 H   0  0  0  0  0  0
  -24.3927  -19.7261   20.5854 H   0  0  0  0  0  0
  -24.9006  -19.6923   18.9516 H   0  0  0  0  0  0
  -27.2735  -21.0291   19.8510 H   0  0  0  0  0  0
  -26.4759  -21.2444   21.3389 H   0  0  0  0  0  0
  -29.2383  -10.7586   19.2293 H   0  0  0  0  0  0
  -28.8692  -11.1580   20.6463 H   0  0  0  0  0  0
  -30.0579  -14.0529   18.7102 H   0  0  0  0  0  0
  1 25  1  0  0  0
  1 30  2  0  0  0
  1 88  1  0  0  0
  2  3  1  0  0  0
  2 25  1  0  0  0
  2 89  1  0  0  0
  2 90  1  0  0  0
  3  4  1  0  0  0
  3 91  1  0  0  0
  3 92  1  0  0  0
  4  5  1  0  0  0
  4 93  1  0  0  0
  4 94  1  0  0  0
  5  6  1  0  0  0
  5 26  1  0  0  0
  5 95  1  0  0  0
  6 25  1  0  0  0
  6 96  1  0  0  0
  6 97  1  0  0  0
  7  8  2  0  0  0
  7 26  1  0  0  0
  7 29  1  0  0  0
  8  9  1  0  0  0
  8 22  1  0  0  0
  9 10  1  0  0  0
  9 27  2  0  0  0
 10 11  2  0  0  0
 10 15  1  0  0  0
 11 12  1  0  0  0
 11 98  1  0  0  0
 12 13  2  0  0  0
 12 99  1  0  0  0
 13 14  1  0  0  0
 13 31  1  0  0  0
 14 15  2  0  0  0
 14100  1  0  0  0
 15101  1  0  0  0
 16 17  2  0  0  0
 16 21  1  0  0  0
 16 31  1  0  0  0
 17 18  1  0  0  0
 17102  1  0  0  0
 18 19  2  0  0  0
 18103  1  0  0  0
 19 20  1  0  0  0
 19 24  1  0  0  0
 20 21  2  0  0  0
 20104  1  0  0  0
 21 23  1  0  0  0
 22 28  1  0  0  0
 22 32  2  0  0  0
 26 27  1  0  0  0
 28105  1  0  0  0
 28106  1  0  0  0
 29107  1  0  0  0
 29108  1  0  0  0
 33 34  1  0  0  0
 33 66  1  0  0  0
 33 70  2  0  0  0
 34 36  1  0  0  0
 34 59  1  0  0  0
 34109  1  0  0  0
 35 44  2  0  0  0
 35 45  1  0  0  0
 35 68  1  0  0  0
 36 56  1  0  0  0
 36110  1  0  0  0
 37 39  1  0  0  0
 37 47  1  0  0  0
 37 66  1  0  0  0
 37111  1  0  0  0
 38 43  2  0  0  0
 38 46  1  0  0  0
 38 47  1  0  0  0
 39 64  1  0  0  0
 39 67  2  0  0  0
 40 52  1  0  0  0
 40 53  2  0  0  0
 40 58  1  0  0  0
 41112  1  0  0  0
 41113  1  0  0  0
 41114  1  0  0  0
 41 48  1  0  0  0
 42 43  1  0  0  0
 42 66  1  0  0  0
 42115  1  0  0  0
 42116  1  0  0  0
 43 44  1  0  0  0
 44117  1  0  0  0
 45 46  2  0  0  0
 45118  1  0  0  0
 46119  1  0  0  0
 47120  1  0  0  0
 47121  1  0  0  0
 48 56  1  0  0  0
 48 65  1  0  0  0
 48122  1  0  0  0
 49 50  1  0  0  0
 49 53  1  0  0  0
 49 64  1  0  0  0
 49123  1  0  0  0
 50 51  1  0  0  0
 50124  1  0  0  0
 50125  1  0  0  0
 51 52  1  0  0  0
 51126  1  0  0  0
 51127  1  0  0  0
 52128  1  0  0  0
 52129  1  0  0  0
 53 54  1  0  0  0
 54 55  2  0  0  0
 54130  1  0  0  0
 55 57  1  0  0  0
 55131  1  0  0  0
 56 69  2  0  0  0
 57 58  2  0  0  0
 57132  1  0  0  0
 58133  1  0  0  0
 59 60  1  0  0  0
 59 61  1  0  0  0
 59 62  1  0  0  0
 60134  1  0  0  0
 60135  1  0  0  0
 60136  1  0  0  0
 61137  1  0  0  0
 61138  1  0  0  0
 61139  1  0  0  0
 62140  1  0  0  0
 62141  1  0  0  0
 62142  1  0  0  0
 63 65  1  0  0  0
 63143  1  0  0  0
 63144  1  0  0  0
 63145  1  0  0  0
 64146  1  0  0  0
 65147  1  0  0  0
 68 85  1  0  0  0
 71 72  2  0  0  0
 71 73  1  0  0  0
 71148  1  0  0  0
 72 75  1  0  0  0
 72 86  1  0  0  0
 73 80  1  0  0  0
 73 87  2  0  0  0
 74 84  1  0  0  0
 74 86  2  0  0  0
 74 87  1  0  0  0
 75149  1  0  0  0
 75150  1  0  0  0
 75151  1  0  0  0
 76152  1  0  0  0
 76153  1  0  0  0
 76154  1  0  0  0
 76 84  1  0  0  0
 77 84  1  0  0  0
 77155  1  0  0  0
 77156  1  0  0  0
 77157  1  0  0  0
 78158  1  0  0  0
 78159  1  0  0  0
 78160  1  0  0  0
 78 85  1  0  0  0
 79 85  1  0  0  0
 79161  1  0  0  0
 79162  1  0  0  0
 79163  1  0  0  0
 80 81  1  0  0  0
 80164  1  0  0  0
 80165  1  0  0  0
 81 82  1  0  0  0
 81166  1  0  0  0
 81167  1  0  0  0
 82 85  1  0  0  0
 82168  1  0  0  0
 82169  1  0  0  0
 83 84  1  0  0  0
 83 88  1  0  0  0
 83170  1  0  0  0
 83171  1  0  0  0
 88172  1  0  0  0
M  ISO  4   1 100  68 101  85 101  88 100
M  END
> <chiral flag>
0

> <version>
0

> <s_m_source_file>
/data/baiqing/PycharmProjects/Reinvent-master-3.2/result/LINK_invent/BTK/process_docking_weight1_custom_sum_contain_oxygen_bond_distance_aromatic_linkinvent_7_9_3/rearranged_h_0076.sdf

> <i_m_source_file_index>
48

> <r_mmod_Potential_Energy-OPLS-2005>
25963.67578125

> <r_mmod_Stretch_Energy-OPLS-2005>
14802.8154296875

> <r_mmod_Bend_Energy-OPLS-2005>
3017.80883789062

> <r_mmod_Torsional_Energy-OPLS-2005>
595.594116210938

> <r_mmod_Improper_Torsional_Energy-OPLS-2005>
144.548065185547

> <r_mmod_Van_der_Waal_Energy-OPLS-2005>
6013.56005859375

> <r_mmod_Electrostatic_Energy-OPLS-2005>
-706.09326171875

> <r_mmod_Solvation_Energy-OPLS-2005>
-241.415191650391

> <b_mmod_Minimization_Converged-OPLS-2005>
0

> <r_mmod_RMS_Derivative-OPLS-2005>
3.6894211769104

$$$$
48
                    3D
 Structure written by MMmdl.
175183  0  0  1  0            999 V2000
  -30.7252  -14.4384   20.5481 C   0  0  0  0  0  0
  -30.4105  -12.2828   19.4154 C   0  0  0  0  0  0
  -29.4894  -12.4905   18.1978 C   0  0  0  0  0  0
  -28.0110  -12.3518   18.6125 C   0  0  0  0  0  0
  -27.6528  -13.2063   19.8583 C   0  0  2  0  0  0
  -28.6941  -13.0142   20.9841 C   0  0  0  0  0  0
  -25.2554  -13.8172   20.5670 C   0  0  0  0  0  0
  -24.1830  -13.0444   20.9214 C   0  0  0  0  0  0
  -24.6375  -11.6915   20.8766 C   0  0  0  0  0  0
  -23.9047  -10.4302   21.0417 C   0  0  0  0  0  0
  -24.3615   -9.4204   21.9156 C   0  0  0  0  0  0
  -23.6312   -8.2233   22.0705 C   0  0  0  0  0  0
  -22.4294   -8.0280   21.3519 C   0  0  0  0  0  0
  -21.9933   -9.0238   20.4605 C   0  0  0  0  0  0
  -22.7256  -10.2119   20.3037 C   0  0  0  0  0  0
  -21.6837   -6.0752   22.5289 C   0  0  0  0  0  0
  -21.4002   -6.5629   23.8229 C   0  0  0  0  0  0
  -21.3671   -5.6759   24.9181 C   0  0  0  0  0  0
  -21.6052   -4.3024   24.7200 C   0  0  0  0  0  0
  -21.8822   -3.8148   23.4317 C   0  0  0  0  0  0
  -21.9185   -4.6978   22.3392 C   0  0  0  0  0  0
  -22.7859  -13.5251   21.1865 C   0  0  0  0  0  0
  -22.1671   -4.2171   21.0967 F   0  0  0  0  0  0
  -21.5619   -3.4516   25.7715 F   0  0  0  0  0  0
  -30.0238  -13.2840   20.4178 N   0  0  0  0  0  0
  -26.2959  -12.9334   20.3263 N   0  0  0  0  0  0
  -25.9283  -11.6494   20.5718 N   0  0  0  0  0  0
  -22.0496  -12.8254   22.0438 N   0  0  0  0  0  0
  -25.4280  -15.1904   20.4100 N   0  0  0  0  0  0
  -31.9036  -14.5276   20.2108 O   0  0  0  0  0  0
  -21.6625   -6.8894   21.4257 O   0  0  0  0  0  0
  -22.3573  -14.5551   20.6660 O   0  0  0  0  0  0
  -24.6154  -31.8677   23.2088 C   0  0  0  0  0  0
  -25.9058  -32.4814   23.8375 C   0  0  1  0  0  0
  -27.2365  -27.4381   20.0611 C   0  0  0  0  0  0
  -25.5913  -33.8611   24.2301 N   0  0  0  0  0  0
  -23.4007  -30.4921   21.5531 C   0  0  2  0  0  0
  -24.8424  -28.9558   20.1186 C   0  0  0  0  0  0
  -22.7402  -29.4658   22.5012 C   0  0  0  0  0  0
  -18.0266  -28.1388   22.8496 C   0  0  0  0  0  0
  -24.1484  -36.7313   23.2633 C   0  0  0  0  0  0
  -25.9304  -30.8312   21.3582 C   0  0  0  0  0  0
  -26.0069  -29.4652   20.7067 C   0  0  0  0  0  0
  -27.2051  -28.7136   20.6753 C   0  0  0  0  0  0
  -26.0401  -26.9366   19.4925 C   0  0  0  0  0  0
  -24.8532  -27.6889   19.5152 C   0  0  0  0  0  0
  -23.6053  -29.8224   20.1690 C   0  0  0  0  0  0
  -25.4103  -36.3097   24.0325 C   0  0  1  0  0  0
  -20.5859  -28.3660   23.1331 C   0  0  2  0  0  0
  -20.6758  -26.9401   22.5420 C   0  0  0  0  0  0
  -19.5739  -26.6395   21.5214 C   0  0  0  0  0  0
  -18.1919  -26.7932   22.1622 C   0  0  0  0  0  0
  -19.1516  -28.8838   23.2912 C   0  0  0  0  0  0
  -18.9450  -30.1450   23.8913 C   0  0  0  0  0  0
  -17.6452  -30.6597   24.0573 C   0  0  0  0  0  0
  -25.9047  -34.9470   23.5109 C   0  0  0  0  0  0
  -16.5336  -29.9102   23.6330 C   0  0  0  0  0  0
  -16.7256  -28.6515   23.0349 C   0  0  0  0  0  0
  -26.4480  -31.6600   25.0707 C   0  0  0  0  0  0
  -25.3746  -31.3727   26.1465 C   0  0  0  0  0  0
  -27.0287  -30.3030   24.6075 C   0  0  0  0  0  0
  -27.6054  -32.4320   25.7480 C   0  0  0  0  0  0
  -27.5582  -37.1789   24.8452 C   0  0  0  0  0  0
  -21.4131  -29.3034   22.3743 N   0  0  0  0  0  0
  -26.4273  -37.3795   23.9435 N   0  0  0  0  0  0
  -24.6684  -31.0770   22.0994 N   0  0  0  0  0  0
  -23.4171  -28.8207   23.3058 O   0  0  0  0  0  0
  -28.4282  -26.7364   20.0226 O   0  0  0  0  0  0
  -26.5606  -34.8932   22.4670 O   0  0  0  0  0  0
  -23.5349  -32.1433   23.7489 O   0  0  0  0  0  0
  -32.9053  -19.0677   19.6824 C   0  0  0  0  0  0
  -33.5162  -17.8413   19.6737 C   0  0  0  0  0  0
  -31.4595  -17.5985   20.5375 C   0  0  0  0  0  0
  -34.7362  -16.3879   18.0536 C   0  0  0  0  0  0
  -30.5038  -17.0025   22.7932 C   0  0  0  0  0  0
  -31.7408  -22.3602   18.6987 C   0  0  0  0  0  0
  -32.3069  -23.5758   20.8212 C   0  0  0  0  0  0
  -34.8599  -17.3672   19.2273 C   0  0  0  0  0  0
  -29.8149  -24.7554   19.5702 C   0  0  0  0  0  0
  -29.8818  -23.3113   20.1572 C   0  0  0  0  0  0
  -31.2824  -21.3110   21.0091 C   0  0  0  0  0  0
  -30.6608  -19.9971   20.4404 C   0  0  0  0  0  0
  -28.4041  -25.3740   19.5688 C   0  0  0  0  0  0
  -30.3061  -16.9173   21.2723 C   0  0  2  0  0  0
  -31.2845  -22.6263   20.1517 C   0  0  0  0  0  0
  -31.6511  -18.9076   20.2344 N   0  0  0  0  0  0
  -32.5901  -16.9884   20.1918 N   0  3  0  0  0  0
  -29.9903  -15.5092   20.9006 N   0  0  0  0  0  0
  -31.4579  -12.3584   19.1170 H   0  0  0  0  0  0
  -30.2882  -11.2746   19.8167 H   0  0  0  0  0  0
  -29.7301  -11.7716   17.4146 H   0  0  0  0  0  0
  -29.6590  -13.4812   17.7708 H   0  0  0  0  0  0
  -27.8255  -11.2978   18.8180 H   0  0  0  0  0  0
  -27.3587  -12.6163   17.7797 H   0  0  0  0  0  0
  -27.6911  -14.2473   19.5364 H   0  0  0  0  0  0
  -28.6597  -11.9940   21.3708 H   0  0  0  0  0  0
  -28.4669  -13.6614   21.8339 H   0  0  0  0  0  0
  -25.2763   -9.5666   22.4708 H   0  0  0  0  0  0
  -24.0023   -7.4611   22.7403 H   0  0  0  0  0  0
  -21.0862   -8.8767   19.8913 H   0  0  0  0  0  0
  -22.3733  -10.9641   19.6127 H   0  0  0  0  0  0
  -21.2008   -7.6137   23.9768 H   0  0  0  0  0  0
  -21.1484   -6.0457   25.9075 H   0  0  0  0  0  0
  -22.0594   -2.7615   23.2796 H   0  0  0  0  0  0
  -22.4108  -11.9929   22.4854 H   0  0  0  0  0  0
  -21.1064  -13.1199   22.2555 H   0  0  0  0  0  0
  -24.6529  -15.8376   20.5060 H   0  0  0  0  0  0
  -26.2642  -15.6283   20.0450 H   0  0  0  0  0  0
  -26.7120  -32.5527   23.1131 H   0  0  0  0  0  0
  -25.0039  -33.9761   25.0424 H   0  0  0  0  0  0
  -22.6899  -31.3097   21.4151 H   0  0  0  0  0  0
  -23.3742  -35.9651   23.3267 H   0  0  0  0  0  0
  -24.3578  -36.8961   22.2057 H   0  0  0  0  0  0
  -23.7235  -37.6505   23.6668 H   0  0  0  0  0  0
  -26.0349  -31.5943   20.5851 H   0  0  0  0  0  0
  -26.8230  -30.8896   21.9700 H   0  0  0  0  0  0
  -28.1085  -29.1121   21.1174 H   0  0  0  0  0  0
  -25.9940  -25.9688   19.0159 H   0  0  0  0  0  0
  -23.9561  -27.2867   19.0663 H   0  0  0  0  0  0
  -23.7100  -30.5951   19.4065 H   0  0  0  0  0  0
  -22.7291  -29.2396   19.8774 H   0  0  0  0  0  0
  -25.1270  -36.1936   25.0809 H   0  0  0  0  0  0
  -20.9948  -28.3230   24.1454 H   0  0  0  0  0  0
  -20.5679  -26.2262   23.3600 H   0  0  0  0  0  0
  -21.6633  -26.7469   22.1209 H   0  0  0  0  0  0
  -19.6908  -25.6316   21.1225 H   0  0  0  0  0  0
  -19.6691  -27.3218   20.6759 H   0  0  0  0  0  0
  -17.4196  -26.6692   21.4020 H   0  0  0  0  0  0
  -18.0319  -26.0073   22.9013 H   0  0  0  0  0  0
  -19.7929  -30.7261   24.2292 H   0  0  0  0  0  0
  -17.5012  -31.6272   24.5183 H   0  0  0  0  0  0
  -15.5342  -30.3009   23.7653 H   0  0  0  0  0  0
  -15.8654  -28.0847   22.7046 H   0  0  0  0  0  0
  -24.5908  -30.7075   25.7821 H   0  0  0  0  0  0
  -24.8954  -32.2899   26.4908 H   0  0  0  0  0  0
  -25.8109  -30.8908   27.0224 H   0  0  0  0  0  0
  -26.2803  -29.6804   24.1151 H   0  0  0  0  0  0
  -27.4072  -29.7260   25.4526 H   0  0  0  0  0  0
  -27.8647  -30.4332   23.9191 H   0  0  0  0  0  0
  -27.2663  -33.3620   26.2062 H   0  0  0  0  0  0
  -28.3875  -32.6879   25.0315 H   0  0  0  0  0  0
  -28.0708  -31.8437   26.5399 H   0  0  0  0  0  0
  -28.2554  -38.0129   24.7555 H   0  0  0  0  0  0
  -28.1112  -36.2659   24.6183 H   0  0  0  0  0  0
  -27.2312  -37.1339   25.8853 H   0  0  0  0  0  0
  -20.9290  -29.8716   21.6933 H   0  0  0  0  0  0
  -26.0144  -38.2855   24.1488 H   0  0  0  0  0  0
  -33.2831  -20.0253   19.3589 H   0  0  0  0  0  0
  -35.7156  -16.0460   17.7223 H   0  0  0  0  0  0
  -34.2451  -16.8576   17.2025 H   0  0  0  0  0  0
  -34.1546  -15.5067   18.3288 H   0  0  0  0  0  0
  -30.6736  -18.0333   23.1091 H   0  0  0  0  0  0
  -31.3646  -16.4119   23.1108 H   0  0  0  0  0  0
  -29.6288  -16.6292   23.3264 H   0  0  0  0  0  0
  -31.6881  -23.2570   18.0845 H   0  0  0  0  0  0
  -31.1265  -21.6151   18.1950 H   0  0  0  0  0  0
  -32.7763  -22.0311   18.6486 H   0  0  0  0  0  0
  -32.4633  -24.4912   20.2515 H   0  0  0  0  0  0
  -33.2898  -23.1153   20.9222 H   0  0  0  0  0  0
  -31.9842  -23.8634   21.8234 H   0  0  0  0  0  0
  -35.3654  -16.8880   20.0686 H   0  0  0  0  0  0
  -35.4747  -18.2219   18.9439 H   0  0  0  0  0  0
  -30.1894  -24.7744   18.5455 H   0  0  0  0  0  0
  -30.4717  -25.4213   20.1290 H   0  0  0  0  0  0
  -29.1632  -22.6750   19.6379 H   0  0  0  0  0  0
  -29.5245  -23.3642   21.1870 H   0  0  0  0  0  0
  -32.3008  -21.0952   21.3331 H   0  0  0  0  0  0
  -30.7759  -21.5312   21.9505 H   0  0  0  0  0  0
  -30.1272  -20.1506   19.5039 H   0  0  0  0  0  0
  -29.9137  -19.6459   21.1505 H   0  0  0  0  0  0
  -27.7419  -24.7950   20.2141 H   0  0  0  0  0  0
  -28.0140  -25.3097   18.5505 H   0  0  0  0  0  0
  -29.4178  -17.4863   21.0033 H   0  0  0  0  0  0
  -32.6752  -15.9652   20.2453 H   0  0  0  0  0  0
  -29.0176  -15.2760   21.0196 H   0  0  0  0  0  0
  1 25  1  0  0  0
  1 30  2  0  0  0
  1 88  1  0  0  0
  2  3  1  0  0  0
  2 25  1  0  0  0
  2 89  1  0  0  0
  2 90  1  0  0  0
  3  4  1  0  0  0
  3 91  1  0  0  0
  3 92  1  0  0  0
  4  5  1  0  0  0
  4 93  1  0  0  0
  4 94  1  0  0  0
  5  6  1  0  0  0
  5 26  1  0  0  0
  5 95  1  0  0  0
  6 25  1  0  0  0
  6 96  1  0  0  0
  6 97  1  0  0  0
  7  8  2  0  0  0
  7 26  1  0  0  0
  7 29  1  0  0  0
  8  9  1  0  0  0
  8 22  1  0  0  0
  9 10  1  0  0  0
  9 27  2  0  0  0
 10 11  2  0  0  0
 10 15  1  0  0  0
 11 12  1  0  0  0
 11 98  1  0  0  0
 12 13  2  0  0  0
 12 99  1  0  0  0
 13 14  1  0  0  0
 13 31  1  0  0  0
 14 15  2  0  0  0
 14100  1  0  0  0
 15101  1  0  0  0
 16 17  2  0  0  0
 16 21  1  0  0  0
 16 31  1  0  0  0
 17 18  1  0  0  0
 17102  1  0  0  0
 18 19  2  0  0  0
 18103  1  0  0  0
 19 20  1  0  0  0
 19 24  1  0  0  0
 20 21  2  0  0  0
 20104  1  0  0  0
 21 23  1  0  0  0
 22 28  1  0  0  0
 22 32  2  0  0  0
 26 27  1  0  0  0
 28105  1  0  0  0
 28106  1  0  0  0
 29107  1  0  0  0
 29108  1  0  0  0
 33 34  1  0  0  0
 33 66  1  0  0  0
 33 70  2  0  0  0
 34 36  1  0  0  0
 34 59  1  0  0  0
 34109  1  0  0  0
 35 44  2  0  0  0
 35 45  1  0  0  0
 35 68  1  0  0  0
 36 56  1  0  0  0
 36110  1  0  0  0
 37 39  1  0  0  0
 37 47  1  0  0  0
 37 66  1  0  0  0
 37111  1  0  0  0
 38 43  2  0  0  0
 38 46  1  0  0  0
 38 47  1  0  0  0
 39 64  1  0  0  0
 39 67  2  0  0  0
 40 52  1  0  0  0
 40 53  2  0  0  0
 40 58  1  0  0  0
 41112  1  0  0  0
 41113  1  0  0  0
 41114  1  0  0  0
 41 48  1  0  0  0
 42 43  1  0  0  0
 42 66  1  0  0  0
 42115  1  0  0  0
 42116  1  0  0  0
 43 44  1  0  0  0
 44117  1  0  0  0
 45 46  2  0  0  0
 45118  1  0  0  0
 46119  1  0  0  0
 47120  1  0  0  0
 47121  1  0  0  0
 48 56  1  0  0  0
 48 65  1  0  0  0
 48122  1  0  0  0
 49 50  1  0  0  0
 49 53  1  0  0  0
 49 64  1  0  0  0
 49123  1  0  0  0
 50 51  1  0  0  0
 50124  1  0  0  0
 50125  1  0  0  0
 51 52  1  0  0  0
 51126  1  0  0  0
 51127  1  0  0  0
 52128  1  0  0  0
 52129  1  0  0  0
 53 54  1  0  0  0
 54 55  2  0  0  0
 54130  1  0  0  0
 55 57  1  0  0  0
 55131  1  0  0  0
 56 69  2  0  0  0
 57 58  2  0  0  0
 57132  1  0  0  0
 58133  1  0  0  0
 59 60  1  0  0  0
 59 61  1  0  0  0
 59 62  1  0  0  0
 60134  1  0  0  0
 60135  1  0  0  0
 60136  1  0  0  0
 61137  1  0  0  0
 61138  1  0  0  0
 61139  1  0  0  0
 62140  1  0  0  0
 62141  1  0  0  0
 62142  1  0  0  0
 63 65  1  0  0  0
 63143  1  0  0  0
 63144  1  0  0  0
 63145  1  0  0  0
 64146  1  0  0  0
 65147  1  0  0  0
 68 83  1  0  0  0
 71 72  2  0  0  0
 71 86  1  0  0  0
 71148  1  0  0  0
 72 78  1  0  0  0
 72 87  1  0  0  0
 73 84  1  0  0  0
 73 86  1  0  0  0
 73 87  2  0  0  0
 74 78  1  0  0  0
 74149  1  0  0  0
 74150  1  0  0  0
 74151  1  0  0  0
 75152  1  0  0  0
 75153  1  0  0  0
 75154  1  0  0  0
 75 84  1  0  0  0
 76155  1  0  0  0
 76156  1  0  0  0
 76157  1  0  0  0
 76 85  1  0  0  0
 77 85  1  0  0  0
 77158  1  0  0  0
 77159  1  0  0  0
 77160  1  0  0  0
 78161  1  0  0  0
 78162  1  0  0  0
 79 80  1  0  0  0
 79 83  1  0  0  0
 79163  1  0  0  0
 79164  1  0  0  0
 80 85  1  0  0  0
 80165  1  0  0  0
 80166  1  0  0  0
 81 82  1  0  0  0
 81 85  1  0  0  0
 81167  1  0  0  0
 81168  1  0  0  0
 82 86  1  0  0  0
 82169  1  0  0  0
 82170  1  0  0  0
 83171  1  0  0  0
 83172  1  0  0  0
 84 88  1  0  0  0
 84173  1  0  0  0
 87174  1  0  0  0
 88175  1  0  0  0
M  CHG  1  87   1
M  ISO  4   1 100  68 101  83 101  88 100
M  END
> <chiral flag>
0

> <version>
0

> <s_m_source_file>
/data/baiqing/PycharmProjects/Reinvent-master-3.2/result/LINK_invent/BTK/process_docking_weight1_custom_sum_contain_oxygen_bond_distance_aromatic_linkinvent_7_9_3/rearranged_h_0076.sdf

> <i_m_source_file_index>
49

> <r_mmod_Potential_Energy-OPLS-2005>
-113.686073303223

> <r_mmod_Stretch_Energy-OPLS-2005>
43.973331451416

> <r_mmod_Bend_Energy-OPLS-2005>
134.279846191406

> <r_mmod_Torsional_Energy-OPLS-2005>
247.564529418945

> <r_mmod_Improper_Torsional_Energy-OPLS-2005>
4.53327226638794

> <r_mmod_Van_der_Waal_Energy-OPLS-2005>
158.475051879883

> <r_mmod_Electrostatic_Energy-OPLS-2005>
-362.907104492188

> <r_mmod_Solvation_Energy-OPLS-2005>
-357.282440185547

> <b_mmod_Minimization_Converged-OPLS-2005>
0

> <r_mmod_RMS_Derivative-OPLS-2005>
3.92779779434204

$$$$
49
                    3D
 Structure written by MMmdl.
161169  0  0  1  0            999 V2000
  -30.5282  -14.5507   19.7031 C   0  0  0  0  0  0
  -30.7279  -12.2336   19.3820 C   0  0  0  0  0  0
  -29.6795  -12.0539   18.2794 C   0  0  0  0  0  0
  -28.3740  -11.9485   19.0210 C   0  0  0  0  0  0
  -28.0898  -13.0975   20.1126 C   0  0  2  0  0  0
  -29.1810  -13.0683   21.1045 C   0  0  0  0  0  0
  -26.0085  -14.1110   20.7272 C   0  0  0  0  0  0
  -24.1902  -13.5004   20.7346 C   0  0  0  0  0  0
  -23.9170  -12.2538   20.4453 C   0  0  0  0  0  0
  -23.5877  -10.7780   20.9621 C   0  0  0  0  0  0
  -24.1183   -9.8250   21.9288 C   0  0  0  0  0  0
  -23.5772   -8.5050   22.0928 C   0  0  0  0  0  0
  -22.4363   -8.1116   21.3521 C   0  0  0  0  0  0
  -21.9423   -9.0120   20.4017 C   0  0  0  0  0  0
  -22.5186  -10.2765   20.2045 C   0  0  0  0  0  0
  -21.7473   -6.0964   22.5307 C   0  0  0  0  0  0
  -21.4462   -6.5826   23.8220 C   0  0  0  0  0  0
  -21.3793   -5.6909   24.9140 C   0  0  0  0  0  0
  -21.6021   -4.3139   24.7180 C   0  0  0  0  0  0
  -21.8764   -3.8244   23.4296 C   0  0  0  0  0  0
  -21.9392   -4.7111   22.3410 C   0  0  0  0  0  0
  -22.6432  -13.9235   21.1525 C   0  0  0  0  0  0
  -22.1765   -4.2257   21.0979 F   0  0  0  0  0  0
  -21.5496   -3.4592   25.7669 F   0  0  0  0  0  0
  -30.3215  -13.3374   20.2495 N   0  0  0  0  0  0
  -26.8150  -13.5773   20.7907 N   0  0  0  0  0  0
  -24.9277  -13.3737   20.6348 N   0  0  0  0  0  0
  -22.0083  -13.1614   22.0652 N   0  0  0  0  0  0
  -26.9130  -15.2784   20.7885 N   0  0  0  0  0  0
  -31.6137  -15.0709   19.9745 O   0  0  0  0  0  0
  -21.7713   -6.9030   21.4181 O   0  0  0  0  0  0
  -22.0649  -14.8404   20.5972 O   0  0  0  0  0  0
  -24.6868  -31.7996   23.1599 C   0  0  0  0  0  0
  -25.9491  -32.4437   23.8082 C   0  0  1  0  0  0
  -26.7128  -26.4653   20.3374 C   0  0  0  0  0  0
  -25.6077  -33.8292   24.1939 N   0  0  0  0  0  0
  -23.4899  -30.4376   21.5190 C   0  0  2  0  0  0
  -24.8636  -28.7862   20.0832 C   0  0  0  0  0  0
  -22.7691  -29.4359   22.4633 C   0  0  0  0  0  0
  -18.0323  -28.1424   22.8442 C   0  0  0  0  0  0
  -24.1493  -36.7147   23.2644 C   0  0  0  0  0  0
  -26.0706  -30.4479   21.4561 C   0  0  0  0  0  0
  -26.0403  -29.0063   20.8042 C   0  0  0  0  0  0
  -26.9908  -27.8571   20.9000 C   0  0  0  0  0  0
  -25.6491  -26.5394   19.4411 C   0  0  0  0  0  0
  -24.7355  -27.6056   19.3502 C   0  0  0  0  0  0
  -23.7249  -29.8016   20.1242 C   0  0  0  0  0  0
  -25.4154  -36.2891   24.0264 C   0  0  1  0  0  0
  -20.5955  -28.3785   23.1103 C   0  0  2  0  0  0
  -20.6800  -26.9439   22.5386 C   0  0  0  0  0  0
  -19.5771  -26.6364   21.5206 C   0  0  0  0  0  0
  -18.1950  -26.7953   22.1609 C   0  0  0  0  0  0
  -19.1589  -28.8921   23.2771 C   0  0  0  0  0  0
  -18.9502  -30.1502   23.8825 C   0  0  0  0  0  0
  -17.6495  -30.6604   24.0550 C   0  0  0  0  0  0
  -25.9157  -34.9285   23.4929 C   0  0  0  0  0  0
  -16.5378  -29.9093   23.6355 C   0  0  0  0  0  0
  -16.7307  -28.6519   23.0364 C   0  0  0  0  0  0
  -26.4627  -31.6533   25.0760 C   0  0  0  0  0  0
  -25.3651  -31.3929   26.1353 C   0  0  0  0  0  0
  -27.0580  -30.2848   24.6796 C   0  0  0  0  0  0
  -27.6063  -32.4426   25.7567 C   0  0  0  0  0  0
  -27.5567  -37.1742   24.8461 C   0  0  0  0  0  0
  -21.4347  -29.3045   22.3413 N   0  0  0  0  0  0
  -26.4266  -37.3670   23.9415 N   0  0  0  0  0  0
  -24.7785  -30.9360   22.0929 N   0  0  0  0  0  0
  -23.4172  -28.7877   23.2889 O   0  0  0  0  0  0
  -27.2559  -25.0126   20.4569 O   0  0  0  0  0  0
  -26.5771  -34.8858   22.4532 O   0  0  0  0  0  0
  -23.5906  -32.1198   23.6523 O   0  0  0  0  0  0
  -25.0560  -14.4097   22.7102 C   0  0  0  0  0  0
  -24.6286  -15.8568   20.9795 C   0  0  0  0  0  0
  -26.1118  -11.5543   20.3017 C   0  0  0  0  0  0
  -25.7829  -13.1682   18.6206 C   0  0  0  0  0  0
  -26.4201  -10.0535   20.0874 C   0  0  0  0  0  0
  -24.6853  -17.8047   20.9509 C   0  0  0  0  0  0
  -26.8952  -13.7141   17.5179 C   0  0  0  0  0  0
  -29.6817  -15.0621   18.3464 C   0  0  0  0  0  0
  -25.7889  -19.5169   20.9813 C   0  0  0  0  0  0
  -28.0519  -14.9546   17.7693 C   0  0  0  0  0  0
  -25.8617  -21.4964   20.4807 C   0  0  0  0  0  0
  -26.6159  -23.3391   20.9122 C   0  0  0  0  0  0
  -25.7382  -12.3506   22.3775 N   0  0  0  0  0  0
  -24.9434  -15.0659   19.0413 N   0  0  0  0  0  0
  -31.7102  -12.4093   18.9380 H   0  0  0  0  0  0
  -30.8390  -11.3285   19.9835 H   0  0  0  0  0  0
  -29.8706  -11.1072   17.7689 H   0  0  0  0  0  0
  -29.6820  -12.7836   17.4814 H   0  0  0  0  0  0
  -28.5877  -11.0722   19.6283 H   0  0  0  0  0  0
  -27.6213  -11.5864   18.3357 H   0  0  0  0  0  0
  -28.2388  -13.9333   19.6181 H   0  0  0  0  0  0
  -29.2592  -12.1112   21.6211 H   0  0  0  0  0  0
  -29.0929  -13.8508   21.8632 H   0  0  0  0  0  0
  -24.9592  -10.0805   22.5528 H   0  0  0  0  0  0
  -24.0211   -7.8287   22.8087 H   0  0  0  0  0  0
  -21.0953   -8.7234   19.7963 H   0  0  0  0  0  0
  -22.0765  -10.9059   19.4433 H   0  0  0  0  0  0
  -21.2675   -7.6363   23.9782 H   0  0  0  0  0  0
  -21.1586   -6.0625   25.9039 H   0  0  0  0  0  0
  -22.0341   -2.7680   23.2741 H   0  0  0  0  0  0
  -22.4936  -12.4038   22.5262 H   0  0  0  0  0  0
  -21.0517  -13.3626   22.3172 H   0  0  0  0  0  0
  -26.6466  -15.9260   21.5132 H   0  0  0  0  0  0
  -26.5021  -15.6942   19.9553 H   0  0  0  0  0  0
  -26.7551  -32.4774   23.0746 H   0  0  0  0  0  0
  -25.0149  -33.9365   25.0037 H   0  0  0  0  0  0
  -22.8178  -31.2859   21.3710 H   0  0  0  0  0  0
  -23.3791  -35.9440   23.3233 H   0  0  0  0  0  0
  -24.3551  -36.8892   22.2073 H   0  0  0  0  0  0
  -23.7205  -37.6284   23.6773 H   0  0  0  0  0  0
  -26.3204  -31.1589   20.6672 H   0  0  0  0  0  0
  -26.9170  -30.4722   22.1288 H   0  0  0  0  0  0
  -27.8576  -27.9806   21.5339 H   0  0  0  0  0  0
  -25.4023  -25.6484   18.8799 H   0  0  0  0  0  0
  -23.8636  -27.4686   18.7261 H   0  0  0  0  0  0
  -23.9612  -30.5882   19.4061 H   0  0  0  0  0  0
  -22.8028  -29.3417   19.7631 H   0  0  0  0  0  0
  -25.1351  -36.1646   25.0751 H   0  0  0  0  0  0
  -21.0063  -28.3443   24.1217 H   0  0  0  0  0  0
  -20.5684  -26.2407   23.3659 H   0  0  0  0  0  0
  -21.6654  -26.7402   22.1175 H   0  0  0  0  0  0
  -19.6936  -25.6253   21.1290 H   0  0  0  0  0  0
  -19.6725  -27.3124   20.6693 H   0  0  0  0  0  0
  -17.4222  -26.6677   21.4015 H   0  0  0  0  0  0
  -18.0348  -26.0123   22.9030 H   0  0  0  0  0  0
  -19.7976  -30.7335   24.2167 H   0  0  0  0  0  0
  -17.5046  -31.6278   24.5164 H   0  0  0  0  0  0
  -15.5374  -30.2973   23.7734 H   0  0  0  0  0  0
  -15.8702  -28.0822   22.7123 H   0  0  0  0  0  0
  -24.5838  -30.7273   25.7671 H   0  0  0  0  0  0
  -24.8842  -32.3186   26.4527 H   0  0  0  0  0  0
  -25.7775  -30.9255   27.0300 H   0  0  0  0  0  0
  -26.3313  -29.6411   24.1836 H   0  0  0  0  0  0
  -27.3963  -29.7367   25.5603 H   0  0  0  0  0  0
  -27.9321  -30.3945   24.0374 H   0  0  0  0  0  0
  -27.2603  -33.3826   26.1879 H   0  0  0  0  0  0
  -28.3998  -32.6843   25.0484 H   0  0  0  0  0  0
  -28.0596  -31.8746   26.5701 H   0  0  0  0  0  0
  -28.2524  -38.0094   24.7541 H   0  0  0  0  0  0
  -28.1117  -36.2617   24.6233 H   0  0  0  0  0  0
  -27.2292  -37.1309   25.8863 H   0  0  0  0  0  0
  -20.9614  -29.8807   21.6595 H   0  0  0  0  0  0
  -26.0080  -38.2713   24.1432 H   0  0  0  0  0  0
  -25.0336  -14.7568   23.7327 H   0  0  0  0  0  0
  -26.9129   -9.6452   20.9695 H   0  0  0  0  0  0
  -27.0115   -9.7947   19.2141 H   0  0  0  0  0  0
  -25.5196   -9.4790   19.8965 H   0  0  0  0  0  0
  -23.9677  -18.0077   21.7459 H   0  0  0  0  0  0
  -24.0970  -17.9625   20.0474 H   0  0  0  0  0  0
  -26.2130  -14.1844   16.8109 H   0  0  0  0  0  0
  -27.2948  -12.9339   16.8716 H   0  0  0  0  0  0
  -29.8446  -16.1386   18.3963 H   0  0  0  0  0  0
  -30.3251  -14.7902   17.5099 H   0  0  0  0  0  0
  -26.7018  -19.1687   20.4971 H   0  0  0  0  0  0
  -26.0800  -19.5509   22.0311 H   0  0  0  0  0  0
  -27.5149  -15.7528   18.2777 H   0  0  0  0  0  0
  -28.1616  -15.3645   16.7643 H   0  0  0  0  0  0
  -24.7976  -21.7354   20.4553 H   0  0  0  0  0  0
  -26.1116  -21.4271   19.4218 H   0  0  0  0  0  0
  -27.5394  -23.0110   21.3889 H   0  0  0  0  0  0
  -25.9900  -23.6220   21.7586 H   0  0  0  0  0  0
  1 25  1  0  0  0
  1 30  2  0  0  0
  1 78  1  0  0  0
  2  3  1  0  0  0
  2 25  1  0  0  0
  2 85  1  0  0  0
  2 86  1  0  0  0
  3  4  1  0  0  0
  3 87  1  0  0  0
  3 88  1  0  0  0
  4  5  1  0  0  0
  4 89  1  0  0  0
  4 90  1  0  0  0
  5  6  1  0  0  0
  5 26  1  0  0  0
  5 91  1  0  0  0
  6 25  1  0  0  0
  6 92  1  0  0  0
  6 93  1  0  0  0
  7  8  2  0  0  0
  7 26  1  0  0  0
  7 29  1  0  0  0
  8  9  1  0  0  0
  8 22  1  0  0  0
  9 10  1  0  0  0
  9 27  2  0  0  0
 10 11  2  0  0  0
 10 15  1  0  0  0
 11 12  1  0  0  0
 11 94  1  0  0  0
 12 13  2  0  0  0
 12 95  1  0  0  0
 13 14  1  0  0  0
 13 31  1  0  0  0
 14 15  2  0  0  0
 14 96  1  0  0  0
 15 97  1  0  0  0
 16 17  2  0  0  0
 16 21  1  0  0  0
 16 31  1  0  0  0
 17 18  1  0  0  0
 17 98  1  0  0  0
 18 19  2  0  0  0
 18 99  1  0  0  0
 19 20  1  0  0  0
 19 24  1  0  0  0
 20 21  2  0  0  0
 20100  1  0  0  0
 21 23  1  0  0  0
 22 28  1  0  0  0
 22 32  2  0  0  0
 26 27  1  0  0  0
 28101  1  0  0  0
 28102  1  0  0  0
 29103  1  0  0  0
 29104  1  0  0  0
 33 34  1  0  0  0
 33 66  1  0  0  0
 33 70  2  0  0  0
 34 36  1  0  0  0
 34 59  1  0  0  0
 34105  1  0  0  0
 35 44  2  0  0  0
 35 45  1  0  0  0
 35 68  1  0  0  0
 36 56  1  0  0  0
 36106  1  0  0  0
 37 39  1  0  0  0
 37 47  1  0  0  0
 37 66  1  0  0  0
 37107  1  0  0  0
 38 43  2  0  0  0
 38 46  1  0  0  0
 38 47  1  0  0  0
 39 64  1  0  0  0
 39 67  2  0  0  0
 40 52  1  0  0  0
 40 53  2  0  0  0
 40 58  1  0  0  0
 41108  1  0  0  0
 41109  1  0  0  0
 41110  1  0  0  0
 41 48  1  0  0  0
 42 43  1  0  0  0
 42 66  1  0  0  0
 42111  1  0  0  0
 42112  1  0  0  0
 43 44  1  0  0  0
 44113  1  0  0  0
 45 46  2  0  0  0
 45114  1  0  0  0
 46115  1  0  0  0
 47116  1  0  0  0
 47117  1  0  0  0
 48 56  1  0  0  0
 48 65  1  0  0  0
 48118  1  0  0  0
 49 50  1  0  0  0
 49 53  1  0  0  0
 49 64  1  0  0  0
 49119  1  0  0  0
 50 51  1  0  0  0
 50120  1  0  0  0
 50121  1  0  0  0
 51 52  1  0  0  0
 51122  1  0  0  0
 51123  1  0  0  0
 52124  1  0  0  0
 52125  1  0  0  0
 53 54  1  0  0  0
 54 55  2  0  0  0
 54126  1  0  0  0
 55 57  1  0  0  0
 55127  1  0  0  0
 56 69  2  0  0  0
 57 58  2  0  0  0
 57128  1  0  0  0
 58129  1  0  0  0
 59 60  1  0  0  0
 59 61  1  0  0  0
 59 62  1  0  0  0
 60130  1  0  0  0
 60131  1  0  0  0
 60132  1  0  0  0
 61133  1  0  0  0
 61134  1  0  0  0
 61135  1  0  0  0
 62136  1  0  0  0
 62137  1  0  0  0
 62138  1  0  0  0
 63 65  1  0  0  0
 63139  1  0  0  0
 63140  1  0  0  0
 63141  1  0  0  0
 64142  1  0  0  0
 65143  1  0  0  0
 68 82  1  0  0  0
 71 72  2  0  0  0
 71 83  1  0  0  0
 71144  1  0  0  0
 72 76  1  0  0  0
 72 84  1  0  0  0
 73 74  1  0  0  0
 73 75  1  0  0  0
 73 83  2  0  0  0
 74 77  1  0  0  0
 74 84  2  0  0  0
 75145  1  0  0  0
 75146  1  0  0  0
 75147  1  0  0  0
 76 79  1  0  0  0
 76148  1  0  0  0
 76149  1  0  0  0
 77 80  1  0  0  0
 77150  1  0  0  0
 77151  1  0  0  0
 78 80  1  0  0  0
 78152  1  0  0  0
 78153  1  0  0  0
 79 81  1  0  0  0
 79154  1  0  0  0
 79155  1  0  0  0
 80156  1  0  0  0
 80157  1  0  0  0
 81 82  1  0  0  0
 81158  1  0  0  0
 81159  1  0  0  0
 82160  1  0  0  0
 82161  1  0  0  0
M  ISO  4   1 100  68 101  78 100  82 101
M  END
> <chiral flag>
0

> <version>
0

> <s_m_source_file>
/data/baiqing/PycharmProjects/Reinvent-master-3.2/result/LINK_invent/BTK/process_docking_weight1_custom_sum_contain_oxygen_bond_distance_aromatic_linkinvent_7_9_3/rearranged_h_0076.sdf

> <i_m_source_file_index>
50

> <r_mmod_Potential_Energy-OPLS-2005>
21869.353515625

> <r_mmod_Stretch_Energy-OPLS-2005>
12418.4638671875

> <r_mmod_Bend_Energy-OPLS-2005>
2645.5947265625

> <r_mmod_Torsional_Energy-OPLS-2005>
556.016235351562

> <r_mmod_Improper_Torsional_Energy-OPLS-2005>
87.7907333374023

> <r_mmod_Van_der_Waal_Energy-OPLS-2005>
4581.00048828125

> <r_mmod_Electrostatic_Energy-OPLS-2005>
-298.863739013672

> <r_mmod_Solvation_Energy-OPLS-2005>
-217.496826171875

> <b_mmod_Minimization_Converged-OPLS-2005>
0

> <r_mmod_RMS_Derivative-OPLS-2005>
4.48126649856567

$$$$
50
                    3D
 Structure written by MMmdl.
164172  0  0  1  0            999 V2000
  -30.6796  -14.7395   20.3854 C   0  0  0  0  0  0
  -30.4339  -12.4639   19.4363 C   0  0  0  0  0  0
  -29.4896  -12.5082   18.2169 C   0  0  0  0  0  0
  -28.0289  -12.3172   18.6579 C   0  0  0  0  0  0
  -27.6396  -13.2263   19.8511 C   0  0  2  0  0  0
  -28.7037  -13.1834   20.9710 C   0  0  0  0  0  0
  -25.2528  -13.8253   20.5654 C   0  0  0  0  0  0
  -24.1827  -13.0468   20.9256 C   0  0  0  0  0  0
  -24.6396  -11.6932   20.8787 C   0  0  0  0  0  0
  -23.9045  -10.4257   21.0429 C   0  0  0  0  0  0
  -24.3540   -9.4129   21.9223 C   0  0  0  0  0  0
  -23.6210   -8.2133   22.0753 C   0  0  0  0  0  0
  -22.4205   -8.0211   21.3517 C   0  0  0  0  0  0
  -21.9827   -9.0238   20.4676 C   0  0  0  0  0  0
  -22.7168  -10.2134   20.3111 C   0  0  0  0  0  0
  -21.6812   -6.0600   22.5247 C   0  0  0  0  0  0
  -21.3983   -6.5517   23.8184 C   0  0  0  0  0  0
  -21.3677   -5.6727   24.9196 C   0  0  0  0  0  0
  -21.6054   -4.2971   24.7261 C   0  0  0  0  0  0
  -21.8857   -3.8013   23.4393 C   0  0  0  0  0  0
  -21.9177   -4.6813   22.3412 C   0  0  0  0  0  0
  -22.7873  -13.5279   21.1872 C   0  0  0  0  0  0
  -22.1688   -4.1995   21.0987 F   0  0  0  0  0  0
  -21.5683   -3.4490   25.7792 F   0  0  0  0  0  0
  -29.9992  -13.5355   20.3651 N   0  0  0  0  0  0
  -26.2953  -12.9412   20.3370 N   0  0  0  0  0  0
  -25.9327  -11.6588   20.5889 N   0  0  0  0  0  0
  -22.0420  -12.8300   22.0401 N   0  0  0  0  0  0
  -25.4315  -15.1915   20.3838 N   0  0  0  0  0  0
  -31.8991  -14.6722   20.2469 O   0  0  0  0  0  0
  -21.6589   -6.8753   21.4202 O   0  0  0  0  0  0
  -22.3551  -14.5511   20.6624 O   0  0  0  0  0  0
  -24.6214  -31.8529   23.1956 C   0  0  0  0  0  0
  -25.9052  -32.4746   23.8298 C   0  0  1  0  0  0
  -27.2469  -27.3021   20.1304 C   0  0  0  0  0  0
  -25.5850  -33.8552   24.2218 N   0  0  0  0  0  0
  -23.4196  -30.4677   21.5399 C   0  0  2  0  0  0
  -24.8765  -28.9108   20.1306 C   0  0  0  0  0  0
  -22.7430  -29.4601   22.4976 C   0  0  0  0  0  0
  -18.0249  -28.1377   22.8452 C   0  0  0  0  0  0
  -24.1495  -36.7329   23.2642 C   0  0  0  0  0  0
  -25.9574  -30.7818   21.3678 C   0  0  0  0  0  0
  -26.0442  -29.3988   20.7287 C   0  0  0  0  0  0
  -27.2312  -28.6033   20.7215 C   0  0  0  0  0  0
  -26.0500  -26.8659   19.5099 C   0  0  0  0  0  0
  -24.8810  -27.6450   19.5210 C   0  0  0  0  0  0
  -23.6386  -29.7824   20.1668 C   0  0  0  0  0  0
  -25.4119  -36.3072   24.0307 C   0  0  1  0  0  0
  -20.5826  -28.3686   23.1273 C   0  0  2  0  0  0
  -20.6760  -26.9413   22.5407 C   0  0  0  0  0  0
  -19.5769  -26.6379   21.5178 C   0  0  0  0  0  0
  -18.1932  -26.7900   22.1587 C   0  0  0  0  0  0
  -19.1502  -28.8840   23.2837 C   0  0  0  0  0  0
  -18.9461  -30.1436   23.8870 C   0  0  0  0  0  0
  -17.6471  -30.6588   24.0553 C   0  0  0  0  0  0
  -25.9044  -34.9437   23.5078 C   0  0  0  0  0  0
  -16.5353  -29.9085   23.6334 C   0  0  0  0  0  0
  -16.7248  -28.6508   23.0340 C   0  0  0  0  0  0
  -26.4459  -31.6539   25.0653 C   0  0  0  0  0  0
  -25.3685  -31.3665   26.1375 C   0  0  0  0  0  0
  -27.0305  -30.2957   24.6104 C   0  0  0  0  0  0
  -27.6019  -32.4272   25.7425 C   0  0  0  0  0  0
  -27.5577  -37.1803   24.8452 C   0  0  0  0  0  0
  -21.4150  -29.3039   22.3689 N   0  0  0  0  0  0
  -26.4286  -37.3767   23.9389 N   0  0  0  0  0  0
  -24.6866  -31.0498   22.0929 N   0  0  0  0  0  0
  -23.4127  -28.8173   23.3105 O   0  0  0  0  0  0
  -28.3819  -26.4656   20.1262 O   0  0  0  0  0  0
  -26.5665  -34.8905   22.4686 O   0  0  0  0  0  0
  -23.5366  -32.1375   23.7244 O   0  0  0  0  0  0
  -29.9661  -19.9213   20.0225 C   0  0  0  0  0  0
  -29.8653  -21.2931   20.4926 C   0  0  0  0  0  0
  -30.7281  -18.9467   20.7660 C   0  0  0  0  0  0
  -30.5522  -21.5404   21.7151 C   0  0  0  0  0  0
  -30.4644  -22.8309   22.5061 C   0  0  0  0  0  0
  -32.1501  -17.5254   19.2028 C   0  0  0  0  0  0
  -29.4963  -16.3411   18.7695 C   0  0  0  0  0  0
  -28.8688  -16.5197   21.1941 C   0  0  0  0  0  0
  -29.0247  -22.3997   19.7262 C   0  0  0  0  0  0
  -29.3352  -23.9849   19.8306 C   0  0  0  0  0  0
  -28.2179  -25.0016   20.3506 C   0  0  0  0  0  0
  -31.1066  -17.4564   20.3420 C   0  0  2  0  0  0
  -30.0376  -16.2325   20.2227 C   0  0  0  0  0  0
  -31.3961  -19.3588   21.8768 N   0  0  0  0  0  0
  -31.3123  -20.6058   22.3340 N   0  0  0  0  0  0
  -31.4639  -12.5780   19.0892 H   0  0  0  0  0  0
  -30.3967  -11.4908   19.9253 H   0  0  0  0  0  0
  -29.7670  -11.7444   17.4872 H   0  0  0  0  0  0
  -29.5970  -13.4637   17.7075 H   0  0  0  0  0  0
  -27.9204  -11.2760   18.9623 H   0  0  0  0  0  0
  -27.3708  -12.4883   17.8020 H   0  0  0  0  0  0
  -27.6074  -14.2284   19.4449 H   0  0  0  0  0  0
  -28.7325  -12.1793   21.4024 H   0  0  0  0  0  0
  -28.4838  -13.8456   21.8105 H   0  0  0  0  0  0
  -25.2641   -9.5524   22.4899 H   0  0  0  0  0  0
  -23.9873   -7.4432   22.7414 H   0  0  0  0  0  0
  -21.0772   -8.8735   19.8949 H   0  0  0  0  0  0
  -22.3603  -10.9693   19.6247 H   0  0  0  0  0  0
  -21.1987   -7.6031   23.9643 H   0  0  0  0  0  0
  -21.1505   -6.0472   25.9115 H   0  0  0  0  0  0
  -22.0619   -2.7451   23.2959 H   0  0  0  0  0  0
  -22.3958  -11.9909   22.4694 H   0  0  0  0  0  0
  -21.1048  -13.1408   22.2506 H   0  0  0  0  0  0
  -24.6841  -15.8719   20.4831 H   0  0  0  0  0  0
  -26.2943  -15.5879   20.0266 H   0  0  0  0  0  0
  -26.7102  -32.5474   23.1045 H   0  0  0  0  0  0
  -24.9842  -33.9689   25.0242 H   0  0  0  0  0  0
  -22.7156  -31.2863   21.3826 H   0  0  0  0  0  0
  -23.3722  -35.9686   23.3281 H   0  0  0  0  0  0
  -24.3619  -36.9030   22.2076 H   0  0  0  0  0  0
  -23.7306  -37.6537   23.6714 H   0  0  0  0  0  0
  -26.0581  -31.5273   20.5794 H   0  0  0  0  0  0
  -26.8424  -30.8633   21.9866 H   0  0  0  0  0  0
  -28.1286  -28.9665   21.2058 H   0  0  0  0  0  0
  -25.9923  -25.9131   19.0080 H   0  0  0  0  0  0
  -23.9834  -27.2552   19.0616 H   0  0  0  0  0  0
  -23.7500  -30.5408   19.3921 H   0  0  0  0  0  0
  -22.7638  -29.1959   19.8776 H   0  0  0  0  0  0
  -25.1303  -36.1924   25.0791 H   0  0  0  0  0  0
  -20.9856  -28.3271   24.1420 H   0  0  0  0  0  0
  -20.5643  -26.2299   23.3605 H   0  0  0  0  0  0
  -21.6638  -26.7468   22.1239 H   0  0  0  0  0  0
  -19.6973  -25.6280   21.1251 H   0  0  0  0  0  0
  -19.6717  -27.3137   20.6662 H   0  0  0  0  0  0
  -17.4192  -26.6563   21.4008 H   0  0  0  0  0  0
  -18.0400  -26.0027   22.8991 H   0  0  0  0  0  0
  -19.7948  -30.7217   24.2234 H   0  0  0  0  0  0
  -17.5063  -31.6267   24.5147 H   0  0  0  0  0  0
  -15.5357  -30.3021   23.7685 H   0  0  0  0  0  0
  -15.8628  -28.0849   22.7071 H   0  0  0  0  0  0
  -24.5837  -30.7047   25.7701 H   0  0  0  0  0  0
  -24.8851  -32.2797   26.4820 H   0  0  0  0  0  0
  -25.7961  -30.8816   27.0149 H   0  0  0  0  0  0
  -26.2851  -29.6685   24.1178 H   0  0  0  0  0  0
  -27.4069  -29.7260   25.4619 H   0  0  0  0  0  0
  -27.8685  -30.4256   23.9250 H   0  0  0  0  0  0
  -27.2626  -33.3588   26.1965 H   0  0  0  0  0  0
  -28.3807  -32.6809   25.0218 H   0  0  0  0  0  0
  -28.0657  -31.8395   26.5359 H   0  0  0  0  0  0
  -28.2558  -38.0127   24.7514 H   0  0  0  0  0  0
  -28.1105  -36.2670   24.6236 H   0  0  0  0  0  0
  -27.2300  -37.1413   25.8849 H   0  0  0  0  0  0
  -20.9336  -29.8784   21.6920 H   0  0  0  0  0  0
  -26.0175  -38.2843   24.1373 H   0  0  0  0  0  0
  -29.4684  -19.6259   19.1050 H   0  0  0  0  0  0
  -31.2666  -23.5197   22.2216 H   0  0  0  0  0  0
  -30.5174  -22.6444   23.5828 H   0  0  0  0  0  0
  -29.5007  -23.3033   22.3431 H   0  0  0  0  0  0
  -33.0432  -18.0509   19.5413 H   0  0  0  0  0  0
  -31.7820  -18.0400   18.3164 H   0  0  0  0  0  0
  -32.4754  -16.5364   18.8874 H   0  0  0  0  0  0
  -30.1912  -15.8817   18.0640 H   0  0  0  0  0  0
  -29.3468  -17.3747   18.4495 H   0  0  0  0  0  0
  -28.5418  -15.8506   18.6188 H   0  0  0  0  0  0
  -28.4508  -17.5111   20.9861 H   0  0  0  0  0  0
  -28.0429  -15.8199   21.0758 H   0  0  0  0  0  0
  -29.1758  -16.5109   22.2422 H   0  0  0  0  0  0
  -27.9574  -22.2084   19.8808 H   0  0  0  0  0  0
  -29.1674  -22.1485   18.6688 H   0  0  0  0  0  0
  -29.5805  -24.3182   18.8214 H   0  0  0  0  0  0
  -30.2571  -24.1649   20.3699 H   0  0  0  0  0  0
  -27.2756  -24.6269   19.9643 H   0  0  0  0  0  0
  -28.1420  -24.8756   21.4310 H   0  0  0  0  0  0
  -31.7106  -17.1158   21.1898 H   0  0  0  0  0  0
  1 25  1  0  0  0
  1 30  2  0  0  0
  1 83  1  0  0  0
  2  3  1  0  0  0
  2 25  1  0  0  0
  2 86  1  0  0  0
  2 87  1  0  0  0
  3  4  1  0  0  0
  3 88  1  0  0  0
  3 89  1  0  0  0
  4  5  1  0  0  0
  4 90  1  0  0  0
  4 91  1  0  0  0
  5  6  1  0  0  0
  5 26  1  0  0  0
  5 92  1  0  0  0
  6 25  1  0  0  0
  6 93  1  0  0  0
  6 94  1  0  0  0
  7  8  2  0  0  0
  7 26  1  0  0  0
  7 29  1  0  0  0
  8  9  1  0  0  0
  8 22  1  0  0  0
  9 10  1  0  0  0
  9 27  2  0  0  0
 10 11  2  0  0  0
 10 15  1  0  0  0
 11 12  1  0  0  0
 11 95  1  0  0  0
 12 13  2  0  0  0
 12 96  1  0  0  0
 13 14  1  0  0  0
 13 31  1  0  0  0
 14 15  2  0  0  0
 14 97  1  0  0  0
 15 98  1  0  0  0
 16 17  2  0  0  0
 16 21  1  0  0  0
 16 31  1  0  0  0
 17 18  1  0  0  0
 17 99  1  0  0  0
 18 19  2  0  0  0
 18100  1  0  0  0
 19 20  1  0  0  0
 19 24  1  0  0  0
 20 21  2  0  0  0
 20101  1  0  0  0
 21 23  1  0  0  0
 22 28  1  0  0  0
 22 32  2  0  0  0
 26 27  1  0  0  0
 28102  1  0  0  0
 28103  1  0  0  0
 29104  1  0  0  0
 29105  1  0  0  0
 33 34  1  0  0  0
 33 66  1  0  0  0
 33 70  2  0  0  0
 34 36  1  0  0  0
 34 59  1  0  0  0
 34106  1  0  0  0
 35 44  2  0  0  0
 35 45  1  0  0  0
 35 68  1  0  0  0
 36 56  1  0  0  0
 36107  1  0  0  0
 37 39  1  0  0  0
 37 47  1  0  0  0
 37 66  1  0  0  0
 37108  1  0  0  0
 38 43  2  0  0  0
 38 46  1  0  0  0
 38 47  1  0  0  0
 39 64  1  0  0  0
 39 67  2  0  0  0
 40 52  1  0  0  0
 40 53  2  0  0  0
 40 58  1  0  0  0
 41109  1  0  0  0
 41110  1  0  0  0
 41111  1  0  0  0
 41 48  1  0  0  0
 42 43  1  0  0  0
 42 66  1  0  0  0
 42112  1  0  0  0
 42113  1  0  0  0
 43 44  1  0  0  0
 44114  1  0  0  0
 45 46  2  0  0  0
 45115  1  0  0  0
 46116  1  0  0  0
 47117  1  0  0  0
 47118  1  0  0  0
 48 56  1  0  0  0
 48 65  1  0  0  0
 48119  1  0  0  0
 49 50  1  0  0  0
 49 53  1  0  0  0
 49 64  1  0  0  0
 49120  1  0  0  0
 50 51  1  0  0  0
 50121  1  0  0  0
 50122  1  0  0  0
 51 52  1  0  0  0
 51123  1  0  0  0
 51124  1  0  0  0
 52125  1  0  0  0
 52126  1  0  0  0
 53 54  1  0  0  0
 54 55  2  0  0  0
 54127  1  0  0  0
 55 57  1  0  0  0
 55128  1  0  0  0
 56 69  2  0  0  0
 57 58  2  0  0  0
 57129  1  0  0  0
 58130  1  0  0  0
 59 60  1  0  0  0
 59 61  1  0  0  0
 59 62  1  0  0  0
 60131  1  0  0  0
 60132  1  0  0  0
 60133  1  0  0  0
 61134  1  0  0  0
 61135  1  0  0  0
 61136  1  0  0  0
 62137  1  0  0  0
 62138  1  0  0  0
 62139  1  0  0  0
 63 65  1  0  0  0
 63140  1  0  0  0
 63141  1  0  0  0
 63142  1  0  0  0
 64143  1  0  0  0
 65144  1  0  0  0
 68 81  1  0  0  0
 71 72  2  0  0  0
 71 73  1  0  0  0
 71145  1  0  0  0
 72 74  1  0  0  0
 72 79  1  0  0  0
 73 82  1  0  0  0
 73 84  2  0  0  0
 74 75  1  0  0  0
 74 85  2  0  0  0
 75146  1  0  0  0
 75147  1  0  0  0
 75148  1  0  0  0
 76149  1  0  0  0
 76150  1  0  0  0
 76151  1  0  0  0
 76 82  1  0  0  0
 77152  1  0  0  0
 77153  1  0  0  0
 77154  1  0  0  0
 77 83  1  0  0  0
 78 83  1  0  0  0
 78155  1  0  0  0
 78156  1  0  0  0
 78157  1  0  0  0
 79 80  1  0  0  0
 79158  1  0  0  0
 79159  1  0  0  0
 80 81  1  0  0  0
 80160  1  0  0  0
 80161  1  0  0  0
 81162  1  0  0  0
 81163  1  0  0  0
 82 83  1  0  0  0
 82164  1  0  0  0
 84 85  1  0  0  0
M  ISO  4   1 100  68 101  81 101  83 100
M  END
> <chiral flag>
0

> <version>
0

> <s_m_source_file>
/data/baiqing/PycharmProjects/Reinvent-master-3.2/result/LINK_invent/BTK/process_docking_weight1_custom_sum_contain_oxygen_bond_distance_aromatic_linkinvent_7_9_3/rearranged_h_0076.sdf

> <i_m_source_file_index>
51

> <r_mmod_Potential_Energy-OPLS-2005>
286.918304443359

> <r_mmod_Stretch_Energy-OPLS-2005>
124.286018371582

> <r_mmod_Bend_Energy-OPLS-2005>
203.333099365234

> <r_mmod_Torsional_Energy-OPLS-2005>
230.691986083984

> <r_mmod_Improper_Torsional_Energy-OPLS-2005>
8.85583114624023

> <r_mmod_Van_der_Waal_Energy-OPLS-2005>
161.140411376953

> <r_mmod_Electrostatic_Energy-OPLS-2005>
-307.565979003906

> <r_mmod_Solvation_Energy-OPLS-2005>
-211.80322265625

> <b_mmod_Minimization_Converged-OPLS-2005>
0

> <r_mmod_RMS_Derivative-OPLS-2005>
10.5864877700806

$$$$
51
                    3D
 Structure written by MMmdl.
163171  0  0  1  0            999 V2000
  -30.7191  -14.4620   20.5540 C   0  0  0  0  0  0
  -30.4131  -12.2924   19.4322 C   0  0  0  0  0  0
  -29.4956  -12.4961   18.2091 C   0  0  0  0  0  0
  -28.0165  -12.3647   18.6198 C   0  0  0  0  0  0
  -27.6606  -13.2108   19.8727 C   0  0  2  0  0  0
  -28.7001  -13.0107   21.0002 C   0  0  0  0  0  0
  -25.2584  -13.8168   20.5670 C   0  0  0  0  0  0
  -24.1847  -13.0441   20.9189 C   0  0  0  0  0  0
  -24.6404  -11.6912   20.8734 C   0  0  0  0  0  0
  -23.9067  -10.4296   21.0397 C   0  0  0  0  0  0
  -24.3616   -9.4215   21.9180 C   0  0  0  0  0  0
  -23.6296   -8.2250   22.0748 C   0  0  0  0  0  0
  -22.4280   -8.0284   21.3538 C   0  0  0  0  0  0
  -21.9915   -9.0259   20.4640 C   0  0  0  0  0  0
  -22.7238  -10.2142   20.3051 C   0  0  0  0  0  0
  -21.6862   -6.0742   22.5287 C   0  0  0  0  0  0
  -21.4015   -6.5639   23.8220 C   0  0  0  0  0  0
  -21.3656   -5.6790   24.9176 C   0  0  0  0  0  0
  -21.6041   -4.3052   24.7231 C   0  0  0  0  0  0
  -21.8819   -3.8149   23.4349 C   0  0  0  0  0  0
  -21.9193   -4.6966   22.3404 C   0  0  0  0  0  0
  -22.7871  -13.5239   21.1852 C   0  0  0  0  0  0
  -22.1668   -4.2153   21.0984 F   0  0  0  0  0  0
  -21.5623   -3.4532   25.7739 F   0  0  0  0  0  0
  -30.0332  -13.2917   20.4450 N   0  0  0  0  0  0
  -26.3020  -12.9353   20.3350 N   0  0  0  0  0  0
  -25.9329  -11.6506   20.5760 N   0  0  0  0  0  0
  -22.0497  -12.8236   22.0396 N   0  0  0  0  0  0
  -25.4297  -15.1879   20.4071 N   0  0  0  0  0  0
  -31.8519  -14.6149   20.0924 O   0  0  0  0  0  0
  -21.6641   -6.8884   21.4247 O   0  0  0  0  0  0
  -22.3566  -14.5548   20.6698 O   0  0  0  0  0  0
  -24.6143  -31.8660   23.2097 C   0  0  0  0  0  0
  -25.9047  -32.4812   23.8383 C   0  0  1  0  0  0
  -27.2276  -27.4320   20.0960 C   0  0  0  0  0  0
  -25.5914  -33.8607   24.2313 N   0  0  0  0  0  0
  -23.4022  -30.4931   21.5479 C   0  0  2  0  0  0
  -24.8494  -28.9659   20.1061 C   0  0  0  0  0  0
  -22.7412  -29.4657   22.4948 C   0  0  0  0  0  0
  -18.0271  -28.1380   22.8478 C   0  0  0  0  0  0
  -24.1501  -36.7304   23.2641 C   0  0  0  0  0  0
  -25.9317  -30.8354   21.3620 C   0  0  0  0  0  0
  -26.0106  -29.4719   20.7059 C   0  0  0  0  0  0
  -27.2054  -28.7130   20.6967 C   0  0  0  0  0  0
  -26.0533  -26.9537   19.4727 C   0  0  0  0  0  0
  -24.8673  -27.7073   19.4839 C   0  0  0  0  0  0
  -23.6095  -29.8291   20.1604 C   0  0  0  0  0  0
  -25.4114  -36.3098   24.0340 C   0  0  1  0  0  0
  -20.5865  -28.3663   23.1303 C   0  0  2  0  0  0
  -20.6763  -26.9396   22.5410 C   0  0  0  0  0  0
  -19.5752  -26.6379   21.5208 C   0  0  0  0  0  0
  -18.1921  -26.7929   22.1607 C   0  0  0  0  0  0
  -19.1523  -28.8836   23.2893 C   0  0  0  0  0  0
  -18.9460  -30.1445   23.8898 C   0  0  0  0  0  0
  -17.6461  -30.6581   24.0565 C   0  0  0  0  0  0
  -25.9034  -34.9463   23.5114 C   0  0  0  0  0  0
  -16.5349  -29.9081   23.6328 C   0  0  0  0  0  0
  -16.7264  -28.6505   23.0342 C   0  0  0  0  0  0
  -26.4475  -31.6597   25.0707 C   0  0  0  0  0  0
  -25.3743  -31.3718   26.1457 C   0  0  0  0  0  0
  -27.0310  -30.3039   24.6091 C   0  0  0  0  0  0
  -27.6048  -32.4312   25.7472 C   0  0  0  0  0  0
  -27.5576  -37.1808   24.8461 C   0  0  0  0  0  0
  -21.4132  -29.3037   22.3723 N   0  0  0  0  0  0
  -26.4293  -37.3785   23.9413 N   0  0  0  0  0  0
  -24.6674  -31.0794   22.0977 N   0  0  0  0  0  0
  -23.4200  -28.8183   23.2968 O   0  0  0  0  0  0
  -28.3651  -26.6490   20.1194 O   0  0  0  0  0  0
  -26.5594  -34.8912   22.4674 O   0  0  0  0  0  0
  -23.5341  -32.1374   23.7507 O   0  0  0  0  0  0
  -31.1394  -21.9182   20.3539 C   0  0  0  0  0  0
  -31.8975  -20.7528   20.1968 C   0  0  0  0  0  0
  -29.8314  -21.7656   20.8335 C   0  0  0  0  0  0
  -30.1325  -19.4668   20.9198 C   0  0  0  0  0  0
  -33.3271  -20.7860   19.7013 C   0  0  0  0  0  0
  -28.1569  -17.8637   20.9112 C   0  0  0  0  0  0
  -29.6970  -17.9828   22.9178 C   0  0  0  0  0  0
  -28.9095  -22.9524   21.1207 C   0  0  0  0  0  0
  -29.2252  -24.2969   20.4059 C   0  0  0  0  0  0
  -30.4824  -16.9119   20.7730 C   0  0  0  0  0  0
  -28.1757  -25.3720   20.7631 C   0  0  0  0  0  0
  -29.6159  -18.0681   21.3811 C   0  0  0  0  0  0
  -31.3935  -19.5455   20.4989 N   0  0  0  0  0  0
  -29.3489  -20.5347   21.1230 N   0  0  0  0  0  0
  -30.0304  -15.5217   21.0164 N   0  0  0  0  0  0
  -31.4616  -12.3649   19.1373 H   0  0  0  0  0  0
  -30.2899  -11.2866   19.8355 H   0  0  0  0  0  0
  -29.7340  -11.7646   17.4355 H   0  0  0  0  0  0
  -29.6708  -13.4780   17.7670 H   0  0  0  0  0  0
  -27.8260  -11.3102   18.8213 H   0  0  0  0  0  0
  -27.3664  -12.6335   17.7861 H   0  0  0  0  0  0
  -27.7019  -14.2562   19.5677 H   0  0  0  0  0  0
  -28.6675  -11.9859   21.3724 H   0  0  0  0  0  0
  -28.4688  -13.6423   21.8591 H   0  0  0  0  0  0
  -25.2765   -9.5693   22.4747 H   0  0  0  0  0  0
  -24.0008   -7.4640   22.7465 H   0  0  0  0  0  0
  -21.0850   -8.8772   19.8947 H   0  0  0  0  0  0
  -22.3696  -10.9674   19.6155 H   0  0  0  0  0  0
  -21.2009   -7.6152   23.9727 H   0  0  0  0  0  0
  -21.1475   -6.0517   25.9080 H   0  0  0  0  0  0
  -22.0598   -2.7614   23.2848 H   0  0  0  0  0  0
  -22.4114  -11.9905   22.4798 H   0  0  0  0  0  0
  -21.1098  -13.1244   22.2556 H   0  0  0  0  0  0
  -24.6593  -15.8383   20.5128 H   0  0  0  0  0  0
  -26.2739  -15.6251   20.0617 H   0  0  0  0  0  0
  -26.7109  -32.5515   23.1135 H   0  0  0  0  0  0
  -25.0112  -33.9778   25.0495 H   0  0  0  0  0  0
  -22.6902  -31.3090   21.4091 H   0  0  0  0  0  0
  -23.3753  -35.9646   23.3306 H   0  0  0  0  0  0
  -24.3592  -36.8905   22.2052 H   0  0  0  0  0  0
  -23.7250  -37.6510   23.6640 H   0  0  0  0  0  0
  -26.0485  -31.6074   20.6001 H   0  0  0  0  0  0
  -26.8176  -30.8802   21.9836 H   0  0  0  0  0  0
  -28.0975  -29.0951   21.1713 H   0  0  0  0  0  0
  -26.0474  -25.9922   18.9782 H   0  0  0  0  0  0
  -23.9773  -27.3166   19.0090 H   0  0  0  0  0  0
  -23.7091  -30.6024   19.3980 H   0  0  0  0  0  0
  -22.7349  -29.2441   19.8680 H   0  0  0  0  0  0
  -25.1295  -36.1956   25.0832 H   0  0  0  0  0  0
  -20.9958  -28.3212   24.1422 H   0  0  0  0  0  0
  -20.5681  -26.2251   23.3591 H   0  0  0  0  0  0
  -21.6637  -26.7436   22.1203 H   0  0  0  0  0  0
  -19.6924  -25.6296   21.1228 H   0  0  0  0  0  0
  -19.6716  -27.3201   20.6759 H   0  0  0  0  0  0
  -17.4204  -26.6674   21.4007 H   0  0  0  0  0  0
  -18.0313  -26.0075   22.9007 H   0  0  0  0  0  0
  -19.7945  -30.7258   24.2263 H   0  0  0  0  0  0
  -17.5022  -31.6272   24.5162 H   0  0  0  0  0  0
  -15.5353  -30.2994   23.7668 H   0  0  0  0  0  0
  -15.8654  -28.0845   22.7046 H   0  0  0  0  0  0
  -24.5941  -30.7032   25.7803 H   0  0  0  0  0  0
  -24.8925  -32.2890   26.4849 H   0  0  0  0  0  0
  -25.8107  -30.8935   27.0238 H   0  0  0  0  0  0
  -26.2863  -29.6800   24.1132 H   0  0  0  0  0  0
  -27.4065  -29.7268   25.4550 H   0  0  0  0  0  0
  -27.8697  -30.4345   23.9246 H   0  0  0  0  0  0
  -27.2667  -33.3611   26.2052 H   0  0  0  0  0  0
  -28.3866  -32.6866   25.0309 H   0  0  0  0  0  0
  -28.0699  -31.8428   26.5392 H   0  0  0  0  0  0
  -28.2597  -38.0100   24.7500 H   0  0  0  0  0  0
  -28.1069  -36.2631   24.6299 H   0  0  0  0  0  0
  -27.2293  -37.1455   25.8863 H   0  0  0  0  0  0
  -20.9267  -29.8762   21.6966 H   0  0  0  0  0  0
  -26.0178  -38.2866   24.1409 H   0  0  0  0  0  0
  -31.5608  -22.8884   20.1300 H   0  0  0  0  0  0
  -33.5590  -21.7407   19.2286 H   0  0  0  0  0  0
  -33.4971  -19.9959   18.9685 H   0  0  0  0  0  0
  -34.0204  -20.6384   20.5297 H   0  0  0  0  0  0
  -27.5016  -18.6397   21.3076 H   0  0  0  0  0  0
  -27.7468  -16.9107   21.2422 H   0  0  0  0  0  0
  -28.0888  -17.9015   19.8241 H   0  0  0  0  0  0
  -29.0881  -18.7572   23.3851 H   0  0  0  0  0  0
  -30.7227  -18.1277   23.2590 H   0  0  0  0  0  0
  -29.3538  -17.0187   23.2917 H   0  0  0  0  0  0
  -28.9174  -23.1137   22.1990 H   0  0  0  0  0  0
  -27.8915  -22.6515   20.8674 H   0  0  0  0  0  0
  -29.2370  -24.1430   19.3263 H   0  0  0  0  0  0
  -30.2147  -24.6527   20.6905 H   0  0  0  0  0  0
  -31.5060  -17.0018   21.1417 H   0  0  0  0  0  0
  -30.5416  -17.0561   19.6922 H   0  0  0  0  0  0
  -28.1920  -25.5375   21.8418 H   0  0  0  0  0  0
  -27.1953  -24.9464   20.5481 H   0  0  0  0  0  0
  -29.1014  -15.3668   21.3749 H   0  0  0  0  0  0
  1 25  1  0  0  0
  1 30  2  0  0  0
  1 85  1  0  0  0
  2  3  1  0  0  0
  2 25  1  0  0  0
  2 86  1  0  0  0
  2 87  1  0  0  0
  3  4  1  0  0  0
  3 88  1  0  0  0
  3 89  1  0  0  0
  4  5  1  0  0  0
  4 90  1  0  0  0
  4 91  1  0  0  0
  5  6  1  0  0  0
  5 26  1  0  0  0
  5 92  1  0  0  0
  6 25  1  0  0  0
  6 93  1  0  0  0
  6 94  1  0  0  0
  7  8  2  0  0  0
  7 26  1  0  0  0
  7 29  1  0  0  0
  8  9  1  0  0  0
  8 22  1  0  0  0
  9 10  1  0  0  0
  9 27  2  0  0  0
 10 11  2  0  0  0
 10 15  1  0  0  0
 11 12  1  0  0  0
 11 95  1  0  0  0
 12 13  2  0  0  0
 12 96  1  0  0  0
 13 14  1  0  0  0
 13 31  1  0  0  0
 14 15  2  0  0  0
 14 97  1  0  0  0
 15 98  1  0  0  0
 16 17  2  0  0  0
 16 21  1  0  0  0
 16 31  1  0  0  0
 17 18  1  0  0  0
 17 99  1  0  0  0
 18 19  2  0  0  0
 18100  1  0  0  0
 19 20  1  0  0  0
 19 24  1  0  0  0
 20 21  2  0  0  0
 20101  1  0  0  0
 21 23  1  0  0  0
 22 28  1  0  0  0
 22 32  2  0  0  0
 26 27  1  0  0  0
 28102  1  0  0  0
 28103  1  0  0  0
 29104  1  0  0  0
 29105  1  0  0  0
 33 34  1  0  0  0
 33 66  1  0  0  0
 33 70  2  0  0  0
 34 36  1  0  0  0
 34 59  1  0  0  0
 34106  1  0  0  0
 35 44  2  0  0  0
 35 45  1  0  0  0
 35 68  1  0  0  0
 36 56  1  0  0  0
 36107  1  0  0  0
 37 39  1  0  0  0
 37 47  1  0  0  0
 37 66  1  0  0  0
 37108  1  0  0  0
 38 43  2  0  0  0
 38 46  1  0  0  0
 38 47  1  0  0  0
 39 64  1  0  0  0
 39 67  2  0  0  0
 40 52  1  0  0  0
 40 53  2  0  0  0
 40 58  1  0  0  0
 41109  1  0  0  0
 41110  1  0  0  0
 41111  1  0  0  0
 41 48  1  0  0  0
 42 43  1  0  0  0
 42 66  1  0  0  0
 42112  1  0  0  0
 42113  1  0  0  0
 43 44  1  0  0  0
 44114  1  0  0  0
 45 46  2  0  0  0
 45115  1  0  0  0
 46116  1  0  0  0
 47117  1  0  0  0
 47118  1  0  0  0
 48 56  1  0  0  0
 48 65  1  0  0  0
 48119  1  0  0  0
 49 50  1  0  0  0
 49 53  1  0  0  0
 49 64  1  0  0  0
 49120  1  0  0  0
 50 51  1  0  0  0
 50121  1  0  0  0
 50122  1  0  0  0
 51 52  1  0  0  0
 51123  1  0  0  0
 51124  1  0  0  0
 52125  1  0  0  0
 52126  1  0  0  0
 53 54  1  0  0  0
 54 55  2  0  0  0
 54127  1  0  0  0
 55 57  1  0  0  0
 55128  1  0  0  0
 56 69  2  0  0  0
 57 58  2  0  0  0
 57129  1  0  0  0
 58130  1  0  0  0
 59 60  1  0  0  0
 59 61  1  0  0  0
 59 62  1  0  0  0
 60131  1  0  0  0
 60132  1  0  0  0
 60133  1  0  0  0
 61134  1  0  0  0
 61135  1  0  0  0
 61136  1  0  0  0
 62137  1  0  0  0
 62138  1  0  0  0
 62139  1  0  0  0
 63 65  1  0  0  0
 63140  1  0  0  0
 63141  1  0  0  0
 63142  1  0  0  0
 64143  1  0  0  0
 65144  1  0  0  0
 68 81  1  0  0  0
 71 72  2  0  0  0
 71 73  1  0  0  0
 71145  1  0  0  0
 72 75  1  0  0  0
 72 83  1  0  0  0
 73 78  1  0  0  0
 73 84  2  0  0  0
 74 82  1  0  0  0
 74 83  2  0  0  0
 74 84  1  0  0  0
 75146  1  0  0  0
 75147  1  0  0  0
 75148  1  0  0  0
 76149  1  0  0  0
 76150  1  0  0  0
 76151  1  0  0  0
 76 82  1  0  0  0
 77 82  1  0  0  0
 77152  1  0  0  0
 77153  1  0  0  0
 77154  1  0  0  0
 78 79  1  0  0  0
 78155  1  0  0  0
 78156  1  0  0  0
 79 81  1  0  0  0
 79157  1  0  0  0
 79158  1  0  0  0
 80 82  1  0  0  0
 80 85  1  0  0  0
 80159  1  0  0  0
 80160  1  0  0  0
 81161  1  0  0  0
 81162  1  0  0  0
 85163  1  0  0  0
M  ISO  4   1 100  68 101  81 101  85 100
M  END
> <chiral flag>
0

> <version>
0

> <s_m_source_file>
/data/baiqing/PycharmProjects/Reinvent-master-3.2/result/LINK_invent/BTK/process_docking_weight1_custom_sum_contain_oxygen_bond_distance_aromatic_linkinvent_7_9_3/rearranged_h_0076.sdf

> <i_m_source_file_index>
52

> <r_mmod_Potential_Energy-OPLS-2005>
-520.560546875

> <r_mmod_Stretch_Energy-OPLS-2005>
41.1072731018066

> <r_mmod_Bend_Energy-OPLS-2005>
103.614906311035

> <r_mmod_Torsional_Energy-OPLS-2005>
216.538879394531

> <r_mmod_Improper_Torsional_Energy-OPLS-2005>
5.54414796829224

> <r_mmod_Van_der_Waal_Energy-OPLS-2005>
167.244857788086

> <r_mmod_Electrostatic_Energy-OPLS-2005>
-847.040466308594

> <r_mmod_Solvation_Energy-OPLS-2005>
-222.017486572266

> <b_mmod_Minimization_Converged-OPLS-2005>
0

> <r_mmod_RMS_Derivative-OPLS-2005>
2.40639114379883

$$$$
52
                    3D
 Structure written by MMmdl.
170178  0  0  1  0            999 V2000
  -30.7195  -14.4360   20.6251 C   0  0  0  0  0  0
  -30.4185  -12.3103   19.4155 C   0  0  0  0  0  0
  -29.4945  -12.5332   18.2013 C   0  0  0  0  0  0
  -28.0124  -12.3917   18.6024 C   0  0  0  0  0  0
  -27.6604  -13.2089   19.8765 C   0  0  2  0  0  0
  -28.6969  -12.9761   20.9953 C   0  0  0  0  0  0
  -25.2547  -13.8076   20.5557 C   0  0  0  0  0  0
  -24.1831  -13.0365   20.9108 C   0  0  0  0  0  0
  -24.6395  -11.6859   20.8721 C   0  0  0  0  0  0
  -23.9067  -10.4241   21.0378 C   0  0  0  0  0  0
  -24.3622   -9.4153   21.9154 C   0  0  0  0  0  0
  -23.6296   -8.2195   22.0726 C   0  0  0  0  0  0
  -22.4267   -8.0238   21.3530 C   0  0  0  0  0  0
  -21.9879   -9.0229   20.4652 C   0  0  0  0  0  0
  -22.7212  -10.2093   20.3072 C   0  0  0  0  0  0
  -21.6811   -6.0727   22.5296 C   0  0  0  0  0  0
  -21.3992   -6.5642   23.8214 C   0  0  0  0  0  0
  -21.3663   -5.6794   24.9203 C   0  0  0  0  0  0
  -21.6026   -4.3062   24.7260 C   0  0  0  0  0  0
  -21.8797   -3.8135   23.4394 C   0  0  0  0  0  0
  -21.9169   -4.6952   22.3428 C   0  0  0  0  0  0
  -22.7856  -13.5214   21.1793 C   0  0  0  0  0  0
  -22.1648   -4.2136   21.1021 F   0  0  0  0  0  0
  -21.5641   -3.4549   25.7783 F   0  0  0  0  0  0
  -30.0324  -13.2762   20.4517 N   0  0  0  0  0  0
  -26.3011  -12.9289   20.3324 N   0  0  0  0  0  0
  -25.9329  -11.6439   20.5740 N   0  0  0  0  0  0
  -22.0498  -12.8249   22.0379 N   0  0  0  0  0  0
  -25.4177  -15.1790   20.3813 N   0  0  0  0  0  0
  -31.8147  -14.6592   20.1083 O   0  0  0  0  0  0
  -21.6600   -6.8877   21.4247 O   0  0  0  0  0  0
  -22.3566  -14.5530   20.6654 O   0  0  0  0  0  0
  -24.6171  -31.8663   23.2142 C   0  0  0  0  0  0
  -25.9075  -32.4804   23.8407 C   0  0  1  0  0  0
  -27.2170  -27.4369   20.0757 C   0  0  0  0  0  0
  -25.5928  -33.8603   24.2349 N   0  0  0  0  0  0
  -23.4017  -30.4931   21.5553 C   0  0  2  0  0  0
  -24.8367  -28.9619   20.1148 C   0  0  0  0  0  0
  -22.7411  -29.4661   22.5045 C   0  0  0  0  0  0
  -18.0283  -28.1347   22.8481 C   0  0  0  0  0  0
  -24.1471  -36.7274   23.2643 C   0  0  0  0  0  0
  -25.9315  -30.8282   21.3686 C   0  0  0  0  0  0
  -26.0010  -29.4680   20.7072 C   0  0  0  0  0  0
  -27.1921  -28.7105   20.6880 C   0  0  0  0  0  0
  -26.0338  -26.9534   19.4665 C   0  0  0  0  0  0
  -24.8470  -27.7032   19.4942 C   0  0  0  0  0  0
  -23.5995  -29.8241   20.1702 C   0  0  0  0  0  0
  -25.4095  -36.3098   24.0358 C   0  0  1  0  0  0
  -20.5867  -28.3624   23.1313 C   0  0  2  0  0  0
  -20.6769  -26.9372   22.5377 C   0  0  0  0  0  0
  -19.5760  -26.6381   21.5155 C   0  0  0  0  0  0
  -18.1941  -26.7918   22.1573 C   0  0  0  0  0  0
  -19.1528  -28.8814   23.2895 C   0  0  0  0  0  0
  -18.9463  -30.1426   23.8907 C   0  0  0  0  0  0
  -17.6459  -30.6568   24.0558 C   0  0  0  0  0  0
  -25.9020  -34.9459   23.5152 C   0  0  0  0  0  0
  -16.5354  -29.9058   23.6329 C   0  0  0  0  0  0
  -16.7267  -28.6458   23.0378 C   0  0  0  0  0  0
  -26.4515  -31.6592   25.0732 C   0  0  0  0  0  0
  -25.3807  -31.3664   26.1495 C   0  0  0  0  0  0
  -27.0371  -30.3050   24.6118 C   0  0  0  0  0  0
  -27.6101  -32.4334   25.7457 C   0  0  0  0  0  0
  -27.5585  -37.1784   24.8479 C   0  0  0  0  0  0
  -21.4153  -29.3015   22.3755 N   0  0  0  0  0  0
  -26.4292  -37.3782   23.9439 N   0  0  0  0  0  0
  -24.6689  -31.0766   22.1034 N   0  0  0  0  0  0
  -23.4185  -28.8193   23.3077 O   0  0  0  0  0  0
  -28.3925  -26.7141   20.1033 O   0  0  0  0  0  0
  -26.5570  -34.8921   22.4705 O   0  0  0  0  0  0
  -23.5376  -32.1431   23.7544 O   0  0  0  0  0  0
  -28.2187  -19.4479   20.7456 C   0  0  0  0  0  0
  -27.4215  -20.0780   21.7153 C   0  0  0  0  0  0
  -27.7117  -19.7435   23.0592 C   0  0  0  0  0  0
  -29.4274  -18.3861   22.3588 C   0  0  0  0  0  0
  -27.7831  -21.2163   25.1215 C   0  0  0  0  0  0
  -26.2815  -19.1509   25.0749 C   0  0  0  0  0  0
  -30.7880  -14.9488   23.5429 C   0  0  0  0  0  0
  -30.5066  -17.3648   22.7103 C   0  0  0  0  0  0
  -27.5637  -24.5049   20.8601 C   0  0  0  0  0  0
  -27.4872  -22.9918   20.5833 C   0  0  0  0  0  0
  -28.3527  -25.3123   19.8029 C   0  0  0  0  0  0
  -26.5761  -22.2915   21.6045 C   0  0  0  0  0  0
  -26.9220  -20.2796   24.2523 C   0  0  0  0  0  0
  -30.0304  -15.8891   22.5827 C   0  0  1  0  0  0
  -29.2243  -18.6110   21.0660 N   0  0  0  0  0  0
  -28.7230  -18.9010   23.3596 N   0  0  0  0  0  0
  -30.0241  -15.4436   21.1748 N   0  0  0  0  0  0
  -26.4011  -20.9079   21.3165 O   0  0  0  0  0  0
  -31.4652  -12.4115   19.1195 H   0  0  0  0  0  0
  -30.3075  -11.2950   19.7979 H   0  0  0  0  0  0
  -29.7380  -11.8276   17.4063 H   0  0  0  0  0  0
  -29.6644  -13.5302   17.7906 H   0  0  0  0  0  0
  -27.8034  -11.3347   18.7612 H   0  0  0  0  0  0
  -27.3713  -12.7032   17.7748 H   0  0  0  0  0  0
  -27.7080  -14.2626   19.5968 H   0  0  0  0  0  0
  -28.6683  -11.9407   21.3367 H   0  0  0  0  0  0
  -28.4495  -13.5842   21.8666 H   0  0  0  0  0  0
  -25.2759   -9.5631   22.4737 H   0  0  0  0  0  0
  -24.0003   -7.4595   22.7447 H   0  0  0  0  0  0
  -21.0764   -8.8792   19.9006 H   0  0  0  0  0  0
  -22.3647  -10.9691   19.6262 H   0  0  0  0  0  0
  -21.1985   -7.6147   23.9743 H   0  0  0  0  0  0
  -21.1511   -6.0536   25.9101 H   0  0  0  0  0  0
  -22.0564   -2.7591   23.2935 H   0  0  0  0  0  0
  -22.4096  -11.9964   22.4893 H   0  0  0  0  0  0
  -21.1135  -13.1333   22.2577 H   0  0  0  0  0  0
  -24.6306  -15.8181   20.4124 H   0  0  0  0  0  0
  -26.2604  -15.5985   20.0094 H   0  0  0  0  0  0
  -26.7133  -32.5470   23.1144 H   0  0  0  0  0  0
  -25.0153  -33.9742   25.0547 H   0  0  0  0  0  0
  -22.6923  -31.3115   21.4185 H   0  0  0  0  0  0
  -23.3761  -35.9579   23.3329 H   0  0  0  0  0  0
  -24.3560  -36.8845   22.2053 H   0  0  0  0  0  0
  -23.7179  -37.6475   23.6622 H   0  0  0  0  0  0
  -26.0633  -31.6030   20.6131 H   0  0  0  0  0  0
  -26.8157  -30.8642   21.9919 H   0  0  0  0  0  0
  -28.0923  -29.0946   21.1474 H   0  0  0  0  0  0
  -25.9962  -25.9962   18.9690 H   0  0  0  0  0  0
  -23.9506  -27.3109   19.0325 H   0  0  0  0  0  0
  -23.6979  -30.5954   19.4043 H   0  0  0  0  0  0
  -22.7233  -29.2389   19.8831 H   0  0  0  0  0  0
  -25.1272  -36.1968   25.0852 H   0  0  0  0  0  0
  -20.9965  -28.3169   24.1430 H   0  0  0  0  0  0
  -20.5621  -26.2235   23.3551 H   0  0  0  0  0  0
  -21.6649  -26.7379   22.1199 H   0  0  0  0  0  0
  -19.6914  -25.6292   21.1192 H   0  0  0  0  0  0
  -19.6739  -27.3183   20.6688 H   0  0  0  0  0  0
  -17.4212  -26.6675   21.3984 H   0  0  0  0  0  0
  -18.0355  -26.0033   22.8941 H   0  0  0  0  0  0
  -19.7932  -30.7244   24.2296 H   0  0  0  0  0  0
  -17.4999  -31.6245   24.5171 H   0  0  0  0  0  0
  -15.5350  -30.2948   23.7667 H   0  0  0  0  0  0
  -15.8660  -28.0750   22.7153 H   0  0  0  0  0  0
  -24.5956  -30.7050   25.7820 H   0  0  0  0  0  0
  -24.9038  -32.2808   26.5042 H   0  0  0  0  0  0
  -25.8192  -30.8747   27.0187 H   0  0  0  0  0  0
  -26.2903  -29.6750   24.1281 H   0  0  0  0  0  0
  -27.4280  -29.7349   25.4549 H   0  0  0  0  0  0
  -27.8673  -30.4396   23.9182 H   0  0  0  0  0  0
  -27.2739  -33.3618   26.2086 H   0  0  0  0  0  0
  -28.3862  -32.6935   25.0244 H   0  0  0  0  0  0
  -28.0845  -31.8444   26.5315 H   0  0  0  0  0  0
  -28.2624  -38.0056   24.7547 H   0  0  0  0  0  0
  -28.1068  -36.2616   24.6303 H   0  0  0  0  0  0
  -27.2316  -37.1420   25.8877 H   0  0  0  0  0  0
  -20.9350  -29.8716   21.6936 H   0  0  0  0  0  0
  -26.0198  -38.2865   24.1449 H   0  0  0  0  0  0
  -28.0454  -19.6193   19.6944 H   0  0  0  0  0  0
  -28.0967  -22.0956   24.5605 H   0  0  0  0  0  0
  -28.6864  -20.7151   25.4692 H   0  0  0  0  0  0
  -27.2369  -21.5584   26.0008 H   0  0  0  0  0  0
  -25.6557  -18.5220   24.4409 H   0  0  0  0  0  0
  -25.6551  -19.5633   25.8671 H   0  0  0  0  0  0
  -27.0312  -18.5089   25.5370 H   0  0  0  0  0  0
  -31.8576  -14.9309   23.3301 H   0  0  0  0  0  0
  -30.3994  -13.9308   23.4883 H   0  0  0  0  0  0
  -30.6673  -15.2714   24.5792 H   0  0  0  0  0  0
  -30.8272  -17.5656   23.7348 H   0  0  0  0  0  0
  -31.3893  -17.5495   22.0957 H   0  0  0  0  0  0
  -28.0074  -24.6790   21.8407 H   0  0  0  0  0  0
  -26.5444  -24.8774   20.9350 H   0  0  0  0  0  0
  -28.4895  -22.5647   20.6211 H   0  0  0  0  0  0
  -27.1045  -22.8126   19.5766 H   0  0  0  0  0  0
  -27.9831  -25.1383   18.7918 H   0  0  0  0  0  0
  -29.3833  -24.9579   19.7920 H   0  0  0  0  0  0
  -25.5890  -22.7509   21.5863 H   0  0  0  0  0  0
  -26.9656  -22.4594   22.6050 H   0  0  0  0  0  0
  -26.0793  -20.8577   23.8750 H   0  0  0  0  0  0
  -28.9918  -15.8632   22.9134 H   0  0  0  0  0  0
  -30.0621  -16.2559   20.5724 H   0  0  0  0  0  0
  1 25  1  0  0  0
  1 30  2  0  0  0
  1 87  1  0  0  0
  2  3  1  0  0  0
  2 25  1  0  0  0
  2 89  1  0  0  0
  2 90  1  0  0  0
  3  4  1  0  0  0
  3 91  1  0  0  0
  3 92  1  0  0  0
  4  5  1  0  0  0
  4 93  1  0  0  0
  4 94  1  0  0  0
  5  6  1  0  0  0
  5 26  1  0  0  0
  5 95  1  0  0  0
  6 25  1  0  0  0
  6 96  1  0  0  0
  6 97  1  0  0  0
  7  8  2  0  0  0
  7 26  1  0  0  0
  7 29  1  0  0  0
  8  9  1  0  0  0
  8 22  1  0  0  0
  9 10  1  0  0  0
  9 27  2  0  0  0
 10 11  2  0  0  0
 10 15  1  0  0  0
 11 12  1  0  0  0
 11 98  1  0  0  0
 12 13  2  0  0  0
 12 99  1  0  0  0
 13 14  1  0  0  0
 13 31  1  0  0  0
 14 15  2  0  0  0
 14100  1  0  0  0
 15101  1  0  0  0
 16 17  2  0  0  0
 16 21  1  0  0  0
 16 31  1  0  0  0
 17 18  1  0  0  0
 17102  1  0  0  0
 18 19  2  0  0  0
 18103  1  0  0  0
 19 20  1  0  0  0
 19 24  1  0  0  0
 20 21  2  0  0  0
 20104  1  0  0  0
 21 23  1  0  0  0
 22 28  1  0  0  0
 22 32  2  0  0  0
 26 27  1  0  0  0
 28105  1  0  0  0
 28106  1  0  0  0
 29107  1  0  0  0
 29108  1  0  0  0
 33 34  1  0  0  0
 33 66  1  0  0  0
 33 70  2  0  0  0
 34 36  1  0  0  0
 34 59  1  0  0  0
 34109  1  0  0  0
 35 44  2  0  0  0
 35 45  1  0  0  0
 35 68  1  0  0  0
 36 56  1  0  0  0
 36110  1  0  0  0
 37 39  1  0  0  0
 37 47  1  0  0  0
 37 66  1  0  0  0
 37111  1  0  0  0
 38 43  2  0  0  0
 38 46  1  0  0  0
 38 47  1  0  0  0
 39 64  1  0  0  0
 39 67  2  0  0  0
 40 52  1  0  0  0
 40 53  2  0  0  0
 40 58  1  0  0  0
 41112  1  0  0  0
 41113  1  0  0  0
 41114  1  0  0  0
 41 48  1  0  0  0
 42 43  1  0  0  0
 42 66  1  0  0  0
 42115  1  0  0  0
 42116  1  0  0  0
 43 44  1  0  0  0
 44117  1  0  0  0
 45 46  2  0  0  0
 45118  1  0  0  0
 46119  1  0  0  0
 47120  1  0  0  0
 47121  1  0  0  0
 48 56  1  0  0  0
 48 65  1  0  0  0
 48122  1  0  0  0
 49 50  1  0  0  0
 49 53  1  0  0  0
 49 64  1  0  0  0
 49123  1  0  0  0
 50 51  1  0  0  0
 50124  1  0  0  0
 50125  1  0  0  0
 51 52  1  0  0  0
 51126  1  0  0  0
 51127  1  0  0  0
 52128  1  0  0  0
 52129  1  0  0  0
 53 54  1  0  0  0
 54 55  2  0  0  0
 54130  1  0  0  0
 55 57  1  0  0  0
 55131  1  0  0  0
 56 69  2  0  0  0
 57 58  2  0  0  0
 57132  1  0  0  0
 58133  1  0  0  0
 59 60  1  0  0  0
 59 61  1  0  0  0
 59 62  1  0  0  0
 60134  1  0  0  0
 60135  1  0  0  0
 60136  1  0  0  0
 61137  1  0  0  0
 61138  1  0  0  0
 61139  1  0  0  0
 62140  1  0  0  0
 62141  1  0  0  0
 62142  1  0  0  0
 63 65  1  0  0  0
 63143  1  0  0  0
 63144  1  0  0  0
 63145  1  0  0  0
 64146  1  0  0  0
 65147  1  0  0  0
 68 81  1  0  0  0
 71 72  2  0  0  0
 71 85  1  0  0  0
 71148  1  0  0  0
 72 73  1  0  0  0
 72 88  1  0  0  0
 73 83  1  0  0  0
 73 86  2  0  0  0
 74 78  1  0  0  0
 74 85  2  0  0  0
 74 86  1  0  0  0
 75149  1  0  0  0
 75150  1  0  0  0
 75151  1  0  0  0
 75 83  1  0  0  0
 76 83  1  0  0  0
 76152  1  0  0  0
 76153  1  0  0  0
 76154  1  0  0  0
 77155  1  0  0  0
 77156  1  0  0  0
 77157  1  0  0  0
 77 84  1  0  0  0
 78 84  1  0  0  0
 78158  1  0  0  0
 78159  1  0  0  0
 79 80  1  0  0  0
 79 81  1  0  0  0
 79160  1  0  0  0
 79161  1  0  0  0
 80 82  1  0  0  0
 80162  1  0  0  0
 80163  1  0  0  0
 81164  1  0  0  0
 81165  1  0  0  0
 82 88  1  0  0  0
 82166  1  0  0  0
 82167  1  0  0  0
 83168  1  0  0  0
 84 87  1  0  0  0
 84169  1  0  0  0
 87170  1  0  0  0
M  ISO  4   1 100  68 101  81 101  87 100
M  END
> <chiral flag>
0

> <version>
0

> <s_m_source_file>
/data/baiqing/PycharmProjects/Reinvent-master-3.2/result/LINK_invent/BTK/process_docking_weight1_custom_sum_contain_oxygen_bond_distance_aromatic_linkinvent_7_9_3/rearranged_h_0076.sdf

> <i_m_source_file_index>
53

> <r_mmod_Potential_Energy-OPLS-2005>
-272.4365234375

> <r_mmod_Stretch_Energy-OPLS-2005>
35.1700859069824

> <r_mmod_Bend_Energy-OPLS-2005>
115.689033508301

> <r_mmod_Torsional_Energy-OPLS-2005>
259.354644775391

> <r_mmod_Improper_Torsional_Energy-OPLS-2005>
10.6580848693848

> <r_mmod_Van_der_Waal_Energy-OPLS-2005>
160.551406860352

> <r_mmod_Electrostatic_Energy-OPLS-2005>
-661.225708007812

> <r_mmod_Solvation_Energy-OPLS-2005>
-203.94807434082

> <b_mmod_Minimization_Converged-OPLS-2005>
0

> <r_mmod_RMS_Derivative-OPLS-2005>
4.35260152816772

$$$$
53
                    3D
 Structure written by MMmdl.
159167  0  0  1  0            999 V2000
  -30.7205  -14.3817   20.6603 C   0  0  0  0  0  0
  -30.4238  -12.2831   19.4029 C   0  0  0  0  0  0
  -29.4928  -12.5421   18.2004 C   0  0  0  0  0  0
  -28.0126  -12.3955   18.6088 C   0  0  0  0  0  0
  -27.6687  -13.1992   19.8910 C   0  0  2  0  0  0
  -28.7036  -12.9101   21.0023 C   0  0  0  0  0  0
  -25.2574  -13.8154   20.5649 C   0  0  0  0  0  0
  -24.1827  -13.0433   20.9142 C   0  0  0  0  0  0
  -24.6358  -11.6892   20.8695 C   0  0  0  0  0  0
  -23.9029  -10.4280   21.0362 C   0  0  0  0  0  0
  -24.3589   -9.4200   21.9137 C   0  0  0  0  0  0
  -23.6257   -8.2247   22.0747 C   0  0  0  0  0  0
  -22.4239   -8.0272   21.3540 C   0  0  0  0  0  0
  -21.9846   -9.0254   20.4670 C   0  0  0  0  0  0
  -22.7177  -10.2129   20.3058 C   0  0  0  0  0  0
  -21.6850   -6.0726   22.5274 C   0  0  0  0  0  0
  -21.4016   -6.5651   23.8200 C   0  0  0  0  0  0
  -21.3654   -5.6810   24.9167 C   0  0  0  0  0  0
  -21.6029   -4.3069   24.7231 C   0  0  0  0  0  0
  -21.8800   -3.8140   23.4355 C   0  0  0  0  0  0
  -21.9186   -4.6944   22.3408 C   0  0  0  0  0  0
  -22.7846  -13.5235   21.1801 C   0  0  0  0  0  0
  -22.1665   -4.2126   21.0985 F   0  0  0  0  0  0
  -21.5606   -3.4564   25.7749 F   0  0  0  0  0  0
  -30.0507  -13.2141   20.4760 N   0  0  0  0  0  0
  -26.3028  -12.9305   20.3423 N   0  0  0  0  0  0
  -25.9287  -11.6470   20.5751 N   0  0  0  0  0  0
  -22.0495  -12.8265   22.0411 N   0  0  0  0  0  0
  -25.4281  -15.1866   20.3985 N   0  0  0  0  0  0
  -31.7651  -14.6760   20.0706 O   0  0  0  0  0  0
  -21.6627   -6.8855   21.4228 O   0  0  0  0  0  0
  -22.3523  -14.5505   20.6594 O   0  0  0  0  0  0
  -24.6115  -31.8718   23.2127 C   0  0  0  0  0  0
  -25.9020  -32.4837   23.8402 C   0  0  1  0  0  0
  -27.2258  -27.4535   20.1025 C   0  0  0  0  0  0
  -25.5892  -33.8633   24.2351 N   0  0  0  0  0  0
  -23.3978  -30.4946   21.5538 C   0  0  2  0  0  0
  -24.8436  -28.9619   20.1197 C   0  0  0  0  0  0
  -22.7388  -29.4669   22.5011 C   0  0  0  0  0  0
  -18.0259  -28.1380   22.8484 C   0  0  0  0  0  0
  -24.1486  -36.7334   23.2631 C   0  0  0  0  0  0
  -25.9243  -30.8395   21.3665 C   0  0  0  0  0  0
  -26.0017  -29.4729   20.7226 C   0  0  0  0  0  0
  -27.1980  -28.7222   20.7186 C   0  0  0  0  0  0
  -26.0608  -26.9587   19.4810 C   0  0  0  0  0  0
  -24.8656  -27.7005   19.4976 C   0  0  0  0  0  0
  -23.6071  -29.8276   20.1676 C   0  0  0  0  0  0
  -25.4102  -36.3118   24.0333 C   0  0  1  0  0  0
  -20.5843  -28.3671   23.1325 C   0  0  2  0  0  0
  -20.6749  -26.9413   22.5419 C   0  0  0  0  0  0
  -19.5739  -26.6392   21.5202 C   0  0  0  0  0  0
  -18.1914  -26.7923   22.1610 C   0  0  0  0  0  0
  -19.1506  -28.8836   23.2904 C   0  0  0  0  0  0
  -18.9443  -30.1438   23.8932 C   0  0  0  0  0  0
  -17.6451  -30.6593   24.0562 C   0  0  0  0  0  0
  -25.9033  -34.9485   23.5137 C   0  0  0  0  0  0
  -16.5341  -29.9106   23.6302 C   0  0  0  0  0  0
  -16.7250  -28.6511   23.0340 C   0  0  0  0  0  0
  -26.4461  -31.6603   25.0721 C   0  0  0  0  0  0
  -25.3742  -31.3722   26.1490 C   0  0  0  0  0  0
  -27.0282  -30.3035   24.6084 C   0  0  0  0  0  0
  -27.6059  -32.4310   25.7476 C   0  0  0  0  0  0
  -27.5578  -37.1823   24.8458 C   0  0  0  0  0  0
  -21.4120  -29.3046   22.3753 N   0  0  0  0  0  0
  -26.4296  -37.3789   23.9389 N   0  0  0  0  0  0
  -24.6627  -31.0824   22.1030 N   0  0  0  0  0  0
  -23.4163  -28.8211   23.3048 O   0  0  0  0  0  0
  -28.3882  -26.7260   20.0441 O   0  0  0  0  0  0
  -26.5588  -34.8935   22.4695 O   0  0  0  0  0  0
  -23.5321  -32.1463   23.7540 O   0  0  0  0  0  0
  -28.2599  -20.1113   20.0217 C   0  0  0  0  0  0
  -28.0669  -19.7687   22.1769 C   0  0  0  0  0  0
  -27.7944  -20.7130   21.2221 C   0  0  0  0  0  0
  -29.2224  -17.4110   23.6249 C   0  0  0  0  0  0
  -27.1195  -22.0561   21.3387 C   0  0  0  0  0  0
  -28.1237  -23.2155   21.4900 C   0  0  0  0  0  0
  -27.5836  -24.5437   20.9257 C   0  0  0  0  0  0
  -30.2293  -16.6972   21.4105 C   0  0  0  0  0  0
  -28.5595  -25.7328   21.0588 C   0  0  0  0  0  0
  -29.0107  -17.3696   22.0999 C   0  0  2  0  0  0
  -28.7485  -18.9002   20.2162 N   0  0  0  0  0  0
  -28.6697  -18.6873   21.5519 N   0  0  0  0  0  0
  -30.0997  -15.2439   21.4702 N   0  0  0  0  0  0
  -31.4700  -12.3888   19.1067 H   0  0  0  0  0  0
  -30.3171  -11.2543   19.7510 H   0  0  0  0  0  0
  -29.7242  -11.8574   17.3843 H   0  0  0  0  0  0
  -29.6699  -13.5468   17.8109 H   0  0  0  0  0  0
  -27.8126  -11.3350   18.7685 H   0  0  0  0  0  0
  -27.3648  -12.7046   17.7875 H   0  0  0  0  0  0
  -27.7328  -14.2581   19.6384 H   0  0  0  0  0  0
  -28.6580  -11.8589   21.2916 H   0  0  0  0  0  0
  -28.4520  -13.4562   21.9121 H   0  0  0  0  0  0
  -25.2742   -9.5681   22.4687 H   0  0  0  0  0  0
  -23.9957   -7.4662   22.7486 H   0  0  0  0  0  0
  -21.0743   -8.8796   19.9028 H   0  0  0  0  0  0
  -22.3605  -10.9668   19.6190 H   0  0  0  0  0  0
  -21.2040   -7.6166   23.9706 H   0  0  0  0  0  0
  -21.1492   -6.0544   25.9076 H   0  0  0  0  0  0
  -22.0580   -2.7601   23.2875 H   0  0  0  0  0  0
  -21.1092  -13.1285   22.2545 H   0  0  0  0  0  0
  -22.4138  -12.0005   22.4905 H   0  0  0  0  0  0
  -24.6487  -15.8351   20.4470 H   0  0  0  0  0  0
  -26.2862  -15.6251   20.0845 H   0  0  0  0  0  0
  -26.7095  -32.5562   23.1183 H   0  0  0  0  0  0
  -25.0037  -33.9785   25.0490 H   0  0  0  0  0  0
  -22.6854  -31.3098   21.4145 H   0  0  0  0  0  0
  -23.3731  -35.9685   23.3316 H   0  0  0  0  0  0
  -24.3582  -36.8921   22.2038 H   0  0  0  0  0  0
  -23.7268  -37.6560   23.6636 H   0  0  0  0  0  0
  -26.0276  -31.6028   20.5947 H   0  0  0  0  0  0
  -26.8159  -30.9010   21.9790 H   0  0  0  0  0  0
  -28.0973  -29.1091   21.1781 H   0  0  0  0  0  0
  -26.0759  -26.0034   18.9753 H   0  0  0  0  0  0
  -23.9800  -27.3055   19.0175 H   0  0  0  0  0  0
  -23.7185  -30.6027   19.4089 H   0  0  0  0  0  0
  -22.7316  -29.2480   19.8684 H   0  0  0  0  0  0
  -25.1276  -36.1989   25.0823 H   0  0  0  0  0  0
  -20.9914  -28.3242   24.1452 H   0  0  0  0  0  0
  -20.5635  -26.2285   23.3609 H   0  0  0  0  0  0
  -21.6627  -26.7469   22.1224 H   0  0  0  0  0  0
  -19.6925  -25.6304   21.1230 H   0  0  0  0  0  0
  -19.6676  -27.3209   20.6736 H   0  0  0  0  0  0
  -17.4175  -26.6651   21.4026 H   0  0  0  0  0  0
  -18.0345  -26.0072   22.9017 H   0  0  0  0  0  0
  -19.7928  -30.7223   24.2339 H   0  0  0  0  0  0
  -17.5018  -31.6275   24.5169 H   0  0  0  0  0  0
  -15.5344  -30.3032   23.7610 H   0  0  0  0  0  0
  -15.8641  -28.0844   22.7055 H   0  0  0  0  0  0
  -24.5898  -30.7079   25.7848 H   0  0  0  0  0  0
  -24.8955  -32.2886   26.4950 H   0  0  0  0  0  0
  -25.8101  -30.8891   27.0241 H   0  0  0  0  0  0
  -26.2833  -29.6830   24.1090 H   0  0  0  0  0  0
  -27.3998  -29.7226   25.4537 H   0  0  0  0  0  0
  -27.8685  -30.4335   23.9264 H   0  0  0  0  0  0
  -27.2688  -33.3582   26.2115 H   0  0  0  0  0  0
  -28.3844  -32.6906   25.0294 H   0  0  0  0  0  0
  -28.0764  -31.8396   26.5343 H   0  0  0  0  0  0
  -28.2613  -38.0104   24.7475 H   0  0  0  0  0  0
  -28.1062  -36.2633   24.6324 H   0  0  0  0  0  0
  -27.2300  -37.1523   25.8867 H   0  0  0  0  0  0
  -20.9297  -29.8782   21.6984 H   0  0  0  0  0  0
  -26.0199  -38.2868   24.1386 H   0  0  0  0  0  0
  -28.2243  -20.5068   19.0159 H   0  0  0  0  0  0
  -27.8565  -19.7705   23.2370 H   0  0  0  0  0  0
  -29.9732  -18.1548   23.8952 H   0  0  0  0  0  0
  -29.5647  -16.4474   24.0042 H   0  0  0  0  0  0
  -28.2981  -17.6494   24.1519 H   0  0  0  0  0  0
  -26.4097  -22.0785   22.1663 H   0  0  0  0  0  0
  -26.5149  -22.2237   20.4453 H   0  0  0  0  0  0
  -29.0334  -22.9750   20.9382 H   0  0  0  0  0  0
  -28.4206  -23.3186   22.5348 H   0  0  0  0  0  0
  -26.6345  -24.7971   21.4029 H   0  0  0  0  0  0
  -27.3662  -24.3855   19.8697 H   0  0  0  0  0  0
  -31.1686  -17.0188   21.8628 H   0  0  0  0  0  0
  -30.2946  -16.9656   20.3551 H   0  0  0  0  0  0
  -29.5818  -25.3686   20.9547 H   0  0  0  0  0  0
  -28.4915  -26.1794   22.0524 H   0  0  0  0  0  0
  -28.1326  -16.7497   21.9088 H   0  0  0  0  0  0
  -29.2882  -14.8849   21.9503 H   0  0  0  0  0  0
  1 25  1  0  0  0
  1 30  2  0  0  0
  1 83  1  0  0  0
  2  3  1  0  0  0
  2 25  1  0  0  0
  2 84  1  0  0  0
  2 85  1  0  0  0
  3  4  1  0  0  0
  3 86  1  0  0  0
  3 87  1  0  0  0
  4  5  1  0  0  0
  4 88  1  0  0  0
  4 89  1  0  0  0
  5  6  1  0  0  0
  5 26  1  0  0  0
  5 90  1  0  0  0
  6 25  1  0  0  0
  6 91  1  0  0  0
  6 92  1  0  0  0
  7  8  2  0  0  0
  7 26  1  0  0  0
  7 29  1  0  0  0
  8  9  1  0  0  0
  8 22  1  0  0  0
  9 10  1  0  0  0
  9 27  2  0  0  0
 10 11  2  0  0  0
 10 15  1  0  0  0
 11 12  1  0  0  0
 11 93  1  0  0  0
 12 13  2  0  0  0
 12 94  1  0  0  0
 13 14  1  0  0  0
 13 31  1  0  0  0
 14 15  2  0  0  0
 14 95  1  0  0  0
 15 96  1  0  0  0
 16 17  2  0  0  0
 16 21  1  0  0  0
 16 31  1  0  0  0
 17 18  1  0  0  0
 17 97  1  0  0  0
 18 19  2  0  0  0
 18 98  1  0  0  0
 19 20  1  0  0  0
 19 24  1  0  0  0
 20 21  2  0  0  0
 20 99  1  0  0  0
 21 23  1  0  0  0
 22 28  1  0  0  0
 22 32  2  0  0  0
 26 27  1  0  0  0
 28100  1  0  0  0
 28101  1  0  0  0
 29102  1  0  0  0
 29103  1  0  0  0
 33 34  1  0  0  0
 33 66  1  0  0  0
 33 70  2  0  0  0
 34 36  1  0  0  0
 34 59  1  0  0  0
 34104  1  0  0  0
 35 44  2  0  0  0
 35 45  1  0  0  0
 35 68  1  0  0  0
 36 56  1  0  0  0
 36105  1  0  0  0
 37 39  1  0  0  0
 37 47  1  0  0  0
 37 66  1  0  0  0
 37106  1  0  0  0
 38 43  2  0  0  0
 38 46  1  0  0  0
 38 47  1  0  0  0
 39 64  1  0  0  0
 39 67  2  0  0  0
 40 52  1  0  0  0
 40 53  2  0  0  0
 40 58  1  0  0  0
 41107  1  0  0  0
 41108  1  0  0  0
 41109  1  0  0  0
 41 48  1  0  0  0
 42 43  1  0  0  0
 42 66  1  0  0  0
 42110  1  0  0  0
 42111  1  0  0  0
 43 44  1  0  0  0
 44112  1  0  0  0
 45 46  2  0  0  0
 45113  1  0  0  0
 46114  1  0  0  0
 47115  1  0  0  0
 47116  1  0  0  0
 48 56  1  0  0  0
 48 65  1  0  0  0
 48117  1  0  0  0
 49 50  1  0  0  0
 49 53  1  0  0  0
 49 64  1  0  0  0
 49118  1  0  0  0
 50 51  1  0  0  0
 50119  1  0  0  0
 50120  1  0  0  0
 51 52  1  0  0  0
 51121  1  0  0  0
 51122  1  0  0  0
 52123  1  0  0  0
 52124  1  0  0  0
 53 54  1  0  0  0
 54 55  2  0  0  0
 54125  1  0  0  0
 55 57  1  0  0  0
 55126  1  0  0  0
 56 69  2  0  0  0
 57 58  2  0  0  0
 57127  1  0  0  0
 58128  1  0  0  0
 59 60  1  0  0  0
 59 61  1  0  0  0
 59 62  1  0  0  0
 60129  1  0  0  0
 60130  1  0  0  0
 60131  1  0  0  0
 61132  1  0  0  0
 61133  1  0  0  0
 61134  1  0  0  0
 62135  1  0  0  0
 62136  1  0  0  0
 62137  1  0  0  0
 63 65  1  0  0  0
 63138  1  0  0  0
 63139  1  0  0  0
 63140  1  0  0  0
 64141  1  0  0  0
 65142  1  0  0  0
 68 79  1  0  0  0
 71 73  1  0  0  0
 71 81  2  0  0  0
 71143  1  0  0  0
 72 73  2  0  0  0
 72 82  1  0  0  0
 72144  1  0  0  0
 73 75  1  0  0  0
 74145  1  0  0  0
 74146  1  0  0  0
 74147  1  0  0  0
 74 80  1  0  0  0
 75 76  1  0  0  0
 75148  1  0  0  0
 75149  1  0  0  0
 76 77  1  0  0  0
 76150  1  0  0  0
 76151  1  0  0  0
 77 79  1  0  0  0
 77152  1  0  0  0
 77153  1  0  0  0
 78 80  1  0  0  0
 78 83  1  0  0  0
 78154  1  0  0  0
 78155  1  0  0  0
 79156  1  0  0  0
 79157  1  0  0  0
 80 82  1  0  0  0
 80158  1  0  0  0
 81 82  1  0  0  0
 83159  1  0  0  0
M  ISO  4   1 100  68 101  79 101  83 100
M  END
> <chiral flag>
0

> <version>
0

> <s_m_source_file>
/data/baiqing/PycharmProjects/Reinvent-master-3.2/result/LINK_invent/BTK/process_docking_weight1_custom_sum_contain_oxygen_bond_distance_aromatic_linkinvent_7_9_3/rearranged_h_0076.sdf

> <i_m_source_file_index>
54

> <r_mmod_Potential_Energy-OPLS-2005>
-80.2322845458984

> <r_mmod_Stretch_Energy-OPLS-2005>
31.8418292999268

> <r_mmod_Bend_Energy-OPLS-2005>
88.9326019287109

> <r_mmod_Torsional_Energy-OPLS-2005>
260.089752197266

> <r_mmod_Improper_Torsional_Energy-OPLS-2005>
4.64530658721924

> <r_mmod_Van_der_Waal_Energy-OPLS-2005>
131.443908691406

> <r_mmod_Electrostatic_Energy-OPLS-2005>
-387.745513916016

> <r_mmod_Solvation_Energy-OPLS-2005>
-216.670913696289

> <b_mmod_Minimization_Converged-OPLS-2005>
0

> <r_mmod_RMS_Derivative-OPLS-2005>
2.75627660751343

$$$$
54
                    3D
 Structure written by MMmdl.
166174  0  0  1  0            999 V2000
  -31.3164  -13.5363   20.3209 C   0  0  0  0  0  0
  -30.4846  -11.6678   18.7886 C   0  0  0  0  0  0
  -29.2620  -12.3468   17.3542 C   0  0  0  0  0  0
  -27.8525  -13.6808   18.0088 C   0  0  0  0  0  0
  -27.9740  -13.9590   20.1169 C   0  0  2  0  0  0
  -29.1891  -13.1515   21.1238 C   0  0  0  0  0  0
  -25.8593  -14.9580   20.3527 C   0  0  0  0  0  0
  -23.7793  -13.8685   20.7106 C   0  0  0  0  0  0
  -24.4300  -12.2514   21.2811 C   0  0  0  0  0  0
  -23.8202  -10.7919   21.2546 C   0  0  0  0  0  0
  -24.3279   -9.6872   22.0196 C   0  0  0  0  0  0
  -23.6823   -8.4091   22.0918 C   0  0  0  0  0  0
  -22.4936   -8.1490   21.3664 C   0  0  0  0  0  0
  -22.0586   -9.1680   20.4938 C   0  0  0  0  0  0
  -22.7099  -10.4350   20.4306 C   0  0  0  0  0  0
  -21.7389   -6.1251   22.5119 C   0  0  0  0  0  0
  -21.4352   -6.5986   23.8086 C   0  0  0  0  0  0
  -21.3759   -5.7055   24.9007 C   0  0  0  0  0  0
  -21.6015   -4.3294   24.7049 C   0  0  0  0  0  0
  -21.8745   -3.8459   23.4147 C   0  0  0  0  0  0
  -21.9351   -4.7359   22.3243 C   0  0  0  0  0  0
  -22.3571  -14.0383   20.9747 C   0  0  0  0  0  0
  -22.1767   -4.2457   21.0847 F   0  0  0  0  0  0
  -21.5530   -3.4728   25.7536 F   0  0  0  0  0  0
  -30.4671  -12.4394   20.3828 N   0  0  0  0  0  0
  -26.8697  -13.7284   20.8484 N   0  0  0  0  0  0
  -26.0795  -12.2814   21.3789 N   0  0  0  0  0  0
  -21.8166  -13.1557   21.8275 N   0  0  0  0  0  0
  -26.5320  -16.0744   19.8703 N   0  0  0  0  0  0
  -31.8269  -14.2865   21.1336 O   0  0  0  0  0  0
  -21.7705   -6.9608   21.4096 O   0  0  0  0  0  0
  -21.7504  -14.9545   20.4935 O   0  0  0  0  0  0
  -24.7018  -31.7704   23.1523 C   0  0  0  0  0  0
  -25.9571  -32.4251   23.8015 C   0  0  1  0  0  0
  -26.5268  -26.2221   20.3177 C   0  0  0  0  0  0
  -25.6095  -33.8129   24.1820 N   0  0  0  0  0  0
  -23.5065  -30.4154   21.5146 C   0  0  2  0  0  0
  -24.8508  -28.7297   20.0677 C   0  0  0  0  0  0
  -22.7722  -29.4234   22.4585 C   0  0  0  0  0  0
  -18.0358  -28.1412   22.8476 C   0  0  0  0  0  0
  -24.1517  -36.7031   23.2662 C   0  0  0  0  0  0
  -26.0829  -30.3187   21.4878 C   0  0  0  0  0  0
  -26.0125  -28.8603   20.8266 C   0  0  0  0  0  0
  -26.8729  -27.6160   20.9256 C   0  0  0  0  0  0
  -25.5423  -26.4560   19.3613 C   0  0  0  0  0  0
  -24.7055  -27.5880   19.2793 C   0  0  0  0  0  0
  -23.7442  -29.7823   20.1177 C   0  0  0  0  0  0
  -25.4177  -36.2760   24.0249 C   0  0  1  0  0  0
  -20.5981  -28.3751   23.1105 C   0  0  2  0  0  0
  -20.6781  -26.9388   22.5393 C   0  0  0  0  0  0
  -19.5744  -26.6344   21.5220 C   0  0  0  0  0  0
  -18.1951  -26.7949   22.1642 C   0  0  0  0  0  0
  -19.1626  -28.8908   23.2795 C   0  0  0  0  0  0
  -18.9531  -30.1498   23.8829 C   0  0  0  0  0  0
  -17.6515  -30.6587   24.0548 C   0  0  0  0  0  0
  -25.9177  -34.9164   23.4873 C   0  0  0  0  0  0
  -16.5408  -29.9057   23.6350 C   0  0  0  0  0  0
  -16.7341  -28.6485   23.0371 C   0  0  0  0  0  0
  -26.4669  -31.6476   25.0796 C   0  0  0  0  0  0
  -25.3667  -31.3903   26.1373 C   0  0  0  0  0  0
  -27.0639  -30.2764   24.6996 C   0  0  0  0  0  0
  -27.6054  -32.4450   25.7599 C   0  0  0  0  0  0
  -27.5548  -37.1686   24.8473 C   0  0  0  0  0  0
  -21.4370  -29.2998   22.3376 N   0  0  0  0  0  0
  -26.4259  -37.3559   23.9405 N   0  0  0  0  0  0
  -24.7988  -30.8844   22.0970 N   0  0  0  0  0  0
  -23.4134  -28.7767   23.2908 O   0  0  0  0  0  0
  -26.8559  -24.6428   20.4561 O   0  0  0  0  0  0
  -26.5827  -34.8795   22.4505 O   0  0  0  0  0  0
  -23.6035  -32.1027   23.6347 O   0  0  0  0  0  0
  -24.4770  -14.5490   18.5027 C   0  0  0  0  0  0
  -25.2666  -13.1917   19.3580 C   0  0  0  0  0  0
  -24.2796  -16.8988   20.6479 C   0  0  0  0  0  0
  -24.5634  -15.9038   22.0669 C   0  0  0  0  0  0
  -24.3702  -15.7300   24.6126 C   0  0  0  0  0  0
  -32.2767  -14.9546   18.5309 C   0  0  0  0  0  0
  -26.3606  -11.8894   18.9051 C   0  0  0  0  0  0
  -24.5233  -18.9567   20.6325 C   0  0  0  0  0  0
  -24.5409  -16.6450   23.3900 C   0  0  0  0  0  0
  -28.1667  -11.8250   19.3255 C   0  0  0  0  0  0
  -25.7095  -20.7754   20.4616 C   0  0  0  0  0  0
  -29.9323  -13.9703   18.8639 C   0  0  0  0  0  0
  -25.8525  -22.9554   20.4701 C   0  0  0  0  0  0
  -24.0479  -16.0555   19.1951 N   0  0  0  0  0  0
  -25.1682  -14.2836   22.2129 N   0  0  0  0  0  0
  -31.3523  -13.9536   19.1005 N   0  0  0  0  0  0
  -31.4996  -11.6382   18.3807 H   0  0  0  0  0  0
  -30.3512  -10.5962   18.9494 H   0  0  0  0  0  0
  -28.7765  -11.5107   16.8442 H   0  0  0  0  0  0
  -29.8409  -12.7631   16.5259 H   0  0  0  0  0  0
  -26.9004  -13.6511   17.4868 H   0  0  0  0  0  0
  -28.0483  -14.6633   17.5674 H   0  0  0  0  0  0
  -28.3272  -14.9325   20.4493 H   0  0  0  0  0  0
  -28.7617  -12.4335   21.8258 H   0  0  0  0  0  0
  -29.5050  -13.8925   21.8649 H   0  0  0  0  0  0
  -25.2067   -9.8533   22.6258 H   0  0  0  0  0  0
  -24.0985   -7.6451   22.7330 H   0  0  0  0  0  0
  -21.1863   -8.9948   19.8793 H   0  0  0  0  0  0
  -22.2952  -11.1846   19.7715 H   0  0  0  0  0  0
  -21.2481   -7.6507   23.9698 H   0  0  0  0  0  0
  -21.1574   -6.0759   25.8914 H   0  0  0  0  0  0
  -22.0333   -2.7898   23.2563 H   0  0  0  0  0  0
  -22.3709  -12.4367   22.2638 H   0  0  0  0  0  0
  -20.8367  -13.2284   22.0640 H   0  0  0  0  0  0
  -25.9859  -16.7436   19.3391 H   0  0  0  0  0  0
  -27.5286  -16.2011   19.7815 H   0  0  0  0  0  0
  -26.7610  -32.4493   23.0648 H   0  0  0  0  0  0
  -25.0177  -33.9155   24.9930 H   0  0  0  0  0  0
  -22.8479  -31.2714   21.3596 H   0  0  0  0  0  0
  -23.3802  -35.9336   23.3262 H   0  0  0  0  0  0
  -24.3570  -36.8774   22.2092 H   0  0  0  0  0  0
  -23.7259  -37.6169   23.6806 H   0  0  0  0  0  0
  -26.3792  -31.0083   20.6976 H   0  0  0  0  0  0
  -26.9211  -30.3219   22.1686 H   0  0  0  0  0  0
  -27.7021  -27.6496   21.6202 H   0  0  0  0  0  0
  -25.2464  -25.6116   18.7557 H   0  0  0  0  0  0
  -23.8539  -27.5293   18.6146 H   0  0  0  0  0  0
  -24.0141  -30.5610   19.4050 H   0  0  0  0  0  0
  -22.8136  -29.3546   19.7425 H   0  0  0  0  0  0
  -25.1408  -36.1474   25.0727 H   0  0  0  0  0  0
  -21.0141  -28.3422   24.1203 H   0  0  0  0  0  0
  -20.5644  -26.2373   23.3676 H   0  0  0  0  0  0
  -21.6628  -26.7284   22.1203 H   0  0  0  0  0  0
  -19.6858  -25.6245   21.1272 H   0  0  0  0  0  0
  -19.6688  -27.3136   20.6745 H   0  0  0  0  0  0
  -17.4207  -26.6748   21.4052 H   0  0  0  0  0  0
  -18.0306  -26.0102   22.9041 H   0  0  0  0  0  0
  -19.8003  -30.7345   24.2151 H   0  0  0  0  0  0
  -17.5055  -31.6261   24.5162 H   0  0  0  0  0  0
  -15.5397  -30.2919   23.7695 H   0  0  0  0  0  0
  -15.8767  -28.0762   22.7100 H   0  0  0  0  0  0
  -24.5891  -30.7194   25.7705 H   0  0  0  0  0  0
  -24.8818  -32.3164   26.4470 H   0  0  0  0  0  0
  -25.7794  -30.9297   27.0362 H   0  0  0  0  0  0
  -26.3334  -29.6184   24.2275 H   0  0  0  0  0  0
  -27.4146  -29.7471   25.5865 H   0  0  0  0  0  0
  -27.9341  -30.3761   24.0506 H   0  0  0  0  0  0
  -27.2537  -33.3857   26.1850 H   0  0  0  0  0  0
  -28.4035  -32.6843   25.0563 H   0  0  0  0  0  0
  -28.0560  -31.8837   26.5793 H   0  0  0  0  0  0
  -28.2507  -38.0030   24.7503 H   0  0  0  0  0  0
  -28.1099  -36.2536   24.6332 H   0  0  0  0  0  0
  -27.2258  -37.1362   25.8875 H   0  0  0  0  0  0
  -20.9634  -29.8757   21.6562 H   0  0  0  0  0  0
  -26.0039  -38.2581   24.1421 H   0  0  0  0  0  0
  -24.3892  -14.5016   17.4295 H   0  0  0  0  0  0
  -24.2356  -16.3150   25.5206 H   0  0  0  0  0  0
  -25.2507  -15.0991   24.7523 H   0  0  0  0  0  0
  -23.5008  -15.0800   24.4995 H   0  0  0  0  0  0
  -31.8183  -15.5582   17.7479 H   0  0  0  0  0  0
  -33.1260  -14.4367   18.0850 H   0  0  0  0  0  0
  -32.6717  -15.6491   19.2735 H   0  0  0  0  0  0
  -26.2340  -11.7168   17.8340 H   0  0  0  0  0  0
  -25.9176  -10.9624   19.2723 H   0  0  0  0  0  0
  -24.0242  -19.1643   21.5779 H   0  0  0  0  0  0
  -23.7598  -19.1798   19.8854 H   0  0  0  0  0  0
  -23.6999  -17.3397   23.3572 H   0  0  0  0  0  0
  -25.4444  -17.2499   23.4747 H   0  0  0  0  0  0
  -28.3185  -10.8620   18.8218 H   0  0  0  0  0  0
  -28.1871  -11.3016   20.2800 H   0  0  0  0  0  0
  -26.1766  -20.5781   19.4959 H   0  0  0  0  0  0
  -26.4961  -20.5370   21.1764 H   0  0  0  0  0  0
  -29.7349  -15.0071   19.1696 H   0  0  0  0  0  0
  -30.0616  -14.3613   17.8430 H   0  0  0  0  0  0
  -25.2840  -23.1528   21.3804 H   0  0  0  0  0  0
  -25.1472  -23.1874   19.6716 H   0  0  0  0  0  0
  1 25  1  0  0  0
  1 30  2  0  0  0
  1 86  1  0  0  0
  2  3  1  0  0  0
  2 25  1  0  0  0
  2 87  1  0  0  0
  2 88  1  0  0  0
  3  4  1  0  0  0
  3 89  1  0  0  0
  3 90  1  0  0  0
  4  5  1  0  0  0
  4 91  1  0  0  0
  4 92  1  0  0  0
  5  6  1  0  0  0
  5 26  1  0  0  0
  5 93  1  0  0  0
  6 25  1  0  0  0
  6 94  1  0  0  0
  6 95  1  0  0  0
  7  8  2  0  0  0
  7 26  1  0  0  0
  7 29  1  0  0  0
  8  9  1  0  0  0
  8 22  1  0  0  0
  9 10  1  0  0  0
  9 27  2  0  0  0
 10 11  2  0  0  0
 10 15  1  0  0  0
 11 12  1  0  0  0
 11 96  1  0  0  0
 12 13  2  0  0  0
 12 97  1  0  0  0
 13 14  1  0  0  0
 13 31  1  0  0  0
 14 15  2  0  0  0
 14 98  1  0  0  0
 15 99  1  0  0  0
 16 17  2  0  0  0
 16 21  1  0  0  0
 16 31  1  0  0  0
 17 18  1  0  0  0
 17100  1  0  0  0
 18 19  2  0  0  0
 18101  1  0  0  0
 19 20  1  0  0  0
 19 24  1  0  0  0
 20 21  2  0  0  0
 20102  1  0  0  0
 21 23  1  0  0  0
 22 28  1  0  0  0
 22 32  2  0  0  0
 26 27  1  0  0  0
 28103  1  0  0  0
 28104  1  0  0  0
 29105  1  0  0  0
 29106  1  0  0  0
 33 34  1  0  0  0
 33 66  1  0  0  0
 33 70  2  0  0  0
 34 36  1  0  0  0
 34 59  1  0  0  0
 34107  1  0  0  0
 35 44  2  0  0  0
 35 45  1  0  0  0
 35 68  1  0  0  0
 36 56  1  0  0  0
 36108  1  0  0  0
 37 39  1  0  0  0
 37 47  1  0  0  0
 37 66  1  0  0  0
 37109  1  0  0  0
 38 43  2  0  0  0
 38 46  1  0  0  0
 38 47  1  0  0  0
 39 64  1  0  0  0
 39 67  2  0  0  0
 40 52  1  0  0  0
 40 53  2  0  0  0
 40 58  1  0  0  0
 41110  1  0  0  0
 41111  1  0  0  0
 41112  1  0  0  0
 41 48  1  0  0  0
 42 43  1  0  0  0
 42 66  1  0  0  0
 42113  1  0  0  0
 42114  1  0  0  0
 43 44  1  0  0  0
 44115  1  0  0  0
 45 46  2  0  0  0
 45116  1  0  0  0
 46117  1  0  0  0
 47118  1  0  0  0
 47119  1  0  0  0
 48 56  1  0  0  0
 48 65  1  0  0  0
 48120  1  0  0  0
 49 50  1  0  0  0
 49 53  1  0  0  0
 49 64  1  0  0  0
 49121  1  0  0  0
 50 51  1  0  0  0
 50122  1  0  0  0
 50123  1  0  0  0
 51 52  1  0  0  0
 51124  1  0  0  0
 51125  1  0  0  0
 52126  1  0  0  0
 52127  1  0  0  0
 53 54  1  0  0  0
 54 55  2  0  0  0
 54128  1  0  0  0
 55 57  1  0  0  0
 55129  1  0  0  0
 56 69  2  0  0  0
 57 58  2  0  0  0
 57130  1  0  0  0
 58131  1  0  0  0
 59 60  1  0  0  0
 59 61  1  0  0  0
 59 62  1  0  0  0
 60132  1  0  0  0
 60133  1  0  0  0
 60134  1  0  0  0
 61135  1  0  0  0
 61136  1  0  0  0
 61137  1  0  0  0
 62138  1  0  0  0
 62139  1  0  0  0
 62140  1  0  0  0
 63 65  1  0  0  0
 63141  1  0  0  0
 63142  1  0  0  0
 63143  1  0  0  0
 64144  1  0  0  0
 65145  1  0  0  0
 68 83  1  0  0  0
 71 72  2  0  0  0
 71 84  1  0  0  0
 71146  1  0  0  0
 72 77  1  0  0  0
 72 85  1  0  0  0
 73 74  1  0  0  0
 73 78  1  0  0  0
 73 84  2  0  0  0
 74 79  1  0  0  0
 74 85  2  0  0  0
 75 79  1  0  0  0
 75147  1  0  0  0
 75148  1  0  0  0
 75149  1  0  0  0
 76 86  1  0  0  0
 76150  1  0  0  0
 76151  1  0  0  0
 76152  1  0  0  0
 77 80  1  0  0  0
 77153  1  0  0  0
 77154  1  0  0  0
 78 81  1  0  0  0
 78155  1  0  0  0
 78156  1  0  0  0
 79157  1  0  0  0
 79158  1  0  0  0
 80 82  1  0  0  0
 80159  1  0  0  0
 80160  1  0  0  0
 81 83  1  0  0  0
 81161  1  0  0  0
 81162  1  0  0  0
 82 86  1  0  0  0
 82163  1  0  0  0
 82164  1  0  0  0
 83165  1  0  0  0
 83166  1  0  0  0
M  ISO  4   1 100  68 101  83 101  86 100
M  END
> <chiral flag>
0

> <version>
0

> <s_m_source_file>
/data/baiqing/PycharmProjects/Reinvent-master-3.2/result/LINK_invent/BTK/process_docking_weight1_custom_sum_contain_oxygen_bond_distance_aromatic_linkinvent_7_9_3/rearranged_h_0076.sdf

> <i_m_source_file_index>
55

> <r_mmod_Potential_Energy-OPLS-2005>
26351.099609375

> <r_mmod_Stretch_Energy-OPLS-2005>
15987.587890625

> <r_mmod_Bend_Energy-OPLS-2005>
1406.99621582031

> <r_mmod_Torsional_Energy-OPLS-2005>
475.979766845703

> <r_mmod_Improper_Torsional_Energy-OPLS-2005>
42.9664154052734

> <r_mmod_Van_der_Waal_Energy-OPLS-2005>
5977.0283203125

> <r_mmod_Electrostatic_Energy-OPLS-2005>
-262.921539306641

> <r_mmod_Solvation_Energy-OPLS-2005>
-237.433013916016

> <b_mmod_Minimization_Converged-OPLS-2005>
0

> <r_mmod_RMS_Derivative-OPLS-2005>
8.73396873474121

$$$$
55
                    3D
 Structure written by MMmdl.
164172  0  0  1  0            999 V2000
  -30.7055  -14.5398   20.5179 C   0  0  0  0  0  0
  -30.4242  -12.3352   19.4442 C   0  0  0  0  0  0
  -29.5026  -12.4952   18.2170 C   0  0  0  0  0  0
  -28.0235  -12.3575   18.6271 C   0  0  0  0  0  0
  -27.6591  -13.2194   19.8665 C   0  0  2  0  0  0
  -28.7044  -13.0615   20.9955 C   0  0  0  0  0  0
  -25.2581  -13.8189   20.5693 C   0  0  0  0  0  0
  -24.1847  -13.0445   20.9185 C   0  0  0  0  0  0
  -24.6414  -11.6918   20.8735 C   0  0  0  0  0  0
  -23.9083  -10.4293   21.0393 C   0  0  0  0  0  0
  -24.3631   -9.4205   21.9172 C   0  0  0  0  0  0
  -23.6294   -8.2248   22.0753 C   0  0  0  0  0  0
  -22.4274   -8.0284   21.3548 C   0  0  0  0  0  0
  -21.9917   -9.0259   20.4648 C   0  0  0  0  0  0
  -22.7254  -10.2130   20.3044 C   0  0  0  0  0  0
  -21.6857   -6.0731   22.5276 C   0  0  0  0  0  0
  -21.4017   -6.5637   23.8206 C   0  0  0  0  0  0
  -21.3660   -5.6790   24.9174 C   0  0  0  0  0  0
  -21.6042   -4.3052   24.7223 C   0  0  0  0  0  0
  -21.8821   -3.8140   23.4348 C   0  0  0  0  0  0
  -21.9196   -4.6959   22.3399 C   0  0  0  0  0  0
  -22.7862  -13.5226   21.1826 C   0  0  0  0  0  0
  -22.1662   -4.2142   21.0980 F   0  0  0  0  0  0
  -21.5627   -3.4535   25.7739 F   0  0  0  0  0  0
  -30.0302  -13.3565   20.4320 N   0  0  0  0  0  0
  -26.3028  -12.9382   20.3343 N   0  0  0  0  0  0
  -25.9349  -11.6532   20.5758 N   0  0  0  0  0  0
  -22.0506  -12.8221   22.0390 N   0  0  0  0  0  0
  -25.4284  -15.1915   20.4115 N   0  0  0  0  0  0
  -31.8539  -14.6695   20.0902 O   0  0  0  0  0  0
  -21.6643   -6.8878   21.4238 O   0  0  0  0  0  0
  -22.3545  -14.5528   20.6668 O   0  0  0  0  0  0
  -24.6211  -31.8694   23.2089 C   0  0  0  0  0  0
  -25.9080  -32.4824   23.8410 C   0  0  1  0  0  0
  -27.2072  -27.3621   20.0910 C   0  0  0  0  0  0
  -25.5947  -33.8637   24.2345 N   0  0  0  0  0  0
  -23.4102  -30.4982   21.5519 C   0  0  2  0  0  0
  -24.8501  -28.9729   20.1041 C   0  0  0  0  0  0
  -22.7434  -29.4690   22.4948 C   0  0  0  0  0  0
  -18.0294  -28.1376   22.8493 C   0  0  0  0  0  0
  -24.1493  -36.7282   23.2633 C   0  0  0  0  0  0
  -25.9516  -30.8072   21.3799 C   0  0  0  0  0  0
  -26.0201  -29.4443   20.7134 C   0  0  0  0  0  0
  -27.1999  -28.6470   20.7064 C   0  0  0  0  0  0
  -26.0188  -26.9641   19.4320 C   0  0  0  0  0  0
  -24.8474  -27.7335   19.4604 C   0  0  0  0  0  0
  -23.6188  -29.8479   20.1614 C   0  0  0  0  0  0
  -25.4116  -36.3107   24.0342 C   0  0  1  0  0  0
  -20.5891  -28.3686   23.1285 C   0  0  2  0  0  0
  -20.6797  -26.9419   22.5398 C   0  0  0  0  0  0
  -19.5772  -26.6382   21.5205 C   0  0  0  0  0  0
  -18.1947  -26.7931   22.1608 C   0  0  0  0  0  0
  -19.1548  -28.8843   23.2895 C   0  0  0  0  0  0
  -18.9471  -30.1445   23.8901 C   0  0  0  0  0  0
  -17.6477  -30.6588   24.0562 C   0  0  0  0  0  0
  -25.9062  -34.9483   23.5136 C   0  0  0  0  0  0
  -16.5362  -29.9094   23.6331 C   0  0  0  0  0  0
  -16.7285  -28.6504   23.0368 C   0  0  0  0  0  0
  -26.4494  -31.6610   25.0746 C   0  0  0  0  0  0
  -25.3742  -31.3727   26.1469 C   0  0  0  0  0  0
  -27.0317  -30.3045   24.6152 C   0  0  0  0  0  0
  -27.6069  -32.4334   25.7505 C   0  0  0  0  0  0
  -27.5584  -37.1792   24.8474 C   0  0  0  0  0  0
  -21.4159  -29.3066   22.3688 N   0  0  0  0  0  0
  -26.4294  -37.3797   23.9419 N   0  0  0  0  0  0
  -24.6786  -31.0747   22.1024 N   0  0  0  0  0  0
  -23.4186  -28.8237   23.3012 O   0  0  0  0  0  0
  -28.3327  -26.5242   20.1610 O   0  0  0  0  0  0
  -26.5597  -34.8943   22.4678 O   0  0  0  0  0  0
  -23.5387  -32.1485   23.7436 O   0  0  0  0  0  0
  -31.9164  -22.1824   20.9698 C   0  0  0  0  0  0
  -30.6863  -20.5058   20.6593 C   0  0  0  0  0  0
  -32.4420  -23.5542   21.2468 C   0  0  0  0  0  0
  -27.9116  -24.6188   18.6387 C   0  0  0  0  0  0
  -27.0908  -24.5843   21.1031 C   0  0  0  0  0  0
  -29.5176  -19.5657   20.3994 C   0  0  0  0  0  0
  -29.4999  -18.1688   21.1309 C   0  0  0  0  0  0
  -29.5235  -24.3113   20.5247 C   0  0  0  0  0  0
  -29.3999  -22.7422   20.7536 C   0  0  0  0  0  0
  -30.4019  -17.0310   20.5465 C   0  0  0  0  0  0
  -28.1923  -25.0494   20.1041 C   0  0  0  0  0  0
  -32.7392  -21.1311   20.9096 N   0  0  0  0  0  0
  -31.9407  -20.0427   20.6897 N   0  0  0  0  0  0
  -30.6085  -21.8752   20.7724 N   0  0  0  0  0  0
  -29.9952  -15.6364   20.8806 N   0  0  0  0  0  0
  -31.4696  -12.4237   19.1422 H   0  0  0  0  0  0
  -30.3242  -11.3371   19.8754 H   0  0  0  0  0  0
  -29.7510  -11.7475   17.4622 H   0  0  0  0  0  0
  -29.6702  -13.4676   17.7507 H   0  0  0  0  0  0
  -27.8394  -11.3046   18.8413 H   0  0  0  0  0  0
  -27.3751  -12.6140   17.7888 H   0  0  0  0  0  0
  -27.6852  -14.2578   19.5368 H   0  0  0  0  0  0
  -28.6906  -12.0449   21.3922 H   0  0  0  0  0  0
  -28.4692  -13.7141   21.8371 H   0  0  0  0  0  0
  -25.2778   -9.5678   22.4739 H   0  0  0  0  0  0
  -24.0001   -7.4643   22.7475 H   0  0  0  0  0  0
  -21.0848   -8.8778   19.8956 H   0  0  0  0  0  0
  -22.3717  -10.9663   19.6145 H   0  0  0  0  0  0
  -21.2011   -7.6146   23.9709 H   0  0  0  0  0  0
  -21.1476   -6.0521   25.9075 H   0  0  0  0  0  0
  -22.0599   -2.7604   23.2849 H   0  0  0  0  0  0
  -22.4129  -11.9897   22.4800 H   0  0  0  0  0  0
  -21.1108  -13.1222   22.2548 H   0  0  0  0  0  0
  -24.6634  -15.8460   20.5317 H   0  0  0  0  0  0
  -26.2757  -15.6321   20.0753 H   0  0  0  0  0  0
  -26.7127  -32.5500   23.1143 H   0  0  0  0  0  0
  -25.0208  -33.9843   25.0566 H   0  0  0  0  0  0
  -22.7009  -31.3187   21.4215 H   0  0  0  0  0  0
  -23.3779  -35.9594   23.3312 H   0  0  0  0  0  0
  -24.3596  -36.8866   22.2043 H   0  0  0  0  0  0
  -23.7218  -37.6477   23.6644 H   0  0  0  0  0  0
  -26.0917  -31.5787   20.6215 H   0  0  0  0  0  0
  -26.8282  -30.8424   22.0142 H   0  0  0  0  0  0
  -28.0933  -29.0018   21.2016 H   0  0  0  0  0  0
  -25.9323  -26.0336   18.9046 H   0  0  0  0  0  0
  -23.9529  -27.3655   18.9767 H   0  0  0  0  0  0
  -23.7348  -30.6322   19.4127 H   0  0  0  0  0  0
  -22.7380  -29.2824   19.8526 H   0  0  0  0  0  0
  -25.1299  -36.1961   25.0834 H   0  0  0  0  0  0
  -21.0008  -28.3232   24.1389 H   0  0  0  0  0  0
  -20.5720  -26.2293   23.3588 H   0  0  0  0  0  0
  -21.6674  -26.7478   22.1181 H   0  0  0  0  0  0
  -19.6963  -25.6296   21.1240 H   0  0  0  0  0  0
  -19.6709  -27.3190   20.6734 H   0  0  0  0  0  0
  -17.4235  -26.6677   21.3991 H   0  0  0  0  0  0
  -18.0335  -26.0073   22.8999 H   0  0  0  0  0  0
  -19.7958  -30.7266   24.2252 H   0  0  0  0  0  0
  -17.5046  -31.6264   24.5166 H   0  0  0  0  0  0
  -15.5371  -30.3013   23.7657 H   0  0  0  0  0  0
  -15.8674  -28.0826   22.7095 H   0  0  0  0  0  0
  -24.5946  -30.7046   25.7807 H   0  0  0  0  0  0
  -24.8892  -32.2880   26.4879 H   0  0  0  0  0  0
  -25.8075  -30.8934   27.0252 H   0  0  0  0  0  0
  -26.2863  -29.6810   24.1191 H   0  0  0  0  0  0
  -27.4074  -29.7287   25.4617 H   0  0  0  0  0  0
  -27.8744  -30.4377   23.9357 H   0  0  0  0  0  0
  -27.2701  -33.3658   26.2060 H   0  0  0  0  0  0
  -28.3877  -32.6836   25.0314 H   0  0  0  0  0  0
  -28.0743  -31.8458   26.5410 H   0  0  0  0  0  0
  -28.2606  -38.0089   24.7523 H   0  0  0  0  0  0
  -28.1070  -36.2609   24.6300 H   0  0  0  0  0  0
  -27.2295  -37.1432   25.8879 H   0  0  0  0  0  0
  -20.9303  -29.8778   21.6912 H   0  0  0  0  0  0
  -26.0175  -38.2880   24.1407 H   0  0  0  0  0  0
  -33.4865  -23.5010   21.5531 H   0  0  0  0  0  0
  -31.8884  -24.0197   22.0598 H   0  0  0  0  0  0
  -32.3922  -24.1751   20.3531 H   0  0  0  0  0  0
  -28.5940  -23.8479   18.2811 H   0  0  0  0  0  0
  -28.0222  -25.4569   17.9501 H   0  0  0  0  0  0
  -26.9136  -24.1972   18.5149 H   0  0  0  0  0  0
  -26.9363  -23.5066   21.0774 H   0  0  0  0  0  0
  -26.1000  -24.9909   20.9246 H   0  0  0  0  0  0
  -27.3558  -24.8543   22.1260 H   0  0  0  0  0  0
  -29.4396  -19.4144   19.3229 H   0  0  0  0  0  0
  -28.6044  -20.0868   20.6842 H   0  0  0  0  0  0
  -28.4703  -17.8138   21.0795 H   0  0  0  0  0  0
  -29.7068  -18.3106   22.1929 H   0  0  0  0  0  0
  -30.2701  -24.5158   19.7582 H   0  0  0  0  0  0
  -29.8886  -24.7797   21.4387 H   0  0  0  0  0  0
  -28.7410  -22.3312   19.9881 H   0  0  0  0  0  0
  -28.8923  -22.5681   21.7016 H   0  0  0  0  0  0
  -31.4342  -17.1935   20.8623 H   0  0  0  0  0  0
  -30.4067  -17.1100   19.4575 H   0  0  0  0  0  0
  -29.0574  -15.4805   21.2179 H   0  0  0  0  0  0
  1 25  1  0  0  0
  1 30  2  0  0  0
  1 85  1  0  0  0
  2  3  1  0  0  0
  2 25  1  0  0  0
  2 86  1  0  0  0
  2 87  1  0  0  0
  3  4  1  0  0  0
  3 88  1  0  0  0
  3 89  1  0  0  0
  4  5  1  0  0  0
  4 90  1  0  0  0
  4 91  1  0  0  0
  5  6  1  0  0  0
  5 26  1  0  0  0
  5 92  1  0  0  0
  6 25  1  0  0  0
  6 93  1  0  0  0
  6 94  1  0  0  0
  7  8  2  0  0  0
  7 26  1  0  0  0
  7 29  1  0  0  0
  8  9  1  0  0  0
  8 22  1  0  0  0
  9 10  1  0  0  0
  9 27  2  0  0  0
 10 11  2  0  0  0
 10 15  1  0  0  0
 11 12  1  0  0  0
 11 95  1  0  0  0
 12 13  2  0  0  0
 12 96  1  0  0  0
 13 14  1  0  0  0
 13 31  1  0  0  0
 14 15  2  0  0  0
 14 97  1  0  0  0
 15 98  1  0  0  0
 16 17  2  0  0  0
 16 21  1  0  0  0
 16 31  1  0  0  0
 17 18  1  0  0  0
 17 99  1  0  0  0
 18 19  2  0  0  0
 18100  1  0  0  0
 19 20  1  0  0  0
 19 24  1  0  0  0
 20 21  2  0  0  0
 20101  1  0  0  0
 21 23  1  0  0  0
 22 28  1  0  0  0
 22 32  2  0  0  0
 26 27  1  0  0  0
 28102  1  0  0  0
 28103  1  0  0  0
 29104  1  0  0  0
 29105  1  0  0  0
 33 34  1  0  0  0
 33 66  1  0  0  0
 33 70  2  0  0  0
 34 36  1  0  0  0
 34 59  1  0  0  0
 34106  1  0  0  0
 35 44  2  0  0  0
 35 45  1  0  0  0
 35 68  1  0  0  0
 36 56  1  0  0  0
 36107  1  0  0  0
 37 39  1  0  0  0
 37 47  1  0  0  0
 37 66  1  0  0  0
 37108  1  0  0  0
 38 43  2  0  0  0
 38 46  1  0  0  0
 38 47  1  0  0  0
 39 64  1  0  0  0
 39 67  2  0  0  0
 40 52  1  0  0  0
 40 53  2  0  0  0
 40 58  1  0  0  0
 41109  1  0  0  0
 41110  1  0  0  0
 41111  1  0  0  0
 41 48  1  0  0  0
 42 43  1  0  0  0
 42 66  1  0  0  0
 42112  1  0  0  0
 42113  1  0  0  0
 43 44  1  0  0  0
 44114  1  0  0  0
 45 46  2  0  0  0
 45115  1  0  0  0
 46116  1  0  0  0
 47117  1  0  0  0
 47118  1  0  0  0
 48 56  1  0  0  0
 48 65  1  0  0  0
 48119  1  0  0  0
 49 50  1  0  0  0
 49 53  1  0  0  0
 49 64  1  0  0  0
 49120  1  0  0  0
 50 51  1  0  0  0
 50121  1  0  0  0
 50122  1  0  0  0
 51 52  1  0  0  0
 51123  1  0  0  0
 51124  1  0  0  0
 52125  1  0  0  0
 52126  1  0  0  0
 53 54  1  0  0  0
 54 55  2  0  0  0
 54127  1  0  0  0
 55 57  1  0  0  0
 55128  1  0  0  0
 56 69  2  0  0  0
 57 58  2  0  0  0
 57129  1  0  0  0
 58130  1  0  0  0
 59 60  1  0  0  0
 59 61  1  0  0  0
 59 62  1  0  0  0
 60131  1  0  0  0
 60132  1  0  0  0
 60133  1  0  0  0
 61134  1  0  0  0
 61135  1  0  0  0
 61136  1  0  0  0
 62137  1  0  0  0
 62138  1  0  0  0
 62139  1  0  0  0
 63 65  1  0  0  0
 63140  1  0  0  0
 63141  1  0  0  0
 63142  1  0  0  0
 64143  1  0  0  0
 65144  1  0  0  0
 68 81  1  0  0  0
 71 73  1  0  0  0
 71 82  2  0  0  0
 71 84  1  0  0  0
 72 76  1  0  0  0
 72 83  2  0  0  0
 72 84  1  0  0  0
 73145  1  0  0  0
 73146  1  0  0  0
 73147  1  0  0  0
 74148  1  0  0  0
 74149  1  0  0  0
 74150  1  0  0  0
 74 81  1  0  0  0
 75 81  1  0  0  0
 75151  1  0  0  0
 75152  1  0  0  0
 75153  1  0  0  0
 76 77  1  0  0  0
 76154  1  0  0  0
 76155  1  0  0  0
 77 80  1  0  0  0
 77156  1  0  0  0
 77157  1  0  0  0
 78 79  1  0  0  0
 78 81  1  0  0  0
 78158  1  0  0  0
 78159  1  0  0  0
 79 84  1  0  0  0
 79160  1  0  0  0
 79161  1  0  0  0
 80 85  1  0  0  0
 80162  1  0  0  0
 80163  1  0  0  0
 82 83  1  0  0  0
 85164  1  0  0  0
M  ISO  4   1 100  68 101  81 101  85 100
M  END
> <chiral flag>
0

> <version>
0

> <s_m_source_file>
/data/baiqing/PycharmProjects/Reinvent-master-3.2/result/LINK_invent/BTK/process_docking_weight1_custom_sum_contain_oxygen_bond_distance_aromatic_linkinvent_7_9_3/rearranged_h_0076.sdf

> <i_m_source_file_index>
56

> <r_mmod_Potential_Energy-OPLS-2005>
-30.3448066711426

> <r_mmod_Stretch_Energy-OPLS-2005>
65.137336730957

> <r_mmod_Bend_Energy-OPLS-2005>
142.367156982422

> <r_mmod_Torsional_Energy-OPLS-2005>
235.551574707031

> <r_mmod_Improper_Torsional_Energy-OPLS-2005>
5.87500953674316

> <r_mmod_Van_der_Waal_Energy-OPLS-2005>
148.415725708008

> <r_mmod_Electrostatic_Energy-OPLS-2005>
-413.731140136719

> <r_mmod_Solvation_Energy-OPLS-2005>
-245.376586914062

> <b_mmod_Minimization_Converged-OPLS-2005>
0

> <r_mmod_RMS_Derivative-OPLS-2005>
2.41383004188538

$$$$
56
                    3D
 Structure written by MMmdl.
161169  0  0  1  0            999 V2000
  -30.7276  -14.5337   20.4868 C   0  0  0  0  0  0
  -30.4121  -12.3220   19.4594 C   0  0  0  0  0  0
  -29.4999  -12.4798   18.2243 C   0  0  0  0  0  0
  -28.0197  -12.3495   18.6297 C   0  0  0  0  0  0
  -27.6518  -13.2277   19.8553 C   0  0  2  0  0  0
  -28.6969  -13.1027   20.9846 C   0  0  0  0  0  0
  -25.2543  -13.8227   20.5692 C   0  0  0  0  0  0
  -24.1815  -13.0471   20.9194 C   0  0  0  0  0  0
  -24.6388  -11.6957   20.8733 C   0  0  0  0  0  0
  -23.9058  -10.4325   21.0392 C   0  0  0  0  0  0
  -24.3624   -9.4244   21.9178 C   0  0  0  0  0  0
  -23.6309   -8.2281   22.0754 C   0  0  0  0  0  0
  -22.4279   -8.0311   21.3548 C   0  0  0  0  0  0
  -21.9916   -9.0274   20.4642 C   0  0  0  0  0  0
  -22.7239  -10.2144   20.3044 C   0  0  0  0  0  0
  -21.6874   -6.0731   22.5250 C   0  0  0  0  0  0
  -21.4033   -6.5635   23.8185 C   0  0  0  0  0  0
  -21.3670   -5.6785   24.9150 C   0  0  0  0  0  0
  -21.6043   -4.3044   24.7191 C   0  0  0  0  0  0
  -21.8820   -3.8137   23.4315 C   0  0  0  0  0  0
  -21.9194   -4.6957   22.3372 C   0  0  0  0  0  0
  -22.7815  -13.5238   21.1849 C   0  0  0  0  0  0
  -22.1672   -4.2145   21.0958 F   0  0  0  0  0  0
  -21.5637   -3.4533   25.7706 F   0  0  0  0  0  0
  -30.0267  -13.3642   20.4246 N   0  0  0  0  0  0
  -26.2980  -12.9439   20.3313 N   0  0  0  0  0  0
  -25.9316  -11.6572   20.5750 N   0  0  0  0  0  0
  -22.0476  -12.8248   22.0423 N   0  0  0  0  0  0
  -25.4241  -15.1955   20.4112 N   0  0  0  0  0  0
  -31.9219  -14.5623   20.1871 O   0  0  0  0  0  0
  -21.6673   -6.8875   21.4221 O   0  0  0  0  0  0
  -22.3477  -14.5521   20.6656 O   0  0  0  0  0  0
  -24.6215  -31.8650   23.2105 C   0  0  0  0  0  0
  -25.9117  -32.4799   23.8384 C   0  0  1  0  0  0
  -27.2352  -27.4087   20.0943 C   0  0  0  0  0  0
  -25.5974  -33.8592   24.2325 N   0  0  0  0  0  0
  -23.4101  -30.4880   21.5541 C   0  0  2  0  0  0
  -24.8562  -28.9587   20.1081 C   0  0  0  0  0  0
  -22.7463  -29.4630   22.5019 C   0  0  0  0  0  0
  -18.0289  -28.1368   22.8515 C   0  0  0  0  0  0
  -24.1493  -36.7301   23.2636 C   0  0  0  0  0  0
  -25.9426  -30.8161   21.3739 C   0  0  0  0  0  0
  -26.0172  -29.4540   20.7135 C   0  0  0  0  0  0
  -27.2097  -28.6880   20.7019 C   0  0  0  0  0  0
  -26.0600  -26.9537   19.4500 C   0  0  0  0  0  0
  -24.8771  -27.7112   19.4642 C   0  0  0  0  0  0
  -23.6215  -29.8302   20.1650 C   0  0  0  0  0  0
  -25.4112  -36.3086   24.0334 C   0  0  1  0  0  0
  -20.5890  -28.3653   23.1341 C   0  0  2  0  0  0
  -20.6782  -26.9395   22.5422 C   0  0  0  0  0  0
  -19.5749  -26.6385   21.5232 C   0  0  0  0  0  0
  -18.1929  -26.7928   22.1635 C   0  0  0  0  0  0
  -19.1544  -28.8829   23.2920 C   0  0  0  0  0  0
  -18.9453  -30.1442   23.8919 C   0  0  0  0  0  0
  -17.6444  -30.6573   24.0574 C   0  0  0  0  0  0
  -25.9049  -34.9459   23.5116 C   0  0  0  0  0  0
  -16.5344  -29.9070   23.6324 C   0  0  0  0  0  0
  -16.7274  -28.6490   23.0354 C   0  0  0  0  0  0
  -26.4554  -31.6561   25.0696 C   0  0  0  0  0  0
  -25.3840  -31.3640   26.1450 C   0  0  0  0  0  0
  -27.0383  -30.2998   24.6060 C   0  0  0  0  0  0
  -27.6108  -32.4296   25.7472 C   0  0  0  0  0  0
  -27.5585  -37.1811   24.8473 C   0  0  0  0  0  0
  -21.4187  -29.3013   22.3759 N   0  0  0  0  0  0
  -26.4298  -37.3768   23.9413 N   0  0  0  0  0  0
  -24.6758  -31.0713   22.1037 N   0  0  0  0  0  0
  -23.4213  -28.8185   23.3088 O   0  0  0  0  0  0
  -28.3828  -26.6302   20.1488 O   0  0  0  0  0  0
  -26.5576  -34.8923   22.4653 O   0  0  0  0  0  0
  -23.5413  -32.1430   23.7490 O   0  0  0  0  0  0
  -30.0070  -19.2464   20.4714 C   0  0  0  0  0  0
  -29.6794  -18.2864   19.5269 C   0  0  0  0  0  0
  -29.3631  -20.3312   18.6416 C   0  0  0  0  0  0
  -29.1228  -21.3792   17.5970 C   0  0  0  0  0  0
  -30.9047  -16.5577   18.2844 C   0  0  0  0  0  0
  -30.0643  -15.9309   20.7077 C   0  0  0  0  0  0
  -29.0058  -22.8126   20.6993 C   0  0  0  0  0  0
  -29.3469  -24.3396   20.6364 C   0  0  0  0  0  0
  -30.1928  -21.8403   20.4227 C   0  0  0  0  0  0
  -28.1984  -25.1994   20.0463 C   0  0  0  0  0  0
  -29.8360  -16.7714   19.3867 C   0  0  1  0  0  0
  -29.8246  -20.4953   19.8917 N   0  0  0  0  0  0
  -29.2380  -19.0162   18.4458 N   0  3  0  0  0  0
  -31.4614  -12.3794   19.1670 H   0  0  0  0  0  0
  -30.2821  -11.3365   19.9109 H   0  0  0  0  0  0
  -29.7498  -11.7289   17.4747 H   0  0  0  0  0  0
  -29.6725  -13.4495   17.7555 H   0  0  0  0  0  0
  -27.8427  -11.2997   18.8642 H   0  0  0  0  0  0
  -27.3726  -12.5856   17.7832 H   0  0  0  0  0  0
  -27.6669  -14.2600   19.5063 H   0  0  0  0  0  0
  -28.6734  -12.1002   21.4132 H   0  0  0  0  0  0
  -28.4686  -13.7829   21.8056 H   0  0  0  0  0  0
  -25.2773   -9.5743   22.4728 H   0  0  0  0  0  0
  -24.0030   -7.4671   22.7470 H   0  0  0  0  0  0
  -21.0848   -8.8757   19.8938 H   0  0  0  0  0  0
  -22.3694  -10.9670   19.6132 H   0  0  0  0  0  0
  -21.2047   -7.6140   23.9686 H   0  0  0  0  0  0
  -21.1510   -6.0523   25.9051 H   0  0  0  0  0  0
  -22.0590   -2.7599   23.2806 H   0  0  0  0  0  0
  -22.4135  -11.9944   22.4866 H   0  0  0  0  0  0
  -21.1059  -13.1212   22.2550 H   0  0  0  0  0  0
  -24.6612  -15.8515   20.5319 H   0  0  0  0  0  0
  -26.2836  -15.6399   20.1154 H   0  0  0  0  0  0
  -26.7176  -32.5507   23.1132 H   0  0  0  0  0  0
  -25.0207  -33.9720   25.0534 H   0  0  0  0  0  0
  -22.6999  -31.3056   21.4201 H   0  0  0  0  0  0
  -23.3738  -35.9653   23.3311 H   0  0  0  0  0  0
  -24.3588  -36.8899   22.2048 H   0  0  0  0  0  0
  -23.7274  -37.6523   23.6643 H   0  0  0  0  0  0
  -26.0681  -31.5839   20.6101 H   0  0  0  0  0  0
  -26.8247  -30.8608   21.9990 H   0  0  0  0  0  0
  -28.1044  -29.0633   21.1785 H   0  0  0  0  0  0
  -26.0408  -26.0125   18.9204 H   0  0  0  0  0  0
  -23.9966  -27.3308   18.9648 H   0  0  0  0  0  0
  -23.7479  -30.6138   19.4170 H   0  0  0  0  0  0
  -22.7396  -29.2650   19.8591 H   0  0  0  0  0  0
  -25.1302  -36.1932   25.0829 H   0  0  0  0  0  0
  -20.9954  -28.3193   24.1477 H   0  0  0  0  0  0
  -20.5730  -26.2250   23.3601 H   0  0  0  0  0  0
  -21.6645  -26.7474   22.1186 H   0  0  0  0  0  0
  -19.6899  -25.6305   21.1245 H   0  0  0  0  0  0
  -19.6676  -27.3217   20.6786 H   0  0  0  0  0  0
  -17.4220  -26.6736   21.4013 H   0  0  0  0  0  0
  -18.0276  -26.0040   22.8987 H   0  0  0  0  0  0
  -19.7910  -30.7272   24.2292 H   0  0  0  0  0  0
  -17.4981  -31.6255   24.5173 H   0  0  0  0  0  0
  -15.5336  -30.2966   23.7614 H   0  0  0  0  0  0
  -15.8687  -28.0796   22.7042 H   0  0  0  0  0  0
  -24.5985  -30.7019   25.7794 H   0  0  0  0  0  0
  -24.9071  -32.2782   26.4983 H   0  0  0  0  0  0
  -25.8215  -30.8741   27.0155 H   0  0  0  0  0  0
  -26.2887  -29.6703   24.1232 H   0  0  0  0  0  0
  -27.4306  -29.7277   25.4484 H   0  0  0  0  0  0
  -27.8682  -30.4304   23.9101 H   0  0  0  0  0  0
  -27.2685  -33.3559   26.2097 H   0  0  0  0  0  0
  -28.3897  -32.6919   25.0299 H   0  0  0  0  0  0
  -28.0813  -31.8400   26.5350 H   0  0  0  0  0  0
  -28.2616  -38.0094   24.7497 H   0  0  0  0  0  0
  -28.1071  -36.2629   24.6329 H   0  0  0  0  0  0
  -27.2310  -37.1505   25.8877 H   0  0  0  0  0  0
  -20.9363  -29.8707   21.6949 H   0  0  0  0  0  0
  -26.0184  -38.2853   24.1372 H   0  0  0  0  0  0
  -30.4239  -19.1349   21.4634 H   0  0  0  0  0  0
  -28.3514  -22.0704   17.9293 H   0  0  0  0  0  0
  -28.7979  -20.8966   16.6759 H   0  0  0  0  0  0
  -30.0567  -21.9124   17.4179 H   0  0  0  0  0  0
  -30.6758  -17.1043   17.3698 H   0  0  0  0  0  0
  -30.9789  -15.5173   17.9779 H   0  0  0  0  0  0
  -31.8899  -16.8814   18.6225 H   0  0  0  0  0  0
  -29.1455  -15.8591   21.2880 H   0  0  0  0  0  0
  -30.7639  -16.4789   21.3380 H   0  0  0  0  0  0
  -28.1953  -22.6095   20.0055 H   0  0  0  0  0  0
  -28.5774  -22.5762   21.6722 H   0  0  0  0  0  0
  -30.2406  -24.5121   20.0375 H   0  0  0  0  0  0
  -29.5915  -24.6941   21.6395 H   0  0  0  0  0  0
  -30.7931  -21.7023   21.3234 H   0  0  0  0  0  0
  -30.8643  -22.2860   19.6868 H   0  0  0  0  0  0
  -27.2719  -24.9020   20.5420 H   0  0  0  0  0  0
  -28.0919  -24.9391   18.9925 H   0  0  0  0  0  0
  -28.8962  -16.4057   18.9738 H   0  0  0  0  0  0
  -28.9405  -18.6156   17.5636 H   0  0  0  0  0  0
  1 25  1  0  0  0
  1 30  2  0  0  0
  1 76  1  0  0  0
  2  3  1  0  0  0
  2 25  1  0  0  0
  2 84  1  0  0  0
  2 85  1  0  0  0
  3  4  1  0  0  0
  3 86  1  0  0  0
  3 87  1  0  0  0
  4  5  1  0  0  0
  4 88  1  0  0  0
  4 89  1  0  0  0
  5  6  1  0  0  0
  5 26  1  0  0  0
  5 90  1  0  0  0
  6 25  1  0  0  0
  6 91  1  0  0  0
  6 92  1  0  0  0
  7  8  2  0  0  0
  7 26  1  0  0  0
  7 29  1  0  0  0
  8  9  1  0  0  0
  8 22  1  0  0  0
  9 10  1  0  0  0
  9 27  2  0  0  0
 10 11  2  0  0  0
 10 15  1  0  0  0
 11 12  1  0  0  0
 11 93  1  0  0  0
 12 13  2  0  0  0
 12 94  1  0  0  0
 13 14  1  0  0  0
 13 31  1  0  0  0
 14 15  2  0  0  0
 14 95  1  0  0  0
 15 96  1  0  0  0
 16 17  2  0  0  0
 16 21  1  0  0  0
 16 31  1  0  0  0
 17 18  1  0  0  0
 17 97  1  0  0  0
 18 19  2  0  0  0
 18 98  1  0  0  0
 19 20  1  0  0  0
 19 24  1  0  0  0
 20 21  2  0  0  0
 20 99  1  0  0  0
 21 23  1  0  0  0
 22 28  1  0  0  0
 22 32  2  0  0  0
 26 27  1  0  0  0
 28100  1  0  0  0
 28101  1  0  0  0
 29102  1  0  0  0
 29103  1  0  0  0
 33 34  1  0  0  0
 33 66  1  0  0  0
 33 70  2  0  0  0
 34 36  1  0  0  0
 34 59  1  0  0  0
 34104  1  0  0  0
 35 44  2  0  0  0
 35 45  1  0  0  0
 35 68  1  0  0  0
 36 56  1  0  0  0
 36105  1  0  0  0
 37 39  1  0  0  0
 37 47  1  0  0  0
 37 66  1  0  0  0
 37106  1  0  0  0
 38 43  2  0  0  0
 38 46  1  0  0  0
 38 47  1  0  0  0
 39 64  1  0  0  0
 39 67  2  0  0  0
 40 52  1  0  0  0
 40 53  2  0  0  0
 40 58  1  0  0  0
 41107  1  0  0  0
 41108  1  0  0  0
 41109  1  0  0  0
 41 48  1  0  0  0
 42 43  1  0  0  0
 42 66  1  0  0  0
 42110  1  0  0  0
 42111  1  0  0  0
 43 44  1  0  0  0
 44112  1  0  0  0
 45 46  2  0  0  0
 45113  1  0  0  0
 46114  1  0  0  0
 47115  1  0  0  0
 47116  1  0  0  0
 48 56  1  0  0  0
 48 65  1  0  0  0
 48117  1  0  0  0
 49 50  1  0  0  0
 49 53  1  0  0  0
 49 64  1  0  0  0
 49118  1  0  0  0
 50 51  1  0  0  0
 50119  1  0  0  0
 50120  1  0  0  0
 51 52  1  0  0  0
 51121  1  0  0  0
 51122  1  0  0  0
 52123  1  0  0  0
 52124  1  0  0  0
 53 54  1  0  0  0
 54 55  2  0  0  0
 54125  1  0  0  0
 55 57  1  0  0  0
 55126  1  0  0  0
 56 69  2  0  0  0
 57 58  2  0  0  0
 57127  1  0  0  0
 58128  1  0  0  0
 59 60  1  0  0  0
 59 61  1  0  0  0
 59 62  1  0  0  0
 60129  1  0  0  0
 60130  1  0  0  0
 60131  1  0  0  0
 61132  1  0  0  0
 61133  1  0  0  0
 61134  1  0  0  0
 62135  1  0  0  0
 62136  1  0  0  0
 62137  1  0  0  0
 63 65  1  0  0  0
 63138  1  0  0  0
 63139  1  0  0  0
 63140  1  0  0  0
 64141  1  0  0  0
 65142  1  0  0  0
 68 80  1  0  0  0
 71 72  2  0  0  0
 71 82  1  0  0  0
 71143  1  0  0  0
 72 81  1  0  0  0
 72 83  1  0  0  0
 73 74  1  0  0  0
 73 82  1  0  0  0
 73 83  2  0  0  0
 74144  1  0  0  0
 74145  1  0  0  0
 74146  1  0  0  0
 75147  1  0  0  0
 75148  1  0  0  0
 75149  1  0  0  0
 75 81  1  0  0  0
 76 81  1  0  0  0
 76150  1  0  0  0
 76151  1  0  0  0
 77 78  1  0  0  0
 77 79  1  0  0  0
 77152  1  0  0  0
 77153  1  0  0  0
 78 80  1  0  0  0
 78154  1  0  0  0
 78155  1  0  0  0
 79 82  1  0  0  0
 79156  1  0  0  0
 79157  1  0  0  0
 80158  1  0  0  0
 80159  1  0  0  0
 81160  1  0  0  0
 83161  1  0  0  0
M  CHG  1  83   1
M  ISO  4   1 100  68 101  76 100  80 101
M  END
> <chiral flag>
0

> <version>
0

> <s_m_source_file>
/data/baiqing/PycharmProjects/Reinvent-master-3.2/result/LINK_invent/BTK/process_docking_weight1_custom_sum_contain_oxygen_bond_distance_aromatic_linkinvent_7_9_3/rearranged_h_0076.sdf

> <i_m_source_file_index>
57

> <r_mmod_Potential_Energy-OPLS-2005>
-48.9561080932617

> <r_mmod_Stretch_Energy-OPLS-2005>
47.123893737793

> <r_mmod_Bend_Energy-OPLS-2005>
114.875259399414

> <r_mmod_Torsional_Energy-OPLS-2005>
213.232818603516

> <r_mmod_Improper_Torsional_Energy-OPLS-2005>
5.5207257270813

> <r_mmod_Van_der_Waal_Energy-OPLS-2005>
132.898162841797

> <r_mmod_Electrostatic_Energy-OPLS-2005>
-186.710632324219

> <r_mmod_Solvation_Energy-OPLS-2005>
-405.953979492188

> <b_mmod_Minimization_Converged-OPLS-2005>
0

> <r_mmod_RMS_Derivative-OPLS-2005>
3.62089157104492

$$$$
57
                    3D
 Structure written by MMmdl.
163171  0  0  1  0            999 V2000
  -30.6367  -14.5550   20.5609 C   0  0  0  0  0  0
  -30.4381  -12.3493   19.4361 C   0  0  0  0  0  0
  -29.5085  -12.5189   18.2125 C   0  0  0  0  0  0
  -28.0217  -12.3885   18.6117 C   0  0  0  0  0  0
  -27.6597  -13.2160   19.8744 C   0  0  2  0  0  0
  -28.7015  -12.9949   20.9945 C   0  0  0  0  0  0
  -25.2567  -13.8174   20.5719 C   0  0  0  0  0  0
  -24.1845  -13.0436   20.9218 C   0  0  0  0  0  0
  -24.6392  -11.6902   20.8745 C   0  0  0  0  0  0
  -23.9046  -10.4289   21.0397 C   0  0  0  0  0  0
  -24.3604   -9.4206   21.9169 C   0  0  0  0  0  0
  -23.6296   -8.2229   22.0738 C   0  0  0  0  0  0
  -22.4267   -8.0264   21.3540 C   0  0  0  0  0  0
  -21.9899   -9.0235   20.4637 C   0  0  0  0  0  0
  -22.7217  -10.2121   20.3047 C   0  0  0  0  0  0
  -21.6850   -6.0716   22.5291 C   0  0  0  0  0  0
  -21.4005   -6.5621   23.8223 C   0  0  0  0  0  0
  -21.3675   -5.6775   24.9185 C   0  0  0  0  0  0
  -21.6053   -4.3040   24.7230 C   0  0  0  0  0  0
  -21.8817   -3.8128   23.4353 C   0  0  0  0  0  0
  -21.9183   -4.6941   22.3408 C   0  0  0  0  0  0
  -22.7857  -13.5214   21.1872 C   0  0  0  0  0  0
  -22.1672   -4.2123   21.0984 F   0  0  0  0  0  0
  -21.5635   -3.4527   25.7748 F   0  0  0  0  0  0
  -30.0251  -13.3374   20.4491 N   0  0  0  0  0  0
  -26.3012  -12.9363   20.3368 N   0  0  0  0  0  0
  -25.9314  -11.6506   20.5759 N   0  0  0  0  0  0
  -22.0472  -12.8242   22.0440 N   0  0  0  0  0  0
  -25.4216  -15.1898   20.4103 N   0  0  0  0  0  0
  -31.7676  -14.7745   20.1166 O   0  0  0  0  0  0
  -21.6635   -6.8858   21.4247 O   0  0  0  0  0  0
  -22.3527  -14.5473   20.6642 O   0  0  0  0  0  0
  -24.6192  -31.8612   23.2062 C   0  0  0  0  0  0
  -25.9068  -32.4782   23.8363 C   0  0  1  0  0  0
  -27.2322  -27.3794   20.1239 C   0  0  0  0  0  0
  -25.5892  -33.8587   24.2305 N   0  0  0  0  0  0
  -23.4115  -30.4820   21.5459 C   0  0  2  0  0  0
  -24.8631  -28.9414   20.1128 C   0  0  0  0  0  0
  -22.7425  -29.4603   22.4938 C   0  0  0  0  0  0
  -18.0277  -28.1373   22.8491 C   0  0  0  0  0  0
  -24.1476  -36.7311   23.2644 C   0  0  0  0  0  0
  -25.9460  -30.8135   21.3678 C   0  0  0  0  0  0
  -26.0245  -29.4441   20.7133 C   0  0  0  0  0  0
  -27.2170  -28.6747   20.7046 C   0  0  0  0  0  0
  -26.0552  -26.8991   19.5156 C   0  0  0  0  0  0
  -24.8768  -27.6729   19.5045 C   0  0  0  0  0  0
  -23.6265  -29.8134   20.1597 C   0  0  0  0  0  0
  -25.4089  -36.3080   24.0345 C   0  0  1  0  0  0
  -20.5867  -28.3646   23.1307 C   0  0  2  0  0  0
  -20.6750  -26.9371   22.5416 C   0  0  0  0  0  0
  -19.5738  -26.6377   21.5204 C   0  0  0  0  0  0
  -18.1921  -26.7917   22.1619 C   0  0  0  0  0  0
  -19.1524  -28.8820   23.2901 C   0  0  0  0  0  0
  -18.9454  -30.1434   23.8920 C   0  0  0  0  0  0
  -17.6451  -30.6576   24.0559 C   0  0  0  0  0  0
  -25.9025  -34.9447   23.5114 C   0  0  0  0  0  0
  -16.5344  -29.9085   23.6332 C   0  0  0  0  0  0
  -16.7259  -28.6496   23.0363 C   0  0  0  0  0  0
  -26.4501  -31.6601   25.0723 C   0  0  0  0  0  0
  -25.3747  -31.3689   26.1456 C   0  0  0  0  0  0
  -27.0354  -30.3020   24.6208 C   0  0  0  0  0  0
  -27.6049  -32.4376   25.7490 C   0  0  0  0  0  0
  -27.5573  -37.1814   24.8449 C   0  0  0  0  0  0
  -21.4140  -29.3022   22.3708 N   0  0  0  0  0  0
  -26.4272  -37.3767   23.9407 N   0  0  0  0  0  0
  -24.6772  -31.0673   22.0985 N   0  0  0  0  0  0
  -23.4172  -28.8124   23.2986 O   0  0  0  0  0  0
  -28.3715  -26.5886   20.1125 O   0  0  0  0  0  0
  -26.5585  -34.8909   22.4671 O   0  0  0  0  0  0
  -23.5373  -32.1380   23.7428 O   0  0  0  0  0  0
  -29.4466  -20.2395   20.8871 C   0  0  0  0  0  0
  -28.3152  -21.4888   22.3312 C   0  0  0  0  0  0
  -29.0043  -21.5912   21.1628 C   0  0  0  0  0  0
  -29.0570  -19.3643   21.8907 C   0  0  0  0  0  0
  -27.8763  -17.1438   22.2973 C   0  0  0  0  0  0
  -30.1827  -17.5567   23.3207 C   0  0  0  0  0  0
  -27.7160  -19.8628   24.0714 C   0  0  0  0  0  0
  -29.2822  -22.9089   20.3944 C   0  0  0  0  0  0
  -28.1313  -23.9888   20.2815 C   0  0  0  0  0  0
  -29.9600  -17.0342   20.9196 C   0  0  0  0  0  0
  -28.3632  -25.3977   20.9538 C   0  0  0  0  0  0
  -29.2599  -17.8232   22.1022 C   0  0  0  0  0  0
  -28.3591  -20.1869   22.8014 N   0  0  0  0  0  0
  -29.8372  -15.5468   21.0222 N   0  0  0  0  0  0
  -31.4824  -12.4747   19.1434 H   0  0  0  0  0  0
  -30.3572  -11.3363   19.8381 H   0  0  0  0  0  0
  -29.7529  -11.7731   17.4544 H   0  0  0  0  0  0
  -29.6872  -13.4923   17.7519 H   0  0  0  0  0  0
  -27.8163  -11.3340   18.7953 H   0  0  0  0  0  0
  -27.3847  -12.6833   17.7758 H   0  0  0  0  0  0
  -27.6954  -14.2664   19.5815 H   0  0  0  0  0  0
  -28.6924  -11.9516   21.3102 H   0  0  0  0  0  0
  -28.4520  -13.5679   21.8894 H   0  0  0  0  0  0
  -25.2748   -9.5688   22.4754 H   0  0  0  0  0  0
  -24.0010   -7.4615   22.7455 H   0  0  0  0  0  0
  -21.0830   -8.8735   19.8954 H   0  0  0  0  0  0
  -22.3658  -10.9655   19.6164 H   0  0  0  0  0  0
  -21.1999   -7.6134   23.9720 H   0  0  0  0  0  0
  -21.1516   -6.0510   25.9094 H   0  0  0  0  0  0
  -22.0576   -2.7583   23.2861 H   0  0  0  0  0  0
  -22.4053  -11.9939   22.4930 H   0  0  0  0  0  0
  -21.1054  -13.1253   22.2511 H   0  0  0  0  0  0
  -24.6494  -15.8386   20.5234 H   0  0  0  0  0  0
  -26.2631  -15.6368   20.0710 H   0  0  0  0  0  0
  -26.7156  -32.5482   23.1130 H   0  0  0  0  0  0
  -25.0005  -33.9733   25.0425 H   0  0  0  0  0  0
  -22.7024  -31.3001   21.4016 H   0  0  0  0  0  0
  -23.3719  -35.9664   23.3295 H   0  0  0  0  0  0
  -24.3565  -36.8943   22.2062 H   0  0  0  0  0  0
  -23.7263  -37.6527   23.6660 H   0  0  0  0  0  0
  -26.0640  -31.5796   20.6004 H   0  0  0  0  0  0
  -26.8304  -30.8641   21.9914 H   0  0  0  0  0  0
  -28.1175  -29.0593   21.1654 H   0  0  0  0  0  0
  -26.0536  -25.9228   19.0541 H   0  0  0  0  0  0
  -23.9863  -27.2862   19.0290 H   0  0  0  0  0  0
  -23.7386  -30.5898   19.4021 H   0  0  0  0  0  0
  -22.7519  -29.2344   19.8594 H   0  0  0  0  0  0
  -25.1276  -36.1929   25.0843 H   0  0  0  0  0  0
  -20.9976  -28.3199   24.1416 H   0  0  0  0  0  0
  -20.5613  -26.2240   23.3592 H   0  0  0  0  0  0
  -21.6621  -26.7390   22.1214 H   0  0  0  0  0  0
  -19.6890  -25.6293   21.1230 H   0  0  0  0  0  0
  -19.6698  -27.3179   20.6730 H   0  0  0  0  0  0
  -17.4183  -26.6668   21.4036 H   0  0  0  0  0  0
  -18.0334  -26.0061   22.9018 H   0  0  0  0  0  0
  -19.7927  -30.7250   24.2299 H   0  0  0  0  0  0
  -17.5007  -31.6271   24.5141 H   0  0  0  0  0  0
  -15.5346  -30.2995   23.7645 H   0  0  0  0  0  0
  -15.8655  -28.0819   22.7086 H   0  0  0  0  0  0
  -24.5803  -30.7237   25.7690 H   0  0  0  0  0  0
  -24.9092  -32.2873   26.5047 H   0  0  0  0  0  0
  -25.8022  -30.8628   27.0124 H   0  0  0  0  0  0
  -27.4081  -29.7335   25.4749 H   0  0  0  0  0  0
  -27.8779  -30.4276   23.9393 H   0  0  0  0  0  0
  -26.2916  -29.6729   24.1302 H   0  0  0  0  0  0
  -28.3845  -32.7015   25.0328 H   0  0  0  0  0  0
  -27.2605  -33.3644   26.2086 H   0  0  0  0  0  0
  -28.0741  -31.8537   26.5412 H   0  0  0  0  0  0
  -28.2568  -38.0127   24.7451 H   0  0  0  0  0  0
  -28.1085  -36.2648   24.6277 H   0  0  0  0  0  0
  -27.2305  -37.1479   25.8859 H   0  0  0  0  0  0
  -20.9275  -29.8756   21.6950 H   0  0  0  0  0  0
  -26.0145  -38.2843   24.1379 H   0  0  0  0  0  0
  -30.0286  -19.9396   20.0252 H   0  0  0  0  0  0
  -27.8053  -22.2532   22.9062 H   0  0  0  0  0  0
  -27.2605  -17.5946   23.0673 H   0  0  0  0  0  0
  -27.9580  -16.0982   22.5923 H   0  0  0  0  0  0
  -27.2918  -17.1840   21.3770 H   0  0  0  0  0  0
  -29.9092  -18.0775   24.2307 H   0  0  0  0  0  0
  -31.2068  -17.8692   23.1123 H   0  0  0  0  0  0
  -30.2203  -16.4957   23.5699 H   0  0  0  0  0  0
  -26.6448  -19.7394   23.9137 H   0  0  0  0  0  0
  -27.8666  -20.6804   24.7771 H   0  0  0  0  0  0
  -28.1067  -18.9642   24.5350 H   0  0  0  0  0  0
  -29.6066  -22.6427   19.3876 H   0  0  0  0  0  0
  -30.1585  -23.3616   20.8606 H   0  0  0  0  0  0
  -27.2029  -23.5653   20.6714 H   0  0  0  0  0  0
  -27.9250  -24.1537   19.2233 H   0  0  0  0  0  0
  -31.0097  -17.3196   20.8311 H   0  0  0  0  0  0
  -29.4875  -17.3161   19.9784 H   0  0  0  0  0  0
  -29.3240  -25.3901   21.4691 H   0  0  0  0  0  0
  -27.6254  -25.5212   21.7507 H   0  0  0  0  0  0
  -28.9405  -15.2284   21.3545 H   0  0  0  0  0  0
  1 25  1  0  0  0
  1 30  2  0  0  0
  1 84  1  0  0  0
  2  3  1  0  0  0
  2 25  1  0  0  0
  2 85  1  0  0  0
  2 86  1  0  0  0
  3  4  1  0  0  0
  3 87  1  0  0  0
  3 88  1  0  0  0
  4  5  1  0  0  0
  4 89  1  0  0  0
  4 90  1  0  0  0
  5  6  1  0  0  0
  5 26  1  0  0  0
  5 91  1  0  0  0
  6 25  1  0  0  0
  6 92  1  0  0  0
  6 93  1  0  0  0
  7  8  2  0  0  0
  7 26  1  0  0  0
  7 29  1  0  0  0
  8  9  1  0  0  0
  8 22  1  0  0  0
  9 10  1  0  0  0
  9 27  2  0  0  0
 10 11  2  0  0  0
 10 15  1  0  0  0
 11 12  1  0  0  0
 11 94  1  0  0  0
 12 13  2  0  0  0
 12 95  1  0  0  0
 13 14  1  0  0  0
 13 31  1  0  0  0
 14 15  2  0  0  0
 14 96  1  0  0  0
 15 97  1  0  0  0
 16 17  2  0  0  0
 16 21  1  0  0  0
 16 31  1  0  0  0
 17 18  1  0  0  0
 17 98  1  0  0  0
 18 19  2  0  0  0
 18 99  1  0  0  0
 19 20  1  0  0  0
 19 24  1  0  0  0
 20 21  2  0  0  0
 20100  1  0  0  0
 21 23  1  0  0  0
 22 28  1  0  0  0
 22 32  2  0  0  0
 26 27  1  0  0  0
 28101  1  0  0  0
 28102  1  0  0  0
 29103  1  0  0  0
 29104  1  0  0  0
 33 34  1  0  0  0
 33 66  1  0  0  0
 33 70  2  0  0  0
 34 36  1  0  0  0
 34 59  1  0  0  0
 34105  1  0  0  0
 35 44  2  0  0  0
 35 45  1  0  0  0
 35 68  1  0  0  0
 36 56  1  0  0  0
 36106  1  0  0  0
 37 39  1  0  0  0
 37 47  1  0  0  0
 37 66  1  0  0  0
 37107  1  0  0  0
 38 43  2  0  0  0
 38 46  1  0  0  0
 38 47  1  0  0  0
 39 64  1  0  0  0
 39 67  2  0  0  0
 40 52  1  0  0  0
 40 53  2  0  0  0
 40 58  1  0  0  0
 41108  1  0  0  0
 41109  1  0  0  0
 41110  1  0  0  0
 41 48  1  0  0  0
 42 43  1  0  0  0
 42 66  1  0  0  0
 42111  1  0  0  0
 42112  1  0  0  0
 43 44  1  0  0  0
 44113  1  0  0  0
 45 46  2  0  0  0
 45114  1  0  0  0
 46115  1  0  0  0
 47116  1  0  0  0
 47117  1  0  0  0
 48 56  1  0  0  0
 48 65  1  0  0  0
 48118  1  0  0  0
 49 50  1  0  0  0
 49 53  1  0  0  0
 49 64  1  0  0  0
 49119  1  0  0  0
 50 51  1  0  0  0
 50120  1  0  0  0
 50121  1  0  0  0
 51 52  1  0  0  0
 51122  1  0  0  0
 51123  1  0  0  0
 52124  1  0  0  0
 52125  1  0  0  0
 53 54  1  0  0  0
 54 55  2  0  0  0
 54126  1  0  0  0
 55 57  1  0  0  0
 55127  1  0  0  0
 56 69  2  0  0  0
 57 58  2  0  0  0
 57128  1  0  0  0
 58129  1  0  0  0
 59 60  1  0  0  0
 59 61  1  0  0  0
 59 62  1  0  0  0
 60130  1  0  0  0
 60131  1  0  0  0
 60132  1  0  0  0
 61133  1  0  0  0
 61134  1  0  0  0
 61135  1  0  0  0
 62136  1  0  0  0
 62137  1  0  0  0
 62138  1  0  0  0
 63 65  1  0  0  0
 63139  1  0  0  0
 63140  1  0  0  0
 63141  1  0  0  0
 64142  1  0  0  0
 65143  1  0  0  0
 68 81  1  0  0  0
 71 73  1  0  0  0
 71 74  2  0  0  0
 71144  1  0  0  0
 72 73  2  0  0  0
 72 83  1  0  0  0
 72145  1  0  0  0
 73 78  1  0  0  0
 74 82  1  0  0  0
 74 83  1  0  0  0
 75146  1  0  0  0
 75147  1  0  0  0
 75148  1  0  0  0
 75 82  1  0  0  0
 76 82  1  0  0  0
 76149  1  0  0  0
 76150  1  0  0  0
 76151  1  0  0  0
 77 83  1  0  0  0
 77152  1  0  0  0
 77153  1  0  0  0
 77154  1  0  0  0
 78 79  1  0  0  0
 78155  1  0  0  0
 78156  1  0  0  0
 79 81  1  0  0  0
 79157  1  0  0  0
 79158  1  0  0  0
 80 82  1  0  0  0
 80 84  1  0  0  0
 80159  1  0  0  0
 80160  1  0  0  0
 81161  1  0  0  0
 81162  1  0  0  0
 84163  1  0  0  0
M  ISO  4   1 100  68 101  81 101  84 100
M  END
> <chiral flag>
0

> <version>
0

> <s_m_source_file>
/data/baiqing/PycharmProjects/Reinvent-master-3.2/result/LINK_invent/BTK/process_docking_weight1_custom_sum_contain_oxygen_bond_distance_aromatic_linkinvent_7_9_3/rearranged_h_0076.sdf

> <i_m_source_file_index>
58

> <r_mmod_Potential_Energy-OPLS-2005>
-43.6295547485352

> <r_mmod_Stretch_Energy-OPLS-2005>
66.0756530761719

> <r_mmod_Bend_Energy-OPLS-2005>
135.992431640625

> <r_mmod_Torsional_Energy-OPLS-2005>
265.569549560547

> <r_mmod_Improper_Torsional_Energy-OPLS-2005>
4.72223806381226

> <r_mmod_Van_der_Waal_Energy-OPLS-2005>
129.088638305664

> <r_mmod_Electrostatic_Energy-OPLS-2005>
-464.441040039062

> <r_mmod_Solvation_Energy-OPLS-2005>
-205.289337158203

> <b_mmod_Minimization_Converged-OPLS-2005>
0

> <r_mmod_RMS_Derivative-OPLS-2005>
3.66465091705322

$$$$
58
                    3D
 Structure written by MMmdl.
172180  0  0  1  0            999 V2000
  -30.6297  -14.5254   20.5789 C   0  0  0  0  0  0
  -30.4474  -12.3377   19.4371 C   0  0  0  0  0  0
  -29.5141  -12.5246   18.2191 C   0  0  0  0  0  0
  -28.0328  -12.3718   18.6206 C   0  0  0  0  0  0
  -27.6692  -13.2008   19.8819 C   0  0  2  0  0  0
  -28.7073  -12.9504   21.0019 C   0  0  0  0  0  0
  -25.2640  -13.8142   20.5723 C   0  0  0  0  0  0
  -24.1865  -13.0438   20.9195 C   0  0  0  0  0  0
  -24.6392  -11.6902   20.8730 C   0  0  0  0  0  0
  -23.9041  -10.4294   21.0391 C   0  0  0  0  0  0
  -24.3593   -9.4219   21.9170 C   0  0  0  0  0  0
  -23.6289   -8.2247   22.0753 C   0  0  0  0  0  0
  -22.4276   -8.0279   21.3540 C   0  0  0  0  0  0
  -21.9894   -9.0251   20.4648 C   0  0  0  0  0  0
  -22.7212  -10.2134   20.3049 C   0  0  0  0  0  0
  -21.6855   -6.0740   22.5285 C   0  0  0  0  0  0
  -21.4005   -6.5639   23.8216 C   0  0  0  0  0  0
  -21.3664   -5.6788   24.9176 C   0  0  0  0  0  0
  -21.6047   -4.3053   24.7226 C   0  0  0  0  0  0
  -21.8816   -3.8153   23.4345 C   0  0  0  0  0  0
  -21.9186   -4.6971   22.3404 C   0  0  0  0  0  0
  -22.7877  -13.5262   21.1825 C   0  0  0  0  0  0
  -22.1661   -4.2164   21.0982 F   0  0  0  0  0  0
  -21.5623   -3.4529   25.7730 F   0  0  0  0  0  0
  -30.0406  -13.2994   20.4753 N   0  0  0  0  0  0
  -26.3066  -12.9297   20.3375 N   0  0  0  0  0  0
  -25.9320  -11.6462   20.5740 N   0  0  0  0  0  0
  -22.0471  -12.8304   22.0376 N   0  0  0  0  0  0
  -25.4383  -15.1854   20.4173 N   0  0  0  0  0  0
  -31.7071  -14.8000   20.0436 O   0  0  0  0  0  0
  -21.6644   -6.8876   21.4244 O   0  0  0  0  0  0
  -22.3588  -14.5563   20.6639 O   0  0  0  0  0  0
  -24.6227  -31.8634   23.2084 C   0  0  0  0  0  0
  -25.9123  -32.4778   23.8364 C   0  0  1  0  0  0
  -27.2148  -27.3648   20.0911 C   0  0  0  0  0  0
  -25.5972  -33.8578   24.2295 N   0  0  0  0  0  0
  -23.4083  -30.4934   21.5525 C   0  0  2  0  0  0
  -24.8474  -28.9552   20.1156 C   0  0  0  0  0  0
  -22.7428  -29.4669   22.4987 C   0  0  0  0  0  0
  -18.0274  -28.1372   22.8471 C   0  0  0  0  0  0
  -24.1488  -36.7277   23.2640 C   0  0  0  0  0  0
  -25.9472  -30.8081   21.3711 C   0  0  0  0  0  0
  -26.0177  -29.4400   20.7110 C   0  0  0  0  0  0
  -27.2026  -28.6554   20.6949 C   0  0  0  0  0  0
  -26.0133  -26.9225   19.4835 C   0  0  0  0  0  0
  -24.8439  -27.6975   19.4990 C   0  0  0  0  0  0
  -23.6143  -29.8294   20.1670 C   0  0  0  0  0  0
  -25.4113  -36.3073   24.0332 C   0  0  1  0  0  0
  -20.5864  -28.3670   23.1287 C   0  0  2  0  0  0
  -20.6769  -26.9400   22.5401 C   0  0  0  0  0  0
  -19.5756  -26.6373   21.5193 C   0  0  0  0  0  0
  -18.1932  -26.7915   22.1607 C   0  0  0  0  0  0
  -19.1529  -28.8837   23.2875 C   0  0  0  0  0  0
  -18.9459  -30.1442   23.8879 C   0  0  0  0  0  0
  -17.6466  -30.6588   24.0543 C   0  0  0  0  0  0
  -25.9051  -34.9443   23.5098 C   0  0  0  0  0  0
  -16.5347  -29.9080   23.6337 C   0  0  0  0  0  0
  -16.7266  -28.6497   23.0358 C   0  0  0  0  0  0
  -26.4533  -31.6573   25.0711 C   0  0  0  0  0  0
  -25.3811  -31.3696   26.1469 C   0  0  0  0  0  0
  -27.0383  -30.3005   24.6133 C   0  0  0  0  0  0
  -27.6092  -32.4310   25.7486 C   0  0  0  0  0  0
  -27.5576  -37.1794   24.8469 C   0  0  0  0  0  0
  -21.4158  -29.3038   22.3699 N   0  0  0  0  0  0
  -26.4282  -37.3775   23.9413 N   0  0  0  0  0  0
  -24.6776  -31.0701   22.0999 N   0  0  0  0  0  0
  -23.4176  -28.8196   23.3044 O   0  0  0  0  0  0
  -28.3626  -26.5660   20.1264 O   0  0  0  0  0  0
  -26.5597  -34.8914   22.4651 O   0  0  0  0  0  0
  -23.5419  -32.1395   23.7481 O   0  0  0  0  0  0
  -31.5412  -22.3764   19.2822 C   0  0  0  0  0  0
  -32.4958  -21.3969   19.2518 C   0  0  0  0  0  0
  -30.6775  -20.5749   20.2787 C   0  0  0  0  0  0
  -33.8575  -21.3536   18.6369 C   0  0  0  0  0  0
  -29.6743  -20.6919   23.1706 C   0  0  0  0  0  0
  -31.2710  -17.8564   22.3120 C   0  0  0  0  0  0
  -28.4722  -25.1521   18.1596 C   0  0  0  0  0  0
  -28.9592  -19.8420   22.1020 C   0  0  0  0  0  0
  -29.3205  -24.2154   20.3839 C   0  0  0  0  0  0
  -29.1674  -22.6655   20.0836 C   0  0  0  0  0  0
  -29.5050  -16.8341   20.7357 C   0  0  0  0  0  0
  -29.7911  -19.4545   20.8482 C   0  0  2  0  0  0
  -30.4895  -18.0231   20.9936 C   0  0  1  0  0  0
  -28.2864  -25.1696   19.6897 C   0  0  1  0  0  0
  -30.4374  -21.8820   19.9401 N   0  0  0  0  0  0
  -31.9397  -20.3327   19.9000 N   0  3  0  0  0  0
  -29.8562  -15.4601   21.1801 N   0  0  0  0  0  0
  -31.4891  -12.4710   19.1431 H   0  0  0  0  0  0
  -30.3778  -11.3192   19.8230 H   0  0  0  0  0  0
  -29.7690  -11.8045   17.4398 H   0  0  0  0  0  0
  -29.6709  -13.5115   17.7820 H   0  0  0  0  0  0
  -27.8472  -11.3145   18.8098 H   0  0  0  0  0  0
  -27.3882  -12.6472   17.7853 H   0  0  0  0  0  0
  -27.7188  -14.2528   19.5993 H   0  0  0  0  0  0
  -28.6964  -11.8994   21.2936 H   0  0  0  0  0  0
  -28.4523  -13.4955   21.9104 H   0  0  0  0  0  0
  -25.2733   -9.5712   22.4749 H   0  0  0  0  0  0
  -24.0008   -7.4642   22.7472 H   0  0  0  0  0  0
  -21.0822   -8.8765   19.8962 H   0  0  0  0  0  0
  -22.3656  -10.9678   19.6162 H   0  0  0  0  0  0
  -21.1994   -7.6147   23.9733 H   0  0  0  0  0  0
  -21.1489   -6.0513   25.9083 H   0  0  0  0  0  0
  -22.0590   -2.7623   23.2835 H   0  0  0  0  0  0
  -22.4055  -11.9994   22.4852 H   0  0  0  0  0  0
  -21.1073  -13.1365   22.2488 H   0  0  0  0  0  0
  -24.6736  -15.8435   20.5216 H   0  0  0  0  0  0
  -26.2954  -15.6226   20.1023 H   0  0  0  0  0  0
  -26.7188  -32.5433   23.1111 H   0  0  0  0  0  0
  -25.0210  -33.9724   25.0505 H   0  0  0  0  0  0
  -22.7001  -31.3137   21.4173 H   0  0  0  0  0  0
  -23.3753  -35.9609   23.3292 H   0  0  0  0  0  0
  -24.3581  -36.8899   22.2057 H   0  0  0  0  0  0
  -23.7242  -37.6483   23.6650 H   0  0  0  0  0  0
  -26.0785  -31.5751   20.6064 H   0  0  0  0  0  0
  -26.8294  -30.8462   21.9979 H   0  0  0  0  0  0
  -28.1029  -29.0249   21.1668 H   0  0  0  0  0  0
  -25.9298  -25.9668   18.9911 H   0  0  0  0  0  0
  -23.9420  -27.3148   19.0405 H   0  0  0  0  0  0
  -23.7226  -30.6025   19.4059 H   0  0  0  0  0  0
  -22.7321  -29.2570   19.8729 H   0  0  0  0  0  0
  -25.1298  -36.1911   25.0825 H   0  0  0  0  0  0
  -20.9969  -28.3243   24.1405 H   0  0  0  0  0  0
  -20.5667  -26.2280   23.3596 H   0  0  0  0  0  0
  -21.6640  -26.7449   22.1196 H   0  0  0  0  0  0
  -19.6923  -25.6289   21.1215 H   0  0  0  0  0  0
  -19.6694  -27.3181   20.6721 H   0  0  0  0  0  0
  -17.4205  -26.6654   21.4001 H   0  0  0  0  0  0
  -18.0345  -26.0047   22.8997 H   0  0  0  0  0  0
  -19.7946  -30.7247   24.2236 H   0  0  0  0  0  0
  -17.5034  -31.6265   24.5152 H   0  0  0  0  0  0
  -15.5353  -30.2977   23.7688 H   0  0  0  0  0  0
  -15.8663  -28.0810   22.7100 H   0  0  0  0  0  0
  -24.6001  -30.7007   25.7832 H   0  0  0  0  0  0
  -24.8993  -32.2853   26.4893 H   0  0  0  0  0  0
  -25.8203  -30.8904   27.0229 H   0  0  0  0  0  0
  -26.2929  -29.6726   24.1233 H   0  0  0  0  0  0
  -27.4191  -29.7288   25.4608 H   0  0  0  0  0  0
  -27.8743  -30.4299   23.9259 H   0  0  0  0  0  0
  -27.2703  -33.3622   26.2030 H   0  0  0  0  0  0
  -28.3932  -32.6844   25.0340 H   0  0  0  0  0  0
  -28.0712  -31.8443   26.5438 H   0  0  0  0  0  0
  -28.2604  -38.0086   24.7531 H   0  0  0  0  0  0
  -28.1061  -36.2623   24.6269 H   0  0  0  0  0  0
  -27.2284  -37.1412   25.8871 H   0  0  0  0  0  0
  -20.9331  -29.8743   21.6897 H   0  0  0  0  0  0
  -26.0154  -38.2839   24.1444 H   0  0  0  0  0  0
  -31.5717  -23.3690   18.8538 H   0  0  0  0  0  0
  -33.9047  -22.0365   17.7881 H   0  0  0  0  0  0
  -34.0876  -20.3505   18.2774 H   0  0  0  0  0  0
  -34.6164  -21.6497   19.3610 H   0  0  0  0  0  0
  -28.9849  -20.9396   23.9782 H   0  0  0  0  0  0
  -30.0525  -21.6349   22.7751 H   0  0  0  0  0  0
  -30.5126  -20.1609   23.6204 H   0  0  0  0  0  0
  -31.8496  -16.9319   22.3280 H   0  0  0  0  0  0
  -30.6040  -17.8340   23.1742 H   0  0  0  0  0  0
  -31.9811  -18.6703   22.4549 H   0  0  0  0  0  0
  -28.2566  -24.1742   17.7325 H   0  0  0  0  0  0
  -29.4956  -25.4084   17.8864 H   0  0  0  0  0  0
  -27.8149  -25.8604   17.6570 H   0  0  0  0  0  0
  -28.0654  -20.3752   21.7806 H   0  0  0  0  0  0
  -28.5626  -18.9410   22.5669 H   0  0  0  0  0  0
  -30.3196  -24.5778   20.1534 H   0  0  0  0  0  0
  -29.2256  -24.3453   21.4623 H   0  0  0  0  0  0
  -28.6142  -22.5008   19.1614 H   0  0  0  0  0  0
  -28.5589  -22.2230   20.8648 H   0  0  0  0  0  0
  -29.2484  -16.8003   19.6759 H   0  0  0  0  0  0
  -28.5641  -17.0579   21.2394 H   0  0  0  0  0  0
  -29.0659  -19.3302   20.0414 H   0  0  0  0  0  0
  -31.2125  -17.9166   20.1861 H   0  0  0  0  0  0
  -27.3165  -24.7502   19.9560 H   0  0  0  0  0  0
  -32.4030  -19.4415   20.0381 H   0  0  0  0  0  0
  -29.1199  -15.0309   21.7209 H   0  0  0  0  0  0
  1 25  1  0  0  0
  1 30  2  0  0  0
  1 87  1  0  0  0
  2  3  1  0  0  0
  2 25  1  0  0  0
  2 88  1  0  0  0
  2 89  1  0  0  0
  3  4  1  0  0  0
  3 90  1  0  0  0
  3 91  1  0  0  0
  4  5  1  0  0  0
  4 92  1  0  0  0
  4 93  1  0  0  0
  5  6  1  0  0  0
  5 26  1  0  0  0
  5 94  1  0  0  0
  6 25  1  0  0  0
  6 95  1  0  0  0
  6 96  1  0  0  0
  7  8  2  0  0  0
  7 26  1  0  0  0
  7 29  1  0  0  0
  8  9  1  0  0  0
  8 22  1  0  0  0
  9 10  1  0  0  0
  9 27  2  0  0  0
 10 11  2  0  0  0
 10 15  1  0  0  0
 11 12  1  0  0  0
 11 97  1  0  0  0
 12 13  2  0  0  0
 12 98  1  0  0  0
 13 14  1  0  0  0
 13 31  1  0  0  0
 14 15  2  0  0  0
 14 99  1  0  0  0
 15100  1  0  0  0
 16 17  2  0  0  0
 16 21  1  0  0  0
 16 31  1  0  0  0
 17 18  1  0  0  0
 17101  1  0  0  0
 18 19  2  0  0  0
 18102  1  0  0  0
 19 20  1  0  0  0
 19 24  1  0  0  0
 20 21  2  0  0  0
 20103  1  0  0  0
 21 23  1  0  0  0
 22 28  1  0  0  0
 22 32  2  0  0  0
 26 27  1  0  0  0
 28104  1  0  0  0
 28105  1  0  0  0
 29106  1  0  0  0
 29107  1  0  0  0
 33 34  1  0  0  0
 33 66  1  0  0  0
 33 70  2  0  0  0
 34 36  1  0  0  0
 34 59  1  0  0  0
 34108  1  0  0  0
 35 44  2  0  0  0
 35 45  1  0  0  0
 35 68  1  0  0  0
 36 56  1  0  0  0
 36109  1  0  0  0
 37 39  1  0  0  0
 37 47  1  0  0  0
 37 66  1  0  0  0
 37110  1  0  0  0
 38 43  2  0  0  0
 38 46  1  0  0  0
 38 47  1  0  0  0
 39 64  1  0  0  0
 39 67  2  0  0  0
 40 52  1  0  0  0
 40 53  2  0  0  0
 40 58  1  0  0  0
 41111  1  0  0  0
 41112  1  0  0  0
 41113  1  0  0  0
 41 48  1  0  0  0
 42 43  1  0  0  0
 42 66  1  0  0  0
 42114  1  0  0  0
 42115  1  0  0  0
 43 44  1  0  0  0
 44116  1  0  0  0
 45 46  2  0  0  0
 45117  1  0  0  0
 46118  1  0  0  0
 47119  1  0  0  0
 47120  1  0  0  0
 48 56  1  0  0  0
 48 65  1  0  0  0
 48121  1  0  0  0
 49 50  1  0  0  0
 49 53  1  0  0  0
 49 64  1  0  0  0
 49122  1  0  0  0
 50 51  1  0  0  0
 50123  1  0  0  0
 50124  1  0  0  0
 51 52  1  0  0  0
 51125  1  0  0  0
 51126  1  0  0  0
 52127  1  0  0  0
 52128  1  0  0  0
 53 54  1  0  0  0
 54 55  2  0  0  0
 54129  1  0  0  0
 55 57  1  0  0  0
 55130  1  0  0  0
 56 69  2  0  0  0
 57 58  2  0  0  0
 57131  1  0  0  0
 58132  1  0  0  0
 59 60  1  0  0  0
 59 61  1  0  0  0
 59 62  1  0  0  0
 60133  1  0  0  0
 60134  1  0  0  0
 60135  1  0  0  0
 61136  1  0  0  0
 61137  1  0  0  0
 61138  1  0  0  0
 62139  1  0  0  0
 62140  1  0  0  0
 62141  1  0  0  0
 63 65  1  0  0  0
 63142  1  0  0  0
 63143  1  0  0  0
 63144  1  0  0  0
 64145  1  0  0  0
 65146  1  0  0  0
 68 84  1  0  0  0
 71 72  2  0  0  0
 71 85  1  0  0  0
 71147  1  0  0  0
 72 74  1  0  0  0
 72 86  1  0  0  0
 73 82  1  0  0  0
 73 85  1  0  0  0
 73 86  2  0  0  0
 74148  1  0  0  0
 74149  1  0  0  0
 74150  1  0  0  0
 75 78  1  0  0  0
 75151  1  0  0  0
 75152  1  0  0  0
 75153  1  0  0  0
 76154  1  0  0  0
 76155  1  0  0  0
 76156  1  0  0  0
 76 83  1  0  0  0
 77157  1  0  0  0
 77158  1  0  0  0
 77159  1  0  0  0
 77 84  1  0  0  0
 78160  1  0  0  0
 78161  1  0  0  0
 78 82  1  0  0  0
 79 80  1  0  0  0
 79 84  1  0  0  0
 79162  1  0  0  0
 79163  1  0  0  0
 80 85  1  0  0  0
 80164  1  0  0  0
 80165  1  0  0  0
 81 83  1  0  0  0
 81 87  1  0  0  0
 81166  1  0  0  0
 81167  1  0  0  0
 82 83  1  0  0  0
 82168  1  0  0  0
 83169  1  0  0  0
 84170  1  0  0  0
 86171  1  0  0  0
 87172  1  0  0  0
M  CHG  1  86   1
M  ISO  4   1 100  68 101  84 101  87 100
M  END
> <chiral flag>
0

> <version>
0

> <s_m_source_file>
/data/baiqing/PycharmProjects/Reinvent-master-3.2/result/LINK_invent/BTK/process_docking_weight1_custom_sum_contain_oxygen_bond_distance_aromatic_linkinvent_7_9_3/rearranged_h_0076.sdf

> <i_m_source_file_index>
59

> <r_mmod_Potential_Energy-OPLS-2005>
15.1413764953613

> <r_mmod_Stretch_Energy-OPLS-2005>
62.7627487182617

> <r_mmod_Bend_Energy-OPLS-2005>
142.686218261719

> <r_mmod_Torsional_Energy-OPLS-2005>
266.462036132812

> <r_mmod_Improper_Torsional_Energy-OPLS-2005>
6.99458265304565

> <r_mmod_Van_der_Waal_Energy-OPLS-2005>
132.3349609375

> <r_mmod_Electrostatic_Energy-OPLS-2005>
-224.485412597656

> <r_mmod_Solvation_Energy-OPLS-2005>
-397.457153320312

> <b_mmod_Minimization_Converged-OPLS-2005>
0

> <r_mmod_RMS_Derivative-OPLS-2005>
2.68045377731323

$$$$
59
                    3D
 Structure written by MMmdl.
176184  0  0  1  0            999 V2000
  -30.6385  -14.6624   20.5757 C   0  0  0  0  0  0
  -30.5345  -12.5258   19.3646 C   0  0  0  0  0  0
  -29.4992  -12.5422   18.1830 C   0  0  0  0  0  0
  -28.1211  -12.1184   18.7422 C   0  0  0  0  0  0
  -27.6943  -13.0982   19.8742 C   0  0  2  0  0  0
  -28.7651  -13.0222   21.0107 C   0  0  0  0  0  0
  -25.2965  -13.7771   20.6162 C   0  0  0  0  0  0
  -24.2084  -12.9998   20.9525 C   0  0  0  0  0  0
  -24.6493  -11.6474   20.8810 C   0  0  0  0  0  0
  -23.8949  -10.4143   21.0510 C   0  0  0  0  0  0
  -24.2947   -9.4333   21.9801 C   0  0  0  0  0  0
  -23.5643   -8.2301   22.1129 C   0  0  0  0  0  0
  -22.4133   -8.0117   21.3316 C   0  0  0  0  0  0
  -22.0292   -8.9973   20.4070 C   0  0  0  0  0  0
  -22.7634  -10.1867   20.2384 C   0  0  0  0  0  0
  -21.6873   -6.0715   22.5384 C   0  0  0  0  0  0
  -21.3872   -6.5347   23.8295 C   0  0  0  0  0  0
  -21.3695   -5.6396   24.9245 C   0  0  0  0  0  0
  -21.6152   -4.2737   24.7242 C   0  0  0  0  0  0
  -21.8901   -3.7928   23.4219 C   0  0  0  0  0  0
  -21.9176   -4.6906   22.3398 C   0  0  0  0  0  0
  -22.8277  -13.4988   21.2130 C   0  0  0  0  0  0
  -22.1573   -4.2075   21.1014 F   0  0  0  0  0  0
  -21.5937   -3.4295   25.7798 F   0  0  0  0  0  0
  -30.0562  -13.4296   20.4309 N   0  0  0  0  0  0
  -26.3229  -12.8640   20.3351 N   0  0  0  0  0  0
  -25.9228  -11.5837   20.5151 N   0  0  0  0  0  0
  -22.0811  -12.8001   22.0611 N   0  0  0  0  0  0
  -25.5043  -15.1487   20.4934 N   0  0  0  0  0  0
  -31.7923  -14.8930   20.2098 O   0  0  0  0  0  0
  -21.6179   -6.8867   21.4323 O   0  0  0  0  0  0
  -22.4085  -14.5349   20.7216 O   0  0  0  0  0  0
  -24.6349  -31.8538   23.1996 C   0  0  0  0  0  0
  -25.9227  -32.4673   23.8330 C   0  0  1  0  0  0
  -27.1480  -27.2686   20.0114 C   0  0  0  0  0  0
  -25.5974  -33.8482   24.2149 N   0  0  0  0  0  0
  -23.4236  -30.4817   21.5441 C   0  0  2  0  0  0
  -24.8469  -28.9475   20.1069 C   0  0  0  0  0  0
  -22.7484  -29.4520   22.4802 C   0  0  0  0  0  0
  -18.0262  -28.1370   22.8430 C   0  0  0  0  0  0
  -24.1494  -36.7239   23.2649 C   0  0  0  0  0  0
  -25.9856  -30.7502   21.3908 C   0  0  0  0  0  0
  -26.0364  -29.3958   20.6944 C   0  0  0  0  0  0
  -27.2053  -28.5692   20.6333 C   0  0  0  0  0  0
  -25.9294  -26.9080   19.4059 C   0  0  0  0  0  0
  -24.7948  -27.7122   19.4692 C   0  0  0  0  0  0
  -23.6372  -29.8461   20.1572 C   0  0  0  0  0  0
  -25.4154  -36.3002   24.0295 C   0  0  1  0  0  0
  -20.5933  -28.3726   23.1201 C   0  0  2  0  0  0
  -20.6752  -26.9420   22.5375 C   0  0  0  0  0  0
  -19.5718  -26.6363   21.5163 C   0  0  0  0  0  0
  -18.1928  -26.7896   22.1576 C   0  0  0  0  0  0
  -19.1561  -28.8838   23.2819 C   0  0  0  0  0  0
  -18.9450  -30.1426   23.8867 C   0  0  0  0  0  0
  -17.6477  -30.6597   24.0521 C   0  0  0  0  0  0
  -25.9116  -34.9401   23.5086 C   0  0  0  0  0  0
  -16.5346  -29.9114   23.6321 C   0  0  0  0  0  0
  -16.7253  -28.6498   23.0358 C   0  0  0  0  0  0
  -26.4557  -31.6509   25.0753 C   0  0  0  0  0  0
  -25.3750  -31.3747   26.1439 C   0  0  0  0  0  0
  -27.0461  -30.2860   24.6459 C   0  0  0  0  0  0
  -27.6016  -32.4351   25.7548 C   0  0  0  0  0  0
  -27.5572  -37.1791   24.8471 C   0  0  0  0  0  0
  -21.4176  -29.3106   22.3638 N   0  0  0  0  0  0
  -26.4278  -37.3728   23.9430 N   0  0  0  0  0  0
  -24.7016  -31.0580   22.0943 N   0  0  0  0  0  0
  -23.4203  -28.8124   23.2880 O   0  0  0  0  0  0
  -28.1928  -26.3335   19.9377 O   0  0  0  0  0  0
  -26.5709  -34.8843   22.4637 O   0  0  0  0  0  0
  -23.5486  -32.1361   23.7260 O   0  0  0  0  0  0
  -28.7415  -19.0480   18.4260 C   0  0  0  0  0  0
  -27.2689  -18.7539   16.9673 C   0  0  0  0  0  0
  -25.1524  -16.5012   12.8926 C   0  0  0  0  0  0
  -23.5220  -17.5191   14.4227 C   0  0  0  0  0  0
  -24.9510  -15.6087   15.1798 C   0  0  0  0  0  0
  -29.4810  -19.3215   19.7269 C   0  0  0  0  0  0
  -25.8914  -18.5642   16.3061 C   0  0  0  0  0  0
  -30.4479  -18.1485   20.2351 C   0  0  0  0  0  0
  -25.9485  -17.9873   14.8325 C   0  0  0  0  0  0
  -27.7849  -22.2543   18.9427 C   0  0  0  0  0  0
  -27.7082  -23.8655   18.7228 C   0  0  0  0  0  0
  -27.1557  -21.1740   17.9196 C   0  0  0  0  0  0
  -30.0059  -17.0966   21.3340 C   0  0  0  0  0  0
  -27.8202  -24.8594   19.9981 C   0  0  0  0  0  0
  -24.9173  -16.9151   14.3591 C   0  0  0  0  0  0
  -29.0581  -17.9135   17.8121 N   0  0  0  0  0  0
  -28.1133  -17.7186   16.8759 N   0  0  0  0  0  0
  -27.7065  -19.7510   17.8247 N   0  0  0  0  0  0
  -29.7921  -15.6574   20.9637 N   0  0  0  0  0  0
  -31.5003  -12.8840   18.9876 H   0  0  0  0  0  0
  -30.7640  -11.5461   19.8062 H   0  0  0  0  0  0
  -29.8200  -11.9010   17.3488 H   0  0  0  0  0  0
  -29.4247  -13.5349   17.7014 H   0  0  0  0  0  0
  -28.2464  -11.1145   19.1967 H   0  0  0  0  0  0
  -27.3710  -12.0806   17.9642 H   0  0  0  0  0  0
  -27.6934  -14.0947   19.4286 H   0  0  0  0  0  0
  -28.8578  -11.9765   21.3425 H   0  0  0  0  0  0
  -28.5866  -13.6270   21.9127 H   0  0  0  0  0  0
  -25.1490   -9.5929   22.6283 H   0  0  0  0  0  0
  -23.8740   -7.5102   22.8458 H   0  0  0  0  0  0
  -21.1877   -8.8325   19.7608 H   0  0  0  0  0  0
  -22.4599  -10.9063   19.4930 H   0  0  0  0  0  0
  -21.1285   -7.5718   23.9718 H   0  0  0  0  0  0
  -21.1612   -6.0040   25.9234 H   0  0  0  0  0  0
  -22.0694   -2.7407   23.2700 H   0  0  0  0  0  0
  -22.4155  -11.9487   22.4491 H   0  0  0  0  0  0
  -21.1552  -13.1324   22.2483 H   0  0  0  0  0  0
  -24.7458  -15.8161   20.4351 H   0  0  0  0  0  0
  -26.3461  -15.4890   20.0475 H   0  0  0  0  0  0
  -26.7271  -32.5153   23.0998 H   0  0  0  0  0  0
  -25.0023  -33.9630   25.0228 H   0  0  0  0  0  0
  -22.7185  -31.3057   21.4021 H   0  0  0  0  0  0
  -23.3745  -35.9567   23.3311 H   0  0  0  0  0  0
  -24.3544  -36.8887   22.2061 H   0  0  0  0  0  0
  -23.7230  -37.6413   23.6710 H   0  0  0  0  0  0
  -26.1914  -31.5356   20.6632 H   0  0  0  0  0  0
  -26.8352  -30.7297   22.0663 H   0  0  0  0  0  0
  -28.1226  -28.9155   21.0888 H   0  0  0  0  0  0
  -25.8217  -25.9628   18.8927 H   0  0  0  0  0  0
  -23.8748  -27.3548   19.0202 H   0  0  0  0  0  0
  -23.7931  -30.6295   19.4093 H   0  0  0  0  0  0
  -22.7450  -29.3052   19.8270 H   0  0  0  0  0  0
  -25.1320  -36.1844   25.0775 H   0  0  0  0  0  0
  -20.9920  -28.3305   24.1355 H   0  0  0  0  0  0
  -20.5611  -26.2341   23.3622 H   0  0  0  0  0  0
  -21.6633  -26.7404   22.1224 H   0  0  0  0  0  0
  -19.6990  -25.6287   21.1228 H   0  0  0  0  0  0
  -19.6731  -27.3125   20.6679 H   0  0  0  0  0  0
  -17.4197  -26.6537   21.3998 H   0  0  0  0  0  0
  -18.0383  -26.0066   22.8997 H   0  0  0  0  0  0
  -19.7961  -30.7182   24.2265 H   0  0  0  0  0  0
  -17.5078  -31.6278   24.5130 H   0  0  0  0  0  0
  -15.5378  -30.3027   23.7703 H   0  0  0  0  0  0
  -15.8588  -28.0811   22.7176 H   0  0  0  0  0  0
  -24.5959  -30.7014   25.7841 H   0  0  0  0  0  0
  -24.8910  -32.2951   26.4708 H   0  0  0  0  0  0
  -25.8080  -30.9078   27.0287 H   0  0  0  0  0  0
  -26.3154  -29.6500   24.1427 H   0  0  0  0  0  0
  -27.3925  -29.7241   25.5144 H   0  0  0  0  0  0
  -27.9100  -30.3964   23.9895 H   0  0  0  0  0  0
  -27.2501  -33.3664   26.1967 H   0  0  0  0  0  0
  -28.3904  -32.6897   25.0478 H   0  0  0  0  0  0
  -28.0568  -31.8608   26.5591 H   0  0  0  0  0  0
  -28.2574  -38.0095   24.7484 H   0  0  0  0  0  0
  -28.1082  -36.2623   24.6343 H   0  0  0  0  0  0
  -27.2295  -37.1461   25.8866 H   0  0  0  0  0  0
  -20.9405  -29.8878   21.6872 H   0  0  0  0  0  0
  -26.0145  -38.2788   24.1409 H   0  0  0  0  0  0
  -24.6298  -15.5522   12.7070 H   0  0  0  0  0  0
  -26.2009  -16.3023   12.6934 H   0  0  0  0  0  0
  -24.7648  -17.1957   12.1344 H   0  0  0  0  0  0
  -22.8025  -16.8855   13.9044 H   0  0  0  0  0  0
  -23.5140  -18.5332   13.9945 H   0  0  0  0  0  0
  -23.2207  -17.5986   15.4635 H   0  0  0  0  0  0
  -24.2856  -14.8697   14.7364 H   0  0  0  0  0  0
  -24.5455  -15.7833   16.1656 H   0  0  0  0  0  0
  -25.9434  -15.1490   15.2752 H   0  0  0  0  0  0
  -28.7409  -19.5202   20.4876 H   0  0  0  0  0  0
  -30.0054  -20.2644   19.6337 H   0  0  0  0  0  0
  -25.2312  -19.4291   16.4040 H   0  0  0  0  0  0
  -25.3771  -17.8181   16.9138 H   0  0  0  0  0  0
  -31.2256  -18.7155   20.7366 H   0  0  0  0  0  0
  -30.9912  -17.6556   19.4300 H   0  0  0  0  0  0
  -26.0855  -18.7764   14.0937 H   0  0  0  0  0  0
  -26.8757  -17.4525   14.7658 H   0  0  0  0  0  0
  -27.3502  -22.0185   19.9146 H   0  0  0  0  0  0
  -28.8388  -21.9973   19.0094 H   0  0  0  0  0  0
  -26.8023  -24.1442   18.1851 H   0  0  0  0  0  0
  -28.5012  -24.1465   18.0420 H   0  0  0  0  0  0
  -27.2225  -21.5860   16.9045 H   0  0  0  0  0  0
  -26.0800  -21.1042   18.0611 H   0  0  0  0  0  0
  -29.0994  -17.4624   21.8442 H   0  0  0  0  0  0
  -30.8151  -17.0779   22.0823 H   0  0  0  0  0  0
  -28.5285  -24.4290   20.7042 H   0  0  0  0  0  0
  -26.8711  -24.7764   20.5323 H   0  0  0  0  0  0
  -28.8729  -15.2809   21.1523 H   0  0  0  0  0  0
  1 25  1  0  0  0
  1 30  2  0  0  0
  1 89  1  0  0  0
  2  3  1  0  0  0
  2 25  1  0  0  0
  2 90  1  0  0  0
  2 91  1  0  0  0
  3  4  1  0  0  0
  3 92  1  0  0  0
  3 93  1  0  0  0
  4  5  1  0  0  0
  4 94  1  0  0  0
  4 95  1  0  0  0
  5  6  1  0  0  0
  5 26  1  0  0  0
  5 96  1  0  0  0
  6 25  1  0  0  0
  6 97  1  0  0  0
  6 98  1  0  0  0
  7  8  2  0  0  0
  7 26  1  0  0  0
  7 29  1  0  0  0
  8  9  1  0  0  0
  8 22  1  0  0  0
  9 10  1  0  0  0
  9 27  2  0  0  0
 10 11  2  0  0  0
 10 15  1  0  0  0
 11 12  1  0  0  0
 11 99  1  0  0  0
 12 13  2  0  0  0
 12100  1  0  0  0
 13 14  1  0  0  0
 13 31  1  0  0  0
 14 15  2  0  0  0
 14101  1  0  0  0
 15102  1  0  0  0
 16 17  2  0  0  0
 16 21  1  0  0  0
 16 31  1  0  0  0
 17 18  1  0  0  0
 17103  1  0  0  0
 18 19  2  0  0  0
 18104  1  0  0  0
 19 20  1  0  0  0
 19 24  1  0  0  0
 20 21  2  0  0  0
 20105  1  0  0  0
 21 23  1  0  0  0
 22 28  1  0  0  0
 22 32  2  0  0  0
 26 27  1  0  0  0
 28106  1  0  0  0
 28107  1  0  0  0
 29108  1  0  0  0
 29109  1  0  0  0
 33 34  1  0  0  0
 33 66  1  0  0  0
 33 70  2  0  0  0
 34 36  1  0  0  0
 34 59  1  0  0  0
 34110  1  0  0  0
 35 44  2  0  0  0
 35 45  1  0  0  0
 35 68  1  0  0  0
 36 56  1  0  0  0
 36111  1  0  0  0
 37 39  1  0  0  0
 37 47  1  0  0  0
 37 66  1  0  0  0
 37112  1  0  0  0
 38 43  2  0  0  0
 38 46  1  0  0  0
 38 47  1  0  0  0
 39 64  1  0  0  0
 39 67  2  0  0  0
 40 52  1  0  0  0
 40 53  2  0  0  0
 40 58  1  0  0  0
 41113  1  0  0  0
 41114  1  0  0  0
 41115  1  0  0  0
 41 48  1  0  0  0
 42 43  1  0  0  0
 42 66  1  0  0  0
 42116  1  0  0  0
 42117  1  0  0  0
 43 44  1  0  0  0
 44118  1  0  0  0
 45 46  2  0  0  0
 45119  1  0  0  0
 46120  1  0  0  0
 47121  1  0  0  0
 47122  1  0  0  0
 48 56  1  0  0  0
 48 65  1  0  0  0
 48123  1  0  0  0
 49 50  1  0  0  0
 49 53  1  0  0  0
 49 64  1  0  0  0
 49124  1  0  0  0
 50 51  1  0  0  0
 50125  1  0  0  0
 50126  1  0  0  0
 51 52  1  0  0  0
 51127  1  0  0  0
 51128  1  0  0  0
 52129  1  0  0  0
 52130  1  0  0  0
 53 54  1  0  0  0
 54 55  2  0  0  0
 54131  1  0  0  0
 55 57  1  0  0  0
 55132  1  0  0  0
 56 69  2  0  0  0
 57 58  2  0  0  0
 57133  1  0  0  0
 58134  1  0  0  0
 59 60  1  0  0  0
 59 61  1  0  0  0
 59 62  1  0  0  0
 60135  1  0  0  0
 60136  1  0  0  0
 60137  1  0  0  0
 61138  1  0  0  0
 61139  1  0  0  0
 61140  1  0  0  0
 62141  1  0  0  0
 62142  1  0  0  0
 62143  1  0  0  0
 63 65  1  0  0  0
 63144  1  0  0  0
 63145  1  0  0  0
 63146  1  0  0  0
 64147  1  0  0  0
 65148  1  0  0  0
 68 84  1  0  0  0
 71 76  1  0  0  0
 71 86  2  0  0  0
 71 88  1  0  0  0
 72 77  1  0  0  0
 72 87  2  0  0  0
 72 88  1  0  0  0
 73149  1  0  0  0
 73150  1  0  0  0
 73151  1  0  0  0
 73 85  1  0  0  0
 74 85  1  0  0  0
 74152  1  0  0  0
 74153  1  0  0  0
 74154  1  0  0  0
 75 85  1  0  0  0
 75155  1  0  0  0
 75156  1  0  0  0
 75157  1  0  0  0
 76 78  1  0  0  0
 76158  1  0  0  0
 76159  1  0  0  0
 77 79  1  0  0  0
 77160  1  0  0  0
 77161  1  0  0  0
 78 83  1  0  0  0
 78162  1  0  0  0
 78163  1  0  0  0
 79 85  1  0  0  0
 79164  1  0  0  0
 79165  1  0  0  0
 80 81  1  0  0  0
 80 82  1  0  0  0
 80166  1  0  0  0
 80167  1  0  0  0
 81 84  1  0  0  0
 81168  1  0  0  0
 81169  1  0  0  0
 82 88  1  0  0  0
 82170  1  0  0  0
 82171  1  0  0  0
 83 89  1  0  0  0
 83172  1  0  0  0
 83173  1  0  0  0
 84174  1  0  0  0
 84175  1  0  0  0
 86 87  1  0  0  0
 89176  1  0  0  0
M  ISO  4   1 100  68 101  84 101  89 100
M  END
> <chiral flag>
0

> <version>
0

> <s_m_source_file>
/data/baiqing/PycharmProjects/Reinvent-master-3.2/result/LINK_invent/BTK/process_docking_weight1_custom_sum_contain_oxygen_bond_distance_aromatic_linkinvent_7_9_3/rearranged_h_0076.sdf

> <i_m_source_file_index>
60

> <r_mmod_Potential_Energy-OPLS-2005>
314.664306640625

> <r_mmod_Stretch_Energy-OPLS-2005>
140.092987060547

> <r_mmod_Bend_Energy-OPLS-2005>
257.379272460938

> <r_mmod_Torsional_Energy-OPLS-2005>
301.743499755859

> <r_mmod_Improper_Torsional_Energy-OPLS-2005>
8.59876155853271

> <r_mmod_Van_der_Waal_Energy-OPLS-2005>
131.560882568359

> <r_mmod_Electrostatic_Energy-OPLS-2005>
-398.466583251953

> <r_mmod_Solvation_Energy-OPLS-2005>
-230.850021362305

> <b_mmod_Minimization_Converged-OPLS-2005>
0

> <r_mmod_RMS_Derivative-OPLS-2005>
31.785026550293

$$$$
60
                    3D
 Structure written by MMmdl.
159167  0  0  1  0            999 V2000
  -30.6114  -14.7483   20.4825 C   0  0  0  0  0  0
  -30.4397  -12.4703   19.4799 C   0  0  0  0  0  0
  -29.5107  -12.5187   18.2474 C   0  0  0  0  0  0
  -28.0417  -12.3253   18.6697 C   0  0  0  0  0  0
  -27.6447  -13.2280   19.8660 C   0  0  2  0  0  0
  -28.6902  -13.1688   21.0032 C   0  0  0  0  0  0
  -25.2529  -13.8194   20.5760 C   0  0  0  0  0  0
  -24.1805  -13.0419   20.9237 C   0  0  0  0  0  0
  -24.6403  -11.6907   20.8785 C   0  0  0  0  0  0
  -23.9073  -10.4275   21.0427 C   0  0  0  0  0  0
  -24.3628   -9.4194   21.9210 C   0  0  0  0  0  0
  -23.6305   -8.2233   22.0771 C   0  0  0  0  0  0
  -22.4280   -8.0287   21.3564 C   0  0  0  0  0  0
  -21.9920   -9.0247   20.4649 C   0  0  0  0  0  0
  -22.7244  -10.2133   20.3059 C   0  0  0  0  0  0
  -21.6860   -6.0752   22.5277 C   0  0  0  0  0  0
  -21.4021   -6.5663   23.8207 C   0  0  0  0  0  0
  -21.3660   -5.6819   24.9179 C   0  0  0  0  0  0
  -21.6039   -4.3076   24.7225 C   0  0  0  0  0  0
  -21.8819   -3.8155   23.4349 C   0  0  0  0  0  0
  -21.9199   -4.6979   22.3404 C   0  0  0  0  0  0
  -22.7827  -13.5222   21.1858 C   0  0  0  0  0  0
  -22.1674   -4.2160   21.0983 F   0  0  0  0  0  0
  -21.5626   -3.4563   25.7744 F   0  0  0  0  0  0
  -29.9876  -13.5247   20.4152 N   0  0  0  0  0  0
  -26.2951  -12.9382   20.3384 N   0  0  0  0  0  0
  -25.9328  -11.6521   20.5792 N   0  0  0  0  0  0
  -22.0493  -12.8175   22.0414 N   0  0  0  0  0  0
  -25.4157  -15.1922   20.4240 N   0  0  0  0  0  0
  -31.7954  -14.8493   20.1462 O   0  0  0  0  0  0
  -21.6656   -6.8886   21.4232 O   0  0  0  0  0  0
  -22.3521  -14.5536   20.6724 O   0  0  0  0  0  0
  -24.6327  -31.8571   23.1958 C   0  0  0  0  0  0
  -25.9121  -32.4767   23.8330 C   0  0  1  0  0  0
  -27.2160  -27.2638   20.1510 C   0  0  0  0  0  0
  -25.5882  -33.8571   24.2228 N   0  0  0  0  0  0
  -23.4308  -30.4853   21.5357 C   0  0  2  0  0  0
  -24.8794  -28.9259   20.1107 C   0  0  0  0  0  0
  -22.7463  -29.4723   22.4857 C   0  0  0  0  0  0
  -18.0314  -28.1325   22.8498 C   0  0  0  0  0  0
  -24.1486  -36.7302   23.2656 C   0  0  0  0  0  0
  -25.9749  -30.7722   21.3727 C   0  0  0  0  0  0
  -26.0507  -29.3923   20.7244 C   0  0  0  0  0  0
  -27.2271  -28.5751   20.7372 C   0  0  0  0  0  0
  -26.0308  -26.8692   19.4984 C   0  0  0  0  0  0
  -24.8709  -27.6661   19.4922 C   0  0  0  0  0  0
  -23.6512  -29.8159   20.1536 C   0  0  0  0  0  0
  -25.4095  -36.3072   24.0339 C   0  0  1  0  0  0
  -20.5891  -28.3854   23.1185 C   0  0  2  0  0  0
  -20.6921  -26.9597   22.5254 C   0  0  0  0  0  0
  -19.5776  -26.6400   21.5245 C   0  0  0  0  0  0
  -18.2066  -26.7787   22.1878 C   0  0  0  0  0  0
  -19.1517  -28.8914   23.2811 C   0  0  0  0  0  0
  -18.9358  -30.1551   23.8717 C   0  0  0  0  0  0
  -17.6307  -30.6592   24.0383 C   0  0  0  0  0  0
  -25.9029  -34.9455   23.5085 C   0  0  0  0  0  0
  -16.5261  -29.8969   23.6188 C   0  0  0  0  0  0
  -16.7276  -28.6361   23.0300 C   0  0  0  0  0  0
  -26.4477  -31.6587   25.0731 C   0  0  0  0  0  0
  -25.3713  -31.3732   26.1454 C   0  0  0  0  0  0
  -27.0324  -30.3005   24.6209 C   0  0  0  0  0  0
  -27.6012  -32.4333   25.7537 C   0  0  0  0  0  0
  -27.5565  -37.1808   24.8474 C   0  0  0  0  0  0
  -21.4152  -29.3278   22.3625 N   0  0  0  0  0  0
  -26.4274  -37.3762   23.9422 N   0  0  0  0  0  0
  -24.6995  -31.0552   22.0921 N   0  0  0  0  0  0
  -23.4147  -28.8192   23.2919 O   0  0  0  0  0  0
  -28.2706  -26.3245   20.1599 O   0  0  0  0  0  0
  -26.5645  -34.8969   22.4691 O   0  0  0  0  0  0
  -23.5465  -32.1373   23.7255 O   0  0  0  0  0  0
  -29.5269  -22.8305   21.1181 C   0  0  0  0  0  0
  -29.1537  -21.4718   20.7393 C   0  0  0  0  0  0
  -28.5007  -23.7212   20.7878 C   0  0  0  0  0  0
  -26.1169  -23.1497   18.2290 C   0  0  0  0  0  0
  -29.1803  -25.7343   22.2787 C   0  0  0  0  0  0
  -29.9454  -20.0972   20.9003 C   0  0  0  0  0  0
  -29.3226  -18.6213   20.6224 C   0  0  0  0  0  0
  -26.2139  -23.1412   19.7606 C   0  0  0  0  0  0
  -30.3235  -17.3436   20.7753 C   0  0  0  0  0  0
  -28.2127  -25.2435   21.1926 C   0  0  1  0  0  0
  -27.9690  -21.5424   20.1545 N   0  0  0  0  0  0
  -27.5644  -22.8556   20.2136 N   0  0  0  0  0  0
  -29.8523  -15.8867   20.7366 N   0  0  0  0  0  0
  -31.4787  -12.6066   19.1783 H   0  0  0  0  0  0
  -30.4010  -11.4953   19.9672 H   0  0  0  0  0  0
  -29.8025  -11.7542   17.5272 H   0  0  0  0  0  0
  -29.6184  -13.4794   17.7400 H   0  0  0  0  0  0
  -27.9137  -11.2771   18.9439 H   0  0  0  0  0  0
  -27.3767  -12.5075   17.8251 H   0  0  0  0  0  0
  -27.6418  -14.2473   19.4788 H   0  0  0  0  0  0
  -28.7395  -12.1742   21.4501 H   0  0  0  0  0  0
  -28.4225  -13.8539   21.8123 H   0  0  0  0  0  0
  -25.2771   -9.5714   22.4789 H   0  0  0  0  0  0
  -24.0038   -7.4650   22.7488 H   0  0  0  0  0  0
  -21.0858   -8.8755   19.8956 H   0  0  0  0  0  0
  -22.3685  -10.9694   19.6183 H   0  0  0  0  0  0
  -21.2015   -7.6164   23.9724 H   0  0  0  0  0  0
  -21.1488   -6.0548   25.9092 H   0  0  0  0  0  0
  -22.0585   -2.7610   23.2842 H   0  0  0  0  0  0
  -22.4161  -11.9839   22.4760 H   0  0  0  0  0  0
  -21.1117  -13.1163   22.2675 H   0  0  0  0  0  0
  -24.6359  -15.8285   20.5490 H   0  0  0  0  0  0
  -26.2460  -15.6466   20.0658 H   0  0  0  0  0  0
  -26.7213  -32.5435   23.1104 H   0  0  0  0  0  0
  -24.9921  -33.9682   25.0291 H   0  0  0  0  0  0
  -22.7322  -31.3099   21.3834 H   0  0  0  0  0  0
  -23.3736  -35.9650   23.3318 H   0  0  0  0  0  0
  -24.3581  -36.8924   22.2072 H   0  0  0  0  0  0
  -23.7271  -37.6521   23.6677 H   0  0  0  0  0  0
  -26.1119  -31.5269   20.5974 H   0  0  0  0  0  0
  -26.8549  -30.8258   21.9998 H   0  0  0  0  0  0
  -28.1232  -28.9300   21.2282 H   0  0  0  0  0  0
  -25.9946  -25.9134   19.0012 H   0  0  0  0  0  0
  -23.9748  -27.2993   19.0114 H   0  0  0  0  0  0
  -23.7805  -30.5895   19.3948 H   0  0  0  0  0  0
  -22.7704  -29.2479   19.8488 H   0  0  0  0  0  0
  -25.1286  -36.1905   25.0828 H   0  0  0  0  0  0
  -21.0028  -28.3424   24.1292 H   0  0  0  0  0  0
  -20.6110  -26.2450   23.3470 H   0  0  0  0  0  0
  -21.6740  -26.7836   22.0859 H   0  0  0  0  0  0
  -19.6453  -27.3202   20.6729 H   0  0  0  0  0  0
  -19.6977  -25.6315   21.1274 H   0  0  0  0  0  0
  -17.4180  -26.6091   21.4525 H   0  0  0  0  0  0
  -18.0878  -26.0125   22.9553 H   0  0  0  0  0  0
  -19.7794  -30.7513   24.1916 H   0  0  0  0  0  0
  -17.4767  -31.6310   24.4893 H   0  0  0  0  0  0
  -15.5215  -30.2777   23.7436 H   0  0  0  0  0  0
  -15.8736  -28.0518   22.7127 H   0  0  0  0  0  0
  -24.5902  -30.7052   25.7801 H   0  0  0  0  0  0
  -24.8915  -32.2908   26.4874 H   0  0  0  0  0  0
  -25.8060  -30.8931   27.0227 H   0  0  0  0  0  0
  -26.2912  -29.6769   24.1190 H   0  0  0  0  0  0
  -27.3962  -29.7260   25.4740 H   0  0  0  0  0  0
  -27.8802  -30.4309   23.9482 H   0  0  0  0  0  0
  -27.2583  -33.3625   26.2109 H   0  0  0  0  0  0
  -28.3844  -32.6882   25.0387 H   0  0  0  0  0  0
  -28.0636  -31.8450   26.5473 H   0  0  0  0  0  0
  -28.2576  -38.0106   24.7479 H   0  0  0  0  0  0
  -28.1048  -36.2628   24.6305 H   0  0  0  0  0  0
  -27.2296  -37.1485   25.8885 H   0  0  0  0  0  0
  -20.9375  -29.8970   21.6765 H   0  0  0  0  0  0
  -26.0137  -38.2836   24.1404 H   0  0  0  0  0  0
  -30.4334  -23.1076   21.6367 H   0  0  0  0  0  0
  -25.0816  -23.2739   17.9158 H   0  0  0  0  0  0
  -26.4883  -22.2121   17.8073 H   0  0  0  0  0  0
  -26.6936  -23.9661   17.7955 H   0  0  0  0  0  0
  -29.1805  -25.0702   23.1429 H   0  0  0  0  0  0
  -28.9030  -26.7287   22.6293 H   0  0  0  0  0  0
  -30.1997  -25.7914   21.8971 H   0  0  0  0  0  0
  -30.3128  -20.0695   21.9282 H   0  0  0  0  0  0
  -30.8532  -20.1708   20.3001 H   0  0  0  0  0  0
  -28.9214  -18.6243   19.6074 H   0  0  0  0  0  0
  -28.4571  -18.4811   21.2708 H   0  0  0  0  0  0
  -25.5488  -22.3811   20.1724 H   0  0  0  0  0  0
  -25.8739  -24.0838   20.1832 H   0  0  0  0  0  0
  -30.8462  -17.4638   21.7242 H   0  0  0  0  0  0
  -31.0960  -17.4395   20.0084 H   0  0  0  0  0  0
  -27.2160  -25.2662   21.6367 H   0  0  0  0  0  0
  -28.8829  -15.7250   20.9680 H   0  0  0  0  0  0
  1 25  1  0  0  0
  1 30  2  0  0  0
  1 83  1  0  0  0
  2  3  1  0  0  0
  2 25  1  0  0  0
  2 84  1  0  0  0
  2 85  1  0  0  0
  3  4  1  0  0  0
  3 86  1  0  0  0
  3 87  1  0  0  0
  4  5  1  0  0  0
  4 88  1  0  0  0
  4 89  1  0  0  0
  5  6  1  0  0  0
  5 26  1  0  0  0
  5 90  1  0  0  0
  6 25  1  0  0  0
  6 91  1  0  0  0
  6 92  1  0  0  0
  7  8  2  0  0  0
  7 26  1  0  0  0
  7 29  1  0  0  0
  8  9  1  0  0  0
  8 22  1  0  0  0
  9 10  1  0  0  0
  9 27  2  0  0  0
 10 11  2  0  0  0
 10 15  1  0  0  0
 11 12  1  0  0  0
 11 93  1  0  0  0
 12 13  2  0  0  0
 12 94  1  0  0  0
 13 14  1  0  0  0
 13 31  1  0  0  0
 14 15  2  0  0  0
 14 95  1  0  0  0
 15 96  1  0  0  0
 16 17  2  0  0  0
 16 21  1  0  0  0
 16 31  1  0  0  0
 17 18  1  0  0  0
 17 97  1  0  0  0
 18 19  2  0  0  0
 18 98  1  0  0  0
 19 20  1  0  0  0
 19 24  1  0  0  0
 20 21  2  0  0  0
 20 99  1  0  0  0
 21 23  1  0  0  0
 22 28  1  0  0  0
 22 32  2  0  0  0
 26 27  1  0  0  0
 28100  1  0  0  0
 28101  1  0  0  0
 29102  1  0  0  0
 29103  1  0  0  0
 33 34  1  0  0  0
 33 66  1  0  0  0
 33 70  2  0  0  0
 34 36  1  0  0  0
 34 59  1  0  0  0
 34104  1  0  0  0
 35 44  2  0  0  0
 35 45  1  0  0  0
 35 68  1  0  0  0
 36 56  1  0  0  0
 36105  1  0  0  0
 37 39  1  0  0  0
 37 47  1  0  0  0
 37 66  1  0  0  0
 37106  1  0  0  0
 38 43  2  0  0  0
 38 46  1  0  0  0
 38 47  1  0  0  0
 39 64  1  0  0  0
 39 67  2  0  0  0
 40 52  1  0  0  0
 40 53  2  0  0  0
 40 58  1  0  0  0
 41107  1  0  0  0
 41108  1  0  0  0
 41109  1  0  0  0
 41 48  1  0  0  0
 42 43  1  0  0  0
 42 66  1  0  0  0
 42110  1  0  0  0
 42111  1  0  0  0
 43 44  1  0  0  0
 44112  1  0  0  0
 45 46  2  0  0  0
 45113  1  0  0  0
 46114  1  0  0  0
 47115  1  0  0  0
 47116  1  0  0  0
 48 56  1  0  0  0
 48 65  1  0  0  0
 48117  1  0  0  0
 49 50  1  0  0  0
 49 53  1  0  0  0
 49 64  1  0  0  0
 49118  1  0  0  0
 50 51  1  0  0  0
 50119  1  0  0  0
 50120  1  0  0  0
 51 52  1  0  0  0
 51121  1  0  0  0
 51122  1  0  0  0
 52123  1  0  0  0
 52124  1  0  0  0
 53 54  1  0  0  0
 54 55  2  0  0  0
 54125  1  0  0  0
 55 57  1  0  0  0
 55126  1  0  0  0
 56 69  2  0  0  0
 57 58  2  0  0  0
 57127  1  0  0  0
 58128  1  0  0  0
 59 60  1  0  0  0
 59 61  1  0  0  0
 59 62  1  0  0  0
 60129  1  0  0  0
 60130  1  0  0  0
 60131  1  0  0  0
 61132  1  0  0  0
 61133  1  0  0  0
 61134  1  0  0  0
 62135  1  0  0  0
 62136  1  0  0  0
 62137  1  0  0  0
 63 65  1  0  0  0
 63138  1  0  0  0
 63139  1  0  0  0
 63140  1  0  0  0
 64141  1  0  0  0
 65142  1  0  0  0
 68 80  1  0  0  0
 71 72  1  0  0  0
 71 73  2  0  0  0
 71143  1  0  0  0
 72 76  1  0  0  0
 72 81  2  0  0  0
 73 80  1  0  0  0
 73 82  1  0  0  0
 74 78  1  0  0  0
 74144  1  0  0  0
 74145  1  0  0  0
 74146  1  0  0  0
 75147  1  0  0  0
 75148  1  0  0  0
 75149  1  0  0  0
 75 80  1  0  0  0
 76 77  1  0  0  0
 76150  1  0  0  0
 76151  1  0  0  0
 77 79  1  0  0  0
 77152  1  0  0  0
 77153  1  0  0  0
 78 82  1  0  0  0
 78154  1  0  0  0
 78155  1  0  0  0
 79 83  1  0  0  0
 79156  1  0  0  0
 79157  1  0  0  0
 80158  1  0  0  0
 81 82  1  0  0  0
 83159  1  0  0  0
M  ISO  4   1 100  68 101  80 101  83 100
M  END
> <chiral flag>
0

> <version>
0

> <s_m_source_file>
/data/baiqing/PycharmProjects/Reinvent-master-3.2/result/LINK_invent/BTK/process_docking_weight1_custom_sum_contain_oxygen_bond_distance_aromatic_linkinvent_7_9_3/rearranged_h_0076.sdf

> <i_m_source_file_index>
61

> <r_mmod_Potential_Energy-OPLS-2005>
138.392135620117

> <r_mmod_Stretch_Energy-OPLS-2005>
123.415367126465

> <r_mmod_Bend_Energy-OPLS-2005>
178.304656982422

> <r_mmod_Torsional_Energy-OPLS-2005>
254.610397338867

> <r_mmod_Improper_Torsional_Energy-OPLS-2005>
5.7872109413147

> <r_mmod_Van_der_Waal_Energy-OPLS-2005>
107.130401611328

> <r_mmod_Electrostatic_Energy-OPLS-2005>
-405.622039794922

> <r_mmod_Solvation_Energy-OPLS-2005>
-214.961151123047

> <b_mmod_Minimization_Converged-OPLS-2005>
0

> <r_mmod_RMS_Derivative-OPLS-2005>
4.82798433303833

$$$$
61
                    3D
 Structure written by MMmdl.
160168  0  0  1  0            999 V2000
  -30.6243  -14.6799   20.5135 C   0  0  0  0  0  0
  -30.4373  -12.4303   19.4426 C   0  0  0  0  0  0
  -29.5057  -12.5165   18.2145 C   0  0  0  0  0  0
  -28.0308  -12.3418   18.6313 C   0  0  0  0  0  0
  -27.6463  -13.2224   19.8508 C   0  0  2  0  0  0
  -28.6953  -13.1091   20.9791 C   0  0  0  0  0  0
  -25.2542  -13.8183   20.5685 C   0  0  0  0  0  0
  -24.1831  -13.0427   20.9200 C   0  0  0  0  0  0
  -24.6413  -11.6912   20.8742 C   0  0  0  0  0  0
  -23.9077  -10.4282   21.0406 C   0  0  0  0  0  0
  -24.3621   -9.4208   21.9191 C   0  0  0  0  0  0
  -23.6300   -8.2244   22.0762 C   0  0  0  0  0  0
  -22.4279   -8.0277   21.3544 C   0  0  0  0  0  0
  -21.9922   -9.0257   20.4639 C   0  0  0  0  0  0
  -22.7260  -10.2128   20.3049 C   0  0  0  0  0  0
  -21.6846   -6.0745   22.5289 C   0  0  0  0  0  0
  -21.4002   -6.5649   23.8228 C   0  0  0  0  0  0
  -21.3648   -5.6797   24.9187 C   0  0  0  0  0  0
  -21.6030   -4.3060   24.7235 C   0  0  0  0  0  0
  -21.8822   -3.8157   23.4360 C   0  0  0  0  0  0
  -21.9197   -4.6970   22.3414 C   0  0  0  0  0  0
  -22.7854  -13.5216   21.1870 C   0  0  0  0  0  0
  -22.1662   -4.2152   21.0988 F   0  0  0  0  0  0
  -21.5623   -3.4542   25.7752 F   0  0  0  0  0  0
  -29.9966  -13.4646   20.4001 N   0  0  0  0  0  0
  -26.2963  -12.9376   20.3279 N   0  0  0  0  0  0
  -25.9328  -11.6512   20.5737 N   0  0  0  0  0  0
  -22.0484  -12.8188   22.0401 N   0  0  0  0  0  0
  -25.4235  -15.1909   20.4085 N   0  0  0  0  0  0
  -31.8089  -14.8109   20.1953 O   0  0  0  0  0  0
  -21.6643   -6.8881   21.4246 O   0  0  0  0  0  0
  -22.3543  -14.5540   20.6740 O   0  0  0  0  0  0
  -24.6275  -31.8604   23.2026 C   0  0  0  0  0  0
  -25.9143  -32.4774   23.8351 C   0  0  1  0  0  0
  -27.2105  -27.3133   20.1237 C   0  0  0  0  0  0
  -25.5997  -33.8568   24.2315 N   0  0  0  0  0  0
  -23.4189  -30.4857   21.5437 C   0  0  2  0  0  0
  -24.8636  -28.9374   20.1105 C   0  0  0  0  0  0
  -22.7484  -29.4642   22.4935 C   0  0  0  0  0  0
  -18.0291  -28.1392   22.8492 C   0  0  0  0  0  0
  -24.1474  -36.7215   23.2649 C   0  0  0  0  0  0
  -25.9584  -30.7940   21.3655 C   0  0  0  0  0  0
  -26.0349  -29.4176   20.7144 C   0  0  0  0  0  0
  -27.2143  -28.6129   20.7175 C   0  0  0  0  0  0
  -26.0226  -26.8815   19.5031 C   0  0  0  0  0  0
  -24.8590  -27.6725   19.5014 C   0  0  0  0  0  0
  -23.6334  -29.8214   20.1580 C   0  0  0  0  0  0
  -25.4100  -36.3050   24.0345 C   0  0  1  0  0  0
  -20.5902  -28.3679   23.1286 C   0  0  2  0  0  0
  -20.6811  -26.9422   22.5381 C   0  0  0  0  0  0
  -19.5769  -26.6402   21.5218 C   0  0  0  0  0  0
  -18.1934  -26.7947   22.1612 C   0  0  0  0  0  0
  -19.1550  -28.8850   23.2886 C   0  0  0  0  0  0
  -18.9490  -30.1468   23.8882 C   0  0  0  0  0  0
  -17.6482  -30.6599   24.0561 C   0  0  0  0  0  0
  -25.9047  -34.9432   23.5099 C   0  0  0  0  0  0
  -16.5366  -29.9082   23.6364 C   0  0  0  0  0  0
  -16.7273  -28.6503   23.0374 C   0  0  0  0  0  0
  -26.4554  -31.6558   25.0681 C   0  0  0  0  0  0
  -25.3799  -31.3587   26.1382 C   0  0  0  0  0  0
  -27.0477  -30.3042   24.6056 C   0  0  0  0  0  0
  -27.6105  -32.4268   25.7486 C   0  0  0  0  0  0
  -27.5537  -37.1758   24.8504 C   0  0  0  0  0  0
  -21.4191  -29.3042   22.3674 N   0  0  0  0  0  0
  -26.4255  -37.3771   23.9448 N   0  0  0  0  0  0
  -24.6878  -31.0641   22.0959 N   0  0  0  0  0  0
  -23.4219  -28.8175   23.2992 O   0  0  0  0  0  0
  -28.2751  -26.4064   20.1594 O   0  0  0  0  0  0
  -26.5579  -34.8920   22.4647 O   0  0  0  0  0  0
  -23.5440  -32.1392   23.7369 O   0  0  0  0  0  0
  -29.1265  -21.9222   19.7103 C   0  0  0  0  0  0
  -28.8066  -21.0010   20.7626 C   0  0  0  0  0  0
  -28.1178  -22.8744   22.0182 C   0  0  0  0  0  0
  -28.4138  -23.8009   20.9655 C   0  0  0  0  0  0
  -29.6636  -21.4188   18.3857 C   0  0  0  0  0  0
  -25.9411  -23.1568   23.2950 C   0  0  0  0  0  0
  -27.4714  -23.2986   23.3324 C   0  0  0  0  0  0
  -28.7582  -19.4148   20.6736 C   0  0  0  0  0  0
  -28.1198  -25.3498   21.1815 C   0  0  0  0  0  0
  -30.0544  -18.5026   20.4881 C   0  0  0  0  0  0
  -30.2604  -17.1423   21.3249 C   0  0  0  0  0  0
  -28.9445  -23.2913   19.8093 N   0  0  0  0  0  0
  -28.3178  -21.5252   21.9155 N   0  0  0  0  0  0
  -29.8466  -15.7703   20.8344 N   0  0  0  0  0  0
  -31.4764  -12.5666   19.1393 H   0  0  0  0  0  0
  -30.3837  -11.4407   19.8989 H   0  0  0  0  0  0
  -29.7795  -11.7620   17.4761 H   0  0  0  0  0  0
  -29.6351  -13.4829   17.7243 H   0  0  0  0  0  0
  -27.8795  -11.2893   18.8735 H   0  0  0  0  0  0
  -27.3716  -12.5578   17.7893 H   0  0  0  0  0  0
  -27.6513  -14.2526   19.4930 H   0  0  0  0  0  0
  -28.7288  -12.0935   21.3770 H   0  0  0  0  0  0
  -28.4405  -13.7554   21.8199 H   0  0  0  0  0  0
  -25.2762   -9.5702   22.4766 H   0  0  0  0  0  0
  -24.0015   -7.4636   22.7481 H   0  0  0  0  0  0
  -21.0860   -8.8758   19.8939 H   0  0  0  0  0  0
  -22.3721  -10.9655   19.6142 H   0  0  0  0  0  0
  -21.1978   -7.6153   23.9728 H   0  0  0  0  0  0
  -21.1453   -6.0529   25.9086 H   0  0  0  0  0  0
  -22.0608   -2.7612   23.2862 H   0  0  0  0  0  0
  -22.4092  -11.9812   22.4735 H   0  0  0  0  0  0
  -21.1088  -13.1189   22.2587 H   0  0  0  0  0  0
  -24.6493  -15.8387   20.5062 H   0  0  0  0  0  0
  -26.2658  -15.6308   20.0620 H   0  0  0  0  0  0
  -26.7177  -32.5455   23.1072 H   0  0  0  0  0  0
  -25.0331  -33.9749   25.0579 H   0  0  0  0  0  0
  -22.7110  -31.3047   21.4030 H   0  0  0  0  0  0
  -23.3773  -35.9509   23.3323 H   0  0  0  0  0  0
  -24.3562  -36.8817   22.2063 H   0  0  0  0  0  0
  -23.7173  -37.6396   23.6653 H   0  0  0  0  0  0
  -26.0772  -31.5538   20.5903 H   0  0  0  0  0  0
  -26.8463  -30.8557   21.9830 H   0  0  0  0  0  0
  -28.1072  -28.9713   21.2086 H   0  0  0  0  0  0
  -25.9851  -25.9012   19.0496 H   0  0  0  0  0  0
  -23.9546  -27.2922   19.0453 H   0  0  0  0  0  0
  -23.7509  -30.6038   19.4071 H   0  0  0  0  0  0
  -22.7524  -29.2557   19.8480 H   0  0  0  0  0  0
  -25.1268  -36.1883   25.0829 H   0  0  0  0  0  0
  -20.9982  -28.3221   24.1414 H   0  0  0  0  0  0
  -20.5821  -26.2267   23.3551 H   0  0  0  0  0  0
  -21.6659  -26.7506   22.1106 H   0  0  0  0  0  0
  -19.6951  -25.6335   21.1212 H   0  0  0  0  0  0
  -19.6722  -27.3239   20.6773 H   0  0  0  0  0  0
  -17.4230  -26.6728   21.3989 H   0  0  0  0  0  0
  -18.0296  -26.0085   22.8993 H   0  0  0  0  0  0
  -19.7973  -30.7295   24.2225 H   0  0  0  0  0  0
  -17.5045  -31.6288   24.5159 H   0  0  0  0  0  0
  -15.5376  -30.2976   23.7753 H   0  0  0  0  0  0
  -15.8665  -28.0819   22.7112 H   0  0  0  0  0  0
  -24.6005  -30.6938   25.7632 H   0  0  0  0  0  0
  -24.8970  -32.2719   26.4862 H   0  0  0  0  0  0
  -25.8139  -30.8682   27.0105 H   0  0  0  0  0  0
  -26.3029  -29.6671   24.1264 H   0  0  0  0  0  0
  -27.4511  -29.7366   25.4460 H   0  0  0  0  0  0
  -27.8733  -30.4442   23.9063 H   0  0  0  0  0  0
  -27.2734  -33.3596   26.2003 H   0  0  0  0  0  0
  -28.3987  -32.6760   25.0366 H   0  0  0  0  0  0
  -28.0687  -31.8400   26.5461 H   0  0  0  0  0  0
  -28.2558  -38.0055   24.7562 H   0  0  0  0  0  0
  -28.1020  -36.2580   24.6314 H   0  0  0  0  0  0
  -27.2247  -37.1358   25.8909 H   0  0  0  0  0  0
  -20.9367  -29.8674   21.6819 H   0  0  0  0  0  0
  -26.0113  -38.2821   24.1524 H   0  0  0  0  0  0
  -30.5129  -20.7558   18.5537 H   0  0  0  0  0  0
  -29.9994  -22.2391   17.7513 H   0  0  0  0  0  0
  -28.8958  -20.8641   17.8455 H   0  0  0  0  0  0
  -25.4979  -23.4223   24.2558 H   0  0  0  0  0  0
  -25.6412  -22.1329   23.0667 H   0  0  0  0  0  0
  -25.5035  -23.8044   22.5341 H   0  0  0  0  0  0
  -27.7505  -24.3166   23.6033 H   0  0  0  0  0  0
  -27.8655  -22.6740   24.1338 H   0  0  0  0  0  0
  -28.0539  -19.1681   19.8784 H   0  0  0  0  0  0
  -28.2602  -19.0742   21.5833 H   0  0  0  0  0  0
  -28.7696  -25.6585   22.0006 H   0  0  0  0  0  0
  -27.1084  -25.4050   21.5888 H   0  0  0  0  0  0
  -30.8818  -19.1454   20.7946 H   0  0  0  0  0  0
  -30.2380  -18.3246   19.4284 H   0  0  0  0  0  0
  -29.7976  -17.2785   22.3024 H   0  0  0  0  0  0
  -31.3255  -17.0709   21.5530 H   0  0  0  0  0  0
  -28.8729  -15.5461   20.9799 H   0  0  0  0  0  0
  1 25  1  0  0  0
  1 30  2  0  0  0
  1 84  1  0  0  0
  2  3  1  0  0  0
  2 25  1  0  0  0
  2 85  1  0  0  0
  2 86  1  0  0  0
  3  4  1  0  0  0
  3 87  1  0  0  0
  3 88  1  0  0  0
  4  5  1  0  0  0
  4 89  1  0  0  0
  4 90  1  0  0  0
  5  6  1  0  0  0
  5 26  1  0  0  0
  5 91  1  0  0  0
  6 25  1  0  0  0
  6 92  1  0  0  0
  6 93  1  0  0  0
  7  8  2  0  0  0
  7 26  1  0  0  0
  7 29  1  0  0  0
  8  9  1  0  0  0
  8 22  1  0  0  0
  9 10  1  0  0  0
  9 27  2  0  0  0
 10 11  2  0  0  0
 10 15  1  0  0  0
 11 12  1  0  0  0
 11 94  1  0  0  0
 12 13  2  0  0  0
 12 95  1  0  0  0
 13 14  1  0  0  0
 13 31  1  0  0  0
 14 15  2  0  0  0
 14 96  1  0  0  0
 15 97  1  0  0  0
 16 17  2  0  0  0
 16 21  1  0  0  0
 16 31  1  0  0  0
 17 18  1  0  0  0
 17 98  1  0  0  0
 18 19  2  0  0  0
 18 99  1  0  0  0
 19 20  1  0  0  0
 19 24  1  0  0  0
 20 21  2  0  0  0
 20100  1  0  0  0
 21 23  1  0  0  0
 22 28  1  0  0  0
 22 32  2  0  0  0
 26 27  1  0  0  0
 28101  1  0  0  0
 28102  1  0  0  0
 29103  1  0  0  0
 29104  1  0  0  0
 33 34  1  0  0  0
 33 66  1  0  0  0
 33 70  2  0  0  0
 34 36  1  0  0  0
 34 59  1  0  0  0
 34105  1  0  0  0
 35 44  2  0  0  0
 35 45  1  0  0  0
 35 68  1  0  0  0
 36 56  1  0  0  0
 36106  1  0  0  0
 37 39  1  0  0  0
 37 47  1  0  0  0
 37 66  1  0  0  0
 37107  1  0  0  0
 38 43  2  0  0  0
 38 46  1  0  0  0
 38 47  1  0  0  0
 39 64  1  0  0  0
 39 67  2  0  0  0
 40 52  1  0  0  0
 40 53  2  0  0  0
 40 58  1  0  0  0
 41108  1  0  0  0
 41109  1  0  0  0
 41110  1  0  0  0
 41 48  1  0  0  0
 42 43  1  0  0  0
 42 66  1  0  0  0
 42111  1  0  0  0
 42112  1  0  0  0
 43 44  1  0  0  0
 44113  1  0  0  0
 45 46  2  0  0  0
 45114  1  0  0  0
 46115  1  0  0  0
 47116  1  0  0  0
 47117  1  0  0  0
 48 56  1  0  0  0
 48 65  1  0  0  0
 48118  1  0  0  0
 49 50  1  0  0  0
 49 53  1  0  0  0
 49 64  1  0  0  0
 49119  1  0  0  0
 50 51  1  0  0  0
 50120  1  0  0  0
 50121  1  0  0  0
 51 52  1  0  0  0
 51122  1  0  0  0
 51123  1  0  0  0
 52124  1  0  0  0
 52125  1  0  0  0
 53 54  1  0  0  0
 54 55  2  0  0  0
 54126  1  0  0  0
 55 57  1  0  0  0
 55127  1  0  0  0
 56 69  2  0  0  0
 57 58  2  0  0  0
 57128  1  0  0  0
 58129  1  0  0  0
 59 60  1  0  0  0
 59 61  1  0  0  0
 59 62  1  0  0  0
 60130  1  0  0  0
 60131  1  0  0  0
 60132  1  0  0  0
 61133  1  0  0  0
 61134  1  0  0  0
 61135  1  0  0  0
 62136  1  0  0  0
 62137  1  0  0  0
 62138  1  0  0  0
 63 65  1  0  0  0
 63139  1  0  0  0
 63140  1  0  0  0
 63141  1  0  0  0
 64142  1  0  0  0
 65143  1  0  0  0
 68 79  1  0  0  0
 71 72  2  0  0  0
 71 75  1  0  0  0
 71 82  1  0  0  0
 72 78  1  0  0  0
 72 83  1  0  0  0
 73 74  1  0  0  0
 73 77  1  0  0  0
 73 83  2  0  0  0
 74 79  1  0  0  0
 74 82  2  0  0  0
 75144  1  0  0  0
 75145  1  0  0  0
 75146  1  0  0  0
 76 77  1  0  0  0
 76147  1  0  0  0
 76148  1  0  0  0
 76149  1  0  0  0
 77150  1  0  0  0
 77151  1  0  0  0
 78 80  1  0  0  0
 78152  1  0  0  0
 78153  1  0  0  0
 79154  1  0  0  0
 79155  1  0  0  0
 80 81  1  0  0  0
 80156  1  0  0  0
 80157  1  0  0  0
 81 84  1  0  0  0
 81158  1  0  0  0
 81159  1  0  0  0
 84160  1  0  0  0
M  ISO  4   1 100  68 101  79 101  84 100
M  END
> <chiral flag>
0

> <version>
0

> <s_m_source_file>
/data/baiqing/PycharmProjects/Reinvent-master-3.2/result/LINK_invent/BTK/process_docking_weight1_custom_sum_contain_oxygen_bond_distance_aromatic_linkinvent_7_9_3/rearranged_h_0076.sdf

> <i_m_source_file_index>
62

> <r_mmod_Potential_Energy-OPLS-2005>
175.939987182617

> <r_mmod_Stretch_Energy-OPLS-2005>
95.968620300293

> <r_mmod_Bend_Energy-OPLS-2005>
178.715698242188

> <r_mmod_Torsional_Energy-OPLS-2005>
243.853729248047

> <r_mmod_Improper_Torsional_Energy-OPLS-2005>
4.99176406860352

> <r_mmod_Van_der_Waal_Energy-OPLS-2005>
138.6533203125

> <r_mmod_Electrostatic_Energy-OPLS-2005>
-323.703491210938

> <r_mmod_Solvation_Energy-OPLS-2005>
-225.279495239258

> <b_mmod_Minimization_Converged-OPLS-2005>
0

> <r_mmod_RMS_Derivative-OPLS-2005>
3.2753381729126

$$$$
62
                    3D
 Structure written by MMmdl.
168176  0  0  1  0            999 V2000
  -30.6831  -14.4755   20.4516 C   0  0  0  0  0  0
  -30.4331  -12.2761   19.4238 C   0  0  0  0  0  0
  -29.4974  -12.4270   18.2069 C   0  0  0  0  0  0
  -28.0179  -12.3043   18.6254 C   0  0  0  0  0  0
  -27.6579  -13.1755   19.8560 C   0  0  2  0  0  0
  -28.7085  -13.0063   20.9776 C   0  0  0  0  0  0
  -25.2639  -13.8009   20.5756 C   0  0  0  0  0  0
  -24.1849  -13.0339   20.9212 C   0  0  0  0  0  0
  -24.6351  -11.6799   20.8729 C   0  0  0  0  0  0
  -23.8990  -10.4208   21.0354 C   0  0  0  0  0  0
  -24.3556   -9.4118   21.9124 C   0  0  0  0  0  0
  -23.6274   -8.2130   22.0674 C   0  0  0  0  0  0
  -22.4210   -8.0198   21.3528 C   0  0  0  0  0  0
  -21.9829   -9.0186   20.4649 C   0  0  0  0  0  0
  -22.7165  -10.2042   20.2997 C   0  0  0  0  0  0
  -21.6801   -6.0660   22.5265 C   0  0  0  0  0  0
  -21.3991   -6.5570   23.8207 C   0  0  0  0  0  0
  -21.3718   -5.6741   24.9176 C   0  0  0  0  0  0
  -21.6087   -4.3008   24.7233 C   0  0  0  0  0  0
  -21.8839   -3.8077   23.4348 C   0  0  0  0  0  0
  -21.9162   -4.6885   22.3386 C   0  0  0  0  0  0
  -22.7865  -13.5180   21.1867 C   0  0  0  0  0  0
  -22.1583   -4.2063   21.0963 F   0  0  0  0  0  0
  -21.5680   -3.4533   25.7780 F   0  0  0  0  0  0
  -30.0394  -13.2811   20.4158 N   0  0  0  0  0  0
  -26.3015  -12.9139   20.3301 N   0  0  0  0  0  0
  -25.9262  -11.6332   20.5718 N   0  0  0  0  0  0
  -22.0444  -12.8051   22.0261 N   0  0  0  0  0  0
  -25.4460  -15.1698   20.4341 N   0  0  0  0  0  0
  -31.8860  -14.5824   20.1979 O   0  0  0  0  0  0
  -21.6551   -6.8812   21.4231 O   0  0  0  0  0  0
  -22.3601  -14.5571   20.6833 O   0  0  0  0  0  0
  -24.6101  -31.8688   23.2111 C   0  0  0  0  0  0
  -25.9012  -32.4824   23.8406 C   0  0  1  0  0  0
  -27.2497  -27.4733   20.1006 C   0  0  0  0  0  0
  -25.5873  -33.8621   24.2332 N   0  0  0  0  0  0
  -23.3985  -30.4920   21.5511 C   0  0  2  0  0  0
  -24.8469  -28.9592   20.1177 C   0  0  0  0  0  0
  -22.7383  -29.4676   22.5010 C   0  0  0  0  0  0
  -18.0262  -28.1387   22.8492 C   0  0  0  0  0  0
  -24.1486  -36.7321   23.2645 C   0  0  0  0  0  0
  -25.9218  -30.8485   21.3597 C   0  0  0  0  0  0
  -26.0038  -29.4859   20.7078 C   0  0  0  0  0  0
  -27.2077  -28.7515   20.6922 C   0  0  0  0  0  0
  -26.0760  -26.9444   19.5183 C   0  0  0  0  0  0
  -24.8759  -27.6856   19.5222 C   0  0  0  0  0  0
  -23.6051  -29.8202   20.1667 C   0  0  0  0  0  0
  -25.4100  -36.3109   24.0344 C   0  0  1  0  0  0
  -20.5853  -28.3650   23.1328 C   0  0  2  0  0  0
  -20.6763  -26.9403   22.5424 C   0  0  0  0  0  0
  -19.5753  -26.6387   21.5214 C   0  0  0  0  0  0
  -18.1918  -26.7930   22.1623 C   0  0  0  0  0  0
  -19.1520  -28.8842   23.2896 C   0  0  0  0  0  0
  -18.9444  -30.1440   23.8907 C   0  0  0  0  0  0
  -17.6450  -30.6590   24.0568 C   0  0  0  0  0  0
  -25.9020  -34.9472   23.5141 C   0  0  0  0  0  0
  -16.5339  -29.9093   23.6332 C   0  0  0  0  0  0
  -16.7248  -28.6521   23.0340 C   0  0  0  0  0  0
  -26.4487  -31.6594   25.0722 C   0  0  0  0  0  0
  -25.3775  -31.3681   26.1488 C   0  0  0  0  0  0
  -27.0315  -30.3038   24.6080 C   0  0  0  0  0  0
  -27.6069  -32.4307   25.7473 C   0  0  0  0  0  0
  -27.5577  -37.1809   24.8464 C   0  0  0  0  0  0
  -21.4122  -29.3012   22.3733 N   0  0  0  0  0  0
  -26.4280  -37.3790   23.9425 N   0  0  0  0  0  0
  -24.6617  -31.0832   22.0995 N   0  0  0  0  0  0
  -23.4170  -28.8224   23.3042 O   0  0  0  0  0  0
  -28.4377  -26.7801   20.0874 O   0  0  0  0  0  0
  -26.5593  -34.8929   22.4704 O   0  0  0  0  0  0
  -23.5292  -32.1425   23.7531 O   0  0  0  0  0  0
  -28.6370  -17.3670   19.0518 C   0  0  0  0  0  0
  -26.6689  -17.4714   18.3968 C   0  0  0  0  0  0
  -25.3052  -17.1475   17.8885 C   0  0  0  0  0  0
  -30.5306  -16.2342   18.0145 C   0  0  0  0  0  0
  -30.9975  -17.9047   19.7646 C   0  0  0  0  0  0
  -29.8636  -15.7770   20.5638 C   0  0  0  0  0  0
  -27.7971  -21.9349   19.3464 C   0  0  0  0  0  0
  -28.0347  -23.0375   20.3887 C   0  0  0  0  0  0
  -26.6757  -20.9768   19.7794 C   0  0  0  0  0  0
  -28.4824  -24.3681   19.7645 C   0  0  0  0  0  0
  -26.2900  -19.9486   18.7026 C   0  0  0  0  0  0
  -28.4209  -25.5283   20.7669 C   0  0  0  0  0  0
  -29.9999  -16.7936   19.3631 C   0  0  0  0  0  0
  -27.6302  -16.5773   18.5674 N   0  0  0  0  0  0
  -28.3283  -18.6554   19.1831 N   0  0  0  0  0  0
  -27.0380  -18.7036   18.7636 N   0  0  0  0  0  0
  -31.4746  -12.3760   19.1136 H   0  0  0  0  0  0
  -30.3457  -11.2778   19.8538 H   0  0  0  0  0  0
  -29.7350  -11.6611   17.4694 H   0  0  0  0  0  0
  -29.6675  -13.3750   17.7079 H   0  0  0  0  0  0
  -27.8392  -11.2565   18.8636 H   0  0  0  0  0  0
  -27.3634  -12.5451   17.7861 H   0  0  0  0  0  0
  -27.6807  -14.1993   19.5036 H   0  0  0  0  0  0
  -28.6832  -11.9904   21.3725 H   0  0  0  0  0  0
  -28.4889  -13.6498   21.8301 H   0  0  0  0  0  0
  -25.2711   -9.5549   22.4697 H   0  0  0  0  0  0
  -24.0050   -7.4480   22.7304 H   0  0  0  0  0  0
  -21.0735   -8.8740   19.8981 H   0  0  0  0  0  0
  -22.3575  -10.9562   19.6107 H   0  0  0  0  0  0
  -21.1995   -7.6080   23.9732 H   0  0  0  0  0  0
  -21.1542   -6.0437   25.9099 H   0  0  0  0  0  0
  -22.0611   -2.7531   23.2870 H   0  0  0  0  0  0
  -22.4013  -11.9575   22.4401 H   0  0  0  0  0  0
  -21.1014  -13.0935   22.2449 H   0  0  0  0  0  0
  -24.6742  -15.8209   20.5112 H   0  0  0  0  0  0
  -26.2780  -15.5743   20.0107 H   0  0  0  0  0  0
  -26.7085  -32.5572   23.1179 H   0  0  0  0  0  0
  -25.0013  -33.9794   25.0472 H   0  0  0  0  0  0
  -22.6848  -31.3062   21.4111 H   0  0  0  0  0  0
  -23.3733  -35.9672   23.3319 H   0  0  0  0  0  0
  -24.3575  -36.8914   22.2053 H   0  0  0  0  0  0
  -23.7248  -37.6537   23.6643 H   0  0  0  0  0  0
  -26.0283  -31.6176   20.5937 H   0  0  0  0  0  0
  -26.8106  -30.9020   21.9755 H   0  0  0  0  0  0
  -28.1055  -29.1564   21.1394 H   0  0  0  0  0  0
  -26.0811  -25.9693   19.0542 H   0  0  0  0  0  0
  -23.9865  -27.2717   19.0678 H   0  0  0  0  0  0
  -23.7079  -30.5934   19.4045 H   0  0  0  0  0  0
  -22.7322  -29.2337   19.8733 H   0  0  0  0  0  0
  -25.1271  -36.1990   25.0831 H   0  0  0  0  0  0
  -20.9930  -28.3222   24.1451 H   0  0  0  0  0  0
  -20.5671  -26.2264   23.3597 H   0  0  0  0  0  0
  -21.6630  -26.7457   22.1217 H   0  0  0  0  0  0
  -19.6924  -25.6297   21.1228 H   0  0  0  0  0  0
  -19.6706  -27.3214   20.6751 H   0  0  0  0  0  0
  -17.4188  -26.6647   21.4021 H   0  0  0  0  0  0
  -18.0338  -26.0075   22.9023 H   0  0  0  0  0  0
  -19.7918  -30.7241   24.2299 H   0  0  0  0  0  0
  -17.5012  -31.6283   24.5150 H   0  0  0  0  0  0
  -15.5347  -30.3005   23.7657 H   0  0  0  0  0  0
  -15.8641  -28.0844   22.7052 H   0  0  0  0  0  0
  -24.5922  -30.7073   25.7817 H   0  0  0  0  0  0
  -24.9024  -32.2830   26.5012 H   0  0  0  0  0  0
  -25.8149  -30.8780   27.0188 H   0  0  0  0  0  0
  -26.2845  -29.6779   24.1188 H   0  0  0  0  0  0
  -27.4140  -29.7297   25.4524 H   0  0  0  0  0  0
  -27.8655  -30.4354   23.9190 H   0  0  0  0  0  0
  -27.2691  -33.3558   26.2145 H   0  0  0  0  0  0
  -28.3833  -32.6931   25.0283 H   0  0  0  0  0  0
  -28.0805  -31.8385   26.5308 H   0  0  0  0  0  0
  -28.2595  -38.0103   24.7495 H   0  0  0  0  0  0
  -28.1067  -36.2628   24.6300 H   0  0  0  0  0  0
  -27.2302  -37.1475   25.8868 H   0  0  0  0  0  0
  -20.9284  -29.8709   21.6936 H   0  0  0  0  0  0
  -26.0179  -38.2874   24.1413 H   0  0  0  0  0  0
  -25.2291  -16.0870   17.6528 H   0  0  0  0  0  0
  -25.0783  -17.7279   16.9955 H   0  0  0  0  0  0
  -24.5642  -17.3729   18.6523 H   0  0  0  0  0  0
  -30.5809  -17.0244   17.2636 H   0  0  0  0  0  0
  -29.8681  -15.4781   17.6053 H   0  0  0  0  0  0
  -31.5297  -15.8090   18.0799 H   0  0  0  0  0  0
  -31.1124  -18.6370   18.9627 H   0  0  0  0  0  0
  -31.9860  -17.4956   19.9786 H   0  0  0  0  0  0
  -30.6639  -18.4441   20.6496 H   0  0  0  0  0  0
  -28.8138  -15.5586   20.7293 H   0  0  0  0  0  0
  -30.1516  -16.2569   21.4975 H   0  0  0  0  0  0
  -28.7259  -21.3935   19.1630 H   0  0  0  0  0  0
  -27.5143  -22.3801   18.3915 H   0  0  0  0  0  0
  -28.7578  -22.7006   21.1333 H   0  0  0  0  0  0
  -27.1088  -23.2132   20.9390 H   0  0  0  0  0  0
  -25.7852  -21.5685   19.9969 H   0  0  0  0  0  0
  -26.9327  -20.4785   20.7154 H   0  0  0  0  0  0
  -27.8357  -24.6014   18.9198 H   0  0  0  0  0  0
  -29.4909  -24.2786   19.3574 H   0  0  0  0  0  0
  -26.3832  -20.3642   17.6974 H   0  0  0  0  0  0
  -25.2359  -19.7064   18.8353 H   0  0  0  0  0  0
  -29.2802  -25.4821   21.4386 H   0  0  0  0  0  0
  -27.5415  -25.4399   21.4083 H   0  0  0  0  0  0
  1 25  1  0  0  0
  1 30  2  0  0  0
  1 76  1  0  0  0
  2  3  1  0  0  0
  2 25  1  0  0  0
  2 87  1  0  0  0
  2 88  1  0  0  0
  3  4  1  0  0  0
  3 89  1  0  0  0
  3 90  1  0  0  0
  4  5  1  0  0  0
  4 91  1  0  0  0
  4 92  1  0  0  0
  5  6  1  0  0  0
  5 26  1  0  0  0
  5 93  1  0  0  0
  6 25  1  0  0  0
  6 94  1  0  0  0
  6 95  1  0  0  0
  7  8  2  0  0  0
  7 26  1  0  0  0
  7 29  1  0  0  0
  8  9  1  0  0  0
  8 22  1  0  0  0
  9 10  1  0  0  0
  9 27  2  0  0  0
 10 11  2  0  0  0
 10 15  1  0  0  0
 11 12  1  0  0  0
 11 96  1  0  0  0
 12 13  2  0  0  0
 12 97  1  0  0  0
 13 14  1  0  0  0
 13 31  1  0  0  0
 14 15  2  0  0  0
 14 98  1  0  0  0
 15 99  1  0  0  0
 16 17  2  0  0  0
 16 21  1  0  0  0
 16 31  1  0  0  0
 17 18  1  0  0  0
 17100  1  0  0  0
 18 19  2  0  0  0
 18101  1  0  0  0
 19 20  1  0  0  0
 19 24  1  0  0  0
 20 21  2  0  0  0
 20102  1  0  0  0
 21 23  1  0  0  0
 22 28  1  0  0  0
 22 32  2  0  0  0
 26 27  1  0  0  0
 28103  1  0  0  0
 28104  1  0  0  0
 29105  1  0  0  0
 29106  1  0  0  0
 33 34  1  0  0  0
 33 66  1  0  0  0
 33 70  2  0  0  0
 34 36  1  0  0  0
 34 59  1  0  0  0
 34107  1  0  0  0
 35 44  2  0  0  0
 35 45  1  0  0  0
 35 68  1  0  0  0
 36 56  1  0  0  0
 36108  1  0  0  0
 37 39  1  0  0  0
 37 47  1  0  0  0
 37 66  1  0  0  0
 37109  1  0  0  0
 38 43  2  0  0  0
 38 46  1  0  0  0
 38 47  1  0  0  0
 39 64  1  0  0  0
 39 67  2  0  0  0
 40 52  1  0  0  0
 40 53  2  0  0  0
 40 58  1  0  0  0
 41110  1  0  0  0
 41111  1  0  0  0
 41112  1  0  0  0
 41 48  1  0  0  0
 42 43  1  0  0  0
 42 66  1  0  0  0
 42113  1  0  0  0
 42114  1  0  0  0
 43 44  1  0  0  0
 44115  1  0  0  0
 45 46  2  0  0  0
 45116  1  0  0  0
 46117  1  0  0  0
 47118  1  0  0  0
 47119  1  0  0  0
 48 56  1  0  0  0
 48 65  1  0  0  0
 48120  1  0  0  0
 49 50  1  0  0  0
 49 53  1  0  0  0
 49 64  1  0  0  0
 49121  1  0  0  0
 50 51  1  0  0  0
 50122  1  0  0  0
 50123  1  0  0  0
 51 52  1  0  0  0
 51124  1  0  0  0
 51125  1  0  0  0
 52126  1  0  0  0
 52127  1  0  0  0
 53 54  1  0  0  0
 54 55  2  0  0  0
 54128  1  0  0  0
 55 57  1  0  0  0
 55129  1  0  0  0
 56 69  2  0  0  0
 57 58  2  0  0  0
 57130  1  0  0  0
 58131  1  0  0  0
 59 60  1  0  0  0
 59 61  1  0  0  0
 59 62  1  0  0  0
 60132  1  0  0  0
 60133  1  0  0  0
 60134  1  0  0  0
 61135  1  0  0  0
 61136  1  0  0  0
 61137  1  0  0  0
 62138  1  0  0  0
 62139  1  0  0  0
 62140  1  0  0  0
 63 65  1  0  0  0
 63141  1  0  0  0
 63142  1  0  0  0
 63143  1  0  0  0
 64144  1  0  0  0
 65145  1  0  0  0
 68 82  1  0  0  0
 71 83  1  0  0  0
 71 84  1  0  0  0
 71 85  2  0  0  0
 72 73  1  0  0  0
 72 84  2  0  0  0
 72 86  1  0  0  0
 73146  1  0  0  0
 73147  1  0  0  0
 73148  1  0  0  0
 74149  1  0  0  0
 74150  1  0  0  0
 74151  1  0  0  0
 74 83  1  0  0  0
 75 83  1  0  0  0
 75152  1  0  0  0
 75153  1  0  0  0
 75154  1  0  0  0
 76 83  1  0  0  0
 76155  1  0  0  0
 76156  1  0  0  0
 77 78  1  0  0  0
 77 79  1  0  0  0
 77157  1  0  0  0
 77158  1  0  0  0
 78 80  1  0  0  0
 78159  1  0  0  0
 78160  1  0  0  0
 79 81  1  0  0  0
 79161  1  0  0  0
 79162  1  0  0  0
 80 82  1  0  0  0
 80163  1  0  0  0
 80164  1  0  0  0
 81 86  1  0  0  0
 81165  1  0  0  0
 81166  1  0  0  0
 82167  1  0  0  0
 82168  1  0  0  0
 85 86  1  0  0  0
M  ISO  4   1 100  68 101  76 100  82 101
M  END
> <chiral flag>
0

> <version>
0

> <s_m_source_file>
/data/baiqing/PycharmProjects/Reinvent-master-3.2/result/LINK_invent/BTK/process_docking_weight1_custom_sum_contain_oxygen_bond_distance_aromatic_linkinvent_7_9_3/rearranged_h_0076.sdf

> <i_m_source_file_index>
63

> <r_mmod_Potential_Energy-OPLS-2005>
-73.2653961181641

> <r_mmod_Stretch_Energy-OPLS-2005>
34.7127265930176

> <r_mmod_Bend_Energy-OPLS-2005>
107.577278137207

> <r_mmod_Torsional_Energy-OPLS-2005>
222.016967773438

> <r_mmod_Improper_Torsional_Energy-OPLS-2005>
5.90359926223755

> <r_mmod_Van_der_Waal_Energy-OPLS-2005>
136.99787902832

> <r_mmod_Electrostatic_Energy-OPLS-2005>
-419.966979980469

> <r_mmod_Solvation_Energy-OPLS-2005>
-181.508773803711

> <b_mmod_Minimization_Converged-OPLS-2005>
0

> <r_mmod_RMS_Derivative-OPLS-2005>
3.8822455406189

$$$$
63
                    3D
 Structure written by MMmdl.
175183  0  0  1  0            999 V2000
  -30.7345  -14.4440   20.6383 C   0  0  0  0  0  0
  -30.4076  -12.3112   19.4371 C   0  0  0  0  0  0
  -29.4950  -12.5219   18.2125 C   0  0  0  0  0  0
  -28.0143  -12.3771   18.6079 C   0  0  0  0  0  0
  -27.6540  -13.2114   19.8642 C   0  0  2  0  0  0
  -28.6783  -12.9931   20.9936 C   0  0  0  0  0  0
  -25.2543  -13.8173   20.5635 C   0  0  0  0  0  0
  -24.1816  -13.0440   20.9149 C   0  0  0  0  0  0
  -24.6381  -11.6912   20.8720 C   0  0  0  0  0  0
  -23.9064  -10.4296   21.0404 C   0  0  0  0  0  0
  -24.3632   -9.4208   21.9181 C   0  0  0  0  0  0
  -23.6308   -8.2250   22.0762 C   0  0  0  0  0  0
  -22.4287   -8.0284   21.3560 C   0  0  0  0  0  0
  -21.9914   -9.0256   20.4660 C   0  0  0  0  0  0
  -22.7238  -10.2132   20.3061 C   0  0  0  0  0  0
  -21.6852   -6.0746   22.5292 C   0  0  0  0  0  0
  -21.4016   -6.5655   23.8226 C   0  0  0  0  0  0
  -21.3653   -5.6804   24.9187 C   0  0  0  0  0  0
  -21.6040   -4.3066   24.7240 C   0  0  0  0  0  0
  -21.8825   -3.8160   23.4356 C   0  0  0  0  0  0
  -21.9195   -4.6973   22.3413 C   0  0  0  0  0  0
  -22.7846  -13.5234   21.1834 C   0  0  0  0  0  0
  -22.1659   -4.2160   21.0985 F   0  0  0  0  0  0
  -21.5623   -3.4547   25.7746 F   0  0  0  0  0  0
  -30.0241  -13.2908   20.4711 N   0  0  0  0  0  0
  -26.2967  -12.9351   20.3257 N   0  0  0  0  0  0
  -25.9293  -11.6506   20.5695 N   0  0  0  0  0  0
  -22.0500  -12.8238   22.0408 N   0  0  0  0  0  0
  -25.4307  -15.1895   20.4093 N   0  0  0  0  0  0
  -31.7938  -14.6283   20.0356 O   0  0  0  0  0  0
  -21.6643   -6.8890   21.4257 O   0  0  0  0  0  0
  -22.3523  -14.5538   20.6678 O   0  0  0  0  0  0
  -24.6148  -31.8699   23.2066 C   0  0  0  0  0  0
  -25.9025  -32.4841   23.8387 C   0  0  1  0  0  0
  -27.2226  -27.4219   20.1054 C   0  0  0  0  0  0
  -25.5860  -33.8633   24.2319 N   0  0  0  0  0  0
  -23.4030  -30.4907   21.5516 C   0  0  2  0  0  0
  -24.8488  -28.9599   20.1096 C   0  0  0  0  0  0
  -22.7438  -29.4639   22.5007 C   0  0  0  0  0  0
  -18.0268  -28.1371   22.8497 C   0  0  0  0  0  0
  -24.1491  -36.7327   23.2628 C   0  0  0  0  0  0
  -25.9334  -30.8332   21.3596 C   0  0  0  0  0  0
  -26.0114  -29.4671   20.7044 C   0  0  0  0  0  0
  -27.2036  -28.7057   20.6962 C   0  0  0  0  0  0
  -26.0455  -26.9377   19.4884 C   0  0  0  0  0  0
  -24.8616  -27.6965   19.4957 C   0  0  0  0  0  0
  -23.6099  -29.8253   20.1662 C   0  0  0  0  0  0
  -25.4107  -36.3127   24.0340 C   0  0  1  0  0  0
  -20.5874  -28.3640   23.1348 C   0  0  2  0  0  0
  -20.6761  -26.9378   22.5435 C   0  0  0  0  0  0
  -19.5734  -26.6384   21.5226 C   0  0  0  0  0  0
  -18.1908  -26.7911   22.1637 C   0  0  0  0  0  0
  -19.1523  -28.8823   23.2902 C   0  0  0  0  0  0
  -18.9450  -30.1438   23.8905 C   0  0  0  0  0  0
  -17.6452  -30.6570   24.0567 C   0  0  0  0  0  0
  -25.9041  -34.9489   23.5143 C   0  0  0  0  0  0
  -16.5338  -29.9076   23.6338 C   0  0  0  0  0  0
  -16.7263  -28.6502   23.0344 C   0  0  0  0  0  0
  -26.4438  -31.6603   25.0718 C   0  0  0  0  0  0
  -25.3684  -31.3683   26.1457 C   0  0  0  0  0  0
  -27.0246  -30.3053   24.6049 C   0  0  0  0  0  0
  -27.6033  -32.4299   25.7464 C   0  0  0  0  0  0
  -27.5591  -37.1802   24.8455 C   0  0  0  0  0  0
  -21.4168  -29.3001   22.3759 N   0  0  0  0  0  0
  -26.4295  -37.3813   23.9413 N   0  0  0  0  0  0
  -24.6689  -31.0784   22.0979 N   0  0  0  0  0  0
  -23.4224  -28.8184   23.3021 O   0  0  0  0  0  0
  -28.3682  -26.6525   20.1550 O   0  0  0  0  0  0
  -26.5637  -34.8944   22.4730 O   0  0  0  0  0  0
  -23.5344  -32.1446   23.7472 O   0  0  0  0  0  0
  -29.8871  -21.6166   20.9752 C   0  0  0  0  0  0
  -29.5010  -20.3441   20.5986 C   0  0  0  0  0  0
  -27.8279  -21.3266   21.7238 C   0  0  0  0  0  0
  -26.5193  -21.5082   22.4252 C   0  0  0  0  0  0
  -31.4507  -19.9669   19.1751 C   0  0  0  0  0  0
  -29.3602  -18.8015   18.6492 C   0  0  0  0  0  0
  -32.1421  -17.5344   20.3956 C   0  0  0  0  0  0
  -30.8313  -18.4816   22.2490 C   0  0  0  0  0  0
  -30.0846  -15.3804   22.8059 C   0  0  0  0  0  0
  -29.2601  -24.7393   21.4166 C   0  0  0  0  0  0
  -28.8529  -23.5299   22.3027 C   0  0  0  0  0  0
  -29.7448  -16.7505   20.7112 C   0  0  0  0  0  0
  -28.1715  -25.2534   20.4512 C   0  0  0  0  0  0
  -30.2428  -19.2440   19.8381 C   0  0  0  0  0  0
  -30.7194  -18.0085   20.7777 C   0  0  0  0  0  0
  -28.8444  -22.2027   21.6453 N   0  0  0  0  0  0
  -28.2153  -20.2216   21.0696 N   0  3  0  0  0  0
  -30.1422  -15.4525   21.3403 N   0  0  0  0  0  0
  -31.4555  -12.3940   19.1425 H   0  0  0  0  0  0
  -30.2980  -11.2993   19.8281 H   0  0  0  0  0  0
  -29.7449  -11.8047   17.4298 H   0  0  0  0  0  0
  -29.6690  -13.5125   17.7902 H   0  0  0  0  0  0
  -27.8218  -11.3210   18.7968 H   0  0  0  0  0  0
  -27.3728  -12.6603   17.7727 H   0  0  0  0  0  0
  -27.7021  -14.2624   19.5767 H   0  0  0  0  0  0
  -28.6435  -11.9647   21.3546 H   0  0  0  0  0  0
  -28.3841  -13.6078   21.8397 H   0  0  0  0  0  0
  -25.2790   -9.5683   22.4738 H   0  0  0  0  0  0
  -24.0030   -7.4640   22.7479 H   0  0  0  0  0  0
  -21.0847   -8.8772   19.8971 H   0  0  0  0  0  0
  -22.3701  -10.9675   19.6169 H   0  0  0  0  0  0
  -21.2017   -7.6161   23.9738 H   0  0  0  0  0  0
  -21.1458   -6.0528   25.9089 H   0  0  0  0  0  0
  -22.0608   -2.7621   23.2855 H   0  0  0  0  0  0
  -22.4116  -11.9898   22.4802 H   0  0  0  0  0  0
  -21.1123  -13.1273   22.2626 H   0  0  0  0  0  0
  -24.6703  -15.8505   20.5216 H   0  0  0  0  0  0
  -26.2958  -15.6230   20.1146 H   0  0  0  0  0  0
  -26.7109  -32.5572   23.1161 H   0  0  0  0  0  0
  -24.9920  -33.9776   25.0406 H   0  0  0  0  0  0
  -22.6888  -31.3053   21.4155 H   0  0  0  0  0  0
  -23.3766  -35.9648   23.3287 H   0  0  0  0  0  0
  -24.3565  -36.8955   22.2036 H   0  0  0  0  0  0
  -23.7233  -37.6520   23.6665 H   0  0  0  0  0  0
  -26.0399  -31.5983   20.5904 H   0  0  0  0  0  0
  -26.8234  -30.8912   21.9744 H   0  0  0  0  0  0
  -28.0995  -29.0839   21.1689 H   0  0  0  0  0  0
  -26.0301  -25.9690   19.0092 H   0  0  0  0  0  0
  -23.9692  -27.3013   19.0304 H   0  0  0  0  0  0
  -23.7103  -30.6013   19.4063 H   0  0  0  0  0  0
  -22.7339  -29.2407   19.8791 H   0  0  0  0  0  0
  -25.1271  -36.1990   25.0833 H   0  0  0  0  0  0
  -20.9943  -28.3204   24.1482 H   0  0  0  0  0  0
  -20.5698  -26.2232   23.3615 H   0  0  0  0  0  0
  -21.6624  -26.7448   22.1188 H   0  0  0  0  0  0
  -19.6893  -25.6308   21.1222 H   0  0  0  0  0  0
  -19.6675  -27.3241   20.6792 H   0  0  0  0  0  0
  -17.4185  -26.6699   21.4023 H   0  0  0  0  0  0
  -18.0261  -26.0055   22.9035 H   0  0  0  0  0  0
  -19.7932  -30.7243   24.2290 H   0  0  0  0  0  0
  -17.5008  -31.6260   24.5144 H   0  0  0  0  0  0
  -15.5336  -30.2961   23.7657 H   0  0  0  0  0  0
  -15.8676  -28.0824   22.7032 H   0  0  0  0  0  0
  -24.5884  -30.7017   25.7761 H   0  0  0  0  0  0
  -24.8829  -32.2815   26.4908 H   0  0  0  0  0  0
  -25.8011  -30.8840   27.0223 H   0  0  0  0  0  0
  -26.2778  -29.6836   24.1102 H   0  0  0  0  0  0
  -27.4025  -29.7252   25.4470 H   0  0  0  0  0  0
  -27.8613  -30.4373   23.9187 H   0  0  0  0  0  0
  -27.2698  -33.3611   26.2056 H   0  0  0  0  0  0
  -28.3824  -32.6829   25.0261 H   0  0  0  0  0  0
  -28.0732  -31.8411   26.5352 H   0  0  0  0  0  0
  -28.2580  -38.0127   24.7550 H   0  0  0  0  0  0
  -28.1125  -36.2663   24.6232 H   0  0  0  0  0  0
  -27.2317  -37.1371   25.8856 H   0  0  0  0  0  0
  -20.9348  -29.8722   21.6978 H   0  0  0  0  0  0
  -26.0204  -38.2896   24.1444 H   0  0  0  0  0  0
  -30.8240  -22.1353   20.8304 H   0  0  0  0  0  0
  -26.0103  -22.3767   22.0067 H   0  0  0  0  0  0
  -26.7153  -21.6559   23.4880 H   0  0  0  0  0  0
  -25.9046  -20.6182   22.2881 H   0  0  0  0  0  0
  -31.1300  -20.8236   18.5801 H   0  0  0  0  0  0
  -31.9977  -19.3220   18.4867 H   0  0  0  0  0  0
  -32.1587  -20.3440   19.9138 H   0  0  0  0  0  0
  -29.1092  -19.6485   18.0081 H   0  0  0  0  0  0
  -28.4140  -18.3641   18.9641 H   0  0  0  0  0  0
  -29.8752  -18.0742   18.0202 H   0  0  0  0  0  0
  -32.4974  -16.7459   21.0566 H   0  0  0  0  0  0
  -32.8957  -18.3136   20.4873 H   0  0  0  0  0  0
  -32.1713  -17.1534   19.3740 H   0  0  0  0  0  0
  -31.3533  -17.7642   22.8779 H   0  0  0  0  0  0
  -29.8573  -18.6591   22.7057 H   0  0  0  0  0  0
  -31.4090  -19.4034   22.3235 H   0  0  0  0  0  0
  -29.3526  -16.0774   23.2120 H   0  0  0  0  0  0
  -31.0592  -15.6132   23.2327 H   0  0  0  0  0  0
  -29.8317  -14.3888   23.1773 H   0  0  0  0  0  0
  -30.1845  -24.5422   20.8726 H   0  0  0  0  0  0
  -29.4997  -25.5546   22.1002 H   0  0  0  0  0  0
  -27.8810  -23.7199   22.7581 H   0  0  0  0  0  0
  -29.5561  -23.4480   23.1327 H   0  0  0  0  0  0
  -29.5510  -16.4944   19.6695 H   0  0  0  0  0  0
  -28.7700  -17.0339   21.1095 H   0  0  0  0  0  0
  -27.1989  -25.0846   20.9181 H   0  0  0  0  0  0
  -28.1797  -24.6691   19.5310 H   0  0  0  0  0  0
  -27.6324  -19.4023   20.9518 H   0  0  0  0  0  0
  1 25  1  0  0  0
  1 30  2  0  0  0
  1 88  1  0  0  0
  2  3  1  0  0  0
  2 25  1  0  0  0
  2 89  1  0  0  0
  2 90  1  0  0  0
  3  4  1  0  0  0
  3 91  1  0  0  0
  3 92  1  0  0  0
  4  5  1  0  0  0
  4 93  1  0  0  0
  4 94  1  0  0  0
  5  6  1  0  0  0
  5 26  1  0  0  0
  5 95  1  0  0  0
  6 25  1  0  0  0
  6 96  1  0  0  0
  6 97  1  0  0  0
  7  8  2  0  0  0
  7 26  1  0  0  0
  7 29  1  0  0  0
  8  9  1  0  0  0
  8 22  1  0  0  0
  9 10  1  0  0  0
  9 27  2  0  0  0
 10 11  2  0  0  0
 10 15  1  0  0  0
 11 12  1  0  0  0
 11 98  1  0  0  0
 12 13  2  0  0  0
 12 99  1  0  0  0
 13 14  1  0  0  0
 13 31  1  0  0  0
 14 15  2  0  0  0
 14100  1  0  0  0
 15101  1  0  0  0
 16 17  2  0  0  0
 16 21  1  0  0  0
 16 31  1  0  0  0
 17 18  1  0  0  0
 17102  1  0  0  0
 18 19  2  0  0  0
 18103  1  0  0  0
 19 20  1  0  0  0
 19 24  1  0  0  0
 20 21  2  0  0  0
 20104  1  0  0  0
 21 23  1  0  0  0
 22 28  1  0  0  0
 22 32  2  0  0  0
 26 27  1  0  0  0
 28105  1  0  0  0
 28106  1  0  0  0
 29107  1  0  0  0
 29108  1  0  0  0
 33 34  1  0  0  0
 33 66  1  0  0  0
 33 70  2  0  0  0
 34 36  1  0  0  0
 34 59  1  0  0  0
 34109  1  0  0  0
 35 44  2  0  0  0
 35 45  1  0  0  0
 35 68  1  0  0  0
 36 56  1  0  0  0
 36110  1  0  0  0
 37 39  1  0  0  0
 37 47  1  0  0  0
 37 66  1  0  0  0
 37111  1  0  0  0
 38 43  2  0  0  0
 38 46  1  0  0  0
 38 47  1  0  0  0
 39 64  1  0  0  0
 39 67  2  0  0  0
 40 52  1  0  0  0
 40 53  2  0  0  0
 40 58  1  0  0  0
 41112  1  0  0  0
 41113  1  0  0  0
 41114  1  0  0  0
 41 48  1  0  0  0
 42 43  1  0  0  0
 42 66  1  0  0  0
 42115  1  0  0  0
 42116  1  0  0  0
 43 44  1  0  0  0
 44117  1  0  0  0
 45 46  2  0  0  0
 45118  1  0  0  0
 46119  1  0  0  0
 47120  1  0  0  0
 47121  1  0  0  0
 48 56  1  0  0  0
 48 65  1  0  0  0
 48122  1  0  0  0
 49 50  1  0  0  0
 49 53  1  0  0  0
 49 64  1  0  0  0
 49123  1  0  0  0
 50 51  1  0  0  0
 50124  1  0  0  0
 50125  1  0  0  0
 51 52  1  0  0  0
 51126  1  0  0  0
 51127  1  0  0  0
 52128  1  0  0  0
 52129  1  0  0  0
 53 54  1  0  0  0
 54 55  2  0  0  0
 54130  1  0  0  0
 55 57  1  0  0  0
 55131  1  0  0  0
 56 69  2  0  0  0
 57 58  2  0  0  0
 57132  1  0  0  0
 58133  1  0  0  0
 59 60  1  0  0  0
 59 61  1  0  0  0
 59 62  1  0  0  0
 60134  1  0  0  0
 60135  1  0  0  0
 60136  1  0  0  0
 61137  1  0  0  0
 61138  1  0  0  0
 61139  1  0  0  0
 62140  1  0  0  0
 62141  1  0  0  0
 62142  1  0  0  0
 63 65  1  0  0  0
 63143  1  0  0  0
 63144  1  0  0  0
 63145  1  0  0  0
 64146  1  0  0  0
 65147  1  0  0  0
 68 83  1  0  0  0
 71 72  2  0  0  0
 71 86  1  0  0  0
 71148  1  0  0  0
 72 84  1  0  0  0
 72 87  1  0  0  0
 73 74  1  0  0  0
 73 86  1  0  0  0
 73 87  2  0  0  0
 74149  1  0  0  0
 74150  1  0  0  0
 74151  1  0  0  0
 75152  1  0  0  0
 75153  1  0  0  0
 75154  1  0  0  0
 75 84  1  0  0  0
 76 84  1  0  0  0
 76155  1  0  0  0
 76156  1  0  0  0
 76157  1  0  0  0
 77158  1  0  0  0
 77159  1  0  0  0
 77160  1  0  0  0
 77 85  1  0  0  0
 78 85  1  0  0  0
 78161  1  0  0  0
 78162  1  0  0  0
 78163  1  0  0  0
 79 88  1  0  0  0
 79164  1  0  0  0
 79165  1  0  0  0
 79166  1  0  0  0
 80 81  1  0  0  0
 80 83  1  0  0  0
 80167  1  0  0  0
 80168  1  0  0  0
 81 86  1  0  0  0
 81169  1  0  0  0
 81170  1  0  0  0
 82 85  1  0  0  0
 82 88  1  0  0  0
 82171  1  0  0  0
 82172  1  0  0  0
 83173  1  0  0  0
 83174  1  0  0  0
 84 85  1  0  0  0
 87175  1  0  0  0
M  CHG  1  87   1
M  ISO  4   1 100  68 101  83 101  88 100
M  END
> <chiral flag>
0

> <version>
0

> <s_m_source_file>
/data/baiqing/PycharmProjects/Reinvent-master-3.2/result/LINK_invent/BTK/process_docking_weight1_custom_sum_contain_oxygen_bond_distance_aromatic_linkinvent_7_9_3/rearranged_h_0076.sdf

> <i_m_source_file_index>
64

> <r_mmod_Potential_Energy-OPLS-2005>
111.833183288574

> <r_mmod_Stretch_Energy-OPLS-2005>
58.2190971374512

> <r_mmod_Bend_Energy-OPLS-2005>
125.647972106934

> <r_mmod_Torsional_Energy-OPLS-2005>
344.223419189453

> <r_mmod_Improper_Torsional_Energy-OPLS-2005>
4.66086912155151

> <r_mmod_Van_der_Waal_Energy-OPLS-2005>
157.643341064453

> <r_mmod_Electrostatic_Energy-OPLS-2005>
-205.639236450195

> <r_mmod_Solvation_Energy-OPLS-2005>
-386.301483154297

> <b_mmod_Minimization_Converged-OPLS-2005>
0

> <r_mmod_RMS_Derivative-OPLS-2005>
3.01691699028015

$$$$
64
                    3D
 Structure written by MMmdl.
175183  0  0  1  0            999 V2000
  -30.6607  -14.5707   20.4876 C   0  0  0  0  0  0
  -30.4162  -12.3417   19.4515 C   0  0  0  0  0  0
  -29.5048  -12.5129   18.2179 C   0  0  0  0  0  0
  -28.0231  -12.3574   18.6213 C   0  0  0  0  0  0
  -27.6516  -13.2177   19.8595 C   0  0  2  0  0  0
  -28.6910  -13.0626   20.9917 C   0  0  0  0  0  0
  -25.2545  -13.8152   20.5611 C   0  0  0  0  0  0
  -24.1818  -13.0399   20.9153 C   0  0  0  0  0  0
  -24.6428  -11.6896   20.8721 C   0  0  0  0  0  0
  -23.9102  -10.4274   21.0431 C   0  0  0  0  0  0
  -24.3665   -9.4179   21.9200 C   0  0  0  0  0  0
  -23.6310   -8.2224   22.0776 C   0  0  0  0  0  0
  -22.4281   -8.0288   21.3561 C   0  0  0  0  0  0
  -21.9942   -9.0253   20.4651 C   0  0  0  0  0  0
  -22.7296  -10.2120   20.3059 C   0  0  0  0  0  0
  -21.6844   -6.0749   22.5284 C   0  0  0  0  0  0
  -21.4037   -6.5650   23.8234 C   0  0  0  0  0  0
  -21.3653   -5.6800   24.9189 C   0  0  0  0  0  0
  -21.6026   -4.3069   24.7240 C   0  0  0  0  0  0
  -21.8810   -3.8150   23.4365 C   0  0  0  0  0  0
  -21.9200   -4.6970   22.3428 C   0  0  0  0  0  0
  -22.7849  -13.5203   21.1829 C   0  0  0  0  0  0
  -22.1663   -4.2136   21.1005 F   0  0  0  0  0  0
  -21.5635   -3.4587   25.7768 F   0  0  0  0  0  0
  -30.0136  -13.3682   20.4259 N   0  0  0  0  0  0
  -26.2986  -12.9350   20.3282 N   0  0  0  0  0  0
  -25.9353  -11.6494   20.5759 N   0  0  0  0  0  0
  -22.0488  -12.8164   22.0369 N   0  0  0  0  0  0
  -25.4198  -15.1881   20.4047 N   0  0  0  0  0  0
  -31.8367  -14.7012   20.1420 O   0  0  0  0  0  0
  -21.6620   -6.8898   21.4247 O   0  0  0  0  0  0
  -22.3535  -14.5526   20.6734 O   0  0  0  0  0  0
  -24.6185  -31.8636   23.2047 C   0  0  0  0  0  0
  -25.9060  -32.4800   23.8365 C   0  0  1  0  0  0
  -27.2576  -27.3940   20.0971 C   0  0  0  0  0  0
  -25.5895  -33.8602   24.2301 N   0  0  0  0  0  0
  -23.4120  -30.4844   21.5464 C   0  0  2  0  0  0
  -24.8629  -28.9339   20.1219 C   0  0  0  0  0  0
  -22.7418  -29.4660   22.4969 C   0  0  0  0  0  0
  -18.0296  -28.1360   22.8506 C   0  0  0  0  0  0
  -24.1495  -36.7299   23.2642 C   0  0  0  0  0  0
  -25.9434  -30.8142   21.3657 C   0  0  0  0  0  0
  -26.0268  -29.4434   20.7128 C   0  0  0  0  0  0
  -27.2257  -28.6838   20.6926 C   0  0  0  0  0  0
  -26.0732  -26.9089   19.5028 C   0  0  0  0  0  0
  -24.8821  -27.6635   19.5184 C   0  0  0  0  0  0
  -23.6262  -29.8081   20.1663 C   0  0  0  0  0  0
  -25.4116  -36.3098   24.0338 C   0  0  1  0  0  0
  -20.5876  -28.3673   23.1293 C   0  0  2  0  0  0
  -20.6782  -26.9399   22.5417 C   0  0  0  0  0  0
  -19.5768  -26.6376   21.5212 C   0  0  0  0  0  0
  -18.1938  -26.7911   22.1614 C   0  0  0  0  0  0
  -19.1533  -28.8833   23.2899 C   0  0  0  0  0  0
  -18.9462  -30.1434   23.8914 C   0  0  0  0  0  0
  -17.6455  -30.6572   24.0566 C   0  0  0  0  0  0
  -25.9047  -34.9464   23.5118 C   0  0  0  0  0  0
  -16.5350  -29.9074   23.6316 C   0  0  0  0  0  0
  -16.7275  -28.6480   23.0363 C   0  0  0  0  0  0
  -26.4472  -31.6573   25.0697 C   0  0  0  0  0  0
  -25.3736  -31.3657   26.1437 C   0  0  0  0  0  0
  -27.0310  -30.3023   24.6069 C   0  0  0  0  0  0
  -27.6039  -32.4276   25.7467 C   0  0  0  0  0  0
  -27.5587  -37.1803   24.8456 C   0  0  0  0  0  0
  -21.4142  -29.3033   22.3690 N   0  0  0  0  0  0
  -26.4296  -37.3785   23.9406 N   0  0  0  0  0  0
  -24.6766  -31.0683   22.0976 N   0  0  0  0  0  0
  -23.4146  -28.8220   23.3068 O   0  0  0  0  0  0
  -28.4255  -26.6393   20.0542 O   0  0  0  0  0  0
  -26.5627  -34.8921   22.4695 O   0  0  0  0  0  0
  -23.5366  -32.1402   23.7408 O   0  0  0  0  0  0
  -30.1234  -20.1268   22.2132 C   0  0  0  0  0  0
  -29.4700  -20.7561   20.2023 C   0  0  0  0  0  0
  -29.5650  -19.6310   21.0018 C   0  0  0  0  0  0
  -30.3609  -21.4827   22.1405 C   0  0  0  0  0  0
  -30.3798  -25.2468   17.8802 C   0  0  0  0  0  0
  -28.1295  -18.0472   19.6008 C   0  0  0  0  0  0
  -31.1024  -21.5901   24.5451 C   0  0  0  0  0  0
  -30.2542  -23.6525   23.5176 C   0  0  0  0  0  0
  -32.4767  -22.7069   22.8052 C   0  0  0  0  0  0
  -29.0953  -24.4580   18.2150 C   0  0  0  0  0  0
  -30.1411  -23.2360   20.2269 C   0  0  0  0  0  0
  -30.3036  -17.0934   20.6069 C   0  0  0  0  0  0
  -28.3859  -25.2815   20.5903 C   0  0  0  0  0  0
  -29.1414  -18.1508   20.7552 C   0  0  1  0  0  0
  -28.9015  -24.0670   19.7031 C   0  0  1  0  0  0
  -31.0268  -22.3531   23.2063 C   0  0  0  0  0  0
  -29.9477  -21.8993   20.8653 N   0  0  0  0  0  0
  -29.8887  -15.6619   20.7348 N   0  0  0  0  0  0
  -31.4696  -12.4085   19.1814 H   0  0  0  0  0  0
  -30.2886  -11.3462   19.8808 H   0  0  0  0  0  0
  -29.7648  -11.7898   17.4411 H   0  0  0  0  0  0
  -29.6609  -13.4990   17.7807 H   0  0  0  0  0  0
  -27.8469  -11.3031   18.8325 H   0  0  0  0  0  0
  -27.3753  -12.6036   17.7774 H   0  0  0  0  0  0
  -27.6757  -14.2565   19.5275 H   0  0  0  0  0  0
  -28.6768  -12.0479   21.3877 H   0  0  0  0  0  0
  -28.4542  -13.7117   21.8366 H   0  0  0  0  0  0
  -25.2841   -9.5645   22.4746 H   0  0  0  0  0  0
  -24.0023   -7.4631   22.7517 H   0  0  0  0  0  0
  -21.0884   -8.8779   19.8958 H   0  0  0  0  0  0
  -22.3794  -10.9651   19.6151 H   0  0  0  0  0  0
  -21.2026   -7.6146   23.9757 H   0  0  0  0  0  0
  -21.1487   -6.0516   25.9098 H   0  0  0  0  0  0
  -22.0591   -2.7602   23.2864 H   0  0  0  0  0  0
  -22.4188  -11.9840   22.4689 H   0  0  0  0  0  0
  -21.1115  -13.1183   22.2652 H   0  0  0  0  0  0
  -24.6354  -15.8240   20.4964 H   0  0  0  0  0  0
  -26.2644  -15.6381   20.0755 H   0  0  0  0  0  0
  -26.7126  -32.5512   23.1123 H   0  0  0  0  0  0
  -25.0040  -33.9755   25.0443 H   0  0  0  0  0  0
  -22.7045  -31.3033   21.4000 H   0  0  0  0  0  0
  -23.3770  -35.9617   23.3279 H   0  0  0  0  0  0
  -24.3591  -36.8942   22.2060 H   0  0  0  0  0  0
  -23.7218  -37.6483   23.6677 H   0  0  0  0  0  0
  -26.0601  -31.5816   20.5993 H   0  0  0  0  0  0
  -26.8277  -30.8679   21.9891 H   0  0  0  0  0  0
  -28.1228  -29.0791   21.1481 H   0  0  0  0  0  0
  -26.0782  -25.9450   19.0144 H   0  0  0  0  0  0
  -23.9886  -27.2567   19.0641 H   0  0  0  0  0  0
  -23.7418  -30.5808   19.4053 H   0  0  0  0  0  0
  -22.7468  -29.2337   19.8681 H   0  0  0  0  0  0
  -25.1293  -36.1967   25.0831 H   0  0  0  0  0  0
  -20.9987  -28.3247   24.1407 H   0  0  0  0  0  0
  -20.5682  -26.2272   23.3611 H   0  0  0  0  0  0
  -21.6653  -26.7442   22.1212 H   0  0  0  0  0  0
  -19.6933  -25.6296   21.1231 H   0  0  0  0  0  0
  -19.6701  -27.3197   20.6754 H   0  0  0  0  0  0
  -17.4213  -26.6692   21.4001 H   0  0  0  0  0  0
  -18.0316  -26.0028   22.8980 H   0  0  0  0  0  0
  -19.7935  -30.7263   24.2256 H   0  0  0  0  0  0
  -17.5014  -31.6262   24.5164 H   0  0  0  0  0  0
  -15.5346  -30.2993   23.7618 H   0  0  0  0  0  0
  -15.8677  -28.0809   22.7060 H   0  0  0  0  0  0
  -24.5910  -30.7012   25.7745 H   0  0  0  0  0  0
  -24.8948  -32.2812   26.4917 H   0  0  0  0  0  0
  -25.8100  -30.8783   27.0166 H   0  0  0  0  0  0
  -26.2861  -29.6769   24.1135 H   0  0  0  0  0  0
  -27.4094  -29.7246   25.4506 H   0  0  0  0  0  0
  -27.8681  -30.4326   23.9210 H   0  0  0  0  0  0
  -27.2658  -33.3557   26.2076 H   0  0  0  0  0  0
  -28.3848  -32.6845   25.0301 H   0  0  0  0  0  0
  -28.0709  -31.8377   26.5360 H   0  0  0  0  0  0
  -28.2579  -38.0126   24.7552 H   0  0  0  0  0  0
  -28.1111  -36.2658   24.6235 H   0  0  0  0  0  0
  -27.2312  -37.1400   25.8859 H   0  0  0  0  0  0
  -20.9283  -29.8729   21.6905 H   0  0  0  0  0  0
  -26.0186  -38.2856   24.1434 H   0  0  0  0  0  0
  -30.3550  -19.5089   23.0705 H   0  0  0  0  0  0
  -29.1184  -20.8538   19.1839 H   0  0  0  0  0  0
  -30.3914  -25.5170   16.8221 H   0  0  0  0  0  0
  -31.2854  -24.6670   18.0589 H   0  0  0  0  0  0
  -30.4575  -26.1700   18.4540 H   0  0  0  0  0  0
  -28.5380  -18.4105   18.6560 H   0  0  0  0  0  0
  -27.2346  -18.6272   19.8212 H   0  0  0  0  0  0
  -27.8102  -17.0170   19.4441 H   0  0  0  0  0  0
  -30.1062  -21.2925   24.8761 H   0  0  0  0  0  0
  -31.5312  -22.2002   25.3402 H   0  0  0  0  0  0
  -31.7152  -20.6906   24.4684 H   0  0  0  0  0  0
  -29.1811  -23.4786   23.5935 H   0  0  0  0  0  0
  -30.4311  -24.4377   22.7935 H   0  0  0  0  0  0
  -30.5750  -24.0841   24.4649 H   0  0  0  0  0  0
  -33.0494  -21.8092   22.5673 H   0  0  0  0  0  0
  -32.9893  -23.2284   23.6162 H   0  0  0  0  0  0
  -32.5313  -23.3552   21.9338 H   0  0  0  0  0  0
  -29.0893  -23.5476   17.6084 H   0  0  0  0  0  0
  -28.2337  -25.0390   17.8855 H   0  0  0  0  0  0
  -30.7699  -23.8752   20.8313 H   0  0  0  0  0  0
  -30.7860  -23.0052   19.3817 H   0  0  0  0  0  0
  -31.0652  -17.2801   21.3639 H   0  0  0  0  0  0
  -30.7951  -17.2349   19.6407 H   0  0  0  0  0  0
  -28.9666  -25.3243   21.5070 H   0  0  0  0  0  0
  -27.3766  -25.0549   20.9385 H   0  0  0  0  0  0
  -28.5970  -17.8704   21.6609 H   0  0  0  0  0  0
  -28.0715  -23.3597   19.6940 H   0  0  0  0  0  0
  -28.9315  -15.4822   20.9912 H   0  0  0  0  0  0
  1 25  1  0  0  0
  1 30  2  0  0  0
  1 88  1  0  0  0
  2  3  1  0  0  0
  2 25  1  0  0  0
  2 89  1  0  0  0
  2 90  1  0  0  0
  3  4  1  0  0  0
  3 91  1  0  0  0
  3 92  1  0  0  0
  4  5  1  0  0  0
  4 93  1  0  0  0
  4 94  1  0  0  0
  5  6  1  0  0  0
  5 26  1  0  0  0
  5 95  1  0  0  0
  6 25  1  0  0  0
  6 96  1  0  0  0
  6 97  1  0  0  0
  7  8  2  0  0  0
  7 26  1  0  0  0
  7 29  1  0  0  0
  8  9  1  0  0  0
  8 22  1  0  0  0
  9 10  1  0  0  0
  9 27  2  0  0  0
 10 11  2  0  0  0
 10 15  1  0  0  0
 11 12  1  0  0  0
 11 98  1  0  0  0
 12 13  2  0  0  0
 12 99  1  0  0  0
 13 14  1  0  0  0
 13 31  1  0  0  0
 14 15  2  0  0  0
 14100  1  0  0  0
 15101  1  0  0  0
 16 17  2  0  0  0
 16 21  1  0  0  0
 16 31  1  0  0  0
 17 18  1  0  0  0
 17102  1  0  0  0
 18 19  2  0  0  0
 18103  1  0  0  0
 19 20  1  0  0  0
 19 24  1  0  0  0
 20 21  2  0  0  0
 20104  1  0  0  0
 21 23  1  0  0  0
 22 28  1  0  0  0
 22 32  2  0  0  0
 26 27  1  0  0  0
 28105  1  0  0  0
 28106  1  0  0  0
 29107  1  0  0  0
 29108  1  0  0  0
 33 34  1  0  0  0
 33 66  1  0  0  0
 33 70  2  0  0  0
 34 36  1  0  0  0
 34 59  1  0  0  0
 34109  1  0  0  0
 35 44  2  0  0  0
 35 45  1  0  0  0
 35 68  1  0  0  0
 36 56  1  0  0  0
 36110  1  0  0  0
 37 39  1  0  0  0
 37 47  1  0  0  0
 37 66  1  0  0  0
 37111  1  0  0  0
 38 43  2  0  0  0
 38 46  1  0  0  0
 38 47  1  0  0  0
 39 64  1  0  0  0
 39 67  2  0  0  0
 40 52  1  0  0  0
 40 53  2  0  0  0
 40 58  1  0  0  0
 41112  1  0  0  0
 41113  1  0  0  0
 41114  1  0  0  0
 41 48  1  0  0  0
 42 43  1  0  0  0
 42 66  1  0  0  0
 42115  1  0  0  0
 42116  1  0  0  0
 43 44  1  0  0  0
 44117  1  0  0  0
 45 46  2  0  0  0
 45118  1  0  0  0
 46119  1  0  0  0
 47120  1  0  0  0
 47121  1  0  0  0
 48 56  1  0  0  0
 48 65  1  0  0  0
 48122  1  0  0  0
 49 50  1  0  0  0
 49 53  1  0  0  0
 49 64  1  0  0  0
 49123  1  0  0  0
 50 51  1  0  0  0
 50124  1  0  0  0
 50125  1  0  0  0
 51 52  1  0  0  0
 51126  1  0  0  0
 51127  1  0  0  0
 52128  1  0  0  0
 52129  1  0  0  0
 53 54  1  0  0  0
 54 55  2  0  0  0
 54130  1  0  0  0
 55 57  1  0  0  0
 55131  1  0  0  0
 56 69  2  0  0  0
 57 58  2  0  0  0
 57132  1  0  0  0
 58133  1  0  0  0
 59 60  1  0  0  0
 59 61  1  0  0  0
 59 62  1  0  0  0
 60134  1  0  0  0
 60135  1  0  0  0
 60136  1  0  0  0
 61137  1  0  0  0
 61138  1  0  0  0
 61139  1  0  0  0
 62140  1  0  0  0
 62141  1  0  0  0
 62142  1  0  0  0
 63 65  1  0  0  0
 63143  1  0  0  0
 63144  1  0  0  0
 63145  1  0  0  0
 64146  1  0  0  0
 65147  1  0  0  0
 68 83  1  0  0  0
 71 73  1  0  0  0
 71 74  2  0  0  0
 71148  1  0  0  0
 72 73  2  0  0  0
 72 87  1  0  0  0
 72149  1  0  0  0
 73 84  1  0  0  0
 74 86  1  0  0  0
 74 87  1  0  0  0
 75 80  1  0  0  0
 75150  1  0  0  0
 75151  1  0  0  0
 75152  1  0  0  0
 76153  1  0  0  0
 76154  1  0  0  0
 76155  1  0  0  0
 76 84  1  0  0  0
 77156  1  0  0  0
 77157  1  0  0  0
 77158  1  0  0  0
 77 86  1  0  0  0
 78 86  1  0  0  0
 78159  1  0  0  0
 78160  1  0  0  0
 78161  1  0  0  0
 79 86  1  0  0  0
 79162  1  0  0  0
 79163  1  0  0  0
 79164  1  0  0  0
 80165  1  0  0  0
 80166  1  0  0  0
 80 85  1  0  0  0
 81 85  1  0  0  0
 81 87  1  0  0  0
 81167  1  0  0  0
 81168  1  0  0  0
 82 84  1  0  0  0
 82 88  1  0  0  0
 82169  1  0  0  0
 82170  1  0  0  0
 83 85  1  0  0  0
 83171  1  0  0  0
 83172  1  0  0  0
 84173  1  0  0  0
 85174  1  0  0  0
 88175  1  0  0  0
M  ISO  4   1 100  68 101  83 101  88 100
M  END
> <chiral flag>
0

> <version>
0

> <s_m_source_file>
/data/baiqing/PycharmProjects/Reinvent-master-3.2/result/LINK_invent/BTK/process_docking_weight1_custom_sum_contain_oxygen_bond_distance_aromatic_linkinvent_7_9_3/rearranged_h_0076.sdf

> <i_m_source_file_index>
65

> <r_mmod_Potential_Energy-OPLS-2005>
15.9145078659058

> <r_mmod_Stretch_Energy-OPLS-2005>
64.3260803222656

> <r_mmod_Bend_Energy-OPLS-2005>
149.037185668945

> <r_mmod_Torsional_Energy-OPLS-2005>
284.657775878906

> <r_mmod_Improper_Torsional_Energy-OPLS-2005>
6.12345600128174

> <r_mmod_Van_der_Waal_Energy-OPLS-2005>
124.692138671875

> <r_mmod_Electrostatic_Energy-OPLS-2005>
-445.241180419922

> <r_mmod_Solvation_Energy-OPLS-2005>
-193.576965332031

> <b_mmod_Minimization_Converged-OPLS-2005>
0

> <r_mmod_RMS_Derivative-OPLS-2005>
4.75634050369263

$$$$
65
                    3D
 Structure written by MMmdl.
170178  0  0  1  0            999 V2000
  -30.7377  -14.4397   20.6176 C   0  0  0  0  0  0
  -30.3986  -12.2979   19.4412 C   0  0  0  0  0  0
  -29.4977  -12.5465   18.2193 C   0  0  0  0  0  0
  -28.0107  -12.4208   18.5983 C   0  0  0  0  0  0
  -27.6552  -13.2229   19.8766 C   0  0  2  0  0  0
  -28.6894  -13.0058   21.0039 C   0  0  0  0  0  0
  -25.2522  -13.8209   20.5632 C   0  0  0  0  0  0
  -24.1816  -13.0440   20.9140 C   0  0  0  0  0  0
  -24.6412  -11.6908   20.8701 C   0  0  0  0  0  0
  -23.9103  -10.4273   21.0371 C   0  0  0  0  0  0
  -24.3652   -9.4194   21.9161 C   0  0  0  0  0  0
  -23.6303   -8.2248   22.0745 C   0  0  0  0  0  0
  -22.4298   -8.0275   21.3536 C   0  0  0  0  0  0
  -21.9934   -9.0261   20.4651 C   0  0  0  0  0  0
  -22.7278  -10.2114   20.3038 C   0  0  0  0  0  0
  -21.6892   -6.0725   22.5264 C   0  0  0  0  0  0
  -21.4050   -6.5630   23.8196 C   0  0  0  0  0  0
  -21.3656   -5.6780   24.9152 C   0  0  0  0  0  0
  -21.6056   -4.3048   24.7222 C   0  0  0  0  0  0
  -21.8831   -3.8133   23.4343 C   0  0  0  0  0  0
  -21.9205   -4.6946   22.3393 C   0  0  0  0  0  0
  -22.7836  -13.5202   21.1803 C   0  0  0  0  0  0
  -22.1663   -4.2120   21.0979 F   0  0  0  0  0  0
  -21.5613   -3.4536   25.7736 F   0  0  0  0  0  0
  -30.0277  -13.2869   20.4675 N   0  0  0  0  0  0
  -26.2973  -12.9401   20.3309 N   0  0  0  0  0  0
  -25.9339  -11.6548   20.5732 N   0  0  0  0  0  0
  -22.0533  -12.8152   22.0372 N   0  0  0  0  0  0
  -25.4235  -15.1945   20.4053 N   0  0  0  0  0  0
  -31.8370  -14.5843   20.0728 O   0  0  0  0  0  0
  -21.6679   -6.8868   21.4230 O   0  0  0  0  0  0
  -22.3501  -14.5498   20.6654 O   0  0  0  0  0  0
  -24.6112  -31.8706   23.2126 C   0  0  0  0  0  0
  -25.9023  -32.4848   23.8420 C   0  0  1  0  0  0
  -27.2405  -27.4929   20.0802 C   0  0  0  0  0  0
  -25.5917  -33.8633   24.2346 N   0  0  0  0  0  0
  -23.3925  -30.4947   21.5561 C   0  0  2  0  0  0
  -24.8377  -28.9659   20.1169 C   0  0  0  0  0  0
  -22.7384  -29.4649   22.5047 C   0  0  0  0  0  0
  -18.0284  -28.1382   22.8489 C   0  0  0  0  0  0
  -24.1488  -36.7307   23.2625 C   0  0  0  0  0  0
  -25.9156  -30.8575   21.3514 C   0  0  0  0  0  0
  -25.9960  -29.4956   20.7020 C   0  0  0  0  0  0
  -27.2031  -28.7690   20.6723 C   0  0  0  0  0  0
  -26.0650  -26.9575   19.5072 C   0  0  0  0  0  0
  -24.8658  -27.6967   19.5150 C   0  0  0  0  0  0
  -23.5968  -29.8262   20.1698 C   0  0  0  0  0  0
  -25.4111  -36.3102   24.0318 C   0  0  1  0  0  0
  -20.5853  -28.3638   23.1363 C   0  0  2  0  0  0
  -20.6764  -26.9378   22.5440 C   0  0  0  0  0  0
  -19.5743  -26.6386   21.5239 C   0  0  0  0  0  0
  -18.1922  -26.7924   22.1636 C   0  0  0  0  0  0
  -19.1510  -28.8839   23.2918 C   0  0  0  0  0  0
  -18.9442  -30.1456   23.8908 C   0  0  0  0  0  0
  -17.6445  -30.6585   24.0581 C   0  0  0  0  0  0
  -25.9029  -34.9484   23.5113 C   0  0  0  0  0  0
  -16.5351  -29.9083   23.6349 C   0  0  0  0  0  0
  -16.7265  -28.6515   23.0332 C   0  0  0  0  0  0
  -26.4464  -31.6599   25.0737 C   0  0  0  0  0  0
  -25.3750  -31.3646   26.1493 C   0  0  0  0  0  0
  -27.0277  -30.3084   24.5993 C   0  0  0  0  0  0
  -27.6091  -32.4286   25.7469 C   0  0  0  0  0  0
  -27.5575  -37.1806   24.8459 C   0  0  0  0  0  0
  -21.4121  -29.3010   22.3793 N   0  0  0  0  0  0
  -26.4289  -37.3811   23.9405 N   0  0  0  0  0  0
  -24.6598  -31.0847   22.1022 N   0  0  0  0  0  0
  -23.4189  -28.8205   23.3070 O   0  0  0  0  0  0
  -28.4401  -26.8288   20.0466 O   0  0  0  0  0  0
  -26.5568  -34.8926   22.4657 O   0  0  0  0  0  0
  -23.5322  -32.1431   23.7583 O   0  0  0  0  0  0
  -30.9980  -18.7115   17.7896 C   0  0  0  0  0  0
  -31.9509  -17.7554   18.0101 C   0  0  0  0  0  0
  -30.2842  -17.4535   19.4985 C   0  0  0  0  0  0
  -33.2539  -17.4739   17.3337 C   0  0  0  0  0  0
  -28.8360  -17.7797   21.6209 C   0  0  0  0  0  0
  -26.8258  -21.7147   18.9871 C   0  0  0  0  0  0
  -28.5193  -24.4776   19.4777 C   0  0  0  0  0  0
  -28.6643  -23.0772   20.0790 C   0  0  0  0  0  0
  -29.0902  -20.6538   19.5856 C   0  0  0  0  0  0
  -28.8085  -19.3760   18.7647 C   0  0  0  0  0  0
  -28.4436  -25.5221   20.5934 C   0  0  0  0  0  0
  -29.4612  -16.7815   20.6097 C   0  0  2  0  0  0
  -30.2038  -15.6597   21.4225 C   0  0  2  0  0  0
  -28.3482  -21.9207   19.1116 C   0  0  1  0  0  0
  -29.9929  -18.5117   18.7050 N   0  0  0  0  0  0
  -31.4718  -17.0155   19.0557 N   0  3  0  0  0  0
  -31.2351  -16.2421   22.0428 F   0  0  0  0  0  0
  -31.4491  -12.3538   19.1505 H   0  0  0  0  0  0
  -30.2564  -11.2870   19.8273 H   0  0  0  0  0  0
  -29.7386  -11.8478   17.4192 H   0  0  0  0  0  0
  -29.6981  -13.5462   17.8264 H   0  0  0  0  0  0
  -27.7712  -11.3652   18.7253 H   0  0  0  0  0  0
  -27.3908  -12.7706   17.7732 H   0  0  0  0  0  0
  -27.6917  -14.2734   19.5956 H   0  0  0  0  0  0
  -28.6513  -11.9780   21.3674 H   0  0  0  0  0  0
  -28.4276  -13.6122   21.8669 H   0  0  0  0  0  0
  -25.2803   -9.5671   22.4719 H   0  0  0  0  0  0
  -24.0012   -7.4664   22.7480 H   0  0  0  0  0  0
  -21.0862   -8.8811   19.8957 H   0  0  0  0  0  0
  -22.3770  -10.9659   19.6130 H   0  0  0  0  0  0
  -21.2067   -7.6141   23.9695 H   0  0  0  0  0  0
  -21.1465   -6.0504   25.9045 H   0  0  0  0  0  0
  -22.0619   -2.7589   23.2875 H   0  0  0  0  0  0
  -22.4196  -11.9793   22.4703 H   0  0  0  0  0  0
  -21.1154  -13.1152   22.2641 H   0  0  0  0  0  0
  -24.6619  -15.8536   20.5209 H   0  0  0  0  0  0
  -26.2715  -15.6376   20.0768 H   0  0  0  0  0  0
  -26.7108  -32.5561   23.1198 H   0  0  0  0  0  0
  -25.0195  -33.9837   25.0568 H   0  0  0  0  0  0
  -22.6804  -31.3125   21.4210 H   0  0  0  0  0  0
  -23.3759  -35.9641   23.3325 H   0  0  0  0  0  0
  -24.3565  -36.8891   22.2029 H   0  0  0  0  0  0
  -23.7253  -37.6513   23.6647 H   0  0  0  0  0  0
  -26.0073  -31.6251   20.5797 H   0  0  0  0  0  0
  -26.8119  -30.9178   21.9565 H   0  0  0  0  0  0
  -28.1059  -29.1833   21.0994 H   0  0  0  0  0  0
  -26.0653  -25.9899   19.0298 H   0  0  0  0  0  0
  -23.9771  -27.2837   19.0597 H   0  0  0  0  0  0
  -23.6962  -30.6027   19.4104 H   0  0  0  0  0  0
  -22.7230  -29.2408   19.8758 H   0  0  0  0  0  0
  -25.1289  -36.1957   25.0818 H   0  0  0  0  0  0
  -20.9949  -28.3177   24.1474 H   0  0  0  0  0  0
  -20.5726  -26.2208   23.3597 H   0  0  0  0  0  0
  -21.6629  -26.7454   22.1187 H   0  0  0  0  0  0
  -19.6901  -25.6301   21.1251 H   0  0  0  0  0  0
  -19.6715  -27.3225   20.6797 H   0  0  0  0  0  0
  -17.4202  -26.6728   21.4028 H   0  0  0  0  0  0
  -18.0281  -26.0050   22.9009 H   0  0  0  0  0  0
  -19.7916  -30.7296   24.2251 H   0  0  0  0  0  0
  -17.4987  -31.6255   24.5177 H   0  0  0  0  0  0
  -15.5334  -30.2995   23.7642 H   0  0  0  0  0  0
  -15.8667  -28.0864   22.6999 H   0  0  0  0  0  0
  -24.5944  -30.6990   25.7789 H   0  0  0  0  0  0
  -24.8919  -32.2765   26.5030 H   0  0  0  0  0  0
  -25.8103  -30.8739   27.0201 H   0  0  0  0  0  0
  -26.2778  -29.6922   24.1025 H   0  0  0  0  0  0
  -27.4087  -29.7234   25.4361 H   0  0  0  0  0  0
  -27.8601  -30.4479   23.9086 H   0  0  0  0  0  0
  -27.2782  -33.3605   26.2067 H   0  0  0  0  0  0
  -28.3851  -32.6816   25.0232 H   0  0  0  0  0  0
  -28.0801  -31.8379   26.5326 H   0  0  0  0  0  0
  -28.2579  -38.0122   24.7525 H   0  0  0  0  0  0
  -28.1078  -36.2647   24.6265 H   0  0  0  0  0  0
  -27.2265  -37.1387   25.8853 H   0  0  0  0  0  0
  -20.9293  -29.8721   21.7006 H   0  0  0  0  0  0
  -26.0160  -38.2868   24.1504 H   0  0  0  0  0  0
  -30.9611  -19.5113   17.0593 H   0  0  0  0  0  0
  -33.3061  -16.4412   16.9887 H   0  0  0  0  0  0
  -34.0832  -17.6521   18.0179 H   0  0  0  0  0  0
  -33.3745  -18.1246   16.4687 H   0  0  0  0  0  0
  -28.0421  -18.3852   21.1922 H   0  0  0  0  0  0
  -29.5822  -18.4526   22.0439 H   0  0  0  0  0  0
  -28.3687  -17.2512   22.4554 H   0  0  0  0  0  0
  -26.3510  -22.5650   18.4996 H   0  0  0  0  0  0
  -26.3529  -21.6015   19.9638 H   0  0  0  0  0  0
  -26.5830  -20.8332   18.3932 H   0  0  0  0  0  0
  -27.6359  -24.5335   18.8469 H   0  0  0  0  0  0
  -29.3686  -24.6971   18.8270 H   0  0  0  0  0  0
  -28.0190  -22.9867   20.9548 H   0  0  0  0  0  0
  -29.6821  -22.9904   20.4644 H   0  0  0  0  0  0
  -30.1606  -20.8715   19.5368 H   0  0  0  0  0  0
  -28.8838  -20.4741   20.6400 H   0  0  0  0  0  0
  -28.5683  -19.6492   17.7358 H   0  0  0  0  0  0
  -27.9495  -18.8144   19.1254 H   0  0  0  0  0  0
  -29.3187  -25.4374   21.2397 H   0  0  0  0  0  0
  -27.5735  -25.3396   21.2272 H   0  0  0  0  0  0
  -28.6295  -16.3177   20.0811 H   0  0  0  0  0  0
  -29.5831  -15.3104   22.2436 H   0  0  0  0  0  0
  -28.7342  -22.1810   18.1226 H   0  0  0  0  0  0
  -31.9293  -16.1783   19.4282 H   0  0  0  0  0  0
  1 25  1  0  0  0
  1 30  2  0  0  0
  1 83  1  0  0  0
  2  3  1  0  0  0
  2 25  1  0  0  0
  2 88  1  0  0  0
  2 89  1  0  0  0
  3  4  1  0  0  0
  3 90  1  0  0  0
  3 91  1  0  0  0
  4  5  1  0  0  0
  4 92  1  0  0  0
  4 93  1  0  0  0
  5  6  1  0  0  0
  5 26  1  0  0  0
  5 94  1  0  0  0
  6 25  1  0  0  0
  6 95  1  0  0  0
  6 96  1  0  0  0
  7  8  2  0  0  0
  7 26  1  0  0  0
  7 29  1  0  0  0
  8  9  1  0  0  0
  8 22  1  0  0  0
  9 10  1  0  0  0
  9 27  2  0  0  0
 10 11  2  0  0  0
 10 15  1  0  0  0
 11 12  1  0  0  0
 11 97  1  0  0  0
 12 13  2  0  0  0
 12 98  1  0  0  0
 13 14  1  0  0  0
 13 31  1  0  0  0
 14 15  2  0  0  0
 14 99  1  0  0  0
 15100  1  0  0  0
 16 17  2  0  0  0
 16 21  1  0  0  0
 16 31  1  0  0  0
 17 18  1  0  0  0
 17101  1  0  0  0
 18 19  2  0  0  0
 18102  1  0  0  0
 19 20  1  0  0  0
 19 24  1  0  0  0
 20 21  2  0  0  0
 20103  1  0  0  0
 21 23  1  0  0  0
 22 28  1  0  0  0
 22 32  2  0  0  0
 26 27  1  0  0  0
 28104  1  0  0  0
 28105  1  0  0  0
 29106  1  0  0  0
 29107  1  0  0  0
 33 34  1  0  0  0
 33 66  1  0  0  0
 33 70  2  0  0  0
 34 36  1  0  0  0
 34 59  1  0  0  0
 34108  1  0  0  0
 35 44  2  0  0  0
 35 45  1  0  0  0
 35 68  1  0  0  0
 36 56  1  0  0  0
 36109  1  0  0  0
 37 39  1  0  0  0
 37 47  1  0  0  0
 37 66  1  0  0  0
 37110  1  0  0  0
 38 43  2  0  0  0
 38 46  1  0  0  0
 38 47  1  0  0  0
 39 64  1  0  0  0
 39 67  2  0  0  0
 40 52  1  0  0  0
 40 53  2  0  0  0
 40 58  1  0  0  0
 41111  1  0  0  0
 41112  1  0  0  0
 41113  1  0  0  0
 41 48  1  0  0  0
 42 43  1  0  0  0
 42 66  1  0  0  0
 42114  1  0  0  0
 42115  1  0  0  0
 43 44  1  0  0  0
 44116  1  0  0  0
 45 46  2  0  0  0
 45117  1  0  0  0
 46118  1  0  0  0
 47119  1  0  0  0
 47120  1  0  0  0
 48 56  1  0  0  0
 48 65  1  0  0  0
 48121  1  0  0  0
 49 50  1  0  0  0
 49 53  1  0  0  0
 49 64  1  0  0  0
 49122  1  0  0  0
 50 51  1  0  0  0
 50123  1  0  0  0
 50124  1  0  0  0
 51 52  1  0  0  0
 51125  1  0  0  0
 51126  1  0  0  0
 52127  1  0  0  0
 52128  1  0  0  0
 53 54  1  0  0  0
 54 55  2  0  0  0
 54129  1  0  0  0
 55 57  1  0  0  0
 55130  1  0  0  0
 56 69  2  0  0  0
 57 58  2  0  0  0
 57131  1  0  0  0
 58132  1  0  0  0
 59 60  1  0  0  0
 59 61  1  0  0  0
 59 62  1  0  0  0
 60133  1  0  0  0
 60134  1  0  0  0
 60135  1  0  0  0
 61136  1  0  0  0
 61137  1  0  0  0
 61138  1  0  0  0
 62139  1  0  0  0
 62140  1  0  0  0
 62141  1  0  0  0
 63 65  1  0  0  0
 63142  1  0  0  0
 63143  1  0  0  0
 63144  1  0  0  0
 64145  1  0  0  0
 65146  1  0  0  0
 68 81  1  0  0  0
 71 72  2  0  0  0
 71 85  1  0  0  0
 71147  1  0  0  0
 72 74  1  0  0  0
 72 86  1  0  0  0
 73 82  1  0  0  0
 73 85  1  0  0  0
 73 86  2  0  0  0
 74148  1  0  0  0
 74149  1  0  0  0
 74150  1  0  0  0
 75151  1  0  0  0
 75152  1  0  0  0
 75153  1  0  0  0
 75 82  1  0  0  0
 76154  1  0  0  0
 76155  1  0  0  0
 76156  1  0  0  0
 76 84  1  0  0  0
 77 78  1  0  0  0
 77 81  1  0  0  0
 77157  1  0  0  0
 77158  1  0  0  0
 78 84  1  0  0  0
 78159  1  0  0  0
 78160  1  0  0  0
 79 80  1  0  0  0
 79 84  1  0  0  0
 79161  1  0  0  0
 79162  1  0  0  0
 80 85  1  0  0  0
 80163  1  0  0  0
 80164  1  0  0  0
 81165  1  0  0  0
 81166  1  0  0  0
 82 83  1  0  0  0
 82167  1  0  0  0
 83 87  1  0  0  0
 83168  1  0  0  0
 84169  1  0  0  0
 86170  1  0  0  0
M  CHG  1  86   1
M  ISO  4   1 100  68 101  81 101  83 100
M  END
> <chiral flag>
0

> <version>
0

> <s_m_source_file>
/data/baiqing/PycharmProjects/Reinvent-master-3.2/result/LINK_invent/BTK/process_docking_weight1_custom_sum_contain_oxygen_bond_distance_aromatic_linkinvent_7_9_3/rearranged_h_0076.sdf

> <i_m_source_file_index>
66

> <r_mmod_Potential_Energy-OPLS-2005>
-5.59863185882568

> <r_mmod_Stretch_Energy-OPLS-2005>
37.6976852416992

> <r_mmod_Bend_Energy-OPLS-2005>
110.948738098145

> <r_mmod_Torsional_Energy-OPLS-2005>
239.689331054688

> <r_mmod_Improper_Torsional_Energy-OPLS-2005>
2.17688393592834

> <r_mmod_Van_der_Waal_Energy-OPLS-2005>
141.118682861328

> <r_mmod_Electrostatic_Energy-OPLS-2005>
-186.323333740234

> <r_mmod_Solvation_Energy-OPLS-2005>
-361.628051757812

> <b_mmod_Minimization_Converged-OPLS-2005>
0

> <r_mmod_RMS_Derivative-OPLS-2005>
4.66884899139404

$$$$
66
                    3D
 Structure written by MMmdl.
170178  0  0  1  0            999 V2000
  -30.6027  -14.9335   20.2600 C   0  0  0  0  0  0
  -30.4436  -12.5494   19.4772 C   0  0  0  0  0  0
  -29.5192  -12.3601   18.2555 C   0  0  0  0  0  0
  -28.0452  -12.1998   18.6876 C   0  0  0  0  0  0
  -27.6097  -13.1748   19.8091 C   0  0  2  0  0  0
  -28.6740  -13.3455   20.9120 C   0  0  0  0  0  0
  -25.2521  -13.8025   20.5790 C   0  0  0  0  0  0
  -24.1763  -13.0360   20.9292 C   0  0  0  0  0  0
  -24.6285  -11.6814   20.8858 C   0  0  0  0  0  0
  -23.8965  -10.4239   21.0480 C   0  0  0  0  0  0
  -24.3554   -9.4152   21.9229 C   0  0  0  0  0  0
  -23.6250   -8.2183   22.0761 C   0  0  0  0  0  0
  -22.4235   -8.0242   21.3540 C   0  0  0  0  0  0
  -21.9867   -9.0213   20.4645 C   0  0  0  0  0  0
  -22.7173  -10.2101   20.3085 C   0  0  0  0  0  0
  -21.6822   -6.0715   22.5270 C   0  0  0  0  0  0
  -21.3988   -6.5622   23.8204 C   0  0  0  0  0  0
  -21.3660   -5.6777   24.9170 C   0  0  0  0  0  0
  -21.6052   -4.3042   24.7218 C   0  0  0  0  0  0
  -21.8820   -3.8132   23.4337 C   0  0  0  0  0  0
  -21.9181   -4.6949   22.3394 C   0  0  0  0  0  0
  -22.7802  -13.5212   21.1895 C   0  0  0  0  0  0
  -22.1657   -4.2142   21.0971 F   0  0  0  0  0  0
  -21.5648   -3.4526   25.7733 F   0  0  0  0  0  0
  -29.9441  -13.7053   20.2638 N   0  0  0  0  0  0
  -26.2824  -12.9065   20.3309 N   0  0  0  0  0  0
  -25.9186  -11.6298   20.5888 N   0  0  0  0  0  0
  -22.0401  -12.8236   22.0439 N   0  0  0  0  0  0
  -25.4289  -15.1752   20.4209 N   0  0  0  0  0  0
  -31.8246  -14.8550   20.4141 O   0  0  0  0  0  0
  -21.6601   -6.8846   21.4228 O   0  0  0  0  0  0
  -22.3535  -14.5520   20.6705 O   0  0  0  0  0  0
  -24.6346  -31.8515   23.1959 C   0  0  0  0  0  0
  -25.9160  -32.4731   23.8316 C   0  0  1  0  0  0
  -27.2240  -27.2269   20.1527 C   0  0  0  0  0  0
  -25.5948  -33.8533   24.2240 N   0  0  0  0  0  0
  -23.4337  -30.4723   21.5394 C   0  0  2  0  0  0
  -24.8840  -28.9096   20.1152 C   0  0  0  0  0  0
  -22.7517  -29.4583   22.4898 C   0  0  0  0  0  0
  -18.0295  -28.1384   22.8479 C   0  0  0  0  0  0
  -24.1484  -36.7272   23.2634 C   0  0  0  0  0  0
  -25.9813  -30.7552   21.3798 C   0  0  0  0  0  0
  -26.0563  -29.3726   20.7269 C   0  0  0  0  0  0
  -27.2305  -28.5462   20.7300 C   0  0  0  0  0  0
  -26.0312  -26.8403   19.5046 C   0  0  0  0  0  0
  -24.8780  -27.6523   19.4908 C   0  0  0  0  0  0
  -23.6557  -29.8018   20.1578 C   0  0  0  0  0  0
  -25.4108  -36.3050   24.0318 C   0  0  1  0  0  0
  -20.5901  -28.3700   23.1254 C   0  0  2  0  0  0
  -20.6784  -26.9414   22.5404 C   0  0  0  0  0  0
  -19.5762  -26.6383   21.5206 C   0  0  0  0  0  0
  -18.1941  -26.7928   22.1614 C   0  0  0  0  0  0
  -19.1549  -28.8861   23.2860 C   0  0  0  0  0  0
  -18.9471  -30.1460   23.8879 C   0  0  0  0  0  0
  -17.6470  -30.6588   24.0556 C   0  0  0  0  0  0
  -25.9058  -34.9423   23.5083 C   0  0  0  0  0  0
  -16.5360  -29.9081   23.6334 C   0  0  0  0  0  0
  -16.7281  -28.6498   23.0355 C   0  0  0  0  0  0
  -26.4521  -31.6565   25.0716 C   0  0  0  0  0  0
  -25.3728  -31.3723   26.1425 C   0  0  0  0  0  0
  -27.0385  -30.2978   24.6229 C   0  0  0  0  0  0
  -27.6061  -32.4320   25.7500 C   0  0  0  0  0  0
  -27.5582  -37.1776   24.8454 C   0  0  0  0  0  0
  -21.4220  -29.3040   22.3638 N   0  0  0  0  0  0
  -26.4273  -37.3763   23.9421 N   0  0  0  0  0  0
  -24.7024  -31.0450   22.0952 N   0  0  0  0  0  0
  -23.4193  -28.8126   23.3018 O   0  0  0  0  0  0
  -28.3106  -26.3107   20.1750 O   0  0  0  0  0  0
  -26.5634  -34.8909   22.4654 O   0  0  0  0  0  0
  -23.5487  -32.1358   23.7234 O   0  0  0  0  0  0
  -30.5939  -18.7421   20.7602 C   0  0  0  0  0  0
  -29.6959  -17.7863   20.1832 C   0  0  0  0  0  0
  -29.1095  -20.6368   20.4911 C   0  0  0  0  0  0
  -28.2043  -19.6968   19.8736 C   0  0  0  0  0  0
  -31.1009  -17.8271   17.4849 C   0  0  0  0  0  0
  -28.8956  -15.9931   18.5672 C   0  0  0  0  0  0
  -26.5745  -21.4643   18.8359 C   0  0  0  0  0  0
  -25.7344  -19.6711   20.3805 C   0  0  0  0  0  0
  -26.5070  -19.1573   18.0436 C   0  0  0  0  0  0
  -28.7333  -22.1391   20.9705 C   0  0  0  0  0  0
  -31.2626  -16.6707   18.5029 C   0  0  0  0  0  0
  -28.9059  -23.5506   20.1462 C   0  0  0  0  0  0
  -28.0797  -24.8817   20.6427 C   0  0  0  0  0  0
  -30.0829  -16.3411   19.4976 C   0  0  2  0  0  0
  -26.7876  -20.0101   19.3113 C   0  0  0  0  0  0
  -30.3023  -20.0950   20.9278 N   0  0  0  0  0  0
  -28.5053  -18.3513   19.7941 N   0  0  0  0  0  0
  -31.4698  -12.7020   19.1377 H   0  0  0  0  0  0
  -30.4617  -11.6511   20.0955 H   0  0  0  0  0  0
  -29.8275  -11.4653   17.7128 H   0  0  0  0  0  0
  -29.6444  -13.1669   17.5388 H   0  0  0  0  0  0
  -27.9331  -11.1755   19.0454 H   0  0  0  0  0  0
  -27.3831  -12.2891   17.8257 H   0  0  0  0  0  0
  -27.4767  -14.0951   19.2821 H   0  0  0  0  0  0
  -28.7833  -12.4304   21.4958 H   0  0  0  0  0  0
  -28.3752  -14.1294   21.6097 H   0  0  0  0  0  0
  -25.2698   -9.5637   22.4803 H   0  0  0  0  0  0
  -23.9967   -7.4562   22.7459 H   0  0  0  0  0  0
  -21.0811   -8.8723   19.8935 H   0  0  0  0  0  0
  -22.3641  -10.9655   19.6204 H   0  0  0  0  0  0
  -21.1962   -7.6126   23.9712 H   0  0  0  0  0  0
  -21.1496   -6.0501   25.9077 H   0  0  0  0  0  0
  -22.0605   -2.7595   23.2824 H   0  0  0  0  0  0
  -22.3974  -11.9897   22.4864 H   0  0  0  0  0  0
  -21.1017  -13.1288   22.2598 H   0  0  0  0  0  0
  -24.6686  -15.8327   20.5523 H   0  0  0  0  0  0
  -26.2929  -15.6211   20.1406 H   0  0  0  0  0  0
  -26.7223  -32.5376   23.1050 H   0  0  0  0  0  0
  -25.0085  -33.9662   25.0381 H   0  0  0  0  0  0
  -22.7313  -31.2950   21.3894 H   0  0  0  0  0  0
  -23.3757  -35.9593   23.3258 H   0  0  0  0  0  0
  -24.3583  -36.8947   22.2061 H   0  0  0  0  0  0
  -23.7226  -37.6450   23.6693 H   0  0  0  0  0  0
  -26.1203  -31.5110   20.6057 H   0  0  0  0  0  0
  -26.8587  -30.8097   22.0130 H   0  0  0  0  0  0
  -28.1275  -28.8966   21.2205 H   0  0  0  0  0  0
  -25.9788  -25.8802   19.0113 H   0  0  0  0  0  0
  -23.9828  -27.2930   19.0022 H   0  0  0  0  0  0
  -23.7840  -30.5768   19.4010 H   0  0  0  0  0  0
  -22.7733  -29.2375   19.8510 H   0  0  0  0  0  0
  -25.1286  -36.1880   25.0808 H   0  0  0  0  0  0
  -20.9988  -28.3287   24.1376 H   0  0  0  0  0  0
  -20.5687  -26.2308   23.3608 H   0  0  0  0  0  0
  -21.6651  -26.7438   22.1199 H   0  0  0  0  0  0
  -19.6923  -25.6291   21.1246 H   0  0  0  0  0  0
  -19.6704  -27.3179   20.6725 H   0  0  0  0  0  0
  -17.4212  -26.6672   21.4014 H   0  0  0  0  0  0
  -18.0334  -26.0068   22.9008 H   0  0  0  0  0  0
  -19.7948  -30.7277   24.2241 H   0  0  0  0  0  0
  -17.5028  -31.6266   24.5161 H   0  0  0  0  0  0
  -15.5360  -30.2978   23.7677 H   0  0  0  0  0  0
  -15.8677  -28.0817   22.7077 H   0  0  0  0  0  0
  -24.5923  -30.7048   25.7754 H   0  0  0  0  0  0
  -24.8888  -32.2889   26.4800 H   0  0  0  0  0  0
  -25.8034  -30.8944   27.0232 H   0  0  0  0  0  0
  -26.2988  -29.6696   24.1250 H   0  0  0  0  0  0
  -27.4057  -29.7266   25.4766 H   0  0  0  0  0  0
  -27.8864  -30.4247   23.9495 H   0  0  0  0  0  0
  -27.2669  -33.3643   26.2024 H   0  0  0  0  0  0
  -28.3902  -32.6840   25.0350 H   0  0  0  0  0  0
  -28.0687  -31.8475   26.5462 H   0  0  0  0  0  0
  -28.2543  -38.0130   24.7573 H   0  0  0  0  0  0
  -28.1141  -36.2662   24.6190 H   0  0  0  0  0  0
  -27.2314  -37.1315   25.8859 H   0  0  0  0  0  0
  -20.9410  -29.8762   21.6843 H   0  0  0  0  0  0
  -26.0143  -38.2821   24.1476 H   0  0  0  0  0  0
  -31.5984  -18.4428   21.0207 H   0  0  0  0  0  0
  -32.0424  -17.9966   16.9623 H   0  0  0  0  0  0
  -30.8280  -18.7710   17.9556 H   0  0  0  0  0  0
  -30.3630  -17.6092   16.7138 H   0  0  0  0  0  0
  -28.7340  -16.7280   17.7827 H   0  0  0  0  0  0
  -27.9656  -16.0045   19.1262 H   0  0  0  0  0  0
  -29.0138  -15.0545   18.0475 H   0  0  0  0  0  0
  -26.4882  -22.1814   19.6449 H   0  0  0  0  0  0
  -25.6357  -21.5646   18.2894 H   0  0  0  0  0  0
  -27.3668  -21.7800   18.1577 H   0  0  0  0  0  0
  -25.8665  -20.2831   21.2727 H   0  0  0  0  0  0
  -25.8040  -18.6266   20.6872 H   0  0  0  0  0  0
  -24.7215  -19.8376   20.0122 H   0  0  0  0  0  0
  -27.2634  -19.3309   17.2766 H   0  0  0  0  0  0
  -25.5371  -19.3886   17.6023 H   0  0  0  0  0  0
  -26.4934  -18.0878   18.2540 H   0  0  0  0  0  0
  -29.2985  -22.2830   21.8911 H   0  0  0  0  0  0
  -27.7139  -22.0861   21.3477 H   0  0  0  0  0  0
  -32.1488  -16.9211   19.0876 H   0  0  0  0  0  0
  -31.5329  -15.7751   17.9396 H   0  0  0  0  0  0
  -28.6461  -23.3852   19.1029 H   0  0  0  0  0  0
  -29.9686  -23.7917   20.1311 H   0  0  0  0  0  0
  -28.2194  -24.9343   21.7231 H   0  0  0  0  0  0
  -27.0238  -24.6348   20.5354 H   0  0  0  0  0  0
  1 25  1  0  0  0
  1 30  2  0  0  0
  1 84  1  0  0  0
  2  3  1  0  0  0
  2 25  1  0  0  0
  2 88  1  0  0  0
  2 89  1  0  0  0
  3  4  1  0  0  0
  3 90  1  0  0  0
  3 91  1  0  0  0
  4  5  1  0  0  0
  4 92  1  0  0  0
  4 93  1  0  0  0
  5  6  1  0  0  0
  5 26  1  0  0  0
  5 94  1  0  0  0
  6 25  1  0  0  0
  6 95  1  0  0  0
  6 96  1  0  0  0
  7  8  2  0  0  0
  7 26  1  0  0  0
  7 29  1  0  0  0
  8  9  1  0  0  0
  8 22  1  0  0  0
  9 10  1  0  0  0
  9 27  2  0  0  0
 10 11  2  0  0  0
 10 15  1  0  0  0
 11 12  1  0  0  0
 11 97  1  0  0  0
 12 13  2  0  0  0
 12 98  1  0  0  0
 13 14  1  0  0  0
 13 31  1  0  0  0
 14 15  2  0  0  0
 14 99  1  0  0  0
 15100  1  0  0  0
 16 17  2  0  0  0
 16 21  1  0  0  0
 16 31  1  0  0  0
 17 18  1  0  0  0
 17101  1  0  0  0
 18 19  2  0  0  0
 18102  1  0  0  0
 19 20  1  0  0  0
 19 24  1  0  0  0
 20 21  2  0  0  0
 20103  1  0  0  0
 21 23  1  0  0  0
 22 28  1  0  0  0
 22 32  2  0  0  0
 26 27  1  0  0  0
 28104  1  0  0  0
 28105  1  0  0  0
 29106  1  0  0  0
 29107  1  0  0  0
 33 34  1  0  0  0
 33 66  1  0  0  0
 33 70  2  0  0  0
 34 36  1  0  0  0
 34 59  1  0  0  0
 34108  1  0  0  0
 35 44  2  0  0  0
 35 45  1  0  0  0
 35 68  1  0  0  0
 36 56  1  0  0  0
 36109  1  0  0  0
 37 39  1  0  0  0
 37 47  1  0  0  0
 37 66  1  0  0  0
 37110  1  0  0  0
 38 43  2  0  0  0
 38 46  1  0  0  0
 38 47  1  0  0  0
 39 64  1  0  0  0
 39 67  2  0  0  0
 40 52  1  0  0  0
 40 53  2  0  0  0
 40 58  1  0  0  0
 41111  1  0  0  0
 41112  1  0  0  0
 41113  1  0  0  0
 41 48  1  0  0  0
 42 43  1  0  0  0
 42 66  1  0  0  0
 42114  1  0  0  0
 42115  1  0  0  0
 43 44  1  0  0  0
 44116  1  0  0  0
 45 46  2  0  0  0
 45117  1  0  0  0
 46118  1  0  0  0
 47119  1  0  0  0
 47120  1  0  0  0
 48 56  1  0  0  0
 48 65  1  0  0  0
 48121  1  0  0  0
 49 50  1  0  0  0
 49 53  1  0  0  0
 49 64  1  0  0  0
 49122  1  0  0  0
 50 51  1  0  0  0
 50123  1  0  0  0
 50124  1  0  0  0
 51 52  1  0  0  0
 51125  1  0  0  0
 51126  1  0  0  0
 52127  1  0  0  0
 52128  1  0  0  0
 53 54  1  0  0  0
 54 55  2  0  0  0
 54129  1  0  0  0
 55 57  1  0  0  0
 55130  1  0  0  0
 56 69  2  0  0  0
 57 58  2  0  0  0
 57131  1  0  0  0
 58132  1  0  0  0
 59 60  1  0  0  0
 59 61  1  0  0  0
 59 62  1  0  0  0
 60133  1  0  0  0
 60134  1  0  0  0
 60135  1  0  0  0
 61136  1  0  0  0
 61137  1  0  0  0
 61138  1  0  0  0
 62139  1  0  0  0
 62140  1  0  0  0
 62141  1  0  0  0
 63 65  1  0  0  0
 63142  1  0  0  0
 63143  1  0  0  0
 63144  1  0  0  0
 64145  1  0  0  0
 65146  1  0  0  0
 68 83  1  0  0  0
 71 72  2  0  0  0
 71 86  1  0  0  0
 71147  1  0  0  0
 72 84  1  0  0  0
 72 87  1  0  0  0
 73 74  1  0  0  0
 73 80  1  0  0  0
 73 86  2  0  0  0
 74 85  1  0  0  0
 74 87  2  0  0  0
 75 81  1  0  0  0
 75148  1  0  0  0
 75149  1  0  0  0
 75150  1  0  0  0
 76151  1  0  0  0
 76152  1  0  0  0
 76153  1  0  0  0
 76 84  1  0  0  0
 77154  1  0  0  0
 77155  1  0  0  0
 77156  1  0  0  0
 77 85  1  0  0  0
 78 85  1  0  0  0
 78157  1  0  0  0
 78158  1  0  0  0
 78159  1  0  0  0
 79 85  1  0  0  0
 79160  1  0  0  0
 79161  1  0  0  0
 79162  1  0  0  0
 80 82  1  0  0  0
 80163  1  0  0  0
 80164  1  0  0  0
 81 84  1  0  0  0
 81165  1  0  0  0
 81166  1  0  0  0
 82 83  1  0  0  0
 82167  1  0  0  0
 82168  1  0  0  0
 83169  1  0  0  0
 83170  1  0  0  0
M  ISO  4   1 100  68 101  83 101  84 100
M  END
> <chiral flag>
0

> <version>
0

> <s_m_source_file>
/data/baiqing/PycharmProjects/Reinvent-master-3.2/result/LINK_invent/BTK/process_docking_weight1_custom_sum_contain_oxygen_bond_distance_aromatic_linkinvent_7_9_3/rearranged_h_0076.sdf

> <i_m_source_file_index>
67

> <r_mmod_Potential_Energy-OPLS-2005>
696.795776367188

> <r_mmod_Stretch_Energy-OPLS-2005>
199.807495117188

> <r_mmod_Bend_Energy-OPLS-2005>
283.868255615234

> <r_mmod_Torsional_Energy-OPLS-2005>
264.791442871094

> <r_mmod_Improper_Torsional_Energy-OPLS-2005>
23.86328125

> <r_mmod_Van_der_Waal_Energy-OPLS-2005>
175.415298461914

> <r_mmod_Electrostatic_Energy-OPLS-2005>
-248.627410888672

> <r_mmod_Solvation_Energy-OPLS-2005>
-184.857467651367

> <b_mmod_Minimization_Converged-OPLS-2005>
0

> <r_mmod_RMS_Derivative-OPLS-2005>
1.12598121166229

$$$$
67
                    3D
 Structure written by MMmdl.
159167  0  0  1  0            999 V2000
  -30.5633  -14.7615   20.4858 C   0  0  0  0  0  0
  -30.4514  -12.4718   19.4642 C   0  0  0  0  0  0
  -29.5174  -12.5341   18.2319 C   0  0  0  0  0  0
  -28.0376  -12.3541   18.6358 C   0  0  0  0  0  0
  -27.6500  -13.2196   19.8643 C   0  0  2  0  0  0
  -28.7012  -13.0587   20.9822 C   0  0  0  0  0  0
  -25.2510  -13.8151   20.5629 C   0  0  0  0  0  0
  -24.1807  -13.0413   20.9192 C   0  0  0  0  0  0
  -24.6397  -11.6893   20.8747 C   0  0  0  0  0  0
  -23.9066  -10.4278   21.0410 C   0  0  0  0  0  0
  -24.3619   -9.4198   21.9190 C   0  0  0  0  0  0
  -23.6292   -8.2234   22.0756 C   0  0  0  0  0  0
  -22.4274   -8.0273   21.3546 C   0  0  0  0  0  0
  -21.9909   -9.0245   20.4648 C   0  0  0  0  0  0
  -22.7238  -10.2124   20.3058 C   0  0  0  0  0  0
  -21.6852   -6.0736   22.5281 C   0  0  0  0  0  0
  -21.4012   -6.5642   23.8215 C   0  0  0  0  0  0
  -21.3658   -5.6791   24.9175 C   0  0  0  0  0  0
  -21.6045   -4.3053   24.7225 C   0  0  0  0  0  0
  -21.8818   -3.8148   23.4346 C   0  0  0  0  0  0
  -21.9194   -4.6965   22.3403 C   0  0  0  0  0  0
  -22.7832  -13.5213   21.1853 C   0  0  0  0  0  0
  -22.1660   -4.2150   21.0981 F   0  0  0  0  0  0
  -21.5632   -3.4537   25.7739 F   0  0  0  0  0  0
  -29.9899  -13.4996   20.4318 N   0  0  0  0  0  0
  -26.2968  -12.9348   20.3319 N   0  0  0  0  0  0
  -25.9330  -11.6501   20.5771 N   0  0  0  0  0  0
  -22.0470  -12.8211   22.0415 N   0  0  0  0  0  0
  -25.4117  -15.1863   20.3921 N   0  0  0  0  0  0
  -31.7500  -14.8454   20.1440 O   0  0  0  0  0  0
  -21.6636   -6.8874   21.4241 O   0  0  0  0  0  0
  -22.3517  -14.5518   20.6699 O   0  0  0  0  0  0
  -24.6289  -31.8562   23.1977 C   0  0  0  0  0  0
  -25.9119  -32.4760   23.8331 C   0  0  1  0  0  0
  -27.2323  -27.2821   20.1445 C   0  0  0  0  0  0
  -25.5916  -33.8562   24.2260 N   0  0  0  0  0  0
  -23.4250  -30.4751   21.5404 C   0  0  2  0  0  0
  -24.8740  -28.9090   20.1247 C   0  0  0  0  0  0
  -22.7489  -29.4602   22.4932 C   0  0  0  0  0  0
  -18.0283  -28.1387   22.8480 C   0  0  0  0  0  0
  -24.1489  -36.7295   23.2641 C   0  0  0  0  0  0
  -25.9669  -30.7756   21.3718 C   0  0  0  0  0  0
  -26.0419  -29.3928   20.7285 C   0  0  0  0  0  0
  -27.2259  -28.5929   20.7215 C   0  0  0  0  0  0
  -26.0451  -26.8486   19.5245 C   0  0  0  0  0  0
  -24.8780  -27.6426   19.5139 C   0  0  0  0  0  0
  -23.6439  -29.7962   20.1614 C   0  0  0  0  0  0
  -25.4111  -36.3080   24.0329 C   0  0  1  0  0  0
  -20.5885  -28.3690   23.1280 C   0  0  2  0  0  0
  -20.6766  -26.9409   22.5413 C   0  0  0  0  0  0
  -19.5743  -26.6379   21.5212 C   0  0  0  0  0  0
  -18.1921  -26.7930   22.1619 C   0  0  0  0  0  0
  -19.1536  -28.8852   23.2873 C   0  0  0  0  0  0
  -18.9460  -30.1456   23.8891 C   0  0  0  0  0  0
  -17.6460  -30.6587   24.0560 C   0  0  0  0  0  0
  -25.9049  -34.9448   23.5103 C   0  0  0  0  0  0
  -16.5349  -29.9090   23.6329 C   0  0  0  0  0  0
  -16.7269  -28.6508   23.0345 C   0  0  0  0  0  0
  -26.4497  -31.6577   25.0718 C   0  0  0  0  0  0
  -25.3725  -31.3711   26.1443 C   0  0  0  0  0  0
  -27.0349  -30.3000   24.6185 C   0  0  0  0  0  0
  -27.6057  -32.4315   25.7486 C   0  0  0  0  0  0
  -27.5575  -37.1799   24.8466 C   0  0  0  0  0  0
  -21.4197  -29.3046   22.3682 N   0  0  0  0  0  0
  -26.4287  -37.3774   23.9411 N   0  0  0  0  0  0
  -24.6925  -31.0545   22.0933 N   0  0  0  0  0  0
  -23.4202  -28.8148   23.3026 O   0  0  0  0  0  0
  -28.3787  -26.4773   20.0470 O   0  0  0  0  0  0
  -26.5635  -34.8928   22.4681 O   0  0  0  0  0  0
  -23.5445  -32.1374   23.7284 O   0  0  0  0  0  0
  -31.2149  -19.4614   21.2418 C   0  0  0  0  0  0
  -30.5397  -17.4733   20.9480 C   0  0  0  0  0  0
  -28.6806  -16.1017   21.8293 C   0  0  0  0  0  0
  -26.6620  -23.4485   20.8217 C   0  0  0  0  0  0
  -28.4262  -20.9209   20.4974 C   0  0  0  0  0  0
  -29.0230  -22.4218   20.3526 C   0  0  0  0  0  0
  -29.0879  -19.5384   19.9507 C   0  0  0  0  0  0
  -28.5451  -25.1643   20.7381 C   0  0  0  0  0  0
  -29.7199  -16.1543   20.6918 C   0  0  2  0  0  0
  -28.0429  -23.7239   20.1972 C   0  0  2  0  0  0
  -32.1305  -18.6986   21.8336 N   0  0  0  0  0  0
  -31.6787  -17.4140   21.6661 N   0  0  0  0  0  0
  -30.1772  -18.8119   20.6911 N   0  0  0  0  0  0
  -31.4857  -12.6259   19.1541 H   0  0  0  0  0  0
  -30.4311  -11.4777   19.9131 H   0  0  0  0  0  0
  -29.8025  -11.7749   17.5024 H   0  0  0  0  0  0
  -29.6421  -13.4969   17.7340 H   0  0  0  0  0  0
  -27.8836  -11.2989   18.8651 H   0  0  0  0  0  0
  -27.3856  -12.5803   17.7918 H   0  0  0  0  0  0
  -27.6651  -14.2562   19.5293 H   0  0  0  0  0  0
  -28.7575  -12.0097   21.2772 H   0  0  0  0  0  0
  -28.4413  -13.5625   21.9076 H   0  0  0  0  0  0
  -25.2762   -9.5678   22.4769 H   0  0  0  0  0  0
  -24.0004   -7.4625   22.7472 H   0  0  0  0  0  0
  -21.0843   -8.8765   19.8948 H   0  0  0  0  0  0
  -22.3698  -10.9667   19.6170 H   0  0  0  0  0  0
  -21.1998   -7.6148   23.9720 H   0  0  0  0  0  0
  -21.1484   -6.0520   25.9079 H   0  0  0  0  0  0
  -22.0600   -2.7609   23.2846 H   0  0  0  0  0  0
  -22.4080  -11.9879   22.4816 H   0  0  0  0  0  0
  -21.1090  -13.1247   22.2610 H   0  0  0  0  0  0
  -24.6371  -15.8326   20.4951 H   0  0  0  0  0  0
  -26.2507  -15.6281   20.0405 H   0  0  0  0  0  0
  -26.7190  -32.5422   23.1080 H   0  0  0  0  0  0
  -25.0045  -33.9691   25.0395 H   0  0  0  0  0  0
  -22.7207  -31.2954   21.3879 H   0  0  0  0  0  0
  -23.3750  -35.9625   23.3303 H   0  0  0  0  0  0
  -24.3584  -36.8926   22.2058 H   0  0  0  0  0  0
  -23.7252  -37.6498   23.6672 H   0  0  0  0  0  0
  -26.0993  -31.5294   20.5942 H   0  0  0  0  0  0
  -26.8472  -30.8338   22.0003 H   0  0  0  0  0  0
  -28.1332  -28.9718   21.1714 H   0  0  0  0  0  0
  -26.0278  -25.8859   19.0346 H   0  0  0  0  0  0
  -23.9850  -27.2677   19.0337 H   0  0  0  0  0  0
  -23.7691  -30.5658   19.3993 H   0  0  0  0  0  0
  -22.7637  -29.2259   19.8584 H   0  0  0  0  0  0
  -25.1294  -36.1922   25.0820 H   0  0  0  0  0  0
  -20.9960  -28.3258   24.1406 H   0  0  0  0  0  0
  -20.5647  -26.2298   23.3614 H   0  0  0  0  0  0
  -21.6634  -26.7426   22.1207 H   0  0  0  0  0  0
  -19.6903  -25.6288   21.1243 H   0  0  0  0  0  0
  -19.6682  -27.3181   20.6739 H   0  0  0  0  0  0
  -17.4189  -26.6671   21.4027 H   0  0  0  0  0  0
  -18.0319  -26.0078   22.9023 H   0  0  0  0  0  0
  -19.7936  -30.7269   24.2252 H   0  0  0  0  0  0
  -17.5021  -31.6263   24.5173 H   0  0  0  0  0  0
  -15.5352  -30.2993   23.7661 H   0  0  0  0  0  0
  -15.8665  -28.0834   22.7061 H   0  0  0  0  0  0
  -24.5905  -30.7058   25.7767 H   0  0  0  0  0  0
  -24.8909  -32.2871   26.4874 H   0  0  0  0  0  0
  -25.8043  -30.8885   27.0222 H   0  0  0  0  0  0
  -26.2925  -29.6730   24.1233 H   0  0  0  0  0  0
  -27.4076  -29.7276   25.4691 H   0  0  0  0  0  0
  -27.8779  -30.4289   23.9394 H   0  0  0  0  0  0
  -27.2675  -33.3622   26.2051 H   0  0  0  0  0  0
  -28.3864  -32.6862   25.0308 H   0  0  0  0  0  0
  -28.0729  -31.8453   26.5409 H   0  0  0  0  0  0
  -28.2592  -38.0097   24.7511 H   0  0  0  0  0  0
  -28.1074  -36.2631   24.6287 H   0  0  0  0  0  0
  -27.2303  -37.1449   25.8872 H   0  0  0  0  0  0
  -20.9381  -29.8796   21.6908 H   0  0  0  0  0  0
  -26.0171  -38.2849   24.1403 H   0  0  0  0  0  0
  -31.3053  -20.5380   21.2066 H   0  0  0  0  0  0
  -28.2940  -17.0975   22.0499 H   0  0  0  0  0  0
  -29.1163  -15.7155   22.7510 H   0  0  0  0  0  0
  -27.8038  -15.5194   21.5710 H   0  0  0  0  0  0
  -26.7529  -23.1596   21.8691 H   0  0  0  0  0  0
  -26.1244  -22.6593   20.2985 H   0  0  0  0  0  0
  -26.0253  -24.3316   20.7881 H   0  0  0  0  0  0
  -27.4800  -20.9526   19.9592 H   0  0  0  0  0  0
  -28.1299  -20.7709   21.5366 H   0  0  0  0  0  0
  -29.7047  -22.4334   19.5011 H   0  0  0  0  0  0
  -29.6662  -22.5889   21.2168 H   0  0  0  0  0  0
  -29.4481  -19.7064   18.9348 H   0  0  0  0  0  0
  -28.2767  -18.8168   19.8430 H   0  0  0  0  0  0
  -29.6280  -25.0752   20.8283 H   0  0  0  0  0  0
  -28.2129  -25.2935   21.7697 H   0  0  0  0  0  0
  -29.1839  -16.3122   19.7566 H   0  0  0  0  0  0
  -27.8815  -23.8459   19.1251 H   0  0  0  0  0  0
  1 25  1  0  0  0
  1 30  2  0  0  0
  1 79  1  0  0  0
  2  3  1  0  0  0
  2 25  1  0  0  0
  2 84  1  0  0  0
  2 85  1  0  0  0
  3  4  1  0  0  0
  3 86  1  0  0  0
  3 87  1  0  0  0
  4  5  1  0  0  0
  4 88  1  0  0  0
  4 89  1  0  0  0
  5  6  1  0  0  0
  5 26  1  0  0  0
  5 90  1  0  0  0
  6 25  1  0  0  0
  6 91  1  0  0  0
  6 92  1  0  0  0
  7  8  2  0  0  0
  7 26  1  0  0  0
  7 29  1  0  0  0
  8  9  1  0  0  0
  8 22  1  0  0  0
  9 10  1  0  0  0
  9 27  2  0  0  0
 10 11  2  0  0  0
 10 15  1  0  0  0
 11 12  1  0  0  0
 11 93  1  0  0  0
 12 13  2  0  0  0
 12 94  1  0  0  0
 13 14  1  0  0  0
 13 31  1  0  0  0
 14 15  2  0  0  0
 14 95  1  0  0  0
 15 96  1  0  0  0
 16 17  2  0  0  0
 16 21  1  0  0  0
 16 31  1  0  0  0
 17 18  1  0  0  0
 17 97  1  0  0  0
 18 19  2  0  0  0
 18 98  1  0  0  0
 19 20  1  0  0  0
 19 24  1  0  0  0
 20 21  2  0  0  0
 20 99  1  0  0  0
 21 23  1  0  0  0
 22 28  1  0  0  0
 22 32  2  0  0  0
 26 27  1  0  0  0
 28100  1  0  0  0
 28101  1  0  0  0
 29102  1  0  0  0
 29103  1  0  0  0
 33 34  1  0  0  0
 33 66  1  0  0  0
 33 70  2  0  0  0
 34 36  1  0  0  0
 34 59  1  0  0  0
 34104  1  0  0  0
 35 44  2  0  0  0
 35 45  1  0  0  0
 35 68  1  0  0  0
 36 56  1  0  0  0
 36105  1  0  0  0
 37 39  1  0  0  0
 37 47  1  0  0  0
 37 66  1  0  0  0
 37106  1  0  0  0
 38 43  2  0  0  0
 38 46  1  0  0  0
 38 47  1  0  0  0
 39 64  1  0  0  0
 39 67  2  0  0  0
 40 52  1  0  0  0
 40 53  2  0  0  0
 40 58  1  0  0  0
 41107  1  0  0  0
 41108  1  0  0  0
 41109  1  0  0  0
 41 48  1  0  0  0
 42 43  1  0  0  0
 42 66  1  0  0  0
 42110  1  0  0  0
 42111  1  0  0  0
 43 44  1  0  0  0
 44112  1  0  0  0
 45 46  2  0  0  0
 45113  1  0  0  0
 46114  1  0  0  0
 47115  1  0  0  0
 47116  1  0  0  0
 48 56  1  0  0  0
 48 65  1  0  0  0
 48117  1  0  0  0
 49 50  1  0  0  0
 49 53  1  0  0  0
 49 64  1  0  0  0
 49118  1  0  0  0
 50 51  1  0  0  0
 50119  1  0  0  0
 50120  1  0  0  0
 51 52  1  0  0  0
 51121  1  0  0  0
 51122  1  0  0  0
 52123  1  0  0  0
 52124  1  0  0  0
 53 54  1  0  0  0
 54 55  2  0  0  0
 54125  1  0  0  0
 55 57  1  0  0  0
 55126  1  0  0  0
 56 69  2  0  0  0
 57 58  2  0  0  0
 57127  1  0  0  0
 58128  1  0  0  0
 59 60  1  0  0  0
 59 61  1  0  0  0
 59 62  1  0  0  0
 60129  1  0  0  0
 60130  1  0  0  0
 60131  1  0  0  0
 61132  1  0  0  0
 61133  1  0  0  0
 61134  1  0  0  0
 62135  1  0  0  0
 62136  1  0  0  0
 62137  1  0  0  0
 63 65  1  0  0  0
 63138  1  0  0  0
 63139  1  0  0  0
 63140  1  0  0  0
 64141  1  0  0  0
 65142  1  0  0  0
 68 78  1  0  0  0
 71 81  2  0  0  0
 71 83  1  0  0  0
 71143  1  0  0  0
 72 79  1  0  0  0
 72 82  2  0  0  0
 72 83  1  0  0  0
 73144  1  0  0  0
 73145  1  0  0  0
 73146  1  0  0  0
 73 79  1  0  0  0
 74147  1  0  0  0
 74148  1  0  0  0
 74149  1  0  0  0
 74 80  1  0  0  0
 75 76  1  0  0  0
 75 77  1  0  0  0
 75150  1  0  0  0
 75151  1  0  0  0
 76 80  1  0  0  0
 76152  1  0  0  0
 76153  1  0  0  0
 77 83  1  0  0  0
 77154  1  0  0  0
 77155  1  0  0  0
 78 80  1  0  0  0
 78156  1  0  0  0
 78157  1  0  0  0
 79158  1  0  0  0
 80159  1  0  0  0
 81 82  1  0  0  0
M  ISO  4   1 100  68 101  78 101  79 100
M  END
> <chiral flag>
0

> <version>
0

> <s_m_source_file>
/data/baiqing/PycharmProjects/Reinvent-master-3.2/result/LINK_invent/BTK/process_docking_weight1_custom_sum_contain_oxygen_bond_distance_aromatic_linkinvent_7_9_3/rearranged_h_0076.sdf

> <i_m_source_file_index>
68

> <r_mmod_Potential_Energy-OPLS-2005>
321.083892822266

> <r_mmod_Stretch_Energy-OPLS-2005>
137.123764038086

> <r_mmod_Bend_Energy-OPLS-2005>
237.592086791992

> <r_mmod_Torsional_Energy-OPLS-2005>
248.477813720703

> <r_mmod_Improper_Torsional_Energy-OPLS-2005>
7.59279823303223

> <r_mmod_Van_der_Waal_Energy-OPLS-2005>
113.402244567871

> <r_mmod_Electrostatic_Energy-OPLS-2005>
-257.361999511719

> <r_mmod_Solvation_Energy-OPLS-2005>
-236.284530639648

> <b_mmod_Minimization_Converged-OPLS-2005>
0

> <r_mmod_RMS_Derivative-OPLS-2005>
1.0147465467453

$$$$
68
                    3D
 Structure written by MMmdl.
167175  0  0  1  0            999 V2000
  -30.6485  -14.6016   20.5130 C   0  0  0  0  0  0
  -30.4378  -12.3662   19.4555 C   0  0  0  0  0  0
  -29.5070  -12.5011   18.2279 C   0  0  0  0  0  0
  -28.0306  -12.3434   18.6452 C   0  0  0  0  0  0
  -27.6591  -13.2154   19.8720 C   0  0  2  0  0  0
  -28.7052  -13.0609   21.0029 C   0  0  0  0  0  0
  -25.2585  -13.8173   20.5712 C   0  0  0  0  0  0
  -24.1830  -13.0436   20.9169 C   0  0  0  0  0  0
  -24.6394  -11.6915   20.8725 C   0  0  0  0  0  0
  -23.9047  -10.4297   21.0388 C   0  0  0  0  0  0
  -24.3596   -9.4215   21.9174 C   0  0  0  0  0  0
  -23.6267   -8.2241   22.0756 C   0  0  0  0  0  0
  -22.4252   -8.0269   21.3549 C   0  0  0  0  0  0
  -21.9907   -9.0237   20.4662 C   0  0  0  0  0  0
  -22.7217  -10.2122   20.3053 C   0  0  0  0  0  0
  -21.6858   -6.0702   22.5280 C   0  0  0  0  0  0
  -21.4032   -6.5619   23.8204 C   0  0  0  0  0  0
  -21.3660   -5.6774   24.9170 C   0  0  0  0  0  0
  -21.6043   -4.3026   24.7253 C   0  0  0  0  0  0
  -21.8819   -3.8122   23.4374 C   0  0  0  0  0  0
  -21.9189   -4.6928   22.3412 C   0  0  0  0  0  0
  -22.7850  -13.5227   21.1840 C   0  0  0  0  0  0
  -22.1646   -4.2103   21.0984 F   0  0  0  0  0  0
  -21.5659   -3.4505   25.7771 F   0  0  0  0  0  0
  -30.0259  -13.3834   20.4426 N   0  0  0  0  0  0
  -26.3026  -12.9348   20.3377 N   0  0  0  0  0  0
  -25.9343  -11.6516   20.5814 N   0  0  0  0  0  0
  -22.0474  -12.8204   22.0372 N   0  0  0  0  0  0
  -25.4324  -15.1900   20.4248 N   0  0  0  0  0  0
  -31.7921  -14.7717   20.0842 O   0  0  0  0  0  0
  -21.6637   -6.8845   21.4239 O   0  0  0  0  0  0
  -22.3515  -14.5500   20.6663 O   0  0  0  0  0  0
  -24.6269  -31.8594   23.2060 C   0  0  0  0  0  0
  -25.9116  -32.4781   23.8367 C   0  0  1  0  0  0
  -27.2064  -27.3235   20.0979 C   0  0  0  0  0  0
  -25.5944  -33.8575   24.2316 N   0  0  0  0  0  0
  -23.4189  -30.4871   21.5494 C   0  0  2  0  0  0
  -24.8578  -28.9450   20.1153 C   0  0  0  0  0  0
  -22.7474  -29.4642   22.4960 C   0  0  0  0  0  0
  -18.0272  -28.1406   22.8463 C   0  0  0  0  0  0
  -24.1491  -36.7302   23.2642 C   0  0  0  0  0  0
  -25.9626  -30.7874   21.3773 C   0  0  0  0  0  0
  -26.0299  -29.4153   20.7215 C   0  0  0  0  0  0
  -27.2115  -28.6170   20.7037 C   0  0  0  0  0  0
  -26.0117  -26.9040   19.4852 C   0  0  0  0  0  0
  -24.8501  -27.6927   19.4863 C   0  0  0  0  0  0
  -23.6292  -29.8291   20.1616 C   0  0  0  0  0  0
  -25.4108  -36.3097   24.0350 C   0  0  1  0  0  0
  -20.5877  -28.3707   23.1291 C   0  0  2  0  0  0
  -20.6792  -26.9445   22.5414 C   0  0  0  0  0  0
  -19.5770  -26.6404   21.5221 C   0  0  0  0  0  0
  -18.1933  -26.7947   22.1612 C   0  0  0  0  0  0
  -19.1523  -28.8872   23.2872 C   0  0  0  0  0  0
  -18.9452  -30.1478   23.8902 C   0  0  0  0  0  0
  -17.6451  -30.6616   24.0561 C   0  0  0  0  0  0
  -25.9057  -34.9453   23.5130 C   0  0  0  0  0  0
  -16.5343  -29.9112   23.6337 C   0  0  0  0  0  0
  -16.7257  -28.6534   23.0337 C   0  0  0  0  0  0
  -26.4475  -31.6583   25.0741 C   0  0  0  0  0  0
  -25.3723  -31.3668   26.1473 C   0  0  0  0  0  0
  -27.0338  -30.3031   24.6176 C   0  0  0  0  0  0
  -27.6070  -32.4284   25.7487 C   0  0  0  0  0  0
  -27.5578  -37.1796   24.8467 C   0  0  0  0  0  0
  -21.4199  -29.3062   22.3700 N   0  0  0  0  0  0
  -26.4277  -37.3793   23.9434 N   0  0  0  0  0  0
  -24.6893  -31.0609   22.1000 N   0  0  0  0  0  0
  -23.4207  -28.8167   23.3029 O   0  0  0  0  0  0
  -28.3260  -26.4875   20.0571 O   0  0  0  0  0  0
  -26.5604  -34.8898   22.4689 O   0  0  0  0  0  0
  -23.5433  -32.1390   23.7400 O   0  0  0  0  0  0
  -29.3116  -21.4448   19.2377 C   0  0  0  0  0  0
  -29.5730  -20.1023   19.6262 C   0  0  0  0  0  0
  -28.7244  -22.4020   20.1198 C   0  0  0  0  0  0
  -29.2537  -19.6742   20.9282 C   0  0  0  0  0  0
  -28.4956  -21.8849   21.4310 C   0  0  0  0  0  0
  -27.8844  -22.7055   22.5466 C   0  0  0  0  0  0
  -26.7526  -23.4622   19.0971 C   0  0  0  0  0  0
  -28.9817  -24.2339   18.3022 C   0  0  0  0  0  0
  -27.8539  -17.6944   21.6375 C   0  0  0  0  0  0
  -30.0578  -18.1160   22.7836 C   0  0  0  0  0  0
  -30.0307  -17.1091   20.4855 C   0  0  0  0  0  0
  -28.2078  -25.0885   20.5343 C   0  0  0  0  0  0
  -28.1936  -23.8030   19.5568 C   0  0  0  0  0  0
  -29.3092  -18.1700   21.4290 C   0  0  0  0  0  0
  -28.7507  -20.5955   21.7989 N   0  0  0  0  0  0
  -29.8652  -15.6600   20.8631 N   0  0  0  0  0  0
  -31.4846  -12.4706   19.1602 H   0  0  0  0  0  0
  -30.3534  -11.3664   19.8878 H   0  0  0  0  0  0
  -29.7611  -11.7536   17.4766 H   0  0  0  0  0  0
  -29.6513  -13.4729   17.7511 H   0  0  0  0  0  0
  -27.8643  -11.2920   18.8844 H   0  0  0  0  0  0
  -27.3702  -12.5668   17.8068 H   0  0  0  0  0  0
  -27.6872  -14.2500   19.5273 H   0  0  0  0  0  0
  -28.7071  -12.0405   21.3931 H   0  0  0  0  0  0
  -28.4639  -13.6995   21.8533 H   0  0  0  0  0  0
  -25.2754   -9.5657   22.4725 H   0  0  0  0  0  0
  -23.9957   -7.4631   22.7475 H   0  0  0  0  0  0
  -21.0830   -8.8752   19.8971 H   0  0  0  0  0  0
  -22.3677  -10.9632   19.6118 H   0  0  0  0  0  0
  -21.2037   -7.6140   23.9689 H   0  0  0  0  0  0
  -21.1473   -6.0531   25.9054 H   0  0  0  0  0  0
  -22.0598   -2.7590   23.2908 H   0  0  0  0  0  0
  -22.4104  -11.9874   22.4749 H   0  0  0  0  0  0
  -21.1091  -13.1249   22.2534 H   0  0  0  0  0  0
  -24.6829  -15.8493   20.6047 H   0  0  0  0  0  0
  -26.3085  -15.6354   20.1827 H   0  0  0  0  0  0
  -26.7203  -32.5425   23.1122 H   0  0  0  0  0  0
  -25.0121  -33.9708   25.0478 H   0  0  0  0  0  0
  -22.7170  -31.3103   21.4120 H   0  0  0  0  0  0
  -23.3762  -35.9630   23.3294 H   0  0  0  0  0  0
  -24.3596  -36.8924   22.2064 H   0  0  0  0  0  0
  -23.7210  -37.6488   23.6658 H   0  0  0  0  0  0
  -26.0936  -31.5435   20.6024 H   0  0  0  0  0  0
  -26.8460  -30.8373   22.0021 H   0  0  0  0  0  0
  -28.1140  -28.9677   21.1830 H   0  0  0  0  0  0
  -25.9566  -25.9600   18.9862 H   0  0  0  0  0  0
  -23.9569  -27.3331   18.9948 H   0  0  0  0  0  0
  -23.7521  -30.6077   19.4070 H   0  0  0  0  0  0
  -22.7473  -29.2616   19.8581 H   0  0  0  0  0  0
  -25.1269  -36.1973   25.0845 H   0  0  0  0  0  0
  -20.9933  -28.3288   24.1422 H   0  0  0  0  0  0
  -20.5745  -26.2312   23.3596 H   0  0  0  0  0  0
  -21.6649  -26.7524   22.1185 H   0  0  0  0  0  0
  -19.6956  -25.6318   21.1245 H   0  0  0  0  0  0
  -19.6723  -27.3218   20.6758 H   0  0  0  0  0  0
  -17.4217  -26.6682   21.4010 H   0  0  0  0  0  0
  -18.0340  -26.0107   22.9028 H   0  0  0  0  0  0
  -19.7929  -30.7281   24.2293 H   0  0  0  0  0  0
  -17.5009  -31.6281   24.5172 H   0  0  0  0  0  0
  -15.5347  -30.3004   23.7692 H   0  0  0  0  0  0
  -15.8649  -28.0862   22.7054 H   0  0  0  0  0  0
  -24.5944  -30.6959   25.7792 H   0  0  0  0  0  0
  -24.8814  -32.2786   26.4893 H   0  0  0  0  0  0
  -25.8049  -30.8856   27.0258 H   0  0  0  0  0  0
  -26.2923  -29.6761   24.1207 H   0  0  0  0  0  0
  -27.4097  -29.7282   25.4648 H   0  0  0  0  0  0
  -27.8752  -30.4366   23.9375 H   0  0  0  0  0  0
  -27.2775  -33.3640   26.2010 H   0  0  0  0  0  0
  -28.3886  -32.6735   25.0289 H   0  0  0  0  0  0
  -28.0729  -31.8416   26.5413 H   0  0  0  0  0  0
  -28.2583  -38.0102   24.7544 H   0  0  0  0  0  0
  -28.1080  -36.2636   24.6266 H   0  0  0  0  0  0
  -27.2298  -37.1421   25.8862 H   0  0  0  0  0  0
  -20.9419  -29.8753   21.6854 H   0  0  0  0  0  0
  -26.0177  -38.2878   24.1422 H   0  0  0  0  0  0
  -29.5193  -21.6917   18.2079 H   0  0  0  0  0  0
  -29.9704  -19.4098   18.8972 H   0  0  0  0  0  0
  -28.6342  -23.3850   22.9571 H   0  0  0  0  0  0
  -27.5282  -22.0712   23.3597 H   0  0  0  0  0  0
  -27.0185  -23.2626   22.2033 H   0  0  0  0  0  0
  -26.7047  -22.4660   18.6503 H   0  0  0  0  0  0
  -26.3797  -24.1184   18.3139 H   0  0  0  0  0  0
  -26.0420  -23.4555   19.9254 H   0  0  0  0  0  0
  -28.8490  -23.5511   17.4640 H   0  0  0  0  0  0
  -30.0475  -24.3295   18.5129 H   0  0  0  0  0  0
  -28.6320  -25.2012   17.9368 H   0  0  0  0  0  0
  -27.3199  -17.6733   20.6875 H   0  0  0  0  0  0
  -27.3049  -18.3716   22.2921 H   0  0  0  0  0  0
  -27.7895  -16.7016   22.0860 H   0  0  0  0  0  0
  -29.5699  -18.7277   23.5433 H   0  0  0  0  0  0
  -31.0797  -18.4763   22.6767 H   0  0  0  0  0  0
  -30.1105  -17.1004   23.1794 H   0  0  0  0  0  0
  -31.0922  -17.3465   20.4057 H   0  0  0  0  0  0
  -29.6339  -17.2004   19.4736 H   0  0  0  0  0  0
  -29.0852  -24.9700   21.1699 H   0  0  0  0  0  0
  -27.3523  -25.0673   21.2048 H   0  0  0  0  0  0
  -28.9663  -15.4178   21.2463 H   0  0  0  0  0  0
  1 25  1  0  0  0
  1 30  2  0  0  0
  1 86  1  0  0  0
  2  3  1  0  0  0
  2 25  1  0  0  0
  2 87  1  0  0  0
  2 88  1  0  0  0
  3  4  1  0  0  0
  3 89  1  0  0  0
  3 90  1  0  0  0
  4  5  1  0  0  0
  4 91  1  0  0  0
  4 92  1  0  0  0
  5  6  1  0  0  0
  5 26  1  0  0  0
  5 93  1  0  0  0
  6 25  1  0  0  0
  6 94  1  0  0  0
  6 95  1  0  0  0
  7  8  2  0  0  0
  7 26  1  0  0  0
  7 29  1  0  0  0
  8  9  1  0  0  0
  8 22  1  0  0  0
  9 10  1  0  0  0
  9 27  2  0  0  0
 10 11  2  0  0  0
 10 15  1  0  0  0
 11 12  1  0  0  0
 11 96  1  0  0  0
 12 13  2  0  0  0
 12 97  1  0  0  0
 13 14  1  0  0  0
 13 31  1  0  0  0
 14 15  2  0  0  0
 14 98  1  0  0  0
 15 99  1  0  0  0
 16 17  2  0  0  0
 16 21  1  0  0  0
 16 31  1  0  0  0
 17 18  1  0  0  0
 17100  1  0  0  0
 18 19  2  0  0  0
 18101  1  0  0  0
 19 20  1  0  0  0
 19 24  1  0  0  0
 20 21  2  0  0  0
 20102  1  0  0  0
 21 23  1  0  0  0
 22 28  1  0  0  0
 22 32  2  0  0  0
 26 27  1  0  0  0
 28103  1  0  0  0
 28104  1  0  0  0
 29105  1  0  0  0
 29106  1  0  0  0
 33 34  1  0  0  0
 33 66  1  0  0  0
 33 70  2  0  0  0
 34 36  1  0  0  0
 34 59  1  0  0  0
 34107  1  0  0  0
 35 44  2  0  0  0
 35 45  1  0  0  0
 35 68  1  0  0  0
 36 56  1  0  0  0
 36108  1  0  0  0
 37 39  1  0  0  0
 37 47  1  0  0  0
 37 66  1  0  0  0
 37109  1  0  0  0
 38 43  2  0  0  0
 38 46  1  0  0  0
 38 47  1  0  0  0
 39 64  1  0  0  0
 39 67  2  0  0  0
 40 52  1  0  0  0
 40 53  2  0  0  0
 40 58  1  0  0  0
 41110  1  0  0  0
 41111  1  0  0  0
 41112  1  0  0  0
 41 48  1  0  0  0
 42 43  1  0  0  0
 42 66  1  0  0  0
 42113  1  0  0  0
 42114  1  0  0  0
 43 44  1  0  0  0
 44115  1  0  0  0
 45 46  2  0  0  0
 45116  1  0  0  0
 46117  1  0  0  0
 47118  1  0  0  0
 47119  1  0  0  0
 48 56  1  0  0  0
 48 65  1  0  0  0
 48120  1  0  0  0
 49 50  1  0  0  0
 49 53  1  0  0  0
 49 64  1  0  0  0
 49121  1  0  0  0
 50 51  1  0  0  0
 50122  1  0  0  0
 50123  1  0  0  0
 51 52  1  0  0  0
 51124  1  0  0  0
 51125  1  0  0  0
 52126  1  0  0  0
 52127  1  0  0  0
 53 54  1  0  0  0
 54 55  2  0  0  0
 54128  1  0  0  0
 55 57  1  0  0  0
 55129  1  0  0  0
 56 69  2  0  0  0
 57 58  2  0  0  0
 57130  1  0  0  0
 58131  1  0  0  0
 59 60  1  0  0  0
 59 61  1  0  0  0
 59 62  1  0  0  0
 60132  1  0  0  0
 60133  1  0  0  0
 60134  1  0  0  0
 61135  1  0  0  0
 61136  1  0  0  0
 61137  1  0  0  0
 62138  1  0  0  0
 62139  1  0  0  0
 62140  1  0  0  0
 63 65  1  0  0  0
 63141  1  0  0  0
 63142  1  0  0  0
 63143  1  0  0  0
 64144  1  0  0  0
 65145  1  0  0  0
 68 82  1  0  0  0
 71 72  2  0  0  0
 71 73  1  0  0  0
 71146  1  0  0  0
 72 74  1  0  0  0
 72147  1  0  0  0
 73 75  2  0  0  0
 73 83  1  0  0  0
 74 84  1  0  0  0
 74 85  2  0  0  0
 75 76  1  0  0  0
 75 85  1  0  0  0
 76148  1  0  0  0
 76149  1  0  0  0
 76150  1  0  0  0
 77151  1  0  0  0
 77152  1  0  0  0
 77153  1  0  0  0
 77 83  1  0  0  0
 78 83  1  0  0  0
 78154  1  0  0  0
 78155  1  0  0  0
 78156  1  0  0  0
 79157  1  0  0  0
 79158  1  0  0  0
 79159  1  0  0  0
 79 84  1  0  0  0
 80 84  1  0  0  0
 80160  1  0  0  0
 80161  1  0  0  0
 80162  1  0  0  0
 81 84  1  0  0  0
 81 86  1  0  0  0
 81163  1  0  0  0
 81164  1  0  0  0
 82 83  1  0  0  0
 82165  1  0  0  0
 82166  1  0  0  0
 86167  1  0  0  0
M  ISO  4   1 100  68 101  82 101  86 100
M  END
> <chiral flag>
0

> <version>
0

> <s_m_source_file>
/data/baiqing/PycharmProjects/Reinvent-master-3.2/result/LINK_invent/BTK/process_docking_weight1_custom_sum_contain_oxygen_bond_distance_aromatic_linkinvent_7_9_3/rearranged_h_0076.sdf

> <i_m_source_file_index>
69

> <r_mmod_Potential_Energy-OPLS-2005>
-90.9051055908203

> <r_mmod_Stretch_Energy-OPLS-2005>
89.049934387207

> <r_mmod_Bend_Energy-OPLS-2005>
162.391815185547

> <r_mmod_Torsional_Energy-OPLS-2005>
241.151412963867

> <r_mmod_Improper_Torsional_Energy-OPLS-2005>
7.04729604721069

> <r_mmod_Van_der_Waal_Energy-OPLS-2005>
157.316802978516

> <r_mmod_Electrostatic_Energy-OPLS-2005>
-583.236938476562

> <r_mmod_Solvation_Energy-OPLS-2005>
-204.662322998047

> <b_mmod_Minimization_Converged-OPLS-2005>
0

> <r_mmod_RMS_Derivative-OPLS-2005>
4.40511703491211

$$$$
69
                    3D
 Structure written by MMmdl.
163171  0  0  1  0            999 V2000
  -30.7448  -14.3844   20.6314 C   0  0  0  0  0  0
  -30.4138  -12.2739   19.4069 C   0  0  0  0  0  0
  -29.4887  -12.5128   18.1980 C   0  0  0  0  0  0
  -28.0099  -12.3770   18.6089 C   0  0  0  0  0  0
  -27.6643  -13.2012   19.8780 C   0  0  2  0  0  0
  -28.6998  -12.9449   20.9943 C   0  0  0  0  0  0
  -25.2594  -13.8155   20.5666 C   0  0  0  0  0  0
  -24.1833  -13.0439   20.9165 C   0  0  0  0  0  0
  -24.6380  -11.6912   20.8721 C   0  0  0  0  0  0
  -23.9048  -10.4301   21.0399 C   0  0  0  0  0  0
  -24.3605   -9.4220   21.9179 C   0  0  0  0  0  0
  -23.6288   -8.2249   22.0752 C   0  0  0  0  0  0
  -22.4271   -8.0285   21.3544 C   0  0  0  0  0  0
  -21.9900   -9.0257   20.4647 C   0  0  0  0  0  0
  -22.7220  -10.2140   20.3054 C   0  0  0  0  0  0
  -21.6860   -6.0736   22.5280 C   0  0  0  0  0  0
  -21.4020   -6.5638   23.8214 C   0  0  0  0  0  0
  -21.3657   -5.6786   24.9174 C   0  0  0  0  0  0
  -21.6045   -4.3050   24.7225 C   0  0  0  0  0  0
  -21.8820   -3.8146   23.4346 C   0  0  0  0  0  0
  -21.9196   -4.6964   22.3404 C   0  0  0  0  0  0
  -22.7858  -13.5251   21.1834 C   0  0  0  0  0  0
  -22.1665   -4.2150   21.0980 F   0  0  0  0  0  0
  -21.5624   -3.4534   25.7737 F   0  0  0  0  0  0
  -30.0408  -13.2348   20.4548 N   0  0  0  0  0  0
  -26.3028  -12.9320   20.3358 N   0  0  0  0  0  0
  -25.9303  -11.6484   20.5740 N   0  0  0  0  0  0
  -22.0490  -12.8254   22.0398 N   0  0  0  0  0  0
  -25.4323  -15.1861   20.4079 N   0  0  0  0  0  0
  -31.8296  -14.6001   20.0776 O   0  0  0  0  0  0
  -21.6641   -6.8878   21.4243 O   0  0  0  0  0  0
  -22.3548  -14.5554   20.6683 O   0  0  0  0  0  0
  -24.6101  -31.8726   23.2133 C   0  0  0  0  0  0
  -25.9023  -32.4838   23.8407 C   0  0  1  0  0  0
  -27.2314  -27.4802   20.0857 C   0  0  0  0  0  0
  -25.5901  -33.8633   24.2346 N   0  0  0  0  0  0
  -23.3943  -30.4970   21.5541 C   0  0  2  0  0  0
  -24.8389  -28.9687   20.1159 C   0  0  0  0  0  0
  -22.7381  -29.4683   22.5017 C   0  0  0  0  0  0
  -18.0273  -28.1360   22.8498 C   0  0  0  0  0  0
  -24.1491  -36.7319   23.2635 C   0  0  0  0  0  0
  -25.9187  -30.8509   21.3601 C   0  0  0  0  0  0
  -25.9965  -29.4892   20.7074 C   0  0  0  0  0  0
  -27.1970  -28.7516   20.6899 C   0  0  0  0  0  0
  -26.0615  -26.9668   19.4847 C   0  0  0  0  0  0
  -24.8634  -27.7032   19.5043 C   0  0  0  0  0  0
  -23.5991  -29.8299   20.1680 C   0  0  0  0  0  0
  -25.4109  -36.3114   24.0336 C   0  0  1  0  0  0
  -20.5857  -28.3652   23.1339 C   0  0  2  0  0  0
  -20.6785  -26.9392   22.5431 C   0  0  0  0  0  0
  -19.5766  -26.6368   21.5233 C   0  0  0  0  0  0
  -18.1938  -26.7902   22.1639 C   0  0  0  0  0  0
  -19.1515  -28.8821   23.2916 C   0  0  0  0  0  0
  -18.9438  -30.1435   23.8907 C   0  0  0  0  0  0
  -17.6440  -30.6573   24.0551 C   0  0  0  0  0  0
  -25.9034  -34.9480   23.5134 C   0  0  0  0  0  0
  -16.5335  -29.9070   23.6307 C   0  0  0  0  0  0
  -16.7263  -28.6485   23.0333 C   0  0  0  0  0  0
  -26.4467  -31.6595   25.0712 C   0  0  0  0  0  0
  -25.3751  -31.3686   26.1472 C   0  0  0  0  0  0
  -27.0287  -30.3044   24.6041 C   0  0  0  0  0  0
  -27.6048  -32.4308   25.7472 C   0  0  0  0  0  0
  -27.5581  -37.1814   24.8464 C   0  0  0  0  0  0
  -21.4115  -29.3035   22.3754 N   0  0  0  0  0  0
  -26.4297  -37.3795   23.9402 N   0  0  0  0  0  0
  -24.6589  -31.0865   22.1014 N   0  0  0  0  0  0
  -23.4179  -28.8224   23.3037 O   0  0  0  0  0  0
  -28.4133  -26.7667   20.0915 O   0  0  0  0  0  0
  -26.5590  -34.8924   22.4692 O   0  0  0  0  0  0
  -23.5314  -32.1461   23.7568 O   0  0  0  0  0  0
  -27.9832  -20.8494   20.6152 C   0  0  0  0  0  0
  -27.0042  -21.8005   20.9488 C   0  0  0  0  0  0
  -27.5492  -19.6015   20.1364 C   0  0  0  0  0  0
  -25.6503  -21.4185   20.7893 C   0  0  0  0  0  0
  -24.5027  -22.3630   21.0922 C   0  0  0  0  0  0
  -30.0930  -15.4665   22.7015 C   0  0  0  0  0  0
  -27.4416  -23.1798   21.4062 C   0  0  0  0  0  0
  -28.5622  -18.5588   19.7156 C   0  0  0  0  0  0
  -27.8152  -24.0657   20.2051 C   0  0  0  0  0  0
  -28.7128  -17.4203   20.7347 C   0  0  0  0  0  0
  -30.0578  -16.6970   20.5706 C   0  0  0  0  0  0
  -28.4259  -25.4286   20.6285 C   0  0  0  0  0  0
  -26.2362  -19.2884   20.0096 N   0  0  0  0  0  0
  -25.2998  -20.1868   20.3378 N   0  0  0  0  0  0
  -30.0782  -15.3893   21.2382 N   0  0  0  0  0  0
  -31.4587  -12.3628   19.1052 H   0  0  0  0  0  0
  -30.3007  -11.2554   19.7814 H   0  0  0  0  0  0
  -29.7222  -11.8056   17.4013 H   0  0  0  0  0  0
  -29.6666  -13.5081   17.7865 H   0  0  0  0  0  0
  -27.8114  -11.3197   18.7886 H   0  0  0  0  0  0
  -27.3623  -12.6699   17.7820 H   0  0  0  0  0  0
  -27.7215  -14.2549   19.6041 H   0  0  0  0  0  0
  -28.6594  -11.9040   21.3186 H   0  0  0  0  0  0
  -28.4523  -13.5304   21.8789 H   0  0  0  0  0  0
  -25.2750   -9.5705   22.4753 H   0  0  0  0  0  0
  -24.0007   -7.4643   22.7470 H   0  0  0  0  0  0
  -21.0828   -8.8771   19.8952 H   0  0  0  0  0  0
  -22.3674  -10.9678   19.6166 H   0  0  0  0  0  0
  -21.2017   -7.6148   23.9723 H   0  0  0  0  0  0
  -21.1476   -6.0513   25.9075 H   0  0  0  0  0  0
  -22.0602   -2.7610   23.2843 H   0  0  0  0  0  0
  -22.4091  -11.9915   22.4795 H   0  0  0  0  0  0
  -21.1114  -13.1299   22.2603 H   0  0  0  0  0  0
  -24.6736  -15.8482   20.5288 H   0  0  0  0  0  0
  -26.2942  -15.6241   20.1104 H   0  0  0  0  0  0
  -26.7096  -32.5570   23.1180 H   0  0  0  0  0  0
  -25.0060  -33.9801   25.0494 H   0  0  0  0  0  0
  -22.6808  -31.3124   21.4187 H   0  0  0  0  0  0
  -23.3743  -35.9667   23.3316 H   0  0  0  0  0  0
  -24.3583  -36.8911   22.2044 H   0  0  0  0  0  0
  -23.7257  -37.6535   23.6638 H   0  0  0  0  0  0
  -26.0249  -31.6199   20.5937 H   0  0  0  0  0  0
  -26.8086  -30.9031   21.9749 H   0  0  0  0  0  0
  -28.0923  -29.1486   21.1483 H   0  0  0  0  0  0
  -26.0684  -26.0141   18.9812 H   0  0  0  0  0  0
  -23.9744  -27.2979   19.0411 H   0  0  0  0  0  0
  -23.7033  -30.6047   19.4081 H   0  0  0  0  0  0
  -22.7235  -29.2477   19.8747 H   0  0  0  0  0  0
  -25.1288  -36.1981   25.0829 H   0  0  0  0  0  0
  -20.9948  -28.3229   24.1459 H   0  0  0  0  0  0
  -20.5714  -26.2261   23.3619 H   0  0  0  0  0  0
  -21.6659  -26.7464   22.1212 H   0  0  0  0  0  0
  -19.6937  -25.6285   21.1254 H   0  0  0  0  0  0
  -19.6705  -27.3184   20.6767 H   0  0  0  0  0  0
  -17.4217  -26.6648   21.4032 H   0  0  0  0  0  0
  -18.0344  -26.0034   22.9027 H   0  0  0  0  0  0
  -19.7909  -30.7253   24.2286 H   0  0  0  0  0  0
  -17.4990  -31.6260   24.5133 H   0  0  0  0  0  0
  -15.5332  -30.2974   23.7606 H   0  0  0  0  0  0
  -15.8674  -28.0804   22.7022 H   0  0  0  0  0  0
  -24.5923  -30.7031   25.7814 H   0  0  0  0  0  0
  -24.8948  -32.2839   26.4942 H   0  0  0  0  0  0
  -25.8123  -30.8845   27.0215 H   0  0  0  0  0  0
  -26.2811  -29.6814   24.1114 H   0  0  0  0  0  0
  -27.4099  -29.7259   25.4465 H   0  0  0  0  0  0
  -27.8629  -30.4371   23.9146 H   0  0  0  0  0  0
  -27.2665  -33.3589   26.2095 H   0  0  0  0  0  0
  -28.3836  -32.6902   25.0288 H   0  0  0  0  0  0
  -28.0743  -31.8407   26.5352 H   0  0  0  0  0  0
  -28.2612  -38.0100   24.7502 H   0  0  0  0  0  0
  -28.1064  -36.2629   24.6309 H   0  0  0  0  0  0
  -27.2296  -37.1486   25.8868 H   0  0  0  0  0  0
  -20.9265  -29.8757   21.6981 H   0  0  0  0  0  0
  -26.0188  -38.2876   24.1402 H   0  0  0  0  0  0
  -29.0362  -21.0772   20.6993 H   0  0  0  0  0  0
  -24.4564  -22.5718   22.1605 H   0  0  0  0  0  0
  -23.5448  -21.9362   20.7919 H   0  0  0  0  0  0
  -24.6284  -23.3056   20.5591 H   0  0  0  0  0  0
  -30.8260  -16.1956   23.0492 H   0  0  0  0  0  0
  -30.3370  -14.5092   23.1665 H   0  0  0  0  0  0
  -29.1121  -15.7659   23.0710 H   0  0  0  0  0  0
  -28.3035  -23.0720   22.0670 H   0  0  0  0  0  0
  -26.6623  -23.6483   22.0077 H   0  0  0  0  0  0
  -29.5216  -19.0579   19.5744 H   0  0  0  0  0  0
  -28.2889  -18.1604   18.7373 H   0  0  0  0  0  0
  -26.9186  -24.1796   19.5952 H   0  0  0  0  0  0
  -28.5284  -23.5071   19.5904 H   0  0  0  0  0  0
  -27.8737  -16.7320   20.6378 H   0  0  0  0  0  0
  -28.6614  -17.8274   21.7455 H   0  0  0  0  0  0
  -30.8774  -17.3200   20.9336 H   0  0  0  0  0  0
  -30.2356  -16.5661   19.4998 H   0  0  0  0  0  0
  -27.5965  -25.6335   21.3076 H   0  0  0  0  0  0
  -28.4902  -25.4603   19.5386 H   0  0  0  0  0  0
  1 25  1  0  0  0
  1 30  2  0  0  0
  1 85  1  0  0  0
  2  3  1  0  0  0
  2 25  1  0  0  0
  2 86  1  0  0  0
  2 87  1  0  0  0
  3  4  1  0  0  0
  3 88  1  0  0  0
  3 89  1  0  0  0
  4  5  1  0  0  0
  4 90  1  0  0  0
  4 91  1  0  0  0
  5  6  1  0  0  0
  5 26  1  0  0  0
  5 92  1  0  0  0
  6 25  1  0  0  0
  6 93  1  0  0  0
  6 94  1  0  0  0
  7  8  2  0  0  0
  7 26  1  0  0  0
  7 29  1  0  0  0
  8  9  1  0  0  0
  8 22  1  0  0  0
  9 10  1  0  0  0
  9 27  2  0  0  0
 10 11  2  0  0  0
 10 15  1  0  0  0
 11 12  1  0  0  0
 11 95  1  0  0  0
 12 13  2  0  0  0
 12 96  1  0  0  0
 13 14  1  0  0  0
 13 31  1  0  0  0
 14 15  2  0  0  0
 14 97  1  0  0  0
 15 98  1  0  0  0
 16 17  2  0  0  0
 16 21  1  0  0  0
 16 31  1  0  0  0
 17 18  1  0  0  0
 17 99  1  0  0  0
 18 19  2  0  0  0
 18100  1  0  0  0
 19 20  1  0  0  0
 19 24  1  0  0  0
 20 21  2  0  0  0
 20101  1  0  0  0
 21 23  1  0  0  0
 22 28  1  0  0  0
 22 32  2  0  0  0
 26 27  1  0  0  0
 28102  1  0  0  0
 28103  1  0  0  0
 29104  1  0  0  0
 29105  1  0  0  0
 33 34  1  0  0  0
 33 66  1  0  0  0
 33 70  2  0  0  0
 34 36  1  0  0  0
 34 59  1  0  0  0
 34106  1  0  0  0
 35 44  2  0  0  0
 35 45  1  0  0  0
 35 68  1  0  0  0
 36 56  1  0  0  0
 36107  1  0  0  0
 37 39  1  0  0  0
 37 47  1  0  0  0
 37 66  1  0  0  0
 37108  1  0  0  0
 38 43  2  0  0  0
 38 46  1  0  0  0
 38 47  1  0  0  0
 39 64  1  0  0  0
 39 67  2  0  0  0
 40 52  1  0  0  0
 40 53  2  0  0  0
 40 58  1  0  0  0
 41109  1  0  0  0
 41110  1  0  0  0
 41111  1  0  0  0
 41 48  1  0  0  0
 42 43  1  0  0  0
 42 66  1  0  0  0
 42112  1  0  0  0
 42113  1  0  0  0
 43 44  1  0  0  0
 44114  1  0  0  0
 45 46  2  0  0  0
 45115  1  0  0  0
 46116  1  0  0  0
 47117  1  0  0  0
 47118  1  0  0  0
 48 56  1  0  0  0
 48 65  1  0  0  0
 48119  1  0  0  0
 49 50  1  0  0  0
 49 53  1  0  0  0
 49 64  1  0  0  0
 49120  1  0  0  0
 50 51  1  0  0  0
 50121  1  0  0  0
 50122  1  0  0  0
 51 52  1  0  0  0
 51123  1  0  0  0
 51124  1  0  0  0
 52125  1  0  0  0
 52126  1  0  0  0
 53 54  1  0  0  0
 54 55  2  0  0  0
 54127  1  0  0  0
 55 57  1  0  0  0
 55128  1  0  0  0
 56 69  2  0  0  0
 57 58  2  0  0  0
 57129  1  0  0  0
 58130  1  0  0  0
 59 60  1  0  0  0
 59 61  1  0  0  0
 59 62  1  0  0  0
 60131  1  0  0  0
 60132  1  0  0  0
 60133  1  0  0  0
 61134  1  0  0  0
 61135  1  0  0  0
 61136  1  0  0  0
 62137  1  0  0  0
 62138  1  0  0  0
 62139  1  0  0  0
 63 65  1  0  0  0
 63140  1  0  0  0
 63141  1  0  0  0
 63142  1  0  0  0
 64143  1  0  0  0
 65144  1  0  0  0
 68 82  1  0  0  0
 71 72  2  0  0  0
 71 73  1  0  0  0
 71145  1  0  0  0
 72 74  1  0  0  0
 72 77  1  0  0  0
 73 78  1  0  0  0
 73 83  2  0  0  0
 74 75  1  0  0  0
 74 84  2  0  0  0
 75146  1  0  0  0
 75147  1  0  0  0
 75148  1  0  0  0
 76 85  1  0  0  0
 76149  1  0  0  0
 76150  1  0  0  0
 76151  1  0  0  0
 77 79  1  0  0  0
 77152  1  0  0  0
 77153  1  0  0  0
 78 80  1  0  0  0
 78154  1  0  0  0
 78155  1  0  0  0
 79 82  1  0  0  0
 79156  1  0  0  0
 79157  1  0  0  0
 80 81  1  0  0  0
 80158  1  0  0  0
 80159  1  0  0  0
 81 85  1  0  0  0
 81160  1  0  0  0
 81161  1  0  0  0
 82162  1  0  0  0
 82163  1  0  0  0
 83 84  1  0  0  0
M  ISO  4   1 100  68 101  82 101  85 100
M  END
> <chiral flag>
0

> <version>
0

> <s_m_source_file>
/data/baiqing/PycharmProjects/Reinvent-master-3.2/result/LINK_invent/BTK/process_docking_weight1_custom_sum_contain_oxygen_bond_distance_aromatic_linkinvent_7_9_3/rearranged_h_0076.sdf

> <i_m_source_file_index>
70

> <r_mmod_Potential_Energy-OPLS-2005>
328.082244873047

> <r_mmod_Stretch_Energy-OPLS-2005>
34.743049621582

> <r_mmod_Bend_Energy-OPLS-2005>
327.085845947266

> <r_mmod_Torsional_Energy-OPLS-2005>
283.542358398438

> <r_mmod_Improper_Torsional_Energy-OPLS-2005>
8.47075271606445

> <r_mmod_Van_der_Waal_Energy-OPLS-2005>
172.370254516602

> <r_mmod_Electrostatic_Energy-OPLS-2005>
-292.460418701172

> <r_mmod_Solvation_Energy-OPLS-2005>
-213.58154296875

> <b_mmod_Minimization_Converged-OPLS-2005>
0

> <r_mmod_RMS_Derivative-OPLS-2005>
0.97410649061203

$$$$
70
                    3D
 Structure written by MMmdl.
173181  0  0  1  0            999 V2000
  -30.7631  -14.4591   20.5585 C   0  0  0  0  0  0
  -30.4000  -12.2995   19.4232 C   0  0  0  0  0  0
  -29.4784  -12.4956   18.2035 C   0  0  0  0  0  0
  -28.0013  -12.3695   18.6146 C   0  0  0  0  0  0
  -27.6541  -13.2149   19.8676 C   0  0  2  0  0  0
  -28.6982  -13.0016   20.9826 C   0  0  0  0  0  0
  -25.2554  -13.8176   20.5663 C   0  0  0  0  0  0
  -24.1843  -13.0462   20.9203 C   0  0  0  0  0  0
  -24.6423  -11.6924   20.8818 C   0  0  0  0  0  0
  -23.9114  -10.4308   21.0488 C   0  0  0  0  0  0
  -24.3661   -9.4196   21.9233 C   0  0  0  0  0  0
  -23.6321   -8.2239   22.0770 C   0  0  0  0  0  0
  -22.4296   -8.0304   21.3575 C   0  0  0  0  0  0
  -21.9971   -9.0287   20.4678 C   0  0  0  0  0  0
  -22.7318  -10.2153   20.3097 C   0  0  0  0  0  0
  -21.6844   -6.0772   22.5295 C   0  0  0  0  0  0
  -21.4012   -6.5661   23.8237 C   0  0  0  0  0  0
  -21.3661   -5.6806   24.9188 C   0  0  0  0  0  0
  -21.6042   -4.3070   24.7235 C   0  0  0  0  0  0
  -21.8827   -3.8172   23.4351 C   0  0  0  0  0  0
  -21.9197   -4.6997   22.3417 C   0  0  0  0  0  0
  -22.7857  -13.5223   21.1885 C   0  0  0  0  0  0
  -22.1670   -4.2183   21.0995 F   0  0  0  0  0  0
  -21.5617   -3.4552   25.7748 F   0  0  0  0  0  0
  -30.0271  -13.3131   20.4280 N   0  0  0  0  0  0
  -26.3000  -12.9384   20.3372 N   0  0  0  0  0  0
  -25.9338  -11.6541   20.5838 N   0  0  0  0  0  0
  -22.0508  -12.8190   22.0421 N   0  0  0  0  0  0
  -25.4308  -15.1892   20.3983 N   0  0  0  0  0  0
  -31.9013  -14.5322   20.0840 O   0  0  0  0  0  0
  -21.6637   -6.8911   21.4261 O   0  0  0  0  0  0
  -22.3545  -14.5551   20.6743 O   0  0  0  0  0  0
  -24.6131  -31.8718   23.2139 C   0  0  0  0  0  0
  -25.9037  -32.4834   23.8414 C   0  0  1  0  0  0
  -27.2326  -27.4615   20.0520 C   0  0  0  0  0  0
  -25.5895  -33.8625   24.2357 N   0  0  0  0  0  0
  -23.3942  -30.4993   21.5590 C   0  0  2  0  0  0
  -24.8301  -28.9633   20.1224 C   0  0  0  0  0  0
  -22.7368  -29.4698   22.5067 C   0  0  0  0  0  0
  -18.0302  -28.1382   22.8601 C   0  0  0  0  0  0
  -24.1491  -36.7324   23.2648 C   0  0  0  0  0  0
  -25.9195  -30.8400   21.3590 C   0  0  0  0  0  0
  -25.9925  -29.4711   20.7160 C   0  0  0  0  0  0
  -27.1885  -28.7197   20.6936 C   0  0  0  0  0  0
  -26.0424  -26.9609   19.4663 C   0  0  0  0  0  0
  -24.8462  -27.6996   19.5131 C   0  0  0  0  0  0
  -23.5945  -29.8312   20.1745 C   0  0  0  0  0  0
  -25.4109  -36.3125   24.0352 C   0  0  1  0  0  0
  -20.5871  -28.3707   23.1431 C   0  0  2  0  0  0
  -20.6794  -26.9472   22.5558 C   0  0  0  0  0  0
  -19.5787  -26.6339   21.5371 C   0  0  0  0  0  0
  -18.1972  -26.7899   22.1792 C   0  0  0  0  0  0
  -19.1543  -28.8878   23.2973 C   0  0  0  0  0  0
  -18.9492  -30.1525   23.8875 C   0  0  0  0  0  0
  -17.6519  -30.6656   24.0559 C   0  0  0  0  0  0
  -25.9034  -34.9472   23.5151 C   0  0  0  0  0  0
  -16.5396  -29.9149   23.6359 C   0  0  0  0  0  0
  -16.7282  -28.6525   23.0447 C   0  0  0  0  0  0
  -26.4461  -31.6594   25.0714 C   0  0  0  0  0  0
  -25.3741  -31.3647   26.1477 C   0  0  0  0  0  0
  -27.0294  -30.3066   24.6002 C   0  0  0  0  0  0
  -27.6061  -32.4294   25.7460 C   0  0  0  0  0  0
  -27.5586  -37.1813   24.8465 C   0  0  0  0  0  0
  -21.4110  -29.3087   22.3823 N   0  0  0  0  0  0
  -26.4302  -37.3803   23.9408 N   0  0  0  0  0  0
  -24.6618  -31.0834   22.1032 N   0  0  0  0  0  0
  -23.4141  -28.8224   23.3113 O   0  0  0  0  0  0
  -28.4448  -26.7958   20.0172 O   0  0  0  0  0  0
  -26.5592  -34.8898   22.4712 O   0  0  0  0  0  0
  -23.5332  -32.1500   23.7550 O   0  0  0  0  0  0
  -28.3263  -21.2107   22.2952 C   0  0  0  0  0  0
  -28.6382  -19.5527   21.0558 C   0  0  0  0  0  0
  -27.6433  -22.2543   23.1192 C   0  0  0  0  0  0
  -25.8462  -21.9628   18.3196 C   0  0  0  0  0  0
  -25.3091  -23.1051   20.4145 C   0  0  0  0  0  0
  -29.6222  -15.7362   22.3141 C   0  0  0  0  0  0
  -28.3278  -18.3097   20.2440 C   0  0  0  0  0  0
  -29.5131  -17.6490   19.5076 C   0  0  0  0  0  0
  -27.9860  -24.4025   20.2730 C   0  0  0  0  0  0
  -27.7591  -23.0517   19.5304 C   0  0  0  0  0  0
  -26.5226  -20.8968   20.5141 C   0  0  0  0  0  0
  -30.5702  -16.9109   20.3653 C   0  0  0  0  0  0
  -28.5334  -25.5275   19.3652 C   0  0  0  0  0  0
  -26.4074  -22.2612   19.7340 C   0  0  0  0  0  0
  -29.5187  -20.7248   22.6484 N   0  0  0  0  0  0
  -29.7095  -19.6303   21.8542 N   0  0  0  0  0  0
  -27.7805  -20.5971   21.2172 N   0  0  0  0  0  0
  -30.1302  -15.6060   20.9396 N   0  0  0  0  0  0
  -31.4413  -12.3707   19.1071 H   0  0  0  0  0  0
  -30.2860  -11.2946   19.8354 H   0  0  0  0  0  0
  -29.7088  -11.7576   17.4338 H   0  0  0  0  0  0
  -29.6521  -13.4759   17.7547 H   0  0  0  0  0  0
  -27.8015  -11.3148   18.8155 H   0  0  0  0  0  0
  -27.3511  -12.6437   17.7807 H   0  0  0  0  0  0
  -27.6977  -14.2625   19.5679 H   0  0  0  0  0  0
  -28.6806  -11.9665   21.3286 H   0  0  0  0  0  0
  -28.4294  -13.5845   21.8552 H   0  0  0  0  0  0
  -25.2801   -9.5629   22.4834 H   0  0  0  0  0  0
  -24.0041   -7.4585   22.7451 H   0  0  0  0  0  0
  -21.0915   -8.8827   19.8947 H   0  0  0  0  0  0
  -22.3820  -10.9715   19.6209 H   0  0  0  0  0  0
  -21.2006   -7.6166   23.9754 H   0  0  0  0  0  0
  -21.1471   -6.0532   25.9093 H   0  0  0  0  0  0
  -22.0610   -2.7635   23.2850 H   0  0  0  0  0  0
  -22.4104  -11.9788   22.4728 H   0  0  0  0  0  0
  -21.1161  -13.1258   22.2748 H   0  0  0  0  0  0
  -24.6632  -15.8498   20.4630 H   0  0  0  0  0  0
  -26.2862  -15.6047   20.0534 H   0  0  0  0  0  0
  -26.7129  -32.5523   23.1206 H   0  0  0  0  0  0
  -24.9997  -33.9788   25.0465 H   0  0  0  0  0  0
  -22.6854  -31.3207   21.4254 H   0  0  0  0  0  0
  -23.3743  -35.9675   23.3325 H   0  0  0  0  0  0
  -24.3593  -36.8905   22.2061 H   0  0  0  0  0  0
  -23.7245  -37.6537   23.6637 H   0  0  0  0  0  0
  -26.0150  -31.6011   20.5836 H   0  0  0  0  0  0
  -26.8143  -30.9067   21.9638 H   0  0  0  0  0  0
  -28.0852  -29.1078   21.1584 H   0  0  0  0  0  0
  -26.0116  -26.0124   18.9515 H   0  0  0  0  0  0
  -23.9488  -27.2992   19.0617 H   0  0  0  0  0  0
  -23.6900  -30.6061   19.4137 H   0  0  0  0  0  0
  -22.7173  -29.2529   19.8847 H   0  0  0  0  0  0
  -25.1298  -36.2023   25.0851 H   0  0  0  0  0  0
  -20.9940  -28.3254   24.1560 H   0  0  0  0  0  0
  -20.5720  -26.2411   23.3799 H   0  0  0  0  0  0
  -21.6685  -26.7591   22.1369 H   0  0  0  0  0  0
  -19.7019  -25.6202   21.1551 H   0  0  0  0  0  0
  -19.6700  -27.3063   20.6834 H   0  0  0  0  0  0
  -17.4215  -26.6531   21.4245 H   0  0  0  0  0  0
  -18.0412  -26.0140   22.9300 H   0  0  0  0  0  0
  -19.7970  -30.7378   24.2154 H   0  0  0  0  0  0
  -17.5157  -31.6351   24.5147 H   0  0  0  0  0  0
  -15.5412  -30.3119   23.7699 H   0  0  0  0  0  0
  -15.8671  -28.0843   22.7216 H   0  0  0  0  0  0
  -24.5927  -30.6991   25.7794 H   0  0  0  0  0  0
  -24.8904  -32.2773   26.4980 H   0  0  0  0  0  0
  -25.8108  -30.8775   27.0211 H   0  0  0  0  0  0
  -26.2794  -29.6827   24.1118 H   0  0  0  0  0  0
  -27.4221  -29.7295   25.4386 H   0  0  0  0  0  0
  -27.8567  -30.4471   23.9036 H   0  0  0  0  0  0
  -27.2727  -33.3603   26.2082 H   0  0  0  0  0  0
  -28.3840  -32.6842   25.0238 H   0  0  0  0  0  0
  -28.0783  -31.8373   26.5327 H   0  0  0  0  0  0
  -28.2633  -38.0086   24.7518 H   0  0  0  0  0  0
  -28.1056  -36.2614   24.6312 H   0  0  0  0  0  0
  -27.2286  -37.1496   25.8862 H   0  0  0  0  0  0
  -20.9245  -29.8830   21.7085 H   0  0  0  0  0  0
  -26.0207  -38.2897   24.1369 H   0  0  0  0  0  0
  -27.9565  -22.1442   24.1567 H   0  0  0  0  0  0
  -26.5609  -22.1483   23.0932 H   0  0  0  0  0  0
  -27.9206  -23.2542   22.8049 H   0  0  0  0  0  0
  -25.6352  -22.8838   17.7703 H   0  0  0  0  0  0
  -24.9049  -21.4138   18.3605 H   0  0  0  0  0  0
  -26.5415  -21.3758   17.7158 H   0  0  0  0  0  0
  -25.1752  -24.0706   19.9276 H   0  0  0  0  0  0
  -25.5138  -23.2835   21.4690 H   0  0  0  0  0  0
  -24.3424  -22.6032   20.3668 H   0  0  0  0  0  0
  -29.9397  -16.6592   22.8037 H   0  0  0  0  0  0
  -29.9735  -14.9234   22.9535 H   0  0  0  0  0  0
  -28.5334  -15.7246   22.3248 H   0  0  0  0  0  0
  -27.5993  -18.5357   19.4718 H   0  0  0  0  0  0
  -27.8408  -17.5857   20.8960 H   0  0  0  0  0  0
  -30.0123  -18.4156   18.9091 H   0  0  0  0  0  0
  -29.1146  -16.9355   18.7848 H   0  0  0  0  0  0
  -28.7137  -24.2512   21.0662 H   0  0  0  0  0  0
  -27.1033  -24.7683   20.7930 H   0  0  0  0  0  0
  -28.6222  -22.4134   19.7135 H   0  0  0  0  0  0
  -27.8769  -23.2527   18.4657 H   0  0  0  0  0  0
  -26.3248  -20.0966   19.8086 H   0  0  0  0  0  0
  -25.7111  -20.7931   21.2356 H   0  0  0  0  0  0
  -31.4191  -16.7868   19.6926 H   0  0  0  0  0  0
  -30.9766  -17.5621   21.1359 H   0  0  0  0  0  0
  -28.0518  -25.5531   18.3882 H   0  0  0  0  0  0
  -29.5860  -25.3323   19.1533 H   0  0  0  0  0  0
  1 25  1  0  0  0
  1 30  2  0  0  0
  1 88  1  0  0  0
  2  3  1  0  0  0
  2 25  1  0  0  0
  2 89  1  0  0  0
  2 90  1  0  0  0
  3  4  1  0  0  0
  3 91  1  0  0  0
  3 92  1  0  0  0
  4  5  1  0  0  0
  4 93  1  0  0  0
  4 94  1  0  0  0
  5  6  1  0  0  0
  5 26  1  0  0  0
  5 95  1  0  0  0
  6 25  1  0  0  0
  6 96  1  0  0  0
  6 97  1  0  0  0
  7  8  2  0  0  0
  7 26  1  0  0  0
  7 29  1  0  0  0
  8  9  1  0  0  0
  8 22  1  0  0  0
  9 10  1  0  0  0
  9 27  2  0  0  0
 10 11  2  0  0  0
 10 15  1  0  0  0
 11 12  1  0  0  0
 11 98  1  0  0  0
 12 13  2  0  0  0
 12 99  1  0  0  0
 13 14  1  0  0  0
 13 31  1  0  0  0
 14 15  2  0  0  0
 14100  1  0  0  0
 15101  1  0  0  0
 16 17  2  0  0  0
 16 21  1  0  0  0
 16 31  1  0  0  0
 17 18  1  0  0  0
 17102  1  0  0  0
 18 19  2  0  0  0
 18103  1  0  0  0
 19 20  1  0  0  0
 19 24  1  0  0  0
 20 21  2  0  0  0
 20104  1  0  0  0
 21 23  1  0  0  0
 22 28  1  0  0  0
 22 32  2  0  0  0
 26 27  1  0  0  0
 28105  1  0  0  0
 28106  1  0  0  0
 29107  1  0  0  0
 29108  1  0  0  0
 33 34  1  0  0  0
 33 66  1  0  0  0
 33 70  2  0  0  0
 34 36  1  0  0  0
 34 59  1  0  0  0
 34109  1  0  0  0
 35 44  2  0  0  0
 35 45  1  0  0  0
 35 68  1  0  0  0
 36 56  1  0  0  0
 36110  1  0  0  0
 37 39  1  0  0  0
 37 47  1  0  0  0
 37 66  1  0  0  0
 37111  1  0  0  0
 38 43  2  0  0  0
 38 46  1  0  0  0
 38 47  1  0  0  0
 39 64  1  0  0  0
 39 67  2  0  0  0
 40 52  1  0  0  0
 40 53  2  0  0  0
 40 58  1  0  0  0
 41112  1  0  0  0
 41113  1  0  0  0
 41114  1  0  0  0
 41 48  1  0  0  0
 42 43  1  0  0  0
 42 66  1  0  0  0
 42115  1  0  0  0
 42116  1  0  0  0
 43 44  1  0  0  0
 44117  1  0  0  0
 45 46  2  0  0  0
 45118  1  0  0  0
 46119  1  0  0  0
 47120  1  0  0  0
 47121  1  0  0  0
 48 56  1  0  0  0
 48 65  1  0  0  0
 48122  1  0  0  0
 49 50  1  0  0  0
 49 53  1  0  0  0
 49 64  1  0  0  0
 49123  1  0  0  0
 50 51  1  0  0  0
 50124  1  0  0  0
 50125  1  0  0  0
 51 52  1  0  0  0
 51126  1  0  0  0
 51127  1  0  0  0
 52128  1  0  0  0
 52129  1  0  0  0
 53 54  1  0  0  0
 54 55  2  0  0  0
 54130  1  0  0  0
 55 57  1  0  0  0
 55131  1  0  0  0
 56 69  2  0  0  0
 57 58  2  0  0  0
 57132  1  0  0  0
 58133  1  0  0  0
 59 60  1  0  0  0
 59 61  1  0  0  0
 59 62  1  0  0  0
 60134  1  0  0  0
 60135  1  0  0  0
 60136  1  0  0  0
 61137  1  0  0  0
 61138  1  0  0  0
 61139  1  0  0  0
 62140  1  0  0  0
 62141  1  0  0  0
 62142  1  0  0  0
 63 65  1  0  0  0
 63143  1  0  0  0
 63144  1  0  0  0
 63145  1  0  0  0
 64146  1  0  0  0
 65147  1  0  0  0
 68 83  1  0  0  0
 71 73  1  0  0  0
 71 85  2  0  0  0
 71 87  1  0  0  0
 72 77  1  0  0  0
 72 86  2  0  0  0
 72 87  1  0  0  0
 73148  1  0  0  0
 73149  1  0  0  0
 73150  1  0  0  0
 74151  1  0  0  0
 74152  1  0  0  0
 74153  1  0  0  0
 74 84  1  0  0  0
 75 84  1  0  0  0
 75154  1  0  0  0
 75155  1  0  0  0
 75156  1  0  0  0
 76 88  1  0  0  0
 76157  1  0  0  0
 76158  1  0  0  0
 76159  1  0  0  0
 77 78  1  0  0  0
 77160  1  0  0  0
 77161  1  0  0  0
 78 82  1  0  0  0
 78162  1  0  0  0
 78163  1  0  0  0
 79 80  1  0  0  0
 79 83  1  0  0  0
 79164  1  0  0  0
 79165  1  0  0  0
 80 84  1  0  0  0
 80166  1  0  0  0
 80167  1  0  0  0
 81 84  1  0  0  0
 81 87  1  0  0  0
 81168  1  0  0  0
 81169  1  0  0  0
 82 88  1  0  0  0
 82170  1  0  0  0
 82171  1  0  0  0
 83172  1  0  0  0
 83173  1  0  0  0
 85 86  1  0  0  0
M  ISO  4   1 100  68 101  83 101  88 100
M  END
> <chiral flag>
0

> <version>
0

> <s_m_source_file>
/data/baiqing/PycharmProjects/Reinvent-master-3.2/result/LINK_invent/BTK/process_docking_weight1_custom_sum_contain_oxygen_bond_distance_aromatic_linkinvent_7_9_3/rearranged_h_0076.sdf

> <i_m_source_file_index>
71

> <r_mmod_Potential_Energy-OPLS-2005>
145.731521606445

> <r_mmod_Stretch_Energy-OPLS-2005>
47.1738128662109

> <r_mmod_Bend_Energy-OPLS-2005>
156.400604248047

> <r_mmod_Torsional_Energy-OPLS-2005>
314.652038574219

> <r_mmod_Improper_Torsional_Energy-OPLS-2005>
11.862096786499

> <r_mmod_Van_der_Waal_Energy-OPLS-2005>
157.371444702148

> <r_mmod_Electrostatic_Energy-OPLS-2005>
-337.732055664062

> <r_mmod_Solvation_Energy-OPLS-2005>
-219.744400024414

> <b_mmod_Minimization_Converged-OPLS-2005>
0

> <r_mmod_RMS_Derivative-OPLS-2005>
5.28411769866943

$$$$
71
                    3D
 Structure written by MMmdl.
175183  0  0  1  0            999 V2000
  -30.7683  -14.5025   20.5223 C   0  0  0  0  0  0
  -30.4235  -12.3004   19.4553 C   0  0  0  0  0  0
  -29.4958  -12.3968   18.2214 C   0  0  0  0  0  0
  -28.0112  -12.3297   18.6317 C   0  0  0  0  0  0
  -27.6559  -13.2064   19.8616 C   0  0  2  0  0  0
  -28.7062  -13.0412   20.9776 C   0  0  0  0  0  0
  -25.2578  -13.8201   20.5727 C   0  0  0  0  0  0
  -24.1827  -13.0487   20.9227 C   0  0  0  0  0  0
  -24.6361  -11.6938   20.8809 C   0  0  0  0  0  0
  -23.9031  -10.4309   21.0440 C   0  0  0  0  0  0
  -24.3572   -9.4201   21.9201 C   0  0  0  0  0  0
  -23.6259   -8.2232   22.0743 C   0  0  0  0  0  0
  -22.4250   -8.0265   21.3528 C   0  0  0  0  0  0
  -21.9904   -9.0255   20.4632 C   0  0  0  0  0  0
  -22.7223  -10.2151   20.3055 C   0  0  0  0  0  0
  -21.6852   -6.0714   22.5272 C   0  0  0  0  0  0
  -21.4018   -6.5623   23.8211 C   0  0  0  0  0  0
  -21.3643   -5.6775   24.9176 C   0  0  0  0  0  0
  -21.6024   -4.3038   24.7227 C   0  0  0  0  0  0
  -21.8831   -3.8123   23.4360 C   0  0  0  0  0  0
  -21.9199   -4.6936   22.3407 C   0  0  0  0  0  0
  -22.7826  -13.5255   21.1885 C   0  0  0  0  0  0
  -22.1674   -4.2105   21.0992 F   0  0  0  0  0  0
  -21.5633   -3.4531   25.7756 F   0  0  0  0  0  0
  -30.0327  -13.3494   20.4209 N   0  0  0  0  0  0
  -26.3001  -12.9352   20.3382 N   0  0  0  0  0  0
  -25.9298  -11.6525   20.5865 N   0  0  0  0  0  0
  -22.0453  -12.8235   22.0427 N   0  0  0  0  0  0
  -25.4331  -15.1932   20.4128 N   0  0  0  0  0  0
  -31.9205  -14.5118   20.0844 O   0  0  0  0  0  0
  -21.6618   -6.8859   21.4224 O   0  0  0  0  0  0
  -22.3498  -14.5556   20.6715 O   0  0  0  0  0  0
  -24.6097  -31.8727   23.2149 C   0  0  0  0  0  0
  -25.9012  -32.4856   23.8422 C   0  0  1  0  0  0
  -27.2340  -27.4667   20.0808 C   0  0  0  0  0  0
  -25.5875  -33.8648   24.2353 N   0  0  0  0  0  0
  -23.3953  -30.5008   21.5507 C   0  0  2  0  0  0
  -24.8411  -28.9694   20.1149 C   0  0  0  0  0  0
  -22.7393  -29.4706   22.4969 C   0  0  0  0  0  0
  -18.0258  -28.1403   22.8469 C   0  0  0  0  0  0
  -24.1486  -36.7363   23.2635 C   0  0  0  0  0  0
  -25.9206  -30.8443   21.3646 C   0  0  0  0  0  0
  -25.9964  -29.4777   20.7211 C   0  0  0  0  0  0
  -27.1889  -28.7259   20.7159 C   0  0  0  0  0  0
  -26.0623  -26.9722   19.4618 C   0  0  0  0  0  0
  -24.8676  -27.7135   19.4879 C   0  0  0  0  0  0
  -23.6047  -29.8367   20.1646 C   0  0  0  0  0  0
  -25.4102  -36.3140   24.0330 C   0  0  1  0  0  0
  -20.5859  -28.3690   23.1325 C   0  0  2  0  0  0
  -20.6752  -26.9436   22.5413 C   0  0  0  0  0  0
  -19.5735  -26.6392   21.5214 C   0  0  0  0  0  0
  -18.1908  -26.7939   22.1621 C   0  0  0  0  0  0
  -19.1508  -28.8854   23.2899 C   0  0  0  0  0  0
  -18.9444  -30.1449   23.8927 C   0  0  0  0  0  0
  -17.6440  -30.6601   24.0580 C   0  0  0  0  0  0
  -25.9015  -34.9501   23.5144 C   0  0  0  0  0  0
  -16.5340  -29.9122   23.6318 C   0  0  0  0  0  0
  -16.7246  -28.6537   23.0310 C   0  0  0  0  0  0
  -26.4438  -31.6632   25.0743 C   0  0  0  0  0  0
  -25.3683  -31.3725   26.1479 C   0  0  0  0  0  0
  -27.0294  -30.3084   24.6104 C   0  0  0  0  0  0
  -27.6024  -32.4339   25.7509 C   0  0  0  0  0  0
  -27.5582  -37.1845   24.8453 C   0  0  0  0  0  0
  -21.4115  -29.3066   22.3737 N   0  0  0  0  0  0
  -26.4300  -37.3814   23.9393 N   0  0  0  0  0  0
  -24.6601  -31.0867   22.1023 N   0  0  0  0  0  0
  -23.4193  -28.8245   23.2982 O   0  0  0  0  0  0
  -28.4350  -26.7948   20.0991 O   0  0  0  0  0  0
  -26.5595  -34.8960   22.4717 O   0  0  0  0  0  0
  -23.5301  -32.1478   23.7543 O   0  0  0  0  0  0
  -29.2140  -16.0796   18.5428 C   0  0  0  0  0  0
  -28.3166  -16.9681   17.9092 C   0  0  0  0  0  0
  -29.3471  -16.5132   19.8372 C   0  0  0  0  0  0
  -27.8555  -16.9626   16.4843 C   0  0  0  0  0  0
  -30.5879  -21.0668   22.1595 C   0  0  0  0  0  0
  -29.0832  -23.1460   17.8526 C   0  0  0  0  0  0
  -29.4919  -15.8624   22.3273 C   0  0  0  0  0  0
  -31.4308  -16.8566   21.1691 C   0  0  0  0  0  0
  -29.3812  -20.0342   20.1847 C   0  0  0  0  0  0
  -28.0835  -24.3500   19.9138 C   0  0  0  0  0  0
  -29.8802  -22.5192   20.2000 C   0  0  0  0  0  0
  -28.6405  -18.8315   20.8145 C   0  0  0  0  0  0
  -28.6247  -25.6499   19.2778 C   0  0  0  0  0  0
  -29.5231  -21.2913   21.0707 C   0  0  2  0  0  0
  -28.6976  -23.0468   19.3420 C   0  0  2  0  0  0
  -30.2071  -15.9168   20.9590 C   0  0  0  0  0  0
  -27.9424  -17.9270   18.7252 N   0  0  0  0  0  0
  -28.6431  -17.7230   19.8675 N   0  0  0  0  0  0
  -31.4681  -12.3547   19.1437 H   0  0  0  0  0  0
  -30.3271  -11.3209   19.9267 H   0  0  0  0  0  0
  -29.7178  -11.5723   17.5423 H   0  0  0  0  0  0
  -29.6962  -13.2889   17.6369 H   0  0  0  0  0  0
  -27.8008  -11.2887   18.8708 H   0  0  0  0  0  0
  -27.3624  -12.5810   17.7913 H   0  0  0  0  0  0
  -27.6752  -14.2391   19.5295 H   0  0  0  0  0  0
  -28.7000  -12.0139   21.3431 H   0  0  0  0  0  0
  -28.4475  -13.6327   21.8462 H   0  0  0  0  0  0
  -25.2716   -9.5692   22.4784 H   0  0  0  0  0  0
  -23.9964   -7.4619   22.7466 H   0  0  0  0  0  0
  -21.0847   -8.8781   19.8933 H   0  0  0  0  0  0
  -22.3680  -10.9691   19.6152 H   0  0  0  0  0  0
  -21.2011   -7.6132   23.9713 H   0  0  0  0  0  0
  -21.1458   -6.0503   25.9081 H   0  0  0  0  0  0
  -22.0630   -2.7579   23.2880 H   0  0  0  0  0  0
  -22.4066  -11.9864   22.4746 H   0  0  0  0  0  0
  -21.1057  -13.1216   22.2650 H   0  0  0  0  0  0
  -24.6691  -15.8542   20.5092 H   0  0  0  0  0  0
  -26.2886  -15.6269   20.0849 H   0  0  0  0  0  0
  -26.7093  -32.5609   23.1208 H   0  0  0  0  0  0
  -24.9965  -33.9800   25.0458 H   0  0  0  0  0  0
  -22.6798  -31.3154   21.4147 H   0  0  0  0  0  0
  -23.3743  -35.9708   23.3300 H   0  0  0  0  0  0
  -24.3571  -36.8972   22.2046 H   0  0  0  0  0  0
  -23.7263  -37.6573   23.6658 H   0  0  0  0  0  0
  -26.0168  -31.6018   20.5858 H   0  0  0  0  0  0
  -26.8151  -30.9121   21.9714 H   0  0  0  0  0  0
  -28.0804  -29.1156   21.1879 H   0  0  0  0  0  0
  -26.0459  -26.0296   18.9388 H   0  0  0  0  0  0
  -23.9825  -27.3203   19.0069 H   0  0  0  0  0  0
  -23.7218  -30.6133   19.4083 H   0  0  0  0  0  0
  -22.7256  -29.2621   19.8647 H   0  0  0  0  0  0
  -25.1285  -36.2000   25.0821 H   0  0  0  0  0  0
  -20.9926  -28.3267   24.1460 H   0  0  0  0  0  0
  -20.5647  -26.2317   23.3605 H   0  0  0  0  0  0
  -21.6629  -26.7467   22.1239 H   0  0  0  0  0  0
  -19.6909  -25.6301   21.1251 H   0  0  0  0  0  0
  -19.6687  -27.3197   20.6748 H   0  0  0  0  0  0
  -17.4179  -26.6658   21.4025 H   0  0  0  0  0  0
  -18.0324  -26.0093   22.9025 H   0  0  0  0  0  0
  -19.7915  -30.7239   24.2335 H   0  0  0  0  0  0
  -17.5012  -31.6286   24.5189 H   0  0  0  0  0  0
  -15.5341  -30.3042   23.7624 H   0  0  0  0  0  0
  -15.8637  -28.0893   22.6992 H   0  0  0  0  0  0
  -24.5849  -30.7087   25.7800 H   0  0  0  0  0  0
  -24.8878  -32.2872   26.4951 H   0  0  0  0  0  0
  -25.7994  -30.8863   27.0233 H   0  0  0  0  0  0
  -26.2863  -29.6848   24.1101 H   0  0  0  0  0  0
  -27.4028  -29.7304   25.4573 H   0  0  0  0  0  0
  -27.8708  -30.4454   23.9307 H   0  0  0  0  0  0
  -27.2660  -33.3630   26.2128 H   0  0  0  0  0  0
  -28.3813  -32.6887   25.0312 H   0  0  0  0  0  0
  -28.0720  -31.8424   26.5379 H   0  0  0  0  0  0
  -28.2597  -38.0147   24.7497 H   0  0  0  0  0  0
  -28.1073  -36.2670   24.6274 H   0  0  0  0  0  0
  -27.2289  -37.1481   25.8853 H   0  0  0  0  0  0
  -20.9258  -29.8865   21.7039 H   0  0  0  0  0  0
  -26.0194  -38.2897   24.1377 H   0  0  0  0  0  0
  -29.7124  -15.2491   18.0834 H   0  0  0  0  0  0
  -28.2294  -16.0874   15.9520 H   0  0  0  0  0  0
  -28.2176  -17.8472   15.9590 H   0  0  0  0  0  0
  -26.7667  -16.9577   16.4144 H   0  0  0  0  0  0
  -30.2816  -20.3017   22.8731 H   0  0  0  0  0  0
  -30.7763  -21.9761   22.7301 H   0  0  0  0  0  0
  -31.5378  -20.7535   21.7223 H   0  0  0  0  0  0
  -28.2427  -23.4612   17.2329 H   0  0  0  0  0  0
  -29.4150  -22.1784   17.4760 H   0  0  0  0  0  0
  -29.8994  -23.8505   17.6859 H   0  0  0  0  0  0
  -28.4203  -15.7120   22.2178 H   0  0  0  0  0  0
  -29.6093  -16.7869   22.8846 H   0  0  0  0  0  0
  -29.9027  -15.0811   22.9690 H   0  0  0  0  0  0
  -31.1548  -17.8527   21.5043 H   0  0  0  0  0  0
  -31.9928  -16.9997   20.2449 H   0  0  0  0  0  0
  -32.1163  -16.4571   21.9175 H   0  0  0  0  0  0
  -28.8598  -20.3034   19.2666 H   0  0  0  0  0  0
  -30.3691  -19.7167   19.8479 H   0  0  0  0  0  0
  -27.0002  -24.3068   19.7954 H   0  0  0  0  0  0
  -28.2347  -24.3856   20.9930 H   0  0  0  0  0  0
  -30.7192  -22.2455   19.5594 H   0  0  0  0  0  0
  -30.2640  -23.3281   20.8256 H   0  0  0  0  0  0
  -27.6096  -19.1031   21.0462 H   0  0  0  0  0  0
  -29.0982  -18.5393   21.7505 H   0  0  0  0  0  0
  -28.2269  -25.8081   18.2734 H   0  0  0  0  0  0
  -29.7020  -25.5635   19.1565 H   0  0  0  0  0  0
  -28.5698  -21.4899   21.5624 H   0  0  0  0  0  0
  -27.8995  -22.3041   19.3800 H   0  0  0  0  0  0
  1 25  1  0  0  0
  1 30  2  0  0  0
  1 86  1  0  0  0
  2  3  1  0  0  0
  2 25  1  0  0  0
  2 89  1  0  0  0
  2 90  1  0  0  0
  3  4  1  0  0  0
  3 91  1  0  0  0
  3 92  1  0  0  0
  4  5  1  0  0  0
  4 93  1  0  0  0
  4 94  1  0  0  0
  5  6  1  0  0  0
  5 26  1  0  0  0
  5 95  1  0  0  0
  6 25  1  0  0  0
  6 96  1  0  0  0
  6 97  1  0  0  0
  7  8  2  0  0  0
  7 26  1  0  0  0
  7 29  1  0  0  0
  8  9  1  0  0  0
  8 22  1  0  0  0
  9 10  1  0  0  0
  9 27  2  0  0  0
 10 11  2  0  0  0
 10 15  1  0  0  0
 11 12  1  0  0  0
 11 98  1  0  0  0
 12 13  2  0  0  0
 12 99  1  0  0  0
 13 14  1  0  0  0
 13 31  1  0  0  0
 14 15  2  0  0  0
 14100  1  0  0  0
 15101  1  0  0  0
 16 17  2  0  0  0
 16 21  1  0  0  0
 16 31  1  0  0  0
 17 18  1  0  0  0
 17102  1  0  0  0
 18 19  2  0  0  0
 18103  1  0  0  0
 19 20  1  0  0  0
 19 24  1  0  0  0
 20 21  2  0  0  0
 20104  1  0  0  0
 21 23  1  0  0  0
 22 28  1  0  0  0
 22 32  2  0  0  0
 26 27  1  0  0  0
 28105  1  0  0  0
 28106  1  0  0  0
 29107  1  0  0  0
 29108  1  0  0  0
 33 34  1  0  0  0
 33 66  1  0  0  0
 33 70  2  0  0  0
 34 36  1  0  0  0
 34 59  1  0  0  0
 34109  1  0  0  0
 35 44  2  0  0  0
 35 45  1  0  0  0
 35 68  1  0  0  0
 36 56  1  0  0  0
 36110  1  0  0  0
 37 39  1  0  0  0
 37 47  1  0  0  0
 37 66  1  0  0  0
 37111  1  0  0  0
 38 43  2  0  0  0
 38 46  1  0  0  0
 38 47  1  0  0  0
 39 64  1  0  0  0
 39 67  2  0  0  0
 40 52  1  0  0  0
 40 53  2  0  0  0
 40 58  1  0  0  0
 41112  1  0  0  0
 41113  1  0  0  0
 41114  1  0  0  0
 41 48  1  0  0  0
 42 43  1  0  0  0
 42 66  1  0  0  0
 42115  1  0  0  0
 42116  1  0  0  0
 43 44  1  0  0  0
 44117  1  0  0  0
 45 46  2  0  0  0
 45118  1  0  0  0
 46119  1  0  0  0
 47120  1  0  0  0
 47121  1  0  0  0
 48 56  1  0  0  0
 48 65  1  0  0  0
 48122  1  0  0  0
 49 50  1  0  0  0
 49 53  1  0  0  0
 49 64  1  0  0  0
 49123  1  0  0  0
 50 51  1  0  0  0
 50124  1  0  0  0
 50125  1  0  0  0
 51 52  1  0  0  0
 51126  1  0  0  0
 51127  1  0  0  0
 52128  1  0  0  0
 52129  1  0  0  0
 53 54  1  0  0  0
 54 55  2  0  0  0
 54130  1  0  0  0
 55 57  1  0  0  0
 55131  1  0  0  0
 56 69  2  0  0  0
 57 58  2  0  0  0
 57132  1  0  0  0
 58133  1  0  0  0
 59 60  1  0  0  0
 59 61  1  0  0  0
 59 62  1  0  0  0
 60134  1  0  0  0
 60135  1  0  0  0
 60136  1  0  0  0
 61137  1  0  0  0
 61138  1  0  0  0
 61139  1  0  0  0
 62140  1  0  0  0
 62141  1  0  0  0
 62142  1  0  0  0
 63 65  1  0  0  0
 63143  1  0  0  0
 63144  1  0  0  0
 63145  1  0  0  0
 64146  1  0  0  0
 65147  1  0  0  0
 68 83  1  0  0  0
 71 72  1  0  0  0
 71 73  2  0  0  0
 71148  1  0  0  0
 72 74  1  0  0  0
 72 87  2  0  0  0
 73 86  1  0  0  0
 73 88  1  0  0  0
 74149  1  0  0  0
 74150  1  0  0  0
 74151  1  0  0  0
 75152  1  0  0  0
 75153  1  0  0  0
 75154  1  0  0  0
 75 84  1  0  0  0
 76155  1  0  0  0
 76156  1  0  0  0
 76157  1  0  0  0
 76 85  1  0  0  0
 77158  1  0  0  0
 77159  1  0  0  0
 77160  1  0  0  0
 77 86  1  0  0  0
 78 86  1  0  0  0
 78161  1  0  0  0
 78162  1  0  0  0
 78163  1  0  0  0
 79 82  1  0  0  0
 79 84  1  0  0  0
 79164  1  0  0  0
 79165  1  0  0  0
 80 83  1  0  0  0
 80 85  1  0  0  0
 80166  1  0  0  0
 80167  1  0  0  0
 81 84  1  0  0  0
 81 85  1  0  0  0
 81168  1  0  0  0
 81169  1  0  0  0
 82 88  1  0  0  0
 82170  1  0  0  0
 82171  1  0  0  0
 83172  1  0  0  0
 83173  1  0  0  0
 84174  1  0  0  0
 85175  1  0  0  0
 87 88  1  0  0  0
M  ISO  4   1 100  68 101  83 101  86 100
M  END
> <chiral flag>
0

> <version>
0

> <s_m_source_file>
/data/baiqing/PycharmProjects/Reinvent-master-3.2/result/LINK_invent/BTK/process_docking_weight1_custom_sum_contain_oxygen_bond_distance_aromatic_linkinvent_7_9_3/rearranged_h_0076.sdf

> <i_m_source_file_index>
72

> <r_mmod_Potential_Energy-OPLS-2005>
94.7834625244141

> <r_mmod_Stretch_Energy-OPLS-2005>
44.0331077575684

> <r_mmod_Bend_Energy-OPLS-2005>
133.374588012695

> <r_mmod_Torsional_Energy-OPLS-2005>
242.025848388672

> <r_mmod_Improper_Torsional_Energy-OPLS-2005>
5.01228380203247

> <r_mmod_Van_der_Waal_Energy-OPLS-2005>
147.760894775391

> <r_mmod_Electrostatic_Energy-OPLS-2005>
-325.021331787109

> <r_mmod_Solvation_Energy-OPLS-2005>
-175.343338012695

> <b_mmod_Minimization_Converged-OPLS-2005>
0

> <r_mmod_RMS_Derivative-OPLS-2005>
3.57107973098755

$$$$
72
                    3D
 Structure written by MMmdl.
172180  0  0  1  0            999 V2000
  -30.7143  -14.4806   20.5899 C   0  0  0  0  0  0
  -30.4257  -12.3195   19.4340 C   0  0  0  0  0  0
  -29.5042  -12.5309   18.2139 C   0  0  0  0  0  0
  -28.0251  -12.3751   18.6191 C   0  0  0  0  0  0
  -27.6617  -13.2118   19.8744 C   0  0  2  0  0  0
  -28.7028  -13.0000   21.0003 C   0  0  0  0  0  0
  -25.2500  -13.8105   20.5590 C   0  0  0  0  0  0
  -24.1815  -13.0388   20.9164 C   0  0  0  0  0  0
  -24.6387  -11.6866   20.8706 C   0  0  0  0  0  0
  -23.9067  -10.4262   21.0356 C   0  0  0  0  0  0
  -24.3627   -9.4184   21.9134 C   0  0  0  0  0  0
  -23.6296   -8.2230   22.0729 C   0  0  0  0  0  0
  -22.4266   -8.0272   21.3552 C   0  0  0  0  0  0
  -21.9905   -9.0234   20.4637 C   0  0  0  0  0  0
  -22.7228  -10.2103   20.3013 C   0  0  0  0  0  0
  -21.6862   -6.0721   22.5277 C   0  0  0  0  0  0
  -21.4012   -6.5627   23.8203 C   0  0  0  0  0  0
  -21.3669   -5.6781   24.9171 C   0  0  0  0  0  0
  -21.6065   -4.3047   24.7228 C   0  0  0  0  0  0
  -21.8826   -3.8142   23.4347 C   0  0  0  0  0  0
  -21.9196   -4.6956   22.3399 C   0  0  0  0  0  0
  -22.7849  -13.5188   21.1882 C   0  0  0  0  0  0
  -22.1676   -4.2134   21.0988 F   0  0  0  0  0  0
  -21.5622   -3.4520   25.7743 F   0  0  0  0  0  0
  -30.0419  -13.3017   20.4579 N   0  0  0  0  0  0
  -26.3007  -12.9337   20.3332 N   0  0  0  0  0  0
  -25.9322  -11.6488   20.5736 N   0  0  0  0  0  0
  -22.0529  -12.8156   22.0447 N   0  0  0  0  0  0
  -25.4003  -15.1810   20.3894 N   0  0  0  0  0  0
  -31.8141  -14.6952   20.0751 O   0  0  0  0  0  0
  -21.6644   -6.8861   21.4244 O   0  0  0  0  0  0
  -22.3504  -14.5506   20.6732 O   0  0  0  0  0  0
  -24.6198  -31.8701   23.2127 C   0  0  0  0  0  0
  -25.9065  -32.4838   23.8431 C   0  0  1  0  0  0
  -27.2171  -27.4049   20.0499 C   0  0  0  0  0  0
  -25.5893  -33.8643   24.2360 N   0  0  0  0  0  0
  -23.4086  -30.4996   21.5602 C   0  0  2  0  0  0
  -24.8481  -28.9772   20.1147 C   0  0  0  0  0  0
  -22.7438  -29.4676   22.5012 C   0  0  0  0  0  0
  -18.0277  -28.1376   22.8505 C   0  0  0  0  0  0
  -24.1486  -36.7314   23.2647 C   0  0  0  0  0  0
  -25.9510  -30.8192   21.3801 C   0  0  0  0  0  0
  -26.0233  -29.4598   20.7088 C   0  0  0  0  0  0
  -27.2125  -28.6829   20.6744 C   0  0  0  0  0  0
  -26.0156  -26.9765   19.4285 C   0  0  0  0  0  0
  -24.8409  -27.7354   19.4762 C   0  0  0  0  0  0
  -23.6156  -29.8486   20.1719 C   0  0  0  0  0  0
  -25.4113  -36.3143   24.0353 C   0  0  1  0  0  0
  -20.5879  -28.3674   23.1299 C   0  0  2  0  0  0
  -20.6766  -26.9404   22.5403 C   0  0  0  0  0  0
  -19.5729  -26.6384   21.5216 C   0  0  0  0  0  0
  -18.1918  -26.7920   22.1637 C   0  0  0  0  0  0
  -19.1530  -28.8839   23.2908 C   0  0  0  0  0  0
  -18.9451  -30.1440   23.8924 C   0  0  0  0  0  0
  -17.6450  -30.6583   24.0566 C   0  0  0  0  0  0
  -25.9039  -34.9498   23.5169 C   0  0  0  0  0  0
  -16.5348  -29.9087   23.6327 C   0  0  0  0  0  0
  -16.7268  -28.6499   23.0358 C   0  0  0  0  0  0
  -26.4443  -31.6591   25.0765 C   0  0  0  0  0  0
  -25.3648  -31.3698   26.1458 C   0  0  0  0  0  0
  -27.0256  -30.3021   24.6158 C   0  0  0  0  0  0
  -27.6033  -32.4279   25.7516 C   0  0  0  0  0  0
  -27.5594  -37.1821   24.8466 C   0  0  0  0  0  0
  -21.4158  -29.3043   22.3713 N   0  0  0  0  0  0
  -26.4311  -37.3816   23.9403 N   0  0  0  0  0  0
  -24.6790  -31.0747   22.1075 N   0  0  0  0  0  0
  -23.4217  -28.8192   23.3037 O   0  0  0  0  0  0
  -28.3467  -26.5839   20.0666 O   0  0  0  0  0  0
  -26.5611  -34.8936   22.4742 O   0  0  0  0  0  0
  -23.5370  -32.1479   23.7482 O   0  0  0  0  0  0
  -29.1163  -19.8181   22.4131 C   0  0  0  0  0  0
  -29.0964  -20.3299   20.2548 C   0  0  0  0  0  0
  -29.1564  -19.2510   21.1095 C   0  0  0  0  0  0
  -28.8046  -21.1465   22.3242 C   0  0  0  0  0  0
  -28.4291  -22.0786   23.4385 C   0  0  0  0  0  0
  -29.8454  -23.6813   17.7390 C   0  0  0  0  0  0
  -28.8743  -17.5437   19.2686 C   0  0  0  0  0  0
  -27.8187  -17.2185   21.5206 C   0  0  0  0  0  0
  -29.7146  -24.4127   21.5993 C   0  0  0  0  0  0
  -30.2283  -23.8850   19.2193 C   0  0  0  0  0  0
  -28.2244  -22.7145   20.3627 C   0  0  0  0  0  0
  -30.3129  -16.9100   21.2563 C   0  0  0  0  0  0
  -28.0622  -25.1728   19.8580 C   0  0  0  0  0  0
  -29.0755  -17.7457   20.7859 C   0  0  0  0  0  0
  -29.0750  -24.0426   20.2530 C   0  0  1  0  0  0
  -28.7667  -21.4792   20.9702 N   0  0  0  0  0  0
  -30.0375  -15.4548   21.2208 N   0  0  0  0  0  0
  -31.4732  -12.4113   19.1476 H   0  0  0  0  0  0
  -30.3209  -11.3073   19.8329 H   0  0  0  0  0  0
  -29.7558  -11.8175   17.4266 H   0  0  0  0  0  0
  -29.6691  -13.5266   17.7944 H   0  0  0  0  0  0
  -27.8537  -11.3160   18.8161 H   0  0  0  0  0  0
  -27.3731  -12.6451   17.7872 H   0  0  0  0  0  0
  -27.7026  -14.2598   19.5795 H   0  0  0  0  0  0
  -28.6711  -11.9683   21.3528 H   0  0  0  0  0  0
  -28.4499  -13.6035   21.8749 H   0  0  0  0  0  0
  -25.2762   -9.5682   22.4706 H   0  0  0  0  0  0
  -24.0027   -7.4614   22.7422 H   0  0  0  0  0  0
  -21.0839   -8.8750   19.8932 H   0  0  0  0  0  0
  -22.3679  -10.9652   19.6135 H   0  0  0  0  0  0
  -21.2009   -7.6130   23.9721 H   0  0  0  0  0  0
  -21.1487   -6.0494   25.9075 H   0  0  0  0  0  0
  -22.0601   -2.7602   23.2845 H   0  0  0  0  0  0
  -22.4195  -11.9849   22.4873 H   0  0  0  0  0  0
  -21.1147  -13.1161   22.2654 H   0  0  0  0  0  0
  -24.6227  -15.8207   20.5133 H   0  0  0  0  0  0
  -26.2471  -15.6459   20.0931 H   0  0  0  0  0  0
  -26.7148  -32.5533   23.1193 H   0  0  0  0  0  0
  -24.9972  -33.9797   25.0456 H   0  0  0  0  0  0
  -22.7021  -31.3219   21.4285 H   0  0  0  0  0  0
  -23.3772  -35.9620   23.3317 H   0  0  0  0  0  0
  -24.3586  -36.8918   22.2061 H   0  0  0  0  0  0
  -23.7192  -37.6507   23.6649 H   0  0  0  0  0  0
  -26.0816  -31.5918   20.6220 H   0  0  0  0  0  0
  -26.8314  -30.8549   22.0093 H   0  0  0  0  0  0
  -28.1179  -29.0473   21.1390 H   0  0  0  0  0  0
  -25.9330  -26.0437   18.8941 H   0  0  0  0  0  0
  -23.9398  -27.3607   19.0110 H   0  0  0  0  0  0
  -23.7348  -30.6319   19.4218 H   0  0  0  0  0  0
  -22.7327  -29.2816   19.8700 H   0  0  0  0  0  0
  -25.1286  -36.2043   25.0847 H   0  0  0  0  0  0
  -20.9987  -28.3238   24.1414 H   0  0  0  0  0  0
  -20.5686  -26.2280   23.3599 H   0  0  0  0  0  0
  -21.6631  -26.7446   22.1180 H   0  0  0  0  0  0
  -19.6885  -25.6306   21.1219 H   0  0  0  0  0  0
  -19.6643  -27.3216   20.6767 H   0  0  0  0  0  0
  -17.4178  -26.6690   21.4045 H   0  0  0  0  0  0
  -18.0309  -26.0056   22.9028 H   0  0  0  0  0  0
  -19.7925  -30.7250   24.2319 H   0  0  0  0  0  0
  -17.5004  -31.6264   24.5153 H   0  0  0  0  0  0
  -15.5348  -30.2998   23.7614 H   0  0  0  0  0  0
  -15.8670  -28.0817   22.7071 H   0  0  0  0  0  0
  -24.5783  -30.7132   25.7713 H   0  0  0  0  0  0
  -24.8872  -32.2858   26.4952 H   0  0  0  0  0  0
  -25.7900  -30.8761   27.0196 H   0  0  0  0  0  0
  -26.2833  -29.6833   24.1101 H   0  0  0  0  0  0
  -27.3877  -29.7211   25.4643 H   0  0  0  0  0  0
  -27.8740  -30.4329   23.9435 H   0  0  0  0  0  0
  -27.2682  -33.3563   26.2140 H   0  0  0  0  0  0
  -28.3798  -32.6846   25.0303 H   0  0  0  0  0  0
  -28.0728  -31.8354   26.5369 H   0  0  0  0  0  0
  -28.2626  -38.0110   24.7532 H   0  0  0  0  0  0
  -28.1077  -36.2647   24.6276 H   0  0  0  0  0  0
  -27.2307  -37.1452   25.8867 H   0  0  0  0  0  0
  -20.9336  -29.8794   21.6942 H   0  0  0  0  0  0
  -26.0221  -38.2908   24.1388 H   0  0  0  0  0  0
  -29.1462  -19.2650   23.3423 H   0  0  0  0  0  0
  -29.1010  -20.3592   19.1723 H   0  0  0  0  0  0
  -27.9664  -21.5268   24.2583 H   0  0  0  0  0  0
  -27.7119  -22.8390   23.1311 H   0  0  0  0  0  0
  -29.3082  -22.5779   23.8419 H   0  0  0  0  0  0
  -30.7398  -23.4940   17.1440 H   0  0  0  0  0  0
  -29.3671  -24.5619   17.3077 H   0  0  0  0  0  0
  -29.1868  -22.8271   17.5899 H   0  0  0  0  0  0
  -28.0032  -18.0945   18.9128 H   0  0  0  0  0  0
  -28.7137  -16.4962   19.0107 H   0  0  0  0  0  0
  -29.7420  -17.8866   18.7049 H   0  0  0  0  0  0
  -26.9240  -17.7671   21.2283 H   0  0  0  0  0  0
  -27.9154  -17.3136   22.6039 H   0  0  0  0  0  0
  -27.6240  -16.1682   21.3241 H   0  0  0  0  0  0
  -30.3791  -23.6249   21.9533 H   0  0  0  0  0  0
  -28.9615  -24.6041   22.3621 H   0  0  0  0  0  0
  -30.3123  -25.3201   21.5127 H   0  0  0  0  0  0
  -30.8813  -24.7554   19.2731 H   0  0  0  0  0  0
  -30.8487  -23.0407   19.5209 H   0  0  0  0  0  0
  -27.8431  -22.4512   19.3770 H   0  0  0  0  0  0
  -27.3137  -22.9193   20.9248 H   0  0  0  0  0  0
  -30.5596  -17.1691   22.2854 H   0  0  0  0  0  0
  -31.1948  -17.1621   20.6632 H   0  0  0  0  0  0
  -27.1702  -24.9773   20.4552 H   0  0  0  0  0  0
  -27.7713  -25.0169   18.8196 H   0  0  0  0  0  0
  -29.1578  -15.1762   21.6256 H   0  0  0  0  0  0
  1 25  1  0  0  0
  1 30  2  0  0  0
  1 87  1  0  0  0
  2  3  1  0  0  0
  2 25  1  0  0  0
  2 88  1  0  0  0
  2 89  1  0  0  0
  3  4  1  0  0  0
  3 90  1  0  0  0
  3 91  1  0  0  0
  4  5  1  0  0  0
  4 92  1  0  0  0
  4 93  1  0  0  0
  5  6  1  0  0  0
  5 26  1  0  0  0
  5 94  1  0  0  0
  6 25  1  0  0  0
  6 95  1  0  0  0
  6 96  1  0  0  0
  7  8  2  0  0  0
  7 26  1  0  0  0
  7 29  1  0  0  0
  8  9  1  0  0  0
  8 22  1  0  0  0
  9 10  1  0  0  0
  9 27  2  0  0  0
 10 11  2  0  0  0
 10 15  1  0  0  0
 11 12  1  0  0  0
 11 97  1  0  0  0
 12 13  2  0  0  0
 12 98  1  0  0  0
 13 14  1  0  0  0
 13 31  1  0  0  0
 14 15  2  0  0  0
 14 99  1  0  0  0
 15100  1  0  0  0
 16 17  2  0  0  0
 16 21  1  0  0  0
 16 31  1  0  0  0
 17 18  1  0  0  0
 17101  1  0  0  0
 18 19  2  0  0  0
 18102  1  0  0  0
 19 20  1  0  0  0
 19 24  1  0  0  0
 20 21  2  0  0  0
 20103  1  0  0  0
 21 23  1  0  0  0
 22 28  1  0  0  0
 22 32  2  0  0  0
 26 27  1  0  0  0
 28104  1  0  0  0
 28105  1  0  0  0
 29106  1  0  0  0
 29107  1  0  0  0
 33 34  1  0  0  0
 33 66  1  0  0  0
 33 70  2  0  0  0
 34 36  1  0  0  0
 34 59  1  0  0  0
 34108  1  0  0  0
 35 44  2  0  0  0
 35 45  1  0  0  0
 35 68  1  0  0  0
 36 56  1  0  0  0
 36109  1  0  0  0
 37 39  1  0  0  0
 37 47  1  0  0  0
 37 66  1  0  0  0
 37110  1  0  0  0
 38 43  2  0  0  0
 38 46  1  0  0  0
 38 47  1  0  0  0
 39 64  1  0  0  0
 39 67  2  0  0  0
 40 52  1  0  0  0
 40 53  2  0  0  0
 40 58  1  0  0  0
 41111  1  0  0  0
 41112  1  0  0  0
 41113  1  0  0  0
 41 48  1  0  0  0
 42 43  1  0  0  0
 42 66  1  0  0  0
 42114  1  0  0  0
 42115  1  0  0  0
 43 44  1  0  0  0
 44116  1  0  0  0
 45 46  2  0  0  0
 45117  1  0  0  0
 46118  1  0  0  0
 47119  1  0  0  0
 47120  1  0  0  0
 48 56  1  0  0  0
 48 65  1  0  0  0
 48121  1  0  0  0
 49 50  1  0  0  0
 49 53  1  0  0  0
 49 64  1  0  0  0
 49122  1  0  0  0
 50 51  1  0  0  0
 50123  1  0  0  0
 50124  1  0  0  0
 51 52  1  0  0  0
 51125  1  0  0  0
 51126  1  0  0  0
 52127  1  0  0  0
 52128  1  0  0  0
 53 54  1  0  0  0
 54 55  2  0  0  0
 54129  1  0  0  0
 55 57  1  0  0  0
 55130  1  0  0  0
 56 69  2  0  0  0
 57 58  2  0  0  0
 57131  1  0  0  0
 58132  1  0  0  0
 59 60  1  0  0  0
 59 61  1  0  0  0
 59 62  1  0  0  0
 60133  1  0  0  0
 60134  1  0  0  0
 60135  1  0  0  0
 61136  1  0  0  0
 61137  1  0  0  0
 61138  1  0  0  0
 62139  1  0  0  0
 62140  1  0  0  0
 62141  1  0  0  0
 63 65  1  0  0  0
 63142  1  0  0  0
 63143  1  0  0  0
 63144  1  0  0  0
 64145  1  0  0  0
 65146  1  0  0  0
 68 83  1  0  0  0
 71 73  1  0  0  0
 71 74  2  0  0  0
 71147  1  0  0  0
 72 73  2  0  0  0
 72 86  1  0  0  0
 72148  1  0  0  0
 73 84  1  0  0  0
 74 75  1  0  0  0
 74 86  1  0  0  0
 75149  1  0  0  0
 75150  1  0  0  0
 75151  1  0  0  0
 76 80  1  0  0  0
 76152  1  0  0  0
 76153  1  0  0  0
 76154  1  0  0  0
 77155  1  0  0  0
 77156  1  0  0  0
 77157  1  0  0  0
 77 84  1  0  0  0
 78 84  1  0  0  0
 78158  1  0  0  0
 78159  1  0  0  0
 78160  1  0  0  0
 79161  1  0  0  0
 79162  1  0  0  0
 79163  1  0  0  0
 79 85  1  0  0  0
 80 85  1  0  0  0
 80164  1  0  0  0
 80165  1  0  0  0
 81 85  1  0  0  0
 81 86  1  0  0  0
 81166  1  0  0  0
 81167  1  0  0  0
 82 84  1  0  0  0
 82 87  1  0  0  0
 82168  1  0  0  0
 82169  1  0  0  0
 83 85  1  0  0  0
 83170  1  0  0  0
 83171  1  0  0  0
 87172  1  0  0  0
M  ISO  4   1 100  68 101  83 101  87 100
M  END
> <chiral flag>
0

> <version>
0

> <s_m_source_file>
/data/baiqing/PycharmProjects/Reinvent-master-3.2/result/LINK_invent/BTK/process_docking_weight1_custom_sum_contain_oxygen_bond_distance_aromatic_linkinvent_7_9_3/rearranged_h_0076.sdf

> <i_m_source_file_index>
73

> <r_mmod_Potential_Energy-OPLS-2005>
-30.7567520141602

> <r_mmod_Stretch_Energy-OPLS-2005>
50.2017364501953

> <r_mmod_Bend_Energy-OPLS-2005>
140.065811157227

> <r_mmod_Torsional_Energy-OPLS-2005>
248.004974365234

> <r_mmod_Improper_Torsional_Energy-OPLS-2005>
6.85741424560547

> <r_mmod_Van_der_Waal_Energy-OPLS-2005>
146.15739440918

> <r_mmod_Electrostatic_Energy-OPLS-2005>
-446.094665527344

> <r_mmod_Solvation_Energy-OPLS-2005>
-194.691070556641

> <b_mmod_Minimization_Converged-OPLS-2005>
0

> <r_mmod_RMS_Derivative-OPLS-2005>
4.1921706199646

$$$$
73
                    3D
 Structure written by MMmdl.
157165  0  0  1  0            999 V2000
  -30.6861  -14.5237   20.4949 C   0  0  0  0  0  0
  -30.4185  -12.3168   19.4458 C   0  0  0  0  0  0
  -29.4998  -12.4918   18.2178 C   0  0  0  0  0  0
  -28.0205  -12.3530   18.6286 C   0  0  0  0  0  0
  -27.6568  -13.2157   19.8678 C   0  0  2  0  0  0
  -28.6999  -13.0538   20.9983 C   0  0  0  0  0  0
  -25.2594  -13.8192   20.5710 C   0  0  0  0  0  0
  -24.1846  -13.0457   20.9172 C   0  0  0  0  0  0
  -24.6409  -11.6924   20.8728 C   0  0  0  0  0  0
  -23.9078  -10.4309   21.0402 C   0  0  0  0  0  0
  -24.3628   -9.4224   21.9179 C   0  0  0  0  0  0
  -23.6304   -8.2257   22.0751 C   0  0  0  0  0  0
  -22.4286   -8.0292   21.3544 C   0  0  0  0  0  0
  -21.9923   -9.0269   20.4649 C   0  0  0  0  0  0
  -22.7253  -10.2146   20.3057 C   0  0  0  0  0  0
  -21.6860   -6.0748   22.5286 C   0  0  0  0  0  0
  -21.4022   -6.5648   23.8221 C   0  0  0  0  0  0
  -21.3654   -5.6793   24.9178 C   0  0  0  0  0  0
  -21.6039   -4.3057   24.7227 C   0  0  0  0  0  0
  -21.8819   -3.8157   23.4348 C   0  0  0  0  0  0
  -21.9197   -4.6975   22.3407 C   0  0  0  0  0  0
  -22.7872  -13.5251   21.1840 C   0  0  0  0  0  0
  -22.1663   -4.2163   21.0982 F   0  0  0  0  0  0
  -21.5625   -3.4537   25.7737 F   0  0  0  0  0  0
  -30.0258  -13.3361   20.4326 N   0  0  0  0  0  0
  -26.3018  -12.9369   20.3358 N   0  0  0  0  0  0
  -25.9340  -11.6520   20.5773 N   0  0  0  0  0  0
  -22.0506  -12.8245   22.0388 N   0  0  0  0  0  0
  -25.4321  -15.1918   20.4177 N   0  0  0  0  0  0
  -31.8606  -14.6449   20.1390 O   0  0  0  0  0  0
  -21.6649   -6.8893   21.4248 O   0  0  0  0  0  0
  -22.3561  -14.5570   20.6706 O   0  0  0  0  0  0
  -24.6166  -31.8664   23.2069 C   0  0  0  0  0  0
  -25.9050  -32.4815   23.8373 C   0  0  1  0  0  0
  -27.2320  -27.4094   20.1115 C   0  0  0  0  0  0
  -25.5900  -33.8612   24.2310 N   0  0  0  0  0  0
  -23.4065  -30.4884   21.5485 C   0  0  2  0  0  0
  -24.8545  -28.9510   20.1130 C   0  0  0  0  0  0
  -22.7422  -29.4656   22.4984 C   0  0  0  0  0  0
  -18.0282  -28.1372   22.8471 C   0  0  0  0  0  0
  -24.1488  -36.7312   23.2641 C   0  0  0  0  0  0
  -25.9372  -30.8270   21.3616 C   0  0  0  0  0  0
  -26.0163  -29.4601   20.7072 C   0  0  0  0  0  0
  -27.2118  -28.7008   20.6945 C   0  0  0  0  0  0
  -26.0555  -26.9234   19.5031 C   0  0  0  0  0  0
  -24.8708  -27.6841   19.5039 C   0  0  0  0  0  0
  -23.6164  -29.8194   20.1636 C   0  0  0  0  0  0
  -25.4110  -36.3106   24.0337 C   0  0  1  0  0  0
  -20.5868  -28.3674   23.1308 C   0  0  2  0  0  0
  -20.6763  -26.9403   22.5423 C   0  0  0  0  0  0
  -19.5768  -26.6377   21.5206 C   0  0  0  0  0  0
  -18.1945  -26.7915   22.1608 C   0  0  0  0  0  0
  -19.1524  -28.8838   23.2893 C   0  0  0  0  0  0
  -18.9442  -30.1438   23.8912 C   0  0  0  0  0  0
  -17.6445  -30.6576   24.0558 C   0  0  0  0  0  0
  -25.9038  -34.9472   23.5123 C   0  0  0  0  0  0
  -16.5341  -29.9069   23.6314 C   0  0  0  0  0  0
  -16.7264  -28.6486   23.0333 C   0  0  0  0  0  0
  -26.4471  -31.6596   25.0709 C   0  0  0  0  0  0
  -25.3738  -31.3703   26.1458 C   0  0  0  0  0  0
  -27.0309  -30.3040   24.6096 C   0  0  0  0  0  0
  -27.6049  -32.4310   25.7475 C   0  0  0  0  0  0
  -27.5578  -37.1811   24.8469 C   0  0  0  0  0  0
  -21.4146  -29.3041   22.3714 N   0  0  0  0  0  0
  -26.4297  -37.3789   23.9409 N   0  0  0  0  0  0
  -24.6717  -31.0751   22.0976 N   0  0  0  0  0  0
  -23.4173  -28.8209   23.3050 O   0  0  0  0  0  0
  -28.3763  -26.6329   20.1351 O   0  0  0  0  0  0
  -26.5604  -34.8930   22.4687 O   0  0  0  0  0  0
  -23.5355  -32.1420   23.7451 O   0  0  0  0  0  0
  -27.6119  -19.9681   21.5966 C   0  0  0  0  0  0
  -27.3320  -18.6016   21.7345 C   0  0  0  0  0  0
  -28.8271  -20.3236   20.9978 C   0  0  0  0  0  0
  -29.3345  -18.0691   20.7807 C   0  0  0  0  0  0
  -30.2178  -17.0326   18.6769 C   0  0  0  0  0  0
  -29.2194  -21.8011   20.7718 C   0  0  0  0  0  0
  -28.0971  -22.7029   20.1696 C   0  0  0  0  0  0
  -28.4887  -24.1461   19.6950 C   0  0  0  0  0  0
  -28.2304  -25.3047   20.7002 C   0  0  0  0  0  0
  -30.2654  -16.9821   20.2189 C   0  0  2  0  0  0
  -28.1881  -17.6528   21.3113 N   0  0  0  0  0  0
  -29.6872  -19.3516   20.6068 N   0  0  0  0  0  0
  -29.9216  -15.6174   20.6790 N   0  0  0  0  0  0
  -31.4676  -12.3988   19.1528 H   0  0  0  0  0  0
  -30.3053  -11.3185   19.8711 H   0  0  0  0  0  0
  -29.7456  -11.7541   17.4530 H   0  0  0  0  0  0
  -29.6657  -13.4701   17.7638 H   0  0  0  0  0  0
  -27.8363  -11.2999   18.8438 H   0  0  0  0  0  0
  -27.3705  -12.6062   17.7902 H   0  0  0  0  0  0
  -27.6819  -14.2541   19.5358 H   0  0  0  0  0  0
  -28.6794  -12.0412   21.4023 H   0  0  0  0  0  0
  -28.4718  -13.7166   21.8348 H   0  0  0  0  0  0
  -25.2769   -9.5705   22.4751 H   0  0  0  0  0  0
  -24.0017   -7.4656   22.7473 H   0  0  0  0  0  0
  -21.0851   -8.8796   19.8959 H   0  0  0  0  0  0
  -22.3712  -10.9688   19.6169 H   0  0  0  0  0  0
  -21.2023   -7.6154   23.9735 H   0  0  0  0  0  0
  -21.1465   -6.0517   25.9079 H   0  0  0  0  0  0
  -22.0602   -2.7620   23.2843 H   0  0  0  0  0  0
  -22.4108  -11.9900   22.4773 H   0  0  0  0  0  0
  -21.1140  -13.1302   22.2617 H   0  0  0  0  0  0
  -24.6672  -15.8457   20.5420 H   0  0  0  0  0  0
  -26.3073  -15.6447   20.1830 H   0  0  0  0  0  0
  -26.7126  -32.5518   23.1136 H   0  0  0  0  0  0
  -25.0068  -33.9763   25.0466 H   0  0  0  0  0  0
  -22.6967  -31.3056   21.4072 H   0  0  0  0  0  0
  -23.3747  -35.9648   23.3321 H   0  0  0  0  0  0
  -24.3589  -36.8903   22.2053 H   0  0  0  0  0  0
  -23.7237  -37.6521   23.6645 H   0  0  0  0  0  0
  -26.0516  -31.5928   20.5933 H   0  0  0  0  0  0
  -26.8245  -30.8798   21.9810 H   0  0  0  0  0  0
  -28.1087  -29.0888   21.1572 H   0  0  0  0  0  0
  -26.0522  -25.9506   19.0333 H   0  0  0  0  0  0
  -23.9780  -27.2857   19.0411 H   0  0  0  0  0  0
  -23.7235  -30.5934   19.4032 H   0  0  0  0  0  0
  -22.7405  -29.2393   19.8665 H   0  0  0  0  0  0
  -25.1280  -36.1977   25.0829 H   0  0  0  0  0  0
  -20.9952  -28.3229   24.1429 H   0  0  0  0  0  0
  -20.5655  -26.2287   23.3620 H   0  0  0  0  0  0
  -21.6633  -26.7445   22.1211 H   0  0  0  0  0  0
  -19.6937  -25.6275   21.1258 H   0  0  0  0  0  0
  -19.6719  -27.3184   20.6740 H   0  0  0  0  0  0
  -17.4228  -26.6620   21.4011 H   0  0  0  0  0  0
  -18.0374  -26.0073   22.9017 H   0  0  0  0  0  0
  -19.7925  -30.7236   24.2290 H   0  0  0  0  0  0
  -17.5011  -31.6259   24.5158 H   0  0  0  0  0  0
  -15.5339  -30.2975   23.7632 H   0  0  0  0  0  0
  -15.8670  -28.0795   22.7045 H   0  0  0  0  0  0
  -24.5906  -30.7050   25.7800 H   0  0  0  0  0  0
  -24.8939  -32.2862   26.4922 H   0  0  0  0  0  0
  -25.8093  -30.8860   27.0209 H   0  0  0  0  0  0
  -26.2852  -29.6800   24.1156 H   0  0  0  0  0  0
  -27.4084  -29.7275   25.4554 H   0  0  0  0  0  0
  -27.8686  -30.4373   23.9246 H   0  0  0  0  0  0
  -27.2669  -33.3598   26.2091 H   0  0  0  0  0  0
  -28.3847  -32.6883   25.0290 H   0  0  0  0  0  0
  -28.0745  -31.8410   26.5360 H   0  0  0  0  0  0
  -28.2608  -38.0096   24.7499 H   0  0  0  0  0  0
  -28.1053  -36.2623   24.6308 H   0  0  0  0  0  0
  -27.2301  -37.1480   25.8874 H   0  0  0  0  0  0
  -20.9312  -29.8740   21.6908 H   0  0  0  0  0  0
  -26.0187  -38.2873   24.1390 H   0  0  0  0  0  0
  -26.9048  -20.7106   21.9394 H   0  0  0  0  0  0
  -26.4093  -18.2625   22.1824 H   0  0  0  0  0  0
  -30.5034  -18.0205   18.3152 H   0  0  0  0  0  0
  -29.2128  -16.8262   18.3088 H   0  0  0  0  0  0
  -30.9029  -16.3189   18.2214 H   0  0  0  0  0  0
  -30.0877  -21.8252   20.1121 H   0  0  0  0  0  0
  -29.5499  -22.2188   21.7228 H   0  0  0  0  0  0
  -27.2552  -22.7608   20.8598 H   0  0  0  0  0  0
  -27.7142  -22.1714   19.2975 H   0  0  0  0  0  0
  -27.8989  -24.3612   18.8035 H   0  0  0  0  0  0
  -29.5270  -24.1675   19.3615 H   0  0  0  0  0  0
  -27.2487  -25.1815   21.1620 H   0  0  0  0  0  0
  -28.9417  -25.2208   21.5224 H   0  0  0  0  0  0
  -31.2766  -17.2153   20.5570 H   0  0  0  0  0  0
  -28.9692  -15.5248   21.0027 H   0  0  0  0  0  0
  1 25  1  0  0  0
  1 30  2  0  0  0
  1 83  1  0  0  0
  2  3  1  0  0  0
  2 25  1  0  0  0
  2 84  1  0  0  0
  2 85  1  0  0  0
  3  4  1  0  0  0
  3 86  1  0  0  0
  3 87  1  0  0  0
  4  5  1  0  0  0
  4 88  1  0  0  0
  4 89  1  0  0  0
  5  6  1  0  0  0
  5 26  1  0  0  0
  5 90  1  0  0  0
  6 25  1  0  0  0
  6 91  1  0  0  0
  6 92  1  0  0  0
  7  8  2  0  0  0
  7 26  1  0  0  0
  7 29  1  0  0  0
  8  9  1  0  0  0
  8 22  1  0  0  0
  9 10  1  0  0  0
  9 27  2  0  0  0
 10 11  2  0  0  0
 10 15  1  0  0  0
 11 12  1  0  0  0
 11 93  1  0  0  0
 12 13  2  0  0  0
 12 94  1  0  0  0
 13 14  1  0  0  0
 13 31  1  0  0  0
 14 15  2  0  0  0
 14 95  1  0  0  0
 15 96  1  0  0  0
 16 17  2  0  0  0
 16 21  1  0  0  0
 16 31  1  0  0  0
 17 18  1  0  0  0
 17 97  1  0  0  0
 18 19  2  0  0  0
 18 98  1  0  0  0
 19 20  1  0  0  0
 19 24  1  0  0  0
 20 21  2  0  0  0
 20 99  1  0  0  0
 21 23  1  0  0  0
 22 28  1  0  0  0
 22 32  2  0  0  0
 26 27  1  0  0  0
 28100  1  0  0  0
 28101  1  0  0  0
 29102  1  0  0  0
 29103  1  0  0  0
 33 34  1  0  0  0
 33 66  1  0  0  0
 33 70  2  0  0  0
 34 36  1  0  0  0
 34 59  1  0  0  0
 34104  1  0  0  0
 35 44  2  0  0  0
 35 45  1  0  0  0
 35 68  1  0  0  0
 36 56  1  0  0  0
 36105  1  0  0  0
 37 39  1  0  0  0
 37 47  1  0  0  0
 37 66  1  0  0  0
 37106  1  0  0  0
 38 43  2  0  0  0
 38 46  1  0  0  0
 38 47  1  0  0  0
 39 64  1  0  0  0
 39 67  2  0  0  0
 40 52  1  0  0  0
 40 53  2  0  0  0
 40 58  1  0  0  0
 41107  1  0  0  0
 41108  1  0  0  0
 41109  1  0  0  0
 41 48  1  0  0  0
 42 43  1  0  0  0
 42 66  1  0  0  0
 42110  1  0  0  0
 42111  1  0  0  0
 43 44  1  0  0  0
 44112  1  0  0  0
 45 46  2  0  0  0
 45113  1  0  0  0
 46114  1  0  0  0
 47115  1  0  0  0
 47116  1  0  0  0
 48 56  1  0  0  0
 48 65  1  0  0  0
 48117  1  0  0  0
 49 50  1  0  0  0
 49 53  1  0  0  0
 49 64  1  0  0  0
 49118  1  0  0  0
 50 51  1  0  0  0
 50119  1  0  0  0
 50120  1  0  0  0
 51 52  1  0  0  0
 51121  1  0  0  0
 51122  1  0  0  0
 52123  1  0  0  0
 52124  1  0  0  0
 53 54  1  0  0  0
 54 55  2  0  0  0
 54125  1  0  0  0
 55 57  1  0  0  0
 55126  1  0  0  0
 56 69  2  0  0  0
 57 58  2  0  0  0
 57127  1  0  0  0
 58128  1  0  0  0
 59 60  1  0  0  0
 59 61  1  0  0  0
 59 62  1  0  0  0
 60129  1  0  0  0
 60130  1  0  0  0
 60131  1  0  0  0
 61132  1  0  0  0
 61133  1  0  0  0
 61134  1  0  0  0
 62135  1  0  0  0
 62136  1  0  0  0
 62137  1  0  0  0
 63 65  1  0  0  0
 63138  1  0  0  0
 63139  1  0  0  0
 63140  1  0  0  0
 64141  1  0  0  0
 65142  1  0  0  0
 68 79  1  0  0  0
 71 72  2  0  0  0
 71 73  1  0  0  0
 71143  1  0  0  0
 72 81  1  0  0  0
 72144  1  0  0  0
 73 76  1  0  0  0
 73 82  2  0  0  0
 74 80  1  0  0  0
 74 81  2  0  0  0
 74 82  1  0  0  0
 75145  1  0  0  0
 75146  1  0  0  0
 75147  1  0  0  0
 75 80  1  0  0  0
 76 77  1  0  0  0
 76148  1  0  0  0
 76149  1  0  0  0
 77 78  1  0  0  0
 77150  1  0  0  0
 77151  1  0  0  0
 78 79  1  0  0  0
 78152  1  0  0  0
 78153  1  0  0  0
 79154  1  0  0  0
 79155  1  0  0  0
 80 83  1  0  0  0
 80156  1  0  0  0
 83157  1  0  0  0
M  ISO  4   1 100  68 101  79 101  83 100
M  END
> <chiral flag>
0

> <version>
0

> <s_m_source_file>
/data/baiqing/PycharmProjects/Reinvent-master-3.2/result/LINK_invent/BTK/process_docking_weight1_custom_sum_contain_oxygen_bond_distance_aromatic_linkinvent_7_9_3/rearranged_h_0076.sdf

> <i_m_source_file_index>
74

> <r_mmod_Potential_Energy-OPLS-2005>
-632.028137207031

> <r_mmod_Stretch_Energy-OPLS-2005>
42.081111907959

> <r_mmod_Bend_Energy-OPLS-2005>
100.100120544434

> <r_mmod_Torsional_Energy-OPLS-2005>
215.014053344727

> <r_mmod_Improper_Torsional_Energy-OPLS-2005>
7.60870552062988

> <r_mmod_Van_der_Waal_Energy-OPLS-2005>
155.316146850586

> <r_mmod_Electrostatic_Energy-OPLS-2005>
-962.710876464844

> <r_mmod_Solvation_Energy-OPLS-2005>
-211.652603149414

> <b_mmod_Minimization_Converged-OPLS-2005>
0

> <r_mmod_RMS_Derivative-OPLS-2005>
1.37897217273712

$$$$
74
                    3D
 Structure written by MMmdl.
157165  0  0  1  0            999 V2000
  -30.5603  -14.8780   20.4264 C   0  0  0  0  0  0
  -30.4429  -12.5369   19.4996 C   0  0  0  0  0  0
  -29.5248  -12.5162   18.2565 C   0  0  0  0  0  0
  -28.0534  -12.3202   18.6706 C   0  0  0  0  0  0
  -27.6376  -13.2422   19.8464 C   0  0  2  0  0  0
  -28.6799  -13.2342   20.9853 C   0  0  0  0  0  0
  -25.2499  -13.8224   20.5707 C   0  0  0  0  0  0
  -24.1807  -13.0451   20.9231 C   0  0  0  0  0  0
  -24.6419  -11.6937   20.8773 C   0  0  0  0  0  0
  -23.9095  -10.4308   21.0424 C   0  0  0  0  0  0
  -24.3638   -9.4211   21.9192 C   0  0  0  0  0  0
  -23.6307   -8.2243   22.0752 C   0  0  0  0  0  0
  -22.4283   -8.0292   21.3542 C   0  0  0  0  0  0
  -21.9931   -9.0272   20.4643 C   0  0  0  0  0  0
  -22.7271  -10.2149   20.3062 C   0  0  0  0  0  0
  -21.6852   -6.0753   22.5284 C   0  0  0  0  0  0
  -21.4017   -6.5648   23.8221 C   0  0  0  0  0  0
  -21.3662   -5.6793   24.9175 C   0  0  0  0  0  0
  -21.6035   -4.3056   24.7220 C   0  0  0  0  0  0
  -21.8818   -3.8156   23.4342 C   0  0  0  0  0  0
  -21.9197   -4.6982   22.3404 C   0  0  0  0  0  0
  -22.7822  -13.5230   21.1868 C   0  0  0  0  0  0
  -22.1659   -4.2170   21.0978 F   0  0  0  0  0  0
  -21.5630   -3.4532   25.7729 F   0  0  0  0  0  0
  -29.9676  -13.6232   20.3984 N   0  0  0  0  0  0
  -26.2924  -12.9440   20.3267 N   0  0  0  0  0  0
  -25.9348  -11.6574   20.5752 N   0  0  0  0  0  0
  -22.0455  -12.8229   22.0420 N   0  0  0  0  0  0
  -25.4174  -15.1947   20.4121 N   0  0  0  0  0  0
  -31.7484  -14.9680   20.0997 O   0  0  0  0  0  0
  -21.6638   -6.8894   21.4241 O   0  0  0  0  0  0
  -22.3512  -14.5531   20.6708 O   0  0  0  0  0  0
  -24.6410  -31.8484   23.1912 C   0  0  0  0  0  0
  -25.9197  -32.4725   23.8291 C   0  0  1  0  0  0
  -27.2150  -27.1693   20.1573 C   0  0  0  0  0  0
  -25.5964  -33.8526   24.2222 N   0  0  0  0  0  0
  -23.4431  -30.4704   21.5349 C   0  0  2  0  0  0
  -24.8951  -28.9064   20.1071 C   0  0  0  0  0  0
  -22.7562  -29.4578   22.4852 C   0  0  0  0  0  0
  -18.0310  -28.1385   22.8485 C   0  0  0  0  0  0
  -24.1493  -36.7263   23.2641 C   0  0  0  0  0  0
  -25.9979  -30.7335   21.3864 C   0  0  0  0  0  0
  -26.0708  -29.3474   20.7300 C   0  0  0  0  0  0
  -27.2356  -28.4958   20.7384 C   0  0  0  0  0  0
  -26.0228  -26.8327   19.4797 C   0  0  0  0  0  0
  -24.8839  -27.6625   19.4622 C   0  0  0  0  0  0
  -23.6678  -29.8019   20.1530 C   0  0  0  0  0  0
  -25.4124  -36.3051   24.0322 C   0  0  1  0  0  0
  -20.5923  -28.3717   23.1244 C   0  0  2  0  0  0
  -20.6795  -26.9422   22.5405 C   0  0  0  0  0  0
  -19.5763  -26.6379   21.5217 C   0  0  0  0  0  0
  -18.1944  -26.7929   22.1625 C   0  0  0  0  0  0
  -19.1565  -28.8865   23.2864 C   0  0  0  0  0  0
  -18.9479  -30.1464   23.8891 C   0  0  0  0  0  0
  -17.6474  -30.6585   24.0558 C   0  0  0  0  0  0
  -25.9072  -34.9423   23.5077 C   0  0  0  0  0  0
  -16.5366  -29.9079   23.6328 C   0  0  0  0  0  0
  -16.7299  -28.6490   23.0364 C   0  0  0  0  0  0
  -26.4526  -31.6569   25.0710 C   0  0  0  0  0  0
  -25.3721  -31.3742   26.1409 C   0  0  0  0  0  0
  -27.0373  -30.2971   24.6255 C   0  0  0  0  0  0
  -27.6068  -32.4326   25.7492 C   0  0  0  0  0  0
  -27.5581  -37.1789   24.8469 C   0  0  0  0  0  0
  -21.4253  -29.3053   22.3609 N   0  0  0  0  0  0
  -26.4292  -37.3757   23.9406 N   0  0  0  0  0  0
  -24.7133  -31.0375   22.0928 N   0  0  0  0  0  0
  -23.4222  -28.8121   23.2987 O   0  0  0  0  0  0
  -28.2465  -26.1712   20.2067 O   0  0  0  0  0  0
  -26.5648  -34.8912   22.4650 O   0  0  0  0  0  0
  -23.5536  -32.1344   23.7149 O   0  0  0  0  0  0
  -29.5544  -22.6539   21.2709 C   0  0  0  0  0  0
  -28.0928  -21.0295   19.7035 C   0  0  0  0  0  0
  -29.0721  -20.3873   20.5490 C   0  0  0  0  0  0
  -28.5423  -23.2914   20.4601 C   0  0  0  0  0  0
  -30.3946  -23.4552   22.2478 C   0  0  0  0  0  0
  -27.7024  -20.1528   17.3608 C   0  0  0  0  0  0
  -27.1709  -20.2268   18.7965 C   0  0  0  0  0  0
  -29.1126  -18.7771   20.9125 C   0  0  0  0  0  0
  -27.8564  -24.7683   20.7211 C   0  0  0  0  0  0
  -30.0283  -17.5506   20.2608 C   0  0  0  0  0  0
  -29.8095  -21.2795   21.2971 N   0  0  0  0  0  0
  -27.8603  -22.4023   19.6607 N   0  0  0  0  0  0
  -29.7749  -16.0363   20.6043 N   0  0  0  0  0  0
  -31.4799  -12.6852   19.1938 H   0  0  0  0  0  0
  -30.4183  -11.5759   20.0159 H   0  0  0  0  0  0
  -29.8309  -11.7204   17.5773 H   0  0  0  0  0  0
  -29.6318  -13.4508   17.7049 H   0  0  0  0  0  0
  -27.9326  -11.2766   18.9623 H   0  0  0  0  0  0
  -27.3962  -12.4734   17.8146 H   0  0  0  0  0  0
  -27.6142  -14.2513   19.4350 H   0  0  0  0  0  0
  -28.7457  -12.2497   21.4498 H   0  0  0  0  0  0
  -28.3928  -13.9285   21.7764 H   0  0  0  0  0  0
  -25.2784   -9.5679   22.4768 H   0  0  0  0  0  0
  -24.0018   -7.4630   22.7472 H   0  0  0  0  0  0
  -21.0862   -8.8807   19.8950 H   0  0  0  0  0  0
  -22.3743  -10.9692   19.6172 H   0  0  0  0  0  0
  -21.1999   -7.6151   23.9730 H   0  0  0  0  0  0
  -21.1481   -6.0516   25.9078 H   0  0  0  0  0  0
  -22.0594   -2.7619   23.2833 H   0  0  0  0  0  0
  -22.4076  -11.9918   22.4852 H   0  0  0  0  0  0
  -21.1059  -13.1246   22.2577 H   0  0  0  0  0  0
  -24.6442  -15.8425   20.5194 H   0  0  0  0  0  0
  -26.2481  -15.6299   20.0326 H   0  0  0  0  0  0
  -26.7261  -32.5345   23.1017 H   0  0  0  0  0  0
  -25.0096  -33.9656   25.0360 H   0  0  0  0  0  0
  -22.7442  -31.2956   21.3842 H   0  0  0  0  0  0
  -23.3767  -35.9584   23.3297 H   0  0  0  0  0  0
  -24.3581  -36.8895   22.2057 H   0  0  0  0  0  0
  -23.7237  -37.6456   23.6674 H   0  0  0  0  0  0
  -26.1502  -31.4891   20.6140 H   0  0  0  0  0  0
  -26.8715  -30.7843   22.0255 H   0  0  0  0  0  0
  -28.1300  -28.8307   21.2441 H   0  0  0  0  0  0
  -25.9478  -25.8839   18.9694 H   0  0  0  0  0  0
  -23.9931  -27.3271   18.9499 H   0  0  0  0  0  0
  -23.7949  -30.5785   19.3976 H   0  0  0  0  0  0
  -22.7844  -29.2385   19.8457 H   0  0  0  0  0  0
  -25.1307  -36.1883   25.0818 H   0  0  0  0  0  0
  -21.0036  -28.3301   24.1358 H   0  0  0  0  0  0
  -20.5695  -26.2325   23.3620 H   0  0  0  0  0  0
  -21.6655  -26.7424   22.1193 H   0  0  0  0  0  0
  -19.6921  -25.6290   21.1247 H   0  0  0  0  0  0
  -19.6693  -27.3185   20.6748 H   0  0  0  0  0  0
  -17.4217  -26.6693   21.4031 H   0  0  0  0  0  0
  -18.0339  -26.0072   22.9023 H   0  0  0  0  0  0
  -19.7951  -30.7286   24.2259 H   0  0  0  0  0  0
  -17.5022  -31.6269   24.5152 H   0  0  0  0  0  0
  -15.5363  -30.2974   23.7656 H   0  0  0  0  0  0
  -15.8701  -28.0801   22.7092 H   0  0  0  0  0  0
  -24.5910  -30.7085   25.7724 H   0  0  0  0  0  0
  -24.8898  -32.2917   26.4797 H   0  0  0  0  0  0
  -25.8015  -30.8934   27.0210 H   0  0  0  0  0  0
  -26.2965  -29.6712   24.1266 H   0  0  0  0  0  0
  -27.4007  -29.7252   25.4804 H   0  0  0  0  0  0
  -27.8873  -30.4220   23.9541 H   0  0  0  0  0  0
  -27.2670  -33.3646   26.2025 H   0  0  0  0  0  0
  -28.3897  -32.6860   25.0329 H   0  0  0  0  0  0
  -28.0715  -31.8476   26.5441 H   0  0  0  0  0  0
  -28.2592  -38.0093   24.7516 H   0  0  0  0  0  0
  -28.1080  -36.2622   24.6287 H   0  0  0  0  0  0
  -27.2296  -37.1425   25.8871 H   0  0  0  0  0  0
  -20.9454  -29.8764   21.6791 H   0  0  0  0  0  0
  -26.0163  -38.2829   24.1411 H   0  0  0  0  0  0
  -31.4322  -23.4811   21.9145 H   0  0  0  0  0  0
  -30.3697  -22.9996   23.2384 H   0  0  0  0  0  0
  -30.0521  -24.4837   22.3466 H   0  0  0  0  0  0
  -27.0230  -19.5844   16.7256 H   0  0  0  0  0  0
  -28.6797  -19.6694   17.3294 H   0  0  0  0  0  0
  -27.8067  -21.1476   16.9278 H   0  0  0  0  0  0
  -26.1844  -20.6935   18.7920 H   0  0  0  0  0  0
  -27.0080  -19.2218   19.1800 H   0  0  0  0  0  0
  -28.0788  -18.4396   20.8813 H   0  0  0  0  0  0
  -29.3370  -18.7526   21.9795 H   0  0  0  0  0  0
  -27.8365  -24.8782   21.8053 H   0  0  0  0  0  0
  -26.8080  -24.5986   20.4854 H   0  0  0  0  0  0
  -31.0783  -17.7644   20.4612 H   0  0  0  0  0  0
  -29.9273  -17.6214   19.1769 H   0  0  0  0  0  0
  -28.8271  -15.8312   20.8872 H   0  0  0  0  0  0
  1 25  1  0  0  0
  1 30  2  0  0  0
  1 83  1  0  0  0
  2  3  1  0  0  0
  2 25  1  0  0  0
  2 84  1  0  0  0
  2 85  1  0  0  0
  3  4  1  0  0  0
  3 86  1  0  0  0
  3 87  1  0  0  0
  4  5  1  0  0  0
  4 88  1  0  0  0
  4 89  1  0  0  0
  5  6  1  0  0  0
  5 26  1  0  0  0
  5 90  1  0  0  0
  6 25  1  0  0  0
  6 91  1  0  0  0
  6 92  1  0  0  0
  7  8  2  0  0  0
  7 26  1  0  0  0
  7 29  1  0  0  0
  8  9  1  0  0  0
  8 22  1  0  0  0
  9 10  1  0  0  0
  9 27  2  0  0  0
 10 11  2  0  0  0
 10 15  1  0  0  0
 11 12  1  0  0  0
 11 93  1  0  0  0
 12 13  2  0  0  0
 12 94  1  0  0  0
 13 14  1  0  0  0
 13 31  1  0  0  0
 14 15  2  0  0  0
 14 95  1  0  0  0
 15 96  1  0  0  0
 16 17  2  0  0  0
 16 21  1  0  0  0
 16 31  1  0  0  0
 17 18  1  0  0  0
 17 97  1  0  0  0
 18 19  2  0  0  0
 18 98  1  0  0  0
 19 20  1  0  0  0
 19 24  1  0  0  0
 20 21  2  0  0  0
 20 99  1  0  0  0
 21 23  1  0  0  0
 22 28  1  0  0  0
 22 32  2  0  0  0
 26 27  1  0  0  0
 28100  1  0  0  0
 28101  1  0  0  0
 29102  1  0  0  0
 29103  1  0  0  0
 33 34  1  0  0  0
 33 66  1  0  0  0
 33 70  2  0  0  0
 34 36  1  0  0  0
 34 59  1  0  0  0
 34104  1  0  0  0
 35 44  2  0  0  0
 35 45  1  0  0  0
 35 68  1  0  0  0
 36 56  1  0  0  0
 36105  1  0  0  0
 37 39  1  0  0  0
 37 47  1  0  0  0
 37 66  1  0  0  0
 37106  1  0  0  0
 38 43  2  0  0  0
 38 46  1  0  0  0
 38 47  1  0  0  0
 39 64  1  0  0  0
 39 67  2  0  0  0
 40 52  1  0  0  0
 40 53  2  0  0  0
 40 58  1  0  0  0
 41107  1  0  0  0
 41108  1  0  0  0
 41109  1  0  0  0
 41 48  1  0  0  0
 42 43  1  0  0  0
 42 66  1  0  0  0
 42110  1  0  0  0
 42111  1  0  0  0
 43 44  1  0  0  0
 44112  1  0  0  0
 45 46  2  0  0  0
 45113  1  0  0  0
 46114  1  0  0  0
 47115  1  0  0  0
 47116  1  0  0  0
 48 56  1  0  0  0
 48 65  1  0  0  0
 48117  1  0  0  0
 49 50  1  0  0  0
 49 53  1  0  0  0
 49 64  1  0  0  0
 49118  1  0  0  0
 50 51  1  0  0  0
 50119  1  0  0  0
 50120  1  0  0  0
 51 52  1  0  0  0
 51121  1  0  0  0
 51122  1  0  0  0
 52123  1  0  0  0
 52124  1  0  0  0
 53 54  1  0  0  0
 54 55  2  0  0  0
 54125  1  0  0  0
 55 57  1  0  0  0
 55126  1  0  0  0
 56 69  2  0  0  0
 57 58  2  0  0  0
 57127  1  0  0  0
 58128  1  0  0  0
 59 60  1  0  0  0
 59 61  1  0  0  0
 59 62  1  0  0  0
 60129  1  0  0  0
 60130  1  0  0  0
 60131  1  0  0  0
 61132  1  0  0  0
 61133  1  0  0  0
 61134  1  0  0  0
 62135  1  0  0  0
 62136  1  0  0  0
 62137  1  0  0  0
 63 65  1  0  0  0
 63138  1  0  0  0
 63139  1  0  0  0
 63140  1  0  0  0
 64141  1  0  0  0
 65142  1  0  0  0
 68 79  1  0  0  0
 71 74  2  0  0  0
 71 75  1  0  0  0
 71 81  1  0  0  0
 72 73  1  0  0  0
 72 77  1  0  0  0
 72 82  2  0  0  0
 73 78  1  0  0  0
 73 81  2  0  0  0
 74 79  1  0  0  0
 74 82  1  0  0  0
 75143  1  0  0  0
 75144  1  0  0  0
 75145  1  0  0  0
 76 77  1  0  0  0
 76146  1  0  0  0
 76147  1  0  0  0
 76148  1  0  0  0
 77149  1  0  0  0
 77150  1  0  0  0
 78 80  1  0  0  0
 78151  1  0  0  0
 78152  1  0  0  0
 79153  1  0  0  0
 79154  1  0  0  0
 80 83  1  0  0  0
 80155  1  0  0  0
 80156  1  0  0  0
 83157  1  0  0  0
M  ISO  4   1 100  68 101  79 101  83 100
M  END
> <chiral flag>
0

> <version>
0

> <s_m_source_file>
/data/baiqing/PycharmProjects/Reinvent-master-3.2/result/LINK_invent/BTK/process_docking_weight1_custom_sum_contain_oxygen_bond_distance_aromatic_linkinvent_7_9_3/rearranged_h_0076.sdf

> <i_m_source_file_index>
75

> <r_mmod_Potential_Energy-OPLS-2005>
451.832122802734

> <r_mmod_Stretch_Energy-OPLS-2005>
212.827453613281

> <r_mmod_Bend_Energy-OPLS-2005>
244.987533569336

> <r_mmod_Torsional_Energy-OPLS-2005>
231.783660888672

> <r_mmod_Improper_Torsional_Energy-OPLS-2005>
10.2424793243408

> <r_mmod_Van_der_Waal_Energy-OPLS-2005>
135.878189086914

> <r_mmod_Electrostatic_Energy-OPLS-2005>
-312.87158203125

> <r_mmod_Solvation_Energy-OPLS-2005>
-229.376205444336

> <b_mmod_Minimization_Converged-OPLS-2005>
0

> <r_mmod_RMS_Derivative-OPLS-2005>
1.69497835636139

$$$$
75
                    3D
 Structure written by MMmdl.
163171  0  0  1  0            999 V2000
  -30.8301  -14.4570   20.5956 C   0  0  0  0  0  0
  -30.4107  -12.3242   19.4343 C   0  0  0  0  0  0
  -29.4926  -12.5287   18.2131 C   0  0  0  0  0  0
  -28.0186  -12.3906   18.6291 C   0  0  0  0  0  0
  -27.6723  -13.2334   19.8832 C   0  0  2  0  0  0
  -28.7260  -13.0821   21.0117 C   0  0  0  0  0  0
  -25.2642  -13.8243   20.5733 C   0  0  0  0  0  0
  -24.1905  -13.0454   20.9220 C   0  0  0  0  0  0
  -24.6504  -11.6947   20.8799 C   0  0  0  0  0  0
  -23.9178  -10.4297   21.0429 C   0  0  0  0  0  0
  -24.3697   -9.4200   21.9195 C   0  0  0  0  0  0
  -23.6336   -8.2255   22.0763 C   0  0  0  0  0  0
  -22.4303   -8.0312   21.3561 C   0  0  0  0  0  0
  -21.9978   -9.0308   20.4664 C   0  0  0  0  0  0
  -22.7359  -10.2164   20.3073 C   0  0  0  0  0  0
  -21.6858   -6.0768   22.5279 C   0  0  0  0  0  0
  -21.4016   -6.5664   23.8215 C   0  0  0  0  0  0
  -21.3651   -5.6814   24.9171 C   0  0  0  0  0  0
  -21.6040   -4.3074   24.7214 C   0  0  0  0  0  0
  -21.8822   -3.8172   23.4329 C   0  0  0  0  0  0
  -21.9194   -4.6997   22.3391 C   0  0  0  0  0  0
  -22.7917  -13.5242   21.1811 C   0  0  0  0  0  0
  -22.1656   -4.2176   21.0970 F   0  0  0  0  0  0
  -21.5620   -3.4544   25.7725 F   0  0  0  0  0  0
  -30.0653  -13.3347   20.4537 N   0  0  0  0  0  0
  -26.3149  -12.9480   20.3521 N   0  0  0  0  0  0
  -25.9474  -11.6610   20.5941 N   0  0  0  0  0  0
  -22.0533  -12.8205   22.0347 N   0  0  0  0  0  0
  -25.4235  -15.1930   20.4005 N   0  0  0  0  0  0
  -31.9031  -14.5942   20.0078 O   0  0  0  0  0  0
  -21.6643   -6.8913   21.4247 O   0  0  0  0  0  0
  -22.3624  -14.5539   20.6651 O   0  0  0  0  0  0
  -24.6141  -31.8687   23.2179 C   0  0  0  0  0  0
  -25.9058  -32.4829   23.8436 C   0  0  1  0  0  0
  -27.1926  -27.3911   20.0753 C   0  0  0  0  0  0
  -25.5932  -33.8642   24.2361 N   0  0  0  0  0  0
  -23.3944  -30.5061   21.5615 C   0  0  2  0  0  0
  -24.8294  -28.9882   20.1041 C   0  0  0  0  0  0
  -22.7352  -29.4722   22.5024 C   0  0  0  0  0  0
  -18.0259  -28.1331   22.8429 C   0  0  0  0  0  0
  -24.1486  -36.7309   23.2636 C   0  0  0  0  0  0
  -25.9319  -30.8175   21.3819 C   0  0  0  0  0  0
  -25.9983  -29.4594   20.7137 C   0  0  0  0  0  0
  -27.1758  -28.6677   20.7043 C   0  0  0  0  0  0
  -25.9959  -26.9635   19.4450 C   0  0  0  0  0  0
  -24.8287  -27.7440   19.4660 C   0  0  0  0  0  0
  -23.5937  -29.8617   20.1693 C   0  0  0  0  0  0
  -25.4115  -36.3136   24.0347 C   0  0  1  0  0  0
  -20.5823  -28.3717   23.1299 C   0  0  2  0  0  0
  -20.6838  -26.9441   22.5420 C   0  0  0  0  0  0
  -19.5844  -26.6301   21.5207 C   0  0  0  0  0  0
  -18.1998  -26.7866   22.1591 C   0  0  0  0  0  0
  -19.1466  -28.8835   23.2849 C   0  0  0  0  0  0
  -18.9362  -30.1439   23.8919 C   0  0  0  0  0  0
  -17.6340  -30.6491   24.0575 C   0  0  0  0  0  0
  -25.9052  -34.9492   23.5154 C   0  0  0  0  0  0
  -16.5273  -29.8921   23.6312 C   0  0  0  0  0  0
  -16.7225  -28.6341   23.0294 C   0  0  0  0  0  0
  -26.4477  -31.6622   25.0780 C   0  0  0  0  0  0
  -25.3711  -31.3709   26.1502 C   0  0  0  0  0  0
  -27.0297  -30.3061   24.6174 C   0  0  0  0  0  0
  -27.6052  -32.4346   25.7518 C   0  0  0  0  0  0
  -27.5592  -37.1806   24.8470 C   0  0  0  0  0  0
  -21.4066  -29.3161   22.3767 N   0  0  0  0  0  0
  -26.4305  -37.3823   23.9424 N   0  0  0  0  0  0
  -24.6660  -31.0785   22.1083 N   0  0  0  0  0  0
  -23.4086  -28.8210   23.3038 O   0  0  0  0  0  0
  -28.3615  -26.6335   20.1005 O   0  0  0  0  0  0
  -26.5604  -34.8905   22.4703 O   0  0  0  0  0  0
  -23.5340  -32.1463   23.7551 O   0  0  0  0  0  0
  -27.9253  -20.3401   20.7710 C   0  0  0  0  0  0
  -28.5118  -19.1225   21.1826 C   0  0  0  0  0  0
  -28.6818  -21.5266   20.8696 C   0  0  0  0  0  0
  -29.8283  -19.1691   21.7213 C   0  0  0  0  0  0
  -27.6835  -17.8555   21.0626 C   0  0  0  0  0  0
  -29.7415  -17.3172   23.4885 C   0  0  0  0  0  0
  -31.9085  -18.3712   22.9573 C   0  0  0  0  0  0
  -28.0733  -22.8509   20.3982 C   0  0  0  0  0  0
  -28.8803  -24.1784   20.5391 C   0  0  0  0  0  0
  -30.9181  -16.8546   21.2242 C   0  0  0  0  0  0
  -28.3848  -25.2849   19.5618 C   0  0  0  0  0  0
  -30.5610  -17.9247   22.3258 C   0  0  0  0  0  0
  -29.9509  -21.5106   21.3425 N   0  0  0  0  0  0
  -30.5003  -20.3594   21.7588 N   0  0  0  0  0  0
  -30.3530  -15.4797   21.3286 N   0  0  0  0  0  0
  -31.4542  -12.3704   19.1222 H   0  0  0  0  0  0
  -30.2878  -11.3232   19.8483 H   0  0  0  0  0  0
  -29.7298  -11.8039   17.4324 H   0  0  0  0  0  0
  -29.6649  -13.5138   17.7785 H   0  0  0  0  0  0
  -27.8210  -11.3361   18.8260 H   0  0  0  0  0  0
  -27.3720  -12.6773   17.7992 H   0  0  0  0  0  0
  -27.6987  -14.2730   19.5590 H   0  0  0  0  0  0
  -28.7040  -12.0814   21.4451 H   0  0  0  0  0  0
  -28.4905  -13.7682   21.8265 H   0  0  0  0  0  0
  -25.2836   -9.5638   22.4769 H   0  0  0  0  0  0
  -24.0020   -7.4632   22.7476 H   0  0  0  0  0  0
  -21.0904   -8.8879   19.8956 H   0  0  0  0  0  0
  -22.3860  -10.9714   19.6174 H   0  0  0  0  0  0
  -21.2015   -7.6164   23.9729 H   0  0  0  0  0  0
  -21.1465   -6.0528   25.9076 H   0  0  0  0  0  0
  -22.0607   -2.7627   23.2831 H   0  0  0  0  0  0
  -22.4166  -11.9922   22.4802 H   0  0  0  0  0  0
  -21.1146  -13.1223   22.2482 H   0  0  0  0  0  0
  -24.6408  -15.8341   20.4755 H   0  0  0  0  0  0
  -26.2608  -15.6190   20.0237 H   0  0  0  0  0  0
  -26.7093  -32.5481   23.1137 H   0  0  0  0  0  0
  -25.0095  -33.9807   25.0523 H   0  0  0  0  0  0
  -22.6838  -31.3250   21.4484 H   0  0  0  0  0  0
  -23.3769  -35.9622   23.3291 H   0  0  0  0  0  0
  -24.3573  -36.8924   22.2053 H   0  0  0  0  0  0
  -23.7195  -37.6492   23.6644 H   0  0  0  0  0  0
  -26.0588  -31.5914   20.6242 H   0  0  0  0  0  0
  -26.8115  -30.8519   22.0095 H   0  0  0  0  0  0
  -28.0691  -29.0290   21.1952 H   0  0  0  0  0  0
  -25.8853  -26.0476   18.8915 H   0  0  0  0  0  0
  -23.9413  -27.3812   18.9674 H   0  0  0  0  0  0
  -23.6895  -30.6527   19.4282 H   0  0  0  0  0  0
  -22.7070  -29.2970   19.8720 H   0  0  0  0  0  0
  -25.1264  -36.2005   25.0841 H   0  0  0  0  0  0
  -20.9934  -28.3186   24.1412 H   0  0  0  0  0  0
  -21.6719  -26.7584   22.1197 H   0  0  0  0  0  0
  -20.5779  -26.2376   23.3681 H   0  0  0  0  0  0
  -19.7001  -25.6158   21.1413 H   0  0  0  0  0  0
  -19.6795  -27.2996   20.6641 H   0  0  0  0  0  0
  -17.4346  -26.6605   21.3910 H   0  0  0  0  0  0
  -18.0278  -26.0053   22.8995 H   0  0  0  0  0  0
  -19.7819  -30.7208   24.2355 H   0  0  0  0  0  0
  -17.4791  -31.6163   24.5174 H   0  0  0  0  0  0
  -15.5256  -30.2780   23.7546 H   0  0  0  0  0  0
  -15.8635  -28.0621   22.6975 H   0  0  0  0  0  0
  -24.5886  -30.7077   25.7803 H   0  0  0  0  0  0
  -24.8890  -32.2852   26.4968 H   0  0  0  0  0  0
  -25.8022  -30.8835   27.0258 H   0  0  0  0  0  0
  -26.2849  -29.6835   24.1205 H   0  0  0  0  0  0
  -27.4026  -29.7284   25.4643 H   0  0  0  0  0  0
  -27.8710  -30.4369   23.9361 H   0  0  0  0  0  0
  -27.2694  -33.3633   26.2129 H   0  0  0  0  0  0
  -28.3822  -32.6932   25.0322 H   0  0  0  0  0  0
  -28.0780  -31.8474   26.5390 H   0  0  0  0  0  0
  -28.2604  -38.0107   24.7540 H   0  0  0  0  0  0
  -28.1081  -36.2636   24.6266 H   0  0  0  0  0  0
  -27.2297  -37.1429   25.8867 H   0  0  0  0  0  0
  -20.9216  -29.8853   21.6968 H   0  0  0  0  0  0
  -26.0185  -38.2894   24.1451 H   0  0  0  0  0  0
  -26.9115  -20.3645   20.3917 H   0  0  0  0  0  0
  -28.2784  -16.9691   20.8409 H   0  0  0  0  0  0
  -26.9428  -17.9499   20.2706 H   0  0  0  0  0  0
  -27.1297  -17.6889   21.9821 H   0  0  0  0  0  0
  -30.2753  -16.4916   23.9626 H   0  0  0  0  0  0
  -28.7890  -16.9165   23.1636 H   0  0  0  0  0  0
  -29.5166  -18.0658   24.2536 H   0  0  0  0  0  0
  -32.5908  -18.7842   22.2122 H   0  0  0  0  0  0
  -31.7632  -19.1355   23.7215 H   0  0  0  0  0  0
  -32.4302  -17.5423   23.4317 H   0  0  0  0  0  0
  -27.1336  -22.9851   20.9360 H   0  0  0  0  0  0
  -27.8020  -22.6985   19.3568 H   0  0  0  0  0  0
  -28.8306  -24.5164   21.5726 H   0  0  0  0  0  0
  -29.9293  -23.9947   20.3187 H   0  0  0  0  0  0
  -30.6603  -17.2557   20.2399 H   0  0  0  0  0  0
  -32.0046  -16.7564   21.1813 H   0  0  0  0  0  0
  -27.4394  -24.9318   19.1649 H   0  0  0  0  0  0
  -29.0409  -25.3021   18.6887 H   0  0  0  0  0  0
  -29.5156  -15.3274   21.8641 H   0  0  0  0  0  0
  1 25  1  0  0  0
  1 30  2  0  0  0
  1 85  1  0  0  0
  2  3  1  0  0  0
  2 25  1  0  0  0
  2 86  1  0  0  0
  2 87  1  0  0  0
  3  4  1  0  0  0
  3 88  1  0  0  0
  3 89  1  0  0  0
  4  5  1  0  0  0
  4 90  1  0  0  0
  4 91  1  0  0  0
  5  6  1  0  0  0
  5 26  1  0  0  0
  5 92  1  0  0  0
  6 25  1  0  0  0
  6 93  1  0  0  0
  6 94  1  0  0  0
  7  8  2  0  0  0
  7 26  1  0  0  0
  7 29  1  0  0  0
  8  9  1  0  0  0
  8 22  1  0  0  0
  9 10  1  0  0  0
  9 27  2  0  0  0
 10 11  2  0  0  0
 10 15  1  0  0  0
 11 12  1  0  0  0
 11 95  1  0  0  0
 12 13  2  0  0  0
 12 96  1  0  0  0
 13 14  1  0  0  0
 13 31  1  0  0  0
 14 15  2  0  0  0
 14 97  1  0  0  0
 15 98  1  0  0  0
 16 17  2  0  0  0
 16 21  1  0  0  0
 16 31  1  0  0  0
 17 18  1  0  0  0
 17 99  1  0  0  0
 18 19  2  0  0  0
 18100  1  0  0  0
 19 20  1  0  0  0
 19 24  1  0  0  0
 20 21  2  0  0  0
 20101  1  0  0  0
 21 23  1  0  0  0
 22 28  1  0  0  0
 22 32  2  0  0  0
 26 27  1  0  0  0
 28102  1  0  0  0
 28103  1  0  0  0
 29104  1  0  0  0
 29105  1  0  0  0
 33 34  1  0  0  0
 33 66  1  0  0  0
 33 70  2  0  0  0
 34 36  1  0  0  0
 34 59  1  0  0  0
 34106  1  0  0  0
 35 44  2  0  0  0
 35 45  1  0  0  0
 35 68  1  0  0  0
 36 56  1  0  0  0
 36107  1  0  0  0
 37 39  1  0  0  0
 37 47  1  0  0  0
 37 66  1  0  0  0
 37108  1  0  0  0
 38 43  2  0  0  0
 38 46  1  0  0  0
 38 47  1  0  0  0
 39 64  1  0  0  0
 39 67  2  0  0  0
 40 52  1  0  0  0
 40 53  2  0  0  0
 40 58  1  0  0  0
 41109  1  0  0  0
 41110  1  0  0  0
 41111  1  0  0  0
 41 48  1  0  0  0
 42 43  1  0  0  0
 42 66  1  0  0  0
 42112  1  0  0  0
 42113  1  0  0  0
 43 44  1  0  0  0
 44114  1  0  0  0
 45 46  2  0  0  0
 45115  1  0  0  0
 46116  1  0  0  0
 47117  1  0  0  0
 47118  1  0  0  0
 48 56  1  0  0  0
 48 65  1  0  0  0
 48119  1  0  0  0
 49 50  1  0  0  0
 49 53  1  0  0  0
 49 64  1  0  0  0
 49120  1  0  0  0
 50 51  1  0  0  0
 50121  1  0  0  0
 50122  1  0  0  0
 51 52  1  0  0  0
 51123  1  0  0  0
 51124  1  0  0  0
 52125  1  0  0  0
 52126  1  0  0  0
 53 54  1  0  0  0
 54 55  2  0  0  0
 54127  1  0  0  0
 55 57  1  0  0  0
 55128  1  0  0  0
 56 69  2  0  0  0
 57 58  2  0  0  0
 57129  1  0  0  0
 58130  1  0  0  0
 59 60  1  0  0  0
 59 61  1  0  0  0
 59 62  1  0  0  0
 60131  1  0  0  0
 60132  1  0  0  0
 60133  1  0  0  0
 61134  1  0  0  0
 61135  1  0  0  0
 61136  1  0  0  0
 62137  1  0  0  0
 62138  1  0  0  0
 62139  1  0  0  0
 63 65  1  0  0  0
 63140  1  0  0  0
 63141  1  0  0  0
 63142  1  0  0  0
 64143  1  0  0  0
 65144  1  0  0  0
 68 81  1  0  0  0
 71 72  2  0  0  0
 71 73  1  0  0  0
 71145  1  0  0  0
 72 74  1  0  0  0
 72 75  1  0  0  0
 73 78  1  0  0  0
 73 83  2  0  0  0
 74 82  1  0  0  0
 74 84  2  0  0  0
 75146  1  0  0  0
 75147  1  0  0  0
 75148  1  0  0  0
 76149  1  0  0  0
 76150  1  0  0  0
 76151  1  0  0  0
 76 82  1  0  0  0
 77 82  1  0  0  0
 77152  1  0  0  0
 77153  1  0  0  0
 77154  1  0  0  0
 78 79  1  0  0  0
 78155  1  0  0  0
 78156  1  0  0  0
 79 81  1  0  0  0
 79157  1  0  0  0
 79158  1  0  0  0
 80 82  1  0  0  0
 80 85  1  0  0  0
 80159  1  0  0  0
 80160  1  0  0  0
 81161  1  0  0  0
 81162  1  0  0  0
 83 84  1  0  0  0
 85163  1  0  0  0
M  ISO  4   1 100  68 101  81 101  85 100
M  END
> <chiral flag>
0

> <version>
0

> <s_m_source_file>
/data/baiqing/PycharmProjects/Reinvent-master-3.2/result/LINK_invent/BTK/process_docking_weight1_custom_sum_contain_oxygen_bond_distance_aromatic_linkinvent_7_9_3/rearranged_h_0076.sdf

> <i_m_source_file_index>
76

> <r_mmod_Potential_Energy-OPLS-2005>
28.3301219940186

> <r_mmod_Stretch_Energy-OPLS-2005>
53.3705139160156

> <r_mmod_Bend_Energy-OPLS-2005>
138.601745605469

> <r_mmod_Torsional_Energy-OPLS-2005>
244.215316772461

> <r_mmod_Improper_Torsional_Energy-OPLS-2005>
2.76846075057983

> <r_mmod_Van_der_Waal_Energy-OPLS-2005>
181.932495117188

> <r_mmod_Electrostatic_Energy-OPLS-2005>
-385.737457275391

> <r_mmod_Solvation_Energy-OPLS-2005>
-229.294967651367

> <b_mmod_Minimization_Converged-OPLS-2005>
0

> <r_mmod_RMS_Derivative-OPLS-2005>
7.98378992080688

$$$$
76
                    3D
 Structure written by MMmdl.
162170  0  0  1  0            999 V2000
  -30.6865  -14.5043   20.5709 C   0  0  0  0  0  0
  -30.4219  -12.3320   19.4250 C   0  0  0  0  0  0
  -29.4999  -12.5461   18.2064 C   0  0  0  0  0  0
  -28.0129  -12.4288   18.5948 C   0  0  0  0  0  0
  -27.6601  -13.2277   19.8787 C   0  0  2  0  0  0
  -28.7029  -12.9995   20.9970 C   0  0  0  0  0  0
  -25.2530  -13.8182   20.5723 C   0  0  0  0  0  0
  -24.1850  -13.0464   20.9239 C   0  0  0  0  0  0
  -24.6436  -11.6943   20.8745 C   0  0  0  0  0  0
  -23.9096  -10.4312   21.0366 C   0  0  0  0  0  0
  -24.3609   -9.4208   21.9149 C   0  0  0  0  0  0
  -23.6285   -8.2235   22.0752 C   0  0  0  0  0  0
  -22.4248   -8.0302   21.3580 C   0  0  0  0  0  0
  -21.9897   -9.0242   20.4645 C   0  0  0  0  0  0
  -22.7247  -10.2132   20.3029 C   0  0  0  0  0  0
  -21.6856   -6.0734   22.5270 C   0  0  0  0  0  0
  -21.4034   -6.5636   23.8212 C   0  0  0  0  0  0
  -21.3663   -5.6800   24.9169 C   0  0  0  0  0  0
  -21.6037   -4.3058   24.7231 C   0  0  0  0  0  0
  -21.8813   -3.8150   23.4345 C   0  0  0  0  0  0
  -21.9194   -4.6959   22.3405 C   0  0  0  0  0  0
  -22.7820  -13.5185   21.1861 C   0  0  0  0  0  0
  -22.1654   -4.2161   21.0974 F   0  0  0  0  0  0
  -21.5616   -3.4532   25.7724 F   0  0  0  0  0  0
  -30.0300  -13.3163   20.4464 N   0  0  0  0  0  0
  -26.3024  -12.9441   20.3359 N   0  0  0  0  0  0
  -25.9408  -11.6580   20.5807 N   0  0  0  0  0  0
  -22.0511  -12.8190   22.0430 N   0  0  0  0  0  0
  -25.4160  -15.1935   20.4233 N   0  0  0  0  0  0
  -31.7841  -14.7109   20.0440 O   0  0  0  0  0  0
  -21.6653   -6.8883   21.4250 O   0  0  0  0  0  0
  -22.3453  -14.5450   20.6668 O   0  0  0  0  0  0
  -24.6326  -31.8774   23.2149 C   0  0  0  0  0  0
  -25.9211  -32.4863   23.8456 C   0  0  1  0  0  0
  -27.2227  -27.4268   20.0791 C   0  0  0  0  0  0
  -25.6014  -33.8647   24.2374 N   0  0  0  0  0  0
  -23.4373  -30.4972   21.5783 C   0  0  2  0  0  0
  -24.8536  -28.9711   20.1134 C   0  0  0  0  0  0
  -22.7778  -29.4755   22.5257 C   0  0  0  0  0  0
  -17.9888  -28.1197   22.9083 C   0  0  0  0  0  0
  -24.1482  -36.7353   23.2622 C   0  0  0  0  0  0
  -25.9499  -30.8376   21.3660 C   0  0  0  0  0  0
  -26.0208  -29.4705   20.7080 C   0  0  0  0  0  0
  -27.2124  -28.7075   20.6846 C   0  0  0  0  0  0
  -26.0427  -26.9562   19.4693 C   0  0  0  0  0  0
  -24.8613  -27.7162   19.4843 C   0  0  0  0  0  0
  -23.6232  -29.8443   20.1823 C   0  0  0  0  0  0
  -25.4102  -36.3144   24.0318 C   0  0  1  0  0  0
  -20.4782  -28.4548   22.7944 C   0  0  2  0  0  0
  -20.6800  -26.9550   22.5153 C   0  0  0  0  0  0
  -19.5222  -26.4848   21.6086 C   0  0  0  0  0  0
  -18.1528  -26.7386   22.2760 C   0  0  0  0  0  0
  -19.1122  -28.9063   23.2606 C   0  0  0  0  0  0
  -18.9372  -30.1704   23.8617 C   0  0  0  0  0  0
  -17.6441  -30.6780   24.0674 C   0  0  0  0  0  0
  -25.9079  -34.9511   23.5122 C   0  0  0  0  0  0
  -16.5197  -29.9137   23.7004 C   0  0  0  0  0  0
  -16.6912  -28.6357   23.1321 C   0  0  0  0  0  0
  -26.4545  -31.6621   25.0783 C   0  0  0  0  0  0
  -25.3760  -31.3743   26.1481 C   0  0  0  0  0  0
  -27.0326  -30.3053   24.6141 C   0  0  0  0  0  0
  -27.6080  -32.4300   25.7610 C   0  0  0  0  0  0
  -27.5573  -37.1834   24.8458 C   0  0  0  0  0  0
  -21.4542  -29.4470   22.4201 N   0  0  0  0  0  0
  -26.4292  -37.3818   23.9402 N   0  0  0  0  0  0
  -24.6951  -31.0832   22.1130 N   0  0  0  0  0  0
  -23.4309  -28.7482   23.2751 O   0  0  0  0  0  0
  -28.3569  -26.6475   20.0751 O   0  0  0  0  0  0
  -26.5574  -34.8943   22.4645 O   0  0  0  0  0  0
  -23.5472  -32.1502   23.7518 O   0  0  0  0  0  0
  -28.3961  -19.7293   19.6820 C   0  0  0  0  0  0
  -27.4135  -20.6945   19.5704 C   0  0  0  0  0  0
  -26.4091  -20.2345   20.4822 C   0  0  0  0  0  0
  -25.0858  -20.8227   20.8777 C   0  0  0  0  0  0
  -30.3572  -15.7386   22.5892 C   0  0  0  0  0  0
  -27.3691  -21.9345   18.6878 C   0  0  0  0  0  0
  -27.0976  -23.2834   19.4176 C   0  0  0  0  0  0
  -28.3670  -24.1403   19.6908 C   0  0  0  0  0  0
  -28.6206  -17.6339   21.2594 C   0  0  0  0  0  0
  -29.6227  -16.7532   20.4549 C   0  0  0  0  0  0
  -28.1925  -25.3419   20.6591 C   0  0  0  0  0  0
  -26.7466  -19.1035   21.0704 N   0  0  0  0  0  0
  -27.9666  -18.7773   20.5988 N   0  0  0  0  0  0
  -30.0053  -15.5071   21.1869 N   0  0  0  0  0  0
  -31.4672  -12.4403   19.1302 H   0  0  0  0  0  0
  -30.3145  -11.3198   19.8273 H   0  0  0  0  0  0
  -29.7441  -11.8240   17.4291 H   0  0  0  0  0  0
  -29.6953  -13.5333   17.7748 H   0  0  0  0  0  0
  -27.7682  -11.3794   18.7256 H   0  0  0  0  0  0
  -27.3874  -12.7931   17.7745 H   0  0  0  0  0  0
  -27.6917  -14.2808   19.6040 H   0  0  0  0  0  0
  -28.6801  -11.9689   21.3407 H   0  0  0  0  0  0
  -28.4589  -13.5917   21.8818 H   0  0  0  0  0  0
  -25.2766   -9.5671   22.4733 H   0  0  0  0  0  0
  -24.0008   -7.4605   22.7458 H   0  0  0  0  0  0
  -21.0824   -8.8742   19.8927 H   0  0  0  0  0  0
  -22.3680  -10.9654   19.6126 H   0  0  0  0  0  0
  -21.2058   -7.6155   23.9725 H   0  0  0  0  0  0
  -21.1480   -6.0524   25.9075 H   0  0  0  0  0  0
  -22.0598   -2.7619   23.2837 H   0  0  0  0  0  0
  -22.4129  -11.9850   22.4836 H   0  0  0  0  0  0
  -21.1124  -13.1212   22.2626 H   0  0  0  0  0  0
  -24.6478  -15.8428   20.5665 H   0  0  0  0  0  0
  -26.2740  -15.6557   20.1488 H   0  0  0  0  0  0
  -26.7272  -32.5597   23.1218 H   0  0  0  0  0  0
  -25.0134  -33.9798   25.0506 H   0  0  0  0  0  0
  -22.7287  -31.3116   21.4495 H   0  0  0  0  0  0
  -23.3738  -35.9696   23.3282 H   0  0  0  0  0  0
  -24.3567  -36.8987   22.2041 H   0  0  0  0  0  0
  -23.7279  -37.6559   23.6654 H   0  0  0  0  0  0
  -26.0525  -31.6080   20.6013 H   0  0  0  0  0  0
  -26.8427  -30.8976   21.9733 H   0  0  0  0  0  0
  -28.1178  -29.0921   21.1340 H   0  0  0  0  0  0
  -26.0356  -26.0064   18.9645 H   0  0  0  0  0  0
  -23.9705  -27.3413   19.0043 H   0  0  0  0  0  0
  -23.7270  -30.6312   19.4331 H   0  0  0  0  0  0
  -22.7383  -29.2727   19.8854 H   0  0  0  0  0  0
  -25.1291  -36.1951   25.0804 H   0  0  0  0  0  0
  -20.1514  -28.6953   21.7792 H   0  0  0  0  0  0
  -20.6702  -26.3808   23.4468 H   0  0  0  0  0  0
  -21.6360  -26.7610   22.0273 H   0  0  0  0  0  0
  -19.6149  -25.4262   21.3735 H   0  0  0  0  0  0
  -19.5737  -26.9951   20.6472 H   0  0  0  0  0  0
  -17.3395  -26.5647   21.5740 H   0  0  0  0  0  0
  -18.0220  -26.0101   23.0845 H   0  0  0  0  0  0
  -19.7960  -30.7825   24.1219 H   0  0  0  0  0  0
  -17.5082  -31.6664   24.4820 H   0  0  0  0  0  0
  -15.5231  -30.3044   23.8632 H   0  0  0  0  0  0
  -15.8184  -28.0541   22.8689 H   0  0  0  0  0  0
  -24.5926  -30.7106   25.7822 H   0  0  0  0  0  0
  -24.8958  -32.2904   26.4917 H   0  0  0  0  0  0
  -25.8061  -30.8915   27.0275 H   0  0  0  0  0  0
  -26.2876  -29.6868   24.1115 H   0  0  0  0  0  0
  -27.4013  -29.7203   25.4596 H   0  0  0  0  0  0
  -27.8758  -30.4355   23.9340 H   0  0  0  0  0  0
  -27.2684  -33.3580   26.2213 H   0  0  0  0  0  0
  -28.3936  -32.6888   25.0509 H   0  0  0  0  0  0
  -28.0696  -31.8404   26.5543 H   0  0  0  0  0  0
  -28.2601  -38.0119   24.7501 H   0  0  0  0  0  0
  -28.1050  -36.2663   24.6279 H   0  0  0  0  0  0
  -27.2282  -37.1490   25.8854 H   0  0  0  0  0  0
  -21.0672  -30.1891   21.8482 H   0  0  0  0  0  0
  -26.0162  -38.2877   24.1413 H   0  0  0  0  0  0
  -29.3648  -19.6600   19.2007 H   0  0  0  0  0  0
  -24.3890  -20.0581   21.2132 H   0  0  0  0  0  0
  -24.6211  -21.3487   20.0472 H   0  0  0  0  0  0
  -25.1941  -21.5098   21.7175 H   0  0  0  0  0  0
  -31.0200  -16.6043   22.6592 H   0  0  0  0  0  0
  -30.8672  -14.8996   23.0733 H   0  0  0  0  0  0
  -29.4515  -15.9284   23.1735 H   0  0  0  0  0  0
  -26.5898  -21.8009   17.9399 H   0  0  0  0  0  0
  -28.2765  -22.0228   18.0898 H   0  0  0  0  0  0
  -26.4319  -23.8714   18.7884 H   0  0  0  0  0  0
  -26.5243  -23.1324   20.3270 H   0  0  0  0  0  0
  -28.8052  -24.4776   18.7505 H   0  0  0  0  0  0
  -29.1171  -23.4769   20.1266 H   0  0  0  0  0  0
  -27.8262  -16.9790   21.6285 H   0  0  0  0  0  0
  -29.1267  -18.0376   22.1376 H   0  0  0  0  0  0
  -30.5066  -17.3377   20.2195 H   0  0  0  0  0  0
  -29.1626  -16.4886   19.5005 H   0  0  0  0  0  0
  -28.9793  -25.2733   21.4170 H   0  0  0  0  0  0
  -27.2528  -25.2511   21.2121 H   0  0  0  0  0  0
  1 25  1  0  0  0
  1 30  2  0  0  0
  1 84  1  0  0  0
  2  3  1  0  0  0
  2 25  1  0  0  0
  2 85  1  0  0  0
  2 86  1  0  0  0
  3  4  1  0  0  0
  3 87  1  0  0  0
  3 88  1  0  0  0
  4  5  1  0  0  0
  4 89  1  0  0  0
  4 90  1  0  0  0
  5  6  1  0  0  0
  5 26  1  0  0  0
  5 91  1  0  0  0
  6 25  1  0  0  0
  6 92  1  0  0  0
  6 93  1  0  0  0
  7  8  2  0  0  0
  7 26  1  0  0  0
  7 29  1  0  0  0
  8  9  1  0  0  0
  8 22  1  0  0  0
  9 10  1  0  0  0
  9 27  2  0  0  0
 10 11  2  0  0  0
 10 15  1  0  0  0
 11 12  1  0  0  0
 11 94  1  0  0  0
 12 13  2  0  0  0
 12 95  1  0  0  0
 13 14  1  0  0  0
 13 31  1  0  0  0
 14 15  2  0  0  0
 14 96  1  0  0  0
 15 97  1  0  0  0
 16 17  2  0  0  0
 16 21  1  0  0  0
 16 31  1  0  0  0
 17 18  1  0  0  0
 17 98  1  0  0  0
 18 19  2  0  0  0
 18 99  1  0  0  0
 19 20  1  0  0  0
 19 24  1  0  0  0
 20 21  2  0  0  0
 20100  1  0  0  0
 21 23  1  0  0  0
 22 28  1  0  0  0
 22 32  2  0  0  0
 26 27  1  0  0  0
 28101  1  0  0  0
 28102  1  0  0  0
 29103  1  0  0  0
 29104  1  0  0  0
 33 34  1  0  0  0
 33 66  1  0  0  0
 33 70  2  0  0  0
 34 36  1  0  0  0
 34 59  1  0  0  0
 34105  1  0  0  0
 35 44  2  0  0  0
 35 45  1  0  0  0
 35 68  1  0  0  0
 36 56  1  0  0  0
 36106  1  0  0  0
 37 39  1  0  0  0
 37 47  1  0  0  0
 37 66  1  0  0  0
 37107  1  0  0  0
 38 43  2  0  0  0
 38 46  1  0  0  0
 38 47  1  0  0  0
 39 64  1  0  0  0
 39 67  2  0  0  0
 40 52  1  0  0  0
 40 53  2  0  0  0
 40 58  1  0  0  0
 41108  1  0  0  0
 41109  1  0  0  0
 41110  1  0  0  0
 41 48  1  0  0  0
 42 43  1  0  0  0
 42 66  1  0  0  0
 42111  1  0  0  0
 42112  1  0  0  0
 43 44  1  0  0  0
 44113  1  0  0  0
 45 46  2  0  0  0
 45114  1  0  0  0
 46115  1  0  0  0
 47116  1  0  0  0
 47117  1  0  0  0
 48 56  1  0  0  0
 48 65  1  0  0  0
 48118  1  0  0  0
 49 50  1  0  0  0
 49 53  1  0  0  0
 49 64  1  0  0  0
 49119  1  0  0  0
 50 51  1  0  0  0
 50120  1  0  0  0
 50121  1  0  0  0
 51 52  1  0  0  0
 51122  1  0  0  0
 51123  1  0  0  0
 52124  1  0  0  0
 52125  1  0  0  0
 53 54  1  0  0  0
 54 55  2  0  0  0
 54126  1  0  0  0
 55 57  1  0  0  0
 55127  1  0  0  0
 56 69  2  0  0  0
 57 58  2  0  0  0
 57128  1  0  0  0
 58129  1  0  0  0
 59 60  1  0  0  0
 59 61  1  0  0  0
 59 62  1  0  0  0
 60130  1  0  0  0
 60131  1  0  0  0
 60132  1  0  0  0
 61133  1  0  0  0
 61134  1  0  0  0
 61135  1  0  0  0
 62136  1  0  0  0
 62137  1  0  0  0
 62138  1  0  0  0
 63 65  1  0  0  0
 63139  1  0  0  0
 63140  1  0  0  0
 63141  1  0  0  0
 64142  1  0  0  0
 65143  1  0  0  0
 68 81  1  0  0  0
 71 72  2  0  0  0
 71 83  1  0  0  0
 71144  1  0  0  0
 72 73  1  0  0  0
 72 76  1  0  0  0
 73 74  1  0  0  0
 73 82  2  0  0  0
 74145  1  0  0  0
 74146  1  0  0  0
 74147  1  0  0  0
 75 84  1  0  0  0
 75148  1  0  0  0
 75149  1  0  0  0
 75150  1  0  0  0
 76 77  1  0  0  0
 76151  1  0  0  0
 76152  1  0  0  0
 77 78  1  0  0  0
 77153  1  0  0  0
 77154  1  0  0  0
 78 81  1  0  0  0
 78155  1  0  0  0
 78156  1  0  0  0
 79 80  1  0  0  0
 79 83  1  0  0  0
 79157  1  0  0  0
 79158  1  0  0  0
 80 84  1  0  0  0
 80159  1  0  0  0
 80160  1  0  0  0
 81161  1  0  0  0
 81162  1  0  0  0
 82 83  1  0  0  0
M  ISO  4   1 100  68 101  81 101  84 100
M  END
> <chiral flag>
0

> <version>
0

> <s_m_source_file>
/data/baiqing/PycharmProjects/Reinvent-master-3.2/result/LINK_invent/BTK/process_docking_weight1_custom_sum_contain_oxygen_bond_distance_aromatic_linkinvent_7_9_3/rearranged_h_0076.sdf

> <i_m_source_file_index>
77

> <r_mmod_Potential_Energy-OPLS-2005>
253.599960327148

> <r_mmod_Stretch_Energy-OPLS-2005>
39.4383163452148

> <r_mmod_Bend_Energy-OPLS-2005>
217.673446655273

> <r_mmod_Torsional_Energy-OPLS-2005>
343.977996826172

> <r_mmod_Improper_Torsional_Energy-OPLS-2005>
7.83722448348999

> <r_mmod_Van_der_Waal_Energy-OPLS-2005>
129.702499389648

> <r_mmod_Electrostatic_Energy-OPLS-2005>
-316.262664794922

> <r_mmod_Solvation_Energy-OPLS-2005>
-205.376571655273

> <b_mmod_Minimization_Converged-OPLS-2005>
0

> <r_mmod_RMS_Derivative-OPLS-2005>
11.8545961380005

$$$$
77
                    3D
 Structure written by MMmdl.
160168  0  0  1  0            999 V2000
  -30.7088  -14.4875   20.4812 C   0  0  0  0  0  0
  -30.4083  -12.3000   19.4209 C   0  0  0  0  0  0
  -29.4846  -12.4840   18.2008 C   0  0  0  0  0  0
  -28.0074  -12.3502   18.6191 C   0  0  0  0  0  0
  -27.6504  -13.2124   19.8601 C   0  0  2  0  0  0
  -28.6984  -13.0564   20.9834 C   0  0  0  0  0  0
  -25.2572  -13.8075   20.5786 C   0  0  0  0  0  0
  -24.1813  -13.0369   20.9195 C   0  0  0  0  0  0
  -24.6390  -11.6848   20.8737 C   0  0  0  0  0  0
  -23.9062  -10.4247   21.0409 C   0  0  0  0  0  0
  -24.3613   -9.4177   21.9193 C   0  0  0  0  0  0
  -23.6284   -8.2219   22.0765 C   0  0  0  0  0  0
  -22.4265   -8.0267   21.3551 C   0  0  0  0  0  0
  -21.9902   -9.0239   20.4650 C   0  0  0  0  0  0
  -22.7238  -10.2112   20.3053 C   0  0  0  0  0  0
  -21.6841   -6.0729   22.5290 C   0  0  0  0  0  0
  -21.3998   -6.5631   23.8218 C   0  0  0  0  0  0
  -21.3659   -5.6793   24.9186 C   0  0  0  0  0  0
  -21.6046   -4.3057   24.7237 C   0  0  0  0  0  0
  -21.8816   -3.8150   23.4353 C   0  0  0  0  0  0
  -21.9185   -4.6962   22.3408 C   0  0  0  0  0  0
  -22.7845  -13.5199   21.1855 C   0  0  0  0  0  0
  -22.1659   -4.2149   21.0987 F   0  0  0  0  0  0
  -21.5637   -3.4541   25.7750 F   0  0  0  0  0  0
  -30.0205  -13.3210   20.4041 N   0  0  0  0  0  0
  -26.2992  -12.9294   20.3359 N   0  0  0  0  0  0
  -25.9322  -11.6445   20.5759 N   0  0  0  0  0  0
  -22.0456  -12.8197   22.0392 N   0  0  0  0  0  0
  -25.4298  -15.1767   20.4429 N   0  0  0  0  0  0
  -31.9138  -14.5567   20.2431 O   0  0  0  0  0  0
  -21.6626   -6.8870   21.4253 O   0  0  0  0  0  0
  -22.3560  -14.5540   20.6744 O   0  0  0  0  0  0
  -24.6117  -31.8675   23.2113 C   0  0  0  0  0  0
  -25.9010  -32.4821   23.8394 C   0  0  1  0  0  0
  -27.2284  -27.4488   20.1058 C   0  0  0  0  0  0
  -25.5871  -33.8617   24.2317 N   0  0  0  0  0  0
  -23.3990  -30.4923   21.5488 C   0  0  2  0  0  0
  -24.8464  -28.9617   20.1105 C   0  0  0  0  0  0
  -22.7396  -29.4650   22.4965 C   0  0  0  0  0  0
  -18.0275  -28.1361   22.8490 C   0  0  0  0  0  0
  -24.1489  -36.7317   23.2641 C   0  0  0  0  0  0
  -25.9264  -30.8398   21.3625 C   0  0  0  0  0  0
  -26.0047  -29.4786   20.7051 C   0  0  0  0  0  0
  -27.2030  -28.7301   20.6953 C   0  0  0  0  0  0
  -26.0572  -26.9428   19.5023 C   0  0  0  0  0  0
  -24.8672  -27.6941   19.5034 C   0  0  0  0  0  0
  -23.6061  -29.8247   20.1622 C   0  0  0  0  0  0
  -25.4105  -36.3108   24.0339 C   0  0  1  0  0  0
  -20.5862  -28.3639   23.1322 C   0  0  2  0  0  0
  -20.6766  -26.9375   22.5420 C   0  0  0  0  0  0
  -19.5754  -26.6370   21.5205 C   0  0  0  0  0  0
  -18.1923  -26.7910   22.1608 C   0  0  0  0  0  0
  -19.1526  -28.8814   23.2913 C   0  0  0  0  0  0
  -18.9458  -30.1419   23.8922 C   0  0  0  0  0  0
  -17.6455  -30.6570   24.0560 C   0  0  0  0  0  0
  -25.9030  -34.9467   23.5136 C   0  0  0  0  0  0
  -16.5350  -29.9071   23.6327 C   0  0  0  0  0  0
  -16.7261  -28.6489   23.0345 C   0  0  0  0  0  0
  -26.4457  -31.6605   25.0721 C   0  0  0  0  0  0
  -25.3738  -31.3695   26.1472 C   0  0  0  0  0  0
  -27.0292  -30.3060   24.6070 C   0  0  0  0  0  0
  -27.6010  -32.4347   25.7486 C   0  0  0  0  0  0
  -27.5581  -37.1814   24.8453 C   0  0  0  0  0  0
  -21.4121  -29.3014   22.3718 N   0  0  0  0  0  0
  -26.4290  -37.3793   23.9407 N   0  0  0  0  0  0
  -24.6633  -31.0803   22.0996 N   0  0  0  0  0  0
  -23.4181  -28.8186   23.2995 O   0  0  0  0  0  0
  -28.3795  -26.7002   20.1304 O   0  0  0  0  0  0
  -26.5596  -34.8919   22.4691 O   0  0  0  0  0  0
  -23.5320  -32.1390   23.7536 O   0  0  0  0  0  0
  -29.7649  -19.3913   20.2800 C   0  0  0  0  0  0
  -28.7679  -20.3359   20.0065 C   0  0  0  0  0  0
  -29.3898  -18.0375   20.3008 C   0  0  0  0  0  0
  -27.2197  -18.6519   19.9329 C   0  0  0  0  0  0
  -25.7801  -18.2707   19.6718 C   0  0  0  0  0  0
  -31.0444  -17.0363   18.7680 C   0  0  0  0  0  0
  -29.1011  -21.7734   19.6193 C   0  0  0  0  0  0
  -28.4930  -22.8777   20.5098 C   0  0  0  0  0  0
  -28.6621  -24.2815   19.8785 C   0  0  0  0  0  0
  -28.2548  -25.4396   20.8032 C   0  0  0  0  0  0
  -30.4646  -16.9570   20.2038 C   0  0  2  0  0  0
  -27.4905  -19.9504   19.8553 N   0  0  0  0  0  0
  -28.0998  -17.6695   20.1326 N   0  0  0  0  0  0
  -29.9647  -15.6072   20.5226 N   0  0  0  0  0  0
  -31.4535  -12.3820   19.1168 H   0  0  0  0  0  0
  -30.2957  -11.3021   19.8462 H   0  0  0  0  0  0
  -29.7212  -11.7494   17.4305 H   0  0  0  0  0  0
  -29.6504  -13.4635   17.7496 H   0  0  0  0  0  0
  -27.8198  -11.2968   18.8308 H   0  0  0  0  0  0
  -27.3550  -12.6114   17.7854 H   0  0  0  0  0  0
  -27.6692  -14.2503   19.5272 H   0  0  0  0  0  0
  -28.6745  -12.0487   21.4004 H   0  0  0  0  0  0
  -28.4854  -13.7360   21.8113 H   0  0  0  0  0  0
  -25.2760   -9.5653   22.4776 H   0  0  0  0  0  0
  -23.9986   -7.4610   22.7491 H   0  0  0  0  0  0
  -21.0831   -8.8767   19.8960 H   0  0  0  0  0  0
  -22.3712  -10.9658   19.6162 H   0  0  0  0  0  0
  -21.1974   -7.6132   23.9725 H   0  0  0  0  0  0
  -21.1484   -6.0521   25.9093 H   0  0  0  0  0  0
  -22.0589   -2.7610   23.2860 H   0  0  0  0  0  0
  -22.4043  -11.9834   22.4760 H   0  0  0  0  0  0
  -21.1086  -13.1255   22.2597 H   0  0  0  0  0  0
  -24.6652  -15.8215   20.6036 H   0  0  0  0  0  0
  -26.3077  -15.6358   20.2290 H   0  0  0  0  0  0
  -26.7070  -32.5529   23.1154 H   0  0  0  0  0  0
  -25.0000  -33.9781   25.0455 H   0  0  0  0  0  0
  -22.6856  -31.3069   21.4082 H   0  0  0  0  0  0
  -23.3741  -35.9658   23.3300 H   0  0  0  0  0  0
  -24.3586  -36.8939   22.2057 H   0  0  0  0  0  0
  -23.7252  -37.6527   23.6659 H   0  0  0  0  0  0
  -26.0425  -31.6101   20.5990 H   0  0  0  0  0  0
  -26.8132  -30.8854   21.9834 H   0  0  0  0  0  0
  -28.0979  -29.1202   21.1595 H   0  0  0  0  0  0
  -26.0631  -25.9648   19.0418 H   0  0  0  0  0  0
  -23.9755  -27.2904   19.0436 H   0  0  0  0  0  0
  -23.7094  -30.5988   19.4002 H   0  0  0  0  0  0
  -22.7315  -29.2433   19.8674 H   0  0  0  0  0  0
  -25.1291  -36.1972   25.0832 H   0  0  0  0  0  0
  -20.9965  -28.3204   24.1438 H   0  0  0  0  0  0
  -20.5680  -26.2231   23.3599 H   0  0  0  0  0  0
  -21.6633  -26.7417   22.1198 H   0  0  0  0  0  0
  -19.6925  -25.6295   21.1202 H   0  0  0  0  0  0
  -19.6711  -27.3199   20.6751 H   0  0  0  0  0  0
  -17.4200  -26.6666   21.4005 H   0  0  0  0  0  0
  -18.0323  -26.0038   22.8987 H   0  0  0  0  0  0
  -19.7937  -30.7226   24.2295 H   0  0  0  0  0  0
  -17.5016  -31.6260   24.5145 H   0  0  0  0  0  0
  -15.5354  -30.2983   23.7647 H   0  0  0  0  0  0
  -15.8655  -28.0819   22.7049 H   0  0  0  0  0  0
  -24.5885  -30.7072   25.7811 H   0  0  0  0  0  0
  -24.8953  -32.2846   26.4976 H   0  0  0  0  0  0
  -25.8098  -30.8821   27.0200 H   0  0  0  0  0  0
  -26.2823  -29.6835   24.1122 H   0  0  0  0  0  0
  -27.4083  -29.7288   25.4513 H   0  0  0  0  0  0
  -27.8651  -30.4397   23.9193 H   0  0  0  0  0  0
  -27.2582  -33.3625   26.2080 H   0  0  0  0  0  0
  -28.3813  -32.6954   25.0324 H   0  0  0  0  0  0
  -28.0675  -31.8465   26.5407 H   0  0  0  0  0  0
  -28.2577  -38.0136   24.7514 H   0  0  0  0  0  0
  -28.1110  -36.2663   24.6262 H   0  0  0  0  0  0
  -27.2297  -37.1425   25.8858 H   0  0  0  0  0  0
  -20.9251  -29.8750   21.6968 H   0  0  0  0  0  0
  -26.0183  -38.2873   24.1404 H   0  0  0  0  0  0
  -30.8071  -19.6791   20.3307 H   0  0  0  0  0  0
  -25.2511  -19.0725   19.1542 H   0  0  0  0  0  0
  -25.2620  -18.0765   20.6104 H   0  0  0  0  0  0
  -25.7231  -17.3899   19.0344 H   0  0  0  0  0  0
  -31.4286  -18.0356   18.5621 H   0  0  0  0  0  0
  -30.2795  -16.8249   18.0206 H   0  0  0  0  0  0
  -31.8779  -16.3593   18.5931 H   0  0  0  0  0  0
  -28.7582  -21.9140   18.5936 H   0  0  0  0  0  0
  -30.1848  -21.8914   19.5840 H   0  0  0  0  0  0
  -28.9486  -22.8392   21.4993 H   0  0  0  0  0  0
  -27.4282  -22.6876   20.6544 H   0  0  0  0  0  0
  -28.0739  -24.3320   18.9609 H   0  0  0  0  0  0
  -29.7003  -24.4272   19.5793 H   0  0  0  0  0  0
  -28.9133  -25.4593   21.6718 H   0  0  0  0  0  0
  -27.2503  -25.2668   21.1968 H   0  0  0  0  0  0
  -31.2487  -17.2017   20.9232 H   0  0  0  0  0  0
  -28.9643  -15.5465   20.6356 H   0  0  0  0  0  0
  1 25  1  0  0  0
  1 30  2  0  0  0
  1 84  1  0  0  0
  2  3  1  0  0  0
  2 25  1  0  0  0
  2 85  1  0  0  0
  2 86  1  0  0  0
  3  4  1  0  0  0
  3 87  1  0  0  0
  3 88  1  0  0  0
  4  5  1  0  0  0
  4 89  1  0  0  0
  4 90  1  0  0  0
  5  6  1  0  0  0
  5 26  1  0  0  0
  5 91  1  0  0  0
  6 25  1  0  0  0
  6 92  1  0  0  0
  6 93  1  0  0  0
  7  8  2  0  0  0
  7 26  1  0  0  0
  7 29  1  0  0  0
  8  9  1  0  0  0
  8 22  1  0  0  0
  9 10  1  0  0  0
  9 27  2  0  0  0
 10 11  2  0  0  0
 10 15  1  0  0  0
 11 12  1  0  0  0
 11 94  1  0  0  0
 12 13  2  0  0  0
 12 95  1  0  0  0
 13 14  1  0  0  0
 13 31  1  0  0  0
 14 15  2  0  0  0
 14 96  1  0  0  0
 15 97  1  0  0  0
 16 17  2  0  0  0
 16 21  1  0  0  0
 16 31  1  0  0  0
 17 18  1  0  0  0
 17 98  1  0  0  0
 18 19  2  0  0  0
 18 99  1  0  0  0
 19 20  1  0  0  0
 19 24  1  0  0  0
 20 21  2  0  0  0
 20100  1  0  0  0
 21 23  1  0  0  0
 22 28  1  0  0  0
 22 32  2  0  0  0
 26 27  1  0  0  0
 28101  1  0  0  0
 28102  1  0  0  0
 29103  1  0  0  0
 29104  1  0  0  0
 33 34  1  0  0  0
 33 66  1  0  0  0
 33 70  2  0  0  0
 34 36  1  0  0  0
 34 59  1  0  0  0
 34105  1  0  0  0
 35 44  2  0  0  0
 35 45  1  0  0  0
 35 68  1  0  0  0
 36 56  1  0  0  0
 36106  1  0  0  0
 37 39  1  0  0  0
 37 47  1  0  0  0
 37 66  1  0  0  0
 37107  1  0  0  0
 38 43  2  0  0  0
 38 46  1  0  0  0
 38 47  1  0  0  0
 39 64  1  0  0  0
 39 67  2  0  0  0
 40 52  1  0  0  0
 40 53  2  0  0  0
 40 58  1  0  0  0
 41108  1  0  0  0
 41109  1  0  0  0
 41110  1  0  0  0
 41 48  1  0  0  0
 42 43  1  0  0  0
 42 66  1  0  0  0
 42111  1  0  0  0
 42112  1  0  0  0
 43 44  1  0  0  0
 44113  1  0  0  0
 45 46  2  0  0  0
 45114  1  0  0  0
 46115  1  0  0  0
 47116  1  0  0  0
 47117  1  0  0  0
 48 56  1  0  0  0
 48 65  1  0  0  0
 48118  1  0  0  0
 49 50  1  0  0  0
 49 53  1  0  0  0
 49 64  1  0  0  0
 49119  1  0  0  0
 50 51  1  0  0  0
 50120  1  0  0  0
 50121  1  0  0  0
 51 52  1  0  0  0
 51122  1  0  0  0
 51123  1  0  0  0
 52124  1  0  0  0
 52125  1  0  0  0
 53 54  1  0  0  0
 54 55  2  0  0  0
 54126  1  0  0  0
 55 57  1  0  0  0
 55127  1  0  0  0
 56 69  2  0  0  0
 57 58  2  0  0  0
 57128  1  0  0  0
 58129  1  0  0  0
 59 60  1  0  0  0
 59 61  1  0  0  0
 59 62  1  0  0  0
 60130  1  0  0  0
 60131  1  0  0  0
 60132  1  0  0  0
 61133  1  0  0  0
 61134  1  0  0  0
 61135  1  0  0  0
 62136  1  0  0  0
 62137  1  0  0  0
 62138  1  0  0  0
 63 65  1  0  0  0
 63139  1  0  0  0
 63140  1  0  0  0
 63141  1  0  0  0
 64142  1  0  0  0
 65143  1  0  0  0
 68 80  1  0  0  0
 71 72  2  0  0  0
 71 73  1  0  0  0
 71144  1  0  0  0
 72 77  1  0  0  0
 72 82  1  0  0  0
 73 81  1  0  0  0
 73 83  2  0  0  0
 74 75  1  0  0  0
 74 82  2  0  0  0
 74 83  1  0  0  0
 75145  1  0  0  0
 75146  1  0  0  0
 75147  1  0  0  0
 76148  1  0  0  0
 76149  1  0  0  0
 76150  1  0  0  0
 76 81  1  0  0  0
 77 78  1  0  0  0
 77151  1  0  0  0
 77152  1  0  0  0
 78 79  1  0  0  0
 78153  1  0  0  0
 78154  1  0  0  0
 79 80  1  0  0  0
 79155  1  0  0  0
 79156  1  0  0  0
 80157  1  0  0  0
 80158  1  0  0  0
 81 84  1  0  0  0
 81159  1  0  0  0
 84160  1  0  0  0
M  ISO  4   1 100  68 101  80 101  84 100
M  END
> <chiral flag>
0

> <version>
0

> <s_m_source_file>
/data/baiqing/PycharmProjects/Reinvent-master-3.2/result/LINK_invent/BTK/process_docking_weight1_custom_sum_contain_oxygen_bond_distance_aromatic_linkinvent_7_9_3/rearranged_h_0076.sdf

> <i_m_source_file_index>
78

> <r_mmod_Potential_Energy-OPLS-2005>
-640.047241210938

> <r_mmod_Stretch_Energy-OPLS-2005>
32.1812973022461

> <r_mmod_Bend_Energy-OPLS-2005>
93.0807266235352

> <r_mmod_Torsional_Energy-OPLS-2005>
220.808013916016

> <r_mmod_Improper_Torsional_Energy-OPLS-2005>
10.9576463699341

> <r_mmod_Van_der_Waal_Energy-OPLS-2005>
161.3046875

> <r_mmod_Electrostatic_Energy-OPLS-2005>
-975.301147460938

> <r_mmod_Solvation_Energy-OPLS-2005>
-206.617874145508

> <b_mmod_Minimization_Converged-OPLS-2005>
0

> <r_mmod_RMS_Derivative-OPLS-2005>
1.91634559631348

$$$$
78
                    3D
 Structure written by MMmdl.
164172  0  0  1  0            999 V2000
  -30.6888  -14.4134   20.6201 C   0  0  0  0  0  0
  -30.4269  -12.2807   19.4160 C   0  0  0  0  0  0
  -29.4952  -12.5161   18.2075 C   0  0  0  0  0  0
  -28.0133  -12.3854   18.6150 C   0  0  0  0  0  0
  -27.6690  -13.1981   19.8917 C   0  0  2  0  0  0
  -28.7041  -12.9159   21.0058 C   0  0  0  0  0  0
  -25.2580  -13.8132   20.5634 C   0  0  0  0  0  0
  -24.1830  -13.0417   20.9166 C   0  0  0  0  0  0
  -24.6383  -11.6889   20.8743 C   0  0  0  0  0  0
  -23.9045  -10.4279   21.0405 C   0  0  0  0  0  0
  -24.3598   -9.4197   21.9183 C   0  0  0  0  0  0
  -23.6271   -8.2235   22.0752 C   0  0  0  0  0  0
  -22.4256   -8.0274   21.3544 C   0  0  0  0  0  0
  -21.9894   -9.0245   20.4648 C   0  0  0  0  0  0
  -22.7220  -10.2124   20.3056 C   0  0  0  0  0  0
  -21.6846   -6.0730   22.5273 C   0  0  0  0  0  0
  -21.4013   -6.5637   23.8207 C   0  0  0  0  0  0
  -21.3658   -5.6790   24.9171 C   0  0  0  0  0  0
  -21.6042   -4.3051   24.7223 C   0  0  0  0  0  0
  -21.8820   -3.8143   23.4343 C   0  0  0  0  0  0
  -21.9193   -4.6959   22.3399 C   0  0  0  0  0  0
  -22.7863  -13.5234   21.1821 C   0  0  0  0  0  0
  -22.1663   -4.2147   21.0974 F   0  0  0  0  0  0
  -21.5627   -3.4534   25.7736 F   0  0  0  0  0  0
  -30.0455  -13.2261   20.4761 N   0  0  0  0  0  0
  -26.3040  -12.9297   20.3418 N   0  0  0  0  0  0
  -25.9309  -11.6463   20.5793 N   0  0  0  0  0  0
  -22.0505  -12.8243   22.0398 N   0  0  0  0  0  0
  -25.4261  -15.1823   20.3923 N   0  0  0  0  0  0
  -31.7620  -14.6802   20.0684 O   0  0  0  0  0  0
  -21.6629   -6.8867   21.4231 O   0  0  0  0  0  0
  -22.3541  -14.5536   20.6663 O   0  0  0  0  0  0
  -24.6136  -31.8693   23.2078 C   0  0  0  0  0  0
  -25.9027  -32.4816   23.8386 C   0  0  1  0  0  0
  -27.2279  -27.4350   20.0927 C   0  0  0  0  0  0
  -25.5893  -33.8613   24.2312 N   0  0  0  0  0  0
  -23.4006  -30.4938   21.5514 C   0  0  2  0  0  0
  -24.8422  -28.9614   20.1130 C   0  0  0  0  0  0
  -22.7381  -29.4670   22.4998 C   0  0  0  0  0  0
  -18.0277  -28.1365   22.8498 C   0  0  0  0  0  0
  -24.1475  -36.7282   23.2641 C   0  0  0  0  0  0
  -25.9288  -30.8338   21.3606 C   0  0  0  0  0  0
  -26.0016  -29.4684   20.7093 C   0  0  0  0  0  0
  -27.1935  -28.7109   20.7007 C   0  0  0  0  0  0
  -26.0466  -26.9455   19.4860 C   0  0  0  0  0  0
  -24.8577  -27.6972   19.5020 C   0  0  0  0  0  0
  -23.6044  -29.8274   20.1642 C   0  0  0  0  0  0
  -25.4109  -36.3106   24.0333 C   0  0  1  0  0  0
  -20.5868  -28.3638   23.1299 C   0  0  2  0  0  0
  -20.6775  -26.9376   22.5390 C   0  0  0  0  0  0
  -19.5753  -26.6371   21.5189 C   0  0  0  0  0  0
  -18.1931  -26.7918   22.1607 C   0  0  0  0  0  0
  -19.1533  -28.8818   23.2902 C   0  0  0  0  0  0
  -18.9471  -30.1433   23.8895 C   0  0  0  0  0  0
  -17.6472  -30.6575   24.0569 C   0  0  0  0  0  0
  -25.9028  -34.9459   23.5114 C   0  0  0  0  0  0
  -16.5356  -29.9079   23.6334 C   0  0  0  0  0  0
  -16.7267  -28.6493   23.0351 C   0  0  0  0  0  0
  -26.4460  -31.6605   25.0714 C   0  0  0  0  0  0
  -25.3734  -31.3724   26.1480 C   0  0  0  0  0  0
  -27.0292  -30.3048   24.6079 C   0  0  0  0  0  0
  -27.6038  -32.4327   25.7464 C   0  0  0  0  0  0
  -27.5575  -37.1783   24.8466 C   0  0  0  0  0  0
  -21.4117  -29.3011   22.3704 N   0  0  0  0  0  0
  -26.4286  -37.3786   23.9418 N   0  0  0  0  0  0
  -24.6662  -31.0792   22.0995 N   0  0  0  0  0  0
  -23.4152  -28.8213   23.3038 O   0  0  0  0  0  0
  -28.4134  -26.7230   20.1232 O   0  0  0  0  0  0
  -26.5566  -34.8896   22.4667 O   0  0  0  0  0  0
  -23.5329  -32.1457   23.7449 O   0  0  0  0  0  0
  -28.8056  -18.9687   21.1785 C   0  0  0  0  0  0
  -27.8700  -20.2489   19.8220 C   0  0  0  0  0  0
  -26.9512  -20.8439   18.8029 C   0  0  0  0  0  0
  -27.9214  -16.9995   22.4337 C   0  0  0  0  0  0
  -30.1003  -17.9678   23.1091 C   0  0  0  0  0  0
  -28.5400  -23.3032   21.1126 C   0  0  0  0  0  0
  -27.6822  -24.3361   20.3485 C   0  0  0  0  0  0
  -29.3097  -22.3092   20.2135 C   0  0  0  0  0  0
  -29.9649  -16.7615   20.8918 C   0  0  0  0  0  0
  -28.4735  -25.4095   19.5553 C   0  0  0  0  0  0
  -29.1996  -17.6800   21.8872 C   0  0  0  0  0  0
  -27.7849  -18.9987   20.2650 N   0  0  0  0  0  0
  -29.5113  -20.1004   21.2609 N   0  0  0  0  0  0
  -28.8714  -20.9301   20.3947 N   0  0  0  0  0  0
  -29.9818  -15.3463   21.2700 N   0  0  0  0  0  0
  -31.4719  -12.3884   19.1183 H   0  0  0  0  0  0
  -30.3298  -11.2563   19.7792 H   0  0  0  0  0  0
  -29.7247  -11.8067   17.4109 H   0  0  0  0  0  0
  -29.6773  -13.5095   17.7935 H   0  0  0  0  0  0
  -27.8044  -11.3287   18.7828 H   0  0  0  0  0  0
  -27.3687  -12.6937   17.7919 H   0  0  0  0  0  0
  -27.7325  -14.2552   19.6304 H   0  0  0  0  0  0
  -28.6677  -11.8640   21.2913 H   0  0  0  0  0  0
  -28.4611  -13.4617   21.9185 H   0  0  0  0  0  0
  -25.2735   -9.5682   22.4767 H   0  0  0  0  0  0
  -23.9982   -7.4629   22.7475 H   0  0  0  0  0  0
  -21.0825   -8.8759   19.8955 H   0  0  0  0  0  0
  -22.3665  -10.9664   19.6176 H   0  0  0  0  0  0
  -21.2004   -7.6146   23.9714 H   0  0  0  0  0  0
  -21.1481   -6.0517   25.9076 H   0  0  0  0  0  0
  -22.0601   -2.7604   23.2840 H   0  0  0  0  0  0
  -22.4086  -11.9888   22.4783 H   0  0  0  0  0  0
  -21.1136  -13.1301   22.2611 H   0  0  0  0  0  0
  -24.6617  -15.8392   20.5048 H   0  0  0  0  0  0
  -26.2770  -15.6188   20.0604 H   0  0  0  0  0  0
  -26.7099  -32.5519   23.1157 H   0  0  0  0  0  0
  -25.0154  -33.9809   25.0522 H   0  0  0  0  0  0
  -22.6921  -31.3141   21.4128 H   0  0  0  0  0  0
  -23.3727  -35.9618   23.3321 H   0  0  0  0  0  0
  -24.3598  -36.8875   22.2055 H   0  0  0  0  0  0
  -23.7213  -37.6493   23.6634 H   0  0  0  0  0  0
  -26.0487  -31.6020   20.5955 H   0  0  0  0  0  0
  -26.8154  -30.8853   21.9805 H   0  0  0  0  0  0
  -28.0883  -29.1043   21.1631 H   0  0  0  0  0  0
  -26.0132  -25.9844   18.9963 H   0  0  0  0  0  0
  -23.9641  -27.3002   19.0396 H   0  0  0  0  0  0
  -23.7107  -30.6030   19.4041 H   0  0  0  0  0  0
  -22.7284  -29.2475   19.8702 H   0  0  0  0  0  0
  -25.1285  -36.1974   25.0821 H   0  0  0  0  0  0
  -20.9999  -28.3224   24.1408 H   0  0  0  0  0  0
  -20.5681  -26.2260   23.3591 H   0  0  0  0  0  0
  -21.6659  -26.7420   22.1200 H   0  0  0  0  0  0
  -19.6919  -25.6284   21.1224 H   0  0  0  0  0  0
  -19.6710  -27.3177   20.6716 H   0  0  0  0  0  0
  -17.4211  -26.6659   21.3991 H   0  0  0  0  0  0
  -18.0328  -26.0044   22.8989 H   0  0  0  0  0  0
  -19.7963  -30.7249   24.2247 H   0  0  0  0  0  0
  -17.5046  -31.6271   24.5172 H   0  0  0  0  0  0
  -15.5373  -30.2991   23.7656 H   0  0  0  0  0  0
  -15.8667  -28.0818   22.7050 H   0  0  0  0  0  0
  -24.5884  -30.7092   25.7826 H   0  0  0  0  0  0
  -24.8951  -32.2894   26.4926 H   0  0  0  0  0  0
  -25.8100  -30.8900   27.0232 H   0  0  0  0  0  0
  -26.2809  -29.6821   24.1172 H   0  0  0  0  0  0
  -27.4127  -29.7298   25.4512 H   0  0  0  0  0  0
  -27.8611  -30.4387   23.9170 H   0  0  0  0  0  0
  -27.2657  -33.3641   26.2027 H   0  0  0  0  0  0
  -28.3839  -32.6882   25.0272 H   0  0  0  0  0  0
  -28.0709  -31.8474   26.5404 H   0  0  0  0  0  0
  -28.2586  -38.0090   24.7575 H   0  0  0  0  0  0
  -28.1090  -36.2633   24.6235 H   0  0  0  0  0  0
  -27.2322  -37.1375   25.8879 H   0  0  0  0  0  0
  -20.9251  -29.8763   21.6965 H   0  0  0  0  0  0
  -26.0170  -38.2843   24.1479 H   0  0  0  0  0  0
  -26.3861  -20.0673   18.2862 H   0  0  0  0  0  0
  -27.5084  -21.4067   18.0554 H   0  0  0  0  0  0
  -26.2436  -21.5129   19.2906 H   0  0  0  0  0  0
  -27.3527  -17.6859   23.0616 H   0  0  0  0  0  0
  -28.1350  -16.1186   23.0397 H   0  0  0  0  0  0
  -27.2656  -16.6879   21.6236 H   0  0  0  0  0  0
  -29.6095  -18.6329   23.8214 H   0  0  0  0  0  0
  -31.0353  -18.4429   22.8105 H   0  0  0  0  0  0
  -30.3612  -17.0501   23.6373 H   0  0  0  0  0  0
  -27.8844  -22.7462   21.7844 H   0  0  0  0  0  0
  -29.2418  -23.8260   21.7641 H   0  0  0  0  0  0
  -27.0128  -24.8204   21.0610 H   0  0  0  0  0  0
  -27.0211  -23.8070   19.6610 H   0  0  0  0  0  0
  -30.3794  -22.3670   20.4211 H   0  0  0  0  0  0
  -29.2037  -22.5746   19.1614 H   0  0  0  0  0  0
  -30.9744  -17.1363   20.7194 H   0  0  0  0  0  0
  -29.4641  -16.7957   19.9217 H   0  0  0  0  0  0
  -29.5265  -25.1298   19.5192 H   0  0  0  0  0  0
  -28.1595  -25.4452   18.5104 H   0  0  0  0  0  0
  -29.1634  -15.0145   21.7571 H   0  0  0  0  0  0
  1 25  1  0  0  0
  1 30  2  0  0  0
  1 85  1  0  0  0
  2  3  1  0  0  0
  2 25  1  0  0  0
  2 86  1  0  0  0
  2 87  1  0  0  0
  3  4  1  0  0  0
  3 88  1  0  0  0
  3 89  1  0  0  0
  4  5  1  0  0  0
  4 90  1  0  0  0
  4 91  1  0  0  0
  5  6  1  0  0  0
  5 26  1  0  0  0
  5 92  1  0  0  0
  6 25  1  0  0  0
  6 93  1  0  0  0
  6 94  1  0  0  0
  7  8  2  0  0  0
  7 26  1  0  0  0
  7 29  1  0  0  0
  8  9  1  0  0  0
  8 22  1  0  0  0
  9 10  1  0  0  0
  9 27  2  0  0  0
 10 11  2  0  0  0
 10 15  1  0  0  0
 11 12  1  0  0  0
 11 95  1  0  0  0
 12 13  2  0  0  0
 12 96  1  0  0  0
 13 14  1  0  0  0
 13 31  1  0  0  0
 14 15  2  0  0  0
 14 97  1  0  0  0
 15 98  1  0  0  0
 16 17  2  0  0  0
 16 21  1  0  0  0
 16 31  1  0  0  0
 17 18  1  0  0  0
 17 99  1  0  0  0
 18 19  2  0  0  0
 18100  1  0  0  0
 19 20  1  0  0  0
 19 24  1  0  0  0
 20 21  2  0  0  0
 20101  1  0  0  0
 21 23  1  0  0  0
 22 28  1  0  0  0
 22 32  2  0  0  0
 26 27  1  0  0  0
 28102  1  0  0  0
 28103  1  0  0  0
 29104  1  0  0  0
 29105  1  0  0  0
 33 34  1  0  0  0
 33 66  1  0  0  0
 33 70  2  0  0  0
 34 36  1  0  0  0
 34 59  1  0  0  0
 34106  1  0  0  0
 35 44  2  0  0  0
 35 45  1  0  0  0
 35 68  1  0  0  0
 36 56  1  0  0  0
 36107  1  0  0  0
 37 39  1  0  0  0
 37 47  1  0  0  0
 37 66  1  0  0  0
 37108  1  0  0  0
 38 43  2  0  0  0
 38 46  1  0  0  0
 38 47  1  0  0  0
 39 64  1  0  0  0
 39 67  2  0  0  0
 40 52  1  0  0  0
 40 53  2  0  0  0
 40 58  1  0  0  0
 41109  1  0  0  0
 41110  1  0  0  0
 41111  1  0  0  0
 41 48  1  0  0  0
 42 43  1  0  0  0
 42 66  1  0  0  0
 42112  1  0  0  0
 42113  1  0  0  0
 43 44  1  0  0  0
 44114  1  0  0  0
 45 46  2  0  0  0
 45115  1  0  0  0
 46116  1  0  0  0
 47117  1  0  0  0
 47118  1  0  0  0
 48 56  1  0  0  0
 48 65  1  0  0  0
 48119  1  0  0  0
 49 50  1  0  0  0
 49 53  1  0  0  0
 49 64  1  0  0  0
 49120  1  0  0  0
 50 51  1  0  0  0
 50121  1  0  0  0
 50122  1  0  0  0
 51 52  1  0  0  0
 51123  1  0  0  0
 51124  1  0  0  0
 52125  1  0  0  0
 52126  1  0  0  0
 53 54  1  0  0  0
 54 55  2  0  0  0
 54127  1  0  0  0
 55 57  1  0  0  0
 55128  1  0  0  0
 56 69  2  0  0  0
 57 58  2  0  0  0
 57129  1  0  0  0
 58130  1  0  0  0
 59 60  1  0  0  0
 59 61  1  0  0  0
 59 62  1  0  0  0
 60131  1  0  0  0
 60132  1  0  0  0
 60133  1  0  0  0
 61134  1  0  0  0
 61135  1  0  0  0
 61136  1  0  0  0
 62137  1  0  0  0
 62138  1  0  0  0
 62139  1  0  0  0
 63 65  1  0  0  0
 63140  1  0  0  0
 63141  1  0  0  0
 63142  1  0  0  0
 64143  1  0  0  0
 65144  1  0  0  0
 68 80  1  0  0  0
 71 81  1  0  0  0
 71 82  1  0  0  0
 71 83  2  0  0  0
 72 73  1  0  0  0
 72 82  2  0  0  0
 72 84  1  0  0  0
 73145  1  0  0  0
 73146  1  0  0  0
 73147  1  0  0  0
 74148  1  0  0  0
 74149  1  0  0  0
 74150  1  0  0  0
 74 81  1  0  0  0
 75 81  1  0  0  0
 75151  1  0  0  0
 75152  1  0  0  0
 75153  1  0  0  0
 76 77  1  0  0  0
 76 78  1  0  0  0
 76154  1  0  0  0
 76155  1  0  0  0
 77 80  1  0  0  0
 77156  1  0  0  0
 77157  1  0  0  0
 78 84  1  0  0  0
 78158  1  0  0  0
 78159  1  0  0  0
 79 81  1  0  0  0
 79 85  1  0  0  0
 79160  1  0  0  0
 79161  1  0  0  0
 80162  1  0  0  0
 80163  1  0  0  0
 83 84  1  0  0  0
 85164  1  0  0  0
M  ISO  4   1 100  68 101  80 101  85 100
M  END
> <chiral flag>
0

> <version>
0

> <s_m_source_file>
/data/baiqing/PycharmProjects/Reinvent-master-3.2/result/LINK_invent/BTK/process_docking_weight1_custom_sum_contain_oxygen_bond_distance_aromatic_linkinvent_7_9_3/rearranged_h_0076.sdf

> <i_m_source_file_index>
79

> <r_mmod_Potential_Energy-OPLS-2005>
-115.646934509277

> <r_mmod_Stretch_Energy-OPLS-2005>
36.0509567260742

> <r_mmod_Bend_Energy-OPLS-2005>
107.596199035645

> <r_mmod_Torsional_Energy-OPLS-2005>
236.706527709961

> <r_mmod_Improper_Torsional_Energy-OPLS-2005>
6.27267551422119

> <r_mmod_Van_der_Waal_Energy-OPLS-2005>
135.258773803711

> <r_mmod_Electrostatic_Energy-OPLS-2005>
-433.663818359375

> <r_mmod_Solvation_Energy-OPLS-2005>
-214.07194519043

> <b_mmod_Minimization_Converged-OPLS-2005>
0

> <r_mmod_RMS_Derivative-OPLS-2005>
3.22418785095215

$$$$
79
                    3D
 Structure written by MMmdl.
169177  0  0  1  0            999 V2000
  -30.7312  -14.4550   20.6002 C   0  0  0  0  0  0
  -30.4272  -12.3069   19.4276 C   0  0  0  0  0  0
  -29.4976  -12.5030   18.2113 C   0  0  0  0  0  0
  -28.0171  -12.3693   18.6226 C   0  0  0  0  0  0
  -27.6657  -13.2134   19.8800 C   0  0  2  0  0  0
  -28.7078  -12.9856   21.0016 C   0  0  0  0  0  0
  -25.2586  -13.8181   20.5702 C   0  0  0  0  0  0
  -24.1840  -13.0453   20.9197 C   0  0  0  0  0  0
  -24.6419  -11.6919   20.8798 C   0  0  0  0  0  0
  -23.9105  -10.4291   21.0437 C   0  0  0  0  0  0
  -24.3646   -9.4191   21.9195 C   0  0  0  0  0  0
  -23.6314   -8.2228   22.0745 C   0  0  0  0  0  0
  -22.4291   -8.0292   21.3536 C   0  0  0  0  0  0
  -21.9933   -9.0280   20.4641 C   0  0  0  0  0  0
  -22.7289  -10.2148   20.3075 C   0  0  0  0  0  0
  -21.6824   -6.0761   22.5294 C   0  0  0  0  0  0
  -21.3983   -6.5654   23.8231 C   0  0  0  0  0  0
  -21.3663   -5.6807   24.9202 C   0  0  0  0  0  0
  -21.6048   -4.3066   24.7235 C   0  0  0  0  0  0
  -21.8821   -3.8158   23.4351 C   0  0  0  0  0  0
  -21.9184   -4.6989   22.3418 C   0  0  0  0  0  0
  -22.7844  -13.5218   21.1865 C   0  0  0  0  0  0
  -22.1651   -4.2167   21.0991 F   0  0  0  0  0  0
  -21.5652   -3.4553   25.7746 F   0  0  0  0  0  0
  -30.0444  -13.2863   20.4557 N   0  0  0  0  0  0
  -26.3054  -12.9378   20.3411 N   0  0  0  0  0  0
  -25.9335  -11.6523   20.5790 N   0  0  0  0  0  0
  -22.0464  -12.8218   22.0426 N   0  0  0  0  0  0
  -25.4280  -15.1907   20.4121 N   0  0  0  0  0  0
  -31.8058  -14.6669   20.0380 O   0  0  0  0  0  0
  -21.6625   -6.8911   21.4261 O   0  0  0  0  0  0
  -22.3538  -14.5531   20.6720 O   0  0  0  0  0  0
  -24.6170  -31.8701   23.2105 C   0  0  0  0  0  0
  -25.9038  -32.4829   23.8397 C   0  0  1  0  0  0
  -27.2105  -27.4206   20.0902 C   0  0  0  0  0  0
  -25.5879  -33.8624   24.2340 N   0  0  0  0  0  0
  -23.4044  -30.5007   21.5502 C   0  0  2  0  0  0
  -24.8488  -28.9876   20.0983 C   0  0  0  0  0  0
  -22.7408  -29.4652   22.4908 C   0  0  0  0  0  0
  -18.0265  -28.1394   22.8540 C   0  0  0  0  0  0
  -24.1490  -36.7332   23.2636 C   0  0  0  0  0  0
  -25.9416  -30.8336   21.3681 C   0  0  0  0  0  0
  -26.0153  -29.4746   20.7018 C   0  0  0  0  0  0
  -27.2015  -28.7009   20.6931 C   0  0  0  0  0  0
  -26.0297  -26.9738   19.4470 C   0  0  0  0  0  0
  -24.8527  -27.7385   19.4619 C   0  0  0  0  0  0
  -23.6140  -29.8562   20.1580 C   0  0  0  0  0  0
  -25.4103  -36.3121   24.0337 C   0  0  1  0  0  0
  -20.5879  -28.3606   23.1269 C   0  0  2  0  0  0
  -20.6711  -26.9315   22.5403 C   0  0  0  0  0  0
  -19.5659  -26.6360   21.5217 C   0  0  0  0  0  0
  -18.1861  -26.7958   22.1651 C   0  0  0  0  0  0
  -19.1553  -28.8818   23.2903 C   0  0  0  0  0  0
  -18.9514  -30.1456   23.8848 C   0  0  0  0  0  0
  -17.6544  -30.6630   24.0512 C   0  0  0  0  0  0
  -25.9020  -34.9481   23.5133 C   0  0  0  0  0  0
  -16.5393  -29.9136   23.6380 C   0  0  0  0  0  0
  -16.7279  -28.6534   23.0442 C   0  0  0  0  0  0
  -26.4473  -31.6593   25.0719 C   0  0  0  0  0  0
  -25.3758  -31.3677   26.1473 C   0  0  0  0  0  0
  -27.0283  -30.3027   24.6098 C   0  0  0  0  0  0
  -27.6048  -32.4309   25.7479 C   0  0  0  0  0  0
  -27.5585  -37.1825   24.8465 C   0  0  0  0  0  0
  -21.4133  -29.2970   22.3632 N   0  0  0  0  0  0
  -26.4299  -37.3800   23.9403 N   0  0  0  0  0  0
  -24.6720  -31.0812   22.1004 N   0  0  0  0  0  0
  -23.4161  -28.8212   23.2956 O   0  0  0  0  0  0
  -28.3135  -26.5857   20.1904 O   0  0  0  0  0  0
  -26.5613  -34.8922   22.4711 O   0  0  0  0  0  0
  -23.5360  -32.1438   23.7500 O   0  0  0  0  0  0
  -28.6375  -21.7658   22.0533 C   0  0  0  0  0  0
  -29.9033  -21.2755   22.4425 C   0  0  0  0  0  0
  -27.6780  -20.7700   21.7521 C   0  0  0  0  0  0
  -29.2020  -19.0952   22.1733 C   0  0  0  0  0  0
  -31.0362  -22.1941   22.8570 C   0  0  0  0  0  0
  -25.3293  -20.3739   23.8058 C   0  0  0  0  0  0
  -31.8807  -17.1528   21.8075 C   0  0  0  0  0  0
  -28.2808  -23.2667   22.1047 C   0  0  0  0  0  0
  -26.2131  -21.0538   21.4357 C   0  0  0  0  0  0
  -29.4273  -17.5788   22.3596 C   0  0  0  0  0  0
  -25.3186  -21.3919   22.6547 C   0  0  0  0  0  0
  -28.9721  -24.2555   21.1142 C   0  0  0  0  0  0
  -27.9314  -25.2220   20.4890 C   0  0  0  0  0  0
  -30.4179  -16.8691   21.3874 C   0  0  1  0  0  0
  -30.1652  -19.9503   22.5090 N   0  0  0  0  0  0
  -27.9853  -19.4579   21.7933 N   0  0  0  0  0  0
  -30.1113  -15.4120   21.3186 N   0  0  0  0  0  0
  -31.4724  -12.3965   19.1295 H   0  0  0  0  0  0
  -30.3283  -11.2973   19.8294 H   0  0  0  0  0  0
  -29.7400  -11.7717   17.4383 H   0  0  0  0  0  0
  -29.6640  -13.4861   17.7696 H   0  0  0  0  0  0
  -27.8230  -11.3143   18.8210 H   0  0  0  0  0  0
  -27.3714  -12.6435   17.7883 H   0  0  0  0  0  0
  -27.7118  -14.2644   19.5896 H   0  0  0  0  0  0
  -28.6748  -11.9445   21.3280 H   0  0  0  0  0  0
  -28.4609  -13.5717   21.8876 H   0  0  0  0  0  0
  -25.2795   -9.5658   22.4762 H   0  0  0  0  0  0
  -24.0028   -7.4608   22.7442 H   0  0  0  0  0  0
  -21.0863   -8.8846   19.8916 H   0  0  0  0  0  0
  -22.3790  -10.9717   19.6182 H   0  0  0  0  0  0
  -21.1943   -7.6143   23.9761 H   0  0  0  0  0  0
  -21.1484   -6.0509   25.9112 H   0  0  0  0  0  0
  -22.0588   -2.7614   23.2853 H   0  0  0  0  0  0
  -22.4052  -11.9885   22.4850 H   0  0  0  0  0  0
  -21.1069  -13.1208   22.2610 H   0  0  0  0  0  0
  -24.6581  -15.8432   20.5263 H   0  0  0  0  0  0
  -26.2836  -15.6374   20.1067 H   0  0  0  0  0  0
  -26.7126  -32.5565   23.1172 H   0  0  0  0  0  0
  -24.9928  -33.9797   25.0417 H   0  0  0  0  0  0
  -22.6944  -31.3189   21.4244 H   0  0  0  0  0  0
  -23.3735  -35.9688   23.3307 H   0  0  0  0  0  0
  -24.3582  -36.8932   22.2050 H   0  0  0  0  0  0
  -23.7274  -37.6548   23.6646 H   0  0  0  0  0  0
  -26.0719  -31.6111   20.6114 H   0  0  0  0  0  0
  -26.8208  -30.8727   21.9977 H   0  0  0  0  0  0
  -28.0952  -29.0684   21.1750 H   0  0  0  0  0  0
  -25.9920  -26.0246   18.9332 H   0  0  0  0  0  0
  -23.9594  -27.3702   18.9753 H   0  0  0  0  0  0
  -23.7214  -30.6462   19.4151 H   0  0  0  0  0  0
  -22.7383  -29.2812   19.8538 H   0  0  0  0  0  0
  -25.1292  -36.1978   25.0835 H   0  0  0  0  0  0
  -21.0032  -28.3157   24.1362 H   0  0  0  0  0  0
  -20.5586  -26.2194   23.3602 H   0  0  0  0  0  0
  -21.6568  -26.7298   22.1184 H   0  0  0  0  0  0
  -19.6776  -25.6285   21.1198 H   0  0  0  0  0  0
  -19.6583  -27.3196   20.6770 H   0  0  0  0  0  0
  -17.4110  -26.6797   21.4061 H   0  0  0  0  0  0
  -18.0200  -26.0098   22.9030 H   0  0  0  0  0  0
  -19.8015  -30.7281   24.2111 H   0  0  0  0  0  0
  -17.5146  -31.6362   24.5013 H   0  0  0  0  0  0
  -15.5411  -30.3112   23.7660 H   0  0  0  0  0  0
  -15.8666  -28.0881   22.7189 H   0  0  0  0  0  0
  -24.5937  -30.7020   25.7807 H   0  0  0  0  0  0
  -24.8937  -32.2813   26.4952 H   0  0  0  0  0  0
  -25.8113  -30.8831   27.0215 H   0  0  0  0  0  0
  -26.2834  -29.6824   24.1093 H   0  0  0  0  0  0
  -27.3979  -29.7224   25.4557 H   0  0  0  0  0  0
  -27.8706  -30.4318   23.9299 H   0  0  0  0  0  0
  -27.2662  -33.3590   26.2095 H   0  0  0  0  0  0
  -28.3816  -32.6893   25.0274 H   0  0  0  0  0  0
  -28.0756  -31.8407   26.5353 H   0  0  0  0  0  0
  -28.2618  -38.0112   24.7493 H   0  0  0  0  0  0
  -28.1067  -36.2640   24.6307 H   0  0  0  0  0  0
  -27.2298  -37.1496   25.8869 H   0  0  0  0  0  0
  -20.9280  -29.8588   21.6775 H   0  0  0  0  0  0
  -26.0184  -38.2883   24.1375 H   0  0  0  0  0  0
  -30.6794  -22.9976   23.5021 H   0  0  0  0  0  0
  -31.4842  -22.6404   21.9713 H   0  0  0  0  0  0
  -31.8164  -21.6471   23.3894 H   0  0  0  0  0  0
  -24.6210  -20.6713   24.5804 H   0  0  0  0  0  0
  -26.3127  -20.2988   24.2758 H   0  0  0  0  0  0
  -25.0436  -19.3815   23.4606 H   0  0  0  0  0  0
  -32.0608  -18.2233   21.9062 H   0  0  0  0  0  0
  -32.5970  -16.8040   21.0663 H   0  0  0  0  0  0
  -32.1293  -16.6937   22.7631 H   0  0  0  0  0  0
  -28.4310  -23.6345   23.1196 H   0  0  0  0  0  0
  -27.2105  -23.3413   21.9638 H   0  0  0  0  0  0
  -25.8068  -20.1667   20.9472 H   0  0  0  0  0  0
  -26.1507  -21.8390   20.6841 H   0  0  0  0  0  0
  -29.7118  -17.3884   23.3961 H   0  0  0  0  0  0
  -28.4536  -17.0997   22.2499 H   0  0  0  0  0  0
  -25.5956  -22.3608   23.0627 H   0  0  0  0  0  0
  -24.2921  -21.5016   22.2982 H   0  0  0  0  0  0
  -29.4759  -23.7132   20.3126 H   0  0  0  0  0  0
  -29.7516  -24.8121   21.6323 H   0  0  0  0  0  0
  -27.0914  -25.2846   21.1884 H   0  0  0  0  0  0
  -27.5479  -24.7325   19.5973 H   0  0  0  0  0  0
  -30.2577  -17.2786   20.3881 H   0  0  0  0  0  0
  -29.2308  -15.1197   21.7151 H   0  0  0  0  0  0
  1 25  1  0  0  0
  1 30  2  0  0  0
  1 87  1  0  0  0
  2  3  1  0  0  0
  2 25  1  0  0  0
  2 88  1  0  0  0
  2 89  1  0  0  0
  3  4  1  0  0  0
  3 90  1  0  0  0
  3 91  1  0  0  0
  4  5  1  0  0  0
  4 92  1  0  0  0
  4 93  1  0  0  0
  5  6  1  0  0  0
  5 26  1  0  0  0
  5 94  1  0  0  0
  6 25  1  0  0  0
  6 95  1  0  0  0
  6 96  1  0  0  0
  7  8  2  0  0  0
  7 26  1  0  0  0
  7 29  1  0  0  0
  8  9  1  0  0  0
  8 22  1  0  0  0
  9 10  1  0  0  0
  9 27  2  0  0  0
 10 11  2  0  0  0
 10 15  1  0  0  0
 11 12  1  0  0  0
 11 97  1  0  0  0
 12 13  2  0  0  0
 12 98  1  0  0  0
 13 14  1  0  0  0
 13 31  1  0  0  0
 14 15  2  0  0  0
 14 99  1  0  0  0
 15100  1  0  0  0
 16 17  2  0  0  0
 16 21  1  0  0  0
 16 31  1  0  0  0
 17 18  1  0  0  0
 17101  1  0  0  0
 18 19  2  0  0  0
 18102  1  0  0  0
 19 20  1  0  0  0
 19 24  1  0  0  0
 20 21  2  0  0  0
 20103  1  0  0  0
 21 23  1  0  0  0
 22 28  1  0  0  0
 22 32  2  0  0  0
 26 27  1  0  0  0
 28104  1  0  0  0
 28105  1  0  0  0
 29106  1  0  0  0
 29107  1  0  0  0
 33 34  1  0  0  0
 33 66  1  0  0  0
 33 70  2  0  0  0
 34 36  1  0  0  0
 34 59  1  0  0  0
 34108  1  0  0  0
 35 44  2  0  0  0
 35 45  1  0  0  0
 35 68  1  0  0  0
 36 56  1  0  0  0
 36109  1  0  0  0
 37 39  1  0  0  0
 37 47  1  0  0  0
 37 66  1  0  0  0
 37110  1  0  0  0
 38 43  2  0  0  0
 38 46  1  0  0  0
 38 47  1  0  0  0
 39 64  1  0  0  0
 39 67  2  0  0  0
 40 52  1  0  0  0
 40 53  2  0  0  0
 40 58  1  0  0  0
 41111  1  0  0  0
 41112  1  0  0  0
 41113  1  0  0  0
 41 48  1  0  0  0
 42 43  1  0  0  0
 42 66  1  0  0  0
 42114  1  0  0  0
 42115  1  0  0  0
 43 44  1  0  0  0
 44116  1  0  0  0
 45 46  2  0  0  0
 45117  1  0  0  0
 46118  1  0  0  0
 47119  1  0  0  0
 47120  1  0  0  0
 48 56  1  0  0  0
 48 65  1  0  0  0
 48121  1  0  0  0
 49 50  1  0  0  0
 49 53  1  0  0  0
 49 64  1  0  0  0
 49122  1  0  0  0
 50 51  1  0  0  0
 50123  1  0  0  0
 50124  1  0  0  0
 51 52  1  0  0  0
 51125  1  0  0  0
 51126  1  0  0  0
 52127  1  0  0  0
 52128  1  0  0  0
 53 54  1  0  0  0
 54 55  2  0  0  0
 54129  1  0  0  0
 55 57  1  0  0  0
 55130  1  0  0  0
 56 69  2  0  0  0
 57 58  2  0  0  0
 57131  1  0  0  0
 58132  1  0  0  0
 59 60  1  0  0  0
 59 61  1  0  0  0
 59 62  1  0  0  0
 60133  1  0  0  0
 60134  1  0  0  0
 60135  1  0  0  0
 61136  1  0  0  0
 61137  1  0  0  0
 61138  1  0  0  0
 62139  1  0  0  0
 62140  1  0  0  0
 62141  1  0  0  0
 63 65  1  0  0  0
 63142  1  0  0  0
 63143  1  0  0  0
 63144  1  0  0  0
 64145  1  0  0  0
 65146  1  0  0  0
 68 83  1  0  0  0
 71 72  2  0  0  0
 71 73  1  0  0  0
 71 78  1  0  0  0
 72 75  1  0  0  0
 72 85  1  0  0  0
 73 79  1  0  0  0
 73 86  2  0  0  0
 74 80  1  0  0  0
 74 85  2  0  0  0
 74 86  1  0  0  0
 75147  1  0  0  0
 75148  1  0  0  0
 75149  1  0  0  0
 76 81  1  0  0  0
 76150  1  0  0  0
 76151  1  0  0  0
 76152  1  0  0  0
 77153  1  0  0  0
 77154  1  0  0  0
 77155  1  0  0  0
 77 84  1  0  0  0
 78 82  1  0  0  0
 78156  1  0  0  0
 78157  1  0  0  0
 79 81  1  0  0  0
 79158  1  0  0  0
 79159  1  0  0  0
 80 84  1  0  0  0
 80160  1  0  0  0
 80161  1  0  0  0
 81162  1  0  0  0
 81163  1  0  0  0
 82 83  1  0  0  0
 82164  1  0  0  0
 82165  1  0  0  0
 83166  1  0  0  0
 83167  1  0  0  0
 84 87  1  0  0  0
 84168  1  0  0  0
 87169  1  0  0  0
M  ISO  4   1 100  68 101  83 101  87 100
M  END
> <chiral flag>
0

> <version>
0

> <s_m_source_file>
/data/baiqing/PycharmProjects/Reinvent-master-3.2/result/LINK_invent/BTK/process_docking_weight1_custom_sum_contain_oxygen_bond_distance_aromatic_linkinvent_7_9_3/rearranged_h_0076.sdf

> <i_m_source_file_index>
80

> <r_mmod_Potential_Energy-OPLS-2005>
-288.265747070312

> <r_mmod_Stretch_Energy-OPLS-2005>
44.5986938476562

> <r_mmod_Bend_Energy-OPLS-2005>
117.866271972656

> <r_mmod_Torsional_Energy-OPLS-2005>
212.475952148438

> <r_mmod_Improper_Torsional_Energy-OPLS-2005>
4.05680894851685

> <r_mmod_Van_der_Waal_Energy-OPLS-2005>
171.944046020508

> <r_mmod_Electrostatic_Energy-OPLS-2005>
-635.522216796875

> <r_mmod_Solvation_Energy-OPLS-2005>
-222.263778686523

> <b_mmod_Minimization_Converged-OPLS-2005>
0

> <r_mmod_RMS_Derivative-OPLS-2005>
5.08073949813843

$$$$
80
                    3D
 Structure written by MMmdl.
164172  0  0  1  0            999 V2000
  -30.6884  -14.5335   20.5113 C   0  0  0  0  0  0
  -30.4196  -12.3274   19.4426 C   0  0  0  0  0  0
  -29.4998  -12.4952   18.2157 C   0  0  0  0  0  0
  -28.0207  -12.3552   18.6254 C   0  0  0  0  0  0
  -27.6561  -13.2147   19.8663 C   0  0  2  0  0  0
  -28.6996  -13.0492   20.9955 C   0  0  0  0  0  0
  -25.2571  -13.8172   20.5683 C   0  0  0  0  0  0
  -24.1836  -13.0440   20.9184 C   0  0  0  0  0  0
  -24.6397  -11.6910   20.8733 C   0  0  0  0  0  0
  -23.9063  -10.4292   21.0402 C   0  0  0  0  0  0
  -24.3613   -9.4209   21.9181 C   0  0  0  0  0  0
  -23.6291   -8.2245   22.0755 C   0  0  0  0  0  0
  -22.4272   -8.0277   21.3547 C   0  0  0  0  0  0
  -21.9904   -9.0251   20.4648 C   0  0  0  0  0  0
  -22.7232  -10.2132   20.3055 C   0  0  0  0  0  0
  -21.6854   -6.0732   22.5282 C   0  0  0  0  0  0
  -21.4016   -6.5639   23.8213 C   0  0  0  0  0  0
  -21.3660   -5.6793   24.9177 C   0  0  0  0  0  0
  -21.6042   -4.3055   24.7230 C   0  0  0  0  0  0
  -21.8819   -3.8145   23.4351 C   0  0  0  0  0  0
  -21.9194   -4.6962   22.3407 C   0  0  0  0  0  0
  -22.7859  -13.5234   21.1844 C   0  0  0  0  0  0
  -22.1662   -4.2144   21.0985 F   0  0  0  0  0  0
  -21.5626   -3.4538   25.7743 F   0  0  0  0  0  0
  -30.0245  -13.3456   20.4319 N   0  0  0  0  0  0
  -26.3001  -12.9353   20.3327 N   0  0  0  0  0  0
  -25.9324  -11.6507   20.5753 N   0  0  0  0  0  0
  -22.0496  -12.8230   22.0398 N   0  0  0  0  0  0
  -25.4281  -15.1893   20.4099 N   0  0  0  0  0  0
  -31.8451  -14.6669   20.1055 O   0  0  0  0  0  0
  -21.6642   -6.8876   21.4242 O   0  0  0  0  0  0
  -22.3548  -14.5541   20.6693 O   0  0  0  0  0  0
  -24.6203  -31.8651   23.2073 C   0  0  0  0  0  0
  -25.9077  -32.4810   23.8380 C   0  0  1  0  0  0
  -27.2279  -27.3896   20.1019 C   0  0  0  0  0  0
  -25.5925  -33.8610   24.2316 N   0  0  0  0  0  0
  -23.4111  -30.4899   21.5486 C   0  0  2  0  0  0
  -24.8576  -28.9558   20.1115 C   0  0  0  0  0  0
  -22.7439  -29.4652   22.4953 C   0  0  0  0  0  0
  -18.0279  -28.1371   22.8487 C   0  0  0  0  0  0
  -24.1490  -36.7295   23.2641 C   0  0  0  0  0  0
  -25.9465  -30.8171   21.3694 C   0  0  0  0  0  0
  -26.0224  -29.4498   20.7129 C   0  0  0  0  0  0
  -27.2137  -28.6766   20.7018 C   0  0  0  0  0  0
  -26.0493  -26.9401   19.4661 C   0  0  0  0  0  0
  -24.8685  -27.7022   19.4807 C   0  0  0  0  0  0
  -23.6225  -29.8266   20.1626 C   0  0  0  0  0  0
  -25.4112  -36.3101   24.0337 C   0  0  1  0  0  0
  -20.5870  -28.3668   23.1291 C   0  0  2  0  0  0
  -20.6763  -26.9397   22.5410 C   0  0  0  0  0  0
  -19.5744  -26.6380   21.5201 C   0  0  0  0  0  0
  -18.1923  -26.7916   22.1613 C   0  0  0  0  0  0
  -19.1529  -28.8833   23.2887 C   0  0  0  0  0  0
  -18.9461  -30.1441   23.8899 C   0  0  0  0  0  0
  -17.6465  -30.6579   24.0568 C   0  0  0  0  0  0
  -25.9043  -34.9469   23.5116 C   0  0  0  0  0  0
  -16.5353  -29.9090   23.6323 C   0  0  0  0  0  0
  -16.7268  -28.6500   23.0350 C   0  0  0  0  0  0
  -26.4488  -31.6599   25.0721 C   0  0  0  0  0  0
  -25.3753  -31.3727   26.1471 C   0  0  0  0  0  0
  -27.0315  -30.3031   24.6124 C   0  0  0  0  0  0
  -27.6051  -32.4324   25.7486 C   0  0  0  0  0  0
  -27.5575  -37.1806   24.8469 C   0  0  0  0  0  0
  -21.4155  -29.3041   22.3700 N   0  0  0  0  0  0
  -26.4289  -37.3794   23.9413 N   0  0  0  0  0  0
  -24.6778  -31.0723   22.0993 N   0  0  0  0  0  0
  -23.4187  -28.8192   23.3015 O   0  0  0  0  0  0
  -28.3546  -26.5753   20.1237 O   0  0  0  0  0  0
  -26.5603  -34.8923   22.4677 O   0  0  0  0  0  0
  -23.5379  -32.1416   23.7441 O   0  0  0  0  0  0
  -28.7817  -22.2475   23.0323 C   0  0  0  0  0  0
  -29.6148  -20.6665   21.9376 C   0  0  0  0  0  0
  -27.9309  -23.4008   23.4460 C   0  0  0  0  0  0
  -29.4257  -24.2175   18.7226 C   0  0  0  0  0  0
  -30.5029  -24.3607   20.9668 C   0  0  0  0  0  0
  -29.9989  -19.6251   20.8937 C   0  0  0  0  0  0
  -29.5782  -18.1492   21.2567 C   0  0  0  0  0  0
  -28.6288  -22.6178   20.5083 C   0  0  0  0  0  0
  -30.3424  -17.0215   20.4940 C   0  0  0  0  0  0
  -28.1261  -25.2205   20.6173 C   0  0  0  0  0  0
  -29.1682  -24.0992   20.2403 C   0  0  0  0  0  0
  -29.3244  -21.4347   23.9398 N   0  0  0  0  0  0
  -29.8899  -20.4206   23.2255 N   0  0  0  0  0  0
  -29.0297  -21.8970   21.7445 N   0  0  0  0  0  0
  -29.9510  -15.6260   20.8308 N   0  0  0  0  0  0
  -31.4666  -12.4143   19.1462 H   0  0  0  0  0  0
  -30.3137  -11.3286   19.8681 H   0  0  0  0  0  0
  -29.7475  -11.7537   17.4547 H   0  0  0  0  0  0
  -29.6661  -13.4714   17.7572 H   0  0  0  0  0  0
  -27.8378  -11.3012   18.8377 H   0  0  0  0  0  0
  -27.3719  -12.6112   17.7865 H   0  0  0  0  0  0
  -27.6832  -14.2541   19.5390 H   0  0  0  0  0  0
  -28.6841  -12.0306   21.3859 H   0  0  0  0  0  0
  -28.4650  -13.6975   21.8412 H   0  0  0  0  0  0
  -25.2759   -9.5691   22.4750 H   0  0  0  0  0  0
  -24.0001   -7.4643   22.7476 H   0  0  0  0  0  0
  -21.0833   -8.8771   19.8957 H   0  0  0  0  0  0
  -22.3687  -10.9670   19.6162 H   0  0  0  0  0  0
  -21.2011   -7.6146   23.9717 H   0  0  0  0  0  0
  -21.1479   -6.0523   25.9081 H   0  0  0  0  0  0
  -22.0595   -2.7605   23.2857 H   0  0  0  0  0  0
  -22.4105  -11.9892   22.4793 H   0  0  0  0  0  0
  -21.1113  -13.1264   22.2591 H   0  0  0  0  0  0
  -24.6595  -15.8418   20.5206 H   0  0  0  0  0  0
  -26.2747  -15.6298   20.0725 H   0  0  0  0  0  0
  -26.7152  -32.5501   23.1142 H   0  0  0  0  0  0
  -25.0112  -33.9770   25.0491 H   0  0  0  0  0  0
  -22.7033  -31.3094   21.4075 H   0  0  0  0  0  0
  -23.3748  -35.9630   23.3317 H   0  0  0  0  0  0
  -24.3592  -36.8898   22.2053 H   0  0  0  0  0  0
  -23.7245  -37.6506   23.6645 H   0  0  0  0  0  0
  -26.0715  -31.5833   20.6027 H   0  0  0  0  0  0
  -26.8301  -30.8643   21.9942 H   0  0  0  0  0  0
  -28.1103  -29.0535   21.1740 H   0  0  0  0  0  0
  -26.0298  -25.9917   18.9493 H   0  0  0  0  0  0
  -23.9804  -27.3214   18.9956 H   0  0  0  0  0  0
  -23.7393  -30.6035   19.4066 H   0  0  0  0  0  0
  -22.7456  -29.2512   19.8599 H   0  0  0  0  0  0
  -25.1295  -36.1954   25.0829 H   0  0  0  0  0  0
  -20.9963  -28.3234   24.1408 H   0  0  0  0  0  0
  -20.5638  -26.2285   23.3607 H   0  0  0  0  0  0
  -21.6638  -26.7427   22.1221 H   0  0  0  0  0  0
  -19.6918  -25.6297   21.1227 H   0  0  0  0  0  0
  -19.6682  -27.3194   20.6730 H   0  0  0  0  0  0
  -17.4196  -26.6659   21.4016 H   0  0  0  0  0  0
  -18.0330  -26.0052   22.8998 H   0  0  0  0  0  0
  -19.7946  -30.7255   24.2256 H   0  0  0  0  0  0
  -17.5031  -31.6255   24.5182 H   0  0  0  0  0  0
  -15.5359  -30.3010   23.7636 H   0  0  0  0  0  0
  -15.8658  -28.0835   22.7057 H   0  0  0  0  0  0
  -24.5937  -30.7052   25.7834 H   0  0  0  0  0  0
  -24.8934  -32.2888   26.4883 H   0  0  0  0  0  0
  -25.8110  -30.8944   27.0250 H   0  0  0  0  0  0
  -26.2864  -29.6799   24.1163 H   0  0  0  0  0  0
  -27.4060  -29.7261   25.4590 H   0  0  0  0  0  0
  -27.8717  -30.4342   23.9301 H   0  0  0  0  0  0
  -27.2659  -33.3623   26.2061 H   0  0  0  0  0  0
  -28.3852  -32.6891   25.0309 H   0  0  0  0  0  0
  -28.0721  -31.8458   26.5407 H   0  0  0  0  0  0
  -28.2607  -38.0091   24.7500 H   0  0  0  0  0  0
  -28.1051  -36.2621   24.6300 H   0  0  0  0  0  0
  -27.2293  -37.1463   25.8874 H   0  0  0  0  0  0
  -20.9309  -29.8805   21.6961 H   0  0  0  0  0  0
  -26.0166  -38.2867   24.1415 H   0  0  0  0  0  0
  -27.4792  -23.1975   24.4171 H   0  0  0  0  0  0
  -27.1166  -23.5578   22.7400 H   0  0  0  0  0  0
  -28.5324  -24.3023   23.5455 H   0  0  0  0  0  0
  -28.5150  -24.0407   18.1483 H   0  0  0  0  0  0
  -30.1751  -23.5014   18.3810 H   0  0  0  0  0  0
  -29.7895  -25.2088   18.4514 H   0  0  0  0  0  0
  -30.3880  -24.3745   22.0490 H   0  0  0  0  0  0
  -30.9212  -25.3265   20.6797 H   0  0  0  0  0  0
  -31.2436  -23.5968   20.7248 H   0  0  0  0  0  0
  -31.0822  -19.6731   20.7761 H   0  0  0  0  0  0
  -29.5769  -19.8882   19.9253 H   0  0  0  0  0  0
  -28.5019  -18.0446   21.1182 H   0  0  0  0  0  0
  -29.7568  -17.9780   22.3187 H   0  0  0  0  0  0
  -28.9434  -21.9881   19.6786 H   0  0  0  0  0  0
  -27.5397  -22.5967   20.4521 H   0  0  0  0  0  0
  -31.4114  -17.1480   20.6741 H   0  0  0  0  0  0
  -30.2006  -17.1572   19.4206 H   0  0  0  0  0  0
  -27.1474  -24.8435   20.3328 H   0  0  0  0  0  0
  -28.0750  -25.3336   21.6949 H   0  0  0  0  0  0
  -29.0013  -15.4605   21.1301 H   0  0  0  0  0  0
  1 25  1  0  0  0
  1 30  2  0  0  0
  1 85  1  0  0  0
  2  3  1  0  0  0
  2 25  1  0  0  0
  2 86  1  0  0  0
  2 87  1  0  0  0
  3  4  1  0  0  0
  3 88  1  0  0  0
  3 89  1  0  0  0
  4  5  1  0  0  0
  4 90  1  0  0  0
  4 91  1  0  0  0
  5  6  1  0  0  0
  5 26  1  0  0  0
  5 92  1  0  0  0
  6 25  1  0  0  0
  6 93  1  0  0  0
  6 94  1  0  0  0
  7  8  2  0  0  0
  7 26  1  0  0  0
  7 29  1  0  0  0
  8  9  1  0  0  0
  8 22  1  0  0  0
  9 10  1  0  0  0
  9 27  2  0  0  0
 10 11  2  0  0  0
 10 15  1  0  0  0
 11 12  1  0  0  0
 11 95  1  0  0  0
 12 13  2  0  0  0
 12 96  1  0  0  0
 13 14  1  0  0  0
 13 31  1  0  0  0
 14 15  2  0  0  0
 14 97  1  0  0  0
 15 98  1  0  0  0
 16 17  2  0  0  0
 16 21  1  0  0  0
 16 31  1  0  0  0
 17 18  1  0  0  0
 17 99  1  0  0  0
 18 19  2  0  0  0
 18100  1  0  0  0
 19 20  1  0  0  0
 19 24  1  0  0  0
 20 21  2  0  0  0
 20101  1  0  0  0
 21 23  1  0  0  0
 22 28  1  0  0  0
 22 32  2  0  0  0
 26 27  1  0  0  0
 28102  1  0  0  0
 28103  1  0  0  0
 29104  1  0  0  0
 29105  1  0  0  0
 33 34  1  0  0  0
 33 66  1  0  0  0
 33 70  2  0  0  0
 34 36  1  0  0  0
 34 59  1  0  0  0
 34106  1  0  0  0
 35 44  2  0  0  0
 35 45  1  0  0  0
 35 68  1  0  0  0
 36 56  1  0  0  0
 36107  1  0  0  0
 37 39  1  0  0  0
 37 47  1  0  0  0
 37 66  1  0  0  0
 37108  1  0  0  0
 38 43  2  0  0  0
 38 46  1  0  0  0
 38 47  1  0  0  0
 39 64  1  0  0  0
 39 67  2  0  0  0
 40 52  1  0  0  0
 40 53  2  0  0  0
 40 58  1  0  0  0
 41109  1  0  0  0
 41110  1  0  0  0
 41111  1  0  0  0
 41 48  1  0  0  0
 42 43  1  0  0  0
 42 66  1  0  0  0
 42112  1  0  0  0
 42113  1  0  0  0
 43 44  1  0  0  0
 44114  1  0  0  0
 45 46  2  0  0  0
 45115  1  0  0  0
 46116  1  0  0  0
 47117  1  0  0  0
 47118  1  0  0  0
 48 56  1  0  0  0
 48 65  1  0  0  0
 48119  1  0  0  0
 49 50  1  0  0  0
 49 53  1  0  0  0
 49 64  1  0  0  0
 49120  1  0  0  0
 50 51  1  0  0  0
 50121  1  0  0  0
 50122  1  0  0  0
 51 52  1  0  0  0
 51123  1  0  0  0
 51124  1  0  0  0
 52125  1  0  0  0
 52126  1  0  0  0
 53 54  1  0  0  0
 54 55  2  0  0  0
 54127  1  0  0  0
 55 57  1  0  0  0
 55128  1  0  0  0
 56 69  2  0  0  0
 57 58  2  0  0  0
 57129  1  0  0  0
 58130  1  0  0  0
 59 60  1  0  0  0
 59 61  1  0  0  0
 59 62  1  0  0  0
 60131  1  0  0  0
 60132  1  0  0  0
 60133  1  0  0  0
 61134  1  0  0  0
 61135  1  0  0  0
 61136  1  0  0  0
 62137  1  0  0  0
 62138  1  0  0  0
 62139  1  0  0  0
 63 65  1  0  0  0
 63140  1  0  0  0
 63141  1  0  0  0
 63142  1  0  0  0
 64143  1  0  0  0
 65144  1  0  0  0
 68 80  1  0  0  0
 71 73  1  0  0  0
 71 82  2  0  0  0
 71 84  1  0  0  0
 72 76  1  0  0  0
 72 83  2  0  0  0
 72 84  1  0  0  0
 73145  1  0  0  0
 73146  1  0  0  0
 73147  1  0  0  0
 74148  1  0  0  0
 74149  1  0  0  0
 74150  1  0  0  0
 74 81  1  0  0  0
 75 81  1  0  0  0
 75151  1  0  0  0
 75152  1  0  0  0
 75153  1  0  0  0
 76 77  1  0  0  0
 76154  1  0  0  0
 76155  1  0  0  0
 77 79  1  0  0  0
 77156  1  0  0  0
 77157  1  0  0  0
 78 81  1  0  0  0
 78 84  1  0  0  0
 78158  1  0  0  0
 78159  1  0  0  0
 79 85  1  0  0  0
 79160  1  0  0  0
 79161  1  0  0  0
 80 81  1  0  0  0
 80162  1  0  0  0
 80163  1  0  0  0
 82 83  1  0  0  0
 85164  1  0  0  0
M  ISO  4   1 100  68 101  80 101  85 100
M  END
> <chiral flag>
0

> <version>
0

> <s_m_source_file>
/data/baiqing/PycharmProjects/Reinvent-master-3.2/result/LINK_invent/BTK/process_docking_weight1_custom_sum_contain_oxygen_bond_distance_aromatic_linkinvent_7_9_3/rearranged_h_0076.sdf

> <i_m_source_file_index>
81

> <r_mmod_Potential_Energy-OPLS-2005>
-56.7134857177734

> <r_mmod_Stretch_Energy-OPLS-2005>
57.5654373168945

> <r_mmod_Bend_Energy-OPLS-2005>
134.156402587891

> <r_mmod_Torsional_Energy-OPLS-2005>
243.150741577148

> <r_mmod_Improper_Torsional_Energy-OPLS-2005>
6.46626091003418

> <r_mmod_Van_der_Waal_Energy-OPLS-2005>
132.419052124023

> <r_mmod_Electrostatic_Energy-OPLS-2005>
-416.335510253906

> <r_mmod_Solvation_Energy-OPLS-2005>
-238.646377563477

> <b_mmod_Minimization_Converged-OPLS-2005>
0

> <r_mmod_RMS_Derivative-OPLS-2005>
1.27577590942383

$$$$
81
                    3D
 Structure written by MMmdl.
166174  0  0  1  0            999 V2000
  -30.7289  -14.3127   20.7349 C   0  0  0  0  0  0
  -30.4170  -12.2853   19.3614 C   0  0  0  0  0  0
  -29.4778  -12.5644   18.1731 C   0  0  0  0  0  0
  -27.9994  -12.4185   18.5862 C   0  0  0  0  0  0
  -27.6652  -13.1967   19.8850 C   0  0  2  0  0  0
  -28.6951  -12.8557   20.9797 C   0  0  0  0  0  0
  -25.2556  -13.8125   20.5629 C   0  0  0  0  0  0
  -24.1815  -13.0413   20.9146 C   0  0  0  0  0  0
  -24.6364  -11.6873   20.8704 C   0  0  0  0  0  0
  -23.9034  -10.4266   21.0393 C   0  0  0  0  0  0
  -24.3594   -9.4180   21.9176 C   0  0  0  0  0  0
  -23.6270   -8.2220   22.0750 C   0  0  0  0  0  0
  -22.4256   -8.0266   21.3548 C   0  0  0  0  0  0
  -21.9887   -9.0225   20.4648 C   0  0  0  0  0  0
  -22.7205  -10.2098   20.3047 C   0  0  0  0  0  0
  -21.6842   -6.0716   22.5284 C   0  0  0  0  0  0
  -21.4013   -6.5623   23.8212 C   0  0  0  0  0  0
  -21.3659   -5.6785   24.9180 C   0  0  0  0  0  0
  -21.6051   -4.3050   24.7231 C   0  0  0  0  0  0
  -21.8814   -3.8131   23.4354 C   0  0  0  0  0  0
  -21.9186   -4.6948   22.3411 C   0  0  0  0  0  0
  -22.7841  -13.5211   21.1853 C   0  0  0  0  0  0
  -22.1657   -4.2131   21.0986 F   0  0  0  0  0  0
  -21.5625   -3.4540   25.7743 F   0  0  0  0  0  0
  -30.0422  -13.1763   20.4639 N   0  0  0  0  0  0
  -26.3011  -12.9296   20.3354 N   0  0  0  0  0  0
  -25.9282  -11.6454   20.5707 N   0  0  0  0  0  0
  -22.0495  -12.8201   22.0409 N   0  0  0  0  0  0
  -25.4259  -15.1847   20.4042 N   0  0  0  0  0  0
  -31.7162  -14.6957   20.0928 O   0  0  0  0  0  0
  -21.6630   -6.8856   21.4247 O   0  0  0  0  0  0
  -22.3521  -14.5532   20.6726 O   0  0  0  0  0  0
  -24.6081  -31.8711   23.2096 C   0  0  0  0  0  0
  -25.9005  -32.4838   23.8387 C   0  0  1  0  0  0
  -27.2325  -27.4731   20.0893 C   0  0  0  0  0  0
  -25.5891  -33.8619   24.2328 N   0  0  0  0  0  0
  -23.3923  -30.4923   21.5508 C   0  0  2  0  0  0
  -24.8413  -28.9576   20.1217 C   0  0  0  0  0  0
  -22.7370  -29.4648   22.4995 C   0  0  0  0  0  0
  -18.0255  -28.1333   22.8471 C   0  0  0  0  0  0
  -24.1500  -36.7316   23.2644 C   0  0  0  0  0  0
  -25.9168  -30.8465   21.3536 C   0  0  0  0  0  0
  -25.9975  -29.4818   20.7125 C   0  0  0  0  0  0
  -27.1996  -28.7430   20.6966 C   0  0  0  0  0  0
  -26.0637  -26.9507   19.5032 C   0  0  0  0  0  0
  -24.8642  -27.6874   19.5214 C   0  0  0  0  0  0
  -23.6018  -29.8223   20.1664 C   0  0  0  0  0  0
  -25.4100  -36.3118   24.0368 C   0  0  1  0  0  0
  -20.5861  -28.3570   23.1359 C   0  0  2  0  0  0
  -20.6755  -26.9307   22.5437 C   0  0  0  0  0  0
  -19.5743  -26.6332   21.5203 C   0  0  0  0  0  0
  -18.1904  -26.7873   22.1602 C   0  0  0  0  0  0
  -19.1515  -28.8765   23.2909 C   0  0  0  0  0  0
  -18.9457  -30.1385   23.8891 C   0  0  0  0  0  0
  -17.6466  -30.6546   24.0543 C   0  0  0  0  0  0
  -25.9034  -34.9480   23.5154 C   0  0  0  0  0  0
  -16.5345  -29.9046   23.6342 C   0  0  0  0  0  0
  -16.7249  -28.6484   23.0325 C   0  0  0  0  0  0
  -26.4427  -31.6584   25.0688 C   0  0  0  0  0  0
  -25.3702  -31.3745   26.1463 C   0  0  0  0  0  0
  -27.0239  -30.3034   24.5995 C   0  0  0  0  0  0
  -27.5996  -32.4276   25.7480 C   0  0  0  0  0  0
  -27.5583  -37.1793   24.8459 C   0  0  0  0  0  0
  -21.4098  -29.2979   22.3769 N   0  0  0  0  0  0
  -26.4291  -37.3797   23.9422 N   0  0  0  0  0  0
  -24.6582  -31.0844   22.0987 N   0  0  0  0  0  0
  -23.4170  -28.8165   23.2998 O   0  0  0  0  0  0
  -28.4067  -26.7691   20.0300 O   0  0  0  0  0  0
  -26.5576  -34.8942   22.4688 O   0  0  0  0  0  0
  -23.5284  -32.1432   23.7527 O   0  0  0  0  0  0
  -31.0627  -23.7364   21.8218 C   0  0  0  0  0  0
  -31.4341  -22.7112   22.6946 C   0  0  0  0  0  0
  -29.9759  -23.4920   20.9737 C   0  0  0  0  0  0
  -29.8897  -21.3320   21.7195 C   0  0  0  0  0  0
  -32.5223  -22.9272   23.7236 C   0  0  0  0  0  0
  -28.2819  -17.1209   21.6736 C   0  0  0  0  0  0
  -28.8576  -25.9806   22.2454 C   0  0  0  0  0  0
  -29.4073  -24.5967   20.0988 C   0  0  0  0  0  0
  -29.3152  -19.9370   21.5251 C   0  0  0  0  0  0
  -30.2571  -18.7883   21.9372 C   0  0  0  0  0  0
  -30.6274  -16.3014   22.2476 C   0  0  0  0  0  0
  -29.7994  -17.3782   21.5110 C   0  0  1  0  0  0
  -28.4480  -25.5796   20.8142 C   0  0  2  0  0  0
  -30.8340  -21.5072   22.6458 N   0  0  0  0  0  0
  -29.3991  -22.2782   20.9248 N   0  0  0  0  0  0
  -30.2612  -14.9679   21.7997 N   0  0  0  0  0  0
  -31.4591  -12.4128   19.0630 H   0  0  0  0  0  0
  -30.3222  -11.2457   19.6760 H   0  0  0  0  0  0
  -29.7026  -11.8909   17.3451 H   0  0  0  0  0  0
  -29.6536  -13.5738   17.7975 H   0  0  0  0  0  0
  -27.7929  -11.3584   18.7280 H   0  0  0  0  0  0
  -27.3505  -12.7499   17.7745 H   0  0  0  0  0  0
  -27.7458  -14.2617   19.6672 H   0  0  0  0  0  0
  -28.6510  -11.7870   21.2013 H   0  0  0  0  0  0
  -28.4290  -13.3428   21.9182 H   0  0  0  0  0  0
  -25.2734   -9.5661   22.4746 H   0  0  0  0  0  0
  -23.9979   -7.4615   22.7473 H   0  0  0  0  0  0
  -21.0810   -8.8731   19.8962 H   0  0  0  0  0  0
  -22.3659  -10.9632   19.6152 H   0  0  0  0  0  0
  -21.2013   -7.6134   23.9715 H   0  0  0  0  0  0
  -21.1494   -6.0516   25.9079 H   0  0  0  0  0  0
  -22.0599   -2.7597   23.2864 H   0  0  0  0  0  0
  -22.4096  -11.9837   22.4757 H   0  0  0  0  0  0
  -21.1138  -13.1242   22.2674 H   0  0  0  0  0  0
  -24.6629  -15.8426   20.5196 H   0  0  0  0  0  0
  -26.2878  -15.6241   20.1066 H   0  0  0  0  0  0
  -26.7074  -32.5579   23.1158 H   0  0  0  0  0  0
  -25.0079  -33.9779   25.0511 H   0  0  0  0  0  0
  -22.6823  -31.3078   21.4109 H   0  0  0  0  0  0
  -23.3754  -35.9662   23.3310 H   0  0  0  0  0  0
  -24.3617  -36.8912   22.2063 H   0  0  0  0  0  0
  -23.7273  -37.6538   23.6626 H   0  0  0  0  0  0
  -26.0176  -31.6077   20.5777 H   0  0  0  0  0  0
  -26.8093  -30.9099   21.9631 H   0  0  0  0  0  0
  -28.0961  -29.1408   21.1521 H   0  0  0  0  0  0
  -26.0884  -25.9822   19.0235 H   0  0  0  0  0  0
  -23.9717  -27.2737   19.0716 H   0  0  0  0  0  0
  -23.7104  -30.5954   19.4063 H   0  0  0  0  0  0
  -22.7263  -29.2417   19.8683 H   0  0  0  0  0  0
  -25.1266  -36.1983   25.0867 H   0  0  0  0  0  0
  -20.9927  -28.3098   24.1493 H   0  0  0  0  0  0
  -20.5654  -26.2123   23.3594 H   0  0  0  0  0  0
  -21.6623  -26.7361   22.1226 H   0  0  0  0  0  0
  -19.6928  -25.6250   21.1212 H   0  0  0  0  0  0
  -19.6758  -27.3162   20.6763 H   0  0  0  0  0  0
  -17.4197  -26.6634   21.3984 H   0  0  0  0  0  0
  -18.0292  -26.0009   22.9003 H   0  0  0  0  0  0
  -19.7944  -30.7183   24.2250 H   0  0  0  0  0  0
  -17.5040  -31.6250   24.5081 H   0  0  0  0  0  0
  -15.5342  -30.2945   23.7678 H   0  0  0  0  0  0
  -15.8656  -28.0815   22.7017 H   0  0  0  0  0  0
  -24.5854  -30.7111   25.7823 H   0  0  0  0  0  0
  -24.8921  -32.2951   26.4828 H   0  0  0  0  0  0
  -25.8047  -30.8973   27.0258 H   0  0  0  0  0  0
  -26.2778  -29.6850   24.1001 H   0  0  0  0  0  0
  -27.4019  -29.7199   25.4396 H   0  0  0  0  0  0
  -27.8604  -30.4389   23.9130 H   0  0  0  0  0  0
  -27.2604  -33.3560   26.2062 H   0  0  0  0  0  0
  -28.3813  -32.6840   25.0330 H   0  0  0  0  0  0
  -28.0636  -31.8395   26.5402 H   0  0  0  0  0  0
  -28.2555  -38.0120   24.7492 H   0  0  0  0  0  0
  -28.1119  -36.2651   24.6271 H   0  0  0  0  0  0
  -27.2318  -37.1424   25.8865 H   0  0  0  0  0  0
  -20.9183  -29.8758   21.7089 H   0  0  0  0  0  0
  -26.0197  -38.2884   24.1402 H   0  0  0  0  0  0
  -31.5530  -24.6992   21.8419 H   0  0  0  0  0  0
  -32.6052  -23.9882   23.9541 H   0  0  0  0  0  0
  -33.4830  -22.5864   23.3389 H   0  0  0  0  0  0
  -32.3055  -22.4028   24.6540 H   0  0  0  0  0  0
  -27.6691  -17.9072   21.2333 H   0  0  0  0  0  0
  -27.9850  -17.0101   22.7198 H   0  0  0  0  0  0
  -27.9999  -16.2087   21.1485 H   0  0  0  0  0  0
  -28.8967  -25.1183   22.9106 H   0  0  0  0  0  0
  -28.1472  -26.6805   22.6825 H   0  0  0  0  0  0
  -29.8389  -26.4541   22.2524 H   0  0  0  0  0  0
  -28.8893  -24.1589   19.2426 H   0  0  0  0  0  0
  -30.2571  -25.1396   19.6865 H   0  0  0  0  0  0
  -29.0875  -19.8277   20.4633 H   0  0  0  0  0  0
  -28.3647  -19.8661   22.0513 H   0  0  0  0  0  0
  -30.4206  -18.8309   23.0124 H   0  0  0  0  0  0
  -31.2355  -18.9697   21.4897 H   0  0  0  0  0  0
  -30.4273  -16.3544   23.3211 H   0  0  0  0  0  0
  -31.6996  -16.4640   22.1261 H   0  0  0  0  0  0
  -30.0171  -17.3009   20.4438 H   0  0  0  0  0  0
  -27.4698  -25.0991   20.8808 H   0  0  0  0  0  0
  -29.4913  -14.5212   22.2785 H   0  0  0  0  0  0
  1 25  1  0  0  0
  1 30  2  0  0  0
  1 86  1  0  0  0
  2  3  1  0  0  0
  2 25  1  0  0  0
  2 87  1  0  0  0
  2 88  1  0  0  0
  3  4  1  0  0  0
  3 89  1  0  0  0
  3 90  1  0  0  0
  4  5  1  0  0  0
  4 91  1  0  0  0
  4 92  1  0  0  0
  5  6  1  0  0  0
  5 26  1  0  0  0
  5 93  1  0  0  0
  6 25  1  0  0  0
  6 94  1  0  0  0
  6 95  1  0  0  0
  7  8  2  0  0  0
  7 26  1  0  0  0
  7 29  1  0  0  0
  8  9  1  0  0  0
  8 22  1  0  0  0
  9 10  1  0  0  0
  9 27  2  0  0  0
 10 11  2  0  0  0
 10 15  1  0  0  0
 11 12  1  0  0  0
 11 96  1  0  0  0
 12 13  2  0  0  0
 12 97  1  0  0  0
 13 14  1  0  0  0
 13 31  1  0  0  0
 14 15  2  0  0  0
 14 98  1  0  0  0
 15 99  1  0  0  0
 16 17  2  0  0  0
 16 21  1  0  0  0
 16 31  1  0  0  0
 17 18  1  0  0  0
 17100  1  0  0  0
 18 19  2  0  0  0
 18101  1  0  0  0
 19 20  1  0  0  0
 19 24  1  0  0  0
 20 21  2  0  0  0
 20102  1  0  0  0
 21 23  1  0  0  0
 22 28  1  0  0  0
 22 32  2  0  0  0
 26 27  1  0  0  0
 28103  1  0  0  0
 28104  1  0  0  0
 29105  1  0  0  0
 29106  1  0  0  0
 33 34  1  0  0  0
 33 66  1  0  0  0
 33 70  2  0  0  0
 34 36  1  0  0  0
 34 59  1  0  0  0
 34107  1  0  0  0
 35 44  2  0  0  0
 35 45  1  0  0  0
 35 68  1  0  0  0
 36 56  1  0  0  0
 36108  1  0  0  0
 37 39  1  0  0  0
 37 47  1  0  0  0
 37 66  1  0  0  0
 37109  1  0  0  0
 38 43  2  0  0  0
 38 46  1  0  0  0
 38 47  1  0  0  0
 39 64  1  0  0  0
 39 67  2  0  0  0
 40 52  1  0  0  0
 40 53  2  0  0  0
 40 58  1  0  0  0
 41110  1  0  0  0
 41111  1  0  0  0
 41112  1  0  0  0
 41 48  1  0  0  0
 42 43  1  0  0  0
 42 66  1  0  0  0
 42113  1  0  0  0
 42114  1  0  0  0
 43 44  1  0  0  0
 44115  1  0  0  0
 45 46  2  0  0  0
 45116  1  0  0  0
 46117  1  0  0  0
 47118  1  0  0  0
 47119  1  0  0  0
 48 56  1  0  0  0
 48 65  1  0  0  0
 48120  1  0  0  0
 49 50  1  0  0  0
 49 53  1  0  0  0
 49 64  1  0  0  0
 49121  1  0  0  0
 50 51  1  0  0  0
 50122  1  0  0  0
 50123  1  0  0  0
 51 52  1  0  0  0
 51124  1  0  0  0
 51125  1  0  0  0
 52126  1  0  0  0
 52127  1  0  0  0
 53 54  1  0  0  0
 54 55  2  0  0  0
 54128  1  0  0  0
 55 57  1  0  0  0
 55129  1  0  0  0
 56 69  2  0  0  0
 57 58  2  0  0  0
 57130  1  0  0  0
 58131  1  0  0  0
 59 60  1  0  0  0
 59 61  1  0  0  0
 59 62  1  0  0  0
 60132  1  0  0  0
 60133  1  0  0  0
 60134  1  0  0  0
 61135  1  0  0  0
 61136  1  0  0  0
 61137  1  0  0  0
 62138  1  0  0  0
 62139  1  0  0  0
 62140  1  0  0  0
 63 65  1  0  0  0
 63141  1  0  0  0
 63142  1  0  0  0
 63143  1  0  0  0
 64144  1  0  0  0
 65145  1  0  0  0
 68 83  1  0  0  0
 71 72  2  0  0  0
 71 73  1  0  0  0
 71146  1  0  0  0
 72 75  1  0  0  0
 72 84  1  0  0  0
 73 78  1  0  0  0
 73 85  2  0  0  0
 74 79  1  0  0  0
 74 84  2  0  0  0
 74 85  1  0  0  0
 75147  1  0  0  0
 75148  1  0  0  0
 75149  1  0  0  0
 76150  1  0  0  0
 76151  1  0  0  0
 76152  1  0  0  0
 76 82  1  0  0  0
 77153  1  0  0  0
 77154  1  0  0  0
 77155  1  0  0  0
 77 83  1  0  0  0
 78 83  1  0  0  0
 78156  1  0  0  0
 78157  1  0  0  0
 79 80  1  0  0  0
 79158  1  0  0  0
 79159  1  0  0  0
 80 82  1  0  0  0
 80160  1  0  0  0
 80161  1  0  0  0
 81 82  1  0  0  0
 81 86  1  0  0  0
 81162  1  0  0  0
 81163  1  0  0  0
 82164  1  0  0  0
 83165  1  0  0  0
 86166  1  0  0  0
M  ISO  4   1 100  68 101  83 101  86 100
M  END
> <chiral flag>
0

> <version>
0

> <s_m_source_file>
/data/baiqing/PycharmProjects/Reinvent-master-3.2/result/LINK_invent/BTK/process_docking_weight1_custom_sum_contain_oxygen_bond_distance_aromatic_linkinvent_7_9_3/rearranged_h_0076.sdf

> <i_m_source_file_index>
82

> <r_mmod_Potential_Energy-OPLS-2005>
-467.960296630859

> <r_mmod_Stretch_Energy-OPLS-2005>
31.0067596435547

> <r_mmod_Bend_Energy-OPLS-2005>
96.5161895751953

> <r_mmod_Torsional_Energy-OPLS-2005>
224.138977050781

> <r_mmod_Improper_Torsional_Energy-OPLS-2005>
2.06861114501953

> <r_mmod_Van_der_Waal_Energy-OPLS-2005>
165.216903686523

> <r_mmod_Electrostatic_Energy-OPLS-2005>
-771.975524902344

> <r_mmod_Solvation_Energy-OPLS-2005>
-224.087005615234

> <b_mmod_Minimization_Converged-OPLS-2005>
0

> <r_mmod_RMS_Derivative-OPLS-2005>
4.84145498275757

$$$$
82
                    3D
 Structure written by MMmdl.
165173  0  0  1  0            999 V2000
  -30.6098  -14.6814   20.5504 C   0  0  0  0  0  0
  -30.4223  -12.4357   19.4535 C   0  0  0  0  0  0
  -29.4933  -12.5455   18.2192 C   0  0  0  0  0  0
  -28.0095  -12.3920   18.6042 C   0  0  0  0  0  0
  -27.6416  -13.2217   19.8578 C   0  0  2  0  0  0
  -28.6823  -13.0072   20.9703 C   0  0  0  0  0  0
  -25.2483  -13.8150   20.5597 C   0  0  0  0  0  0
  -24.1796  -13.0389   20.9180 C   0  0  0  0  0  0
  -24.6406  -11.6876   20.8756 C   0  0  0  0  0  0
  -23.9125  -10.4251   21.0477 C   0  0  0  0  0  0
  -24.3669   -9.4138   21.9223 C   0  0  0  0  0  0
  -23.6292   -8.2199   22.0755 C   0  0  0  0  0  0
  -22.4253   -8.0283   21.3566 C   0  0  0  0  0  0
  -21.9950   -9.0256   20.4636 C   0  0  0  0  0  0
  -22.7313  -10.2115   20.3102 C   0  0  0  0  0  0
  -21.6850   -6.0735   22.5280 C   0  0  0  0  0  0
  -21.4009   -6.5632   23.8202 C   0  0  0  0  0  0
  -21.3667   -5.6801   24.9171 C   0  0  0  0  0  0
  -21.6063   -4.3072   24.7235 C   0  0  0  0  0  0
  -21.8824   -3.8154   23.4356 C   0  0  0  0  0  0
  -21.9170   -4.6961   22.3406 C   0  0  0  0  0  0
  -22.7814  -13.5131   21.1884 C   0  0  0  0  0  0
  -22.1648   -4.2133   21.0975 F   0  0  0  0  0  0
  -21.5633   -3.4555   25.7772 F   0  0  0  0  0  0
  -29.9873  -13.4498   20.4514 N   0  0  0  0  0  0
  -26.2901  -12.9370   20.3229 N   0  0  0  0  0  0
  -25.9309  -11.6520   20.5710 N   0  0  0  0  0  0
  -22.0496  -12.8084   22.0465 N   0  0  0  0  0  0
  -25.4184  -15.1840   20.3910 N   0  0  0  0  0  0
  -31.7347  -14.7844   20.0493 O   0  0  0  0  0  0
  -21.6620   -6.8873   21.4247 O   0  0  0  0  0  0
  -22.3476  -14.5434   20.6751 O   0  0  0  0  0  0
  -24.6256  -31.8591   23.2049 C   0  0  0  0  0  0
  -25.9113  -32.4762   23.8387 C   0  0  1  0  0  0
  -27.1979  -27.2980   20.1239 C   0  0  0  0  0  0
  -25.5938  -33.8583   24.2320 N   0  0  0  0  0  0
  -23.4172  -30.4855   21.5473 C   0  0  2  0  0  0
  -24.8588  -28.9393   20.1081 C   0  0  0  0  0  0
  -22.7464  -29.4621   22.4927 C   0  0  0  0  0  0
  -18.0270  -28.1311   22.8457 C   0  0  0  0  0  0
  -24.1488  -36.7303   23.2637 C   0  0  0  0  0  0
  -25.9603  -30.7850   21.3791 C   0  0  0  0  0  0
  -26.0261  -29.4119   20.7174 C   0  0  0  0  0  0
  -27.1982  -28.6020   20.7143 C   0  0  0  0  0  0
  -26.0038  -26.8697   19.5026 C   0  0  0  0  0  0
  -24.8502  -27.6767   19.4940 C   0  0  0  0  0  0
  -23.6295  -29.8231   20.1611 C   0  0  0  0  0  0
  -25.4109  -36.3089   24.0331 C   0  0  1  0  0  0
  -20.5866  -28.3639   23.1244 C   0  0  2  0  0  0
  -20.6743  -26.9360   22.5380 C   0  0  0  0  0  0
  -19.5736  -26.6325   21.5168 C   0  0  0  0  0  0
  -18.1915  -26.7853   22.1592 C   0  0  0  0  0  0
  -19.1514  -28.8790   23.2832 C   0  0  0  0  0  0
  -18.9463  -30.1391   23.8844 C   0  0  0  0  0  0
  -17.6479  -30.6531   24.0527 C   0  0  0  0  0  0
  -25.9036  -34.9440   23.5108 C   0  0  0  0  0  0
  -16.5356  -29.9027   23.6326 C   0  0  0  0  0  0
  -16.7257  -28.6431   23.0338 C   0  0  0  0  0  0
  -26.4487  -31.6579   25.0759 C   0  0  0  0  0  0
  -25.3743  -31.3699   26.1520 C   0  0  0  0  0  0
  -27.0364  -30.2995   24.6262 C   0  0  0  0  0  0
  -27.6047  -32.4334   25.7517 C   0  0  0  0  0  0
  -27.5594  -37.1786   24.8452 C   0  0  0  0  0  0
  -21.4175  -29.3029   22.3674 N   0  0  0  0  0  0
  -26.4294  -37.3791   23.9426 N   0  0  0  0  0  0
  -24.6876  -31.0564   22.1016 N   0  0  0  0  0  0
  -23.4186  -28.8142   23.2988 O   0  0  0  0  0  0
  -28.3122  -26.4569   20.2152 O   0  0  0  0  0  0
  -26.5597  -34.8890   22.4683 O   0  0  0  0  0  0
  -23.5424  -32.1396   23.7377 O   0  0  0  0  0  0
  -27.0644  -21.2355   20.8627 C   0  0  0  0  0  0
  -28.8064  -22.5818   19.9117 C   0  0  0  0  0  0
  -28.3495  -21.2717   20.2822 C   0  0  0  0  0  0
  -26.3300  -22.4332   21.0419 C   0  0  0  0  0  0
  -28.0228  -23.7694   20.1361 C   0  0  0  0  0  0
  -24.6488  -21.6899   22.8530 C   0  0  0  0  0  0
  -31.1676  -16.5897   22.1193 C   0  0  0  0  0  0
  -28.8221  -15.8715   22.1495 C   0  0  0  0  0  0
  -29.1541  -19.9587   19.9210 C   0  0  0  0  0  0
  -24.8728  -22.3762   21.4980 C   0  0  0  0  0  0
  -28.4152  -25.1619   19.4970 C   0  0  0  0  0  0
  -28.9796  -18.6004   20.7447 C   0  0  0  0  0  0
  -29.7018  -17.2627   20.1987 C   0  0  0  0  0  0
  -30.0302  -16.0557   21.2116 C   0  0  0  0  0  0
  -26.8051  -23.6644   20.7212 N   0  0  0  0  0  0
  -31.4559  -12.5666   19.1389 H   0  0  0  0  0  0
  -30.3789  -11.4331   19.8793 H   0  0  0  0  0  0
  -29.7619  -11.8003   17.4688 H   0  0  0  0  0  0
  -29.6290  -13.5204   17.7485 H   0  0  0  0  0  0
  -27.8097  -11.3346   18.7793 H   0  0  0  0  0  0
  -27.3716  -12.6829   17.7678 H   0  0  0  0  0  0
  -27.6716  -14.2680   19.5581 H   0  0  0  0  0  0
  -28.7176  -11.9441   21.2174 H   0  0  0  0  0  0
  -28.3750  -13.4503   21.9049 H   0  0  0  0  0  0
  -25.2827   -9.5548   22.4794 H   0  0  0  0  0  0
  -23.9973   -7.4577   22.7472 H   0  0  0  0  0  0
  -21.0889   -8.8791   19.8910 H   0  0  0  0  0  0
  -22.3814  -10.9668   19.6216 H   0  0  0  0  0  0
  -21.2028   -7.6156   23.9689 H   0  0  0  0  0  0
  -21.1496   -6.0553   25.9064 H   0  0  0  0  0  0
  -22.0625   -2.7625   23.2862 H   0  0  0  0  0  0
  -22.4146  -11.9701   22.4739 H   0  0  0  0  0  0
  -21.1125  -13.1094   22.2745 H   0  0  0  0  0  0
  -24.6572  -15.8465   20.4798 H   0  0  0  0  0  0
  -26.2751  -15.6066   20.0595 H   0  0  0  0  0  0
  -26.7187  -32.5391   23.1136 H   0  0  0  0  0  0
  -25.0094  -33.9713   25.0482 H   0  0  0  0  0  0
  -22.7096  -31.3052   21.4078 H   0  0  0  0  0  0
  -23.3737  -35.9635   23.3277 H   0  0  0  0  0  0
  -24.3572  -36.8980   22.2060 H   0  0  0  0  0  0
  -23.7247  -37.6495   23.6685 H   0  0  0  0  0  0
  -26.0959  -31.5500   20.6123 H   0  0  0  0  0  0
  -26.8410  -30.8263   22.0096 H   0  0  0  0  0  0
  -28.0977  -28.9597   21.1995 H   0  0  0  0  0  0
  -25.9223  -25.8882   19.0622 H   0  0  0  0  0  0
  -23.9460  -27.3069   19.0313 H   0  0  0  0  0  0
  -23.7499  -30.6023   19.4087 H   0  0  0  0  0  0
  -22.7481  -29.2566   19.8596 H   0  0  0  0  0  0
  -25.1282  -36.1945   25.0813 H   0  0  0  0  0  0
  -20.9925  -28.3204   24.1371 H   0  0  0  0  0  0
  -20.5565  -26.2262   23.3567 H   0  0  0  0  0  0
  -21.6610  -26.7308   22.1234 H   0  0  0  0  0  0
  -19.6885  -25.6223   21.1208 H   0  0  0  0  0  0
  -19.6672  -27.3088   20.6654 H   0  0  0  0  0  0
  -17.4179  -26.6564   21.4007 H   0  0  0  0  0  0
  -18.0345  -25.9978   22.8963 H   0  0  0  0  0  0
  -19.7951  -30.7202   24.2186 H   0  0  0  0  0  0
  -17.5035  -31.6205   24.5141 H   0  0  0  0  0  0
  -15.5339  -30.2919   23.7654 H   0  0  0  0  0  0
  -15.8658  -28.0734   22.7088 H   0  0  0  0  0  0
  -24.5906  -30.7047   25.7873 H   0  0  0  0  0  0
  -24.8910  -32.2848   26.4957 H   0  0  0  0  0  0
  -25.8097  -30.8887   27.0292 H   0  0  0  0  0  0
  -26.2967  -29.6695   24.1303 H   0  0  0  0  0  0
  -27.4076  -29.7300   25.4794 H   0  0  0  0  0  0
  -27.8831  -30.4278   23.9515 H   0  0  0  0  0  0
  -27.2676  -33.3673   26.2038 H   0  0  0  0  0  0
  -28.3871  -32.6860   25.0343 H   0  0  0  0  0  0
  -28.0709  -31.8511   26.5476 H   0  0  0  0  0  0
  -28.2557  -38.0131   24.7552 H   0  0  0  0  0  0
  -28.1147  -36.2661   24.6221 H   0  0  0  0  0  0
  -27.2298  -37.1384   25.8843 H   0  0  0  0  0  0
  -20.9322  -29.8876   21.7019 H   0  0  0  0  0  0
  -26.0166  -38.2856   24.1432 H   0  0  0  0  0  0
  -26.6087  -20.2886   21.1167 H   0  0  0  0  0  0
  -29.7426  -22.6737   19.3836 H   0  0  0  0  0  0
  -23.5847  -21.6564   23.0968 H   0  0  0  0  0  0
  -25.1571  -22.2208   23.6567 H   0  0  0  0  0  0
  -25.0096  -20.6616   22.8415 H   0  0  0  0  0  0
  -31.4604  -15.8568   22.8706 H   0  0  0  0  0  0
  -30.8807  -17.4924   22.6586 H   0  0  0  0  0  0
  -32.0693  -16.8388   21.5556 H   0  0  0  0  0  0
  -28.6031  -16.7786   22.7125 H   0  0  0  0  0  0
  -29.0168  -15.1204   22.9115 H   0  0  0  0  0  0
  -27.9181  -15.6258   21.5964 H   0  0  0  0  0  0
  -30.2107  -20.2207   19.9521 H   0  0  0  0  0  0
  -28.9466  -19.7418   18.8744 H   0  0  0  0  0  0
  -24.3098  -21.8513   20.7272 H   0  0  0  0  0  0
  -24.4495  -23.3795   21.5392 H   0  0  0  0  0  0
  -27.9156  -25.2341   18.5321 H   0  0  0  0  0  0
  -29.4693  -25.0746   19.2346 H   0  0  0  0  0  0
  -27.9169  -18.3809   20.8310 H   0  0  0  0  0  0
  -29.3018  -18.8007   21.7644 H   0  0  0  0  0  0
  -30.6379  -17.5605   19.7235 H   0  0  0  0  0  0
  -29.1081  -16.8728   19.3703 H   0  0  0  0  0  0
  1 25  1  0  0  0
  1 30  2  0  0  0
  1 84  1  0  0  0
  2  3  1  0  0  0
  2 25  1  0  0  0
  2 86  1  0  0  0
  2 87  1  0  0  0
  3  4  1  0  0  0
  3 88  1  0  0  0
  3 89  1  0  0  0
  4  5  1  0  0  0
  4 90  1  0  0  0
  4 91  1  0  0  0
  5  6  1  0  0  0
  5 26  1  0  0  0
  5 92  1  0  0  0
  6 25  1  0  0  0
  6 93  1  0  0  0
  6 94  1  0  0  0
  7  8  2  0  0  0
  7 26  1  0  0  0
  7 29  1  0  0  0
  8  9  1  0  0  0
  8 22  1  0  0  0
  9 10  1  0  0  0
  9 27  2  0  0  0
 10 11  2  0  0  0
 10 15  1  0  0  0
 11 12  1  0  0  0
 11 95  1  0  0  0
 12 13  2  0  0  0
 12 96  1  0  0  0
 13 14  1  0  0  0
 13 31  1  0  0  0
 14 15  2  0  0  0
 14 97  1  0  0  0
 15 98  1  0  0  0
 16 17  2  0  0  0
 16 21  1  0  0  0
 16 31  1  0  0  0
 17 18  1  0  0  0
 17 99  1  0  0  0
 18 19  2  0  0  0
 18100  1  0  0  0
 19 20  1  0  0  0
 19 24  1  0  0  0
 20 21  2  0  0  0
 20101  1  0  0  0
 21 23  1  0  0  0
 22 28  1  0  0  0
 22 32  2  0  0  0
 26 27  1  0  0  0
 28102  1  0  0  0
 28103  1  0  0  0
 29104  1  0  0  0
 29105  1  0  0  0
 33 34  1  0  0  0
 33 66  1  0  0  0
 33 70  2  0  0  0
 34 36  1  0  0  0
 34 59  1  0  0  0
 34106  1  0  0  0
 35 44  2  0  0  0
 35 45  1  0  0  0
 35 68  1  0  0  0
 36 56  1  0  0  0
 36107  1  0  0  0
 37 39  1  0  0  0
 37 47  1  0  0  0
 37 66  1  0  0  0
 37108  1  0  0  0
 38 43  2  0  0  0
 38 46  1  0  0  0
 38 47  1  0  0  0
 39 64  1  0  0  0
 39 67  2  0  0  0
 40 52  1  0  0  0
 40 53  2  0  0  0
 40 58  1  0  0  0
 41109  1  0  0  0
 41110  1  0  0  0
 41111  1  0  0  0
 41 48  1  0  0  0
 42 43  1  0  0  0
 42 66  1  0  0  0
 42112  1  0  0  0
 42113  1  0  0  0
 43 44  1  0  0  0
 44114  1  0  0  0
 45 46  2  0  0  0
 45115  1  0  0  0
 46116  1  0  0  0
 47117  1  0  0  0
 47118  1  0  0  0
 48 56  1  0  0  0
 48 65  1  0  0  0
 48119  1  0  0  0
 49 50  1  0  0  0
 49 53  1  0  0  0
 49 64  1  0  0  0
 49120  1  0  0  0
 50 51  1  0  0  0
 50121  1  0  0  0
 50122  1  0  0  0
 51 52  1  0  0  0
 51123  1  0  0  0
 51124  1  0  0  0
 52125  1  0  0  0
 52126  1  0  0  0
 53 54  1  0  0  0
 54 55  2  0  0  0
 54127  1  0  0  0
 55 57  1  0  0  0
 55128  1  0  0  0
 56 69  2  0  0  0
 57 58  2  0  0  0
 57129  1  0  0  0
 58130  1  0  0  0
 59 60  1  0  0  0
 59 61  1  0  0  0
 59 62  1  0  0  0
 60131  1  0  0  0
 60132  1  0  0  0
 60133  1  0  0  0
 61134  1  0  0  0
 61135  1  0  0  0
 61136  1  0  0  0
 62137  1  0  0  0
 62138  1  0  0  0
 62139  1  0  0  0
 63 65  1  0  0  0
 63140  1  0  0  0
 63141  1  0  0  0
 63142  1  0  0  0
 64143  1  0  0  0
 65144  1  0  0  0
 68 81  1  0  0  0
 71 73  2  0  0  0
 71 74  1  0  0  0
 71145  1  0  0  0
 72 73  1  0  0  0
 72 75  2  0  0  0
 72146  1  0  0  0
 73 79  1  0  0  0
 74 80  1  0  0  0
 74 85  2  0  0  0
 75 81  1  0  0  0
 75 85  1  0  0  0
 76 80  1  0  0  0
 76147  1  0  0  0
 76148  1  0  0  0
 76149  1  0  0  0
 77150  1  0  0  0
 77151  1  0  0  0
 77152  1  0  0  0
 77 84  1  0  0  0
 78 84  1  0  0  0
 78153  1  0  0  0
 78154  1  0  0  0
 78155  1  0  0  0
 79 82  1  0  0  0
 79156  1  0  0  0
 79157  1  0  0  0
 80158  1  0  0  0
 80159  1  0  0  0
 81160  1  0  0  0
 81161  1  0  0  0
 82 83  1  0  0  0
 82162  1  0  0  0
 82163  1  0  0  0
 83 84  1  0  0  0
 83164  1  0  0  0
 83165  1  0  0  0
M  ISO  4   1 100  68 101  81 101  84 100
M  END
> <chiral flag>
0

> <version>
0

> <s_m_source_file>
/data/baiqing/PycharmProjects/Reinvent-master-3.2/result/LINK_invent/BTK/process_docking_weight1_custom_sum_contain_oxygen_bond_distance_aromatic_linkinvent_7_9_3/rearranged_h_0076.sdf

> <i_m_source_file_index>
83

> <r_mmod_Potential_Energy-OPLS-2005>
69.7624435424805

> <r_mmod_Stretch_Energy-OPLS-2005>
106.53539276123

> <r_mmod_Bend_Energy-OPLS-2005>
185.700576782227

> <r_mmod_Torsional_Energy-OPLS-2005>
196.364715576172

> <r_mmod_Improper_Torsional_Energy-OPLS-2005>
4.3167986869812

> <r_mmod_Van_der_Waal_Energy-OPLS-2005>
150.777786254883

> <r_mmod_Electrostatic_Energy-OPLS-2005>
-435.257354736328

> <r_mmod_Solvation_Energy-OPLS-2005>
-195.856552124023

> <b_mmod_Minimization_Converged-OPLS-2005>
0

> <r_mmod_RMS_Derivative-OPLS-2005>
5.60417699813843

$$$$
83
                    3D
 Structure written by MMmdl.
163171  0  0  1  0            999 V2000
  -30.7540  -14.6809   20.4001 C   0  0  0  0  0  0
  -30.4017  -12.4080   19.4904 C   0  0  0  0  0  0
  -29.5078  -12.4664   18.2390 C   0  0  0  0  0  0
  -28.0357  -12.3013   18.6544 C   0  0  0  0  0  0
  -27.6342  -13.2436   19.8240 C   0  0  2  0  0  0
  -28.6815  -13.2620   20.9575 C   0  0  0  0  0  0
  -25.2518  -13.8218   20.5711 C   0  0  0  0  0  0
  -24.1824  -13.0453   20.9223 C   0  0  0  0  0  0
  -24.6408  -11.6938   20.8708 C   0  0  0  0  0  0
  -23.9079  -10.4303   21.0338 C   0  0  0  0  0  0
  -24.3617   -9.4227   21.9120 C   0  0  0  0  0  0
  -23.6319   -8.2251   22.0691 C   0  0  0  0  0  0
  -22.4310   -8.0252   21.3503 C   0  0  0  0  0  0
  -21.9943   -9.0214   20.4607 C   0  0  0  0  0  0
  -22.7243  -10.2115   20.3014 C   0  0  0  0  0  0
  -21.6884   -6.0728   22.5276 C   0  0  0  0  0  0
  -21.4012   -6.5618   23.8209 C   0  0  0  0  0  0
  -21.3678   -5.6760   24.9162 C   0  0  0  0  0  0
  -21.6074   -4.3029   24.7207 C   0  0  0  0  0  0
  -21.8816   -3.8136   23.4322 C   0  0  0  0  0  0
  -21.9206   -4.6955   22.3384 C   0  0  0  0  0  0
  -22.7850  -13.5227   21.1862 C   0  0  0  0  0  0
  -22.1665   -4.2142   21.0963 F   0  0  0  0  0  0
  -21.5640   -3.4506   25.7711 F   0  0  0  0  0  0
  -29.9955  -13.5336   20.3613 N   0  0  0  0  0  0
  -26.2924  -12.9453   20.3193 N   0  0  0  0  0  0
  -25.9344  -11.6582   20.5708 N   0  0  0  0  0  0
  -22.0511  -12.8261   22.0438 N   0  0  0  0  0  0
  -25.4244  -15.1934   20.4157 N   0  0  0  0  0  0
  -31.9746  -14.5790   20.2593 O   0  0  0  0  0  0
  -21.6677   -6.8856   21.4225 O   0  0  0  0  0  0
  -22.3525  -14.5517   20.6695 O   0  0  0  0  0  0
  -24.6249  -31.8613   23.2034 C   0  0  0  0  0  0
  -25.9082  -32.4810   23.8355 C   0  0  1  0  0  0
  -27.2073  -27.3008   20.1285 C   0  0  0  0  0  0
  -25.5880  -33.8615   24.2239 N   0  0  0  0  0  0
  -23.4187  -30.4823   21.5499 C   0  0  2  0  0  0
  -24.8624  -28.9367   20.1172 C   0  0  0  0  0  0
  -22.7479  -29.4595   22.4970 C   0  0  0  0  0  0
  -18.0273  -28.1398   22.8474 C   0  0  0  0  0  0
  -24.1480  -36.7311   23.2625 C   0  0  0  0  0  0
  -25.9602  -30.7873   21.3760 C   0  0  0  0  0  0
  -26.0345  -29.4124   20.7190 C   0  0  0  0  0  0
  -27.2121  -28.6050   20.7138 C   0  0  0  0  0  0
  -26.0171  -26.8916   19.4826 C   0  0  0  0  0  0
  -24.8553  -27.6813   19.4919 C   0  0  0  0  0  0
  -23.6335  -29.8194   20.1654 C   0  0  0  0  0  0
  -25.4108  -36.3106   24.0313 C   0  0  1  0  0  0
  -20.5874  -28.3676   23.1303 C   0  0  2  0  0  0
  -20.6768  -26.9401   22.5423 C   0  0  0  0  0  0
  -19.5749  -26.6385   21.5211 C   0  0  0  0  0  0
  -18.1920  -26.7946   22.1617 C   0  0  0  0  0  0
  -19.1529  -28.8855   23.2881 C   0  0  0  0  0  0
  -18.9453  -30.1458   23.8893 C   0  0  0  0  0  0
  -17.6456  -30.6608   24.0539 C   0  0  0  0  0  0
  -25.9057  -34.9484   23.5097 C   0  0  0  0  0  0
  -16.5340  -29.9101   23.6327 C   0  0  0  0  0  0
  -16.7257  -28.6515   23.0347 C   0  0  0  0  0  0
  -26.4429  -31.6666   25.0768 C   0  0  0  0  0  0
  -25.3606  -31.3893   26.1466 C   0  0  0  0  0  0
  -27.0222  -30.3062   24.6267 C   0  0  0  0  0  0
  -27.6013  -32.4378   25.7533 C   0  0  0  0  0  0
  -27.5591  -37.1785   24.8416 C   0  0  0  0  0  0
  -21.4187  -29.3036   22.3723 N   0  0  0  0  0  0
  -26.4260  -37.3812   23.9436 N   0  0  0  0  0  0
  -24.6871  -31.0603   22.1003 N   0  0  0  0  0  0
  -23.4199  -28.8145   23.3061 O   0  0  0  0  0  0
  -28.3008  -26.4226   20.1749 O   0  0  0  0  0  0
  -26.5645  -34.8940   22.4683 O   0  0  0  0  0  0
  -23.5413  -32.1408   23.7356 O   0  0  0  0  0  0
  -30.9169  -16.8074   19.0343 C   0  0  0  0  0  0
  -30.2587  -16.1397   20.1131 C   0  0  0  0  0  0
  -30.5604  -18.1312   19.0534 C   0  0  0  0  0  0
  -31.0195  -19.1990   18.1030 C   0  0  0  0  0  0
  -28.1805  -22.1988   22.1557 C   0  0  0  0  0  0
  -30.3367  -24.1995   21.1935 C   0  0  0  0  0  0
  -29.5115  -23.9149   18.8600 C   0  0  0  0  0  0
  -29.4827  -21.0556   20.2610 C   0  0  0  0  0  0
  -28.9473  -19.5639   20.5804 C   0  0  0  0  0  0
  -28.0116  -25.0120   20.5668 C   0  0  0  0  0  0
  -28.5897  -22.3386   20.6763 C   0  0  2  0  0  0
  -29.0990  -23.8506   20.3405 C   0  0  0  0  0  0
  -29.5041  -17.0784   20.7549 N   0  0  0  0  0  0
  -29.6962  -18.3200   20.1293 N   0  0  0  0  0  0
  -31.4555  -12.4335   19.2051 H   0  0  0  0  0  0
  -30.2570  -11.4570   20.0080 H   0  0  0  0  0  0
  -29.7904  -11.6827   17.5350 H   0  0  0  0  0  0
  -29.6517  -13.4143   17.7186 H   0  0  0  0  0  0
  -27.9169  -11.2617   18.9598 H   0  0  0  0  0  0
  -27.3714  -12.4377   17.7996 H   0  0  0  0  0  0
  -27.6059  -14.2490   19.4064 H   0  0  0  0  0  0
  -28.6920  -12.3074   21.4830 H   0  0  0  0  0  0
  -28.4306  -14.0219   21.7007 H   0  0  0  0  0  0
  -25.2730   -9.5750   22.4719 H   0  0  0  0  0  0
  -24.0028   -7.4668   22.7437 H   0  0  0  0  0  0
  -21.0863   -8.8734   19.8946 H   0  0  0  0  0  0
  -22.3641  -10.9628   19.6144 H   0  0  0  0  0  0
  -21.1976   -7.6130   23.9738 H   0  0  0  0  0  0
  -21.1514   -6.0467   25.9084 H   0  0  0  0  0  0
  -22.0584   -2.7604   23.2836 H   0  0  0  0  0  0
  -22.4102  -11.9943   22.4867 H   0  0  0  0  0  0
  -21.1089  -13.1202   22.2494 H   0  0  0  0  0  0
  -24.6684  -15.8529   20.5577 H   0  0  0  0  0  0
  -26.2919  -15.6399   20.1440 H   0  0  0  0  0  0
  -26.7164  -32.5463   23.1117 H   0  0  0  0  0  0
  -24.9893  -33.9788   25.0276 H   0  0  0  0  0  0
  -22.7088  -31.3014   21.4095 H   0  0  0  0  0  0
  -23.3785  -35.9592   23.3203 H   0  0  0  0  0  0
  -24.3541  -36.9038   22.2051 H   0  0  0  0  0  0
  -23.7196  -37.6467   23.6707 H   0  0  0  0  0  0
  -26.0848  -31.5496   20.6060 H   0  0  0  0  0  0
  -26.8423  -30.8392   22.0039 H   0  0  0  0  0  0
  -28.1129  -28.9593   21.1953 H   0  0  0  0  0  0
  -25.9595  -25.9479   18.9644 H   0  0  0  0  0  0
  -23.9532  -27.3165   19.0190 H   0  0  0  0  0  0
  -23.7589  -30.5958   19.4098 H   0  0  0  0  0  0
  -22.7510  -29.2526   19.8630 H   0  0  0  0  0  0
  -25.1306  -36.1911   25.0796 H   0  0  0  0  0  0
  -20.9928  -28.3227   24.1438 H   0  0  0  0  0  0
  -20.5655  -26.2265   23.3609 H   0  0  0  0  0  0
  -21.6635  -26.7441   22.1216 H   0  0  0  0  0  0
  -19.6901  -25.6281   21.1270 H   0  0  0  0  0  0
  -19.6744  -27.3161   20.6718 H   0  0  0  0  0  0
  -17.4205  -26.6676   21.4012 H   0  0  0  0  0  0
  -18.0322  -26.0097   22.9024 H   0  0  0  0  0  0
  -19.7931  -30.7259   24.2283 H   0  0  0  0  0  0
  -17.5017  -31.6296   24.5140 H   0  0  0  0  0  0
  -15.5340  -30.2996   23.7693 H   0  0  0  0  0  0
  -15.8645  -28.0839   22.7081 H   0  0  0  0  0  0
  -24.5668  -30.7406   25.7749 H   0  0  0  0  0  0
  -24.8920  -32.3117   26.4919 H   0  0  0  0  0  0
  -25.7810  -30.8970   27.0240 H   0  0  0  0  0  0
  -26.2809  -29.6899   24.1167 H   0  0  0  0  0  0
  -27.3715  -29.7273   25.4829 H   0  0  0  0  0  0
  -27.8769  -30.4315   23.9617 H   0  0  0  0  0  0
  -27.2632  -33.3636   26.2198 H   0  0  0  0  0  0
  -28.3771  -32.7022   25.0339 H   0  0  0  0  0  0
  -28.0720  -31.8444   26.5377 H   0  0  0  0  0  0
  -28.2543  -38.0154   24.7598 H   0  0  0  0  0  0
  -28.1176  -36.2712   24.6072 H   0  0  0  0  0  0
  -27.2326  -37.1207   25.8810 H   0  0  0  0  0  0
  -20.9356  -29.8739   21.6930 H   0  0  0  0  0  0
  -26.0149  -38.2858   24.1562 H   0  0  0  0  0  0
  -31.6271  -16.3689   18.3409 H   0  0  0  0  0  0
  -31.5987  -18.7782   17.2775 H   0  0  0  0  0  0
  -31.6663  -19.9286   18.5946 H   0  0  0  0  0  0
  -30.1755  -19.7076   17.6390 H   0  0  0  0  0  0
  -27.5260  -21.3393   22.2986 H   0  0  0  0  0  0
  -27.6295  -23.0596   22.5268 H   0  0  0  0  0  0
  -29.0542  -22.0635   22.7949 H   0  0  0  0  0  0
  -30.5988  -25.2538   21.0835 H   0  0  0  0  0  0
  -31.2060  -23.6067   20.9034 H   0  0  0  0  0  0
  -30.1673  -24.0336   22.2559 H   0  0  0  0  0  0
  -29.7952  -24.9286   18.5727 H   0  0  0  0  0  0
  -28.7009  -23.6040   18.2021 H   0  0  0  0  0  0
  -30.3682  -23.2750   18.6558 H   0  0  0  0  0  0
  -29.6236  -21.1346   19.1873 H   0  0  0  0  0  0
  -30.4764  -21.1571   20.6973 H   0  0  0  0  0  0
  -27.9361  -19.4758   20.1803 H   0  0  0  0  0  0
  -28.8356  -19.4785   21.6617 H   0  0  0  0  0  0
  -27.7758  -25.0635   21.6291 H   0  0  0  0  0  0
  -27.0922  -24.6478   20.1139 H   0  0  0  0  0  0
  -27.6664  -22.2290   20.1043 H   0  0  0  0  0  0
  1 25  1  0  0  0
  1 30  2  0  0  0
  1 72  1  0  0  0
  2  3  1  0  0  0
  2 25  1  0  0  0
  2 85  1  0  0  0
  2 86  1  0  0  0
  3  4  1  0  0  0
  3 87  1  0  0  0
  3 88  1  0  0  0
  4  5  1  0  0  0
  4 89  1  0  0  0
  4 90  1  0  0  0
  5  6  1  0  0  0
  5 26  1  0  0  0
  5 91  1  0  0  0
  6 25  1  0  0  0
  6 92  1  0  0  0
  6 93  1  0  0  0
  7  8  2  0  0  0
  7 26  1  0  0  0
  7 29  1  0  0  0
  8  9  1  0  0  0
  8 22  1  0  0  0
  9 10  1  0  0  0
  9 27  2  0  0  0
 10 11  2  0  0  0
 10 15  1  0  0  0
 11 12  1  0  0  0
 11 94  1  0  0  0
 12 13  2  0  0  0
 12 95  1  0  0  0
 13 14  1  0  0  0
 13 31  1  0  0  0
 14 15  2  0  0  0
 14 96  1  0  0  0
 15 97  1  0  0  0
 16 17  2  0  0  0
 16 21  1  0  0  0
 16 31  1  0  0  0
 17 18  1  0  0  0
 17 98  1  0  0  0
 18 19  2  0  0  0
 18 99  1  0  0  0
 19 20  1  0  0  0
 19 24  1  0  0  0
 20 21  2  0  0  0
 20100  1  0  0  0
 21 23  1  0  0  0
 22 28  1  0  0  0
 22 32  2  0  0  0
 26 27  1  0  0  0
 28101  1  0  0  0
 28102  1  0  0  0
 29103  1  0  0  0
 29104  1  0  0  0
 33 34  1  0  0  0
 33 66  1  0  0  0
 33 70  2  0  0  0
 34 36  1  0  0  0
 34 59  1  0  0  0
 34105  1  0  0  0
 35 44  2  0  0  0
 35 45  1  0  0  0
 35 68  1  0  0  0
 36 56  1  0  0  0
 36106  1  0  0  0
 37 39  1  0  0  0
 37 47  1  0  0  0
 37 66  1  0  0  0
 37107  1  0  0  0
 38 43  2  0  0  0
 38 46  1  0  0  0
 38 47  1  0  0  0
 39 64  1  0  0  0
 39 67  2  0  0  0
 40 52  1  0  0  0
 40 53  2  0  0  0
 40 58  1  0  0  0
 41108  1  0  0  0
 41109  1  0  0  0
 41110  1  0  0  0
 41 48  1  0  0  0
 42 43  1  0  0  0
 42 66  1  0  0  0
 42111  1  0  0  0
 42112  1  0  0  0
 43 44  1  0  0  0
 44113  1  0  0  0
 45 46  2  0  0  0
 45114  1  0  0  0
 46115  1  0  0  0
 47116  1  0  0  0
 47117  1  0  0  0
 48 56  1  0  0  0
 48 65  1  0  0  0
 48118  1  0  0  0
 49 50  1  0  0  0
 49 53  1  0  0  0
 49 64  1  0  0  0
 49119  1  0  0  0
 50 51  1  0  0  0
 50120  1  0  0  0
 50121  1  0  0  0
 51 52  1  0  0  0
 51122  1  0  0  0
 51123  1  0  0  0
 52124  1  0  0  0
 52125  1  0  0  0
 53 54  1  0  0  0
 54 55  2  0  0  0
 54126  1  0  0  0
 55 57  1  0  0  0
 55127  1  0  0  0
 56 69  2  0  0  0
 57 58  2  0  0  0
 57128  1  0  0  0
 58129  1  0  0  0
 59 60  1  0  0  0
 59 61  1  0  0  0
 59 62  1  0  0  0
 60130  1  0  0  0
 60131  1  0  0  0
 60132  1  0  0  0
 61133  1  0  0  0
 61134  1  0  0  0
 61135  1  0  0  0
 62136  1  0  0  0
 62137  1  0  0  0
 62138  1  0  0  0
 63 65  1  0  0  0
 63139  1  0  0  0
 63140  1  0  0  0
 63141  1  0  0  0
 64142  1  0  0  0
 65143  1  0  0  0
 68 80  1  0  0  0
 71 72  1  0  0  0
 71 73  2  0  0  0
 71144  1  0  0  0
 72 83  2  0  0  0
 73 74  1  0  0  0
 73 84  1  0  0  0
 74145  1  0  0  0
 74146  1  0  0  0
 74147  1  0  0  0
 75148  1  0  0  0
 75149  1  0  0  0
 75150  1  0  0  0
 75 81  1  0  0  0
 76151  1  0  0  0
 76152  1  0  0  0
 76153  1  0  0  0
 76 82  1  0  0  0
 77 82  1  0  0  0
 77154  1  0  0  0
 77155  1  0  0  0
 77156  1  0  0  0
 78 79  1  0  0  0
 78 81  1  0  0  0
 78157  1  0  0  0
 78158  1  0  0  0
 79 84  1  0  0  0
 79159  1  0  0  0
 79160  1  0  0  0
 80 82  1  0  0  0
 80161  1  0  0  0
 80162  1  0  0  0
 81 82  1  0  0  0
 81163  1  0  0  0
 83 84  1  0  0  0
M  ISO  4   1 100  68 101  72 100  80 101
M  END
> <chiral flag>
0

> <version>
0

> <s_m_source_file>
/data/baiqing/PycharmProjects/Reinvent-master-3.2/result/LINK_invent/BTK/process_docking_weight1_custom_sum_contain_oxygen_bond_distance_aromatic_linkinvent_7_9_3/rearranged_h_0076.sdf

> <i_m_source_file_index>
84

> <r_mmod_Potential_Energy-OPLS-2005>
330.960479736328

> <r_mmod_Stretch_Energy-OPLS-2005>
110.079299926758

> <r_mmod_Bend_Energy-OPLS-2005>
187.982620239258

> <r_mmod_Torsional_Energy-OPLS-2005>
264.920867919922

> <r_mmod_Improper_Torsional_Energy-OPLS-2005>
15.2155532836914

> <r_mmod_Van_der_Waal_Energy-OPLS-2005>
123.85188293457

> <r_mmod_Electrostatic_Energy-OPLS-2005>
-271.228973388672

> <r_mmod_Solvation_Energy-OPLS-2005>
-184.626693725586

> <b_mmod_Minimization_Converged-OPLS-2005>
0

> <r_mmod_RMS_Derivative-OPLS-2005>
5.61628389358521

$$$$
84
                    3D
 Structure written by MMmdl.
173181  0  0  1  0            999 V2000
  -30.6203  -14.5669   20.5377 C   0  0  0  0  0  0
  -30.4258  -12.3411   19.4545 C   0  0  0  0  0  0
  -29.5056  -12.4843   18.2246 C   0  0  0  0  0  0
  -28.0260  -12.3240   18.6294 C   0  0  0  0  0  0
  -27.6493  -13.1966   19.8570 C   0  0  2  0  0  0
  -28.6829  -13.0264   20.9905 C   0  0  0  0  0  0
  -25.2563  -13.8113   20.5636 C   0  0  0  0  0  0
  -24.1802  -13.0405   20.9182 C   0  0  0  0  0  0
  -24.6341  -11.6883   20.8716 C   0  0  0  0  0  0
  -23.8991  -10.4281   21.0397 C   0  0  0  0  0  0
  -24.3577   -9.4226   21.9175 C   0  0  0  0  0  0
  -23.6289   -8.2246   22.0739 C   0  0  0  0  0  0
  -22.4246   -8.0269   21.3540 C   0  0  0  0  0  0
  -21.9874   -9.0231   20.4625 C   0  0  0  0  0  0
  -22.7183  -10.2132   20.3048 C   0  0  0  0  0  0
  -21.6850   -6.0732   22.5294 C   0  0  0  0  0  0
  -21.4011   -6.5637   23.8224 C   0  0  0  0  0  0
  -21.3658   -5.6790   24.9183 C   0  0  0  0  0  0
  -21.6039   -4.3046   24.7232 C   0  0  0  0  0  0
  -21.8821   -3.8149   23.4345 C   0  0  0  0  0  0
  -21.9188   -4.6966   22.3411 C   0  0  0  0  0  0
  -22.7840  -13.5263   21.1870 C   0  0  0  0  0  0
  -22.1661   -4.2145   21.0985 F   0  0  0  0  0  0
  -21.5631   -3.4536   25.7742 F   0  0  0  0  0  0
  -30.0038  -13.3536   20.4397 N   0  0  0  0  0  0
  -26.2919  -12.9262   20.3231 N   0  0  0  0  0  0
  -25.9250  -11.6416   20.5706 N   0  0  0  0  0  0
  -22.0479  -12.8253   22.0421 N   0  0  0  0  0  0
  -25.4304  -15.1839   20.4061 N   0  0  0  0  0  0
  -31.7917  -14.7327   20.1792 O   0  0  0  0  0  0
  -21.6625   -6.8861   21.4240 O   0  0  0  0  0  0
  -22.3561  -14.5576   20.6732 O   0  0  0  0  0  0
  -24.6173  -31.8745   23.2070 C   0  0  0  0  0  0
  -25.9067  -32.4842   23.8327 C   0  0  1  0  0  0
  -27.2117  -27.3725   20.1027 C   0  0  0  0  0  0
  -25.5916  -33.8628   24.2358 N   0  0  0  0  0  0
  -23.3999  -30.5010   21.5438 C   0  0  2  0  0  0
  -24.8502  -28.9632   20.0953 C   0  0  0  0  0  0
  -22.7401  -29.4761   22.4928 C   0  0  0  0  0  0
  -18.0278  -28.1415   22.8489 C   0  0  0  0  0  0
  -24.1460  -36.7320   23.2603 C   0  0  0  0  0  0
  -25.9335  -30.8118   21.3708 C   0  0  0  0  0  0
  -26.0066  -29.4398   20.7231 C   0  0  0  0  0  0
  -27.1803  -28.6434   20.7475 C   0  0  0  0  0  0
  -26.0493  -26.9584   19.4334 C   0  0  0  0  0  0
  -24.8645  -27.7186   19.4449 C   0  0  0  0  0  0
  -23.6157  -29.8319   20.1550 C   0  0  0  0  0  0
  -25.4105  -36.3218   24.0343 C   0  0  1  0  0  0
  -20.5864  -28.3725   23.1219 C   0  0  2  0  0  0
  -20.6654  -26.9452   22.5241 C   0  0  0  0  0  0
  -19.5575  -26.6516   21.5030 C   0  0  0  0  0  0
  -18.1876  -26.7944   22.1619 C   0  0  0  0  0  0
  -19.1553  -28.8854   23.2876 C   0  0  0  0  0  0
  -18.9455  -30.1428   23.8995 C   0  0  0  0  0  0
  -17.6491  -30.6601   24.0602 C   0  0  0  0  0  0
  -25.8993  -34.9502   23.5182 C   0  0  0  0  0  0
  -16.5379  -29.9139   23.6348 C   0  0  0  0  0  0
  -16.7264  -28.6562   23.0345 C   0  0  0  0  0  0
  -26.4486  -31.6568   25.0628 C   0  0  0  0  0  0
  -25.3754  -31.3674   26.1400 C   0  0  0  0  0  0
  -27.0220  -30.3016   24.5889 C   0  0  0  0  0  0
  -27.6066  -32.4227   25.7426 C   0  0  0  0  0  0
  -27.5605  -37.1866   24.8483 C   0  0  0  0  0  0
  -21.4116  -29.3171   22.3731 N   0  0  0  0  0  0
  -26.4335  -37.3906   23.9424 N   0  0  0  0  0  0
  -24.6686  -31.0774   22.0970 N   0  0  0  0  0  0
  -23.4156  -28.8307   23.2950 O   0  0  0  0  0  0
  -28.3307  -26.5596   20.2420 O   0  0  0  0  0  0
  -26.5530  -34.8982   22.4745 O   0  0  0  0  0  0
  -23.5355  -32.1534   23.7472 O   0  0  0  0  0  0
  -29.2116  -19.9617   22.7823 C   0  0  0  0  0  0
  -29.1414  -22.2275   21.9329 C   0  0  0  0  0  0
  -29.3033  -21.3532   23.0221 C   0  0  0  0  0  0
  -28.9704  -19.4788   21.4779 C   0  0  0  0  0  0
  -28.8648  -21.7062   20.6648 C   0  0  0  0  0  0
  -28.2113  -22.1543   25.1459 C   0  0  0  0  0  0
  -30.3761  -23.2134   24.4052 C   0  0  0  0  0  0
  -30.5265  -17.5366   19.4097 C   0  0  0  0  0  0
  -26.7410  -23.8555   20.7041 C   0  0  0  0  0  0
  -26.9325  -23.9397   18.1806 C   0  0  0  0  0  0
  -28.8070  -17.9447   21.2335 C   0  0  0  0  0  0
  -28.6982  -22.6594   19.4543 C   0  0  0  0  0  0
  -28.6085  -25.2833   19.5619 C   0  0  0  0  0  0
  -29.5384  -21.9148   24.4156 C   0  0  0  0  0  0
  -30.0636  -17.0944   20.8110 C   0  0  1  0  0  0
  -27.7394  -23.9447   19.5202 C   0  0  0  0  0  0
  -28.7932  -20.3569   20.4440 N   0  0  0  0  0  0
  -29.8004  -15.6139   20.8479 N   0  0  0  0  0  0
  -31.4719  -12.4491   19.1713 H   0  0  0  0  0  0
  -30.3344  -11.3441   19.8896 H   0  0  0  0  0  0
  -29.7750  -11.7508   17.4641 H   0  0  0  0  0  0
  -29.6535  -13.4643   17.7710 H   0  0  0  0  0  0
  -27.8570  -11.2707   18.8623 H   0  0  0  0  0  0
  -27.3767  -12.5488   17.7826 H   0  0  0  0  0  0
  -27.6777  -14.2318   19.5159 H   0  0  0  0  0  0
  -28.6805  -11.9950   21.3507 H   0  0  0  0  0  0
  -28.4335  -13.6452   21.8548 H   0  0  0  0  0  0
  -25.2723   -9.5724   22.4739 H   0  0  0  0  0  0
  -24.0003   -7.4632   22.7465 H   0  0  0  0  0  0
  -21.0802   -8.8725   19.8944 H   0  0  0  0  0  0
  -22.3614  -10.9648   19.6153 H   0  0  0  0  0  0
  -21.1997   -7.6143   23.9728 H   0  0  0  0  0  0
  -21.1482   -6.0513   25.9082 H   0  0  0  0  0  0
  -22.0597   -2.7605   23.2850 H   0  0  0  0  0  0
  -22.4071  -11.9898   22.4805 H   0  0  0  0  0  0
  -21.1103  -13.1291   22.2615 H   0  0  0  0  0  0
  -24.6599  -15.8345   20.5089 H   0  0  0  0  0  0
  -26.2692  -15.6202   20.0461 H   0  0  0  0  0  0
  -26.7074  -32.5656   23.1006 H   0  0  0  0  0  0
  -25.0228  -33.9632   25.0630 H   0  0  0  0  0  0
  -22.6823  -31.3104   21.3980 H   0  0  0  0  0  0
  -23.3825  -35.9537   23.3359 H   0  0  0  0  0  0
  -24.3462  -36.8883   22.1974 H   0  0  0  0  0  0
  -23.7060  -37.6492   23.6549 H   0  0  0  0  0  0
  -26.0364  -31.5554   20.5834 H   0  0  0  0  0  0
  -26.8211  -30.8848   21.9858 H   0  0  0  0  0  0
  -28.0451  -28.9772   21.3056 H   0  0  0  0  0  0
  -26.0132  -26.0234   18.9312 H   0  0  0  0  0  0
  -23.9797  -27.3432   18.9429 H   0  0  0  0  0  0
  -23.6992  -30.6025   19.3932 H   0  0  0  0  0  0
  -22.7510  -29.2278   19.8721 H   0  0  0  0  0  0
  -25.1303  -36.2067   25.0817 H   0  0  0  0  0  0
  -20.9956  -28.3208   24.1316 H   0  0  0  0  0  0
  -20.5381  -26.2299   23.3381 H   0  0  0  0  0  0
  -21.6475  -26.7378   22.0924 H   0  0  0  0  0  0
  -19.6640  -25.6484   21.0905 H   0  0  0  0  0  0
  -19.6421  -27.3469   20.6641 H   0  0  0  0  0  0
  -17.4057  -26.6554   21.4162 H   0  0  0  0  0  0
  -18.0493  -26.0056   22.9027 H   0  0  0  0  0  0
  -19.7921  -30.7251   24.2408 H   0  0  0  0  0  0
  -17.5115  -31.6241   24.5271 H   0  0  0  0  0  0
  -15.5406  -30.3109   23.7741 H   0  0  0  0  0  0
  -15.8656  -28.0941   22.7023 H   0  0  0  0  0  0
  -24.6014  -30.6819   25.7955 H   0  0  0  0  0  0
  -24.8682  -32.2794   26.4616 H   0  0  0  0  0  0
  -25.8180  -30.9177   27.0290 H   0  0  0  0  0  0
  -27.7873  -30.4389   23.8295 H   0  0  0  0  0  0
  -26.2475  -29.6599   24.1636 H   0  0  0  0  0  0
  -27.4937  -29.7413   25.3993 H   0  0  0  0  0  0
  -27.2622  -33.3443   26.2099 H   0  0  0  0  0  0
  -28.3811  -32.6885   25.0243 H   0  0  0  0  0  0
  -28.0784  -31.8295   26.5266 H   0  0  0  0  0  0
  -28.2787  -38.0078   24.7648 H   0  0  0  0  0  0
  -28.0965  -36.2638   24.6203 H   0  0  0  0  0  0
  -27.2307  -37.1434   25.8896 H   0  0  0  0  0  0
  -20.9259  -29.9181   21.7199 H   0  0  0  0  0  0
  -26.0278  -38.3022   24.1381 H   0  0  0  0  0  0
  -29.3173  -19.2610   23.5957 H   0  0  0  0  0  0
  -29.1822  -23.2982   22.0599 H   0  0  0  0  0  0
  -27.6123  -21.2434   25.1968 H   0  0  0  0  0  0
  -27.6170  -22.9173   24.6472 H   0  0  0  0  0  0
  -28.3920  -22.4977   26.1660 H   0  0  0  0  0  0
  -31.2853  -23.1015   23.8117 H   0  0  0  0  0  0
  -30.6472  -23.4740   25.4255 H   0  0  0  0  0  0
  -29.8301  -24.0728   24.0082 H   0  0  0  0  0  0
  -30.7122  -18.6120   19.3813 H   0  0  0  0  0  0
  -29.7616  -17.3330   18.6584 H   0  0  0  0  0  0
  -31.4506  -17.0400   19.1074 H   0  0  0  0  0  0
  -25.9056  -24.5402   20.5897 H   0  0  0  0  0  0
  -27.1916  -24.0746   21.6682 H   0  0  0  0  0  0
  -26.2861  -22.8656   20.7713 H   0  0  0  0  0  0
  -27.0830  -24.8556   17.6079 H   0  0  0  0  0  0
  -25.8604  -23.8272   18.3441 H   0  0  0  0  0  0
  -27.2053  -23.1528   17.4755 H   0  0  0  0  0  0
  -28.4089  -17.5152   22.1536 H   0  0  0  0  0  0
  -28.0203  -17.7878   20.4974 H   0  0  0  0  0  0
  -29.6906  -22.9452   19.0974 H   0  0  0  0  0  0
  -28.3669  -21.9742   18.6769 H   0  0  0  0  0  0
  -28.9890  -25.5063   18.5641 H   0  0  0  0  0  0
  -29.5028  -24.9892   20.1100 H   0  0  0  0  0  0
  -30.0919  -21.1654   24.9817 H   0  0  0  0  0  0
  -30.8583  -17.2967   21.5297 H   0  0  0  0  0  0
  -28.8513  -15.3479   21.0568 H   0  0  0  0  0  0
  1 25  1  0  0  0
  1 30  2  0  0  0
  1 88  1  0  0  0
  2  3  1  0  0  0
  2 25  1  0  0  0
  2 89  1  0  0  0
  2 90  1  0  0  0
  3  4  1  0  0  0
  3 91  1  0  0  0
  3 92  1  0  0  0
  4  5  1  0  0  0
  4 93  1  0  0  0
  4 94  1  0  0  0
  5  6  1  0  0  0
  5 26  1  0  0  0
  5 95  1  0  0  0
  6 25  1  0  0  0
  6 96  1  0  0  0
  6 97  1  0  0  0
  7  8  2  0  0  0
  7 26  1  0  0  0
  7 29  1  0  0  0
  8  9  1  0  0  0
  8 22  1  0  0  0
  9 10  1  0  0  0
  9 27  2  0  0  0
 10 11  2  0  0  0
 10 15  1  0  0  0
 11 12  1  0  0  0
 11 98  1  0  0  0
 12 13  2  0  0  0
 12 99  1  0  0  0
 13 14  1  0  0  0
 13 31  1  0  0  0
 14 15  2  0  0  0
 14100  1  0  0  0
 15101  1  0  0  0
 16 17  2  0  0  0
 16 21  1  0  0  0
 16 31  1  0  0  0
 17 18  1  0  0  0
 17102  1  0  0  0
 18 19  2  0  0  0
 18103  1  0  0  0
 19 20  1  0  0  0
 19 24  1  0  0  0
 20 21  2  0  0  0
 20104  1  0  0  0
 21 23  1  0  0  0
 22 28  1  0  0  0
 22 32  2  0  0  0
 26 27  1  0  0  0
 28105  1  0  0  0
 28106  1  0  0  0
 29107  1  0  0  0
 29108  1  0  0  0
 33 34  1  0  0  0
 33 66  1  0  0  0
 33 70  2  0  0  0
 34 36  1  0  0  0
 34 59  1  0  0  0
 34109  1  0  0  0
 35 44  2  0  0  0
 35 45  1  0  0  0
 35 68  1  0  0  0
 36 56  1  0  0  0
 36110  1  0  0  0
 37 39  1  0  0  0
 37 47  1  0  0  0
 37 66  1  0  0  0
 37111  1  0  0  0
 38 43  2  0  0  0
 38 46  1  0  0  0
 38 47  1  0  0  0
 39 64  1  0  0  0
 39 67  2  0  0  0
 40 52  1  0  0  0
 40 53  2  0  0  0
 40 58  1  0  0  0
 41112  1  0  0  0
 41113  1  0  0  0
 41114  1  0  0  0
 41 48  1  0  0  0
 42 43  1  0  0  0
 42 66  1  0  0  0
 42115  1  0  0  0
 42116  1  0  0  0
 43 44  1  0  0  0
 44117  1  0  0  0
 45 46  2  0  0  0
 45118  1  0  0  0
 46119  1  0  0  0
 47120  1  0  0  0
 47121  1  0  0  0
 48 56  1  0  0  0
 48 65  1  0  0  0
 48122  1  0  0  0
 49 50  1  0  0  0
 49 53  1  0  0  0
 49 64  1  0  0  0
 49123  1  0  0  0
 50 51  1  0  0  0
 50124  1  0  0  0
 50125  1  0  0  0
 51 52  1  0  0  0
 51126  1  0  0  0
 51127  1  0  0  0
 52128  1  0  0  0
 52129  1  0  0  0
 53 54  1  0  0  0
 54 55  2  0  0  0
 54130  1  0  0  0
 55 57  1  0  0  0
 55131  1  0  0  0
 56 69  2  0  0  0
 57 58  2  0  0  0
 57132  1  0  0  0
 58133  1  0  0  0
 59 60  1  0  0  0
 59 61  1  0  0  0
 59 62  1  0  0  0
 60134  1  0  0  0
 60135  1  0  0  0
 60136  1  0  0  0
 61137  1  0  0  0
 61138  1  0  0  0
 61139  1  0  0  0
 62140  1  0  0  0
 62141  1  0  0  0
 62142  1  0  0  0
 63 65  1  0  0  0
 63143  1  0  0  0
 63144  1  0  0  0
 63145  1  0  0  0
 64146  1  0  0  0
 65147  1  0  0  0
 68 83  1  0  0  0
 71 73  2  0  0  0
 71 74  1  0  0  0
 71148  1  0  0  0
 72 73  1  0  0  0
 72 75  2  0  0  0
 72149  1  0  0  0
 73 84  1  0  0  0
 74 81  1  0  0  0
 74 87  2  0  0  0
 75 82  1  0  0  0
 75 87  1  0  0  0
 76150  1  0  0  0
 76151  1  0  0  0
 76152  1  0  0  0
 76 84  1  0  0  0
 77 84  1  0  0  0
 77153  1  0  0  0
 77154  1  0  0  0
 77155  1  0  0  0
 78156  1  0  0  0
 78157  1  0  0  0
 78158  1  0  0  0
 78 85  1  0  0  0
 79159  1  0  0  0
 79160  1  0  0  0
 79161  1  0  0  0
 79 86  1  0  0  0
 80 86  1  0  0  0
 80162  1  0  0  0
 80163  1  0  0  0
 80164  1  0  0  0
 81 85  1  0  0  0
 81165  1  0  0  0
 81166  1  0  0  0
 82 86  1  0  0  0
 82167  1  0  0  0
 82168  1  0  0  0
 83 86  1  0  0  0
 83169  1  0  0  0
 83170  1  0  0  0
 84171  1  0  0  0
 85 88  1  0  0  0
 85172  1  0  0  0
 88173  1  0  0  0
M  ISO  4   1 100  68 101  83 101  88 100
M  END
> <chiral flag>
0

> <version>
0

> <s_m_source_file>
/data/baiqing/PycharmProjects/Reinvent-master-3.2/result/LINK_invent/BTK/process_docking_weight1_custom_sum_contain_oxygen_bond_distance_aromatic_linkinvent_7_9_3/rearranged_h_0076.sdf

> <i_m_source_file_index>
85

> <r_mmod_Potential_Energy-OPLS-2005>
-11.0244846343994

> <r_mmod_Stretch_Energy-OPLS-2005>
71.4021301269531

> <r_mmod_Bend_Energy-OPLS-2005>
183.43376159668

> <r_mmod_Torsional_Energy-OPLS-2005>
208.504318237305

> <r_mmod_Improper_Torsional_Energy-OPLS-2005>
5.50118589401245

> <r_mmod_Van_der_Waal_Energy-OPLS-2005>
165.784149169922

> <r_mmod_Electrostatic_Energy-OPLS-2005>
-473.861358642578

> <r_mmod_Solvation_Energy-OPLS-2005>
-207.692916870117

> <b_mmod_Minimization_Converged-OPLS-2005>
0

> <r_mmod_RMS_Derivative-OPLS-2005>
9.36008834838867

$$$$
85
                    3D
 Structure written by MMmdl.
163171  0  0  1  0            999 V2000
  -30.5933  -14.7573   20.4709 C   0  0  0  0  0  0
  -30.4370  -12.4672   19.4612 C   0  0  0  0  0  0
  -29.5111  -12.5113   18.2265 C   0  0  0  0  0  0
  -28.0378  -12.3272   18.6425 C   0  0  0  0  0  0
  -27.6399  -13.2273   19.8434 C   0  0  2  0  0  0
  -28.6856  -13.1607   20.9757 C   0  0  0  0  0  0
  -25.2507  -13.8161   20.5631 C   0  0  0  0  0  0
  -24.1805  -13.0423   20.9195 C   0  0  0  0  0  0
  -24.6395  -11.6904   20.8747 C   0  0  0  0  0  0
  -23.9074  -10.4288   21.0404 C   0  0  0  0  0  0
  -24.3633   -9.4200   21.9174 C   0  0  0  0  0  0
  -23.6308   -8.2237   22.0753 C   0  0  0  0  0  0
  -22.4283   -8.0282   21.3547 C   0  0  0  0  0  0
  -21.9917   -9.0250   20.4642 C   0  0  0  0  0  0
  -22.7248  -10.2129   20.3047 C   0  0  0  0  0  0
  -21.6855   -6.0735   22.5285 C   0  0  0  0  0  0
  -21.4012   -6.5641   23.8214 C   0  0  0  0  0  0
  -21.3661   -5.6791   24.9178 C   0  0  0  0  0  0
  -21.6044   -4.3056   24.7229 C   0  0  0  0  0  0
  -21.8820   -3.8150   23.4349 C   0  0  0  0  0  0
  -21.9194   -4.6962   22.3404 C   0  0  0  0  0  0
  -22.7832  -13.5220   21.1867 C   0  0  0  0  0  0
  -22.1657   -4.2145   21.0979 F   0  0  0  0  0  0
  -21.5628   -3.4541   25.7741 F   0  0  0  0  0  0
  -29.9804  -13.5262   20.3884 N   0  0  0  0  0  0
  -26.2936  -12.9363   20.3245 N   0  0  0  0  0  0
  -25.9327  -11.6516   20.5751 N   0  0  0  0  0  0
  -22.0467  -12.8220   22.0413 N   0  0  0  0  0  0
  -25.4156  -15.1871   20.3963 N   0  0  0  0  0  0
  -31.7899  -14.8603   20.1857 O   0  0  0  0  0  0
  -21.6646   -6.8882   21.4246 O   0  0  0  0  0  0
  -22.3526  -14.5531   20.6720 O   0  0  0  0  0  0
  -24.6311  -31.8540   23.1955 C   0  0  0  0  0  0
  -25.9137  -32.4747   23.8307 C   0  0  1  0  0  0
  -27.2250  -27.2588   20.1420 C   0  0  0  0  0  0
  -25.5930  -33.8549   24.2237 N   0  0  0  0  0  0
  -23.4280  -30.4729   21.5394 C   0  0  2  0  0  0
  -24.8760  -28.9087   20.1175 C   0  0  0  0  0  0
  -22.7494  -29.4593   22.4921 C   0  0  0  0  0  0
  -18.0288  -28.1385   22.8481 C   0  0  0  0  0  0
  -24.1490  -36.7278   23.2639 C   0  0  0  0  0  0
  -25.9721  -30.7670   21.3730 C   0  0  0  0  0  0
  -26.0470  -29.3861   20.7204 C   0  0  0  0  0  0
  -27.2273  -28.5763   20.7126 C   0  0  0  0  0  0
  -26.0311  -26.8361   19.5252 C   0  0  0  0  0  0
  -24.8726  -27.6417   19.5090 C   0  0  0  0  0  0
  -23.6470  -29.7979   20.1590 C   0  0  0  0  0  0
  -25.4117  -36.3063   24.0323 C   0  0  1  0  0  0
  -20.5890  -28.3699   23.1273 C   0  0  2  0  0  0
  -20.6778  -26.9417   22.5413 C   0  0  0  0  0  0
  -19.5756  -26.6381   21.5214 C   0  0  0  0  0  0
  -18.1932  -26.7925   22.1622 C   0  0  0  0  0  0
  -19.1540  -28.8860   23.2871 C   0  0  0  0  0  0
  -18.9463  -30.1459   23.8891 C   0  0  0  0  0  0
  -17.6464  -30.6590   24.0558 C   0  0  0  0  0  0
  -25.9062  -34.9435   23.5085 C   0  0  0  0  0  0
  -16.5353  -29.9086   23.6331 C   0  0  0  0  0  0
  -16.7272  -28.6501   23.0354 C   0  0  0  0  0  0
  -26.4504  -31.6574   25.0702 C   0  0  0  0  0  0
  -25.3726  -31.3737   26.1423 C   0  0  0  0  0  0
  -27.0350  -30.2984   24.6201 C   0  0  0  0  0  0
  -27.6051  -32.4321   25.7482 C   0  0  0  0  0  0
  -27.5583  -37.1787   24.8458 C   0  0  0  0  0  0
  -21.4202  -29.3043   22.3661 N   0  0  0  0  0  0
  -26.4286  -37.3770   23.9417 N   0  0  0  0  0  0
  -24.6960  -31.0498   22.0927 N   0  0  0  0  0  0
  -23.4189  -28.8151   23.3037 O   0  0  0  0  0  0
  -28.3411  -26.3964   20.1263 O   0  0  0  0  0  0
  -26.5639  -34.8915   22.4659 O   0  0  0  0  0  0
  -23.5462  -32.1363   23.7256 O   0  0  0  0  0  0
  -26.9064  -21.4300   21.1298 C   0  0  0  0  0  0
  -28.1812  -21.0304   20.6865 C   0  0  0  0  0  0
  -28.3924  -19.5685   20.6701 C   0  0  0  0  0  0
  -26.2057  -19.2918   21.3900 C   0  0  0  0  0  0
  -25.1046  -18.3284   21.7714 C   0  0  0  0  0  0
  -29.5073  -24.0922   18.6068 C   0  0  0  0  0  0
  -31.4766  -17.5358   21.6419 C   0  0  0  0  0  0
  -29.1303  -22.2559   20.3628 C   0  0  0  0  0  0
  -29.5947  -18.6347   20.2085 C   0  0  0  0  0  0
  -28.2495  -24.9830   20.6432 C   0  0  0  0  0  0
  -28.5514  -23.6660   19.7313 C   0  0  1  0  0  0
  -30.0398  -17.3413   21.1213 C   0  0  1  0  0  0
  -25.9326  -20.5790   21.4764 N   0  0  0  0  0  0
  -27.3559  -18.7701   20.9993 N   0  0  0  0  0  0
  -29.7908  -15.8714   20.7031 N   0  0  0  0  0  0
  -31.4752  -12.6076   19.1549 H   0  0  0  0  0  0
  -30.3945  -11.4886   19.9426 H   0  0  0  0  0  0
  -29.7987  -11.7404   17.5101 H   0  0  0  0  0  0
  -29.6308  -13.4674   17.7138 H   0  0  0  0  0  0
  -27.9014  -11.2780   18.9068 H   0  0  0  0  0  0
  -27.3809  -12.5133   17.7919 H   0  0  0  0  0  0
  -27.6314  -14.2484   19.4624 H   0  0  0  0  0  0
  -28.7276  -12.1595   21.4064 H   0  0  0  0  0  0
  -28.4158  -13.8331   21.7916 H   0  0  0  0  0  0
  -25.2774   -9.5684   22.4757 H   0  0  0  0  0  0
  -24.0012   -7.4629   22.7475 H   0  0  0  0  0  0
  -21.0846   -8.8776   19.8954 H   0  0  0  0  0  0
  -22.3703  -10.9672   19.6166 H   0  0  0  0  0  0
  -21.1996   -7.6149   23.9723 H   0  0  0  0  0  0
  -21.1481   -6.0518   25.9080 H   0  0  0  0  0  0
  -22.0596   -2.7613   23.2855 H   0  0  0  0  0  0
  -22.4080  -11.9887   22.4815 H   0  0  0  0  0  0
  -21.1081  -13.1246   22.2599 H   0  0  0  0  0  0
  -24.6281  -15.8209   20.4656 H   0  0  0  0  0  0
  -26.2521  -15.6306   20.0406 H   0  0  0  0  0  0
  -26.7199  -32.5393   23.1048 H   0  0  0  0  0  0
  -25.0060  -33.9678   25.0371 H   0  0  0  0  0  0
  -22.7248  -31.2949   21.3890 H   0  0  0  0  0  0
  -23.3758  -35.9603   23.3280 H   0  0  0  0  0  0
  -24.3587  -36.8927   22.2059 H   0  0  0  0  0  0
  -23.7231  -37.6466   23.6680 H   0  0  0  0  0  0
  -26.1089  -31.5261   20.6016 H   0  0  0  0  0  0
  -26.8496  -30.8189   22.0060 H   0  0  0  0  0  0
  -28.1308  -28.9436   21.1790 H   0  0  0  0  0  0
  -25.9924  -25.8629   19.0565 H   0  0  0  0  0  0
  -23.9748  -27.2693   19.0353 H   0  0  0  0  0  0
  -23.7724  -30.5698   19.3986 H   0  0  0  0  0  0
  -22.7649  -29.2307   19.8561 H   0  0  0  0  0  0
  -25.1299  -36.1901   25.0813 H   0  0  0  0  0  0
  -20.9975  -28.3277   24.1397 H   0  0  0  0  0  0
  -20.5679  -26.2308   23.3619 H   0  0  0  0  0  0
  -21.6646  -26.7447   22.1204 H   0  0  0  0  0  0
  -19.6921  -25.6289   21.1251 H   0  0  0  0  0  0
  -19.6695  -27.3187   20.6740 H   0  0  0  0  0  0
  -17.4204  -26.6671   21.4020 H   0  0  0  0  0  0
  -18.0334  -26.0068   22.9021 H   0  0  0  0  0  0
  -19.7942  -30.7275   24.2255 H   0  0  0  0  0  0
  -17.5021  -31.6272   24.5159 H   0  0  0  0  0  0
  -15.5354  -30.2989   23.7663 H   0  0  0  0  0  0
  -15.8668  -28.0820   22.7077 H   0  0  0  0  0  0
  -24.5889  -30.7099   25.7752 H   0  0  0  0  0  0
  -24.8934  -32.2913   26.4841 H   0  0  0  0  0  0
  -25.8037  -30.8911   27.0203 H   0  0  0  0  0  0
  -26.2934  -29.6721   24.1224 H   0  0  0  0  0  0
  -27.4018  -29.7259   25.4732 H   0  0  0  0  0  0
  -27.8818  -30.4243   23.9451 H   0  0  0  0  0  0
  -27.2644  -33.3622   26.2046 H   0  0  0  0  0  0
  -28.3870  -32.6881   25.0320 H   0  0  0  0  0  0
  -28.0706  -31.8454   26.5413 H   0  0  0  0  0  0
  -28.2574  -38.0111   24.7543 H   0  0  0  0  0  0
  -28.1105  -36.2644   24.6231 H   0  0  0  0  0  0
  -27.2308  -37.1367   25.8861 H   0  0  0  0  0  0
  -20.9391  -29.8749   21.6848 H   0  0  0  0  0  0
  -26.0159  -38.2834   24.1442 H   0  0  0  0  0  0
  -26.6487  -22.4744   21.2198 H   0  0  0  0  0  0
  -24.4395  -18.7685   22.5151 H   0  0  0  0  0  0
  -25.5168  -17.4115   22.1926 H   0  0  0  0  0  0
  -24.5127  -18.0699   20.8935 H   0  0  0  0  0  0
  -29.6455  -23.2951   17.8755 H   0  0  0  0  0  0
  -30.4881  -24.3598   19.0015 H   0  0  0  0  0  0
  -29.1209  -24.9558   18.0646 H   0  0  0  0  0  0
  -31.5875  -18.5064   22.1287 H   0  0  0  0  0  0
  -32.2056  -17.4915   20.8326 H   0  0  0  0  0  0
  -31.7426  -16.7770   22.3791 H   0  0  0  0  0  0
  -29.8866  -21.8508   19.6894 H   0  0  0  0  0  0
  -29.6801  -22.4917   21.2746 H   0  0  0  0  0  0
  -30.4557  -19.2919   20.0821 H   0  0  0  0  0  0
  -29.3672  -18.2881   19.2005 H   0  0  0  0  0  0
  -28.9692  -24.9560   21.4614 H   0  0  0  0  0  0
  -27.2841  -24.8482   21.1333 H   0  0  0  0  0  0
  -27.6227  -23.4289   19.2111 H   0  0  0  0  0  0
  -29.4251  -17.4241   22.0181 H   0  0  0  0  0  0
  -28.8158  -15.6177   20.7682 H   0  0  0  0  0  0
  1 25  1  0  0  0
  1 30  2  0  0  0
  1 85  1  0  0  0
  2  3  1  0  0  0
  2 25  1  0  0  0
  2 86  1  0  0  0
  2 87  1  0  0  0
  3  4  1  0  0  0
  3 88  1  0  0  0
  3 89  1  0  0  0
  4  5  1  0  0  0
  4 90  1  0  0  0
  4 91  1  0  0  0
  5  6  1  0  0  0
  5 26  1  0  0  0
  5 92  1  0  0  0
  6 25  1  0  0  0
  6 93  1  0  0  0
  6 94  1  0  0  0
  7  8  2  0  0  0
  7 26  1  0  0  0
  7 29  1  0  0  0
  8  9  1  0  0  0
  8 22  1  0  0  0
  9 10  1  0  0  0
  9 27  2  0  0  0
 10 11  2  0  0  0
 10 15  1  0  0  0
 11 12  1  0  0  0
 11 95  1  0  0  0
 12 13  2  0  0  0
 12 96  1  0  0  0
 13 14  1  0  0  0
 13 31  1  0  0  0
 14 15  2  0  0  0
 14 97  1  0  0  0
 15 98  1  0  0  0
 16 17  2  0  0  0
 16 21  1  0  0  0
 16 31  1  0  0  0
 17 18  1  0  0  0
 17 99  1  0  0  0
 18 19  2  0  0  0
 18100  1  0  0  0
 19 20  1  0  0  0
 19 24  1  0  0  0
 20 21  2  0  0  0
 20101  1  0  0  0
 21 23  1  0  0  0
 22 28  1  0  0  0
 22 32  2  0  0  0
 26 27  1  0  0  0
 28102  1  0  0  0
 28103  1  0  0  0
 29104  1  0  0  0
 29105  1  0  0  0
 33 34  1  0  0  0
 33 66  1  0  0  0
 33 70  2  0  0  0
 34 36  1  0  0  0
 34 59  1  0  0  0
 34106  1  0  0  0
 35 44  2  0  0  0
 35 45  1  0  0  0
 35 68  1  0  0  0
 36 56  1  0  0  0
 36107  1  0  0  0
 37 39  1  0  0  0
 37 47  1  0  0  0
 37 66  1  0  0  0
 37108  1  0  0  0
 38 43  2  0  0  0
 38 46  1  0  0  0
 38 47  1  0  0  0
 39 64  1  0  0  0
 39 67  2  0  0  0
 40 52  1  0  0  0
 40 53  2  0  0  0
 40 58  1  0  0  0
 41109  1  0  0  0
 41110  1  0  0  0
 41111  1  0  0  0
 41 48  1  0  0  0
 42 43  1  0  0  0
 42 66  1  0  0  0
 42112  1  0  0  0
 42113  1  0  0  0
 43 44  1  0  0  0
 44114  1  0  0  0
 45 46  2  0  0  0
 45115  1  0  0  0
 46116  1  0  0  0
 47117  1  0  0  0
 47118  1  0  0  0
 48 56  1  0  0  0
 48 65  1  0  0  0
 48119  1  0  0  0
 49 50  1  0  0  0
 49 53  1  0  0  0
 49 64  1  0  0  0
 49120  1  0  0  0
 50 51  1  0  0  0
 50121  1  0  0  0
 50122  1  0  0  0
 51 52  1  0  0  0
 51123  1  0  0  0
 51124  1  0  0  0
 52125  1  0  0  0
 52126  1  0  0  0
 53 54  1  0  0  0
 54 55  2  0  0  0
 54127  1  0  0  0
 55 57  1  0  0  0
 55128  1  0  0  0
 56 69  2  0  0  0
 57 58  2  0  0  0
 57129  1  0  0  0
 58130  1  0  0  0
 59 60  1  0  0  0
 59 61  1  0  0  0
 59 62  1  0  0  0
 60131  1  0  0  0
 60132  1  0  0  0
 60133  1  0  0  0
 61134  1  0  0  0
 61135  1  0  0  0
 61136  1  0  0  0
 62137  1  0  0  0
 62138  1  0  0  0
 62139  1  0  0  0
 63 65  1  0  0  0
 63140  1  0  0  0
 63141  1  0  0  0
 63142  1  0  0  0
 64143  1  0  0  0
 65144  1  0  0  0
 68 80  1  0  0  0
 71 72  2  0  0  0
 71 83  1  0  0  0
 71145  1  0  0  0
 72 73  1  0  0  0
 72 78  1  0  0  0
 73 79  1  0  0  0
 73 84  2  0  0  0
 74 75  1  0  0  0
 74 83  2  0  0  0
 74 84  1  0  0  0
 75146  1  0  0  0
 75147  1  0  0  0
 75148  1  0  0  0
 76149  1  0  0  0
 76150  1  0  0  0
 76151  1  0  0  0
 76 81  1  0  0  0
 77152  1  0  0  0
 77153  1  0  0  0
 77154  1  0  0  0
 77 82  1  0  0  0
 78 81  1  0  0  0
 78155  1  0  0  0
 78156  1  0  0  0
 79 82  1  0  0  0
 79157  1  0  0  0
 79158  1  0  0  0
 80 81  1  0  0  0
 80159  1  0  0  0
 80160  1  0  0  0
 81161  1  0  0  0
 82 85  1  0  0  0
 82162  1  0  0  0
 85163  1  0  0  0
M  ISO  4   1 100  68 101  80 101  85 100
M  END
> <chiral flag>
0

> <version>
0

> <s_m_source_file>
/data/baiqing/PycharmProjects/Reinvent-master-3.2/result/LINK_invent/BTK/process_docking_weight1_custom_sum_contain_oxygen_bond_distance_aromatic_linkinvent_7_9_3/rearranged_h_0076.sdf

> <i_m_source_file_index>
86

> <r_mmod_Potential_Energy-OPLS-2005>
-64.3676300048828

> <r_mmod_Stretch_Energy-OPLS-2005>
146.203994750977

> <r_mmod_Bend_Energy-OPLS-2005>
233.968887329102

> <r_mmod_Torsional_Energy-OPLS-2005>
244.925338745117

> <r_mmod_Improper_Torsional_Energy-OPLS-2005>
4.62719392776489

> <r_mmod_Van_der_Waal_Energy-OPLS-2005>
136.031219482422

> <r_mmod_Electrostatic_Energy-OPLS-2005>
-698.548767089844

> <r_mmod_Solvation_Energy-OPLS-2005>
-217.428604125977

> <b_mmod_Minimization_Converged-OPLS-2005>
0

> <r_mmod_RMS_Derivative-OPLS-2005>
1.25781118869781

$$$$
86
                    3D
 Structure written by MMmdl.
161169  0  0  1  0            999 V2000
  -30.6350  -14.6523   20.5107 C   0  0  0  0  0  0
  -30.4446  -12.4090   19.4460 C   0  0  0  0  0  0
  -29.5164  -12.5214   18.2178 C   0  0  0  0  0  0
  -28.0376  -12.3585   18.6271 C   0  0  0  0  0  0
  -27.6559  -13.2233   19.8594 C   0  0  2  0  0  0
  -28.7022  -13.0859   20.9873 C   0  0  0  0  0  0
  -25.2586  -13.8168   20.5645 C   0  0  0  0  0  0
  -24.1854  -13.0440   20.9185 C   0  0  0  0  0  0
  -24.6438  -11.6913   20.8740 C   0  0  0  0  0  0
  -23.9097  -10.4302   21.0407 C   0  0  0  0  0  0
  -24.3631   -9.4217   21.9183 C   0  0  0  0  0  0
  -23.6312   -8.2256   22.0757 C   0  0  0  0  0  0
  -22.4288   -8.0303   21.3555 C   0  0  0  0  0  0
  -21.9936   -9.0277   20.4653 C   0  0  0  0  0  0
  -22.7264  -10.2157   20.3057 C   0  0  0  0  0  0
  -21.6863   -6.0752   22.5289 C   0  0  0  0  0  0
  -21.4009   -6.5646   23.8231 C   0  0  0  0  0  0
  -21.3657   -5.6788   24.9182 C   0  0  0  0  0  0
  -21.6056   -4.3054   24.7213 C   0  0  0  0  0  0
  -21.8827   -3.8153   23.4327 C   0  0  0  0  0  0
  -21.9192   -4.6978   22.3398 C   0  0  0  0  0  0
  -22.7872  -13.5247   21.1853 C   0  0  0  0  0  0
  -22.1650   -4.2174   21.0973 F   0  0  0  0  0  0
  -21.5640   -3.4531   25.7709 F   0  0  0  0  0  0
  -30.0140  -13.4334   20.4178 N   0  0  0  0  0  0
  -26.3021  -12.9357   20.3282 N   0  0  0  0  0  0
  -25.9371  -11.6507   20.5732 N   0  0  0  0  0  0
  -22.0471  -12.8264   22.0388 N   0  0  0  0  0  0
  -25.4315  -15.1888   20.4062 N   0  0  0  0  0  0
  -31.8064  -14.8079   20.1574 O   0  0  0  0  0  0
  -21.6652   -6.8899   21.4260 O   0  0  0  0  0  0
  -22.3582  -14.5580   20.6725 O   0  0  0  0  0  0
  -24.6229  -31.8592   23.2037 C   0  0  0  0  0  0
  -25.9089  -32.4778   23.8346 C   0  0  1  0  0  0
  -27.2382  -27.3364   20.0992 C   0  0  0  0  0  0
  -25.5932  -33.8584   24.2260 N   0  0  0  0  0  0
  -23.4138  -30.4811   21.5479 C   0  0  2  0  0  0
  -24.8603  -28.9327   20.1138 C   0  0  0  0  0  0
  -22.7439  -29.4607   22.4976 C   0  0  0  0  0  0
  -18.0269  -28.1391   22.8470 C   0  0  0  0  0  0
  -24.1493  -36.7303   23.2634 C   0  0  0  0  0  0
  -25.9514  -30.7951   21.3678 C   0  0  0  0  0  0
  -26.0268  -29.4216   20.7123 C   0  0  0  0  0  0
  -27.2134  -28.6340   20.6953 C   0  0  0  0  0  0
  -26.0430  -26.8923   19.4852 C   0  0  0  0  0  0
  -24.8684  -27.6710   19.4973 C   0  0  0  0  0  0
  -23.6276  -29.8138   20.1629 C   0  0  0  0  0  0
  -25.4117  -36.3070   24.0309 C   0  0  1  0  0  0
  -20.5860  -28.3667   23.1310 C   0  0  2  0  0  0
  -20.6772  -26.9402   22.5415 C   0  0  0  0  0  0
  -19.5768  -26.6385   21.5201 C   0  0  0  0  0  0
  -18.1936  -26.7938   22.1599 C   0  0  0  0  0  0
  -19.1521  -28.8850   23.2882 C   0  0  0  0  0  0
  -18.9447  -30.1459   23.8888 C   0  0  0  0  0  0
  -17.6454  -30.6596   24.0559 C   0  0  0  0  0  0
  -25.9049  -34.9445   23.5069 C   0  0  0  0  0  0
  -16.5339  -29.9094   23.6343 C   0  0  0  0  0  0
  -16.7259  -28.6519   23.0341 C   0  0  0  0  0  0
  -26.4491  -31.6599   25.0716 C   0  0  0  0  0  0
  -25.3762  -31.3733   26.1472 C   0  0  0  0  0  0
  -27.0312  -30.3029   24.6139 C   0  0  0  0  0  0
  -27.6039  -32.4334   25.7516 C   0  0  0  0  0  0
  -27.5572  -37.1804   24.8456 C   0  0  0  0  0  0
  -21.4156  -29.3024   22.3720 N   0  0  0  0  0  0
  -26.4285  -37.3769   23.9404 N   0  0  0  0  0  0
  -24.6820  -31.0600   22.0987 N   0  0  0  0  0  0
  -23.4169  -28.8147   23.3054 O   0  0  0  0  0  0
  -28.4081  -26.5622   20.1393 O   0  0  0  0  0  0
  -26.5604  -34.8905   22.4627 O   0  0  0  0  0  0
  -23.5399  -32.1391   23.7376 O   0  0  0  0  0  0
  -30.5000  -20.6853   19.9100 C   0  0  0  0  0  0
  -28.2097  -21.6180   21.0546 C   0  0  0  0  0  0
  -30.3322  -22.0914   20.0686 C   0  0  0  0  0  0
  -29.1347  -22.6066   20.6306 C   0  0  0  0  0  0
  -29.4956  -19.7667   20.3141 C   0  0  0  0  0  0
  -31.4559  -23.0134   19.6351 C   0  0  0  0  0  0
  -30.3561  -18.0139   18.6587 C   0  0  0  0  0  0
  -28.0894  -17.7714   19.6005 C   0  0  0  0  0  0
  -28.8870  -24.1373   20.9230 C   0  0  0  0  0  0
  -30.1328  -17.1916   21.0232 C   0  0  0  0  0  0
  -28.4707  -25.1320   19.7645 C   0  0  0  0  0  0
  -29.5300  -18.2105   19.9484 C   0  0  0  0  0  0
  -28.3867  -20.2693   20.9224 N   0  0  0  0  0  0
  -29.8397  -15.7144   20.8431 N   0  0  0  0  0  0
  -31.4860  -12.5370   19.1434 H   0  0  0  0  0  0
  -30.3807  -11.4140   19.8892 H   0  0  0  0  0  0
  -29.7842  -11.7680   17.4770 H   0  0  0  0  0  0
  -29.6667  -13.4899   17.7372 H   0  0  0  0  0  0
  -27.8735  -11.3051   18.8524 H   0  0  0  0  0  0
  -27.3860  -12.5911   17.7829 H   0  0  0  0  0  0
  -27.6713  -14.2594   19.5232 H   0  0  0  0  0  0
  -28.7184  -12.0662   21.3755 H   0  0  0  0  0  0
  -28.4503  -13.7251   21.8358 H   0  0  0  0  0  0
  -25.2762   -9.5698   22.4769 H   0  0  0  0  0  0
  -24.0018   -7.4651   22.7476 H   0  0  0  0  0  0
  -21.0863   -8.8817   19.8962 H   0  0  0  0  0  0
  -22.3734  -10.9704   19.6168 H   0  0  0  0  0  0
  -21.1996   -7.6143   23.9749 H   0  0  0  0  0  0
  -21.1470   -6.0496   25.9101 H   0  0  0  0  0  0
  -22.0608   -2.7615   23.2818 H   0  0  0  0  0  0
  -22.3995  -11.9887   22.4762 H   0  0  0  0  0  0
  -21.1131  -13.1395   22.2601 H   0  0  0  0  0  0
  -24.6657  -15.8448   20.5162 H   0  0  0  0  0  0
  -26.2769  -15.6239   20.0635 H   0  0  0  0  0  0
  -26.7151  -32.5432   23.1085 H   0  0  0  0  0  0
  -25.0130  -33.9763   25.0437 H   0  0  0  0  0  0
  -22.7041  -31.2995   21.4067 H   0  0  0  0  0  0
  -23.3730  -35.9656   23.3290 H   0  0  0  0  0  0
  -24.3580  -36.8940   22.2047 H   0  0  0  0  0  0
  -23.7277  -37.6513   23.6673 H   0  0  0  0  0  0
  -26.0685  -31.5573   20.5959 H   0  0  0  0  0  0
  -26.8369  -30.8513   21.9897 H   0  0  0  0  0  0
  -28.1131  -29.0136   21.1582 H   0  0  0  0  0  0
  -25.9728  -25.9423   18.9827 H   0  0  0  0  0  0
  -23.9741  -27.2873   19.0259 H   0  0  0  0  0  0
  -23.7505  -30.5932   19.4108 H   0  0  0  0  0  0
  -22.7450  -29.2488   19.8570 H   0  0  0  0  0  0
  -25.1299  -36.1898   25.0799 H   0  0  0  0  0  0
  -20.9927  -28.3232   24.1443 H   0  0  0  0  0  0
  -20.5684  -26.2261   23.3594 H   0  0  0  0  0  0
  -21.6644  -26.7475   22.1204 H   0  0  0  0  0  0
  -19.6936  -25.6291   21.1253 H   0  0  0  0  0  0
  -19.6740  -27.3175   20.6718 H   0  0  0  0  0  0
  -17.4209  -26.6662   21.4000 H   0  0  0  0  0  0
  -18.0349  -26.0094   22.9010 H   0  0  0  0  0  0
  -19.7924  -30.7278   24.2242 H   0  0  0  0  0  0
  -17.5012  -31.6277   24.5151 H   0  0  0  0  0  0
  -15.5342  -30.2987   23.7702 H   0  0  0  0  0  0
  -15.8651  -28.0853   22.7047 H   0  0  0  0  0  0
  -24.5935  -30.7067   25.7841 H   0  0  0  0  0  0
  -24.8965  -32.2898   26.4916 H   0  0  0  0  0  0
  -25.8141  -30.8932   27.0232 H   0  0  0  0  0  0
  -26.2860  -29.6813   24.1165 H   0  0  0  0  0  0
  -27.4016  -29.7257   25.4618 H   0  0  0  0  0  0
  -27.8726  -30.4317   23.9329 H   0  0  0  0  0  0
  -27.2624  -33.3614   26.2113 H   0  0  0  0  0  0
  -28.3874  -32.6928   25.0388 H   0  0  0  0  0  0
  -28.0678  -31.8453   26.5443 H   0  0  0  0  0  0
  -28.2567  -38.0120   24.7482 H   0  0  0  0  0  0
  -28.1084  -36.2639   24.6290 H   0  0  0  0  0  0
  -27.2289  -37.1460   25.8861 H   0  0  0  0  0  0
  -20.9310  -29.8740   21.6942 H   0  0  0  0  0  0
  -26.0141  -38.2828   24.1430 H   0  0  0  0  0  0
  -31.4062  -20.3189   19.4525 H   0  0  0  0  0  0
  -27.2948  -21.9164   21.5447 H   0  0  0  0  0  0
  -32.3801  -22.4575   19.4834 H   0  0  0  0  0  0
  -31.6606  -23.7734   20.3884 H   0  0  0  0  0  0
  -31.2056  -23.5080   18.6977 H   0  0  0  0  0  0
  -30.0132  -18.6710   17.8577 H   0  0  0  0  0  0
  -30.2963  -16.9886   18.2938 H   0  0  0  0  0  0
  -31.4138  -18.2159   18.8277 H   0  0  0  0  0  0
  -27.6324  -18.4481   18.8780 H   0  0  0  0  0  0
  -27.4522  -17.7592   20.4859 H   0  0  0  0  0  0
  -28.0646  -16.7757   19.1618 H   0  0  0  0  0  0
  -29.7876  -24.5318   21.3916 H   0  0  0  0  0  0
  -28.1274  -24.2086   21.7016 H   0  0  0  0  0  0
  -29.7269  -17.4594   21.9991 H   0  0  0  0  0  0
  -31.2108  -17.3402   21.1053 H   0  0  0  0  0  0
  -27.5677  -24.7507   19.3000 H   0  0  0  0  0  0
  -29.2275  -25.0683   18.9814 H   0  0  0  0  0  0
  -28.8891  -15.4524   21.0527 H   0  0  0  0  0  0
  1 25  1  0  0  0
  1 30  2  0  0  0
  1 84  1  0  0  0
  2  3  1  0  0  0
  2 25  1  0  0  0
  2 85  1  0  0  0
  2 86  1  0  0  0
  3  4  1  0  0  0
  3 87  1  0  0  0
  3 88  1  0  0  0
  4  5  1  0  0  0
  4 89  1  0  0  0
  4 90  1  0  0  0
  5  6  1  0  0  0
  5 26  1  0  0  0
  5 91  1  0  0  0
  6 25  1  0  0  0
  6 92  1  0  0  0
  6 93  1  0  0  0
  7  8  2  0  0  0
  7 26  1  0  0  0
  7 29  1  0  0  0
  8  9  1  0  0  0
  8 22  1  0  0  0
  9 10  1  0  0  0
  9 27  2  0  0  0
 10 11  2  0  0  0
 10 15  1  0  0  0
 11 12  1  0  0  0
 11 94  1  0  0  0
 12 13  2  0  0  0
 12 95  1  0  0  0
 13 14  1  0  0  0
 13 31  1  0  0  0
 14 15  2  0  0  0
 14 96  1  0  0  0
 15 97  1  0  0  0
 16 17  2  0  0  0
 16 21  1  0  0  0
 16 31  1  0  0  0
 17 18  1  0  0  0
 17 98  1  0  0  0
 18 19  2  0  0  0
 18 99  1  0  0  0
 19 20  1  0  0  0
 19 24  1  0  0  0
 20 21  2  0  0  0
 20100  1  0  0  0
 21 23  1  0  0  0
 22 28  1  0  0  0
 22 32  2  0  0  0
 26 27  1  0  0  0
 28101  1  0  0  0
 28102  1  0  0  0
 29103  1  0  0  0
 29104  1  0  0  0
 33 34  1  0  0  0
 33 66  1  0  0  0
 33 70  2  0  0  0
 34 36  1  0  0  0
 34 59  1  0  0  0
 34105  1  0  0  0
 35 44  2  0  0  0
 35 45  1  0  0  0
 35 68  1  0  0  0
 36 56  1  0  0  0
 36106  1  0  0  0
 37 39  1  0  0  0
 37 47  1  0  0  0
 37 66  1  0  0  0
 37107  1  0  0  0
 38 43  2  0  0  0
 38 46  1  0  0  0
 38 47  1  0  0  0
 39 64  1  0  0  0
 39 67  2  0  0  0
 40 52  1  0  0  0
 40 53  2  0  0  0
 40 58  1  0  0  0
 41108  1  0  0  0
 41109  1  0  0  0
 41110  1  0  0  0
 41 48  1  0  0  0
 42 43  1  0  0  0
 42 66  1  0  0  0
 42111  1  0  0  0
 42112  1  0  0  0
 43 44  1  0  0  0
 44113  1  0  0  0
 45 46  2  0  0  0
 45114  1  0  0  0
 46115  1  0  0  0
 47116  1  0  0  0
 47117  1  0  0  0
 48 56  1  0  0  0
 48 65  1  0  0  0
 48118  1  0  0  0
 49 50  1  0  0  0
 49 53  1  0  0  0
 49 64  1  0  0  0
 49119  1  0  0  0
 50 51  1  0  0  0
 50120  1  0  0  0
 50121  1  0  0  0
 51 52  1  0  0  0
 51122  1  0  0  0
 51123  1  0  0  0
 52124  1  0  0  0
 52125  1  0  0  0
 53 54  1  0  0  0
 54 55  2  0  0  0
 54126  1  0  0  0
 55 57  1  0  0  0
 55127  1  0  0  0
 56 69  2  0  0  0
 57 58  2  0  0  0
 57128  1  0  0  0
 58129  1  0  0  0
 59 60  1  0  0  0
 59 61  1  0  0  0
 59 62  1  0  0  0
 60130  1  0  0  0
 60131  1  0  0  0
 60132  1  0  0  0
 61133  1  0  0  0
 61134  1  0  0  0
 61135  1  0  0  0
 62136  1  0  0  0
 62137  1  0  0  0
 62138  1  0  0  0
 63 65  1  0  0  0
 63139  1  0  0  0
 63140  1  0  0  0
 63141  1  0  0  0
 64142  1  0  0  0
 65143  1  0  0  0
 68 81  1  0  0  0
 71 73  2  0  0  0
 71 75  1  0  0  0
 71144  1  0  0  0
 72 74  2  0  0  0
 72 83  1  0  0  0
 72145  1  0  0  0
 73 74  1  0  0  0
 73 76  1  0  0  0
 74 79  1  0  0  0
 75 82  1  0  0  0
 75 83  2  0  0  0
 76146  1  0  0  0
 76147  1  0  0  0
 76148  1  0  0  0
 77149  1  0  0  0
 77150  1  0  0  0
 77151  1  0  0  0
 77 82  1  0  0  0
 78 82  1  0  0  0
 78152  1  0  0  0
 78153  1  0  0  0
 78154  1  0  0  0
 79 81  1  0  0  0
 79155  1  0  0  0
 79156  1  0  0  0
 80 82  1  0  0  0
 80 84  1  0  0  0
 80157  1  0  0  0
 80158  1  0  0  0
 81159  1  0  0  0
 81160  1  0  0  0
 84161  1  0  0  0
M  ISO  4   1 100  68 101  81 101  84 100
M  END
> <chiral flag>
0

> <version>
0

> <s_m_source_file>
/data/baiqing/PycharmProjects/Reinvent-master-3.2/result/LINK_invent/BTK/process_docking_weight1_custom_sum_contain_oxygen_bond_distance_aromatic_linkinvent_7_9_3/rearranged_h_0076.sdf

> <i_m_source_file_index>
87

> <r_mmod_Potential_Energy-OPLS-2005>
-144.682434082031

> <r_mmod_Stretch_Energy-OPLS-2005>
84.2324981689453

> <r_mmod_Bend_Energy-OPLS-2005>
152.701599121094

> <r_mmod_Torsional_Energy-OPLS-2005>
206.116897583008

> <r_mmod_Improper_Torsional_Energy-OPLS-2005>
4.75062561035156

> <r_mmod_Van_der_Waal_Energy-OPLS-2005>
147.404998779297

> <r_mmod_Electrostatic_Energy-OPLS-2005>
-571.427001953125

> <r_mmod_Solvation_Energy-OPLS-2005>
-212.991561889648

> <b_mmod_Minimization_Converged-OPLS-2005>
0

> <r_mmod_RMS_Derivative-OPLS-2005>
2.9081494808197

$$$$
87
                    3D
 Structure written by MMmdl.
163171  0  0  1  0            999 V2000
  -30.6523  -14.5607   20.4883 C   0  0  0  0  0  0
  -30.4308  -12.3324   19.4595 C   0  0  0  0  0  0
  -29.5085  -12.4818   18.2292 C   0  0  0  0  0  0
  -28.0292  -12.3363   18.6374 C   0  0  0  0  0  0
  -27.6579  -13.2067   19.8676 C   0  0  2  0  0  0
  -28.6994  -13.0419   21.0002 C   0  0  0  0  0  0
  -25.2560  -13.8146   20.5611 C   0  0  0  0  0  0
  -24.1836  -13.0427   20.9178 C   0  0  0  0  0  0
  -24.6386  -11.6889   20.8724 C   0  0  0  0  0  0
  -23.9044  -10.4280   21.0384 C   0  0  0  0  0  0
  -24.3597   -9.4202   21.9161 C   0  0  0  0  0  0
  -23.6274   -8.2242   22.0746 C   0  0  0  0  0  0
  -22.4255   -8.0268   21.3531 C   0  0  0  0  0  0
  -21.9883   -9.0244   20.4649 C   0  0  0  0  0  0
  -22.7199  -10.2129   20.3061 C   0  0  0  0  0  0
  -21.6851   -6.0722   22.5268 C   0  0  0  0  0  0
  -21.4003   -6.5628   23.8202 C   0  0  0  0  0  0
  -21.3674   -5.6781   24.9171 C   0  0  0  0  0  0
  -21.6057   -4.3041   24.7233 C   0  0  0  0  0  0
  -21.8829   -3.8135   23.4356 C   0  0  0  0  0  0
  -21.9205   -4.6948   22.3409 C   0  0  0  0  0  0
  -22.7863  -13.5223   21.1878 C   0  0  0  0  0  0
  -22.1682   -4.2126   21.0988 F   0  0  0  0  0  0
  -21.5659   -3.4539   25.7761 F   0  0  0  0  0  0
  -30.0242  -13.3508   20.4425 N   0  0  0  0  0  0
  -26.3000  -12.9324   20.3311 N   0  0  0  0  0  0
  -25.9326  -11.6485   20.5771 N   0  0  0  0  0  0
  -22.0516  -12.8217   22.0465 N   0  0  0  0  0  0
  -25.4225  -15.1868   20.3958 N   0  0  0  0  0  0
  -31.8122  -14.7161   20.0989 O   0  0  0  0  0  0
  -21.6626   -6.8851   21.4223 O   0  0  0  0  0  0
  -22.3544  -14.5538   20.6740 O   0  0  0  0  0  0
  -24.6206  -31.8639   23.2097 C   0  0  0  0  0  0
  -25.9073  -32.4796   23.8409 C   0  0  1  0  0  0
  -27.2242  -27.3845   20.0975 C   0  0  0  0  0  0
  -25.5928  -33.8603   24.2327 N   0  0  0  0  0  0
  -23.4078  -30.4923   21.5526 C   0  0  2  0  0  0
  -24.8487  -28.9513   20.1183 C   0  0  0  0  0  0
  -22.7419  -29.4666   22.4987 C   0  0  0  0  0  0
  -18.0272  -28.1395   22.8477 C   0  0  0  0  0  0
  -24.1494  -36.7290   23.2634 C   0  0  0  0  0  0
  -25.9436  -30.8154   21.3697 C   0  0  0  0  0  0
  -26.0152  -29.4470   20.7123 C   0  0  0  0  0  0
  -27.2023  -28.6722   20.6959 C   0  0  0  0  0  0
  -26.0331  -26.9159   19.4983 C   0  0  0  0  0  0
  -24.8545  -27.6847   19.5113 C   0  0  0  0  0  0
  -23.6168  -29.8278   20.1683 C   0  0  0  0  0  0
  -25.4112  -36.3086   24.0333 C   0  0  1  0  0  0
  -20.5860  -28.3685   23.1293 C   0  0  2  0  0  0
  -20.6775  -26.9424   22.5409 C   0  0  0  0  0  0
  -19.5764  -26.6391   21.5211 C   0  0  0  0  0  0
  -18.1929  -26.7936   22.1611 C   0  0  0  0  0  0
  -19.1523  -28.8856   23.2883 C   0  0  0  0  0  0
  -18.9457  -30.1455   23.8902 C   0  0  0  0  0  0
  -17.6460  -30.6596   24.0555 C   0  0  0  0  0  0
  -25.9046  -34.9454   23.5115 C   0  0  0  0  0  0
  -16.5347  -29.9091   23.6328 C   0  0  0  0  0  0
  -16.7261  -28.6513   23.0340 C   0  0  0  0  0  0
  -26.4491  -31.6594   25.0753 C   0  0  0  0  0  0
  -25.3750  -31.3732   26.1500 C   0  0  0  0  0  0
  -27.0329  -30.3022   24.6187 C   0  0  0  0  0  0
  -27.6060  -32.4332   25.7501 C   0  0  0  0  0  0
  -27.5583  -37.1795   24.8464 C   0  0  0  0  0  0
  -21.4148  -29.3034   22.3689 N   0  0  0  0  0  0
  -26.4287  -37.3775   23.9411 N   0  0  0  0  0  0
  -24.6761  -31.0712   22.1023 N   0  0  0  0  0  0
  -23.4168  -28.8218   23.3062 O   0  0  0  0  0  0
  -28.3930  -26.6347   20.1294 O   0  0  0  0  0  0
  -26.5600  -34.8907   22.4678 O   0  0  0  0  0  0
  -23.5380  -32.1420   23.7459 O   0  0  0  0  0  0
  -27.9358  -22.6822   20.2117 C   0  0  0  0  0  0
  -28.6790  -21.6760   20.9220 C   0  0  0  0  0  0
  -27.1543  -22.2026   19.1281 C   0  0  0  0  0  0
  -28.5371  -20.3025   20.5211 C   0  0  0  0  0  0
  -26.2047  -23.0848   18.3391 C   0  0  0  0  0  0
  -28.8303  -22.1626   23.4291 C   0  0  0  0  0  0
  -29.5791  -22.0529   22.0932 C   0  0  0  0  0  0
  -27.8500  -24.1836   20.6433 C   0  0  0  0  0  0
  -29.0008  -19.0733   21.3561 C   0  0  0  0  0  0
  -30.2196  -18.2264   20.8552 C   0  0  0  0  0  0
  -29.9435  -16.9422   20.0013 C   0  0  0  0  0  0
  -28.4298  -25.2577   19.6614 C   0  0  0  0  0  0
  -27.1474  -20.9033   18.7426 N   0  0  0  0  0  0
  -27.8088  -19.9714   19.4303 N   0  0  0  0  0  0
  -29.8419  -15.6298   20.7034 N   0  0  0  0  0  0
  -31.4779  -12.4291   19.1668 H   0  0  0  0  0  0
  -30.3369  -11.3367   19.8953 H   0  0  0  0  0  0
  -29.7600  -11.7302   17.4789 H   0  0  0  0  0  0
  -29.6720  -13.4529   17.7586 H   0  0  0  0  0  0
  -27.8602  -11.2836   18.8704 H   0  0  0  0  0  0
  -27.3757  -12.5675   17.7957 H   0  0  0  0  0  0
  -27.6848  -14.2427   19.5299 H   0  0  0  0  0  0
  -28.6894  -12.0188   21.3832 H   0  0  0  0  0  0
  -28.4572  -13.6798   21.8523 H   0  0  0  0  0  0
  -25.2757   -9.5704   22.4700 H   0  0  0  0  0  0
  -24.0002   -7.4656   22.7484 H   0  0  0  0  0  0
  -21.0821   -8.8772   19.8954 H   0  0  0  0  0  0
  -22.3644  -10.9677   19.6189 H   0  0  0  0  0  0
  -21.1943   -7.6124   23.9704 H   0  0  0  0  0  0
  -21.1496   -6.0501   25.9070 H   0  0  0  0  0  0
  -22.0583   -2.7594   23.2870 H   0  0  0  0  0  0
  -22.4119  -11.9850   22.4823 H   0  0  0  0  0  0
  -21.1127  -13.1215   22.2702 H   0  0  0  0  0  0
  -24.6436  -15.8294   20.4952 H   0  0  0  0  0  0
  -26.2581  -15.6331   20.0386 H   0  0  0  0  0  0
  -26.7130  -32.5494   23.1167 H   0  0  0  0  0  0
  -25.0126  -33.9781   25.0504 H   0  0  0  0  0  0
  -22.7021  -31.3145   21.4162 H   0  0  0  0  0  0
  -23.3757  -35.9624   23.3300 H   0  0  0  0  0  0
  -24.3584  -36.8900   22.2045 H   0  0  0  0  0  0
  -23.7258  -37.6500   23.6653 H   0  0  0  0  0  0
  -26.0702  -31.5863   20.6076 H   0  0  0  0  0  0
  -26.8256  -30.8583   21.9982 H   0  0  0  0  0  0
  -28.1036  -29.0546   21.1534 H   0  0  0  0  0  0
  -25.9859  -25.9541   19.0163 H   0  0  0  0  0  0
  -23.9526  -27.2924   19.0610 H   0  0  0  0  0  0
  -23.7339  -30.6058   19.4133 H   0  0  0  0  0  0
  -22.7368  -29.2581   19.8672 H   0  0  0  0  0  0
  -25.1287  -36.1938   25.0824 H   0  0  0  0  0  0
  -20.9953  -28.3278   24.1414 H   0  0  0  0  0  0
  -20.5690  -26.2310   23.3604 H   0  0  0  0  0  0
  -21.6646  -26.7472   22.1208 H   0  0  0  0  0  0
  -19.6929  -25.6300   21.1250 H   0  0  0  0  0  0
  -19.6708  -27.3195   20.6736 H   0  0  0  0  0  0
  -17.4199  -26.6672   21.4004 H   0  0  0  0  0  0
  -18.0332  -26.0083   22.9013 H   0  0  0  0  0  0
  -19.7936  -30.7262   24.2285 H   0  0  0  0  0  0
  -17.5017  -31.6279   24.5160 H   0  0  0  0  0  0
  -15.5352  -30.2996   23.7662 H   0  0  0  0  0  0
  -15.8658  -28.0835   22.7059 H   0  0  0  0  0  0
  -24.5930  -30.7067   25.7853 H   0  0  0  0  0  0
  -24.8942  -32.2898   26.4915 H   0  0  0  0  0  0
  -25.8083  -30.8934   27.0280 H   0  0  0  0  0  0
  -26.2901  -29.6782   24.1211 H   0  0  0  0  0  0
  -27.4032  -29.7265   25.4677 H   0  0  0  0  0  0
  -27.8760  -30.4314   23.9406 H   0  0  0  0  0  0
  -27.2680  -33.3623   26.2099 H   0  0  0  0  0  0
  -28.3851  -32.6905   25.0316 H   0  0  0  0  0  0
  -28.0765  -31.8463   26.5405 H   0  0  0  0  0  0
  -28.2583  -38.0100   24.7492 H   0  0  0  0  0  0
  -28.1088  -36.2627   24.6300 H   0  0  0  0  0  0
  -27.2300  -37.1451   25.8865 H   0  0  0  0  0  0
  -20.9330  -29.8716   21.6860 H   0  0  0  0  0  0
  -26.0169  -38.2845   24.1425 H   0  0  0  0  0  0
  -25.6450  -23.7483   18.9951 H   0  0  0  0  0  0
  -25.4656  -22.4822   17.8100 H   0  0  0  0  0  0
  -26.7439  -23.6731   17.5978 H   0  0  0  0  0  0
  -29.5132  -22.4482   24.2289 H   0  0  0  0  0  0
  -28.3683  -21.2168   23.7101 H   0  0  0  0  0  0
  -28.0405  -22.9128   23.3926 H   0  0  0  0  0  0
  -30.0916  -22.9892   21.8679 H   0  0  0  0  0  0
  -30.3842  -21.3230   22.1824 H   0  0  0  0  0  0
  -28.3213  -24.3311   21.6115 H   0  0  0  0  0  0
  -26.8011  -24.4094   20.8312 H   0  0  0  0  0  0
  -28.1432  -18.4090   21.4803 H   0  0  0  0  0  0
  -29.2160  -19.4042   22.3716 H   0  0  0  0  0  0
  -30.8071  -17.9234   21.7216 H   0  0  0  0  0  0
  -30.8821  -18.8930   20.3012 H   0  0  0  0  0  0
  -30.7348  -16.8715   19.2527 H   0  0  0  0  0  0
  -29.0371  -17.0866   19.4119 H   0  0  0  0  0  0
  -27.9895  -25.1898   18.6701 H   0  0  0  0  0  0
  -29.4827  -25.0225   19.5050 H   0  0  0  0  0  0
  -28.9256  -15.3928   21.0511 H   0  0  0  0  0  0
  1 25  1  0  0  0
  1 30  2  0  0  0
  1 85  1  0  0  0
  2  3  1  0  0  0
  2 25  1  0  0  0
  2 86  1  0  0  0
  2 87  1  0  0  0
  3  4  1  0  0  0
  3 88  1  0  0  0
  3 89  1  0  0  0
  4  5  1  0  0  0
  4 90  1  0  0  0
  4 91  1  0  0  0
  5  6  1  0  0  0
  5 26  1  0  0  0
  5 92  1  0  0  0
  6 25  1  0  0  0
  6 93  1  0  0  0
  6 94  1  0  0  0
  7  8  2  0  0  0
  7 26  1  0  0  0
  7 29  1  0  0  0
  8  9  1  0  0  0
  8 22  1  0  0  0
  9 10  1  0  0  0
  9 27  2  0  0  0
 10 11  2  0  0  0
 10 15  1  0  0  0
 11 12  1  0  0  0
 11 95  1  0  0  0
 12 13  2  0  0  0
 12 96  1  0  0  0
 13 14  1  0  0  0
 13 31  1  0  0  0
 14 15  2  0  0  0
 14 97  1  0  0  0
 15 98  1  0  0  0
 16 17  2  0  0  0
 16 21  1  0  0  0
 16 31  1  0  0  0
 17 18  1  0  0  0
 17 99  1  0  0  0
 18 19  2  0  0  0
 18100  1  0  0  0
 19 20  1  0  0  0
 19 24  1  0  0  0
 20 21  2  0  0  0
 20101  1  0  0  0
 21 23  1  0  0  0
 22 28  1  0  0  0
 22 32  2  0  0  0
 26 27  1  0  0  0
 28102  1  0  0  0
 28103  1  0  0  0
 29104  1  0  0  0
 29105  1  0  0  0
 33 34  1  0  0  0
 33 66  1  0  0  0
 33 70  2  0  0  0
 34 36  1  0  0  0
 34 59  1  0  0  0
 34106  1  0  0  0
 35 44  2  0  0  0
 35 45  1  0  0  0
 35 68  1  0  0  0
 36 56  1  0  0  0
 36107  1  0  0  0
 37 39  1  0  0  0
 37 47  1  0  0  0
 37 66  1  0  0  0
 37108  1  0  0  0
 38 43  2  0  0  0
 38 46  1  0  0  0
 38 47  1  0  0  0
 39 64  1  0  0  0
 39 67  2  0  0  0
 40 52  1  0  0  0
 40 53  2  0  0  0
 40 58  1  0  0  0
 41109  1  0  0  0
 41110  1  0  0  0
 41111  1  0  0  0
 41 48  1  0  0  0
 42 43  1  0  0  0
 42 66  1  0  0  0
 42112  1  0  0  0
 42113  1  0  0  0
 43 44  1  0  0  0
 44114  1  0  0  0
 45 46  2  0  0  0
 45115  1  0  0  0
 46116  1  0  0  0
 47117  1  0  0  0
 47118  1  0  0  0
 48 56  1  0  0  0
 48 65  1  0  0  0
 48119  1  0  0  0
 49 50  1  0  0  0
 49 53  1  0  0  0
 49 64  1  0  0  0
 49120  1  0  0  0
 50 51  1  0  0  0
 50121  1  0  0  0
 50122  1  0  0  0
 51 52  1  0  0  0
 51123  1  0  0  0
 51124  1  0  0  0
 52125  1  0  0  0
 52126  1  0  0  0
 53 54  1  0  0  0
 54 55  2  0  0  0
 54127  1  0  0  0
 55 57  1  0  0  0
 55128  1  0  0  0
 56 69  2  0  0  0
 57 58  2  0  0  0
 57129  1  0  0  0
 58130  1  0  0  0
 59 60  1  0  0  0
 59 61  1  0  0  0
 59 62  1  0  0  0
 60131  1  0  0  0
 60132  1  0  0  0
 60133  1  0  0  0
 61134  1  0  0  0
 61135  1  0  0  0
 61136  1  0  0  0
 62137  1  0  0  0
 62138  1  0  0  0
 62139  1  0  0  0
 63 65  1  0  0  0
 63140  1  0  0  0
 63141  1  0  0  0
 63142  1  0  0  0
 64143  1  0  0  0
 65144  1  0  0  0
 68 82  1  0  0  0
 71 72  2  0  0  0
 71 73  1  0  0  0
 71 78  1  0  0  0
 72 74  1  0  0  0
 72 77  1  0  0  0
 73 75  1  0  0  0
 73 83  2  0  0  0
 74 79  1  0  0  0
 74 84  2  0  0  0
 75145  1  0  0  0
 75146  1  0  0  0
 75147  1  0  0  0
 76 77  1  0  0  0
 76148  1  0  0  0
 76149  1  0  0  0
 76150  1  0  0  0
 77151  1  0  0  0
 77152  1  0  0  0
 78 82  1  0  0  0
 78153  1  0  0  0
 78154  1  0  0  0
 79 80  1  0  0  0
 79155  1  0  0  0
 79156  1  0  0  0
 80 81  1  0  0  0
 80157  1  0  0  0
 80158  1  0  0  0
 81 85  1  0  0  0
 81159  1  0  0  0
 81160  1  0  0  0
 82161  1  0  0  0
 82162  1  0  0  0
 83 84  1  0  0  0
 85163  1  0  0  0
M  ISO  4   1 100  68 101  82 101  85 100
M  END
> <chiral flag>
0

> <version>
0

> <s_m_source_file>
/data/baiqing/PycharmProjects/Reinvent-master-3.2/result/LINK_invent/BTK/process_docking_weight1_custom_sum_contain_oxygen_bond_distance_aromatic_linkinvent_7_9_3/rearranged_h_0076.sdf

> <i_m_source_file_index>
88

> <r_mmod_Potential_Energy-OPLS-2005>
-13.430890083313

> <r_mmod_Stretch_Energy-OPLS-2005>
57.7449150085449

> <r_mmod_Bend_Energy-OPLS-2005>
130.080490112305

> <r_mmod_Torsional_Energy-OPLS-2005>
222.787750244141

> <r_mmod_Improper_Torsional_Energy-OPLS-2005>
10.0292854309082

> <r_mmod_Van_der_Waal_Energy-OPLS-2005>
148.713500976562

> <r_mmod_Electrostatic_Energy-OPLS-2005>
-379.03955078125

> <r_mmod_Solvation_Energy-OPLS-2005>
-230.327560424805

> <b_mmod_Minimization_Converged-OPLS-2005>
0

> <r_mmod_RMS_Derivative-OPLS-2005>
2.90905714035034

$$$$
88
                    3D
 Structure written by MMmdl.
171179  0  0  1  0            999 V2000
  -30.7899  -14.3325   20.7199 C   0  0  0  0  0  0
  -30.4143  -12.2926   19.3837 C   0  0  0  0  0  0
  -29.4787  -12.5319   18.1864 C   0  0  0  0  0  0
  -28.0060  -12.3804   18.6076 C   0  0  0  0  0  0
  -27.6656  -13.2025   19.8774 C   0  0  2  0  0  0
  -28.7018  -12.9438   20.9918 C   0  0  0  0  0  0
  -25.2607  -13.8160   20.5668 C   0  0  0  0  0  0
  -24.1849  -13.0441   20.9162 C   0  0  0  0  0  0
  -24.6392  -11.6906   20.8720 C   0  0  0  0  0  0
  -23.9056  -10.4292   21.0399 C   0  0  0  0  0  0
  -24.3611   -9.4211   21.9179 C   0  0  0  0  0  0
  -23.6288   -8.2247   22.0754 C   0  0  0  0  0  0
  -22.4270   -8.0282   21.3543 C   0  0  0  0  0  0
  -21.9903   -9.0254   20.4646 C   0  0  0  0  0  0
  -22.7229  -10.2133   20.3052 C   0  0  0  0  0  0
  -21.6852   -6.0735   22.5278 C   0  0  0  0  0  0
  -21.4014   -6.5638   23.8212 C   0  0  0  0  0  0
  -21.3658   -5.6791   24.9173 C   0  0  0  0  0  0
  -21.6045   -4.3055   24.7222 C   0  0  0  0  0  0
  -21.8820   -3.8147   23.4345 C   0  0  0  0  0  0
  -21.9193   -4.6964   22.3401 C   0  0  0  0  0  0
  -22.7873  -13.5246   21.1830 C   0  0  0  0  0  0
  -22.1661   -4.2150   21.0978 F   0  0  0  0  0  0
  -21.5630   -3.4539   25.7735 F   0  0  0  0  0  0
  -30.0483  -13.2274   20.4575 N   0  0  0  0  0  0
  -26.3042  -12.9321   20.3365 N   0  0  0  0  0  0
  -25.9317  -11.6482   20.5750 N   0  0  0  0  0  0
  -22.0512  -12.8240   22.0387 N   0  0  0  0  0  0
  -25.4353  -15.1874   20.4084 N   0  0  0  0  0  0
  -31.7772  -14.6632   20.0555 O   0  0  0  0  0  0
  -21.6639   -6.8878   21.4240 O   0  0  0  0  0  0
  -22.3557  -14.5553   20.6682 O   0  0  0  0  0  0
  -24.6112  -31.8704   23.2125 C   0  0  0  0  0  0
  -25.9018  -32.4839   23.8413 C   0  0  1  0  0  0
  -27.2347  -27.4630   20.0952 C   0  0  0  0  0  0
  -25.5882  -33.8636   24.2345 N   0  0  0  0  0  0
  -23.3980  -30.4926   21.5527 C   0  0  2  0  0  0
  -24.8455  -28.9582   20.1199 C   0  0  0  0  0  0
  -22.7392  -29.4667   22.5018 C   0  0  0  0  0  0
  -18.0265  -28.1371   22.8492 C   0  0  0  0  0  0
  -24.1489  -36.7325   23.2638 C   0  0  0  0  0  0
  -25.9232  -30.8419   21.3634 C   0  0  0  0  0  0
  -26.0017  -29.4750   20.7191 C   0  0  0  0  0  0
  -27.2009  -28.7313   20.7107 C   0  0  0  0  0  0
  -26.0697  -26.9551   19.4863 C   0  0  0  0  0  0
  -24.8714  -27.6936   19.5049 C   0  0  0  0  0  0
  -23.6056  -29.8216   20.1683 C   0  0  0  0  0  0
  -25.4108  -36.3123   24.0340 C   0  0  1  0  0  0
  -20.5852  -28.3653   23.1333 C   0  0  2  0  0  0
  -20.6760  -26.9393   22.5423 C   0  0  0  0  0  0
  -19.5741  -26.6380   21.5219 C   0  0  0  0  0  0
  -18.1913  -26.7919   22.1620 C   0  0  0  0  0  0
  -19.1513  -28.8828   23.2910 C   0  0  0  0  0  0
  -18.9445  -30.1436   23.8918 C   0  0  0  0  0  0
  -17.6449  -30.6581   24.0566 C   0  0  0  0  0  0
  -25.9031  -34.9484   23.5142 C   0  0  0  0  0  0
  -16.5340  -29.9086   23.6326 C   0  0  0  0  0  0
  -16.7255  -28.6503   23.0348 C   0  0  0  0  0  0
  -26.4457  -31.6606   25.0726 C   0  0  0  0  0  0
  -25.3726  -31.3699   26.1477 C   0  0  0  0  0  0
  -27.0286  -30.3056   24.6073 C   0  0  0  0  0  0
  -27.6043  -32.4317   25.7479 C   0  0  0  0  0  0
  -27.5583  -37.1814   24.8463 C   0  0  0  0  0  0
  -21.4123  -29.3028   22.3750 N   0  0  0  0  0  0
  -26.4299  -37.3803   23.9405 N   0  0  0  0  0  0
  -24.6622  -31.0822   22.1017 N   0  0  0  0  0  0
  -23.4174  -28.8215   23.3058 O   0  0  0  0  0  0
  -28.4017  -26.7466   20.0283 O   0  0  0  0  0  0
  -26.5596  -34.8922   22.4706 O   0  0  0  0  0  0
  -23.5313  -32.1447   23.7531 O   0  0  0  0  0  0
  -28.1305  -19.7194   21.9538 C   0  0  0  0  0  0
  -27.8441  -20.9547   22.4706 C   0  0  0  0  0  0
  -28.1908  -20.8276   23.8479 C   0  0  0  0  0  0
  -28.0833  -21.8475   24.9436 C   0  0  0  0  0  0
  -28.8803  -16.8155   24.2373 C   0  0  0  0  0  0
  -30.6862  -17.8671   20.8950 C   0  0  0  0  0  0
  -31.5572  -18.4011   23.1668 C   0  0  0  0  0  0
  -27.2840  -22.1567   21.7482 C   0  0  0  0  0  0
  -28.2261  -23.3742   21.8060 C   0  0  0  0  0  0
  -27.7631  -24.5320   20.9050 C   0  0  0  0  0  0
  -31.2154  -16.0215   22.5150 C   0  0  0  0  0  0
  -28.6062  -25.8094   21.0829 C   0  0  0  0  0  0
  -29.1375  -17.5524   22.9007 C   0  0  2  0  0  0
  -30.6221  -17.4530   22.3832 C   0  0  0  0  0  0
  -28.6753  -19.6301   24.1335 N   0  0  0  0  0  0
  -28.6398  -18.9353   22.9698 N   0  0  0  0  0  0
  -30.4412  -14.9811   21.8375 N   0  0  0  0  0  0
  -31.4561  -12.3986   19.0753 H   0  0  0  0  0  0
  -30.3179  -11.2670   19.7431 H   0  0  0  0  0  0
  -29.7104  -11.8327   17.3819 H   0  0  0  0  0  0
  -29.6459  -13.5319   17.7827 H   0  0  0  0  0  0
  -27.8184  -11.3214   18.7900 H   0  0  0  0  0  0
  -27.3487  -12.6680   17.7863 H   0  0  0  0  0  0
  -27.7250  -14.2570   19.6060 H   0  0  0  0  0  0
  -28.6595  -11.9018   21.3120 H   0  0  0  0  0  0
  -28.4429  -13.5280   21.8746 H   0  0  0  0  0  0
  -25.2760   -9.5691   22.4748 H   0  0  0  0  0  0
  -24.0000   -7.4641   22.7474 H   0  0  0  0  0  0
  -21.0836   -8.8771   19.8950 H   0  0  0  0  0  0
  -22.3690  -10.9671   19.6160 H   0  0  0  0  0  0
  -21.2006   -7.6146   23.9715 H   0  0  0  0  0  0
  -21.1479   -6.0521   25.9074 H   0  0  0  0  0  0
  -22.0600   -2.7610   23.2844 H   0  0  0  0  0  0
  -22.4120  -11.9899   22.4776 H   0  0  0  0  0  0
  -21.1132  -13.1272   22.2590 H   0  0  0  0  0  0
  -24.6738  -15.8481   20.5186 H   0  0  0  0  0  0
  -26.2958  -15.6214   20.0989 H   0  0  0  0  0  0
  -26.7088  -32.5567   23.1182 H   0  0  0  0  0  0
  -25.0035  -33.9812   25.0489 H   0  0  0  0  0  0
  -22.6853  -31.3081   21.4131 H   0  0  0  0  0  0
  -23.3745  -35.9664   23.3317 H   0  0  0  0  0  0
  -24.3586  -36.8929   22.2050 H   0  0  0  0  0  0
  -23.7244  -37.6535   23.6644 H   0  0  0  0  0  0
  -26.0293  -31.6034   20.5896 H   0  0  0  0  0  0
  -26.8140  -30.9013   21.9768 H   0  0  0  0  0  0
  -28.0982  -29.1280   21.1646 H   0  0  0  0  0  0
  -26.0934  -25.9929   18.9945 H   0  0  0  0  0  0
  -23.9837  -27.2915   19.0370 H   0  0  0  0  0  0
  -23.7091  -30.5947   19.4062 H   0  0  0  0  0  0
  -22.7312  -29.2377   19.8755 H   0  0  0  0  0  0
  -25.1283  -36.1999   25.0833 H   0  0  0  0  0  0
  -20.9934  -28.3210   24.1457 H   0  0  0  0  0  0
  -20.5675  -26.2256   23.3606 H   0  0  0  0  0  0
  -21.6633  -26.7448   22.1208 H   0  0  0  0  0  0
  -19.6911  -25.6299   21.1232 H   0  0  0  0  0  0
  -19.6685  -27.3208   20.6765 H   0  0  0  0  0  0
  -17.4189  -26.6672   21.4015 H   0  0  0  0  0  0
  -18.0304  -26.0054   22.9006 H   0  0  0  0  0  0
  -19.7923  -30.7245   24.2292 H   0  0  0  0  0  0
  -17.5006  -31.6265   24.5162 H   0  0  0  0  0  0
  -15.5342  -30.2997   23.7643 H   0  0  0  0  0  0
  -15.8650  -28.0835   22.7052 H   0  0  0  0  0  0
  -24.5901  -30.7045   25.7813 H   0  0  0  0  0  0
  -24.8906  -32.2847   26.4934 H   0  0  0  0  0  0
  -25.8072  -30.8859   27.0231 H   0  0  0  0  0  0
  -26.2825  -29.6826   24.1124 H   0  0  0  0  0  0
  -27.4081  -29.7279   25.4513 H   0  0  0  0  0  0
  -27.8646  -30.4405   23.9202 H   0  0  0  0  0  0
  -27.2675  -33.3608   26.2090 H   0  0  0  0  0  0
  -28.3823  -32.6894   25.0281 H   0  0  0  0  0  0
  -28.0737  -31.8417   26.5362 H   0  0  0  0  0  0
  -28.2606  -38.0107   24.7509 H   0  0  0  0  0  0
  -28.1070  -36.2637   24.6286 H   0  0  0  0  0  0
  -27.2299  -37.1467   25.8866 H   0  0  0  0  0  0
  -20.9278  -29.8745   21.6972 H   0  0  0  0  0  0
  -26.0193  -38.2887   24.1394 H   0  0  0  0  0  0
  -28.0267  -19.3373   20.9474 H   0  0  0  0  0  0
  -27.2451  -22.5225   24.7729 H   0  0  0  0  0  0
  -28.9894  -22.4500   25.0057 H   0  0  0  0  0  0
  -27.9305  -21.3788   25.9163 H   0  0  0  0  0  0
  -29.0332  -15.7411   24.1503 H   0  0  0  0  0  0
  -27.8492  -16.9542   24.5634 H   0  0  0  0  0  0
  -29.5282  -17.1805   25.0338 H   0  0  0  0  0  0
  -31.6805  -17.6988   20.4793 H   0  0  0  0  0  0
  -30.4626  -18.9240   20.7538 H   0  0  0  0  0  0
  -29.9827  -17.2985   20.2861 H   0  0  0  0  0  0
  -32.5903  -18.3120   22.8292 H   0  0  0  0  0  0
  -31.5457  -18.1816   24.2345 H   0  0  0  0  0  0
  -31.2759  -19.4475   23.0458 H   0  0  0  0  0  0
  -26.3152  -22.4346   22.1655 H   0  0  0  0  0  0
  -27.0888  -21.9085   20.7039 H   0  0  0  0  0  0
  -29.2289  -23.0732   21.4997 H   0  0  0  0  0  0
  -28.3119  -23.7255   22.8345 H   0  0  0  0  0  0
  -26.7168  -24.7581   21.1125 H   0  0  0  0  0  0
  -27.8098  -24.2104   19.8637 H   0  0  0  0  0  0
  -31.2966  -15.7405   23.5654 H   0  0  0  0  0  0
  -32.2464  -16.0136   22.1549 H   0  0  0  0  0  0
  -29.6646  -25.5479   21.0728 H   0  0  0  0  0  0
  -28.4121  -26.2696   22.0538 H   0  0  0  0  0  0
  -28.5044  -17.0477   22.1687 H   0  0  0  0  0  0
  -29.6377  -14.6163   22.3262 H   0  0  0  0  0  0
  1 25  1  0  0  0
  1 30  2  0  0  0
  1 87  1  0  0  0
  2  3  1  0  0  0
  2 25  1  0  0  0
  2 88  1  0  0  0
  2 89  1  0  0  0
  3  4  1  0  0  0
  3 90  1  0  0  0
  3 91  1  0  0  0
  4  5  1  0  0  0
  4 92  1  0  0  0
  4 93  1  0  0  0
  5  6  1  0  0  0
  5 26  1  0  0  0
  5 94  1  0  0  0
  6 25  1  0  0  0
  6 95  1  0  0  0
  6 96  1  0  0  0
  7  8  2  0  0  0
  7 26  1  0  0  0
  7 29  1  0  0  0
  8  9  1  0  0  0
  8 22  1  0  0  0
  9 10  1  0  0  0
  9 27  2  0  0  0
 10 11  2  0  0  0
 10 15  1  0  0  0
 11 12  1  0  0  0
 11 97  1  0  0  0
 12 13  2  0  0  0
 12 98  1  0  0  0
 13 14  1  0  0  0
 13 31  1  0  0  0
 14 15  2  0  0  0
 14 99  1  0  0  0
 15100  1  0  0  0
 16 17  2  0  0  0
 16 21  1  0  0  0
 16 31  1  0  0  0
 17 18  1  0  0  0
 17101  1  0  0  0
 18 19  2  0  0  0
 18102  1  0  0  0
 19 20  1  0  0  0
 19 24  1  0  0  0
 20 21  2  0  0  0
 20103  1  0  0  0
 21 23  1  0  0  0
 22 28  1  0  0  0
 22 32  2  0  0  0
 26 27  1  0  0  0
 28104  1  0  0  0
 28105  1  0  0  0
 29106  1  0  0  0
 29107  1  0  0  0
 33 34  1  0  0  0
 33 66  1  0  0  0
 33 70  2  0  0  0
 34 36  1  0  0  0
 34 59  1  0  0  0
 34108  1  0  0  0
 35 44  2  0  0  0
 35 45  1  0  0  0
 35 68  1  0  0  0
 36 56  1  0  0  0
 36109  1  0  0  0
 37 39  1  0  0  0
 37 47  1  0  0  0
 37 66  1  0  0  0
 37110  1  0  0  0
 38 43  2  0  0  0
 38 46  1  0  0  0
 38 47  1  0  0  0
 39 64  1  0  0  0
 39 67  2  0  0  0
 40 52  1  0  0  0
 40 53  2  0  0  0
 40 58  1  0  0  0
 41111  1  0  0  0
 41112  1  0  0  0
 41113  1  0  0  0
 41 48  1  0  0  0
 42 43  1  0  0  0
 42 66  1  0  0  0
 42114  1  0  0  0
 42115  1  0  0  0
 43 44  1  0  0  0
 44116  1  0  0  0
 45 46  2  0  0  0
 45117  1  0  0  0
 46118  1  0  0  0
 47119  1  0  0  0
 47120  1  0  0  0
 48 56  1  0  0  0
 48 65  1  0  0  0
 48121  1  0  0  0
 49 50  1  0  0  0
 49 53  1  0  0  0
 49 64  1  0  0  0
 49122  1  0  0  0
 50 51  1  0  0  0
 50123  1  0  0  0
 50124  1  0  0  0
 51 52  1  0  0  0
 51125  1  0  0  0
 51126  1  0  0  0
 52127  1  0  0  0
 52128  1  0  0  0
 53 54  1  0  0  0
 54 55  2  0  0  0
 54129  1  0  0  0
 55 57  1  0  0  0
 55130  1  0  0  0
 56 69  2  0  0  0
 57 58  2  0  0  0
 57131  1  0  0  0
 58132  1  0  0  0
 59 60  1  0  0  0
 59 61  1  0  0  0
 59 62  1  0  0  0
 60133  1  0  0  0
 60134  1  0  0  0
 60135  1  0  0  0
 61136  1  0  0  0
 61137  1  0  0  0
 61138  1  0  0  0
 62139  1  0  0  0
 62140  1  0  0  0
 62141  1  0  0  0
 63 65  1  0  0  0
 63142  1  0  0  0
 63143  1  0  0  0
 63144  1  0  0  0
 64145  1  0  0  0
 65146  1  0  0  0
 68 82  1  0  0  0
 71 72  2  0  0  0
 71 86  1  0  0  0
 71147  1  0  0  0
 72 73  1  0  0  0
 72 78  1  0  0  0
 73 74  1  0  0  0
 73 85  2  0  0  0
 74148  1  0  0  0
 74149  1  0  0  0
 74150  1  0  0  0
 75151  1  0  0  0
 75152  1  0  0  0
 75153  1  0  0  0
 75 83  1  0  0  0
 76154  1  0  0  0
 76155  1  0  0  0
 76156  1  0  0  0
 76 84  1  0  0  0
 77 84  1  0  0  0
 77157  1  0  0  0
 77158  1  0  0  0
 77159  1  0  0  0
 78 79  1  0  0  0
 78160  1  0  0  0
 78161  1  0  0  0
 79 80  1  0  0  0
 79162  1  0  0  0
 79163  1  0  0  0
 80 82  1  0  0  0
 80164  1  0  0  0
 80165  1  0  0  0
 81 84  1  0  0  0
 81 87  1  0  0  0
 81166  1  0  0  0
 81167  1  0  0  0
 82168  1  0  0  0
 82169  1  0  0  0
 83 84  1  0  0  0
 83 86  1  0  0  0
 83170  1  0  0  0
 85 86  1  0  0  0
 87171  1  0  0  0
M  ISO  4   1 100  68 101  82 101  87 100
M  END
> <chiral flag>
0

> <version>
0

> <s_m_source_file>
/data/baiqing/PycharmProjects/Reinvent-master-3.2/result/LINK_invent/BTK/process_docking_weight1_custom_sum_contain_oxygen_bond_distance_aromatic_linkinvent_7_9_3/rearranged_h_0076.sdf

> <i_m_source_file_index>
89

> <r_mmod_Potential_Energy-OPLS-2005>
-117.332824707031

> <r_mmod_Stretch_Energy-OPLS-2005>
34.5661354064941

> <r_mmod_Bend_Energy-OPLS-2005>
95.2968215942383

> <r_mmod_Torsional_Energy-OPLS-2005>
253.135330200195

> <r_mmod_Improper_Torsional_Energy-OPLS-2005>
2.73750472068787

> <r_mmod_Van_der_Waal_Energy-OPLS-2005>
127.477867126465

> <r_mmod_Electrostatic_Energy-OPLS-2005>
-433.200286865234

> <r_mmod_Solvation_Energy-OPLS-2005>
-203.976638793945

> <b_mmod_Minimization_Converged-OPLS-2005>
0

> <r_mmod_RMS_Derivative-OPLS-2005>
0.692664802074432

$$$$
89
                    3D
 Structure written by MMmdl.
164172  0  0  1  0            999 V2000
  -30.6830  -14.5995   20.5802 C   0  0  0  0  0  0
  -30.4262  -12.3868   19.4513 C   0  0  0  0  0  0
  -29.5074  -12.5182   18.2176 C   0  0  0  0  0  0
  -28.0286  -12.3524   18.6205 C   0  0  0  0  0  0
  -27.6503  -13.2171   19.8518 C   0  0  2  0  0  0
  -28.6861  -13.0522   20.9800 C   0  0  0  0  0  0
  -25.2559  -13.8181   20.5645 C   0  0  0  0  0  0
  -24.1830  -13.0448   20.9171 C   0  0  0  0  0  0
  -24.6404  -11.6919   20.8741 C   0  0  0  0  0  0
  -23.9085  -10.4305   21.0422 C   0  0  0  0  0  0
  -24.3631   -9.4210   21.9194 C   0  0  0  0  0  0
  -23.6310   -8.2243   22.0751 C   0  0  0  0  0  0
  -22.4297   -8.0281   21.3543 C   0  0  0  0  0  0
  -21.9936   -9.0260   20.4651 C   0  0  0  0  0  0
  -22.7269  -10.2134   20.3070 C   0  0  0  0  0  0
  -21.6853   -6.0744   22.5283 C   0  0  0  0  0  0
  -21.4009   -6.5643   23.8221 C   0  0  0  0  0  0
  -21.3662   -5.6792   24.9177 C   0  0  0  0  0  0
  -21.6045   -4.3052   24.7225 C   0  0  0  0  0  0
  -21.8823   -3.8150   23.4340 C   0  0  0  0  0  0
  -21.9189   -4.6972   22.3405 C   0  0  0  0  0  0
  -22.7852  -13.5237   21.1837 C   0  0  0  0  0  0
  -22.1655   -4.2163   21.0978 F   0  0  0  0  0  0
  -21.5639   -3.4535   25.7731 F   0  0  0  0  0  0
  -30.0094  -13.4059   20.4391 N   0  0  0  0  0  0
  -26.2962  -12.9354   20.3222 N   0  0  0  0  0  0
  -25.9320  -11.6512   20.5705 N   0  0  0  0  0  0
  -22.0483  -12.8256   22.0394 N   0  0  0  0  0  0
  -25.4292  -15.1895   20.4090 N   0  0  0  0  0  0
  -31.8059  -14.7323   20.0774 O   0  0  0  0  0  0
  -21.6642   -6.8891   21.4245 O   0  0  0  0  0  0
  -22.3545  -14.5548   20.6686 O   0  0  0  0  0  0
  -24.6252  -31.8618   23.2029 C   0  0  0  0  0  0
  -25.9108  -32.4794   23.8351 C   0  0  1  0  0  0
  -27.2232  -27.3323   20.1207 C   0  0  0  0  0  0
  -25.5930  -33.8593   24.2277 N   0  0  0  0  0  0
  -23.4172  -30.4856   21.5468 C   0  0  2  0  0  0
  -24.8621  -28.9379   20.1159 C   0  0  0  0  0  0
  -22.7462  -29.4644   22.4961 C   0  0  0  0  0  0
  -18.0285  -28.1394   22.8487 C   0  0  0  0  0  0
  -24.1491  -36.7297   23.2634 C   0  0  0  0  0  0
  -25.9567  -30.7980   21.3692 C   0  0  0  0  0  0
  -26.0316  -29.4252   20.7135 C   0  0  0  0  0  0
  -27.2179  -28.6361   20.7005 C   0  0  0  0  0  0
  -26.0333  -26.8922   19.5006 C   0  0  0  0  0  0
  -24.8636  -27.6759   19.5009 C   0  0  0  0  0  0
  -23.6303  -29.8185   20.1630 C   0  0  0  0  0  0
  -25.4117  -36.3092   24.0325 C   0  0  1  0  0  0
  -20.5880  -28.3701   23.1295 C   0  0  2  0  0  0
  -20.6786  -26.9430   22.5420 C   0  0  0  0  0  0
  -19.5764  -26.6388   21.5225 C   0  0  0  0  0  0
  -18.1935  -26.7939   22.1622 C   0  0  0  0  0  0
  -19.1532  -28.8862   23.2888 C   0  0  0  0  0  0
  -18.9455  -30.1462   23.8909 C   0  0  0  0  0  0
  -17.6456  -30.6596   24.0567 C   0  0  0  0  0  0
  -25.9050  -34.9461   23.5096 C   0  0  0  0  0  0
  -16.5350  -29.9095   23.6329 C   0  0  0  0  0  0
  -16.7271  -28.6513   23.0349 C   0  0  0  0  0  0
  -26.4488  -31.6601   25.0720 C   0  0  0  0  0  0
  -25.3711  -31.3759   26.1442 C   0  0  0  0  0  0
  -27.0316  -30.3020   24.6167 C   0  0  0  0  0  0
  -27.6046  -32.4342   25.7494 C   0  0  0  0  0  0
  -27.5584  -37.1803   24.8459 C   0  0  0  0  0  0
  -21.4181  -29.3052   22.3687 N   0  0  0  0  0  0
  -26.4294  -37.3786   23.9407 N   0  0  0  0  0  0
  -24.6857  -31.0642   22.0972 N   0  0  0  0  0  0
  -23.4189  -28.8187   23.3041 O   0  0  0  0  0  0
  -28.3522  -26.5064   20.1276 O   0  0  0  0  0  0
  -26.5617  -34.8930   22.4661 O   0  0  0  0  0  0
  -23.5425  -32.1408   23.7375 O   0  0  0  0  0  0
  -29.0280  -19.3197   21.1866 C   0  0  0  0  0  0
  -29.0922  -17.9313   21.4994 C   0  0  0  0  0  0
  -29.8382  -19.8518   20.1585 C   0  0  0  0  0  0
  -30.6485  -18.8926   19.4877 C   0  0  0  0  0  0
  -29.9522  -17.0325   20.8006 C   0  0  0  0  0  0
  -31.5930  -19.3035   18.3718 C   0  0  0  0  0  0
  -28.8476  -24.0402   18.3177 C   0  0  0  0  0  0
  -30.5981  -24.4665   20.0657 C   0  0  0  0  0  0
  -29.9650  -15.4424   22.7152 C   0  0  0  0  0  0
  -29.9158  -21.3765   19.7686 C   0  0  0  0  0  0
  -28.9637  -22.5031   20.3709 C   0  0  0  0  0  0
  -28.1883  -25.0868   20.5164 C   0  0  0  0  0  0
  -29.1436  -24.0108   19.8311 C   0  0  0  0  0  0
  -30.6823  -17.5628   19.7857 N   0  0  0  0  0  0
  -30.0697  -15.6350   21.2593 N   0  0  0  0  0  0
  -31.4715  -12.4893   19.1549 H   0  0  0  0  0  0
  -30.3433  -11.3883   19.8836 H   0  0  0  0  0  0
  -29.7788  -11.7774   17.4636 H   0  0  0  0  0  0
  -29.6559  -13.4946   17.7538 H   0  0  0  0  0  0
  -27.8611  -11.2977   18.8427 H   0  0  0  0  0  0
  -27.3801  -12.5885   17.7760 H   0  0  0  0  0  0
  -27.6748  -14.2577   19.5254 H   0  0  0  0  0  0
  -28.6964  -12.0212   21.3360 H   0  0  0  0  0  0
  -28.3921  -13.6496   21.8392 H   0  0  0  0  0  0
  -25.2768   -9.5679   22.4777 H   0  0  0  0  0  0
  -24.0020   -7.4630   22.7465 H   0  0  0  0  0  0
  -21.0869   -8.8791   19.8965 H   0  0  0  0  0  0
  -22.3738  -10.9673   19.6180 H   0  0  0  0  0  0
  -21.1996   -7.6154   23.9735 H   0  0  0  0  0  0
  -21.1481   -6.0511   25.9087 H   0  0  0  0  0  0
  -22.0603   -2.7616   23.2833 H   0  0  0  0  0  0
  -22.4058  -11.9918   22.4812 H   0  0  0  0  0  0
  -21.1091  -13.1285   22.2560 H   0  0  0  0  0  0
  -24.6714  -15.8518   20.5384 H   0  0  0  0  0  0
  -26.2900  -15.6280   20.1069 H   0  0  0  0  0  0
  -26.7177  -32.5465   23.1105 H   0  0  0  0  0  0
  -25.0103  -33.9746   25.0439 H   0  0  0  0  0  0
  -22.7112  -31.3066   21.4049 H   0  0  0  0  0  0
  -23.3764  -35.9618   23.3289 H   0  0  0  0  0  0
  -24.3584  -36.8925   22.2050 H   0  0  0  0  0  0
  -23.7233  -37.6491   23.6662 H   0  0  0  0  0  0
  -26.0822  -31.5615   20.6004 H   0  0  0  0  0  0
  -26.8395  -30.8490   21.9947 H   0  0  0  0  0  0
  -28.1208  -29.0116   21.1609 H   0  0  0  0  0  0
  -25.9960  -25.9315   19.0080 H   0  0  0  0  0  0
  -23.9667  -27.2976   19.0299 H   0  0  0  0  0  0
  -23.7512  -30.5947   19.4068 H   0  0  0  0  0  0
  -22.7490  -29.2497   19.8611 H   0  0  0  0  0  0
  -25.1300  -36.1942   25.0818 H   0  0  0  0  0  0
  -20.9974  -28.3284   24.1416 H   0  0  0  0  0  0
  -20.5712  -26.2314   23.3620 H   0  0  0  0  0  0
  -21.6652  -26.7487   22.1197 H   0  0  0  0  0  0
  -19.6931  -25.6295   21.1266 H   0  0  0  0  0  0
  -19.6706  -27.3190   20.6748 H   0  0  0  0  0  0
  -17.4217  -26.6701   21.4010 H   0  0  0  0  0  0
  -18.0319  -26.0076   22.9010 H   0  0  0  0  0  0
  -19.7929  -30.7274   24.2286 H   0  0  0  0  0  0
  -17.5011  -31.6278   24.5166 H   0  0  0  0  0  0
  -15.5349  -30.3003   23.7648 H   0  0  0  0  0  0
  -15.8671  -28.0837   22.7061 H   0  0  0  0  0  0
  -24.5882  -30.7113   25.7767 H   0  0  0  0  0  0
  -24.8904  -32.2938   26.4839 H   0  0  0  0  0  0
  -25.8017  -30.8950   27.0231 H   0  0  0  0  0  0
  -26.2879  -29.6792   24.1181 H   0  0  0  0  0  0
  -27.3995  -29.7265   25.4672 H   0  0  0  0  0  0
  -27.8760  -30.4300   23.9390 H   0  0  0  0  0  0
  -27.2644  -33.3640   26.2070 H   0  0  0  0  0  0
  -28.3854  -32.6914   25.0323 H   0  0  0  0  0  0
  -28.0713  -31.8471   26.5414 H   0  0  0  0  0  0
  -28.2597  -38.0106   24.7524 H   0  0  0  0  0  0
  -28.1088  -36.2642   24.6264 H   0  0  0  0  0  0
  -27.2307  -37.1423   25.8862 H   0  0  0  0  0  0
  -20.9362  -29.8754   21.6879 H   0  0  0  0  0  0
  -26.0178  -38.2860   24.1420 H   0  0  0  0  0  0
  -28.3803  -19.9687   21.7578 H   0  0  0  0  0  0
  -28.4728  -17.5746   22.3087 H   0  0  0  0  0  0
  -31.0330  -19.6503   17.5041 H   0  0  0  0  0  0
  -32.2206  -18.4719   18.0494 H   0  0  0  0  0  0
  -32.2579  -20.1033   18.7001 H   0  0  0  0  0  0
  -29.5835  -23.4757   17.7447 H   0  0  0  0  0  0
  -28.8604  -25.0598   17.9300 H   0  0  0  0  0  0
  -27.8637  -23.6243   18.0984 H   0  0  0  0  0  0
  -31.3145  -23.8511   19.5219 H   0  0  0  0  0  0
  -30.8627  -24.4269   21.1227 H   0  0  0  0  0  0
  -30.7532  -25.4916   19.7279 H   0  0  0  0  0  0
  -30.5390  -16.2075   23.2383 H   0  0  0  0  0  0
  -30.3509  -14.4789   23.0563 H   0  0  0  0  0  0
  -28.9292  -15.5127   23.0455 H   0  0  0  0  0  0
  -29.8203  -21.4100   18.6841 H   0  0  0  0  0  0
  -30.9438  -21.6707   19.9776 H   0  0  0  0  0  0
  -29.0855  -22.5086   21.4551 H   0  0  0  0  0  0
  -27.9309  -22.2003   20.1952 H   0  0  0  0  0  0
  -28.3543  -25.0481   21.5939 H   0  0  0  0  0  0
  -27.1614  -24.7465   20.3939 H   0  0  0  0  0  0
  1 25  1  0  0  0
  1 30  2  0  0  0
  1 85  1  0  0  0
  2  3  1  0  0  0
  2 25  1  0  0  0
  2 86  1  0  0  0
  2 87  1  0  0  0
  3  4  1  0  0  0
  3 88  1  0  0  0
  3 89  1  0  0  0
  4  5  1  0  0  0
  4 90  1  0  0  0
  4 91  1  0  0  0
  5  6  1  0  0  0
  5 26  1  0  0  0
  5 92  1  0  0  0
  6 25  1  0  0  0
  6 93  1  0  0  0
  6 94  1  0  0  0
  7  8  2  0  0  0
  7 26  1  0  0  0
  7 29  1  0  0  0
  8  9  1  0  0  0
  8 22  1  0  0  0
  9 10  1  0  0  0
  9 27  2  0  0  0
 10 11  2  0  0  0
 10 15  1  0  0  0
 11 12  1  0  0  0
 11 95  1  0  0  0
 12 13  2  0  0  0
 12 96  1  0  0  0
 13 14  1  0  0  0
 13 31  1  0  0  0
 14 15  2  0  0  0
 14 97  1  0  0  0
 15 98  1  0  0  0
 16 17  2  0  0  0
 16 21  1  0  0  0
 16 31  1  0  0  0
 17 18  1  0  0  0
 17 99  1  0  0  0
 18 19  2  0  0  0
 18100  1  0  0  0
 19 20  1  0  0  0
 19 24  1  0  0  0
 20 21  2  0  0  0
 20101  1  0  0  0
 21 23  1  0  0  0
 22 28  1  0  0  0
 22 32  2  0  0  0
 26 27  1  0  0  0
 28102  1  0  0  0
 28103  1  0  0  0
 29104  1  0  0  0
 29105  1  0  0  0
 33 34  1  0  0  0
 33 66  1  0  0  0
 33 70  2  0  0  0
 34 36  1  0  0  0
 34 59  1  0  0  0
 34106  1  0  0  0
 35 44  2  0  0  0
 35 45  1  0  0  0
 35 68  1  0  0  0
 36 56  1  0  0  0
 36107  1  0  0  0
 37 39  1  0  0  0
 37 47  1  0  0  0
 37 66  1  0  0  0
 37108  1  0  0  0
 38 43  2  0  0  0
 38 46  1  0  0  0
 38 47  1  0  0  0
 39 64  1  0  0  0
 39 67  2  0  0  0
 40 52  1  0  0  0
 40 53  2  0  0  0
 40 58  1  0  0  0
 41109  1  0  0  0
 41110  1  0  0  0
 41111  1  0  0  0
 41 48  1  0  0  0
 42 43  1  0  0  0
 42 66  1  0  0  0
 42112  1  0  0  0
 42113  1  0  0  0
 43 44  1  0  0  0
 44114  1  0  0  0
 45 46  2  0  0  0
 45115  1  0  0  0
 46116  1  0  0  0
 47117  1  0  0  0
 47118  1  0  0  0
 48 56  1  0  0  0
 48 65  1  0  0  0
 48119  1  0  0  0
 49 50  1  0  0  0
 49 53  1  0  0  0
 49 64  1  0  0  0
 49120  1  0  0  0
 50 51  1  0  0  0
 50121  1  0  0  0
 50122  1  0  0  0
 51 52  1  0  0  0
 51123  1  0  0  0
 51124  1  0  0  0
 52125  1  0  0  0
 52126  1  0  0  0
 53 54  1  0  0  0
 54 55  2  0  0  0
 54127  1  0  0  0
 55 57  1  0  0  0
 55128  1  0  0  0
 56 69  2  0  0  0
 57 58  2  0  0  0
 57129  1  0  0  0
 58130  1  0  0  0
 59 60  1  0  0  0
 59 61  1  0  0  0
 59 62  1  0  0  0
 60131  1  0  0  0
 60132  1  0  0  0
 60133  1  0  0  0
 61134  1  0  0  0
 61135  1  0  0  0
 61136  1  0  0  0
 62137  1  0  0  0
 62138  1  0  0  0
 62139  1  0  0  0
 63 65  1  0  0  0
 63140  1  0  0  0
 63141  1  0  0  0
 63142  1  0  0  0
 64143  1  0  0  0
 65144  1  0  0  0
 68 82  1  0  0  0
 71 72  2  0  0  0
 71 73  1  0  0  0
 71145  1  0  0  0
 72 75  1  0  0  0
 72146  1  0  0  0
 73 74  2  0  0  0
 73 80  1  0  0  0
 74 76  1  0  0  0
 74 84  1  0  0  0
 75 84  2  0  0  0
 75 85  1  0  0  0
 76147  1  0  0  0
 76148  1  0  0  0
 76149  1  0  0  0
 77150  1  0  0  0
 77151  1  0  0  0
 77152  1  0  0  0
 77 83  1  0  0  0
 78 83  1  0  0  0
 78153  1  0  0  0
 78154  1  0  0  0
 78155  1  0  0  0
 79 85  1  0  0  0
 79156  1  0  0  0
 79157  1  0  0  0
 79158  1  0  0  0
 80 81  1  0  0  0
 80159  1  0  0  0
 80160  1  0  0  0
 81 83  1  0  0  0
 81161  1  0  0  0
 81162  1  0  0  0
 82 83  1  0  0  0
 82163  1  0  0  0
 82164  1  0  0  0
M  ISO  4   1 100  68 101  82 101  85 100
M  END
> <chiral flag>
0

> <version>
0

> <s_m_source_file>
/data/baiqing/PycharmProjects/Reinvent-master-3.2/result/LINK_invent/BTK/process_docking_weight1_custom_sum_contain_oxygen_bond_distance_aromatic_linkinvent_7_9_3/rearranged_h_0076.sdf

> <i_m_source_file_index>
90

> <r_mmod_Potential_Energy-OPLS-2005>
89.5797882080078

> <r_mmod_Stretch_Energy-OPLS-2005>
86.0906600952148

> <r_mmod_Bend_Energy-OPLS-2005>
147.353317260742

> <r_mmod_Torsional_Energy-OPLS-2005>
288.505065917969

> <r_mmod_Improper_Torsional_Energy-OPLS-2005>
3.17229533195496

> <r_mmod_Van_der_Waal_Energy-OPLS-2005>
155.686538696289

> <r_mmod_Electrostatic_Energy-OPLS-2005>
-428.735687255859

> <r_mmod_Solvation_Energy-OPLS-2005>
-198.76594543457

> <b_mmod_Minimization_Converged-OPLS-2005>
0

> <r_mmod_RMS_Derivative-OPLS-2005>
1.72193336486816

$$$$
90
                    3D
 Structure written by MMmdl.
154162  0  0  1  0            999 V2000
  -30.5761  -14.9106   20.4260 C   0  0  0  0  0  0
  -30.4218  -12.5488   19.5186 C   0  0  0  0  0  0
  -29.5269  -12.5517   18.2593 C   0  0  0  0  0  0
  -28.0631  -12.3002   18.6669 C   0  0  0  0  0  0
  -27.6277  -13.2331   19.8280 C   0  0  2  0  0  0
  -28.6606  -13.2782   20.9758 C   0  0  0  0  0  0
  -25.2502  -13.8194   20.5731 C   0  0  0  0  0  0
  -24.1774  -13.0416   20.9234 C   0  0  0  0  0  0
  -24.6366  -11.6904   20.8708 C   0  0  0  0  0  0
  -23.9039  -10.4264   21.0379 C   0  0  0  0  0  0
  -24.3595   -9.4193   21.9171 C   0  0  0  0  0  0
  -23.6260   -8.2235   22.0759 C   0  0  0  0  0  0
  -22.4240   -8.0266   21.3550 C   0  0  0  0  0  0
  -21.9873   -9.0239   20.4651 C   0  0  0  0  0  0
  -22.7204  -10.2112   20.3041 C   0  0  0  0  0  0
  -21.6856   -6.0711   22.5281 C   0  0  0  0  0  0
  -21.4005   -6.5621   23.8209 C   0  0  0  0  0  0
  -21.3678   -5.6783   24.9179 C   0  0  0  0  0  0
  -21.6049   -4.3044   24.7240 C   0  0  0  0  0  0
  -21.8805   -3.8122   23.4356 C   0  0  0  0  0  0
  -21.9177   -4.6934   22.3405 C   0  0  0  0  0  0
  -22.7795  -13.5194   21.1912 C   0  0  0  0  0  0
  -22.1649   -4.2120   21.0994 F   0  0  0  0  0  0
  -21.5639   -3.4533   25.7757 F   0  0  0  0  0  0
  -29.9566  -13.6586   20.4036 N   0  0  0  0  0  0
  -26.2850  -12.9362   20.3131 N   0  0  0  0  0  0
  -25.9277  -11.6506   20.5635 N   0  0  0  0  0  0
  -22.0450  -12.8142   22.0466 N   0  0  0  0  0  0
  -25.4326  -15.1911   20.4300 N   0  0  0  0  0  0
  -31.7524  -14.9239   20.0415 O   0  0  0  0  0  0
  -21.6619   -6.8852   21.4242 O   0  0  0  0  0  0
  -22.3455  -14.5493   20.6780 O   0  0  0  0  0  0
  -24.6452  -31.8459   23.1820 C   0  0  0  0  0  0
  -25.9219  -32.4721   23.8218 C   0  0  1  0  0  0
  -27.2230  -27.1363   20.1472 C   0  0  0  0  0  0
  -25.5957  -33.8506   24.2149 N   0  0  0  0  0  0
  -23.4432  -30.4594   21.5361 C   0  0  2  0  0  0
  -24.8888  -28.8759   20.1162 C   0  0  0  0  0  0
  -22.7554  -29.4556   22.4940 C   0  0  0  0  0  0
  -18.0277  -28.1373   22.8462 C   0  0  0  0  0  0
  -24.1472  -36.7238   23.2638 C   0  0  0  0  0  0
  -25.9999  -30.7138   21.3777 C   0  0  0  0  0  0
  -26.0681  -29.3221   20.7252 C   0  0  0  0  0  0
  -27.2359  -28.4706   20.7205 C   0  0  0  0  0  0
  -26.0156  -26.7890   19.5004 C   0  0  0  0  0  0
  -24.8736  -27.6198   19.4909 C   0  0  0  0  0  0
  -23.6609  -29.7724   20.1622 C   0  0  0  0  0  0
  -25.4121  -36.3039   24.0308 C   0  0  1  0  0  0
  -20.5883  -28.3685   23.1243 C   0  0  2  0  0  0
  -20.6746  -26.9391   22.5383 C   0  0  0  0  0  0
  -19.5756  -26.6365   21.5173 C   0  0  0  0  0  0
  -18.1950  -26.7913   22.1598 C   0  0  0  0  0  0
  -19.1532  -28.8852   23.2828 C   0  0  0  0  0  0
  -18.9453  -30.1451   23.8839 C   0  0  0  0  0  0
  -17.6447  -30.6579   24.0521 C   0  0  0  0  0  0
  -25.9083  -34.9427   23.5050 C   0  0  0  0  0  0
  -16.5346  -29.9062   23.6324 C   0  0  0  0  0  0
  -16.7259  -28.6467   23.0377 C   0  0  0  0  0  0
  -26.4472  -31.6632   25.0710 C   0  0  0  0  0  0
  -25.3594  -31.3880   26.1373 C   0  0  0  0  0  0
  -27.0329  -30.3025   24.6328 C   0  0  0  0  0  0
  -27.6015  -32.4382   25.7496 C   0  0  0  0  0  0
  -27.5575  -37.1783   24.8476 C   0  0  0  0  0  0
  -21.4248  -29.3027   22.3662 N   0  0  0  0  0  0
  -26.4282  -37.3773   23.9422 N   0  0  0  0  0  0
  -24.7163  -31.0307   22.0848 N   0  0  0  0  0  0
  -23.4217  -28.8189   23.3131 O   0  0  0  0  0  0
  -28.2825  -26.1589   20.2245 O   0  0  0  0  0  0
  -26.5700  -34.8942   22.4645 O   0  0  0  0  0  0
  -23.5574  -32.1357   23.7050 O   0  0  0  0  0  0
  -27.5968  -17.3722   18.4709 C   0  0  0  0  0  0
  -27.7042  -18.7207   18.8766 C   0  0  0  0  0  0
  -28.7706  -18.7928   19.7642 C   0  0  0  0  0  0
  -26.7215  -19.7480   18.3704 C   0  0  0  0  0  0
  -29.2684  -20.2374   20.3602 C   0  0  0  0  0  0
  -29.9534  -16.3883   20.8797 C   0  0  0  0  0  0
  -28.5811  -21.7267   19.9160 C   0  0  0  0  0  0
  -28.9619  -23.3052   20.3671 C   0  0  0  0  0  0
  -28.0339  -24.6471   19.9498 C   0  0  0  0  0  0
  -28.4264  -16.5914   19.0971 N   0  0  0  0  0  0
  -29.1528  -17.3474   19.9454 N   0  0  0  0  0  0
  -31.4747  -12.6406   19.2469 H   0  0  0  0  0  0
  -30.3372  -11.5935   20.0405 H   0  0  0  0  0  0
  -29.8691  -11.8037   17.5442 H   0  0  0  0  0  0
  -29.6086  -13.5184   17.7579 H   0  0  0  0  0  0
  -27.9863  -11.2575   18.9774 H   0  0  0  0  0  0
  -27.4035  -12.4113   17.8073 H   0  0  0  0  0  0
  -27.5828  -14.2245   19.3881 H   0  0  0  0  0  0
  -28.7267  -12.3104   21.4757 H   0  0  0  0  0  0
  -28.3532  -13.9967   21.7329 H   0  0  0  0  0  0
  -25.2759   -9.5657   22.4712 H   0  0  0  0  0  0
  -23.9978   -7.4627   22.7463 H   0  0  0  0  0  0
  -21.0807   -8.8736   19.8947 H   0  0  0  0  0  0
  -22.3667  -10.9636   19.6126 H   0  0  0  0  0  0
  -21.1988   -7.6136   23.9713 H   0  0  0  0  0  0
  -21.1541   -6.0520   25.9089 H   0  0  0  0  0  0
  -22.0559   -2.7578   23.2881 H   0  0  0  0  0  0
  -22.4105  -11.9860   22.4914 H   0  0  0  0  0  0
  -21.1072  -13.1152   22.2716 H   0  0  0  0  0  0
  -24.7209  -15.8761   20.6586 H   0  0  0  0  0  0
  -26.3096  -15.6117   20.1378 H   0  0  0  0  0  0
  -26.7311  -32.5300   23.0960 H   0  0  0  0  0  0
  -25.0020  -33.9604   25.0240 H   0  0  0  0  0  0
  -22.7410  -31.2816   21.3787 H   0  0  0  0  0  0
  -23.3768  -35.9536   23.3313 H   0  0  0  0  0  0
  -24.3531  -36.8873   22.2049 H   0  0  0  0  0  0
  -23.7182  -37.6423   23.6652 H   0  0  0  0  0  0
  -26.1588  -31.4581   20.5962 H   0  0  0  0  0  0
  -26.8712  -30.7666   22.0188 H   0  0  0  0  0  0
  -28.1342  -28.8139   21.2132 H   0  0  0  0  0  0
  -25.9215  -25.8245   19.0237 H   0  0  0  0  0  0
  -23.9722  -27.2572   19.0169 H   0  0  0  0  0  0
  -23.7841  -30.5372   19.3942 H   0  0  0  0  0  0
  -22.7762  -29.2034   19.8673 H   0  0  0  0  0  0
  -25.1298  -36.1872   25.0797 H   0  0  0  0  0  0
  -20.9896  -28.3246   24.1387 H   0  0  0  0  0  0
  -20.5564  -26.2314   23.3585 H   0  0  0  0  0  0
  -21.6622  -26.7380   22.1217 H   0  0  0  0  0  0
  -19.6938  -25.6261   21.1270 H   0  0  0  0  0  0
  -19.6726  -27.3115   20.6653 H   0  0  0  0  0  0
  -17.4217  -26.6627   21.4014 H   0  0  0  0  0  0
  -18.0407  -26.0043   22.8989 H   0  0  0  0  0  0
  -19.7930  -30.7259   24.2217 H   0  0  0  0  0  0
  -17.5031  -31.6259   24.5117 H   0  0  0  0  0  0
  -15.5360  -30.2972   23.7665 H   0  0  0  0  0  0
  -15.8646  -28.0745   22.7167 H   0  0  0  0  0  0
  -24.5772  -30.7240   25.7682 H   0  0  0  0  0  0
  -24.8755  -32.3079   26.4655 H   0  0  0  0  0  0
  -25.7795  -30.9147   27.0248 H   0  0  0  0  0  0
  -26.2968  -29.6791   24.1242 H   0  0  0  0  0  0
  -27.3830  -29.7309   25.4934 H   0  0  0  0  0  0
  -27.8908  -30.4280   23.9717 H   0  0  0  0  0  0
  -27.2633  -33.3717   26.1994 H   0  0  0  0  0  0
  -28.3846  -32.6907   25.0334 H   0  0  0  0  0  0
  -28.0627  -31.8549   26.5476 H   0  0  0  0  0  0
  -28.2609  -38.0071   24.7541 H   0  0  0  0  0  0
  -28.1063  -36.2612   24.6276 H   0  0  0  0  0  0
  -27.2291  -37.1391   25.8881 H   0  0  0  0  0  0
  -20.9462  -29.8741   21.6839 H   0  0  0  0  0  0
  -26.0167  -38.2846   24.1454 H   0  0  0  0  0  0
  -26.8919  -16.9296   17.7790 H   0  0  0  0  0  0
  -27.1648  -20.4878   17.7059 H   0  0  0  0  0  0
  -26.2278  -20.2702   19.1844 H   0  0  0  0  0  0
  -25.9046  -19.2764   17.8192 H   0  0  0  0  0  0
  -30.3373  -20.3152   20.1568 H   0  0  0  0  0  0
  -29.2098  -20.1714   21.4451 H   0  0  0  0  0  0
  -29.3186  -16.2035   21.7452 H   0  0  0  0  0  0
  -30.7884  -16.9682   21.2719 H   0  0  0  0  0  0
  -27.5362  -21.6283   20.1889 H   0  0  0  0  0  0
  -28.6099  -21.7583   18.8247 H   0  0  0  0  0  0
  -29.9731  -23.5099   20.0120 H   0  0  0  0  0  0
  -29.0383  -23.3105   21.4531 H   0  0  0  0  0  0
  -27.0527  -24.4246   20.3710 H   0  0  0  0  0  0
  -27.8986  -24.5863   18.8699 H   0  0  0  0  0  0
  1 25  1  0  0  0
  1 30  2  0  0  0
  1 76  1  0  0  0
  2  3  1  0  0  0
  2 25  1  0  0  0
  2 82  1  0  0  0
  2 83  1  0  0  0
  3  4  1  0  0  0
  3 84  1  0  0  0
  3 85  1  0  0  0
  4  5  1  0  0  0
  4 86  1  0  0  0
  4 87  1  0  0  0
  5  6  1  0  0  0
  5 26  1  0  0  0
  5 88  1  0  0  0
  6 25  1  0  0  0
  6 89  1  0  0  0
  6 90  1  0  0  0
  7  8  2  0  0  0
  7 26  1  0  0  0
  7 29  1  0  0  0
  8  9  1  0  0  0
  8 22  1  0  0  0
  9 10  1  0  0  0
  9 27  2  0  0  0
 10 11  2  0  0  0
 10 15  1  0  0  0
 11 12  1  0  0  0
 11 91  1  0  0  0
 12 13  2  0  0  0
 12 92  1  0  0  0
 13 14  1  0  0  0
 13 31  1  0  0  0
 14 15  2  0  0  0
 14 93  1  0  0  0
 15 94  1  0  0  0
 16 17  2  0  0  0
 16 21  1  0  0  0
 16 31  1  0  0  0
 17 18  1  0  0  0
 17 95  1  0  0  0
 18 19  2  0  0  0
 18 96  1  0  0  0
 19 20  1  0  0  0
 19 24  1  0  0  0
 20 21  2  0  0  0
 20 97  1  0  0  0
 21 23  1  0  0  0
 22 28  1  0  0  0
 22 32  2  0  0  0
 26 27  1  0  0  0
 28 98  1  0  0  0
 28 99  1  0  0  0
 29100  1  0  0  0
 29101  1  0  0  0
 33 34  1  0  0  0
 33 66  1  0  0  0
 33 70  2  0  0  0
 34 36  1  0  0  0
 34 59  1  0  0  0
 34102  1  0  0  0
 35 44  2  0  0  0
 35 45  1  0  0  0
 35 68  1  0  0  0
 36 56  1  0  0  0
 36103  1  0  0  0
 37 39  1  0  0  0
 37 47  1  0  0  0
 37 66  1  0  0  0
 37104  1  0  0  0
 38 43  2  0  0  0
 38 46  1  0  0  0
 38 47  1  0  0  0
 39 64  1  0  0  0
 39 67  2  0  0  0
 40 52  1  0  0  0
 40 53  2  0  0  0
 40 58  1  0  0  0
 41105  1  0  0  0
 41106  1  0  0  0
 41107  1  0  0  0
 41 48  1  0  0  0
 42 43  1  0  0  0
 42 66  1  0  0  0
 42108  1  0  0  0
 42109  1  0  0  0
 43 44  1  0  0  0
 44110  1  0  0  0
 45 46  2  0  0  0
 45111  1  0  0  0
 46112  1  0  0  0
 47113  1  0  0  0
 47114  1  0  0  0
 48 56  1  0  0  0
 48 65  1  0  0  0
 48115  1  0  0  0
 49 50  1  0  0  0
 49 53  1  0  0  0
 49 64  1  0  0  0
 49116  1  0  0  0
 50 51  1  0  0  0
 50117  1  0  0  0
 50118  1  0  0  0
 51 52  1  0  0  0
 51119  1  0  0  0
 51120  1  0  0  0
 52121  1  0  0  0
 52122  1  0  0  0
 53 54  1  0  0  0
 54 55  2  0  0  0
 54123  1  0  0  0
 55 57  1  0  0  0
 55124  1  0  0  0
 56 69  2  0  0  0
 57 58  2  0  0  0
 57125  1  0  0  0
 58126  1  0  0  0
 59 60  1  0  0  0
 59 61  1  0  0  0
 59 62  1  0  0  0
 60127  1  0  0  0
 60128  1  0  0  0
 60129  1  0  0  0
 61130  1  0  0  0
 61131  1  0  0  0
 61132  1  0  0  0
 62133  1  0  0  0
 62134  1  0  0  0
 62135  1  0  0  0
 63 65  1  0  0  0
 63136  1  0  0  0
 63137  1  0  0  0
 63138  1  0  0  0
 64139  1  0  0  0
 65140  1  0  0  0
 68 79  1  0  0  0
 71 72  1  0  0  0
 71 80  2  0  0  0
 71141  1  0  0  0
 72 73  2  0  0  0
 72 74  1  0  0  0
 73 75  1  0  0  0
 73 81  1  0  0  0
 74142  1  0  0  0
 74143  1  0  0  0
 74144  1  0  0  0
 75 77  1  0  0  0
 75145  1  0  0  0
 75146  1  0  0  0
 76 81  1  0  0  0
 76147  1  0  0  0
 76148  1  0  0  0
 77 78  1  0  0  0
 77149  1  0  0  0
 77150  1  0  0  0
 78 79  1  0  0  0
 78151  1  0  0  0
 78152  1  0  0  0
 79153  1  0  0  0
 79154  1  0  0  0
 80 81  1  0  0  0
M  ISO  4   1 100  68 101  76 100  79 101
M  END
> <chiral flag>
0

> <version>
0

> <s_m_source_file>
/data/baiqing/PycharmProjects/Reinvent-master-3.2/result/LINK_invent/BTK/process_docking_weight1_custom_sum_contain_oxygen_bond_distance_aromatic_linkinvent_7_9_3/rearranged_h_0076.sdf

> <i_m_source_file_index>
91

> <r_mmod_Potential_Energy-OPLS-2005>
576.300354003906

> <r_mmod_Stretch_Energy-OPLS-2005>
282.760192871094

> <r_mmod_Bend_Energy-OPLS-2005>
306.104339599609

> <r_mmod_Torsional_Energy-OPLS-2005>
186.632186889648

> <r_mmod_Improper_Torsional_Energy-OPLS-2005>
2.34042143821716

> <r_mmod_Van_der_Waal_Energy-OPLS-2005>
112.3154296875

> <r_mmod_Electrostatic_Energy-OPLS-2005>
-293.0107421875

> <r_mmod_Solvation_Energy-OPLS-2005>
-196.709732055664

> <b_mmod_Minimization_Converged-OPLS-2005>
0

> <r_mmod_RMS_Derivative-OPLS-2005>
4.88374710083008

$$$$
91
                    3D
 Structure written by MMmdl.
166174  0  0  1  0            999 V2000
  -30.6698  -14.5219   20.7233 C   0  0  0  0  0  0
  -30.4645  -12.4020   19.4233 C   0  0  0  0  0  0
  -29.5087  -12.5526   18.2217 C   0  0  0  0  0  0
  -28.0352  -12.3665   18.6409 C   0  0  0  0  0  0
  -27.6687  -13.1963   19.8986 C   0  0  2  0  0  0
  -28.7148  -12.9506   21.0078 C   0  0  0  0  0  0
  -25.2565  -13.8112   20.5614 C   0  0  0  0  0  0
  -24.1814  -13.0422   20.9205 C   0  0  0  0  0  0
  -24.6372  -11.6904   20.8781 C   0  0  0  0  0  0
  -23.9031  -10.4291   21.0427 C   0  0  0  0  0  0
  -24.3564   -9.4219   21.9203 C   0  0  0  0  0  0
  -23.6251   -8.2250   22.0756 C   0  0  0  0  0  0
  -22.4240   -8.0264   21.3541 C   0  0  0  0  0  0
  -21.9865   -9.0250   20.4665 C   0  0  0  0  0  0
  -22.7200  -10.2137   20.3091 C   0  0  0  0  0  0
  -21.6846   -6.0713   22.5290 C   0  0  0  0  0  0
  -21.4021   -6.5621   23.8219 C   0  0  0  0  0  0
  -21.3655   -5.6753   24.9158 C   0  0  0  0  0  0
  -21.6021   -4.3012   24.7191 C   0  0  0  0  0  0
  -21.8829   -3.8107   23.4310 C   0  0  0  0  0  0
  -21.9195   -4.6936   22.3387 C   0  0  0  0  0  0
  -22.7823  -13.5264   21.1777 C   0  0  0  0  0  0
  -22.1658   -4.2132   21.0959 F   0  0  0  0  0  0
  -21.5639   -3.4505   25.7708 F   0  0  0  0  0  0
  -30.0315  -13.3353   20.4840 N   0  0  0  0  0  0
  -26.3065  -12.9263   20.3493 N   0  0  0  0  0  0
  -25.9305  -11.6451   20.5858 N   0  0  0  0  0  0
  -22.0373  -12.8416   22.0382 N   0  0  0  0  0  0
  -25.4100  -15.1801   20.3760 N   0  0  0  0  0  0
  -31.7257  -14.7815   20.1305 O   0  0  0  0  0  0
  -21.6612   -6.8863   21.4245 O   0  0  0  0  0  0
  -22.3511  -14.5488   20.6485 O   0  0  0  0  0  0
  -24.6229  -31.8640   23.2014 C   0  0  0  0  0  0
  -25.9118  -32.4790   23.8321 C   0  0  1  0  0  0
  -27.2136  -27.3700   20.0861 C   0  0  0  0  0  0
  -25.5952  -33.8595   24.2275 N   0  0  0  0  0  0
  -23.4094  -30.4869   21.5458 C   0  0  2  0  0  0
  -24.8478  -28.9402   20.1127 C   0  0  0  0  0  0
  -22.7446  -29.4665   22.4973 C   0  0  0  0  0  0
  -18.0296  -28.1363   22.8501 C   0  0  0  0  0  0
  -24.1490  -36.7313   23.2627 C   0  0  0  0  0  0
  -25.9461  -30.8001   21.3659 C   0  0  0  0  0  0
  -26.0132  -29.4309   20.7142 C   0  0  0  0  0  0
  -27.1989  -28.6500   20.6983 C   0  0  0  0  0  0
  -26.0222  -26.9073   19.4791 C   0  0  0  0  0  0
  -24.8482  -27.6820   19.4938 C   0  0  0  0  0  0
  -23.6181  -29.8156   20.1617 C   0  0  0  0  0  0
  -25.4119  -36.3115   24.0318 C   0  0  1  0  0  0
  -20.5890  -28.3694   23.1299 C   0  0  2  0  0  0
  -20.6828  -26.9441   22.5395 C   0  0  0  0  0  0
  -19.5807  -26.6405   21.5185 C   0  0  0  0  0  0
  -18.1963  -26.7908   22.1598 C   0  0  0  0  0  0
  -19.1542  -28.8823   23.2897 C   0  0  0  0  0  0
  -18.9468  -30.1429   23.8906 C   0  0  0  0  0  0
  -17.6466  -30.6561   24.0587 C   0  0  0  0  0  0
  -25.9056  -34.9480   23.5115 C   0  0  0  0  0  0
  -16.5363  -29.9064   23.6329 C   0  0  0  0  0  0
  -16.7278  -28.6480   23.0343 C   0  0  0  0  0  0
  -26.4484  -31.6591   25.0689 C   0  0  0  0  0  0
  -25.3718  -31.3771   26.1421 C   0  0  0  0  0  0
  -27.0293  -30.3004   24.6135 C   0  0  0  0  0  0
  -27.6029  -32.4314   25.7468 C   0  0  0  0  0  0
  -27.5583  -37.1823   24.8463 C   0  0  0  0  0  0
  -21.4145  -29.3064   22.3706 N   0  0  0  0  0  0
  -26.4310  -37.3804   23.9393 N   0  0  0  0  0  0
  -24.6789  -31.0676   22.0939 N   0  0  0  0  0  0
  -23.4181  -28.8234   23.3045 O   0  0  0  0  0  0
  -28.3764  -26.6093   20.0968 O   0  0  0  0  0  0
  -26.5610  -34.8939   22.4657 O   0  0  0  0  0  0
  -23.5412  -32.1424   23.7379 O   0  0  0  0  0  0
  -29.6880  -19.7792   20.3239 C   0  0  0  0  0  0
  -28.1854  -18.9411   21.6327 C   0  0  0  0  0  0
  -28.5426  -20.1559   21.0944 C   0  0  0  0  0  0
  -31.2828  -16.3443   22.4691 C   0  0  0  0  0  0
  -27.7527  -16.2313   22.4335 C   0  0  0  0  0  0
  -26.3244  -21.3306   21.3968 C   0  0  0  0  0  0
  -28.3084  -21.9748   22.7611 C   0  0  0  0  0  0
  -27.8983  -24.1504   20.6464 C   0  0  0  0  0  0
  -28.1924  -22.6423   20.2776 C   0  0  0  0  0  0
  -28.3817  -25.2302   19.6211 C   0  0  0  0  0  0
  -30.1405  -15.5521   21.7988 C   0  0  2  0  0  0
  -28.8878  -16.4486   21.3976 C   0  0  2  0  0  0
  -27.8605  -21.5310   21.3555 C   0  0  0  0  0  0
  -29.9633  -18.4678   20.3658 N   0  0  0  0  0  0
  -29.0472  -17.9275   21.2035 N   0  0  0  0  0  0
  -31.4906  -12.5992   19.0995 H   0  0  0  0  0  0
  -30.4697  -11.3772   19.7992 H   0  0  0  0  0  0
  -29.7730  -11.8335   17.4451 H   0  0  0  0  0  0
  -29.6406  -13.5457   17.7856 H   0  0  0  0  0  0
  -27.8768  -11.3074   18.8439 H   0  0  0  0  0  0
  -27.3736  -12.6189   17.8129 H   0  0  0  0  0  0
  -27.7109  -14.2442   19.6166 H   0  0  0  0  0  0
  -28.7242  -11.8968   21.2902 H   0  0  0  0  0  0
  -28.4467  -13.4710   21.9163 H   0  0  0  0  0  0
  -25.2687   -9.5724   22.4788 H   0  0  0  0  0  0
  -23.9940   -7.4639   22.7483 H   0  0  0  0  0  0
  -21.0800   -8.8792   19.8979 H   0  0  0  0  0  0
  -22.3647  -10.9663   19.6208 H   0  0  0  0  0  0
  -21.2028   -7.6134   23.9718 H   0  0  0  0  0  0
  -21.1462   -6.0466   25.9071 H   0  0  0  0  0  0
  -22.0612   -2.7569   23.2793 H   0  0  0  0  0  0
  -22.3895  -12.0168   22.4995 H   0  0  0  0  0  0
  -21.0983  -13.1532   22.2391 H   0  0  0  0  0  0
  -24.6237  -15.8147   20.4570 H   0  0  0  0  0  0
  -26.2374  -15.6275   20.0033 H   0  0  0  0  0  0
  -26.7190  -32.5459   23.1071 H   0  0  0  0  0  0
  -25.0154  -33.9718   25.0455 H   0  0  0  0  0  0
  -22.7026  -31.3065   21.4030 H   0  0  0  0  0  0
  -23.3744  -35.9661   23.3337 H   0  0  0  0  0  0
  -24.3572  -36.8880   22.2035 H   0  0  0  0  0  0
  -23.7270  -37.6538   23.6604 H   0  0  0  0  0  0
  -26.0774  -31.5604   20.5947 H   0  0  0  0  0  0
  -26.8276  -30.8441   21.9947 H   0  0  0  0  0  0
  -28.0976  -29.0227   21.1691 H   0  0  0  0  0  0
  -25.9663  -25.9448   18.9915 H   0  0  0  0  0  0
  -23.9506  -27.2958   19.0259 H   0  0  0  0  0  0
  -23.7317  -30.5848   19.3964 H   0  0  0  0  0  0
  -22.7370  -29.2378   19.8698 H   0  0  0  0  0  0
  -25.1314  -36.1963   25.0814 H   0  0  0  0  0  0
  -20.9981  -28.3230   24.1406 H   0  0  0  0  0  0
  -20.5728  -26.2334   23.3605 H   0  0  0  0  0  0
  -21.6719  -26.7489   22.1217 H   0  0  0  0  0  0
  -19.7038  -25.6327   21.1218 H   0  0  0  0  0  0
  -19.6720  -27.3235   20.6730 H   0  0  0  0  0  0
  -17.4262  -26.6675   21.3972 H   0  0  0  0  0  0
  -18.0334  -26.0025   22.8964 H   0  0  0  0  0  0
  -19.7955  -30.7249   24.2253 H   0  0  0  0  0  0
  -17.5007  -31.6219   24.5231 H   0  0  0  0  0  0
  -15.5362  -30.2972   23.7604 H   0  0  0  0  0  0
  -15.8677  -28.0799   22.7047 H   0  0  0  0  0  0
  -24.5833  -30.7193   25.7768 H   0  0  0  0  0  0
  -24.8979  -32.2974   26.4849 H   0  0  0  0  0  0
  -25.8013  -30.8924   27.0199 H   0  0  0  0  0  0
  -26.2855  -29.6800   24.1126 H   0  0  0  0  0  0
  -27.3958  -29.7223   25.4630 H   0  0  0  0  0  0
  -27.8745  -30.4282   23.9366 H   0  0  0  0  0  0
  -27.2595  -33.3571   26.2103 H   0  0  0  0  0  0
  -28.3800  -32.6960   25.0289 H   0  0  0  0  0  0
  -28.0748  -31.8424   26.5347 H   0  0  0  0  0  0
  -28.2642  -38.0081   24.7486 H   0  0  0  0  0  0
  -28.1042  -36.2623   24.6325 H   0  0  0  0  0  0
  -27.2298  -37.1520   25.8865 H   0  0  0  0  0  0
  -20.9329  -29.8771   21.6907 H   0  0  0  0  0  0
  -26.0201  -38.2897   24.1330 H   0  0  0  0  0  0
  -30.3267  -20.4170   19.7294 H   0  0  0  0  0  0
  -27.3523  -18.7345   22.2861 H   0  0  0  0  0  0
  -32.0398  -15.6704   22.8733 H   0  0  0  0  0  0
  -31.7735  -17.0175   21.7675 H   0  0  0  0  0  0
  -30.9017  -16.9381   23.3007 H   0  0  0  0  0  0
  -27.5632  -15.1958   22.6889 H   0  0  0  0  0  0
  -26.8030  -16.6295   22.0756 H   0  0  0  0  0  0
  -27.9897  -16.7323   23.3707 H   0  0  0  0  0  0
  -26.0212  -20.6196   22.1672 H   0  0  0  0  0  0
  -25.9447  -20.9599   20.4456 H   0  0  0  0  0  0
  -25.7883  -22.2556   21.6176 H   0  0  0  0  0  0
  -29.3865  -22.1328   22.7986 H   0  0  0  0  0  0
  -28.0629  -21.2144   23.5053 H   0  0  0  0  0  0
  -27.8186  -22.8908   23.0964 H   0  0  0  0  0  0
  -28.4062  -24.3816   21.5797 H   0  0  0  0  0  0
  -26.8328  -24.2942   20.8360 H   0  0  0  0  0  0
  -29.2497  -22.5808   20.0280 H   0  0  0  0  0  0
  -27.6569  -22.4017   19.3559 H   0  0  0  0  0  0
  -27.8757  -25.1274   18.6598 H   0  0  0  0  0  0
  -29.4214  -25.0032   19.3864 H   0  0  0  0  0  0
  -29.8215  -14.9162   22.6233 H   0  0  0  0  0  0
  -28.5290  -16.0731   20.4432 H   0  0  0  0  0  0
  1 25  1  0  0  0
  1 30  2  0  0  0
  1 81  1  0  0  0
  2  3  1  0  0  0
  2 25  1  0  0  0
  2 86  1  0  0  0
  2 87  1  0  0  0
  3  4  1  0  0  0
  3 88  1  0  0  0
  3 89  1  0  0  0
  4  5  1  0  0  0
  4 90  1  0  0  0
  4 91  1  0  0  0
  5  6  1  0  0  0
  5 26  1  0  0  0
  5 92  1  0  0  0
  6 25  1  0  0  0
  6 93  1  0  0  0
  6 94  1  0  0  0
  7  8  2  0  0  0
  7 26  1  0  0  0
  7 29  1  0  0  0
  8  9  1  0  0  0
  8 22  1  0  0  0
  9 10  1  0  0  0
  9 27  2  0  0  0
 10 11  2  0  0  0
 10 15  1  0  0  0
 11 12  1  0  0  0
 11 95  1  0  0  0
 12 13  2  0  0  0
 12 96  1  0  0  0
 13 14  1  0  0  0
 13 31  1  0  0  0
 14 15  2  0  0  0
 14 97  1  0  0  0
 15 98  1  0  0  0
 16 17  2  0  0  0
 16 21  1  0  0  0
 16 31  1  0  0  0
 17 18  1  0  0  0
 17 99  1  0  0  0
 18 19  2  0  0  0
 18100  1  0  0  0
 19 20  1  0  0  0
 19 24  1  0  0  0
 20 21  2  0  0  0
 20101  1  0  0  0
 21 23  1  0  0  0
 22 28  1  0  0  0
 22 32  2  0  0  0
 26 27  1  0  0  0
 28102  1  0  0  0
 28103  1  0  0  0
 29104  1  0  0  0
 29105  1  0  0  0
 33 34  1  0  0  0
 33 66  1  0  0  0
 33 70  2  0  0  0
 34 36  1  0  0  0
 34 59  1  0  0  0
 34106  1  0  0  0
 35 44  2  0  0  0
 35 45  1  0  0  0
 35 68  1  0  0  0
 36 56  1  0  0  0
 36107  1  0  0  0
 37 39  1  0  0  0
 37 47  1  0  0  0
 37 66  1  0  0  0
 37108  1  0  0  0
 38 43  2  0  0  0
 38 46  1  0  0  0
 38 47  1  0  0  0
 39 64  1  0  0  0
 39 67  2  0  0  0
 40 52  1  0  0  0
 40 53  2  0  0  0
 40 58  1  0  0  0
 41109  1  0  0  0
 41110  1  0  0  0
 41111  1  0  0  0
 41 48  1  0  0  0
 42 43  1  0  0  0
 42 66  1  0  0  0
 42112  1  0  0  0
 42113  1  0  0  0
 43 44  1  0  0  0
 44114  1  0  0  0
 45 46  2  0  0  0
 45115  1  0  0  0
 46116  1  0  0  0
 47117  1  0  0  0
 47118  1  0  0  0
 48 56  1  0  0  0
 48 65  1  0  0  0
 48119  1  0  0  0
 49 50  1  0  0  0
 49 53  1  0  0  0
 49 64  1  0  0  0
 49120  1  0  0  0
 50 51  1  0  0  0
 50121  1  0  0  0
 50122  1  0  0  0
 51 52  1  0  0  0
 51123  1  0  0  0
 51124  1  0  0  0
 52125  1  0  0  0
 52126  1  0  0  0
 53 54  1  0  0  0
 54 55  2  0  0  0
 54127  1  0  0  0
 55 57  1  0  0  0
 55128  1  0  0  0
 56 69  2  0  0  0
 57 58  2  0  0  0
 57129  1  0  0  0
 58130  1  0  0  0
 59 60  1  0  0  0
 59 61  1  0  0  0
 59 62  1  0  0  0
 60131  1  0  0  0
 60132  1  0  0  0
 60133  1  0  0  0
 61134  1  0  0  0
 61135  1  0  0  0
 61136  1  0  0  0
 62137  1  0  0  0
 62138  1  0  0  0
 62139  1  0  0  0
 63 65  1  0  0  0
 63140  1  0  0  0
 63141  1  0  0  0
 63142  1  0  0  0
 64143  1  0  0  0
 65144  1  0  0  0
 68 80  1  0  0  0
 71 73  1  0  0  0
 71 84  2  0  0  0
 71145  1  0  0  0
 72 73  2  0  0  0
 72 85  1  0  0  0
 72146  1  0  0  0
 73 83  1  0  0  0
 74147  1  0  0  0
 74148  1  0  0  0
 74149  1  0  0  0
 74 81  1  0  0  0
 75150  1  0  0  0
 75151  1  0  0  0
 75152  1  0  0  0
 75 82  1  0  0  0
 76153  1  0  0  0
 76154  1  0  0  0
 76155  1  0  0  0
 76 83  1  0  0  0
 77 83  1  0  0  0
 77156  1  0  0  0
 77157  1  0  0  0
 77158  1  0  0  0
 78 79  1  0  0  0
 78 80  1  0  0  0
 78159  1  0  0  0
 78160  1  0  0  0
 79 83  1  0  0  0
 79161  1  0  0  0
 79162  1  0  0  0
 80163  1  0  0  0
 80164  1  0  0  0
 81 82  1  0  0  0
 81165  1  0  0  0
 82 85  1  0  0  0
 82166  1  0  0  0
 84 85  1  0  0  0
M  ISO  4   1 100  68 101  80 101  81 100
M  END
> <chiral flag>
0

> <version>
0

> <s_m_source_file>
/data/baiqing/PycharmProjects/Reinvent-master-3.2/result/LINK_invent/BTK/process_docking_weight1_custom_sum_contain_oxygen_bond_distance_aromatic_linkinvent_7_9_3/rearranged_h_0076.sdf

> <i_m_source_file_index>
92

> <r_mmod_Potential_Energy-OPLS-2005>
29.7896671295166

> <r_mmod_Stretch_Energy-OPLS-2005>
64.5349197387695

> <r_mmod_Bend_Energy-OPLS-2005>
141.424545288086

> <r_mmod_Torsional_Energy-OPLS-2005>
199.436096191406

> <r_mmod_Improper_Torsional_Energy-OPLS-2005>
3.27212834358215

> <r_mmod_Van_der_Waal_Energy-OPLS-2005>
134.807281494141

> <r_mmod_Electrostatic_Energy-OPLS-2005>
-340.829925537109

> <r_mmod_Solvation_Energy-OPLS-2005>
-198.572906494141

> <b_mmod_Minimization_Converged-OPLS-2005>
0

> <r_mmod_RMS_Derivative-OPLS-2005>
6.37122917175293

$$$$
92
                    3D
 Structure written by MMmdl.
157165  0  0  1  0            999 V2000
  -30.4701  -15.2406   20.3822 C   0  0  0  0  0  0
  -30.4412  -12.7989   19.5227 C   0  0  0  0  0  0
  -29.5392  -12.5697   18.2833 C   0  0  0  0  0  0
  -28.0825  -12.3066   18.7029 C   0  0  0  0  0  0
  -27.6139  -13.2770   19.8176 C   0  0  2  0  0  0
  -28.6490  -13.4436   20.9536 C   0  0  0  0  0  0
  -25.2408  -13.8252   20.5731 C   0  0  0  0  0  0
  -24.1761  -13.0441   20.9265 C   0  0  0  0  0  0
  -24.6406  -11.6946   20.8774 C   0  0  0  0  0  0
  -23.9095  -10.4309   21.0412 C   0  0  0  0  0  0
  -24.3648   -9.4223   21.9183 C   0  0  0  0  0  0
  -23.6327   -8.2252   22.0751 C   0  0  0  0  0  0
  -22.4307   -8.0291   21.3544 C   0  0  0  0  0  0
  -21.9941   -9.0260   20.4641 C   0  0  0  0  0  0
  -22.7270  -10.2132   20.3054 C   0  0  0  0  0  0
  -21.6849   -6.0755   22.5292 C   0  0  0  0  0  0
  -21.4002   -6.5648   23.8220 C   0  0  0  0  0  0
  -21.3657   -5.6796   24.9179 C   0  0  0  0  0  0
  -21.6056   -4.3064   24.7226 C   0  0  0  0  0  0
  -21.8822   -3.8154   23.4336 C   0  0  0  0  0  0
  -21.9190   -4.6978   22.3402 C   0  0  0  0  0  0
  -22.7778  -13.5203   21.1907 C   0  0  0  0  0  0
  -22.1666   -4.2159   21.0980 F   0  0  0  0  0  0
  -21.5629   -3.4540   25.7732 F   0  0  0  0  0  0
  -29.8875  -13.9433   20.3361 N   0  0  0  0  0  0
  -26.2838  -12.9533   20.3182 N   0  0  0  0  0  0
  -25.9333  -11.6630   20.5688 N   0  0  0  0  0  0
  -22.0415  -12.8201   22.0453 N   0  0  0  0  0  0
  -25.4068  -15.1983   20.4180 N   0  0  0  0  0  0
  -31.6872  -15.2256   20.1495 O   0  0  0  0  0  0
  -21.6647   -6.8904   21.4255 O   0  0  0  0  0  0
  -22.3470  -14.5514   20.6746 O   0  0  0  0  0  0
  -24.6612  -31.8285   23.1704 C   0  0  0  0  0  0
  -25.9320  -32.4613   23.8146 C   0  0  1  0  0  0
  -27.2101  -26.9485   20.1909 C   0  0  0  0  0  0
  -25.6018  -33.8417   24.2062 N   0  0  0  0  0  0
  -23.4734  -30.4423   21.5215 C   0  0  2  0  0  0
  -24.9233  -28.8373   20.1123 C   0  0  0  0  0  0
  -22.7651  -29.4484   22.4797 C   0  0  0  0  0  0
  -18.0324  -28.1426   22.8496 C   0  0  0  0  0  0
  -24.1478  -36.7197   23.2647 C   0  0  0  0  0  0
  -26.0416  -30.6442   21.3959 C   0  0  0  0  0  0
  -26.1072  -29.2360   20.7427 C   0  0  0  0  0  0
  -27.2450  -28.3117   20.7614 C   0  0  0  0  0  0
  -25.9949  -26.7020   19.5099 C   0  0  0  0  0  0
  -24.8904  -27.5883   19.4759 C   0  0  0  0  0  0
  -23.7088  -29.7629   20.1456 C   0  0  0  0  0  0
  -25.4116  -36.2967   24.0307 C   0  0  1  0  0  0
  -20.5962  -28.3767   23.1220 C   0  0  2  0  0  0
  -20.6824  -26.9453   22.5423 C   0  0  0  0  0  0
  -19.5778  -26.6393   21.5251 C   0  0  0  0  0  0
  -18.1954  -26.7973   22.1635 C   0  0  0  0  0  0
  -19.1597  -28.8914   23.2841 C   0  0  0  0  0  0
  -18.9511  -30.1509   23.8849 C   0  0  0  0  0  0
  -17.6505  -30.6620   24.0563 C   0  0  0  0  0  0
  -25.9105  -34.9375   23.5006 C   0  0  0  0  0  0
  -16.5385  -29.9120   23.6371 C   0  0  0  0  0  0
  -16.7312  -28.6537   23.0375 C   0  0  0  0  0  0
  -26.4555  -31.6545   25.0661 C   0  0  0  0  0  0
  -25.3676  -31.3860   26.1322 C   0  0  0  0  0  0
  -27.0443  -30.2914   24.6394 C   0  0  0  0  0  0
  -27.6049  -32.4352   25.7461 C   0  0  0  0  0  0
  -27.5556  -37.1723   24.8446 C   0  0  0  0  0  0
  -21.4334  -29.3061   22.3550 N   0  0  0  0  0  0
  -26.4222  -37.3733   23.9469 N   0  0  0  0  0  0
  -24.7469  -30.9994   22.0823 N   0  0  0  0  0  0
  -23.4215  -28.8071   23.3038 O   0  0  0  0  0  0
  -28.1921  -25.8289   20.2846 O   0  0  0  0  0  0
  -26.5690  -34.8916   22.4579 O   0  0  0  0  0  0
  -23.5695  -32.1227   23.6835 O   0  0  0  0  0  0
  -29.8275  -22.1588   20.4483 C   0  0  0  0  0  0
  -28.4796  -22.6612   20.2818 C   0  0  0  0  0  0
  -27.7017  -21.4208   20.2000 C   0  0  0  0  0  0
  -29.4451  -19.6884   20.4047 C   0  0  0  0  0  0
  -24.2360  -21.3404   18.4104 C   0  0  0  0  0  0
  -30.4876  -18.1213   18.6408 C   0  0  0  0  0  0
  -27.7892  -24.2611   20.0717 C   0  0  0  0  0  0
  -26.1900  -21.4976   20.0418 C   0  0  0  0  0  0
  -25.7334  -21.6325   18.5787 C   0  0  0  0  0  0
  -30.1258  -18.1034   20.1337 C   0  0  2  0  0  0
  -30.2505  -20.7995   20.5052 N   0  0  0  0  0  0
  -28.1535  -20.0721   20.2188 N   0  0  0  0  0  0
  -29.7433  -16.5241   20.4676 N   0  0  0  0  0  0
  -31.4598  -12.9988   19.1873 H   0  0  0  0  0  0
  -30.5083  -11.8944   20.1269 H   0  0  0  0  0  0
  -29.9186  -11.7320   17.6949 H   0  0  0  0  0  0
  -29.5796  -13.4438   17.6322 H   0  0  0  0  0  0
  -28.0269  -11.2802   19.0659 H   0  0  0  0  0  0
  -27.4185  -12.3625   17.8392 H   0  0  0  0  0  0
  -27.5297  -14.2468   19.3236 H   0  0  0  0  0  0
  -28.8130  -12.5052   21.4861 H   0  0  0  0  0  0
  -28.2885  -14.1627   21.6914 H   0  0  0  0  0  0
  -25.2786   -9.5699   22.4755 H   0  0  0  0  0  0
  -24.0036   -7.4640   22.7463 H   0  0  0  0  0  0
  -21.0868   -8.8777   19.8950 H   0  0  0  0  0  0
  -22.3735  -10.9665   19.6165 H   0  0  0  0  0  0
  -21.1983   -7.6150   23.9729 H   0  0  0  0  0  0
  -21.1479   -6.0517   25.9084 H   0  0  0  0  0  0
  -22.0598   -2.7615   23.2821 H   0  0  0  0  0  0
  -22.4020  -11.9860   22.4854 H   0  0  0  0  0  0
  -21.1023  -13.1211   22.2625 H   0  0  0  0  0  0
  -24.6386  -15.8514   20.5326 H   0  0  0  0  0  0
  -26.2480  -15.6338   20.0631 H   0  0  0  0  0  0
  -26.7391  -32.5127   23.0853 H   0  0  0  0  0  0
  -25.0186  -33.9506   25.0234 H   0  0  0  0  0  0
  -22.7844  -31.2730   21.3553 H   0  0  0  0  0  0
  -23.3789  -35.9471   23.3213 H   0  0  0  0  0  0
  -24.3600  -36.8928   22.2082 H   0  0  0  0  0  0
  -23.7133  -37.6323   23.6747 H   0  0  0  0  0  0
  -26.2168  -31.3873   20.6159 H   0  0  0  0  0  0
  -26.9041  -30.6993   22.0478 H   0  0  0  0  0  0
  -28.1371  -28.6140   21.2898 H   0  0  0  0  0  0
  -25.8483  -25.7507   19.0219 H   0  0  0  0  0  0
  -23.9905  -27.2730   18.9688 H   0  0  0  0  0  0
  -23.8613  -30.5324   19.3875 H   0  0  0  0  0  0
  -22.8157  -29.2212   19.8290 H   0  0  0  0  0  0
  -25.1290  -36.1723   25.0785 H   0  0  0  0  0  0
  -21.0037  -28.3359   24.1353 H   0  0  0  0  0  0
  -20.5752  -26.2377   23.3668 H   0  0  0  0  0  0
  -21.6678  -26.7467   22.1176 H   0  0  0  0  0  0
  -19.6935  -25.6293   21.1305 H   0  0  0  0  0  0
  -19.6710  -27.3193   20.6777 H   0  0  0  0  0  0
  -17.4236  -26.6766   21.4021 H   0  0  0  0  0  0
  -18.0292  -26.0120   22.9019 H   0  0  0  0  0  0
  -19.7979  -30.7354   24.2176 H   0  0  0  0  0  0
  -17.5063  -31.6289   24.5171 H   0  0  0  0  0  0
  -15.5380  -30.2993   23.7752 H   0  0  0  0  0  0
  -15.8711  -28.0846   22.7098 H   0  0  0  0  0  0
  -24.5822  -30.7247   25.7648 H   0  0  0  0  0  0
  -24.8905  -32.3111   26.4569 H   0  0  0  0  0  0
  -25.7888  -30.9109   27.0191 H   0  0  0  0  0  0
  -26.3110  -29.6608   24.1362 H   0  0  0  0  0  0
  -27.3952  -29.7251   25.5030 H   0  0  0  0  0  0
  -27.9052  -30.4123   23.9824 H   0  0  0  0  0  0
  -27.2610  -33.3707   26.1889 H   0  0  0  0  0  0
  -28.3932  -32.6832   25.0342 H   0  0  0  0  0  0
  -28.0643  -31.8557   26.5477 H   0  0  0  0  0  0
  -28.2465  -38.0123   24.7639 H   0  0  0  0  0  0
  -28.1129  -36.2662   24.6036 H   0  0  0  0  0  0
  -27.2336  -37.1078   25.8853 H   0  0  0  0  0  0
  -20.9568  -29.8723   21.6669 H   0  0  0  0  0  0
  -26.0043  -38.2745   24.1616 H   0  0  0  0  0  0
  -30.6340  -22.8747   20.5129 H   0  0  0  0  0  0
  -23.8996  -21.5503   17.3949 H   0  0  0  0  0  0
  -23.6366  -21.9435   19.0922 H   0  0  0  0  0  0
  -24.0239  -20.2909   18.6192 H   0  0  0  0  0  0
  -31.0646  -19.0132   18.3970 H   0  0  0  0  0  0
  -29.5818  -18.1414   18.0339 H   0  0  0  0  0  0
  -31.0863  -17.2620   18.3439 H   0  0  0  0  0  0
  -26.8628  -24.1986   20.6421 H   0  0  0  0  0  0
  -27.4788  -24.2306   19.0274 H   0  0  0  0  0  0
  -25.7819  -22.3041   20.6496 H   0  0  0  0  0  0
  -25.7588  -20.5903   20.4680 H   0  0  0  0  0  0
  -25.9681  -22.6322   18.2111 H   0  0  0  0  0  0
  -26.2939  -20.9377   17.9518 H   0  0  0  0  0  0
  -31.0716  -18.1939   20.6694 H   0  0  0  0  0  0
  -28.7630  -16.4138   20.6764 H   0  0  0  0  0  0
  1 25  1  0  0  0
  1 30  2  0  0  0
  1 83  1  0  0  0
  2  3  1  0  0  0
  2 25  1  0  0  0
  2 84  1  0  0  0
  2 85  1  0  0  0
  3  4  1  0  0  0
  3 86  1  0  0  0
  3 87  1  0  0  0
  4  5  1  0  0  0
  4 88  1  0  0  0
  4 89  1  0  0  0
  5  6  1  0  0  0
  5 26  1  0  0  0
  5 90  1  0  0  0
  6 25  1  0  0  0
  6 91  1  0  0  0
  6 92  1  0  0  0
  7  8  2  0  0  0
  7 26  1  0  0  0
  7 29  1  0  0  0
  8  9  1  0  0  0
  8 22  1  0  0  0
  9 10  1  0  0  0
  9 27  2  0  0  0
 10 11  2  0  0  0
 10 15  1  0  0  0
 11 12  1  0  0  0
 11 93  1  0  0  0
 12 13  2  0  0  0
 12 94  1  0  0  0
 13 14  1  0  0  0
 13 31  1  0  0  0
 14 15  2  0  0  0
 14 95  1  0  0  0
 15 96  1  0  0  0
 16 17  2  0  0  0
 16 21  1  0  0  0
 16 31  1  0  0  0
 17 18  1  0  0  0
 17 97  1  0  0  0
 18 19  2  0  0  0
 18 98  1  0  0  0
 19 20  1  0  0  0
 19 24  1  0  0  0
 20 21  2  0  0  0
 20 99  1  0  0  0
 21 23  1  0  0  0
 22 28  1  0  0  0
 22 32  2  0  0  0
 26 27  1  0  0  0
 28100  1  0  0  0
 28101  1  0  0  0
 29102  1  0  0  0
 29103  1  0  0  0
 33 34  1  0  0  0
 33 66  1  0  0  0
 33 70  2  0  0  0
 34 36  1  0  0  0
 34 59  1  0  0  0
 34104  1  0  0  0
 35 44  2  0  0  0
 35 45  1  0  0  0
 35 68  1  0  0  0
 36 56  1  0  0  0
 36105  1  0  0  0
 37 39  1  0  0  0
 37 47  1  0  0  0
 37 66  1  0  0  0
 37106  1  0  0  0
 38 43  2  0  0  0
 38 46  1  0  0  0
 38 47  1  0  0  0
 39 64  1  0  0  0
 39 67  2  0  0  0
 40 52  1  0  0  0
 40 53  2  0  0  0
 40 58  1  0  0  0
 41107  1  0  0  0
 41108  1  0  0  0
 41109  1  0  0  0
 41 48  1  0  0  0
 42 43  1  0  0  0
 42 66  1  0  0  0
 42110  1  0  0  0
 42111  1  0  0  0
 43 44  1  0  0  0
 44112  1  0  0  0
 45 46  2  0  0  0
 45113  1  0  0  0
 46114  1  0  0  0
 47115  1  0  0  0
 47116  1  0  0  0
 48 56  1  0  0  0
 48 65  1  0  0  0
 48117  1  0  0  0
 49 50  1  0  0  0
 49 53  1  0  0  0
 49 64  1  0  0  0
 49118  1  0  0  0
 50 51  1  0  0  0
 50119  1  0  0  0
 50120  1  0  0  0
 51 52  1  0  0  0
 51121  1  0  0  0
 51122  1  0  0  0
 52123  1  0  0  0
 52124  1  0  0  0
 53 54  1  0  0  0
 54 55  2  0  0  0
 54125  1  0  0  0
 55 57  1  0  0  0
 55126  1  0  0  0
 56 69  2  0  0  0
 57 58  2  0  0  0
 57127  1  0  0  0
 58128  1  0  0  0
 59 60  1  0  0  0
 59 61  1  0  0  0
 59 62  1  0  0  0
 60129  1  0  0  0
 60130  1  0  0  0
 60131  1  0  0  0
 61132  1  0  0  0
 61133  1  0  0  0
 61134  1  0  0  0
 62135  1  0  0  0
 62136  1  0  0  0
 62137  1  0  0  0
 63 65  1  0  0  0
 63138  1  0  0  0
 63139  1  0  0  0
 63140  1  0  0  0
 64141  1  0  0  0
 65142  1  0  0  0
 68 77  1  0  0  0
 71 72  2  0  0  0
 71 81  1  0  0  0
 71143  1  0  0  0
 72 73  1  0  0  0
 72 77  1  0  0  0
 73 78  1  0  0  0
 73 82  2  0  0  0
 74 80  1  0  0  0
 74 81  2  0  0  0
 74 82  1  0  0  0
 75 79  1  0  0  0
 75144  1  0  0  0
 75145  1  0  0  0
 75146  1  0  0  0
 76147  1  0  0  0
 76148  1  0  0  0
 76149  1  0  0  0
 76 80  1  0  0  0
 77150  1  0  0  0
 77151  1  0  0  0
 78 79  1  0  0  0
 78152  1  0  0  0
 78153  1  0  0  0
 79154  1  0  0  0
 79155  1  0  0  0
 80 83  1  0  0  0
 80156  1  0  0  0
 83157  1  0  0  0
M  ISO  4   1 100  68 101  77 101  83 100
M  END
> <chiral flag>
0

> <version>
0

> <s_m_source_file>
/data/baiqing/PycharmProjects/Reinvent-master-3.2/result/LINK_invent/BTK/process_docking_weight1_custom_sum_contain_oxygen_bond_distance_aromatic_linkinvent_7_9_3/rearranged_h_0076.sdf

> <i_m_source_file_index>
93

> <r_mmod_Potential_Energy-OPLS-2005>
635.531982421875

> <r_mmod_Stretch_Energy-OPLS-2005>
482.299133300781

> <r_mmod_Bend_Energy-OPLS-2005>
463.128814697266

> <r_mmod_Torsional_Energy-OPLS-2005>
195.977554321289

> <r_mmod_Improper_Torsional_Energy-OPLS-2005>
7.57757616043091

> <r_mmod_Van_der_Waal_Energy-OPLS-2005>
135.65087890625

> <r_mmod_Electrostatic_Energy-OPLS-2005>
-850.507446289062

> <r_mmod_Solvation_Energy-OPLS-2005>
-232.388900756836

> <b_mmod_Minimization_Converged-OPLS-2005>
0

> <r_mmod_RMS_Derivative-OPLS-2005>
3.33189010620117

$$$$
93
                    3D
 Structure written by MMmdl.
156164  0  0  1  0            999 V2000
  -30.5678  -14.7804   20.4933 C   0  0  0  0  0  0
  -30.4512  -12.4887   19.4698 C   0  0  0  0  0  0
  -29.5200  -12.5199   18.2361 C   0  0  0  0  0  0
  -28.0487  -12.3193   18.6524 C   0  0  0  0  0  0
  -27.6435  -13.2229   19.8462 C   0  0  2  0  0  0
  -28.6850  -13.1507   20.9825 C   0  0  0  0  0  0
  -25.2528  -13.8177   20.5663 C   0  0  0  0  0  0
  -24.1812  -13.0433   20.9196 C   0  0  0  0  0  0
  -24.6386  -11.6907   20.8732 C   0  0  0  0  0  0
  -23.9050  -10.4288   21.0403 C   0  0  0  0  0  0
  -24.3606   -9.4205   21.9180 C   0  0  0  0  0  0
  -23.6288   -8.2241   22.0759 C   0  0  0  0  0  0
  -22.4273   -8.0273   21.3546 C   0  0  0  0  0  0
  -21.9898   -9.0247   20.4653 C   0  0  0  0  0  0
  -22.7228  -10.2126   20.3058 C   0  0  0  0  0  0
  -21.6855   -6.0730   22.5277 C   0  0  0  0  0  0
  -21.4012   -6.5631   23.8218 C   0  0  0  0  0  0
  -21.3658   -5.6785   24.9176 C   0  0  0  0  0  0
  -21.6045   -4.3047   24.7230 C   0  0  0  0  0  0
  -21.8817   -3.8134   23.4346 C   0  0  0  0  0  0
  -21.9190   -4.6949   22.3399 C   0  0  0  0  0  0
  -22.7829  -13.5234   21.1848 C   0  0  0  0  0  0
  -22.1665   -4.2135   21.0981 F   0  0  0  0  0  0
  -21.5622   -3.4537   25.7737 F   0  0  0  0  0  0
  -29.9818  -13.5355   20.4061 N   0  0  0  0  0  0
  -26.2936  -12.9361   20.3221 N   0  0  0  0  0  0
  -25.9310  -11.6511   20.5695 N   0  0  0  0  0  0
  -22.0461  -12.8249   22.0412 N   0  0  0  0  0  0
  -25.4200  -15.1912   20.4073 N   0  0  0  0  0  0
  -31.7605  -14.9164   20.2019 O   0  0  0  0  0  0
  -21.6639   -6.8867   21.4244 O   0  0  0  0  0  0
  -22.3512  -14.5524   20.6661 O   0  0  0  0  0  0
  -24.6330  -31.8549   23.1944 C   0  0  0  0  0  0
  -25.9139  -32.4755   23.8317 C   0  0  1  0  0  0
  -27.2218  -27.2476   20.1504 C   0  0  0  0  0  0
  -25.5927  -33.8554   24.2246 N   0  0  0  0  0  0
  -23.4308  -30.4744   21.5397 C   0  0  2  0  0  0
  -24.8783  -28.9077   20.1202 C   0  0  0  0  0  0
  -22.7504  -29.4620   22.4922 C   0  0  0  0  0  0
  -18.0297  -28.1410   22.8497 C   0  0  0  0  0  0
  -24.1487  -36.7283   23.2640 C   0  0  0  0  0  0
  -25.9753  -30.7643   21.3740 C   0  0  0  0  0  0
  -26.0498  -29.3815   20.7251 C   0  0  0  0  0  0
  -27.2276  -28.5654   20.7225 C   0  0  0  0  0  0
  -26.0282  -26.8326   19.5269 C   0  0  0  0  0  0
  -24.8721  -27.6421   19.5098 C   0  0  0  0  0  0
  -23.6520  -29.8007   20.1593 C   0  0  0  0  0  0
  -25.4113  -36.3075   24.0335 C   0  0  1  0  0  0
  -20.5899  -28.3731   23.1271 C   0  0  2  0  0  0
  -20.6799  -26.9450   22.5411 C   0  0  0  0  0  0
  -19.5767  -26.6403   21.5228 C   0  0  0  0  0  0
  -18.1948  -26.7954   22.1637 C   0  0  0  0  0  0
  -19.1550  -28.8882   23.2882 C   0  0  0  0  0  0
  -18.9470  -30.1483   23.8908 C   0  0  0  0  0  0
  -17.6468  -30.6609   24.0570 C   0  0  0  0  0  0
  -25.9057  -34.9444   23.5101 C   0  0  0  0  0  0
  -16.5357  -29.9114   23.6330 C   0  0  0  0  0  0
  -16.7281  -28.6522   23.0360 C   0  0  0  0  0  0
  -26.4495  -31.6579   25.0710 C   0  0  0  0  0  0
  -25.3699  -31.3742   26.1419 C   0  0  0  0  0  0
  -27.0333  -30.2996   24.6194 C   0  0  0  0  0  0
  -27.6062  -32.4312   25.7473 C   0  0  0  0  0  0
  -27.5580  -37.1794   24.8464 C   0  0  0  0  0  0
  -21.4210  -29.3062   22.3639 N   0  0  0  0  0  0
  -26.4288  -37.3773   23.9416 N   0  0  0  0  0  0
  -24.6990  -31.0496   22.0934 N   0  0  0  0  0  0
  -23.4192  -28.8181   23.3047 O   0  0  0  0  0  0
  -28.3268  -26.3673   20.1343 O   0  0  0  0  0  0
  -26.5632  -34.8924   22.4673 O   0  0  0  0  0  0
  -23.5473  -32.1377   23.7226 O   0  0  0  0  0  0
  -30.6716  -19.1406   18.0431 C   0  0  0  0  0  0
  -30.0406  -20.1903   18.6567 C   0  0  0  0  0  0
  -29.9641  -18.4027   19.9720 C   0  0  0  0  0  0
  -30.9560  -17.5590   22.1660 C   0  0  0  0  0  0
  -29.1612  -22.3220   20.8729 C   0  0  0  0  0  0
  -28.5036  -23.5707   20.0459 C   0  0  0  0  0  0
  -28.7840  -20.7289   20.7597 C   0  0  0  0  0  0
  -28.2415  -25.0078   20.7836 C   0  0  0  0  0  0
  -29.8459  -17.3478   21.1241 C   0  0  2  0  0  0
  -30.6177  -18.0301   18.8717 N   0  0  0  0  0  0
  -29.5850  -19.7650   19.9012 N   0  0  0  0  0  0
  -29.7232  -15.8524   20.7574 N   0  0  0  0  0  0
  -31.4861  -12.6485   19.1631 H   0  0  0  0  0  0
  -30.4274  -11.5105   19.9507 H   0  0  0  0  0  0
  -29.8213  -11.7531   17.5227 H   0  0  0  0  0  0
  -29.6273  -13.4745   17.7189 H   0  0  0  0  0  0
  -27.9294  -11.2711   18.9294 H   0  0  0  0  0  0
  -27.3857  -12.4887   17.8022 H   0  0  0  0  0  0
  -27.6393  -14.2430   19.4601 H   0  0  0  0  0  0
  -28.7342  -12.1468   21.4060 H   0  0  0  0  0  0
  -28.4017  -13.8104   21.8035 H   0  0  0  0  0  0
  -25.2755   -9.5684   22.4749 H   0  0  0  0  0  0
  -23.9995   -7.4634   22.7482 H   0  0  0  0  0  0
  -21.0822   -8.8760   19.8974 H   0  0  0  0  0  0
  -22.3678  -10.9655   19.6157 H   0  0  0  0  0  0
  -21.2022   -7.6143   23.9714 H   0  0  0  0  0  0
  -21.1481   -6.0518   25.9080 H   0  0  0  0  0  0
  -22.0600   -2.7594   23.2850 H   0  0  0  0  0  0
  -22.4061  -11.9940   22.4859 H   0  0  0  0  0  0
  -21.1073  -13.1292   22.2584 H   0  0  0  0  0  0
  -24.6391  -15.8317   20.4956 H   0  0  0  0  0  0
  -26.2439  -15.6280   20.0146 H   0  0  0  0  0  0
  -26.7202  -32.5404   23.1055 H   0  0  0  0  0  0
  -25.0044  -33.9683   25.0375 H   0  0  0  0  0  0
  -22.7300  -31.2980   21.3892 H   0  0  0  0  0  0
  -23.3761  -35.9602   23.3290 H   0  0  0  0  0  0
  -24.3580  -36.8917   22.2055 H   0  0  0  0  0  0
  -23.7217  -37.6478   23.6662 H   0  0  0  0  0  0
  -26.1046  -31.5171   20.5956 H   0  0  0  0  0  0
  -26.8556  -30.8224   22.0024 H   0  0  0  0  0  0
  -28.1289  -28.9258   21.1983 H   0  0  0  0  0  0
  -25.9849  -25.8590   19.0581 H   0  0  0  0  0  0
  -23.9733  -27.2753   19.0335 H   0  0  0  0  0  0
  -23.7813  -30.5727   19.3996 H   0  0  0  0  0  0
  -22.7698  -29.2367   19.8516 H   0  0  0  0  0  0
  -25.1286  -36.1932   25.0825 H   0  0  0  0  0  0
  -20.9993  -28.3320   24.1392 H   0  0  0  0  0  0
  -20.5748  -26.2340   23.3618 H   0  0  0  0  0  0
  -21.6666  -26.7517   22.1176 H   0  0  0  0  0  0
  -19.6941  -25.6313   21.1266 H   0  0  0  0  0  0
  -19.6701  -27.3205   20.6751 H   0  0  0  0  0  0
  -17.4224  -26.6711   21.4029 H   0  0  0  0  0  0
  -18.0346  -26.0095   22.9029 H   0  0  0  0  0  0
  -19.7940  -30.7292   24.2298 H   0  0  0  0  0  0
  -17.5021  -31.6287   24.5175 H   0  0  0  0  0  0
  -15.5361  -30.3019   23.7641 H   0  0  0  0  0  0
  -15.8687  -28.0834   22.7088 H   0  0  0  0  0  0
  -24.5866  -30.7117   25.7712 H   0  0  0  0  0  0
  -24.8904  -32.2922   26.4825 H   0  0  0  0  0  0
  -25.7985  -30.8901   27.0202 H   0  0  0  0  0  0
  -26.2910  -29.6751   24.1212 H   0  0  0  0  0  0
  -27.4003  -29.7254   25.4709 H   0  0  0  0  0  0
  -27.8789  -30.4271   23.9435 H   0  0  0  0  0  0
  -27.2688  -33.3617   26.2047 H   0  0  0  0  0  0
  -28.3858  -32.6866   25.0284 H   0  0  0  0  0  0
  -28.0744  -31.8443   26.5384 H   0  0  0  0  0  0
  -28.2595  -38.0095   24.7527 H   0  0  0  0  0  0
  -28.1083  -36.2630   24.6269 H   0  0  0  0  0  0
  -27.2308  -37.1416   25.8872 H   0  0  0  0  0  0
  -20.9425  -29.8720   21.6769 H   0  0  0  0  0  0
  -26.0177  -38.2854   24.1425 H   0  0  0  0  0  0
  -31.1486  -19.0992   17.0733 H   0  0  0  0  0  0
  -29.8791  -21.2013   18.3050 H   0  0  0  0  0  0
  -30.9451  -18.5820   22.5469 H   0  0  0  0  0  0
  -31.9402  -17.3846   21.7314 H   0  0  0  0  0  0
  -30.8347  -16.8883   23.0166 H   0  0  0  0  0  0
  -28.9390  -22.5600   21.9143 H   0  0  0  0  0  0
  -30.2467  -22.4171   20.8251 H   0  0  0  0  0  0
  -27.5563  -23.2434   19.6156 H   0  0  0  0  0  0
  -29.1503  -23.7518   19.1878 H   0  0  0  0  0  0
  -27.7384  -20.6398   20.4629 H   0  0  0  0  0  0
  -28.8192  -20.3144   21.7686 H   0  0  0  0  0  0
  -28.9769  -25.0681   21.5857 H   0  0  0  0  0  0
  -27.2897  -24.9363   21.3123 H   0  0  0  0  0  0
  -28.9062  -17.5812   21.6249 H   0  0  0  0  0  0
  -28.7700  -15.5375   20.8417 H   0  0  0  0  0  0
  1 25  1  0  0  0
  1 30  2  0  0  0
  1 82  1  0  0  0
  2  3  1  0  0  0
  2 25  1  0  0  0
  2 83  1  0  0  0
  2 84  1  0  0  0
  3  4  1  0  0  0
  3 85  1  0  0  0
  3 86  1  0  0  0
  4  5  1  0  0  0
  4 87  1  0  0  0
  4 88  1  0  0  0
  5  6  1  0  0  0
  5 26  1  0  0  0
  5 89  1  0  0  0
  6 25  1  0  0  0
  6 90  1  0  0  0
  6 91  1  0  0  0
  7  8  2  0  0  0
  7 26  1  0  0  0
  7 29  1  0  0  0
  8  9  1  0  0  0
  8 22  1  0  0  0
  9 10  1  0  0  0
  9 27  2  0  0  0
 10 11  2  0  0  0
 10 15  1  0  0  0
 11 12  1  0  0  0
 11 92  1  0  0  0
 12 13  2  0  0  0
 12 93  1  0  0  0
 13 14  1  0  0  0
 13 31  1  0  0  0
 14 15  2  0  0  0
 14 94  1  0  0  0
 15 95  1  0  0  0
 16 17  2  0  0  0
 16 21  1  0  0  0
 16 31  1  0  0  0
 17 18  1  0  0  0
 17 96  1  0  0  0
 18 19  2  0  0  0
 18 97  1  0  0  0
 19 20  1  0  0  0
 19 24  1  0  0  0
 20 21  2  0  0  0
 20 98  1  0  0  0
 21 23  1  0  0  0
 22 28  1  0  0  0
 22 32  2  0  0  0
 26 27  1  0  0  0
 28 99  1  0  0  0
 28100  1  0  0  0
 29101  1  0  0  0
 29102  1  0  0  0
 33 34  1  0  0  0
 33 66  1  0  0  0
 33 70  2  0  0  0
 34 36  1  0  0  0
 34 59  1  0  0  0
 34103  1  0  0  0
 35 44  2  0  0  0
 35 45  1  0  0  0
 35 68  1  0  0  0
 36 56  1  0  0  0
 36104  1  0  0  0
 37 39  1  0  0  0
 37 47  1  0  0  0
 37 66  1  0  0  0
 37105  1  0  0  0
 38 43  2  0  0  0
 38 46  1  0  0  0
 38 47  1  0  0  0
 39 64  1  0  0  0
 39 67  2  0  0  0
 40 52  1  0  0  0
 40 53  2  0  0  0
 40 58  1  0  0  0
 41106  1  0  0  0
 41107  1  0  0  0
 41108  1  0  0  0
 41 48  1  0  0  0
 42 43  1  0  0  0
 42 66  1  0  0  0
 42109  1  0  0  0
 42110  1  0  0  0
 43 44  1  0  0  0
 44111  1  0  0  0
 45 46  2  0  0  0
 45112  1  0  0  0
 46113  1  0  0  0
 47114  1  0  0  0
 47115  1  0  0  0
 48 56  1  0  0  0
 48 65  1  0  0  0
 48116  1  0  0  0
 49 50  1  0  0  0
 49 53  1  0  0  0
 49 64  1  0  0  0
 49117  1  0  0  0
 50 51  1  0  0  0
 50118  1  0  0  0
 50119  1  0  0  0
 51 52  1  0  0  0
 51120  1  0  0  0
 51121  1  0  0  0
 52122  1  0  0  0
 52123  1  0  0  0
 53 54  1  0  0  0
 54 55  2  0  0  0
 54124  1  0  0  0
 55 57  1  0  0  0
 55125  1  0  0  0
 56 69  2  0  0  0
 57 58  2  0  0  0
 57126  1  0  0  0
 58127  1  0  0  0
 59 60  1  0  0  0
 59 61  1  0  0  0
 59 62  1  0  0  0
 60128  1  0  0  0
 60129  1  0  0  0
 60130  1  0  0  0
 61131  1  0  0  0
 61132  1  0  0  0
 61133  1  0  0  0
 62134  1  0  0  0
 62135  1  0  0  0
 62136  1  0  0  0
 63 65  1  0  0  0
 63137  1  0  0  0
 63138  1  0  0  0
 63139  1  0  0  0
 64140  1  0  0  0
 65141  1  0  0  0
 68 78  1  0  0  0
 71 72  2  0  0  0
 71 80  1  0  0  0
 71142  1  0  0  0
 72 81  1  0  0  0
 72143  1  0  0  0
 73 79  1  0  0  0
 73 80  2  0  0  0
 73 81  1  0  0  0
 74144  1  0  0  0
 74145  1  0  0  0
 74146  1  0  0  0
 74 79  1  0  0  0
 75 76  1  0  0  0
 75 77  1  0  0  0
 75147  1  0  0  0
 75148  1  0  0  0
 76 78  1  0  0  0
 76149  1  0  0  0
 76150  1  0  0  0
 77 81  1  0  0  0
 77151  1  0  0  0
 77152  1  0  0  0
 78153  1  0  0  0
 78154  1  0  0  0
 79 82  1  0  0  0
 79155  1  0  0  0
 82156  1  0  0  0
M  ISO  4   1 100  68 101  78 101  82 100
M  END
> <chiral flag>
0

> <version>
0

> <s_m_source_file>
/data/baiqing/PycharmProjects/Reinvent-master-3.2/result/LINK_invent/BTK/process_docking_weight1_custom_sum_contain_oxygen_bond_distance_aromatic_linkinvent_7_9_3/rearranged_h_0076.sdf

> <i_m_source_file_index>
94

> <r_mmod_Potential_Energy-OPLS-2005>
175.593414306641

> <r_mmod_Stretch_Energy-OPLS-2005>
141.393692016602

> <r_mmod_Bend_Energy-OPLS-2005>
233.629699707031

> <r_mmod_Torsional_Energy-OPLS-2005>
244.240844726562

> <r_mmod_Improper_Torsional_Energy-OPLS-2005>
4.52057886123657

> <r_mmod_Van_der_Waal_Energy-OPLS-2005>
103.603889465332

> <r_mmod_Electrostatic_Energy-OPLS-2005>
-408.675018310547

> <r_mmod_Solvation_Energy-OPLS-2005>
-239.488830566406

> <b_mmod_Minimization_Converged-OPLS-2005>
0

> <r_mmod_RMS_Derivative-OPLS-2005>
2.11324548721313

$$$$
94
                    3D
 Structure written by MMmdl.
176184  0  0  1  0            999 V2000
  -30.7042  -14.5120   20.5935 C   0  0  0  0  0  0
  -30.4219  -12.3349   19.4333 C   0  0  0  0  0  0
  -29.4928  -12.4993   18.2124 C   0  0  0  0  0  0
  -28.0151  -12.3553   18.6259 C   0  0  0  0  0  0
  -27.6557  -13.2133   19.8681 C   0  0  2  0  0  0
  -28.6987  -13.0281   20.9922 C   0  0  0  0  0  0
  -25.2563  -13.8183   20.5687 C   0  0  0  0  0  0
  -24.1830  -13.0457   20.9190 C   0  0  0  0  0  0
  -24.6393  -11.6918   20.8755 C   0  0  0  0  0  0
  -23.9073  -10.4301   21.0424 C   0  0  0  0  0  0
  -24.3621   -9.4209   21.9194 C   0  0  0  0  0  0
  -23.6294   -8.2247   22.0763 C   0  0  0  0  0  0
  -22.4271   -8.0291   21.3555 C   0  0  0  0  0  0
  -21.9917   -9.0264   20.4652 C   0  0  0  0  0  0
  -22.7253  -10.2144   20.3063 C   0  0  0  0  0  0
  -21.6853   -6.0743   22.5286 C   0  0  0  0  0  0
  -21.4009   -6.5642   23.8218 C   0  0  0  0  0  0
  -21.3661   -5.6794   24.9184 C   0  0  0  0  0  0
  -21.6044   -4.3059   24.7232 C   0  0  0  0  0  0
  -21.8817   -3.8150   23.4351 C   0  0  0  0  0  0
  -21.9189   -4.6969   22.3407 C   0  0  0  0  0  0
  -22.7847  -13.5244   21.1851 C   0  0  0  0  0  0
  -22.1661   -4.2151   21.0988 F   0  0  0  0  0  0
  -21.5631   -3.4541   25.7746 F   0  0  0  0  0  0
  -30.0247  -13.3369   20.4389 N   0  0  0  0  0  0
  -26.2995  -12.9364   20.3341 N   0  0  0  0  0  0
  -25.9317  -11.6519   20.5767 N   0  0  0  0  0  0
  -22.0484  -12.8241   22.0401 N   0  0  0  0  0  0
  -25.4310  -15.1908   20.4136 N   0  0  0  0  0  0
  -31.8240  -14.6604   20.0951 O   0  0  0  0  0  0
  -21.6640   -6.8885   21.4247 O   0  0  0  0  0  0
  -22.3543  -14.5566   20.6713 O   0  0  0  0  0  0
  -24.6169  -31.8667   23.2106 C   0  0  0  0  0  0
  -25.9038  -32.4834   23.8396 C   0  0  1  0  0  0
  -27.2224  -27.3850   20.1219 C   0  0  0  0  0  0
  -25.5877  -33.8624   24.2306 N   0  0  0  0  0  0
  -23.4092  -30.4885   21.5520 C   0  0  2  0  0  0
  -24.8569  -28.9518   20.1231 C   0  0  0  0  0  0
  -22.7431  -29.4651   22.4995 C   0  0  0  0  0  0
  -18.0266  -28.1376   22.8474 C   0  0  0  0  0  0
  -24.1482  -36.7335   23.2642 C   0  0  0  0  0  0
  -25.9446  -30.8154   21.3772 C   0  0  0  0  0  0
  -26.0206  -29.4434   20.7329 C   0  0  0  0  0  0
  -27.2087  -28.6646   20.7345 C   0  0  0  0  0  0
  -26.0496  -26.9383   19.4831 C   0  0  0  0  0  0
  -24.8672  -27.6956   19.5003 C   0  0  0  0  0  0
  -23.6215  -29.8227   20.1673 C   0  0  0  0  0  0
  -25.4102  -36.3104   24.0321 C   0  0  1  0  0  0
  -20.5855  -28.3682   23.1305 C   0  0  2  0  0  0
  -20.6760  -26.9415   22.5406 C   0  0  0  0  0  0
  -19.5745  -26.6379   21.5205 C   0  0  0  0  0  0
  -18.1920  -26.7917   22.1613 C   0  0  0  0  0  0
  -19.1513  -28.8842   23.2884 C   0  0  0  0  0  0
  -18.9444  -30.1439   23.8911 C   0  0  0  0  0  0
  -17.6448  -30.6577   24.0562 C   0  0  0  0  0  0
  -25.9027  -34.9477   23.5107 C   0  0  0  0  0  0
  -16.5341  -29.9074   23.6339 C   0  0  0  0  0  0
  -16.7251  -28.6492   23.0342 C   0  0  0  0  0  0
  -26.4446  -31.6632   25.0738 C   0  0  0  0  0  0
  -25.3685  -31.3724   26.1466 C   0  0  0  0  0  0
  -27.0294  -30.3069   24.6149 C   0  0  0  0  0  0
  -27.6012  -32.4360   25.7482 C   0  0  0  0  0  0
  -27.5583  -37.1794   24.8448 C   0  0  0  0  0  0
  -21.4144  -29.3054   22.3727 N   0  0  0  0  0  0
  -26.4296  -37.3783   23.9390 N   0  0  0  0  0  0
  -24.6751  -31.0709   22.1052 N   0  0  0  0  0  0
  -23.4198  -28.8212   23.3050 O   0  0  0  0  0  0
  -28.3686  -26.6213   20.0013 O   0  0  0  0  0  0
  -26.5611  -34.8945   22.4680 O   0  0  0  0  0  0
  -23.5335  -32.1454   23.7448 O   0  0  0  0  0  0
  -29.3387  -19.4788   20.9491 C   0  0  0  0  0  0
  -30.1458  -18.4324   21.3508 C   0  0  0  0  0  0
  -30.2096  -20.0716   22.9069 C   0  0  0  0  0  0
  -30.3252  -15.6593   22.8257 C   0  0  0  0  0  0
  -29.4327  -20.3550   25.2643 C   0  0  0  0  0  0
  -30.7652  -22.2000   24.2169 C   0  0  0  0  0  0
  -31.8698  -20.0656   24.8069 C   0  0  0  0  0  0
  -27.7703  -23.7699   19.3866 C   0  0  0  0  0  0
  -26.7637  -24.1098   21.6752 C   0  0  0  0  0  0
  -30.5556  -17.1190   20.6864 C   0  0  0  0  0  0
  -29.0955  -23.0486   21.3779 C   0  0  0  0  0  0
  -28.4952  -21.6892   21.9020 C   0  0  0  0  0  0
  -28.6759  -25.6045   20.9889 C   0  0  0  0  0  0
  -30.0668  -15.7522   21.3091 C   0  0  1  0  0  0
  -30.5555  -20.6767   24.2628 C   0  0  0  0  0  0
  -28.0744  -24.1424   20.8550 C   0  0  0  0  0  0
  -29.3668  -20.4658   21.9191 N   0  0  0  0  0  0
  -30.6579  -18.8562   22.5493 N   0  3  0  0  0  0
  -31.4646  -12.4341   19.1266 H   0  0  0  0  0  0
  -30.3319  -11.3304   19.8520 H   0  0  0  0  0  0
  -29.7383  -11.7570   17.4517 H   0  0  0  0  0  0
  -29.6543  -13.4761   17.7542 H   0  0  0  0  0  0
  -27.8328  -11.3015   18.8383 H   0  0  0  0  0  0
  -27.3628  -12.6096   17.7899 H   0  0  0  0  0  0
  -27.6908  -14.2548   19.5497 H   0  0  0  0  0  0
  -28.6827  -11.9998   21.3572 H   0  0  0  0  0  0
  -28.4499  -13.6469   21.8531 H   0  0  0  0  0  0
  -25.2766   -9.5684   22.4768 H   0  0  0  0  0  0
  -24.0002   -7.4640   22.7485 H   0  0  0  0  0  0
  -21.0849   -8.8793   19.8951 H   0  0  0  0  0  0
  -22.3721  -10.9688   19.6171 H   0  0  0  0  0  0
  -21.1997   -7.6147   23.9726 H   0  0  0  0  0  0
  -21.1486   -6.0525   25.9089 H   0  0  0  0  0  0
  -22.0591   -2.7610   23.2857 H   0  0  0  0  0  0
  -22.4080  -11.9885   22.4775 H   0  0  0  0  0  0
  -21.1107  -13.1287   22.2619 H   0  0  0  0  0  0
  -24.6726  -15.8520   20.5417 H   0  0  0  0  0  0
  -26.2925  -15.6298   20.1145 H   0  0  0  0  0  0
  -26.7123  -32.5531   23.1172 H   0  0  0  0  0  0
  -24.9953  -33.9785   25.0395 H   0  0  0  0  0  0
  -22.6991  -31.3062   21.4106 H   0  0  0  0  0  0
  -23.3713  -35.9701   23.3311 H   0  0  0  0  0  0
  -24.3566  -36.8962   22.2059 H   0  0  0  0  0  0
  -23.7294  -37.6558   23.6670 H   0  0  0  0  0  0
  -26.0600  -31.5794   20.6071 H   0  0  0  0  0  0
  -26.8320  -30.8724   21.9972 H   0  0  0  0  0  0
  -28.1132  -29.0427   21.1912 H   0  0  0  0  0  0
  -26.0370  -26.0112   18.9402 H   0  0  0  0  0  0
  -23.9800  -27.3123   19.0122 H   0  0  0  0  0  0
  -23.7378  -30.5971   19.4084 H   0  0  0  0  0  0
  -22.7429  -29.2466   19.8710 H   0  0  0  0  0  0
  -25.1272  -36.1969   25.0813 H   0  0  0  0  0  0
  -20.9933  -28.3248   24.1429 H   0  0  0  0  0  0
  -20.5674  -26.2280   23.3583 H   0  0  0  0  0  0
  -21.6633  -26.7454   22.1211 H   0  0  0  0  0  0
  -19.6922  -25.6288   21.1246 H   0  0  0  0  0  0
  -19.6711  -27.3171   20.6724 H   0  0  0  0  0  0
  -17.4192  -26.6647   21.4012 H   0  0  0  0  0  0
  -18.0324  -26.0064   22.9014 H   0  0  0  0  0  0
  -19.7932  -30.7218   24.2303 H   0  0  0  0  0  0
  -17.5014  -31.6281   24.5142 H   0  0  0  0  0  0
  -15.5330  -30.2974   23.7675 H   0  0  0  0  0  0
  -15.8646  -28.0821   22.7049 H   0  0  0  0  0  0
  -24.5865  -30.7081   25.7764 H   0  0  0  0  0  0
  -24.8859  -32.2878   26.4897 H   0  0  0  0  0  0
  -25.8014  -30.8898   27.0246 H   0  0  0  0  0  0
  -26.2877  -29.6794   24.1207 H   0  0  0  0  0  0
  -27.4066  -29.7323   25.4617 H   0  0  0  0  0  0
  -27.8701  -30.4347   23.9330 H   0  0  0  0  0  0
  -27.2631  -33.3676   26.2029 H   0  0  0  0  0  0
  -28.3813  -32.6900   25.0290 H   0  0  0  0  0  0
  -28.0697  -31.8524   26.5422 H   0  0  0  0  0  0
  -28.2552  -38.0130   24.7508 H   0  0  0  0  0  0
  -28.1138  -36.2652   24.6258 H   0  0  0  0  0  0
  -27.2302  -37.1420   25.8853 H   0  0  0  0  0  0
  -20.9306  -29.8829   21.6988 H   0  0  0  0  0  0
  -26.0188  -38.2857   24.1404 H   0  0  0  0  0  0
  -28.7356  -19.5827   20.0562 H   0  0  0  0  0  0
  -29.7378  -16.3966   23.3718 H   0  0  0  0  0  0
  -31.3796  -15.8166   23.0573 H   0  0  0  0  0  0
  -30.0488  -14.6804   23.2193 H   0  0  0  0  0  0
  -28.4814  -20.7831   24.9514 H   0  0  0  0  0  0
  -29.6577  -20.7507   26.2555 H   0  0  0  0  0  0
  -29.2858  -19.2788   25.3650 H   0  0  0  0  0  0
  -29.8204  -22.7263   24.1081 H   0  0  0  0  0  0
  -31.4420  -22.4849   23.4093 H   0  0  0  0  0  0
  -31.1939  -22.5735   25.1479 H   0  0  0  0  0  0
  -31.7910  -18.9922   24.9796 H   0  0  0  0  0  0
  -32.1548  -20.5081   25.7612 H   0  0  0  0  0  0
  -32.7019  -20.2310   24.1226 H   0  0  0  0  0  0
  -27.7465  -22.6884   19.2479 H   0  0  0  0  0  0
  -28.5224  -24.1714   18.7065 H   0  0  0  0  0  0
  -26.7976  -24.1168   19.0519 H   0  0  0  0  0  0
  -26.2021  -23.1871   21.5349 H   0  0  0  0  0  0
  -26.0982  -24.9254   21.3931 H   0  0  0  0  0  0
  -26.9586  -24.2126   22.7440 H   0  0  0  0  0  0
  -31.6453  -17.1265   20.6473 H   0  0  0  0  0  0
  -30.2374  -17.1597   19.6439 H   0  0  0  0  0  0
  -29.8141  -22.8284   20.5863 H   0  0  0  0  0  0
  -29.6931  -23.5117   22.1560 H   0  0  0  0  0  0
  -27.6426  -21.4234   21.2778 H   0  0  0  0  0  0
  -28.0796  -21.8212   22.9003 H   0  0  0  0  0  0
  -29.7617  -25.5151   20.9442 H   0  0  0  0  0  0
  -28.4864  -26.0072   21.9858 H   0  0  0  0  0  0
  -28.9897  -15.7168   21.1509 H   0  0  0  0  0  0
  -31.3084  -18.3257   23.1172 H   0  0  0  0  0  0
  1 25  1  0  0  0
  1 30  2  0  0  0
  1 84  1  0  0  0
  2  3  1  0  0  0
  2 25  1  0  0  0
  2 89  1  0  0  0
  2 90  1  0  0  0
  3  4  1  0  0  0
  3 91  1  0  0  0
  3 92  1  0  0  0
  4  5  1  0  0  0
  4 93  1  0  0  0
  4 94  1  0  0  0
  5  6  1  0  0  0
  5 26  1  0  0  0
  5 95  1  0  0  0
  6 25  1  0  0  0
  6 96  1  0  0  0
  6 97  1  0  0  0
  7  8  2  0  0  0
  7 26  1  0  0  0
  7 29  1  0  0  0
  8  9  1  0  0  0
  8 22  1  0  0  0
  9 10  1  0  0  0
  9 27  2  0  0  0
 10 11  2  0  0  0
 10 15  1  0  0  0
 11 12  1  0  0  0
 11 98  1  0  0  0
 12 13  2  0  0  0
 12 99  1  0  0  0
 13 14  1  0  0  0
 13 31  1  0  0  0
 14 15  2  0  0  0
 14100  1  0  0  0
 15101  1  0  0  0
 16 17  2  0  0  0
 16 21  1  0  0  0
 16 31  1  0  0  0
 17 18  1  0  0  0
 17102  1  0  0  0
 18 19  2  0  0  0
 18103  1  0  0  0
 19 20  1  0  0  0
 19 24  1  0  0  0
 20 21  2  0  0  0
 20104  1  0  0  0
 21 23  1  0  0  0
 22 28  1  0  0  0
 22 32  2  0  0  0
 26 27  1  0  0  0
 28105  1  0  0  0
 28106  1  0  0  0
 29107  1  0  0  0
 29108  1  0  0  0
 33 34  1  0  0  0
 33 66  1  0  0  0
 33 70  2  0  0  0
 34 36  1  0  0  0
 34 59  1  0  0  0
 34109  1  0  0  0
 35 44  2  0  0  0
 35 45  1  0  0  0
 35 68  1  0  0  0
 36 56  1  0  0  0
 36110  1  0  0  0
 37 39  1  0  0  0
 37 47  1  0  0  0
 37 66  1  0  0  0
 37111  1  0  0  0
 38 43  2  0  0  0
 38 46  1  0  0  0
 38 47  1  0  0  0
 39 64  1  0  0  0
 39 67  2  0  0  0
 40 52  1  0  0  0
 40 53  2  0  0  0
 40 58  1  0  0  0
 41112  1  0  0  0
 41113  1  0  0  0
 41114  1  0  0  0
 41 48  1  0  0  0
 42 43  1  0  0  0
 42 66  1  0  0  0
 42115  1  0  0  0
 42116  1  0  0  0
 43 44  1  0  0  0
 44117  1  0  0  0
 45 46  2  0  0  0
 45118  1  0  0  0
 46119  1  0  0  0
 47120  1  0  0  0
 47121  1  0  0  0
 48 56  1  0  0  0
 48 65  1  0  0  0
 48122  1  0  0  0
 49 50  1  0  0  0
 49 53  1  0  0  0
 49 64  1  0  0  0
 49123  1  0  0  0
 50 51  1  0  0  0
 50124  1  0  0  0
 50125  1  0  0  0
 51 52  1  0  0  0
 51126  1  0  0  0
 51127  1  0  0  0
 52128  1  0  0  0
 52129  1  0  0  0
 53 54  1  0  0  0
 54 55  2  0  0  0
 54130  1  0  0  0
 55 57  1  0  0  0
 55131  1  0  0  0
 56 69  2  0  0  0
 57 58  2  0  0  0
 57132  1  0  0  0
 58133  1  0  0  0
 59 60  1  0  0  0
 59 61  1  0  0  0
 59 62  1  0  0  0
 60134  1  0  0  0
 60135  1  0  0  0
 60136  1  0  0  0
 61137  1  0  0  0
 61138  1  0  0  0
 61139  1  0  0  0
 62140  1  0  0  0
 62141  1  0  0  0
 62142  1  0  0  0
 63 65  1  0  0  0
 63143  1  0  0  0
 63144  1  0  0  0
 63145  1  0  0  0
 64146  1  0  0  0
 65147  1  0  0  0
 68 83  1  0  0  0
 71 72  2  0  0  0
 71 87  1  0  0  0
 71148  1  0  0  0
 72 80  1  0  0  0
 72 88  1  0  0  0
 73 85  1  0  0  0
 73 87  1  0  0  0
 73 88  2  0  0  0
 74149  1  0  0  0
 74150  1  0  0  0
 74151  1  0  0  0
 74 84  1  0  0  0
 75152  1  0  0  0
 75153  1  0  0  0
 75154  1  0  0  0
 75 85  1  0  0  0
 76 85  1  0  0  0
 76155  1  0  0  0
 76156  1  0  0  0
 76157  1  0  0  0
 77 85  1  0  0  0
 77158  1  0  0  0
 77159  1  0  0  0
 77160  1  0  0  0
 78161  1  0  0  0
 78162  1  0  0  0
 78163  1  0  0  0
 78 86  1  0  0  0
 79 86  1  0  0  0
 79164  1  0  0  0
 79165  1  0  0  0
 79166  1  0  0  0
 80 84  1  0  0  0
 80167  1  0  0  0
 80168  1  0  0  0
 81 82  1  0  0  0
 81 86  1  0  0  0
 81169  1  0  0  0
 81170  1  0  0  0
 82 87  1  0  0  0
 82171  1  0  0  0
 82172  1  0  0  0
 83 86  1  0  0  0
 83173  1  0  0  0
 83174  1  0  0  0
 84175  1  0  0  0
 88176  1  0  0  0
M  CHG  1  88   1
M  ISO  4   1 100  68 101  83 101  84 100
M  END
> <chiral flag>
0

> <version>
0

> <s_m_source_file>
/data/baiqing/PycharmProjects/Reinvent-master-3.2/result/LINK_invent/BTK/process_docking_weight1_custom_sum_contain_oxygen_bond_distance_aromatic_linkinvent_7_9_3/rearranged_h_0076.sdf

> <i_m_source_file_index>
95

> <r_mmod_Potential_Energy-OPLS-2005>
56.0010681152344

> <r_mmod_Stretch_Energy-OPLS-2005>
57.8448143005371

> <r_mmod_Bend_Energy-OPLS-2005>
144.227600097656

> <r_mmod_Torsional_Energy-OPLS-2005>
266.934051513672

> <r_mmod_Improper_Torsional_Energy-OPLS-2005>
3.59961891174316

> <r_mmod_Van_der_Waal_Energy-OPLS-2005>
126.390480041504

> <r_mmod_Electrostatic_Energy-OPLS-2005>
-188.748672485352

> <r_mmod_Solvation_Energy-OPLS-2005>
-372.305603027344

> <b_mmod_Minimization_Converged-OPLS-2005>
0

> <r_mmod_RMS_Derivative-OPLS-2005>
3.16155505180359

$$$$
95
                    3D
 Structure written by MMmdl.
166174  0  0  1  0            999 V2000
  -30.6296  -14.7103   20.4873 C   0  0  0  0  0  0
  -30.4412  -12.4350   19.4701 C   0  0  0  0  0  0
  -29.5126  -12.5187   18.2354 C   0  0  0  0  0  0
  -28.0330  -12.3448   18.6377 C   0  0  0  0  0  0
  -27.6485  -13.2093   19.8664 C   0  0  2  0  0  0
  -28.7022  -13.0625   20.9873 C   0  0  0  0  0  0
  -25.2500  -13.8115   20.5626 C   0  0  0  0  0  0
  -24.1796  -13.0393   20.9196 C   0  0  0  0  0  0
  -24.6381  -11.6871   20.8771 C   0  0  0  0  0  0
  -23.9056  -10.4265   21.0427 C   0  0  0  0  0  0
  -24.3610   -9.4180   21.9198 C   0  0  0  0  0  0
  -23.6283   -8.2219   22.0760 C   0  0  0  0  0  0
  -22.4267   -8.0265   21.3545 C   0  0  0  0  0  0
  -21.9905   -9.0242   20.4650 C   0  0  0  0  0  0
  -22.7236  -10.2118   20.3066 C   0  0  0  0  0  0
  -21.6845   -6.0729   22.5283 C   0  0  0  0  0  0
  -21.4008   -6.5634   23.8216 C   0  0  0  0  0  0
  -21.3657   -5.6789   24.9179 C   0  0  0  0  0  0
  -21.6046   -4.3053   24.7231 C   0  0  0  0  0  0
  -21.8819   -3.8143   23.4352 C   0  0  0  0  0  0
  -21.9188   -4.6958   22.3406 C   0  0  0  0  0  0
  -22.7822  -13.5198   21.1854 C   0  0  0  0  0  0
  -22.1659   -4.2145   21.0984 F   0  0  0  0  0  0
  -21.5631   -3.4537   25.7743 F   0  0  0  0  0  0
  -30.0044  -13.4736   20.4382 N   0  0  0  0  0  0
  -26.2959  -12.9293   20.3348 N   0  0  0  0  0  0
  -25.9311  -11.6460   20.5806 N   0  0  0  0  0  0
  -22.0463  -12.8209   22.0419 N   0  0  0  0  0  0
  -25.4085  -15.1831   20.3887 N   0  0  0  0  0  0
  -31.8064  -14.7568   20.1096 O   0  0  0  0  0  0
  -21.6629   -6.8867   21.4242 O   0  0  0  0  0  0
  -22.3513  -14.5504   20.6691 O   0  0  0  0  0  0
  -24.6277  -31.8592   23.2030 C   0  0  0  0  0  0
  -25.9121  -32.4776   23.8358 C   0  0  1  0  0  0
  -27.2250  -27.3043   20.1101 C   0  0  0  0  0  0
  -25.5934  -33.8577   24.2282 N   0  0  0  0  0  0
  -23.4217  -30.4841   21.5463 C   0  0  2  0  0  0
  -24.8675  -28.9415   20.1103 C   0  0  0  0  0  0
  -22.7481  -29.4620   22.4934 C   0  0  0  0  0  0
  -18.0286  -28.1387   22.8486 C   0  0  0  0  0  0
  -24.1490  -36.7292   23.2638 C   0  0  0  0  0  0
  -25.9654  -30.7837   21.3787 C   0  0  0  0  0  0
  -26.0377  -29.4110   20.7188 C   0  0  0  0  0  0
  -27.2160  -28.6033   20.7126 C   0  0  0  0  0  0
  -26.0272  -26.8996   19.4714 C   0  0  0  0  0  0
  -24.8652  -27.6911   19.4786 C   0  0  0  0  0  0
  -23.6369  -29.8230   20.1606 C   0  0  0  0  0  0
  -25.4116  -36.3082   24.0328 C   0  0  1  0  0  0
  -20.5888  -28.3691   23.1281 C   0  0  2  0  0  0
  -20.6777  -26.9414   22.5408 C   0  0  0  0  0  0
  -19.5751  -26.6385   21.5213 C   0  0  0  0  0  0
  -18.1932  -26.7929   22.1626 C   0  0  0  0  0  0
  -19.1539  -28.8855   23.2879 C   0  0  0  0  0  0
  -18.9463  -30.1458   23.8894 C   0  0  0  0  0  0
  -17.6462  -30.6588   24.0563 C   0  0  0  0  0  0
  -25.9054  -34.9450   23.5104 C   0  0  0  0  0  0
  -16.5353  -29.9085   23.6332 C   0  0  0  0  0  0
  -16.7274  -28.6505   23.0351 C   0  0  0  0  0  0
  -26.4500  -31.6588   25.0731 C   0  0  0  0  0  0
  -25.3731  -31.3728   26.1456 C   0  0  0  0  0  0
  -27.0348  -30.3009   24.6199 C   0  0  0  0  0  0
  -27.6059  -32.4325   25.7499 C   0  0  0  0  0  0
  -27.5580  -37.1803   24.8466 C   0  0  0  0  0  0
  -21.4193  -29.3043   22.3673 N   0  0  0  0  0  0
  -26.4294  -37.3776   23.9406 N   0  0  0  0  0  0
  -24.6904  -31.0591   22.0991 N   0  0  0  0  0  0
  -23.4200  -28.8155   23.3016 O   0  0  0  0  0  0
  -28.3470  -26.4492   20.1762 O   0  0  0  0  0  0
  -26.5619  -34.8917   22.4669 O   0  0  0  0  0  0
  -23.5437  -32.1398   23.7348 O   0  0  0  0  0  0
  -31.6957  -19.1818   21.9954 C   0  0  0  0  0  0
  -32.3028  -18.0312   22.5454 C   0  0  0  0  0  0
  -30.6687  -18.7298   21.2074 C   0  0  0  0  0  0
  -33.4483  -17.9525   23.5105 C   0  0  0  0  0  0
  -28.5036  -25.0008   18.2435 C   0  0  0  0  0  0
  -29.3665  -16.5908   19.3306 C   0  0  0  0  0  0
  -28.7251  -16.0937   21.7287 C   0  0  0  0  0  0
  -29.6785  -19.6994   20.4999 C   0  0  0  0  0  0
  -29.8534  -21.2694   20.8177 C   0  0  0  0  0  0
  -28.9268  -22.3720   20.1279 C   0  0  0  0  0  0
  -29.1566  -23.9238   20.4844 C   0  0  0  0  0  0
  -28.2432  -25.0216   19.7604 C   0  0  1  0  0  0
  -29.8895  -16.1510   20.7177 C   0  0  0  0  0  0
  -31.7200  -16.9297   22.1278 N   0  0  0  0  0  0
  -30.7537  -17.2871   21.2385 N   0  0  0  0  0  0
  -31.4803  -12.5536   19.1601 H   0  0  0  0  0  0
  -30.3913  -11.4428   19.9214 H   0  0  0  0  0  0
  -29.7911  -11.7603   17.5027 H   0  0  0  0  0  0
  -29.6473  -13.4825   17.7422 H   0  0  0  0  0  0
  -27.8742  -11.2902   18.8668 H   0  0  0  0  0  0
  -27.3811  -12.5735   17.7938 H   0  0  0  0  0  0
  -27.6494  -14.2386   19.5230 H   0  0  0  0  0  0
  -28.7465  -12.0206   21.3084 H   0  0  0  0  0  0
  -28.4365  -13.5923   21.8959 H   0  0  0  0  0  0
  -25.2755   -9.5652   22.4774 H   0  0  0  0  0  0
  -23.9988   -7.4606   22.7479 H   0  0  0  0  0  0
  -21.0836   -8.8768   19.8955 H   0  0  0  0  0  0
  -22.3704  -10.9660   19.6176 H   0  0  0  0  0  0
  -21.2000   -7.6143   23.9719 H   0  0  0  0  0  0
  -21.1480   -6.0520   25.9082 H   0  0  0  0  0  0
  -22.0600   -2.7606   23.2855 H   0  0  0  0  0  0
  -22.4074  -11.9874   22.4817 H   0  0  0  0  0  0
  -21.1089  -13.1249   22.2631 H   0  0  0  0  0  0
  -24.6322  -15.8283   20.4867 H   0  0  0  0  0  0
  -26.2501  -15.6264   20.0449 H   0  0  0  0  0  0
  -26.7186  -32.5438   23.1102 H   0  0  0  0  0  0
  -25.0088  -33.9723   25.0431 H   0  0  0  0  0  0
  -22.7165  -31.3055   21.4046 H   0  0  0  0  0  0
  -23.3754  -35.9625   23.3305 H   0  0  0  0  0  0
  -24.3581  -36.8907   22.2052 H   0  0  0  0  0  0
  -23.7245  -37.6496   23.6657 H   0  0  0  0  0  0
  -26.1015  -31.5477   20.6119 H   0  0  0  0  0  0
  -26.8442  -30.8294   22.0103 H   0  0  0  0  0  0
  -28.1111  -28.9588   21.2034 H   0  0  0  0  0  0
  -25.9446  -25.9547   18.9585 H   0  0  0  0  0  0
  -23.9704  -27.3272   18.9923 H   0  0  0  0  0  0
  -23.7579  -30.6012   19.4063 H   0  0  0  0  0  0
  -22.7564  -29.2545   19.8561 H   0  0  0  0  0  0
  -25.1297  -36.1935   25.0822 H   0  0  0  0  0  0
  -20.9980  -28.3266   24.1401 H   0  0  0  0  0  0
  -20.5687  -26.2300   23.3607 H   0  0  0  0  0  0
  -21.6646  -26.7448   22.1196 H   0  0  0  0  0  0
  -19.6914  -25.6296   21.1243 H   0  0  0  0  0  0
  -19.6688  -27.3197   20.6744 H   0  0  0  0  0  0
  -17.4201  -26.6674   21.4030 H   0  0  0  0  0  0
  -18.0334  -26.0071   22.9024 H   0  0  0  0  0  0
  -19.7938  -30.7277   24.2261 H   0  0  0  0  0  0
  -17.5015  -31.6267   24.5167 H   0  0  0  0  0  0
  -15.5353  -30.2987   23.7658 H   0  0  0  0  0  0
  -15.8674  -28.0825   22.7065 H   0  0  0  0  0  0
  -24.5905  -30.7079   25.7783 H   0  0  0  0  0  0
  -24.8926  -32.2895   26.4883 H   0  0  0  0  0  0
  -25.8053  -30.8902   27.0231 H   0  0  0  0  0  0
  -26.2929  -29.6755   24.1221 H   0  0  0  0  0  0
  -27.4036  -29.7271   25.4710 H   0  0  0  0  0  0
  -27.8803  -30.4291   23.9437 H   0  0  0  0  0  0
  -27.2668  -33.3622   26.2082 H   0  0  0  0  0  0
  -28.3864  -32.6893   25.0324 H   0  0  0  0  0  0
  -28.0736  -31.8450   26.5410 H   0  0  0  0  0  0
  -28.2602  -38.0096   24.7509 H   0  0  0  0  0  0
  -28.1072  -36.2627   24.6299 H   0  0  0  0  0  0
  -27.2296  -37.1461   25.8868 H   0  0  0  0  0  0
  -20.9372  -29.8771   21.6887 H   0  0  0  0  0  0
  -26.0176  -38.2853   24.1404 H   0  0  0  0  0  0
  -31.9623  -20.2102   22.1936 H   0  0  0  0  0  0
  -34.3984  -17.8566   22.9854 H   0  0  0  0  0  0
  -33.3508  -17.0989   24.1818 H   0  0  0  0  0  0
  -33.5024  -18.8488   24.1283 H   0  0  0  0  0  0
  -28.3022  -24.0206   17.8133 H   0  0  0  0  0  0
  -29.5414  -25.2532   18.0243 H   0  0  0  0  0  0
  -27.8790  -25.7154   17.7091 H   0  0  0  0  0  0
  -28.9592  -15.7662   18.7499 H   0  0  0  0  0  0
  -30.1711  -17.0159   18.7295 H   0  0  0  0  0  0
  -28.5818  -17.3417   19.4110 H   0  0  0  0  0  0
  -28.3860  -17.0937   22.0004 H   0  0  0  0  0  0
  -29.0295  -15.6089   22.6565 H   0  0  0  0  0  0
  -27.8480  -15.5947   21.3348 H   0  0  0  0  0  0
  -28.6605  -19.4054   20.7562 H   0  0  0  0  0  0
  -29.7643  -19.5563   19.4226 H   0  0  0  0  0  0
  -30.8830  -21.5373   20.5790 H   0  0  0  0  0  0
  -29.7630  -21.3988   21.8968 H   0  0  0  0  0  0
  -27.8876  -22.1262   20.3490 H   0  0  0  0  0  0
  -29.0284  -22.2463   19.0503 H   0  0  0  0  0  0
  -30.2026  -24.1701   20.2996 H   0  0  0  0  0  0
  -29.0205  -24.0386   21.5602 H   0  0  0  0  0  0
  -27.2325  -24.6697   19.9599 H   0  0  0  0  0  0
  1 25  1  0  0  0
  1 30  2  0  0  0
  1 83  1  0  0  0
  2  3  1  0  0  0
  2 25  1  0  0  0
  2 86  1  0  0  0
  2 87  1  0  0  0
  3  4  1  0  0  0
  3 88  1  0  0  0
  3 89  1  0  0  0
  4  5  1  0  0  0
  4 90  1  0  0  0
  4 91  1  0  0  0
  5  6  1  0  0  0
  5 26  1  0  0  0
  5 92  1  0  0  0
  6 25  1  0  0  0
  6 93  1  0  0  0
  6 94  1  0  0  0
  7  8  2  0  0  0
  7 26  1  0  0  0
  7 29  1  0  0  0
  8  9  1  0  0  0
  8 22  1  0  0  0
  9 10  1  0  0  0
  9 27  2  0  0  0
 10 11  2  0  0  0
 10 15  1  0  0  0
 11 12  1  0  0  0
 11 95  1  0  0  0
 12 13  2  0  0  0
 12 96  1  0  0  0
 13 14  1  0  0  0
 13 31  1  0  0  0
 14 15  2  0  0  0
 14 97  1  0  0  0
 15 98  1  0  0  0
 16 17  2  0  0  0
 16 21  1  0  0  0
 16 31  1  0  0  0
 17 18  1  0  0  0
 17 99  1  0  0  0
 18 19  2  0  0  0
 18100  1  0  0  0
 19 20  1  0  0  0
 19 24  1  0  0  0
 20 21  2  0  0  0
 20101  1  0  0  0
 21 23  1  0  0  0
 22 28  1  0  0  0
 22 32  2  0  0  0
 26 27  1  0  0  0
 28102  1  0  0  0
 28103  1  0  0  0
 29104  1  0  0  0
 29105  1  0  0  0
 33 34  1  0  0  0
 33 66  1  0  0  0
 33 70  2  0  0  0
 34 36  1  0  0  0
 34 59  1  0  0  0
 34106  1  0  0  0
 35 44  2  0  0  0
 35 45  1  0  0  0
 35 68  1  0  0  0
 36 56  1  0  0  0
 36107  1  0  0  0
 37 39  1  0  0  0
 37 47  1  0  0  0
 37 66  1  0  0  0
 37108  1  0  0  0
 38 43  2  0  0  0
 38 46  1  0  0  0
 38 47  1  0  0  0
 39 64  1  0  0  0
 39 67  2  0  0  0
 40 52  1  0  0  0
 40 53  2  0  0  0
 40 58  1  0  0  0
 41109  1  0  0  0
 41110  1  0  0  0
 41111  1  0  0  0
 41 48  1  0  0  0
 42 43  1  0  0  0
 42 66  1  0  0  0
 42112  1  0  0  0
 42113  1  0  0  0
 43 44  1  0  0  0
 44114  1  0  0  0
 45 46  2  0  0  0
 45115  1  0  0  0
 46116  1  0  0  0
 47117  1  0  0  0
 47118  1  0  0  0
 48 56  1  0  0  0
 48 65  1  0  0  0
 48119  1  0  0  0
 49 50  1  0  0  0
 49 53  1  0  0  0
 49 64  1  0  0  0
 49120  1  0  0  0
 50 51  1  0  0  0
 50121  1  0  0  0
 50122  1  0  0  0
 51 52  1  0  0  0
 51123  1  0  0  0
 51124  1  0  0  0
 52125  1  0  0  0
 52126  1  0  0  0
 53 54  1  0  0  0
 54 55  2  0  0  0
 54127  1  0  0  0
 55 57  1  0  0  0
 55128  1  0  0  0
 56 69  2  0  0  0
 57 58  2  0  0  0
 57129  1  0  0  0
 58130  1  0  0  0
 59 60  1  0  0  0
 59 61  1  0  0  0
 59 62  1  0  0  0
 60131  1  0  0  0
 60132  1  0  0  0
 60133  1  0  0  0
 61134  1  0  0  0
 61135  1  0  0  0
 61136  1  0  0  0
 62137  1  0  0  0
 62138  1  0  0  0
 62139  1  0  0  0
 63 65  1  0  0  0
 63140  1  0  0  0
 63141  1  0  0  0
 63142  1  0  0  0
 64143  1  0  0  0
 65144  1  0  0  0
 68 82  1  0  0  0
 71 72  1  0  0  0
 71 73  2  0  0  0
 71145  1  0  0  0
 72 74  1  0  0  0
 72 84  2  0  0  0
 73 78  1  0  0  0
 73 85  1  0  0  0
 74146  1  0  0  0
 74147  1  0  0  0
 74148  1  0  0  0
 75149  1  0  0  0
 75150  1  0  0  0
 75151  1  0  0  0
 75 82  1  0  0  0
 76152  1  0  0  0
 76153  1  0  0  0
 76154  1  0  0  0
 76 83  1  0  0  0
 77 83  1  0  0  0
 77155  1  0  0  0
 77156  1  0  0  0
 77157  1  0  0  0
 78 79  1  0  0  0
 78158  1  0  0  0
 78159  1  0  0  0
 79 80  1  0  0  0
 79160  1  0  0  0
 79161  1  0  0  0
 80 81  1  0  0  0
 80162  1  0  0  0
 80163  1  0  0  0
 81 82  1  0  0  0
 81164  1  0  0  0
 81165  1  0  0  0
 82166  1  0  0  0
 83 85  1  0  0  0
 84 85  1  0  0  0
M  ISO  4   1 100  68 101  82 101  83 100
M  END
> <chiral flag>
0

> <version>
0

> <s_m_source_file>
/data/baiqing/PycharmProjects/Reinvent-master-3.2/result/LINK_invent/BTK/process_docking_weight1_custom_sum_contain_oxygen_bond_distance_aromatic_linkinvent_7_9_3/rearranged_h_0076.sdf

> <i_m_source_file_index>
96

> <r_mmod_Potential_Energy-OPLS-2005>
223.226013183594

> <r_mmod_Stretch_Energy-OPLS-2005>
116.727752685547

> <r_mmod_Bend_Energy-OPLS-2005>
177.517669677734

> <r_mmod_Torsional_Energy-OPLS-2005>
223.382705688477

> <r_mmod_Improper_Torsional_Energy-OPLS-2005>
7.19086265563965

> <r_mmod_Van_der_Waal_Energy-OPLS-2005>
132.543838500977

> <r_mmod_Electrostatic_Energy-OPLS-2005>
-290.392791748047

> <r_mmod_Solvation_Energy-OPLS-2005>
-203.870971679688

> <b_mmod_Minimization_Converged-OPLS-2005>
0

> <r_mmod_RMS_Derivative-OPLS-2005>
0.454393565654755

$$$$
96
                    3D
 Structure written by MMmdl.
159167  0  0  1  0            999 V2000
  -30.6832  -14.4893   20.6147 C   0  0  0  0  0  0
  -30.4254  -12.3295   19.4316 C   0  0  0  0  0  0
  -29.4977  -12.5204   18.2135 C   0  0  0  0  0  0
  -28.0158  -12.3669   18.6169 C   0  0  0  0  0  0
  -27.6548  -13.2044   19.8744 C   0  0  2  0  0  0
  -28.6918  -12.9776   20.9957 C   0  0  0  0  0  0
  -25.2512  -13.8110   20.5669 C   0  0  0  0  0  0
  -24.1760  -13.0420   20.9180 C   0  0  0  0  0  0
  -24.6313  -11.6879   20.8706 C   0  0  0  0  0  0
  -23.8965  -10.4295   21.0376 C   0  0  0  0  0  0
  -24.3554   -9.4220   21.9135 C   0  0  0  0  0  0
  -23.6270   -8.2227   22.0686 C   0  0  0  0  0  0
  -22.4251   -8.0229   21.3482 C   0  0  0  0  0  0
  -21.9875   -9.0174   20.4566 C   0  0  0  0  0  0
  -22.7141  -10.2100   20.3007 C   0  0  0  0  0  0
  -21.6832   -6.0714   22.5282 C   0  0  0  0  0  0
  -21.4003   -6.5624   23.8217 C   0  0  0  0  0  0
  -21.3691   -5.6785   24.9193 C   0  0  0  0  0  0
  -21.6063   -4.3038   24.7266 C   0  0  0  0  0  0
  -21.8815   -3.8119   23.4383 C   0  0  0  0  0  0
  -21.9194   -4.6939   22.3436 C   0  0  0  0  0  0
  -22.7792  -13.5205   21.1937 C   0  0  0  0  0  0
  -22.1655   -4.2127   21.1012 F   0  0  0  0  0  0
  -21.5672   -3.4539   25.7790 F   0  0  0  0  0  0
  -30.0201  -13.3085   20.4524 N   0  0  0  0  0  0
  -26.2948  -12.9291   20.3334 N   0  0  0  0  0  0
  -25.9238  -11.6456   20.5700 N   0  0  0  0  0  0
  -22.0469  -12.8132   22.0477 N   0  0  0  0  0  0
  -25.4291  -15.1822   20.4125 N   0  0  0  0  0  0
  -31.8118  -14.6844   20.1513 O   0  0  0  0  0  0
  -21.6618   -6.8824   21.4206 O   0  0  0  0  0  0
  -22.3503  -14.5582   20.6875 O   0  0  0  0  0  0
  -24.6181  -31.8665   23.2029 C   0  0  0  0  0  0
  -25.9039  -32.4821   23.8361 C   0  0  1  0  0  0
  -27.2452  -27.3893   20.1021 C   0  0  0  0  0  0
  -25.5885  -33.8612   24.2305 N   0  0  0  0  0  0
  -23.4107  -30.4864   21.5449 C   0  0  2  0  0  0
  -24.8597  -28.9419   20.1151 C   0  0  0  0  0  0
  -22.7430  -29.4663   22.4969 C   0  0  0  0  0  0
  -18.0284  -28.1375   22.8477 C   0  0  0  0  0  0
  -24.1494  -36.7292   23.2637 C   0  0  0  0  0  0
  -25.9439  -30.8143   21.3678 C   0  0  0  0  0  0
  -26.0220  -29.4465   20.7094 C   0  0  0  0  0  0
  -27.2143  -28.6808   20.6947 C   0  0  0  0  0  0
  -26.0622  -26.9151   19.4890 C   0  0  0  0  0  0
  -24.8779  -27.6786   19.4985 C   0  0  0  0  0  0
  -23.6224  -29.8121   20.1622 C   0  0  0  0  0  0
  -25.4121  -36.3109   24.0345 C   0  0  1  0  0  0
  -20.5879  -28.3685   23.1283 C   0  0  2  0  0  0
  -20.6787  -26.9423   22.5400 C   0  0  0  0  0  0
  -19.5770  -26.6383   21.5189 C   0  0  0  0  0  0
  -18.1934  -26.7925   22.1596 C   0  0  0  0  0  0
  -19.1535  -28.8849   23.2875 C   0  0  0  0  0  0
  -18.9458  -30.1447   23.8898 C   0  0  0  0  0  0
  -17.6472  -30.6582   24.0554 C   0  0  0  0  0  0
  -25.9053  -34.9483   23.5146 C   0  0  0  0  0  0
  -16.5357  -29.9091   23.6311 C   0  0  0  0  0  0
  -16.7276  -28.6497   23.0336 C   0  0  0  0  0  0
  -26.4451  -31.6597   25.0698 C   0  0  0  0  0  0
  -25.3672  -31.3717   26.1404 C   0  0  0  0  0  0
  -27.0315  -30.3040   24.6126 C   0  0  0  0  0  0
  -27.6046  -32.4308   25.7432 C   0  0  0  0  0  0
  -27.5605  -37.1792   24.8455 C   0  0  0  0  0  0
  -21.4166  -29.3044   22.3687 N   0  0  0  0  0  0
  -26.4300  -37.3803   23.9435 N   0  0  0  0  0  0
  -24.6750  -31.0723   22.0954 N   0  0  0  0  0  0
  -23.4178  -28.8213   23.3022 O   0  0  0  0  0  0
  -28.4119  -26.6337   20.1382 O   0  0  0  0  0  0
  -26.5624  -34.8950   22.4710 O   0  0  0  0  0  0
  -23.5368  -32.1437   23.7397 O   0  0  0  0  0  0
  -28.9105  -22.0129   19.6640 C   0  0  0  0  0  0
  -30.0280  -21.9550   21.5275 C   0  0  0  0  0  0
  -29.4650  -22.8736   20.6633 C   0  0  0  0  0  0
  -30.8473  -24.8783   20.1495 C   0  0  0  0  0  0
  -29.4309  -24.8565   22.2274 C   0  0  0  0  0  0
  -29.8560  -18.0405   21.0123 C   0  0  0  0  0  0
  -30.3341  -19.3965   21.6363 C   0  0  0  0  0  0
  -30.5025  -16.7869   21.6928 C   0  0  0  0  0  0
  -28.3406  -25.1808   19.9952 C   0  0  0  0  0  0
  -29.5019  -24.4264   20.7464 C   0  0  0  0  0  0
  -29.1324  -20.7133   19.8917 N   0  0  0  0  0  0
  -29.8276  -20.6639   21.0520 N   0  0  0  0  0  0
  -29.9943  -15.4751   21.2324 N   0  0  0  0  0  0
  -31.4697  -12.4516   19.1391 H   0  0  0  0  0  0
  -30.3453  -11.3120   19.8202 H   0  0  0  0  0  0
  -29.7467  -11.8112   17.4262 H   0  0  0  0  0  0
  -29.6527  -13.5181   17.7962 H   0  0  0  0  0  0
  -27.8237  -11.3100   18.8034 H   0  0  0  0  0  0
  -27.3677  -12.6383   17.7841 H   0  0  0  0  0  0
  -27.6977  -14.2533   19.5755 H   0  0  0  0  0  0
  -28.6785  -11.9315   21.3092 H   0  0  0  0  0  0
  -28.4437  -13.5429   21.8932 H   0  0  0  0  0  0
  -25.2703   -9.5771   22.4694 H   0  0  0  0  0  0
  -24.0029   -7.4635   22.7400 H   0  0  0  0  0  0
  -21.0796   -8.8620   19.8897 H   0  0  0  0  0  0
  -22.3500  -10.9600   19.6113 H   0  0  0  0  0  0
  -21.1947   -7.6117   23.9726 H   0  0  0  0  0  0
  -21.1525   -6.0514   25.9104 H   0  0  0  0  0  0
  -22.0568   -2.7574   23.2900 H   0  0  0  0  0  0
  -22.4142  -11.9775   22.4793 H   0  0  0  0  0  0
  -21.1071  -13.1064   22.2744 H   0  0  0  0  0  0
  -24.6724  -15.8473   20.5268 H   0  0  0  0  0  0
  -26.2962  -15.6095   20.1155 H   0  0  0  0  0  0
  -26.7115  -32.5536   23.1125 H   0  0  0  0  0  0
  -24.9999  -33.9761   25.0418 H   0  0  0  0  0  0
  -22.6999  -31.3028   21.3992 H   0  0  0  0  0  0
  -23.3783  -35.9588   23.3298 H   0  0  0  0  0  0
  -24.3573  -36.8911   22.2047 H   0  0  0  0  0  0
  -23.7219  -37.6493   23.6643 H   0  0  0  0  0  0
  -26.0737  -31.5834   20.6074 H   0  0  0  0  0  0
  -26.8231  -30.8605   21.9977 H   0  0  0  0  0  0
  -28.1137  -29.0650   21.1564 H   0  0  0  0  0  0
  -26.0426  -25.9543   18.9953 H   0  0  0  0  0  0
  -23.9812  -27.2903   19.0339 H   0  0  0  0  0  0
  -23.7367  -30.5841   19.4005 H   0  0  0  0  0  0
  -22.7476  -29.2319   19.8663 H   0  0  0  0  0  0
  -25.1303  -36.1976   25.0842 H   0  0  0  0  0  0
  -20.9949  -28.3267   24.1416 H   0  0  0  0  0  0
  -20.5665  -26.2304   23.3598 H   0  0  0  0  0  0
  -21.6670  -26.7455   22.1224 H   0  0  0  0  0  0
  -19.6944  -25.6285   21.1246 H   0  0  0  0  0  0
  -19.6718  -27.3167   20.6704 H   0  0  0  0  0  0
  -17.4216  -26.6645   21.4001 H   0  0  0  0  0  0
  -18.0356  -26.0050   22.8990 H   0  0  0  0  0  0
  -19.7945  -30.7234   24.2290 H   0  0  0  0  0  0
  -17.5039  -31.6266   24.5155 H   0  0  0  0  0  0
  -15.5369  -30.2998   23.7648 H   0  0  0  0  0  0
  -15.8668  -28.0827   22.7066 H   0  0  0  0  0  0
  -24.5834  -30.7102   25.7694 H   0  0  0  0  0  0
  -24.8824  -32.2869   26.4835 H   0  0  0  0  0  0
  -25.7932  -30.8858   27.0186 H   0  0  0  0  0  0
  -26.2906  -29.6761   24.1165 H   0  0  0  0  0  0
  -27.4083  -29.7331   25.4622 H   0  0  0  0  0  0
  -27.8731  -30.4380   23.9318 H   0  0  0  0  0  0
  -27.2727  -33.3637   26.2013 H   0  0  0  0  0  0
  -28.3822  -32.6833   25.0203 H   0  0  0  0  0  0
  -28.0743  -31.8405   26.5317 H   0  0  0  0  0  0
  -28.2608  -38.0113   24.7605 H   0  0  0  0  0  0
  -28.1145  -36.2670   24.6180 H   0  0  0  0  0  0
  -27.2333  -37.1315   25.8854 H   0  0  0  0  0  0
  -20.9334  -29.8751   21.6894 H   0  0  0  0  0  0
  -26.0211  -38.2895   24.1419 H   0  0  0  0  0  0
  -28.3785  -22.2909   18.7664 H   0  0  0  0  0  0
  -30.5845  -22.1134   22.4405 H   0  0  0  0  0  0
  -31.6910  -24.4264   20.6711 H   0  0  0  0  0  0
  -30.9666  -25.9599   20.2081 H   0  0  0  0  0  0
  -30.9266  -24.5934   19.0996 H   0  0  0  0  0  0
  -30.2441  -24.4401   22.8176 H   0  0  0  0  0  0
  -28.4921  -24.5455   22.6900 H   0  0  0  0  0  0
  -29.4958  -25.9405   22.3284 H   0  0  0  0  0  0
  -30.0951  -18.0283   19.9487 H   0  0  0  0  0  0
  -28.7695  -17.9777   21.0855 H   0  0  0  0  0  0
  -31.4245  -19.4304   21.5897 H   0  0  0  0  0  0
  -30.0856  -19.4106   22.6992 H   0  0  0  0  0  0
  -30.3131  -16.8260   22.7666 H   0  0  0  0  0  0
  -31.5895  -16.8292   21.5914 H   0  0  0  0  0  0
  -27.3965  -24.8072   20.3896 H   0  0  0  0  0  0
  -28.3558  -24.9398   18.9314 H   0  0  0  0  0  0
  -29.0481  -15.2512   21.5019 H   0  0  0  0  0  0
  1 25  1  0  0  0
  1 30  2  0  0  0
  1 83  1  0  0  0
  2  3  1  0  0  0
  2 25  1  0  0  0
  2 84  1  0  0  0
  2 85  1  0  0  0
  3  4  1  0  0  0
  3 86  1  0  0  0
  3 87  1  0  0  0
  4  5  1  0  0  0
  4 88  1  0  0  0
  4 89  1  0  0  0
  5  6  1  0  0  0
  5 26  1  0  0  0
  5 90  1  0  0  0
  6 25  1  0  0  0
  6 91  1  0  0  0
  6 92  1  0  0  0
  7  8  2  0  0  0
  7 26  1  0  0  0
  7 29  1  0  0  0
  8  9  1  0  0  0
  8 22  1  0  0  0
  9 10  1  0  0  0
  9 27  2  0  0  0
 10 11  2  0  0  0
 10 15  1  0  0  0
 11 12  1  0  0  0
 11 93  1  0  0  0
 12 13  2  0  0  0
 12 94  1  0  0  0
 13 14  1  0  0  0
 13 31  1  0  0  0
 14 15  2  0  0  0
 14 95  1  0  0  0
 15 96  1  0  0  0
 16 17  2  0  0  0
 16 21  1  0  0  0
 16 31  1  0  0  0
 17 18  1  0  0  0
 17 97  1  0  0  0
 18 19  2  0  0  0
 18 98  1  0  0  0
 19 20  1  0  0  0
 19 24  1  0  0  0
 20 21  2  0  0  0
 20 99  1  0  0  0
 21 23  1  0  0  0
 22 28  1  0  0  0
 22 32  2  0  0  0
 26 27  1  0  0  0
 28100  1  0  0  0
 28101  1  0  0  0
 29102  1  0  0  0
 29103  1  0  0  0
 33 34  1  0  0  0
 33 66  1  0  0  0
 33 70  2  0  0  0
 34 36  1  0  0  0
 34 59  1  0  0  0
 34104  1  0  0  0
 35 44  2  0  0  0
 35 45  1  0  0  0
 35 68  1  0  0  0
 36 56  1  0  0  0
 36105  1  0  0  0
 37 39  1  0  0  0
 37 47  1  0  0  0
 37 66  1  0  0  0
 37106  1  0  0  0
 38 43  2  0  0  0
 38 46  1  0  0  0
 38 47  1  0  0  0
 39 64  1  0  0  0
 39 67  2  0  0  0
 40 52  1  0  0  0
 40 53  2  0  0  0
 40 58  1  0  0  0
 41107  1  0  0  0
 41108  1  0  0  0
 41109  1  0  0  0
 41 48  1  0  0  0
 42 43  1  0  0  0
 42 66  1  0  0  0
 42110  1  0  0  0
 42111  1  0  0  0
 43 44  1  0  0  0
 44112  1  0  0  0
 45 46  2  0  0  0
 45113  1  0  0  0
 46114  1  0  0  0
 47115  1  0  0  0
 47116  1  0  0  0
 48 56  1  0  0  0
 48 65  1  0  0  0
 48117  1  0  0  0
 49 50  1  0  0  0
 49 53  1  0  0  0
 49 64  1  0  0  0
 49118  1  0  0  0
 50 51  1  0  0  0
 50119  1  0  0  0
 50120  1  0  0  0
 51 52  1  0  0  0
 51121  1  0  0  0
 51122  1  0  0  0
 52123  1  0  0  0
 52124  1  0  0  0
 53 54  1  0  0  0
 54 55  2  0  0  0
 54125  1  0  0  0
 55 57  1  0  0  0
 55126  1  0  0  0
 56 69  2  0  0  0
 57 58  2  0  0  0
 57127  1  0  0  0
 58128  1  0  0  0
 59 60  1  0  0  0
 59 61  1  0  0  0
 59 62  1  0  0  0
 60129  1  0  0  0
 60130  1  0  0  0
 60131  1  0  0  0
 61132  1  0  0  0
 61133  1  0  0  0
 61134  1  0  0  0
 62135  1  0  0  0
 62136  1  0  0  0
 62137  1  0  0  0
 63 65  1  0  0  0
 63138  1  0  0  0
 63139  1  0  0  0
 63140  1  0  0  0
 64141  1  0  0  0
 65142  1  0  0  0
 68 79  1  0  0  0
 71 73  1  0  0  0
 71 81  2  0  0  0
 71143  1  0  0  0
 72 73  2  0  0  0
 72 82  1  0  0  0
 72144  1  0  0  0
 73 80  1  0  0  0
 74145  1  0  0  0
 74146  1  0  0  0
 74147  1  0  0  0
 74 80  1  0  0  0
 75 80  1  0  0  0
 75148  1  0  0  0
 75149  1  0  0  0
 75150  1  0  0  0
 76 77  1  0  0  0
 76 78  1  0  0  0
 76151  1  0  0  0
 76152  1  0  0  0
 77 82  1  0  0  0
 77153  1  0  0  0
 77154  1  0  0  0
 78 83  1  0  0  0
 78155  1  0  0  0
 78156  1  0  0  0
 79 80  1  0  0  0
 79157  1  0  0  0
 79158  1  0  0  0
 81 82  1  0  0  0
 83159  1  0  0  0
M  ISO  4   1 100  68 101  79 101  83 100
M  END
> <chiral flag>
0

> <version>
0

> <s_m_source_file>
/data/baiqing/PycharmProjects/Reinvent-master-3.2/result/LINK_invent/BTK/process_docking_weight1_custom_sum_contain_oxygen_bond_distance_aromatic_linkinvent_7_9_3/rearranged_h_0076.sdf

> <i_m_source_file_index>
97

> <r_mmod_Potential_Energy-OPLS-2005>
-86.869987487793

> <r_mmod_Stretch_Energy-OPLS-2005>
51.071361541748

> <r_mmod_Bend_Energy-OPLS-2005>
113.649230957031

> <r_mmod_Torsional_Energy-OPLS-2005>
204.125030517578

> <r_mmod_Improper_Torsional_Energy-OPLS-2005>
2.61712908744812

> <r_mmod_Van_der_Waal_Energy-OPLS-2005>
126.606704711914

> <r_mmod_Electrostatic_Energy-OPLS-2005>
-384.304321289062

> <r_mmod_Solvation_Energy-OPLS-2005>
-218.915802001953

> <b_mmod_Minimization_Converged-OPLS-2005>
0

> <r_mmod_RMS_Derivative-OPLS-2005>
4.66823148727417

$$$$
97
                    3D
 Structure written by MMmdl.
162170  0  0  1  0            999 V2000
  -30.7335  -14.4082   20.6211 C   0  0  0  0  0  0
  -30.4178  -12.2818   19.4063 C   0  0  0  0  0  0
  -29.4872  -12.5021   18.1976 C   0  0  0  0  0  0
  -28.0095  -12.3672   18.6143 C   0  0  0  0  0  0
  -27.6665  -13.1980   19.8791 C   0  0  2  0  0  0
  -28.7085  -12.9490   20.9920 C   0  0  0  0  0  0
  -25.2660  -13.8141   20.5713 C   0  0  0  0  0  0
  -24.1879  -13.0439   20.9189 C   0  0  0  0  0  0
  -24.6401  -11.6911   20.8737 C   0  0  0  0  0  0
  -23.9047  -10.4297   21.0390 C   0  0  0  0  0  0
  -24.3599   -9.4220   21.9179 C   0  0  0  0  0  0
  -23.6279   -8.2250   22.0736 C   0  0  0  0  0  0
  -22.4262   -8.0285   21.3528 C   0  0  0  0  0  0
  -21.9890   -9.0254   20.4632 C   0  0  0  0  0  0
  -22.7207  -10.2146   20.3045 C   0  0  0  0  0  0
  -21.6851   -6.0757   22.5278 C   0  0  0  0  0  0
  -21.4031   -6.5654   23.8218 C   0  0  0  0  0  0
  -21.3645   -5.6789   24.9166 C   0  0  0  0  0  0
  -21.6034   -4.3051   24.7206 C   0  0  0  0  0  0
  -21.8821   -3.8158   23.4322 C   0  0  0  0  0  0
  -21.9197   -4.6988   22.3390 C   0  0  0  0  0  0
  -22.7919  -13.5270   21.1839 C   0  0  0  0  0  0
  -22.1668   -4.2188   21.0960 F   0  0  0  0  0  0
  -21.5598   -3.4519   25.7710 F   0  0  0  0  0  0
  -30.0416  -13.2527   20.4427 N   0  0  0  0  0  0
  -26.3065  -12.9284   20.3397 N   0  0  0  0  0  0
  -25.9317  -11.6459   20.5761 N   0  0  0  0  0  0
  -22.0525  -12.8271   22.0388 N   0  0  0  0  0  0
  -25.4433  -15.1841   20.4140 N   0  0  0  0  0  0
  -31.8435  -14.6154   20.1263 O   0  0  0  0  0  0
  -21.6622   -6.8894   21.4235 O   0  0  0  0  0  0
  -22.3634  -14.5584   20.6691 O   0  0  0  0  0  0
  -24.6093  -31.8733   23.2124 C   0  0  0  0  0  0
  -25.9003  -32.4850   23.8409 C   0  0  1  0  0  0
  -27.2455  -27.4649   20.0831 C   0  0  0  0  0  0
  -25.5893  -33.8648   24.2365 N   0  0  0  0  0  0
  -23.3941  -30.4958   21.5531 C   0  0  2  0  0  0
  -24.8412  -28.9626   20.1168 C   0  0  0  0  0  0
  -22.7375  -29.4701   22.5033 C   0  0  0  0  0  0
  -18.0264  -28.1362   22.8489 C   0  0  0  0  0  0
  -24.1502  -36.7321   23.2642 C   0  0  0  0  0  0
  -25.9198  -30.8403   21.3642 C   0  0  0  0  0  0
  -25.9958  -29.4744   20.7194 C   0  0  0  0  0  0
  -27.1922  -28.7271   20.7119 C   0  0  0  0  0  0
  -26.0657  -26.9581   19.4854 C   0  0  0  0  0  0
  -24.8688  -27.6994   19.5012 C   0  0  0  0  0  0
  -23.5986  -29.8217   20.1693 C   0  0  0  0  0  0
  -25.4116  -36.3140   24.0362 C   0  0  1  0  0  0
  -20.5853  -28.3665   23.1318 C   0  0  2  0  0  0
  -20.6769  -26.9411   22.5407 C   0  0  0  0  0  0
  -19.5749  -26.6391   21.5203 C   0  0  0  0  0  0
  -18.1924  -26.7913   22.1615 C   0  0  0  0  0  0
  -19.1511  -28.8823   23.2903 C   0  0  0  0  0  0
  -18.9446  -30.1428   23.8915 C   0  0  0  0  0  0
  -17.6453  -30.6580   24.0554 C   0  0  0  0  0  0
  -25.9034  -34.9499   23.5164 C   0  0  0  0  0  0
  -16.5342  -29.9085   23.6312 C   0  0  0  0  0  0
  -16.7252  -28.6492   23.0347 C   0  0  0  0  0  0
  -26.4451  -31.6595   25.0690 C   0  0  0  0  0  0
  -25.3718  -31.3670   26.1434 C   0  0  0  0  0  0
  -27.0286  -30.3063   24.5993 C   0  0  0  0  0  0
  -27.6044  -32.4297   25.7434 C   0  0  0  0  0  0
  -27.5608  -37.1821   24.8473 C   0  0  0  0  0  0
  -21.4113  -29.3059   22.3754 N   0  0  0  0  0  0
  -26.4326  -37.3807   23.9411 N   0  0  0  0  0  0
  -24.6593  -31.0861   22.1009 N   0  0  0  0  0  0
  -23.4160  -28.8240   23.3059 O   0  0  0  0  0  0
  -28.4544  -26.7955   20.0830 O   0  0  0  0  0  0
  -26.5585  -34.8937   22.4720 O   0  0  0  0  0  0
  -23.5300  -32.1484   23.7536 O   0  0  0  0  0  0
  -29.2014  -20.1113   20.8792 C   0  0  0  0  0  0
  -30.8411  -21.0104   21.9843 C   0  0  0  0  0  0
  -30.1944  -19.1739   21.0596 C   0  0  0  0  0  0
  -31.1726  -17.6828   19.3182 C   0  0  0  0  0  0
  -27.5427  -23.4567   18.7748 C   0  0  0  0  0  0
  -29.3687  -23.6018   20.5347 C   0  0  0  0  0  0
  -28.8850  -22.5381   21.5474 C   0  0  0  0  0  0
  -30.5381  -16.7132   21.6348 C   0  0  0  0  0  0
  -28.6436  -25.6922   19.1997 C   0  0  0  0  0  0
  -30.2313  -17.7593   20.5308 C   0  0  1  0  0  0
  -28.2049  -24.3512   19.8381 C   0  0  2  0  0  0
  -31.2521  -19.7622   21.7591 N   0  0  0  0  0  0
  -29.6287  -21.2886   21.4801 N   0  0  0  0  0  0
  -30.0805  -15.3550   21.3089 N   0  0  0  0  0  0
  -31.4623  -12.3708   19.1051 H   0  0  0  0  0  0
  -30.3101  -11.2657   19.7897 H   0  0  0  0  0  0
  -29.7156  -11.7805   17.4118 H   0  0  0  0  0  0
  -29.6630  -13.4904   17.7713 H   0  0  0  0  0  0
  -27.8157  -11.3105   18.8058 H   0  0  0  0  0  0
  -27.3543  -12.6456   17.7875 H   0  0  0  0  0  0
  -27.7201  -14.2489   19.5927 H   0  0  0  0  0  0
  -28.6810  -11.9062   21.3086 H   0  0  0  0  0  0
  -28.4689  -13.5209   21.8886 H   0  0  0  0  0  0
  -25.2733   -9.5703   22.4773 H   0  0  0  0  0  0
  -23.9984   -7.4642   22.7460 H   0  0  0  0  0  0
  -21.0815   -8.8765   19.8947 H   0  0  0  0  0  0
  -22.3639  -10.9689   19.6167 H   0  0  0  0  0  0
  -21.2053   -7.6167   23.9736 H   0  0  0  0  0  0
  -21.1451   -6.0515   25.9073 H   0  0  0  0  0  0
  -22.0617   -2.7627   23.2790 H   0  0  0  0  0  0
  -22.4076  -11.9904   22.4773 H   0  0  0  0  0  0
  -21.1170  -13.1367   22.2601 H   0  0  0  0  0  0
  -24.6844  -15.8464   20.5294 H   0  0  0  0  0  0
  -26.3011  -15.6141   20.0896 H   0  0  0  0  0  0
  -26.7043  -32.5573   23.1150 H   0  0  0  0  0  0
  -25.0047  -33.9830   25.0511 H   0  0  0  0  0  0
  -22.6786  -31.3090   21.4138 H   0  0  0  0  0  0
  -23.3786  -35.9639   23.3308 H   0  0  0  0  0  0
  -24.3597  -36.8924   22.2060 H   0  0  0  0  0  0
  -23.7235  -37.6527   23.6620 H   0  0  0  0  0  0
  -26.0264  -31.6029   20.5907 H   0  0  0  0  0  0
  -26.8115  -30.8988   21.9759 H   0  0  0  0  0  0
  -28.0826  -29.1221   21.1802 H   0  0  0  0  0  0
  -26.0481  -25.9947   19.0020 H   0  0  0  0  0  0
  -23.9804  -27.2966   19.0350 H   0  0  0  0  0  0
  -23.6935  -30.5909   19.4039 H   0  0  0  0  0  0
  -22.7244  -29.2332   19.8817 H   0  0  0  0  0  0
  -25.1291  -36.2049   25.0864 H   0  0  0  0  0  0
  -20.9919  -28.3239   24.1449 H   0  0  0  0  0  0
  -20.5671  -26.2288   23.3602 H   0  0  0  0  0  0
  -21.6643  -26.7470   22.1204 H   0  0  0  0  0  0
  -19.6931  -25.6308   21.1223 H   0  0  0  0  0  0
  -19.6683  -27.3203   20.6734 H   0  0  0  0  0  0
  -17.4201  -26.6648   21.4014 H   0  0  0  0  0  0
  -18.0331  -26.0044   22.8998 H   0  0  0  0  0  0
  -19.7925  -30.7226   24.2307 H   0  0  0  0  0  0
  -17.5013  -31.6255   24.5160 H   0  0  0  0  0  0
  -15.5341  -30.2991   23.7629 H   0  0  0  0  0  0
  -15.8651  -28.0804   22.7071 H   0  0  0  0  0  0
  -24.5878  -30.7030   25.7749 H   0  0  0  0  0  0
  -24.8900  -32.2819   26.4907 H   0  0  0  0  0  0
  -25.8071  -30.8817   27.0180 H   0  0  0  0  0  0
  -26.2815  -29.6824   24.1068 H   0  0  0  0  0  0
  -27.4131  -29.7279   25.4398 H   0  0  0  0  0  0
  -27.8599  -30.4433   23.9075 H   0  0  0  0  0  0
  -27.2681  -33.3588   26.2043 H   0  0  0  0  0  0
  -28.3804  -32.6892   25.0223 H   0  0  0  0  0  0
  -28.0739  -31.8397   26.5317 H   0  0  0  0  0  0
  -28.2641  -38.0104   24.7524 H   0  0  0  0  0  0
  -28.1101  -36.2651   24.6302 H   0  0  0  0  0  0
  -27.2316  -37.1461   25.8870 H   0  0  0  0  0  0
  -20.9295  -29.8788   21.6973 H   0  0  0  0  0  0
  -26.0249  -38.2914   24.1363 H   0  0  0  0  0  0
  -28.2501  -20.0418   20.3699 H   0  0  0  0  0  0
  -31.4325  -21.7397   22.5214 H   0  0  0  0  0  0
  -30.8841  -18.4174   18.5658 H   0  0  0  0  0  0
  -31.1478  -16.7089   18.8341 H   0  0  0  0  0  0
  -32.2032  -17.8943   19.6054 H   0  0  0  0  0  0
  -26.6295  -23.9123   18.3904 H   0  0  0  0  0  0
  -27.2695  -22.4815   19.1733 H   0  0  0  0  0  0
  -28.2094  -23.2878   17.9283 H   0  0  0  0  0  0
  -30.0108  -23.1497   19.7774 H   0  0  0  0  0  0
  -30.0045  -24.3096   21.0680 H   0  0  0  0  0  0
  -27.8330  -22.3063   21.3860 H   0  0  0  0  0  0
  -28.9396  -22.9294   22.5646 H   0  0  0  0  0  0
  -30.0059  -17.0023   22.5422 H   0  0  0  0  0  0
  -31.5982  -16.7192   21.8948 H   0  0  0  0  0  0
  -28.1411  -25.8842   18.2508 H   0  0  0  0  0  0
  -29.7008  -25.6471   18.9351 H   0  0  0  0  0  0
  -29.2314  -17.5266   20.1620 H   0  0  0  0  0  0
  -27.4534  -24.5728   20.5970 H   0  0  0  0  0  0
  -29.1634  -15.1011   21.6461 H   0  0  0  0  0  0
  1 25  1  0  0  0
  1 30  2  0  0  0
  1 84  1  0  0  0
  2  3  1  0  0  0
  2 25  1  0  0  0
  2 85  1  0  0  0
  2 86  1  0  0  0
  3  4  1  0  0  0
  3 87  1  0  0  0
  3 88  1  0  0  0
  4  5  1  0  0  0
  4 89  1  0  0  0
  4 90  1  0  0  0
  5  6  1  0  0  0
  5 26  1  0  0  0
  5 91  1  0  0  0
  6 25  1  0  0  0
  6 92  1  0  0  0
  6 93  1  0  0  0
  7  8  2  0  0  0
  7 26  1  0  0  0
  7 29  1  0  0  0
  8  9  1  0  0  0
  8 22  1  0  0  0
  9 10  1  0  0  0
  9 27  2  0  0  0
 10 11  2  0  0  0
 10 15  1  0  0  0
 11 12  1  0  0  0
 11 94  1  0  0  0
 12 13  2  0  0  0
 12 95  1  0  0  0
 13 14  1  0  0  0
 13 31  1  0  0  0
 14 15  2  0  0  0
 14 96  1  0  0  0
 15 97  1  0  0  0
 16 17  2  0  0  0
 16 21  1  0  0  0
 16 31  1  0  0  0
 17 18  1  0  0  0
 17 98  1  0  0  0
 18 19  2  0  0  0
 18 99  1  0  0  0
 19 20  1  0  0  0
 19 24  1  0  0  0
 20 21  2  0  0  0
 20100  1  0  0  0
 21 23  1  0  0  0
 22 28  1  0  0  0
 22 32  2  0  0  0
 26 27  1  0  0  0
 28101  1  0  0  0
 28102  1  0  0  0
 29103  1  0  0  0
 29104  1  0  0  0
 33 34  1  0  0  0
 33 66  1  0  0  0
 33 70  2  0  0  0
 34 36  1  0  0  0
 34 59  1  0  0  0
 34105  1  0  0  0
 35 44  2  0  0  0
 35 45  1  0  0  0
 35 68  1  0  0  0
 36 56  1  0  0  0
 36106  1  0  0  0
 37 39  1  0  0  0
 37 47  1  0  0  0
 37 66  1  0  0  0
 37107  1  0  0  0
 38 43  2  0  0  0
 38 46  1  0  0  0
 38 47  1  0  0  0
 39 64  1  0  0  0
 39 67  2  0  0  0
 40 52  1  0  0  0
 40 53  2  0  0  0
 40 58  1  0  0  0
 41108  1  0  0  0
 41109  1  0  0  0
 41110  1  0  0  0
 41 48  1  0  0  0
 42 43  1  0  0  0
 42 66  1  0  0  0
 42111  1  0  0  0
 42112  1  0  0  0
 43 44  1  0  0  0
 44113  1  0  0  0
 45 46  2  0  0  0
 45114  1  0  0  0
 46115  1  0  0  0
 47116  1  0  0  0
 47117  1  0  0  0
 48 56  1  0  0  0
 48 65  1  0  0  0
 48118  1  0  0  0
 49 50  1  0  0  0
 49 53  1  0  0  0
 49 64  1  0  0  0
 49119  1  0  0  0
 50 51  1  0  0  0
 50120  1  0  0  0
 50121  1  0  0  0
 51 52  1  0  0  0
 51122  1  0  0  0
 51123  1  0  0  0
 52124  1  0  0  0
 52125  1  0  0  0
 53 54  1  0  0  0
 54 55  2  0  0  0
 54126  1  0  0  0
 55 57  1  0  0  0
 55127  1  0  0  0
 56 69  2  0  0  0
 57 58  2  0  0  0
 57128  1  0  0  0
 58129  1  0  0  0
 59 60  1  0  0  0
 59 61  1  0  0  0
 59 62  1  0  0  0
 60130  1  0  0  0
 60131  1  0  0  0
 60132  1  0  0  0
 61133  1  0  0  0
 61134  1  0  0  0
 61135  1  0  0  0
 62136  1  0  0  0
 62137  1  0  0  0
 62138  1  0  0  0
 63 65  1  0  0  0
 63139  1  0  0  0
 63140  1  0  0  0
 63141  1  0  0  0
 64142  1  0  0  0
 65143  1  0  0  0
 68 79  1  0  0  0
 71 73  2  0  0  0
 71 83  1  0  0  0
 71144  1  0  0  0
 72 82  2  0  0  0
 72 83  1  0  0  0
 72145  1  0  0  0
 73 80  1  0  0  0
 73 82  1  0  0  0
 74146  1  0  0  0
 74147  1  0  0  0
 74148  1  0  0  0
 74 80  1  0  0  0
 75149  1  0  0  0
 75150  1  0  0  0
 75151  1  0  0  0
 75 81  1  0  0  0
 76 77  1  0  0  0
 76 81  1  0  0  0
 76152  1  0  0  0
 76153  1  0  0  0
 77 83  1  0  0  0
 77154  1  0  0  0
 77155  1  0  0  0
 78 80  1  0  0  0
 78 84  1  0  0  0
 78156  1  0  0  0
 78157  1  0  0  0
 79 81  1  0  0  0
 79158  1  0  0  0
 79159  1  0  0  0
 80160  1  0  0  0
 81161  1  0  0  0
 84162  1  0  0  0
M  ISO  4   1 100  68 101  79 101  84 100
M  END
> <chiral flag>
0

> <version>
0

> <s_m_source_file>
/data/baiqing/PycharmProjects/Reinvent-master-3.2/result/LINK_invent/BTK/process_docking_weight1_custom_sum_contain_oxygen_bond_distance_aromatic_linkinvent_7_9_3/rearranged_h_0076.sdf

> <i_m_source_file_index>
98

> <r_mmod_Potential_Energy-OPLS-2005>
-114.011100769043

> <r_mmod_Stretch_Energy-OPLS-2005>
32.533260345459

> <r_mmod_Bend_Energy-OPLS-2005>
108.736282348633

> <r_mmod_Torsional_Energy-OPLS-2005>
215.06982421875

> <r_mmod_Improper_Torsional_Energy-OPLS-2005>
2.35083556175232

> <r_mmod_Van_der_Waal_Energy-OPLS-2005>
130.912246704102

> <r_mmod_Electrostatic_Energy-OPLS-2005>
-390.875640869141

> <r_mmod_Solvation_Energy-OPLS-2005>
-222.19482421875

> <b_mmod_Minimization_Converged-OPLS-2005>
0

> <r_mmod_RMS_Derivative-OPLS-2005>
3.17109680175781

$$$$
98
                    3D
 Structure written by MMmdl.
167175  0  0  1  0            999 V2000
  -30.6011  -14.7267   20.4689 C   0  0  0  0  0  0
  -30.4300  -12.4412   19.4635 C   0  0  0  0  0  0
  -29.5077  -12.5104   18.2273 C   0  0  0  0  0  0
  -28.0330  -12.3277   18.6401 C   0  0  0  0  0  0
  -27.6397  -13.2167   19.8492 C   0  0  2  0  0  0
  -28.6869  -13.1338   20.9799 C   0  0  0  0  0  0
  -25.2526  -13.8044   20.5750 C   0  0  0  0  0  0
  -24.1768  -13.0348   20.9252 C   0  0  0  0  0  0
  -24.6345  -11.6830   20.8759 C   0  0  0  0  0  0
  -23.9029  -10.4225   21.0410 C   0  0  0  0  0  0
  -24.3591   -9.4140   21.9168 C   0  0  0  0  0  0
  -23.6269   -8.2189   22.0751 C   0  0  0  0  0  0
  -22.4252   -8.0227   21.3545 C   0  0  0  0  0  0
  -21.9885   -9.0205   20.4645 C   0  0  0  0  0  0
  -22.7220  -10.2073   20.3054 C   0  0  0  0  0  0
  -21.6824   -6.0699   22.5286 C   0  0  0  0  0  0
  -21.3983   -6.5614   23.8214 C   0  0  0  0  0  0
  -21.3679   -5.6776   24.9189 C   0  0  0  0  0  0
  -21.6069   -4.3043   24.7224 C   0  0  0  0  0  0
  -21.8824   -3.8117   23.4351 C   0  0  0  0  0  0
  -21.9176   -4.6933   22.3403 C   0  0  0  0  0  0
  -22.7817  -13.5198   21.1893 C   0  0  0  0  0  0
  -22.1655   -4.2123   21.0980 F   0  0  0  0  0  0
  -21.5658   -3.4535   25.7740 F   0  0  0  0  0  0
  -29.9865  -13.4974   20.3972 N   0  0  0  0  0  0
  -26.2915  -12.9252   20.3290 N   0  0  0  0  0  0
  -25.9258  -11.6415   20.5715 N   0  0  0  0  0  0
  -22.0420  -12.8214   22.0439 N   0  0  0  0  0  0
  -25.4295  -15.1697   20.4204 N   0  0  0  0  0  0
  -31.7927  -14.8480   20.1701 O   0  0  0  0  0  0
  -21.6623   -6.8829   21.4236 O   0  0  0  0  0  0
  -22.3557  -14.5537   20.6746 O   0  0  0  0  0  0
  -24.6289  -31.8568   23.1994 C   0  0  0  0  0  0
  -25.9131  -32.4766   23.8325 C   0  0  1  0  0  0
  -27.2302  -27.2895   20.1071 C   0  0  0  0  0  0
  -25.5944  -33.8567   24.2256 N   0  0  0  0  0  0
  -23.4241  -30.4804   21.5436 C   0  0  2  0  0  0
  -24.8719  -28.9301   20.1126 C   0  0  0  0  0  0
  -22.7485  -29.4619   22.4917 C   0  0  0  0  0  0
  -18.0326  -28.1357   22.8496 C   0  0  0  0  0  0
  -24.1495  -36.7283   23.2632 C   0  0  0  0  0  0
  -25.9692  -30.7754   21.3768 C   0  0  0  0  0  0
  -26.0440  -29.3996   20.7196 C   0  0  0  0  0  0
  -27.2232  -28.5898   20.7117 C   0  0  0  0  0  0
  -26.0341  -26.8893   19.4638 C   0  0  0  0  0  0
  -24.8700  -27.6788   19.4790 C   0  0  0  0  0  0
  -23.6411  -29.8124   20.1617 C   0  0  0  0  0  0
  -25.4127  -36.3075   24.0319 C   0  0  1  0  0  0
  -20.5919  -28.3696   23.1282 C   0  0  2  0  0  0
  -20.6839  -26.9414   22.5422 C   0  0  0  0  0  0
  -19.5815  -26.6353   21.5230 C   0  0  0  0  0  0
  -18.1988  -26.7911   22.1636 C   0  0  0  0  0  0
  -19.1561  -28.8838   23.2895 C   0  0  0  0  0  0
  -18.9473  -30.1448   23.8895 C   0  0  0  0  0  0
  -17.6463  -30.6573   24.0539 C   0  0  0  0  0  0
  -25.9066  -34.9441   23.5090 C   0  0  0  0  0  0
  -16.5368  -29.9048   23.6301 C   0  0  0  0  0  0
  -16.7316  -28.6468   23.0334 C   0  0  0  0  0  0
  -26.4505  -31.6585   25.0696 C   0  0  0  0  0  0
  -25.3724  -31.3736   26.1409 C   0  0  0  0  0  0
  -27.0346  -30.3008   24.6157 C   0  0  0  0  0  0
  -27.6067  -32.4310   25.7477 C   0  0  0  0  0  0
  -27.5588  -37.1801   24.8464 C   0  0  0  0  0  0
  -21.4186  -29.3063   22.3664 N   0  0  0  0  0  0
  -26.4302  -37.3777   23.9405 N   0  0  0  0  0  0
  -24.6936  -31.0524   22.0979 N   0  0  0  0  0  0
  -23.4192  -28.8168   23.3000 O   0  0  0  0  0  0
  -28.3404  -26.4163   20.1586 O   0  0  0  0  0  0
  -26.5626  -34.8912   22.4650 O   0  0  0  0  0  0
  -23.5444  -32.1398   23.7292 O   0  0  0  0  0  0
  -29.3184  -21.1683   20.3419 C   0  0  0  0  0  0
  -28.8755  -19.8026   20.5639 C   0  0  0  0  0  0
  -28.5752  -22.3347   20.7987 C   0  0  0  0  0  0
  -27.6195  -19.7079   21.1970 C   0  0  0  0  0  0
  -27.4084  -22.0325   21.5631 C   0  0  0  0  0  0
  -25.7389  -18.5046   20.0657 C   0  0  0  0  0  0
  -25.2051  -23.3588   21.4657 C   0  0  0  0  0  0
  -27.0856  -24.2054   23.0591 C   0  0  0  0  0  0
  -29.5714  -18.4805   19.9971 C   0  0  0  0  0  0
  -29.0785  -23.8317   20.5750 C   0  0  0  0  0  0
  -26.7823  -18.4390   21.1954 C   0  0  0  0  0  0
  -30.1185  -17.3029   20.9670 C   0  0  0  0  0  0
  -28.1202  -24.9535   19.9342 C   0  0  0  0  0  0
  -26.4659  -23.0190   22.2891 C   0  0  0  0  0  0
  -26.9657  -20.7667   21.7082 N   0  0  0  0  0  0
  -29.7989  -15.8308   20.6998 N   0  0  0  0  0  0
  -31.4708  -12.5709   19.1650 H   0  0  0  0  0  0
  -30.3671  -11.4599   19.9420 H   0  0  0  0  0  0
  -29.7929  -11.7496   17.5003 H   0  0  0  0  0  0
  -29.6340  -13.4707   17.7241 H   0  0  0  0  0  0
  -27.8961  -11.2763   18.8999 H   0  0  0  0  0  0
  -27.3778  -12.5259   17.7892 H   0  0  0  0  0  0
  -27.6366  -14.2421   19.4788 H   0  0  0  0  0  0
  -28.7198  -12.1314   21.4084 H   0  0  0  0  0  0
  -28.4194  -13.7979   21.8015 H   0  0  0  0  0  0
  -25.2731   -9.5644   22.4727 H   0  0  0  0  0  0
  -23.9975   -7.4609   22.7498 H   0  0  0  0  0  0
  -21.0812   -8.8759   19.8956 H   0  0  0  0  0  0
  -22.3710  -10.9622   19.6166 H   0  0  0  0  0  0
  -21.1961   -7.6115   23.9723 H   0  0  0  0  0  0
  -21.1520   -6.0497   25.9107 H   0  0  0  0  0  0
  -22.0582   -2.7571   23.2863 H   0  0  0  0  0  0
  -22.4018  -11.9849   22.4796 H   0  0  0  0  0  0
  -21.1068  -13.1310   22.2681 H   0  0  0  0  0  0
  -24.6603  -15.8194   20.5355 H   0  0  0  0  0  0
  -26.2623  -15.5981   20.0405 H   0  0  0  0  0  0
  -26.7191  -32.5432   23.1062 H   0  0  0  0  0  0
  -25.0124  -33.9725   25.0423 H   0  0  0  0  0  0
  -22.7211  -31.3024   21.3968 H   0  0  0  0  0  0
  -23.3759  -35.9614   23.3292 H   0  0  0  0  0  0
  -24.3576  -36.8911   22.2046 H   0  0  0  0  0  0
  -23.7254  -37.6485   23.6656 H   0  0  0  0  0  0
  -26.1019  -31.5354   20.6046 H   0  0  0  0  0  0
  -26.8478  -30.8270   22.0082 H   0  0  0  0  0  0
  -28.1185  -28.9432   21.2031 H   0  0  0  0  0  0
  -25.9660  -25.9436   18.9477 H   0  0  0  0  0  0
  -23.9742  -27.3126   18.9959 H   0  0  0  0  0  0
  -23.7597  -30.5840   19.3998 H   0  0  0  0  0  0
  -22.7616  -29.2392   19.8637 H   0  0  0  0  0  0
  -25.1313  -36.1922   25.0813 H   0  0  0  0  0  0
  -21.0030  -28.3286   24.1401 H   0  0  0  0  0  0
  -20.5754  -26.2290   23.3612 H   0  0  0  0  0  0
  -21.6712  -26.7443   22.1228 H   0  0  0  0  0  0
  -19.6746  -27.3127   20.6728 H   0  0  0  0  0  0
  -19.6990  -25.6238   21.1316 H   0  0  0  0  0  0
  -17.4276  -26.6657   21.4024 H   0  0  0  0  0  0
  -18.0399  -26.0035   22.9019 H   0  0  0  0  0  0
  -19.7955  -30.7273   24.2239 H   0  0  0  0  0  0
  -17.4999  -31.6273   24.5100 H   0  0  0  0  0  0
  -15.5357  -30.2933   23.7585 H   0  0  0  0  0  0
  -15.8735  -28.0787   22.7025 H   0  0  0  0  0  0
  -24.5904  -30.7090   25.7719 H   0  0  0  0  0  0
  -24.8899  -32.2904   26.4800 H   0  0  0  0  0  0
  -25.8015  -30.8925   27.0207 H   0  0  0  0  0  0
  -26.2917  -29.6757   24.1188 H   0  0  0  0  0  0
  -27.4066  -29.7263   25.4651 H   0  0  0  0  0  0
  -27.8776  -30.4293   23.9366 H   0  0  0  0  0  0
  -27.2695  -33.3623   26.2039 H   0  0  0  0  0  0
  -28.3886  -32.6857   25.0309 H   0  0  0  0  0  0
  -28.0724  -31.8443   26.5408 H   0  0  0  0  0  0
  -28.2604  -38.0100   24.7514 H   0  0  0  0  0  0
  -28.1087  -36.2631   24.6291 H   0  0  0  0  0  0
  -27.2291  -37.1446   25.8863 H   0  0  0  0  0  0
  -20.9351  -29.8818   21.6913 H   0  0  0  0  0  0
  -26.0175  -38.2850   24.1413 H   0  0  0  0  0  0
  -30.2376  -21.3217   19.7955 H   0  0  0  0  0  0
  -25.0656  -17.6537   20.0766 H   0  0  0  0  0  0
  -26.2245  -18.5410   19.0903 H   0  0  0  0  0  0
  -25.1124  -19.3917   20.1598 H   0  0  0  0  0  0
  -25.4129  -23.6492   20.4398 H   0  0  0  0  0  0
  -24.6207  -24.1537   21.9283 H   0  0  0  0  0  0
  -24.5620  -22.4819   21.4006 H   0  0  0  0  0  0
  -27.5115  -24.9907   22.4454 H   0  0  0  0  0  0
  -27.8615  -23.8571   23.7392 H   0  0  0  0  0  0
  -26.3221  -24.6921   23.6668 H   0  0  0  0  0  0
  -30.4056  -18.8078   19.3751 H   0  0  0  0  0  0
  -28.8676  -18.0359   19.2938 H   0  0  0  0  0  0
  -29.9869  -23.7901   19.9743 H   0  0  0  0  0  0
  -29.4208  -24.1869   21.5456 H   0  0  0  0  0  0
  -26.2820  -18.3302   22.1590 H   0  0  0  0  0  0
  -27.3949  -17.5471   21.0865 H   0  0  0  0  0  0
  -31.2015  -17.4090   21.0495 H   0  0  0  0  0  0
  -29.7545  -17.4992   21.9757 H   0  0  0  0  0  0
  -27.1400  -24.7444   20.3243 H   0  0  0  0  0  0
  -28.0414  -24.7721   18.8612 H   0  0  0  0  0  0
  -26.0660  -22.4361   23.1230 H   0  0  0  0  0  0
  -28.8337  -15.5841   20.8589 H   0  0  0  0  0  0
  1 25  1  0  0  0
  1 30  2  0  0  0
  1 86  1  0  0  0
  2  3  1  0  0  0
  2 25  1  0  0  0
  2 87  1  0  0  0
  2 88  1  0  0  0
  3  4  1  0  0  0
  3 89  1  0  0  0
  3 90  1  0  0  0
  4  5  1  0  0  0
  4 91  1  0  0  0
  4 92  1  0  0  0
  5  6  1  0  0  0
  5 26  1  0  0  0
  5 93  1  0  0  0
  6 25  1  0  0  0
  6 94  1  0  0  0
  6 95  1  0  0  0
  7  8  2  0  0  0
  7 26  1  0  0  0
  7 29  1  0  0  0
  8  9  1  0  0  0
  8 22  1  0  0  0
  9 10  1  0  0  0
  9 27  2  0  0  0
 10 11  2  0  0  0
 10 15  1  0  0  0
 11 12  1  0  0  0
 11 96  1  0  0  0
 12 13  2  0  0  0
 12 97  1  0  0  0
 13 14  1  0  0  0
 13 31  1  0  0  0
 14 15  2  0  0  0
 14 98  1  0  0  0
 15 99  1  0  0  0
 16 17  2  0  0  0
 16 21  1  0  0  0
 16 31  1  0  0  0
 17 18  1  0  0  0
 17100  1  0  0  0
 18 19  2  0  0  0
 18101  1  0  0  0
 19 20  1  0  0  0
 19 24  1  0  0  0
 20 21  2  0  0  0
 20102  1  0  0  0
 21 23  1  0  0  0
 22 28  1  0  0  0
 22 32  2  0  0  0
 26 27  1  0  0  0
 28103  1  0  0  0
 28104  1  0  0  0
 29105  1  0  0  0
 29106  1  0  0  0
 33 34  1  0  0  0
 33 66  1  0  0  0
 33 70  2  0  0  0
 34 36  1  0  0  0
 34 59  1  0  0  0
 34107  1  0  0  0
 35 44  2  0  0  0
 35 45  1  0  0  0
 35 68  1  0  0  0
 36 56  1  0  0  0
 36108  1  0  0  0
 37 39  1  0  0  0
 37 47  1  0  0  0
 37 66  1  0  0  0
 37109  1  0  0  0
 38 43  2  0  0  0
 38 46  1  0  0  0
 38 47  1  0  0  0
 39 64  1  0  0  0
 39 67  2  0  0  0
 40 52  1  0  0  0
 40 53  2  0  0  0
 40 58  1  0  0  0
 41110  1  0  0  0
 41111  1  0  0  0
 41112  1  0  0  0
 41 48  1  0  0  0
 42 43  1  0  0  0
 42 66  1  0  0  0
 42113  1  0  0  0
 42114  1  0  0  0
 43 44  1  0  0  0
 44115  1  0  0  0
 45 46  2  0  0  0
 45116  1  0  0  0
 46117  1  0  0  0
 47118  1  0  0  0
 47119  1  0  0  0
 48 56  1  0  0  0
 48 65  1  0  0  0
 48120  1  0  0  0
 49 50  1  0  0  0
 49 53  1  0  0  0
 49 64  1  0  0  0
 49121  1  0  0  0
 50 51  1  0  0  0
 50122  1  0  0  0
 50123  1  0  0  0
 51 52  1  0  0  0
 51124  1  0  0  0
 51125  1  0  0  0
 52126  1  0  0  0
 52127  1  0  0  0
 53 54  1  0  0  0
 54 55  2  0  0  0
 54128  1  0  0  0
 55 57  1  0  0  0
 55129  1  0  0  0
 56 69  2  0  0  0
 57 58  2  0  0  0
 57130  1  0  0  0
 58131  1  0  0  0
 59 60  1  0  0  0
 59 61  1  0  0  0
 59 62  1  0  0  0
 60132  1  0  0  0
 60133  1  0  0  0
 60134  1  0  0  0
 61135  1  0  0  0
 61136  1  0  0  0
 61137  1  0  0  0
 62138  1  0  0  0
 62139  1  0  0  0
 62140  1  0  0  0
 63 65  1  0  0  0
 63141  1  0  0  0
 63142  1  0  0  0
 63143  1  0  0  0
 64144  1  0  0  0
 65145  1  0  0  0
 68 83  1  0  0  0
 71 72  2  0  0  0
 71 73  1  0  0  0
 71146  1  0  0  0
 72 74  1  0  0  0
 72 79  1  0  0  0
 73 75  2  0  0  0
 73 80  1  0  0  0
 74 81  1  0  0  0
 74 85  2  0  0  0
 75 84  1  0  0  0
 75 85  1  0  0  0
 76 81  1  0  0  0
 76147  1  0  0  0
 76148  1  0  0  0
 76149  1  0  0  0
 77150  1  0  0  0
 77151  1  0  0  0
 77152  1  0  0  0
 77 84  1  0  0  0
 78 84  1  0  0  0
 78153  1  0  0  0
 78154  1  0  0  0
 78155  1  0  0  0
 79 82  1  0  0  0
 79156  1  0  0  0
 79157  1  0  0  0
 80 83  1  0  0  0
 80158  1  0  0  0
 80159  1  0  0  0
 81160  1  0  0  0
 81161  1  0  0  0
 82 86  1  0  0  0
 82162  1  0  0  0
 82163  1  0  0  0
 83164  1  0  0  0
 83165  1  0  0  0
 84166  1  0  0  0
 86167  1  0  0  0
M  ISO  4   1 100  68 101  83 101  86 100
M  END
> <chiral flag>
0

> <version>
0

> <s_m_source_file>
/data/baiqing/PycharmProjects/Reinvent-master-3.2/result/LINK_invent/BTK/process_docking_weight1_custom_sum_contain_oxygen_bond_distance_aromatic_linkinvent_7_9_3/rearranged_h_0076.sdf

> <i_m_source_file_index>
99

> <r_mmod_Potential_Energy-OPLS-2005>
-66.1802825927734

> <r_mmod_Stretch_Energy-OPLS-2005>
117.624801635742

> <r_mmod_Bend_Energy-OPLS-2005>
189.105087280273

> <r_mmod_Torsional_Energy-OPLS-2005>
218.161392211914

> <r_mmod_Improper_Torsional_Energy-OPLS-2005>
6.13035726547241

> <r_mmod_Van_der_Waal_Energy-OPLS-2005>
147.450942993164

> <r_mmod_Electrostatic_Energy-OPLS-2005>
-605.215698242188

> <r_mmod_Solvation_Energy-OPLS-2005>
-213.503616333008

> <b_mmod_Minimization_Converged-OPLS-2005>
0

> <r_mmod_RMS_Derivative-OPLS-2005>
3.44814491271973

$$$$
99
                    3D
 Structure written by MMmdl.
166174  0  0  1  0            999 V2000
  -30.4862  -15.0456   20.4395 C   0  0  0  0  0  0
  -30.4541  -12.6485   19.4900 C   0  0  0  0  0  0
  -29.5190  -12.5194   18.2565 C   0  0  0  0  0  0
  -28.0749  -12.2051   18.6973 C   0  0  0  0  0  0
  -27.6140  -13.1667   19.8086 C   0  0  2  0  0  0
  -28.6712  -13.2309   20.9479 C   0  0  0  0  0  0
  -25.2312  -13.7801   20.5627 C   0  0  0  0  0  0
  -24.1646  -13.0121   20.9137 C   0  0  0  0  0  0
  -24.6250  -11.6634   20.8720 C   0  0  0  0  0  0
  -23.8933  -10.4118   21.0449 C   0  0  0  0  0  0
  -24.3512   -9.4061   21.9219 C   0  0  0  0  0  0
  -23.6189   -8.2116   22.0785 C   0  0  0  0  0  0
  -22.4174   -8.0195   21.3557 C   0  0  0  0  0  0
  -21.9791   -9.0146   20.4635 C   0  0  0  0  0  0
  -22.7139  -10.2005   20.3062 C   0  0  0  0  0  0
  -21.6773   -6.0701   22.5293 C   0  0  0  0  0  0
  -21.3953   -6.5630   23.8232 C   0  0  0  0  0  0
  -21.3662   -5.6786   24.9196 C   0  0  0  0  0  0
  -21.6035   -4.3049   24.7243 C   0  0  0  0  0  0
  -21.8801   -3.8143   23.4365 C   0  0  0  0  0  0
  -21.9147   -4.6943   22.3415 C   0  0  0  0  0  0
  -22.7704  -13.4996   21.1838 C   0  0  0  0  0  0
  -22.1642   -4.2136   21.1008 F   0  0  0  0  0  0
  -21.5648   -3.4558   25.7766 F   0  0  0  0  0  0
  -29.9351  -13.7439   20.3732 N   0  0  0  0  0  0
  -26.2738  -12.8974   20.3073 N   0  0  0  0  0  0
  -25.9143  -11.6183   20.5652 N   0  0  0  0  0  0
  -22.0363  -12.8072   22.0445 N   0  0  0  0  0  0
  -25.3622  -15.1562   20.4389 N   0  0  0  0  0  0
  -31.6841  -15.1007   20.1327 O   0  0  0  0  0  0
  -21.6551   -6.8814   21.4248 O   0  0  0  0  0  0
  -22.3521  -14.5375   20.6669 O   0  0  0  0  0  0
  -24.6421  -31.8491   23.1891 C   0  0  0  0  0  0
  -25.9199  -32.4722   23.8289 C   0  0  1  0  0  0
  -27.2442  -27.1850   20.1330 C   0  0  0  0  0  0
  -25.5950  -33.8522   24.2221 N   0  0  0  0  0  0
  -23.4446  -30.4686   21.5342 C   0  0  2  0  0  0
  -24.8984  -28.9016   20.1082 C   0  0  0  0  0  0
  -22.7572  -29.4587   22.4864 C   0  0  0  0  0  0
  -18.0326  -28.1394   22.8477 C   0  0  0  0  0  0
  -24.1500  -36.7259   23.2639 C   0  0  0  0  0  0
  -25.9992  -30.7381   21.3832 C   0  0  0  0  0  0
  -26.0754  -29.3553   20.7184 C   0  0  0  0  0  0
  -27.2476  -28.5155   20.7081 C   0  0  0  0  0  0
  -26.0343  -26.8177   19.4991 C   0  0  0  0  0  0
  -24.8892  -27.6446   19.4839 C   0  0  0  0  0  0
  -23.6677  -29.7944   20.1543 C   0  0  0  0  0  0
  -25.4133  -36.3056   24.0328 C   0  0  1  0  0  0
  -20.5933  -28.3730   23.1228 C   0  0  2  0  0  0
  -20.6810  -26.9433   22.5392 C   0  0  0  0  0  0
  -19.5772  -26.6388   21.5212 C   0  0  0  0  0  0
  -18.1960  -26.7940   22.1621 C   0  0  0  0  0  0
  -19.1577  -28.8883   23.2847 C   0  0  0  0  0  0
  -18.9488  -30.1485   23.8867 C   0  0  0  0  0  0
  -17.6476  -30.6586   24.0562 C   0  0  0  0  0  0
  -25.9082  -34.9420   23.5089 C   0  0  0  0  0  0
  -16.5374  -29.9072   23.6329 C   0  0  0  0  0  0
  -16.7310  -28.6492   23.0356 C   0  0  0  0  0  0
  -26.4515  -31.6567   25.0713 C   0  0  0  0  0  0
  -25.3676  -31.3745   26.1381 C   0  0  0  0  0  0
  -27.0401  -30.2971   24.6304 C   0  0  0  0  0  0
  -27.6080  -32.4311   25.7487 C   0  0  0  0  0  0
  -27.5602  -37.1775   24.8457 C   0  0  0  0  0  0
  -21.4270  -29.3052   22.3591 N   0  0  0  0  0  0
  -26.4305  -37.3764   23.9410 N   0  0  0  0  0  0
  -24.7151  -31.0384   22.0903 N   0  0  0  0  0  0
  -23.4221  -28.8150   23.3024 O   0  0  0  0  0  0
  -28.3332  -26.2433   20.1903 O   0  0  0  0  0  0
  -26.5670  -34.8918   22.4668 O   0  0  0  0  0  0
  -23.5541  -32.1347   23.7129 O   0  0  0  0  0  0
  -29.3276  -19.2488   20.9943 C   0  0  0  0  0  0
  -29.5402  -20.4565   20.1916 C   0  0  0  0  0  0
  -29.9444  -18.0886   20.4469 C   0  0  0  0  0  0
  -33.0469  -18.4348   18.9080 C   0  0  0  0  0  0
  -31.3494  -18.4817   17.0152 C   0  0  0  0  0  0
  -29.5530  -16.4652   22.3645 C   0  0  0  0  0  0
  -28.6976  -21.8669   20.0971 C   0  0  0  0  0  0
  -29.1671  -23.4572   20.2947 C   0  0  0  0  0  0
  -28.2264  -16.3112   20.2237 C   0  0  0  0  0  0
  -28.1171  -24.7279   19.9795 C   0  0  0  0  0  0
  -31.6108  -18.0818   18.4776 C   0  0  0  0  0  0
  -29.6463  -16.4955   20.8194 C   0  0  2  0  0  0
  -30.4014  -20.0569   19.2560 N   0  0  0  0  0  0
  -30.6501  -18.6906   19.3923 N   0  0  0  0  0  0
  -27.2144  -17.3729   20.4138 N   0  3  0  0  0  0
  -31.4802  -12.8317   19.1687 H   0  0  0  0  0  0
  -30.4891  -11.7014   20.0322 H   0  0  0  0  0  0
  -29.8804  -11.7460   17.5782 H   0  0  0  0  0  0
  -29.5260  -13.4487   17.6882 H   0  0  0  0  0  0
  -28.0547  -11.1819   19.0772 H   0  0  0  0  0  0
  -27.3937  -12.2276   17.8459 H   0  0  0  0  0  0
  -27.5241  -14.0948   19.2605 H   0  0  0  0  0  0
  -28.8171  -12.2356   21.3732 H   0  0  0  0  0  0
  -28.3278  -13.8187   21.7961 H   0  0  0  0  0  0
  -25.2697   -9.5530   22.4735 H   0  0  0  0  0  0
  -23.9919   -7.4457   22.7449 H   0  0  0  0  0  0
  -21.0749   -8.8621   19.8876 H   0  0  0  0  0  0
  -22.3663  -10.9521   19.6114 H   0  0  0  0  0  0
  -21.1941   -7.6136   23.9727 H   0  0  0  0  0  0
  -21.1509   -6.0535   25.9092 H   0  0  0  0  0  0
  -22.0572   -2.7605   23.2865 H   0  0  0  0  0  0
  -22.3968  -11.9715   22.4827 H   0  0  0  0  0  0
  -21.0982  -13.1137   22.2662 H   0  0  0  0  0  0
  -24.4555  -15.4530   20.0859 H   0  0  0  0  0  0
  -25.2910  -15.4373   21.4125 H   0  0  0  0  0  0
  -26.7279  -32.5351   23.1039 H   0  0  0  0  0  0
  -25.0049  -33.9630   25.0330 H   0  0  0  0  0  0
  -22.7456  -31.2937   21.3807 H   0  0  0  0  0  0
  -23.3796  -35.9552   23.3257 H   0  0  0  0  0  0
  -24.3603  -36.8928   22.2063 H   0  0  0  0  0  0
  -23.7201  -37.6423   23.6694 H   0  0  0  0  0  0
  -26.1605  -31.5024   20.6217 H   0  0  0  0  0  0
  -26.8649  -30.7782   22.0312 H   0  0  0  0  0  0
  -28.1480  -28.8686   21.1907 H   0  0  0  0  0  0
  -25.9421  -25.8533   19.0221 H   0  0  0  0  0  0
  -23.9902  -27.2918   18.9980 H   0  0  0  0  0  0
  -23.7873  -30.5675   19.3945 H   0  0  0  0  0  0
  -22.7843  -29.2278   19.8536 H   0  0  0  0  0  0
  -25.1315  -36.1909   25.0824 H   0  0  0  0  0  0
  -21.0049  -28.3336   24.1336 H   0  0  0  0  0  0
  -20.5736  -26.2350   23.3620 H   0  0  0  0  0  0
  -21.6677  -26.7448   22.1171 H   0  0  0  0  0  0
  -19.6936  -25.6296   21.1251 H   0  0  0  0  0  0
  -19.6702  -27.3193   20.6739 H   0  0  0  0  0  0
  -17.4235  -26.6711   21.4020 H   0  0  0  0  0  0
  -18.0338  -26.0084   22.9015 H   0  0  0  0  0  0
  -19.7963  -30.7325   24.2214 H   0  0  0  0  0  0
  -17.5021  -31.6260   24.5175 H   0  0  0  0  0  0
  -15.5372  -30.2958   23.7661 H   0  0  0  0  0  0
  -15.8723  -28.0801   22.7067 H   0  0  0  0  0  0
  -24.5854  -30.7131   25.7631 H   0  0  0  0  0  0
  -24.8860  -32.2921   26.4769 H   0  0  0  0  0  0
  -25.7900  -30.8886   27.0180 H   0  0  0  0  0  0
  -26.3032  -29.6666   24.1320 H   0  0  0  0  0  0
  -27.4018  -29.7309   25.4897 H   0  0  0  0  0  0
  -27.8930  -30.4215   23.9633 H   0  0  0  0  0  0
  -27.2717  -33.3623   26.2059 H   0  0  0  0  0  0
  -28.3880  -32.6848   25.0292 H   0  0  0  0  0  0
  -28.0766  -31.8430   26.5387 H   0  0  0  0  0  0
  -28.2580  -38.0116   24.7593 H   0  0  0  0  0  0
  -28.1151  -36.2655   24.6193 H   0  0  0  0  0  0
  -27.2327  -37.1297   25.8858 H   0  0  0  0  0  0
  -20.9501  -29.8716   21.6708 H   0  0  0  0  0  0
  -26.0192  -38.2841   24.1416 H   0  0  0  0  0  0
  -28.6436  -19.2294   21.8295 H   0  0  0  0  0  0
  -33.7840  -17.9739   18.2512 H   0  0  0  0  0  0
  -33.2555  -18.0969   19.9253 H   0  0  0  0  0  0
  -33.2146  -19.5137   18.8828 H   0  0  0  0  0  0
  -32.0501  -17.9833   16.3463 H   0  0  0  0  0  0
  -31.4569  -19.5546   16.8556 H   0  0  0  0  0  0
  -30.3407  -18.1994   16.7116 H   0  0  0  0  0  0
  -28.7527  -17.1009   22.7472 H   0  0  0  0  0  0
  -30.4820  -16.8238   22.8049 H   0  0  0  0  0  0
  -29.3737  -15.4724   22.7746 H   0  0  0  0  0  0
  -27.8587  -21.7506   20.7817 H   0  0  0  0  0  0
  -28.2226  -21.8524   19.1163 H   0  0  0  0  0  0
  -30.0571  -23.6168   19.6862 H   0  0  0  0  0  0
  -29.5066  -23.5625   21.3247 H   0  0  0  0  0  0
  -27.7685  -15.5071   20.7608 H   0  0  0  0  0  0
  -28.2781  -16.0928   19.1551 H   0  0  0  0  0  0
  -27.2008  -24.4925   20.5227 H   0  0  0  0  0  0
  -27.8552  -24.6283   18.9263 H   0  0  0  0  0  0
  -31.4878  -17.0040   18.5313 H   0  0  0  0  0  0
  -27.0696  -17.5771   21.3872 H   0  0  0  0  0  0
  -26.3362  -17.0302   20.0467 H   0  0  0  0  0  0
  -27.4817  -18.2127   19.9310 H   0  0  0  0  0  0
  1 25  1  0  0  0
  1 30  2  0  0  0
  1 82  1  0  0  0
  2  3  1  0  0  0
  2 25  1  0  0  0
  2 86  1  0  0  0
  2 87  1  0  0  0
  3  4  1  0  0  0
  3 88  1  0  0  0
  3 89  1  0  0  0
  4  5  1  0  0  0
  4 90  1  0  0  0
  4 91  1  0  0  0
  5  6  1  0  0  0
  5 26  1  0  0  0
  5 92  1  0  0  0
  6 25  1  0  0  0
  6 93  1  0  0  0
  6 94  1  0  0  0
  7  8  2  0  0  0
  7 26  1  0  0  0
  7 29  1  0  0  0
  8  9  1  0  0  0
  8 22  1  0  0  0
  9 10  1  0  0  0
  9 27  2  0  0  0
 10 11  2  0  0  0
 10 15  1  0  0  0
 11 12  1  0  0  0
 11 95  1  0  0  0
 12 13  2  0  0  0
 12 96  1  0  0  0
 13 14  1  0  0  0
 13 31  1  0  0  0
 14 15  2  0  0  0
 14 97  1  0  0  0
 15 98  1  0  0  0
 16 17  2  0  0  0
 16 21  1  0  0  0
 16 31  1  0  0  0
 17 18  1  0  0  0
 17 99  1  0  0  0
 18 19  2  0  0  0
 18100  1  0  0  0
 19 20  1  0  0  0
 19 24  1  0  0  0
 20 21  2  0  0  0
 20101  1  0  0  0
 21 23  1  0  0  0
 22 28  1  0  0  0
 22 32  2  0  0  0
 26 27  1  0  0  0
 28102  1  0  0  0
 28103  1  0  0  0
 29104  1  0  0  0
 29105  1  0  0  0
 33 34  1  0  0  0
 33 66  1  0  0  0
 33 70  2  0  0  0
 34 36  1  0  0  0
 34 59  1  0  0  0
 34106  1  0  0  0
 35 44  2  0  0  0
 35 45  1  0  0  0
 35 68  1  0  0  0
 36 56  1  0  0  0
 36107  1  0  0  0
 37 39  1  0  0  0
 37 47  1  0  0  0
 37 66  1  0  0  0
 37108  1  0  0  0
 38 43  2  0  0  0
 38 46  1  0  0  0
 38 47  1  0  0  0
 39 64  1  0  0  0
 39 67  2  0  0  0
 40 52  1  0  0  0
 40 53  2  0  0  0
 40 58  1  0  0  0
 41109  1  0  0  0
 41110  1  0  0  0
 41111  1  0  0  0
 41 48  1  0  0  0
 42 43  1  0  0  0
 42 66  1  0  0  0
 42112  1  0  0  0
 42113  1  0  0  0
 43 44  1  0  0  0
 44114  1  0  0  0
 45 46  2  0  0  0
 45115  1  0  0  0
 46116  1  0  0  0
 47117  1  0  0  0
 47118  1  0  0  0
 48 56  1  0  0  0
 48 65  1  0  0  0
 48119  1  0  0  0
 49 50  1  0  0  0
 49 53  1  0  0  0
 49 64  1  0  0  0
 49120  1  0  0  0
 50 51  1  0  0  0
 50121  1  0  0  0
 50122  1  0  0  0
 51 52  1  0  0  0
 51123  1  0  0  0
 51124  1  0  0  0
 52125  1  0  0  0
 52126  1  0  0  0
 53 54  1  0  0  0
 54 55  2  0  0  0
 54127  1  0  0  0
 55 57  1  0  0  0
 55128  1  0  0  0
 56 69  2  0  0  0
 57 58  2  0  0  0
 57129  1  0  0  0
 58130  1  0  0  0
 59 60  1  0  0  0
 59 61  1  0  0  0
 59 62  1  0  0  0
 60131  1  0  0  0
 60132  1  0  0  0
 60133  1  0  0  0
 61134  1  0  0  0
 61135  1  0  0  0
 61136  1  0  0  0
 62137  1  0  0  0
 62138  1  0  0  0
 62139  1  0  0  0
 63 65  1  0  0  0
 63140  1  0  0  0
 63141  1  0  0  0
 63142  1  0  0  0
 64143  1  0  0  0
 65144  1  0  0  0
 68 80  1  0  0  0
 71 72  1  0  0  0
 71 73  2  0  0  0
 71145  1  0  0  0
 72 77  1  0  0  0
 72 83  2  0  0  0
 73 82  1  0  0  0
 73 84  1  0  0  0
 74146  1  0  0  0
 74147  1  0  0  0
 74148  1  0  0  0
 74 81  1  0  0  0
 75 81  1  0  0  0
 75149  1  0  0  0
 75150  1  0  0  0
 75151  1  0  0  0
 76152  1  0  0  0
 76153  1  0  0  0
 76154  1  0  0  0
 76 82  1  0  0  0
 77 78  1  0  0  0
 77155  1  0  0  0
 77156  1  0  0  0
 78 80  1  0  0  0
 78157  1  0  0  0
 78158  1  0  0  0
 79 82  1  0  0  0
 79 85  1  0  0  0
 79159  1  0  0  0
 79160  1  0  0  0
 80161  1  0  0  0
 80162  1  0  0  0
 81 84  1  0  0  0
 81163  1  0  0  0
 83 84  1  0  0  0
 85164  1  0  0  0
 85165  1  0  0  0
 85166  1  0  0  0
M  CHG  1  85   1
M  ISO  4   1 100  68 101  80 101  82 100
M  END
> <chiral flag>
0

> <version>
0

> <s_m_source_file>
/data/baiqing/PycharmProjects/Reinvent-master-3.2/result/LINK_invent/BTK/process_docking_weight1_custom_sum_contain_oxygen_bond_distance_aromatic_linkinvent_7_9_3/rearranged_h_0076.sdf

> <i_m_source_file_index>
100

> <r_mmod_Potential_Energy-OPLS-2005>
414.654327392578

> <r_mmod_Stretch_Energy-OPLS-2005>
272.700531005859

> <r_mmod_Bend_Energy-OPLS-2005>
336.069458007812

> <r_mmod_Torsional_Energy-OPLS-2005>
278.920074462891

> <r_mmod_Improper_Torsional_Energy-OPLS-2005>
12.9098148345947

> <r_mmod_Van_der_Waal_Energy-OPLS-2005>
152.629364013672

> <r_mmod_Electrostatic_Energy-OPLS-2005>
-368.449127197266

> <r_mmod_Solvation_Energy-OPLS-2005>
-477.116455078125

> <b_mmod_Minimization_Converged-OPLS-2005>
0

> <r_mmod_RMS_Derivative-OPLS-2005>
3.92800498008728

$$$$
