0
                    3D
 Structure written by MMmdl.
147155  0  0  1  0            999 V2000
  -30.2953  -15.6531   20.3258 C   0  0  0  0  0  0
  -30.4219  -13.0959   19.5371 C   0  0  0  0  0  0
  -29.5498  -12.6564   18.3257 C   0  0  0  0  0  0
  -28.1270  -12.2921   18.7749 C   0  0  0  0  0  0
  -27.5932  -13.3073   19.8097 C   0  0  2  0  0  0
  -28.6068  -13.6551   20.9257 C   0  0  0  0  0  0
  -25.2314  -13.8279   20.5789 C   0  0  0  0  0  0
  -24.1704  -13.0430   20.9287 C   0  0  0  0  0  0
  -24.6402  -11.6941   20.8764 C   0  0  0  0  0  0
  -23.9106  -10.4291   21.0399 C   0  0  0  0  0  0
  -24.3644   -9.4208   21.9182 C   0  0  0  0  0  0
  -23.6309   -8.2246   22.0752 C   0  0  0  0  0  0
  -22.4292   -8.0282   21.3540 C   0  0  0  0  0  0
  -21.9936   -9.0256   20.4639 C   0  0  0  0  0  0
  -22.7274  -10.2131   20.3047 C   0  0  0  0  0  0
  -21.6855   -6.0739   22.5278 C   0  0  0  0  0  0
  -21.4018   -6.5642   23.8212 C   0  0  0  0  0  0
  -21.3661   -5.6792   24.9174 C   0  0  0  0  0  0
  -21.6044   -4.3055   24.7224 C   0  0  0  0  0  0
  -21.8818   -3.8147   23.4344 C   0  0  0  0  0  0
  -21.9194   -4.6964   22.3401 C   0  0  0  0  0  0
  -22.7717  -13.5159   21.1927 C   0  0  0  0  0  0
  -22.1661   -4.2151   21.0978 F   0  0  0  0  0  0
  -21.5630   -3.4538   25.7737 F   0  0  0  0  0  0
  -29.7772  -14.2826   20.2662 N   0  0  0  0  0  0
  -26.2758  -12.9609   20.3222 N   0  0  0  0  0  0
  -25.9348  -11.6682   20.5690 N   0  0  0  0  0  0
  -22.0381  -12.8134   22.0476 N   0  0  0  0  0  0
  -25.3919  -15.2021   20.4229 N   0  0  0  0  0  0
  -31.5322  -15.5865   20.1848 O   0  0  0  0  0  0
  -21.6647   -6.8884   21.4239 O   0  0  0  0  0  0
  -22.3398  -14.5463   20.6767 O   0  0  0  0  0  0
  -24.6861  -31.7967   23.1488 C   0  0  0  0  0  0
  -25.9429  -32.4449   23.8046 C   0  0  1  0  0  0
  -27.2279  -26.6792   20.2158 C   0  0  0  0  0  0
  -25.6003  -33.8276   24.1941 N   0  0  0  0  0  0
  -23.5130  -30.3973   21.5039 C   0  0  2  0  0  0
  -24.9701  -28.7318   20.1201 C   0  0  0  0  0  0
  -22.7773  -29.4298   22.4708 C   0  0  0  0  0  0
  -18.0340  -28.1425   22.8456 C   0  0  0  0  0  0
  -24.1496  -36.7142   23.2656 C   0  0  0  0  0  0
  -26.0947  -30.5229   21.4148 C   0  0  0  0  0  0
  -26.1604  -29.0844   20.7664 C   0  0  0  0  0  0
  -27.2738  -28.0872   20.7783 C   0  0  0  0  0  0
  -26.0022  -26.5396   19.5154 C   0  0  0  0  0  0
  -24.9311  -27.4850   19.4712 C   0  0  0  0  0  0
  -23.7681  -29.6907   20.1407 C   0  0  0  0  0  0
  -25.4148  -36.2885   24.0284 C   0  0  1  0  0  0
  -20.5978  -28.3782   23.1145 C   0  0  2  0  0  0
  -20.6804  -26.9440   22.5410 C   0  0  0  0  0  0
  -19.5780  -26.6375   21.5222 C   0  0  0  0  0  0
  -18.1961  -26.7955   22.1622 C   0  0  0  0  0  0
  -19.1608  -28.8928   23.2779 C   0  0  0  0  0  0
  -18.9513  -30.1511   23.8825 C   0  0  0  0  0  0
  -17.6505  -30.6606   24.0549 C   0  0  0  0  0  0
  -25.9131  -34.9275   23.4951 C   0  0  0  0  0  0
  -16.5393  -29.9086   23.6351 C   0  0  0  0  0  0
  -16.7318  -28.6512   23.0364 C   0  0  0  0  0  0
  -26.4602  -31.6485   25.0671 C   0  0  0  0  0  0
  -25.3667  -31.3802   26.1284 C   0  0  0  0  0  0
  -27.0532  -30.2823   24.6571 C   0  0  0  0  0  0
  -27.6050  -32.4343   25.7487 C   0  0  0  0  0  0
  -27.5558  -37.1728   24.8472 C   0  0  0  0  0  0
  -21.4418  -29.3023   22.3457 N   0  0  0  0  0  0
  -26.4272  -37.3644   23.9407 N   0  0  0  0  0  0
  -24.7887  -30.9389   22.0753 N   0  0  0  0  0  0
  -23.4206  -28.7902   23.3062 O   0  0  0  0  0  0
  -28.1988  -25.4579   20.2725 O   0  0  0  0  0  0
  -26.5768  -34.8856   22.4568 O   0  0  0  0  0  0
  -23.5871  -32.1053   23.6424 O   0  0  0  0  0  0
  -29.5798  -21.2730   19.0066 C   0  0  0  0  0  0
  -29.9206  -19.6440   19.0211 C   0  0  0  0  0  0
  -28.6181  -20.2386   20.7925 C   0  0  0  0  0  0
  -28.9338  -21.9618   20.2981 C   0  0  2  0  0  0
  -29.6600  -18.8157   20.3566 C   0  0  1  0  0  0
  -28.0029  -23.6949   20.2241 C   0  0  0  0  0  0
  -29.5305  -17.0224   20.3576 N   0  0  0  0  0  0
  -31.4125  -13.3626   19.1676 H   0  0  0  0  0  0
  -30.5900  -12.2601   20.2184 H   0  0  0  0  0  0
  -30.0101  -11.8135   17.8082 H   0  0  0  0  0  0
  -29.5034  -13.4730   17.6039 H   0  0  0  0  0  0
  -28.1644  -11.3003   19.2278 H   0  0  0  0  0  0
  -27.4561  -12.2157   17.9181 H   0  0  0  0  0  0
  -27.4516  -14.2223   19.2322 H   0  0  0  0  0  0
  -28.8712  -12.7800   21.5212 H   0  0  0  0  0  0
  -28.1674  -14.3764   21.6169 H   0  0  0  0  0  0
  -25.2780   -9.5686   22.4771 H   0  0  0  0  0  0
  -24.0009   -7.4639   22.7478 H   0  0  0  0  0  0
  -21.0866   -8.8779   19.8944 H   0  0  0  0  0  0
  -22.3726  -10.9672   19.6162 H   0  0  0  0  0  0
  -21.2009   -7.6151   23.9715 H   0  0  0  0  0  0
  -21.1487   -6.0524   25.9077 H   0  0  0  0  0  0
  -22.0594   -2.7609   23.2843 H   0  0  0  0  0  0
  -22.4019  -11.9803   22.4867 H   0  0  0  0  0  0
  -21.0988  -13.1129   22.2677 H   0  0  0  0  0  0
  -24.6202  -15.8506   20.5326 H   0  0  0  0  0  0
  -26.2320  -15.6421   20.0718 H   0  0  0  0  0  0
  -26.7512  -32.4921   23.0755 H   0  0  0  0  0  0
  -25.0070  -33.9311   25.0041 H   0  0  0  0  0  0
  -22.8400  -31.2353   21.3116 H   0  0  0  0  0  0
  -23.3772  -35.9454   23.3275 H   0  0  0  0  0  0
  -24.3567  -36.8841   22.2078 H   0  0  0  0  0  0
  -23.7240  -37.6307   23.6758 H   0  0  0  0  0  0
  -26.2965  -31.2457   20.6231 H   0  0  0  0  0  0
  -26.9468  -30.5946   22.0786 H   0  0  0  0  0  0
  -28.1722  -28.3671   21.3102 H   0  0  0  0  0  0
  -25.8321  -25.5972   19.0145 H   0  0  0  0  0  0
  -24.0330  -27.2049   18.9383 H   0  0  0  0  0  0
  -23.9437  -30.4490   19.3771 H   0  0  0  0  0  0
  -22.8720  -29.1576   19.8178 H   0  0  0  0  0  0
  -25.1354  -36.1647   25.0771 H   0  0  0  0  0  0
  -21.0059  -28.3409   24.1270 H   0  0  0  0  0  0
  -20.5670  -26.2400   23.3670 H   0  0  0  0  0  0
  -21.6664  -26.7381   22.1222 H   0  0  0  0  0  0
  -19.6937  -25.6270   21.1286 H   0  0  0  0  0  0
  -19.6729  -27.3153   20.6725 H   0  0  0  0  0  0
  -17.4232  -26.6700   21.4022 H   0  0  0  0  0  0
  -18.0345  -26.0120   22.9037 H   0  0  0  0  0  0
  -19.7989  -30.7347   24.2161 H   0  0  0  0  0  0
  -17.5053  -31.6278   24.5168 H   0  0  0  0  0  0
  -15.5391  -30.2964   23.7719 H   0  0  0  0  0  0
  -15.8718  -28.0806   22.7114 H   0  0  0  0  0  0
  -24.5902  -30.7092   25.7592 H   0  0  0  0  0  0
  -24.8803  -32.3019   26.4490 H   0  0  0  0  0  0
  -25.7857  -30.9128   27.0204 H   0  0  0  0  0  0
  -26.3253  -29.6434   24.1563 H   0  0  0  0  0  0
  -27.3956  -29.7269   25.5312 H   0  0  0  0  0  0
  -27.9228  -30.3943   24.0094 H   0  0  0  0  0  0
  -27.2602  -33.3726   26.1838 H   0  0  0  0  0  0
  -28.3974  -32.6763   25.0394 H   0  0  0  0  0  0
  -28.0584  -31.8619   26.5587 H   0  0  0  0  0  0
  -28.2551  -38.0043   24.7503 H   0  0  0  0  0  0
  -28.1076  -36.2565   24.6321 H   0  0  0  0  0  0
  -27.2271  -37.1386   25.8873 H   0  0  0  0  0  0
  -20.9724  -29.8677   21.6521 H   0  0  0  0  0  0
  -26.0098  -38.2689   24.1421 H   0  0  0  0  0  0
  -28.8995  -21.4503   18.1722 H   0  0  0  0  0  0
  -30.4850  -21.8199   18.7389 H   0  0  0  0  0  0
  -30.9511  -19.4887   18.6990 H   0  0  0  0  0  0
  -29.3165  -19.1854   18.2374 H   0  0  0  0  0  0
  -27.6247  -20.0044   20.4061 H   0  0  0  0  0  0
  -28.4838  -20.2295   21.8744 H   0  0  0  0  0  0
  -29.7724  -22.2172   20.9477 H   0  0  0  0  0  0
  -30.5506  -18.9567   20.9703 H   0  0  0  0  0  0
  -27.2965  -23.5832   21.0465 H   0  0  0  0  0  0
  -27.3742  -23.5803   19.3415 H   0  0  0  0  0  0
  -28.5497  -16.7854   20.4075 H   0  0  0  0  0  0
  1 25  1  0  0  0
  1 30  2  0  0  0
  1 77  1  0  0  0
  2  3  1  0  0  0
  2 25  1  0  0  0
  2 78  1  0  0  0
  2 79  1  0  0  0
  3  4  1  0  0  0
  3 80  1  0  0  0
  3 81  1  0  0  0
  4  5  1  0  0  0
  4 82  1  0  0  0
  4 83  1  0  0  0
  5  6  1  0  0  0
  5 26  1  0  0  0
  5 84  1  0  0  0
  6 25  1  0  0  0
  6 85  1  0  0  0
  6 86  1  0  0  0
  7  8  2  0  0  0
  7 26  1  0  0  0
  7 29  1  0  0  0
  8  9  1  0  0  0
  8 22  1  0  0  0
  9 10  1  0  0  0
  9 27  2  0  0  0
 10 11  2  0  0  0
 10 15  1  0  0  0
 11 12  1  0  0  0
 11 87  1  0  0  0
 12 13  2  0  0  0
 12 88  1  0  0  0
 13 14  1  0  0  0
 13 31  1  0  0  0
 14 15  2  0  0  0
 14 89  1  0  0  0
 15 90  1  0  0  0
 16 17  2  0  0  0
 16 21  1  0  0  0
 16 31  1  0  0  0
 17 18  1  0  0  0
 17 91  1  0  0  0
 18 19  2  0  0  0
 18 92  1  0  0  0
 19 20  1  0  0  0
 19 24  1  0  0  0
 20 21  2  0  0  0
 20 93  1  0  0  0
 21 23  1  0  0  0
 22 28  1  0  0  0
 22 32  2  0  0  0
 26 27  1  0  0  0
 28 94  1  0  0  0
 28 95  1  0  0  0
 29 96  1  0  0  0
 29 97  1  0  0  0
 33 34  1  0  0  0
 33 66  1  0  0  0
 33 70  2  0  0  0
 34 36  1  0  0  0
 34 59  1  0  0  0
 34 98  1  0  0  0
 35 44  2  0  0  0
 35 45  1  0  0  0
 35 68  1  0  0  0
 36 56  1  0  0  0
 36 99  1  0  0  0
 37 39  1  0  0  0
 37 47  1  0  0  0
 37 66  1  0  0  0
 37100  1  0  0  0
 38 43  2  0  0  0
 38 46  1  0  0  0
 38 47  1  0  0  0
 39 64  1  0  0  0
 39 67  2  0  0  0
 40 52  1  0  0  0
 40 53  2  0  0  0
 40 58  1  0  0  0
 41101  1  0  0  0
 41102  1  0  0  0
 41103  1  0  0  0
 41 48  1  0  0  0
 42 43  1  0  0  0
 42 66  1  0  0  0
 42104  1  0  0  0
 42105  1  0  0  0
 43 44  1  0  0  0
 44106  1  0  0  0
 45 46  2  0  0  0
 45107  1  0  0  0
 46108  1  0  0  0
 47109  1  0  0  0
 47110  1  0  0  0
 48 56  1  0  0  0
 48 65  1  0  0  0
 48111  1  0  0  0
 49 50  1  0  0  0
 49 53  1  0  0  0
 49 64  1  0  0  0
 49112  1  0  0  0
 50 51  1  0  0  0
 50113  1  0  0  0
 50114  1  0  0  0
 51 52  1  0  0  0
 51115  1  0  0  0
 51116  1  0  0  0
 52117  1  0  0  0
 52118  1  0  0  0
 53 54  1  0  0  0
 54 55  2  0  0  0
 54119  1  0  0  0
 55 57  1  0  0  0
 55120  1  0  0  0
 56 69  2  0  0  0
 57 58  2  0  0  0
 57121  1  0  0  0
 58122  1  0  0  0
 59 60  1  0  0  0
 59 61  1  0  0  0
 59 62  1  0  0  0
 60123  1  0  0  0
 60124  1  0  0  0
 60125  1  0  0  0
 61126  1  0  0  0
 61127  1  0  0  0
 61128  1  0  0  0
 62129  1  0  0  0
 62130  1  0  0  0
 62131  1  0  0  0
 63 65  1  0  0  0
 63132  1  0  0  0
 63133  1  0  0  0
 63134  1  0  0  0
 64135  1  0  0  0
 65136  1  0  0  0
 68 76  1  0  0  0
 71 72  1  0  0  0
 71 74  1  0  0  0
 71137  1  0  0  0
 71138  1  0  0  0
 72 75  1  0  0  0
 72139  1  0  0  0
 72140  1  0  0  0
 73 74  1  0  0  0
 73 75  1  0  0  0
 73141  1  0  0  0
 73142  1  0  0  0
 74 76  1  0  0  0
 74143  1  0  0  0
 75 77  1  0  0  0
 75144  1  0  0  0
 76145  1  0  0  0
 76146  1  0  0  0
 77147  1  0  0  0
M  ISO  4   1 100  68 101  76 101  77 100
M  END
> <chiral flag>
0

> <version>
0

> <s_m_source_file>
/data/baiqing/PycharmProjects/Reinvent-master-3.2/result/LINK_invent/BTK/process_docking_weight1_custom_sum_contain_oxygen_bond_distance_aromatic_linkinvent_7_9_3/rearranged_h_0140.sdf

> <i_m_source_file_index>
1

> <r_mmod_Potential_Energy-OPLS-2005>
2582.91552734375

> <r_mmod_Stretch_Energy-OPLS-2005>
1108.22802734375

> <r_mmod_Bend_Energy-OPLS-2005>
731.310363769531

> <r_mmod_Torsional_Energy-OPLS-2005>
256.937042236328

> <r_mmod_Improper_Torsional_Energy-OPLS-2005>
3.65947008132935

> <r_mmod_Van_der_Waal_Energy-OPLS-2005>
108.074256896973

> <r_mmod_Electrostatic_Energy-OPLS-2005>
-348.360473632812

> <r_mmod_Solvation_Energy-OPLS-2005>
-213.675140380859

> <b_mmod_Minimization_Converged-OPLS-2005>
0

> <r_mmod_RMS_Derivative-OPLS-2005>
0.849972307682037

$$$$
1
                    3D
 Structure written by MMmdl.
162171  0  0  1  0            999 V2000
  -30.5638  -14.9873   20.3875 C   0  0  0  0  0  0
  -30.4229  -12.6069   19.5243 C   0  0  0  0  0  0
  -29.5233  -12.5319   18.2696 C   0  0  0  0  0  0
  -28.0558  -12.3168   18.6786 C   0  0  0  0  0  0
  -27.6191  -13.2658   19.8251 C   0  0  2  0  0  0
  -28.6516  -13.3474   20.9661 C   0  0  0  0  0  0
  -25.2421  -13.8260   20.5721 C   0  0  0  0  0  0
  -24.1753  -13.0456   20.9219 C   0  0  0  0  0  0
  -24.6392  -11.6947   20.8737 C   0  0  0  0  0  0
  -23.9087  -10.4305   21.0397 C   0  0  0  0  0  0
  -24.3633   -9.4219   21.9175 C   0  0  0  0  0  0
  -23.6303   -8.2255   22.0752 C   0  0  0  0  0  0
  -22.4283   -8.0288   21.3546 C   0  0  0  0  0  0
  -21.9922   -9.0262   20.4648 C   0  0  0  0  0  0
  -22.7255  -10.2138   20.3052 C   0  0  0  0  0  0
  -21.6859   -6.0738   22.5278 C   0  0  0  0  0  0
  -21.4020   -6.5641   23.8210 C   0  0  0  0  0  0
  -21.3662   -5.6792   24.9172 C   0  0  0  0  0  0
  -21.6044   -4.3055   24.7223 C   0  0  0  0  0  0
  -21.8819   -3.8148   23.4345 C   0  0  0  0  0  0
  -21.9195   -4.6965   22.3401 C   0  0  0  0  0  0
  -22.7773  -13.5209   21.1888 C   0  0  0  0  0  0
  -22.1662   -4.2151   21.0979 F   0  0  0  0  0  0
  -21.5627   -3.4538   25.7735 F   0  0  0  0  0  0
  -29.9329  -13.7383   20.3725 N   0  0  0  0  0  0
  -26.2837  -12.9522   20.3190 N   0  0  0  0  0  0
  -25.9324  -11.6633   20.5700 N   0  0  0  0  0  0
  -22.0441  -12.8185   22.0448 N   0  0  0  0  0  0
  -25.4101  -15.1992   20.4212 N   0  0  0  0  0  0
  -31.7775  -14.9567   20.1513 O   0  0  0  0  0  0
  -21.6648   -6.8883   21.4241 O   0  0  0  0  0  0
  -22.3444  -14.5509   20.6737 O   0  0  0  0  0  0
  -24.6464  -31.8401   23.1841 C   0  0  0  0  0  0
  -25.9221  -32.4672   23.8245 C   0  0  1  0  0  0
  -27.2126  -27.0966   20.1602 C   0  0  0  0  0  0
  -25.5952  -33.8480   24.2161 N   0  0  0  0  0  0
  -23.4511  -30.4575   21.5305 C   0  0  2  0  0  0
  -24.8990  -28.8739   20.1104 C   0  0  0  0  0  0
  -22.7579  -29.4526   22.4848 C   0  0  0  0  0  0
  -18.0306  -28.1396   22.8476 C   0  0  0  0  0  0
  -24.1490  -36.7246   23.2644 C   0  0  0  0  0  0
  -26.0085  -30.7016   21.3870 C   0  0  0  0  0  0
  -26.0769  -29.3084   20.7300 C   0  0  0  0  0  0
  -27.2327  -28.4368   20.7338 C   0  0  0  0  0  0
  -26.0069  -26.7666   19.5054 C   0  0  0  0  0  0
  -24.8790  -27.6186   19.4820 C   0  0  0  0  0  0
  -23.6786  -29.7824   20.1511 C   0  0  0  0  0  0
  -25.4124  -36.3018   24.0312 C   0  0  1  0  0  0
  -20.5920  -28.3723   23.1231 C   0  0  2  0  0  0
  -20.6788  -26.9423   22.5406 C   0  0  0  0  0  0
  -19.5762  -26.6379   21.5213 C   0  0  0  0  0  0
  -18.1944  -26.7933   22.1624 C   0  0  0  0  0  0
  -19.1564  -28.8879   23.2844 C   0  0  0  0  0  0
  -18.9479  -30.1474   23.8871 C   0  0  0  0  0  0
  -17.6476  -30.6591   24.0559 C   0  0  0  0  0  0
  -25.9078  -34.9395   23.5049 C   0  0  0  0  0  0
  -16.5367  -29.9083   23.6337 C   0  0  0  0  0  0
  -16.7290  -28.6502   23.0357 C   0  0  0  0  0  0
  -26.4530  -31.6559   25.0707 C   0  0  0  0  0  0
  -25.3703  -31.3762   26.1396 C   0  0  0  0  0  0
  -27.0406  -30.2951   24.6319 C   0  0  0  0  0  0
  -27.6048  -32.4339   25.7497 C   0  0  0  0  0  0
  -27.5574  -37.1779   24.8465 C   0  0  0  0  0  0
  -21.4269  -29.3042   22.3598 N   0  0  0  0  0  0
  -26.4283  -37.3737   23.9408 N   0  0  0  0  0  0
  -24.7222  -31.0225   22.0888 N   0  0  0  0  0  0
  -23.4207  -28.8085   23.3019 O   0  0  0  0  0  0
  -28.2798  -26.1193   20.2345 O   0  0  0  0  0  0
  -26.5673  -34.8903   22.4634 O   0  0  0  0  0  0
  -23.5576  -32.1295   23.7042 O   0  0  0  0  0  0
  -29.7305  -17.2641   21.6250 C   0  0  0  0  0  0
  -29.4136  -18.7572   19.3251 C   0  0  0  0  0  0
  -29.9070  -16.4746   20.4364 C   0  0  0  0  0  0
  -29.2691  -19.5552   20.5151 C   0  0  0  0  0  0
  -29.4258  -18.6963   21.6713 C   0  0  0  0  0  0
  -29.7200  -17.3146   19.2702 C   0  0  0  0  0  0
  -27.7111  -21.9503   20.9303 C   0  0  0  0  0  0
  -29.5546  -22.1827   19.3956 C   0  0  0  0  0  0
  -27.6826  -23.5714   21.1548 C   0  0  0  0  0  0
  -29.5337  -23.7975   19.6267 C   0  0  0  0  0  0
  -29.0935  -21.2314   20.5830 C   0  0  2  0  0  0
  -28.1798  -24.5605   20.0018 C   0  0  2  0  0  0
  -29.3215  -19.3259   23.0490 C   0  0  0  0  0  0
  -29.7659  -17.3920   16.8547 C   0  0  0  0  0  0
  -29.8907  -16.6593   18.0668 O   0  0  0  0  0  0
  -31.4633  -12.7310   19.2211 H   0  0  0  0  0  0
  -30.3903  -11.6686   20.0804 H   0  0  0  0  0  0
  -29.8520  -11.7256   17.6128 H   0  0  0  0  0  0
  -29.6156  -13.4555   17.6954 H   0  0  0  0  0  0
  -27.9548  -11.2795   18.9998 H   0  0  0  0  0  0
  -27.3988  -12.4341   17.8160 H   0  0  0  0  0  0
  -27.5692  -14.2580   19.3747 H   0  0  0  0  0  0
  -28.7359  -12.3968   21.4946 H   0  0  0  0  0  0
  -28.3440  -14.0903   21.7036 H   0  0  0  0  0  0
  -25.2777   -9.5694   22.4752 H   0  0  0  0  0  0
  -24.0012   -7.4648   22.7471 H   0  0  0  0  0  0
  -21.0854   -8.8785   19.8955 H   0  0  0  0  0  0
  -22.3711  -10.9677   19.6163 H   0  0  0  0  0  0
  -21.2015   -7.6149   23.9714 H   0  0  0  0  0  0
  -21.1483   -6.0522   25.9074 H   0  0  0  0  0  0
  -22.0594   -2.7610   23.2844 H   0  0  0  0  0  0
  -22.4079  -11.9856   22.4835 H   0  0  0  0  0  0
  -21.1056  -13.1194   22.2668 H   0  0  0  0  0  0
  -24.6488  -15.8561   20.5535 H   0  0  0  0  0  0
  -26.2735  -15.6453   20.1371 H   0  0  0  0  0  0
  -26.7285  -32.5263   23.0968 H   0  0  0  0  0  0
  -25.0064  -33.9585   25.0284 H   0  0  0  0  0  0
  -22.7554  -31.2843   21.3730 H   0  0  0  0  0  0
  -23.3759  -35.9571   23.3291 H   0  0  0  0  0  0
  -24.3574  -36.8896   22.2061 H   0  0  0  0  0  0
  -23.7241  -37.6433   23.6695 H   0  0  0  0  0  0
  -26.1689  -31.4535   20.6132 H   0  0  0  0  0  0
  -26.8772  -30.7525   22.0320 H   0  0  0  0  0  0
  -28.1312  -28.7658   21.2365 H   0  0  0  0  0  0
  -25.9003  -25.8065   19.0251 H   0  0  0  0  0  0
  -23.9788  -27.2805   18.9874 H   0  0  0  0  0  0
  -23.8195  -30.5549   19.3943 H   0  0  0  0  0  0
  -22.7916  -29.2275   19.8400 H   0  0  0  0  0  0
  -25.1315  -36.1839   25.0804 H   0  0  0  0  0  0
  -21.0011  -28.3316   24.1352 H   0  0  0  0  0  0
  -20.5677  -26.2337   23.3627 H   0  0  0  0  0  0
  -21.6654  -26.7422   22.1208 H   0  0  0  0  0  0
  -19.6923  -25.6283   21.1259 H   0  0  0  0  0  0
  -19.6698  -27.3175   20.6732 H   0  0  0  0  0  0
  -17.4212  -26.6675   21.4029 H   0  0  0  0  0  0
  -18.0344  -26.0082   22.9029 H   0  0  0  0  0  0
  -19.7955  -30.7297   24.2229 H   0  0  0  0  0  0
  -17.5028  -31.6269   24.5165 H   0  0  0  0  0  0
  -15.5366  -30.2976   23.7674 H   0  0  0  0  0  0
  -15.8691  -28.0811   22.7087 H   0  0  0  0  0  0
  -24.5886  -30.7106   25.7716 H   0  0  0  0  0  0
  -24.8889  -32.2950   26.4754 H   0  0  0  0  0  0
  -25.7976  -30.8978   27.0217 H   0  0  0  0  0  0
  -26.3036  -29.6660   24.1315 H   0  0  0  0  0  0
  -27.3994  -29.7268   25.4911 H   0  0  0  0  0  0
  -27.8951  -30.4180   23.9661 H   0  0  0  0  0  0
  -27.2630  -33.3664   26.2003 H   0  0  0  0  0  0
  -28.3895  -32.6864   25.0353 H   0  0  0  0  0  0
  -28.0675  -31.8516   26.5475 H   0  0  0  0  0  0
  -28.2579  -38.0087   24.7514 H   0  0  0  0  0  0
  -28.1082  -36.2615   24.6286 H   0  0  0  0  0  0
  -27.2292  -37.1419   25.8867 H   0  0  0  0  0  0
  -20.9486  -29.8746   21.6764 H   0  0  0  0  0  0
  -26.0146  -38.2802   24.1415 H   0  0  0  0  0  0
  -29.8948  -16.7521   22.5632 H   0  0  0  0  0  0
  -29.3219  -19.3142   18.4054 H   0  0  0  0  0  0
  -26.9944  -21.7040   20.1459 H   0  0  0  0  0  0
  -27.3084  -21.4897   21.8317 H   0  0  0  0  0  0
  -30.5726  -21.9020   19.1240 H   0  0  0  0  0  0
  -28.9518  -21.9546   18.5158 H   0  0  0  0  0  0
  -28.2721  -23.7851   22.0471 H   0  0  0  0  0  0
  -26.6636  -23.8569   21.4177 H   0  0  0  0  0  0
  -29.9340  -24.2658   18.7272 H   0  0  0  0  0  0
  -30.2631  -24.0228   20.4058 H   0  0  0  0  0  0
  -29.7602  -21.4954   21.4041 H   0  0  0  0  0  0
  -27.5212  -24.4143   19.1471 H   0  0  0  0  0  0
  -29.3085  -18.5730   23.8375 H   0  0  0  0  0  0
  -28.4051  -19.9073   23.1421 H   0  0  0  0  0  0
  -30.1696  -19.9854   23.2337 H   0  0  0  0  0  0
  -29.9403  -16.7228   16.0122 H   0  0  0  0  0  0
  -30.5039  -18.1929   16.7917 H   0  0  0  0  0  0
  -28.7648  -17.8093   16.7386 H   0  0  0  0  0  0
  1 25  1  0  0  0
  1 30  2  0  0  0
  1 73  1  0  0  0
  2  3  1  0  0  0
  2 25  1  0  0  0
  2 86  1  0  0  0
  2 87  1  0  0  0
  3  4  1  0  0  0
  3 88  1  0  0  0
  3 89  1  0  0  0
  4  5  1  0  0  0
  4 90  1  0  0  0
  4 91  1  0  0  0
  5  6  1  0  0  0
  5 26  1  0  0  0
  5 92  1  0  0  0
  6 25  1  0  0  0
  6 93  1  0  0  0
  6 94  1  0  0  0
  7  8  2  0  0  0
  7 26  1  0  0  0
  7 29  1  0  0  0
  8  9  1  0  0  0
  8 22  1  0  0  0
  9 10  1  0  0  0
  9 27  2  0  0  0
 10 11  2  0  0  0
 10 15  1  0  0  0
 11 12  1  0  0  0
 11 95  1  0  0  0
 12 13  2  0  0  0
 12 96  1  0  0  0
 13 14  1  0  0  0
 13 31  1  0  0  0
 14 15  2  0  0  0
 14 97  1  0  0  0
 15 98  1  0  0  0
 16 17  2  0  0  0
 16 21  1  0  0  0
 16 31  1  0  0  0
 17 18  1  0  0  0
 17 99  1  0  0  0
 18 19  2  0  0  0
 18100  1  0  0  0
 19 20  1  0  0  0
 19 24  1  0  0  0
 20 21  2  0  0  0
 20101  1  0  0  0
 21 23  1  0  0  0
 22 28  1  0  0  0
 22 32  2  0  0  0
 26 27  1  0  0  0
 28102  1  0  0  0
 28103  1  0  0  0
 29104  1  0  0  0
 29105  1  0  0  0
 33 34  1  0  0  0
 33 66  1  0  0  0
 33 70  2  0  0  0
 34 36  1  0  0  0
 34 59  1  0  0  0
 34106  1  0  0  0
 35 44  2  0  0  0
 35 45  1  0  0  0
 35 68  1  0  0  0
 36 56  1  0  0  0
 36107  1  0  0  0
 37 39  1  0  0  0
 37 47  1  0  0  0
 37 66  1  0  0  0
 37108  1  0  0  0
 38 43  2  0  0  0
 38 46  1  0  0  0
 38 47  1  0  0  0
 39 64  1  0  0  0
 39 67  2  0  0  0
 40 52  1  0  0  0
 40 53  2  0  0  0
 40 58  1  0  0  0
 41109  1  0  0  0
 41110  1  0  0  0
 41111  1  0  0  0
 41 48  1  0  0  0
 42 43  1  0  0  0
 42 66  1  0  0  0
 42112  1  0  0  0
 42113  1  0  0  0
 43 44  1  0  0  0
 44114  1  0  0  0
 45 46  2  0  0  0
 45115  1  0  0  0
 46116  1  0  0  0
 47117  1  0  0  0
 47118  1  0  0  0
 48 56  1  0  0  0
 48 65  1  0  0  0
 48119  1  0  0  0
 49 50  1  0  0  0
 49 53  1  0  0  0
 49 64  1  0  0  0
 49120  1  0  0  0
 50 51  1  0  0  0
 50121  1  0  0  0
 50122  1  0  0  0
 51 52  1  0  0  0
 51123  1  0  0  0
 51124  1  0  0  0
 52125  1  0  0  0
 52126  1  0  0  0
 53 54  1  0  0  0
 54 55  2  0  0  0
 54127  1  0  0  0
 55 57  1  0  0  0
 55128  1  0  0  0
 56 69  2  0  0  0
 57 58  2  0  0  0
 57129  1  0  0  0
 58130  1  0  0  0
 59 60  1  0  0  0
 59 61  1  0  0  0
 59 62  1  0  0  0
 60131  1  0  0  0
 60132  1  0  0  0
 60133  1  0  0  0
 61134  1  0  0  0
 61135  1  0  0  0
 61136  1  0  0  0
 62137  1  0  0  0
 62138  1  0  0  0
 62139  1  0  0  0
 63 65  1  0  0  0
 63140  1  0  0  0
 63141  1  0  0  0
 63142  1  0  0  0
 64143  1  0  0  0
 65144  1  0  0  0
 68 82  1  0  0  0
 71 73  2  0  0  0
 71 75  1  0  0  0
 71145  1  0  0  0
 72 74  1  0  0  0
 72 76  2  0  0  0
 72146  1  0  0  0
 73 76  1  0  0  0
 74 75  2  0  0  0
 74 81  1  0  0  0
 75 83  1  0  0  0
 76 85  1  0  0  0
 77 79  1  0  0  0
 77 81  1  0  0  0
 77147  1  0  0  0
 77148  1  0  0  0
 78 80  1  0  0  0
 78 81  1  0  0  0
 78149  1  0  0  0
 78150  1  0  0  0
 79 82  1  0  0  0
 79151  1  0  0  0
 79152  1  0  0  0
 80 82  1  0  0  0
 80153  1  0  0  0
 80154  1  0  0  0
 81155  1  0  0  0
 82156  1  0  0  0
 83157  1  0  0  0
 83158  1  0  0  0
 83159  1  0  0  0
 84 85  1  0  0  0
 84160  1  0  0  0
 84161  1  0  0  0
 84162  1  0  0  0
M  ISO  4   1 100  68 101  73 100  82 101
M  END
> <chiral flag>
0

> <version>
0

> <s_m_source_file>
/data/baiqing/PycharmProjects/Reinvent-master-3.2/result/LINK_invent/BTK/process_docking_weight1_custom_sum_contain_oxygen_bond_distance_aromatic_linkinvent_7_9_3/rearranged_h_0140.sdf

> <i_m_source_file_index>
2

> <r_mmod_Potential_Energy-OPLS-2005>
672.225708007812

> <r_mmod_Stretch_Energy-OPLS-2005>
259.020111083984

> <r_mmod_Bend_Energy-OPLS-2005>
301.575408935547

> <r_mmod_Torsional_Energy-OPLS-2005>
237.493789672852

> <r_mmod_Improper_Torsional_Energy-OPLS-2005>
6.82287168502808

> <r_mmod_Van_der_Waal_Energy-OPLS-2005>
132.763397216797

> <r_mmod_Electrostatic_Energy-OPLS-2005>
-297.727264404297

> <r_mmod_Solvation_Energy-OPLS-2005>
-189.035232543945

> <b_mmod_Minimization_Converged-OPLS-2005>
0

> <r_mmod_RMS_Derivative-OPLS-2005>
0.326869815587997

$$$$
2
                    3D
 Structure written by MMmdl.
161170  0  0  1  0            999 V2000
  -30.5499  -14.9767   20.4137 C   0  0  0  0  0  0
  -30.4356  -12.6141   19.4952 C   0  0  0  0  0  0
  -29.5215  -12.5424   18.2507 C   0  0  0  0  0  0
  -28.0532  -12.3339   18.6661 C   0  0  0  0  0  0
  -27.6274  -13.2572   19.8361 C   0  0  2  0  0  0
  -28.6697  -13.3093   20.9692 C   0  0  0  0  0  0
  -25.2480  -13.8223   20.5763 C   0  0  0  0  0  0
  -24.1793  -13.0460   20.9233 C   0  0  0  0  0  0
  -24.6402  -11.6928   20.8774 C   0  0  0  0  0  0
  -23.9069  -10.4309   21.0430 C   0  0  0  0  0  0
  -24.3623   -9.4217   21.9199 C   0  0  0  0  0  0
  -23.6311   -8.2251   22.0770 C   0  0  0  0  0  0
  -22.4277   -8.0304   21.3555 C   0  0  0  0  0  0
  -21.9937   -9.0263   20.4638 C   0  0  0  0  0  0
  -22.7258  -10.2149   20.3061 C   0  0  0  0  0  0
  -21.6872   -6.0753   22.5283 C   0  0  0  0  0  0
  -21.4019   -6.5648   23.8208 C   0  0  0  0  0  0
  -21.3658   -5.6795   24.9174 C   0  0  0  0  0  0
  -21.6073   -4.3072   24.7220 C   0  0  0  0  0  0
  -21.8830   -3.8171   23.4325 C   0  0  0  0  0  0
  -21.9206   -4.6980   22.3392 C   0  0  0  0  0  0
  -22.7819  -13.5210   21.1902 C   0  0  0  0  0  0
  -22.1698   -4.2197   21.0967 F   0  0  0  0  0  0
  -21.5615   -3.4525   25.7704 F   0  0  0  0  0  0
  -29.9354  -13.7263   20.3524 N   0  0  0  0  0  0
  -26.2890  -12.9469   20.3245 N   0  0  0  0  0  0
  -25.9336  -11.6594   20.5720 N   0  0  0  0  0  0
  -22.0503  -12.8167   22.0421 N   0  0  0  0  0  0
  -25.4187  -15.1948   20.4213 N   0  0  0  0  0  0
  -31.7769  -14.9958   20.2481 O   0  0  0  0  0  0
  -21.6665   -6.8887   21.4235 O   0  0  0  0  0  0
  -22.3491  -14.5531   20.6757 O   0  0  0  0  0  0
  -24.6448  -31.8374   23.1852 C   0  0  0  0  0  0
  -25.9190  -32.4673   23.8273 C   0  0  1  0  0  0
  -27.2352  -27.1139   20.1604 C   0  0  0  0  0  0
  -25.5910  -33.8476   24.2179 N   0  0  0  0  0  0
  -23.4538  -30.4538   21.5263 C   0  0  2  0  0  0
  -24.9123  -28.8714   20.1129 C   0  0  0  0  0  0
  -22.7564  -29.4529   22.4795 C   0  0  0  0  0  0
  -18.0312  -28.1396   22.8444 C   0  0  0  0  0  0
  -24.1488  -36.7253   23.2634 C   0  0  0  0  0  0
  -26.0097  -30.7042   21.3875 C   0  0  0  0  0  0
  -26.0872  -29.3116   20.7348 C   0  0  0  0  0  0
  -27.2485  -28.4484   20.7411 C   0  0  0  0  0  0
  -26.0384  -26.7843   19.4875 C   0  0  0  0  0  0
  -24.8998  -27.6218   19.4741 C   0  0  0  0  0  0
  -23.6862  -29.7692   20.1510 C   0  0  0  0  0  0
  -25.4115  -36.3023   24.0322 C   0  0  1  0  0  0
  -20.5913  -28.3741   23.1194 C   0  0  2  0  0  0
  -20.6776  -26.9437   22.5378 C   0  0  0  0  0  0
  -19.5771  -26.6360   21.5180 C   0  0  0  0  0  0
  -18.1951  -26.7938   22.1578 C   0  0  0  0  0  0
  -19.1558  -28.8892   23.2814 C   0  0  0  0  0  0
  -18.9469  -30.1469   23.8863 C   0  0  0  0  0  0
  -17.6470  -30.6591   24.0579 C   0  0  0  0  0  0
  -25.9051  -34.9403   23.5057 C   0  0  0  0  0  0
  -16.5369  -29.9076   23.6346 C   0  0  0  0  0  0
  -16.7302  -28.6493   23.0362 C   0  0  0  0  0  0
  -26.4539  -31.6522   25.0692 C   0  0  0  0  0  0
  -25.3755  -31.3711   26.1393 C   0  0  0  0  0  0
  -27.0393  -30.2910   24.6263 C   0  0  0  0  0  0
  -27.6043  -32.4299   25.7513 C   0  0  0  0  0  0
  -27.5598  -37.1778   24.8463 C   0  0  0  0  0  0
  -21.4249  -29.3077   22.3563 N   0  0  0  0  0  0
  -26.4286  -37.3737   23.9423 N   0  0  0  0  0  0
  -24.7234  -31.0210   22.0894 N   0  0  0  0  0  0
  -23.4197  -28.8084   23.2955 O   0  0  0  0  0  0
  -28.2839  -26.1187   20.2528 O   0  0  0  0  0  0
  -26.5637  -34.8929   22.4637 O   0  0  0  0  0  0
  -23.5545  -32.1208   23.7074 O   0  0  0  0  0  0
  -30.0991  -16.6355   23.5900 C   0  0  0  0  0  0
  -30.0379  -18.1426   23.7177 C   0  0  0  0  0  0
  -29.5508  -18.3109   18.9032 C   0  0  0  0  0  0
  -29.5307  -16.7348   18.9569 C   0  0  0  0  0  0
  -29.3839  -17.4478   22.5353 C   0  0  0  0  0  0
  -29.9091  -17.5519   21.1016 C   0  0  2  0  0  0
  -29.2066  -18.8329   20.3056 C   0  0  1  0  0  0
  -28.6837  -21.6268   20.0581 C   0  0  0  0  0  0
  -28.0216  -24.5838   20.0637 C   0  0  0  0  0  0
  -28.9553  -23.2369   20.5366 C   0  0  1  0  0  0
  -29.7971  -16.2016   20.3237 N   0  0  0  0  0  0
  -29.4972  -20.3776   20.6234 N   0  3  0  0  0  0
  -28.8679  -23.1751   21.9542 O   0  0  0  0  0  0
  -31.4703  -12.7698   19.1842 H   0  0  0  0  0  0
  -30.4299  -11.6726   20.0470 H   0  0  0  0  0  0
  -29.8451  -11.7448   17.5796 H   0  0  0  0  0  0
  -29.6093  -13.4716   17.6866 H   0  0  0  0  0  0
  -27.9415  -11.2903   18.9636 H   0  0  0  0  0  0
  -27.3920  -12.4874   17.8110 H   0  0  0  0  0  0
  -27.5789  -14.2564   19.4065 H   0  0  0  0  0  0
  -28.7689  -12.3436   21.4642 H   0  0  0  0  0  0
  -28.3680  -14.0263   21.7367 H   0  0  0  0  0  0
  -25.2780   -9.5723   22.4736 H   0  0  0  0  0  0
  -24.0079   -7.4644   22.7452 H   0  0  0  0  0  0
  -21.0922   -8.8748   19.8881 H   0  0  0  0  0  0
  -22.3749  -10.9680   19.6150 H   0  0  0  0  0  0
  -21.2020   -7.6156   23.9720 H   0  0  0  0  0  0
  -21.1473   -6.0526   25.9074 H   0  0  0  0  0  0
  -22.0617   -2.7642   23.2799 H   0  0  0  0  0  0
  -22.4152  -11.9806   22.4751 H   0  0  0  0  0  0
  -21.1087  -13.1141   22.2587 H   0  0  0  0  0  0
  -24.6522  -15.8506   20.5188 H   0  0  0  0  0  0
  -26.2695  -15.6271   20.0856 H   0  0  0  0  0  0
  -26.7246  -32.5300   23.1001 H   0  0  0  0  0  0
  -25.0141  -33.9601   25.0387 H   0  0  0  0  0  0
  -22.7603  -31.2811   21.3629 H   0  0  0  0  0  0
  -23.3770  -35.9558   23.3240 H   0  0  0  0  0  0
  -24.3583  -36.8942   22.2057 H   0  0  0  0  0  0
  -23.7214  -37.6420   23.6709 H   0  0  0  0  0  0
  -26.1562  -31.4535   20.6088 H   0  0  0  0  0  0
  -26.8819  -30.7699   22.0256 H   0  0  0  0  0  0
  -28.1392  -28.7765   21.2572 H   0  0  0  0  0  0
  -25.9601  -25.8297   18.9872 H   0  0  0  0  0  0
  -24.0028  -27.2798   18.9786 H   0  0  0  0  0  0
  -23.8326  -30.5349   19.3895 H   0  0  0  0  0  0
  -22.8043  -29.2015   19.8422 H   0  0  0  0  0  0
  -25.1313  -36.1861   25.0818 H   0  0  0  0  0  0
  -21.0021  -28.3345   24.1315 H   0  0  0  0  0  0
  -20.5587  -26.2390   23.3610 H   0  0  0  0  0  0
  -21.6658  -26.7395   22.1251 H   0  0  0  0  0  0
  -19.6934  -25.6249   21.1253 H   0  0  0  0  0  0
  -19.6718  -27.3138   20.6687 H   0  0  0  0  0  0
  -17.4219  -26.6688   21.3984 H   0  0  0  0  0  0
  -18.0371  -26.0084   22.8974 H   0  0  0  0  0  0
  -19.7949  -30.7288   24.2205 H   0  0  0  0  0  0
  -17.5038  -31.6282   24.5156 H   0  0  0  0  0  0
  -15.5367  -30.2982   23.7662 H   0  0  0  0  0  0
  -15.8702  -28.0811   22.7078 H   0  0  0  0  0  0
  -24.5991  -30.6972   25.7769 H   0  0  0  0  0  0
  -24.8871  -32.2876   26.4695 H   0  0  0  0  0  0
  -25.8061  -30.9013   27.0240 H   0  0  0  0  0  0
  -26.3002  -29.6621   24.1262 H   0  0  0  0  0  0
  -27.3996  -29.7215   25.4840 H   0  0  0  0  0  0
  -27.8945  -30.4122   23.9610 H   0  0  0  0  0  0
  -27.2587  -33.3597   26.2051 H   0  0  0  0  0  0
  -28.3892  -32.6821   25.0383 H   0  0  0  0  0  0
  -28.0669  -31.8438   26.5456 H   0  0  0  0  0  0
  -28.2562  -38.0136   24.7563 H   0  0  0  0  0  0
  -28.1151  -36.2648   24.6214 H   0  0  0  0  0  0
  -27.2332  -37.1371   25.8876 H   0  0  0  0  0  0
  -20.9435  -29.8832   21.6797 H   0  0  0  0  0  0
  -26.0150  -38.2805   24.1434 H   0  0  0  0  0  0
  -29.4757  -16.0528   24.2681 H   0  0  0  0  0  0
  -31.0662  -16.1951   23.3530 H   0  0  0  0  0  0
  -30.9642  -18.6945   23.5595 H   0  0  0  0  0  0
  -29.3947  -18.5335   24.5078 H   0  0  0  0  0  0
  -28.8684  -18.6937   18.1401 H   0  0  0  0  0  0
  -30.5503  -18.6416   18.6140 H   0  0  0  0  0  0
  -30.2422  -16.3433   18.2246 H   0  0  0  0  0  0
  -28.5526  -16.3759   18.6351 H   0  0  0  0  0  0
  -28.2979  -17.3884   22.5839 H   0  0  0  0  0  0
  -30.9813  -17.7477   21.1673 H   0  0  0  0  0  0
  -28.1279  -18.7188   20.4286 H   0  0  0  0  0  0
  -28.7902  -21.5967   18.9733 H   0  0  0  0  0  0
  -27.6269  -21.4209   20.2348 H   0  0  0  0  0  0
  -27.0227  -24.3977   20.4611 H   0  0  0  0  0  0
  -27.9154  -24.4770   18.9835 H   0  0  0  0  0  0
  -29.9912  -23.4690   20.2793 H   0  0  0  0  0  0
  -30.4689  -20.5511   20.4221 H   0  0  0  0  0  0
  -29.4160  -20.4759   21.6236 H   0  0  0  0  0  0
  -29.1262  -24.0260   22.3027 H   0  0  0  0  0  0
  1 25  1  0  0  0
  1 30  2  0  0  0
  1 81  1  0  0  0
  2  3  1  0  0  0
  2 25  1  0  0  0
  2 84  1  0  0  0
  2 85  1  0  0  0
  3  4  1  0  0  0
  3 86  1  0  0  0
  3 87  1  0  0  0
  4  5  1  0  0  0
  4 88  1  0  0  0
  4 89  1  0  0  0
  5  6  1  0  0  0
  5 26  1  0  0  0
  5 90  1  0  0  0
  6 25  1  0  0  0
  6 91  1  0  0  0
  6 92  1  0  0  0
  7  8  2  0  0  0
  7 26  1  0  0  0
  7 29  1  0  0  0
  8  9  1  0  0  0
  8 22  1  0  0  0
  9 10  1  0  0  0
  9 27  2  0  0  0
 10 11  2  0  0  0
 10 15  1  0  0  0
 11 12  1  0  0  0
 11 93  1  0  0  0
 12 13  2  0  0  0
 12 94  1  0  0  0
 13 14  1  0  0  0
 13 31  1  0  0  0
 14 15  2  0  0  0
 14 95  1  0  0  0
 15 96  1  0  0  0
 16 17  2  0  0  0
 16 21  1  0  0  0
 16 31  1  0  0  0
 17 18  1  0  0  0
 17 97  1  0  0  0
 18 19  2  0  0  0
 18 98  1  0  0  0
 19 20  1  0  0  0
 19 24  1  0  0  0
 20 21  2  0  0  0
 20 99  1  0  0  0
 21 23  1  0  0  0
 22 28  1  0  0  0
 22 32  2  0  0  0
 26 27  1  0  0  0
 28100  1  0  0  0
 28101  1  0  0  0
 29102  1  0  0  0
 29103  1  0  0  0
 33 34  1  0  0  0
 33 66  1  0  0  0
 33 70  2  0  0  0
 34 36  1  0  0  0
 34 59  1  0  0  0
 34104  1  0  0  0
 35 44  2  0  0  0
 35 45  1  0  0  0
 35 68  1  0  0  0
 36 56  1  0  0  0
 36105  1  0  0  0
 37 39  1  0  0  0
 37 47  1  0  0  0
 37 66  1  0  0  0
 37106  1  0  0  0
 38 43  2  0  0  0
 38 46  1  0  0  0
 38 47  1  0  0  0
 39 64  1  0  0  0
 39 67  2  0  0  0
 40 52  1  0  0  0
 40 53  2  0  0  0
 40 58  1  0  0  0
 41107  1  0  0  0
 41108  1  0  0  0
 41109  1  0  0  0
 41 48  1  0  0  0
 42 43  1  0  0  0
 42 66  1  0  0  0
 42110  1  0  0  0
 42111  1  0  0  0
 43 44  1  0  0  0
 44112  1  0  0  0
 45 46  2  0  0  0
 45113  1  0  0  0
 46114  1  0  0  0
 47115  1  0  0  0
 47116  1  0  0  0
 48 56  1  0  0  0
 48 65  1  0  0  0
 48117  1  0  0  0
 49 50  1  0  0  0
 49 53  1  0  0  0
 49 64  1  0  0  0
 49118  1  0  0  0
 50 51  1  0  0  0
 50119  1  0  0  0
 50120  1  0  0  0
 51 52  1  0  0  0
 51121  1  0  0  0
 51122  1  0  0  0
 52123  1  0  0  0
 52124  1  0  0  0
 53 54  1  0  0  0
 54 55  2  0  0  0
 54125  1  0  0  0
 55 57  1  0  0  0
 55126  1  0  0  0
 56 69  2  0  0  0
 57 58  2  0  0  0
 57127  1  0  0  0
 58128  1  0  0  0
 59 60  1  0  0  0
 59 61  1  0  0  0
 59 62  1  0  0  0
 60129  1  0  0  0
 60130  1  0  0  0
 60131  1  0  0  0
 61132  1  0  0  0
 61133  1  0  0  0
 61134  1  0  0  0
 62135  1  0  0  0
 62136  1  0  0  0
 62137  1  0  0  0
 63 65  1  0  0  0
 63138  1  0  0  0
 63139  1  0  0  0
 63140  1  0  0  0
 64141  1  0  0  0
 65142  1  0  0  0
 68 79  1  0  0  0
 71 72  1  0  0  0
 71143  1  0  0  0
 71144  1  0  0  0
 71 75  1  0  0  0
 72 75  1  0  0  0
 72145  1  0  0  0
 72146  1  0  0  0
 73 74  1  0  0  0
 73 77  1  0  0  0
 73147  1  0  0  0
 73148  1  0  0  0
 74 81  1  0  0  0
 74149  1  0  0  0
 74150  1  0  0  0
 75 76  1  0  0  0
 75151  1  0  0  0
 76 77  1  0  0  0
 76 81  1  0  0  0
 76152  1  0  0  0
 77 82  1  0  0  0
 77153  1  0  0  0
 78 80  1  0  0  0
 78 82  1  0  0  0
 78154  1  0  0  0
 78155  1  0  0  0
 79 80  1  0  0  0
 79156  1  0  0  0
 79157  1  0  0  0
 80 83  1  0  0  0
 80158  1  0  0  0
 82159  1  0  0  0
 82160  1  0  0  0
 83161  1  0  0  0
M  CHG  1  82   1
M  ISO  4   1 100  68 101  79 101  81 100
M  END
> <chiral flag>
0

> <version>
0

> <s_m_source_file>
/data/baiqing/PycharmProjects/Reinvent-master-3.2/result/LINK_invent/BTK/process_docking_weight1_custom_sum_contain_oxygen_bond_distance_aromatic_linkinvent_7_9_3/rearranged_h_0140.sdf

> <i_m_source_file_index>
3

> <r_mmod_Potential_Energy-OPLS-2005>
607.440246582031

> <r_mmod_Stretch_Energy-OPLS-2005>
284.824279785156

> <r_mmod_Bend_Energy-OPLS-2005>
301.368316650391

> <r_mmod_Torsional_Energy-OPLS-2005>
413.578979492188

> <r_mmod_Improper_Torsional_Energy-OPLS-2005>
12.5913534164429

> <r_mmod_Van_der_Waal_Energy-OPLS-2005>
96.4563446044922

> <r_mmod_Electrostatic_Energy-OPLS-2005>
-263.470733642578

> <r_mmod_Solvation_Energy-OPLS-2005>
-454.82275390625

> <b_mmod_Minimization_Converged-OPLS-2005>
0

> <r_mmod_RMS_Derivative-OPLS-2005>
4.85428094863892

$$$$
3
                    3D
 Structure written by MMmdl.
165175  0  0  1  0            999 V2000
  -30.4676  -15.2126   20.4076 C   0  0  0  0  0  0
  -30.4318  -12.7594   19.5713 C   0  0  0  0  0  0
  -29.5459  -12.5628   18.3171 C   0  0  0  0  0  0
  -28.0812  -12.3153   18.7186 C   0  0  0  0  0  0
  -27.6126  -13.2831   19.8362 C   0  0  2  0  0  0
  -28.6349  -13.4368   20.9834 C   0  0  0  0  0  0
  -25.2346  -13.8294   20.5755 C   0  0  0  0  0  0
  -24.1704  -13.0462   20.9255 C   0  0  0  0  0  0
  -24.6375  -11.6962   20.8746 C   0  0  0  0  0  0
  -23.9084  -10.4299   21.0395 C   0  0  0  0  0  0
  -24.3624   -9.4213   21.9177 C   0  0  0  0  0  0
  -23.6296   -8.2250   22.0752 C   0  0  0  0  0  0
  -22.4278   -8.0286   21.3544 C   0  0  0  0  0  0
  -21.9918   -9.0262   20.4640 C   0  0  0  0  0  0
  -22.7254  -10.2136   20.3052 C   0  0  0  0  0  0
  -21.6849   -6.0727   22.5273 C   0  0  0  0  0  0
  -21.4022   -6.5634   23.8209 C   0  0  0  0  0  0
  -21.3672   -5.6790   24.9170 C   0  0  0  0  0  0
  -21.6049   -4.3053   24.7218 C   0  0  0  0  0  0
  -21.8820   -3.8137   23.4342 C   0  0  0  0  0  0
  -21.9193   -4.6952   22.3394 C   0  0  0  0  0  0
  -22.7716  -13.5192   21.1915 C   0  0  0  0  0  0
  -22.1654   -4.2147   21.0966 F   0  0  0  0  0  0
  -21.5636   -3.4531   25.7726 F   0  0  0  0  0  0
  -29.8907  -13.9130   20.3834 N   0  0  0  0  0  0
  -26.2790  -12.9586   20.3245 N   0  0  0  0  0  0
  -25.9313  -11.6679   20.5720 N   0  0  0  0  0  0
  -22.0377  -12.8168   22.0473 N   0  0  0  0  0  0
  -25.3990  -15.2035   20.4243 N   0  0  0  0  0  0
  -31.6518  -15.2193   20.0391 O   0  0  0  0  0  0
  -21.6652   -6.8875   21.4239 O   0  0  0  0  0  0
  -22.3376  -14.5487   20.6752 O   0  0  0  0  0  0
  -24.6606  -31.8288   23.1675 C   0  0  0  0  0  0
  -25.9309  -32.4596   23.8134 C   0  0  1  0  0  0
  -27.2107  -26.9468   20.1912 C   0  0  0  0  0  0
  -25.5984  -33.8416   24.2043 N   0  0  0  0  0  0
  -23.4708  -30.4359   21.5208 C   0  0  2  0  0  0
  -24.9204  -28.8203   20.1161 C   0  0  0  0  0  0
  -22.7632  -29.4474   22.4838 C   0  0  0  0  0  0
  -18.0292  -28.1447   22.8468 C   0  0  0  0  0  0
  -24.1494  -36.7181   23.2628 C   0  0  0  0  0  0
  -26.0369  -30.6368   21.3950 C   0  0  0  0  0  0
  -26.1011  -29.2252   20.7491 C   0  0  0  0  0  0
  -27.2407  -28.3082   20.7615 C   0  0  0  0  0  0
  -26.0019  -26.6802   19.5148 C   0  0  0  0  0  0
  -24.8931  -27.5668   19.4808 C   0  0  0  0  0  0
  -23.7039  -29.7441   20.1498 C   0  0  0  0  0  0
  -25.4137  -36.2964   24.0280 C   0  0  1  0  0  0
  -20.5914  -28.3778   23.1218 C   0  0  2  0  0  0
  -20.6789  -26.9465   22.5424 C   0  0  0  0  0  0
  -19.5757  -26.6424   21.5236 C   0  0  0  0  0  0
  -18.1934  -26.7972   22.1635 C   0  0  0  0  0  0
  -19.1560  -28.8926   23.2818 C   0  0  0  0  0  0
  -18.9471  -30.1517   23.8860 C   0  0  0  0  0  0
  -17.6474  -30.6628   24.0570 C   0  0  0  0  0  0
  -25.9123  -34.9356   23.4988 C   0  0  0  0  0  0
  -16.5355  -29.9126   23.6373 C   0  0  0  0  0  0
  -16.7279  -28.6550   23.0377 C   0  0  0  0  0  0
  -26.4573  -31.6501   25.0633 C   0  0  0  0  0  0
  -25.3691  -31.3779   26.1271 C   0  0  0  0  0  0
  -27.0427  -30.2848   24.6339 C   0  0  0  0  0  0
  -27.6074  -32.4269   25.7467 C   0  0  0  0  0  0
  -27.5578  -37.1727   24.8454 C   0  0  0  0  0  0
  -21.4317  -29.3034   22.3540 N   0  0  0  0  0  0
  -26.4276  -37.3706   23.9415 N   0  0  0  0  0  0
  -24.7443  -30.9950   22.0802 N   0  0  0  0  0  0
  -23.4187  -28.8090   23.3111 O   0  0  0  0  0  0
  -28.2719  -25.9088   20.2070 O   0  0  0  0  0  0
  -26.5768  -34.8900   22.4597 O   0  0  0  0  0  0
  -23.5694  -32.1265   23.6784 O   0  0  0  0  0  0
  -28.2796  -22.0301   21.4729 C   0  0  0  0  0  0
  -29.1917  -22.0142   19.3719 C   0  0  0  0  0  0
  -28.0016  -23.4882   21.3672 C   0  0  0  0  0  0
  -28.9100  -23.4782   19.2679 C   0  0  0  0  0  0
  -28.9172  -21.1360   20.5059 C   0  0  0  0  0  0
  -28.2951  -24.3739   20.2506 C   0  0  0  0  0  0
  -33.8949  -20.6992   21.0289 C   0  0  0  0  0  0
  -33.9383  -21.6591   22.1942 C   0  0  0  0  0  0
  -30.9462  -18.0866   22.4021 C   0  0  0  0  0  0
  -29.9580  -16.8885   22.1649 C   0  0  0  0  0  0
  -29.3809  -17.9187   20.0527 C   0  0  0  0  0  0
  -29.3970  -19.4835   20.8620 C   0  0  1  0  0  0
  -32.9872  -20.4829   22.2200 C   0  0  0  0  0  0
  -30.8182  -19.3538   21.4773 C   0  0  1  0  0  0
  -31.4820  -20.6406   22.0468 C   0  0  1  0  0  0
  -29.7834  -16.4845   20.7585 N   0  0  0  0  0  0
  -30.9172  -21.0131   23.2904 O   0  0  0  0  0  0
  -31.4641  -12.9260   19.2621 H   0  0  0  0  0  0
  -30.4609  -11.8495   20.1729 H   0  0  0  0  0  0
  -29.9161  -11.7265   17.7235 H   0  0  0  0  0  0
  -29.6157  -13.4489   17.6848 H   0  0  0  0  0  0
  -28.0043  -11.2852   19.0709 H   0  0  0  0  0  0
  -27.4302  -12.3908   17.8464 H   0  0  0  0  0  0
  -27.5391  -14.2594   19.3553 H   0  0  0  0  0  0
  -28.7666  -12.5031   21.5306 H   0  0  0  0  0  0
  -28.2758  -14.1703   21.7075 H   0  0  0  0  0  0
  -25.2760   -9.5696   22.4760 H   0  0  0  0  0  0
  -24.0003   -7.4641   22.7476 H   0  0  0  0  0  0
  -21.0848   -8.8774   19.8938 H   0  0  0  0  0  0
  -22.3703  -10.9672   19.6160 H   0  0  0  0  0  0
  -21.2021   -7.6143   23.9717 H   0  0  0  0  0  0
  -21.1502   -6.0511   25.9079 H   0  0  0  0  0  0
  -22.0592   -2.7599   23.2834 H   0  0  0  0  0  0
  -22.3994  -11.9838   22.4871 H   0  0  0  0  0  0
  -21.0995  -13.1176   22.2692 H   0  0  0  0  0  0
  -24.6364  -15.8573   20.5674 H   0  0  0  0  0  0
  -26.2555  -15.6520   20.1230 H   0  0  0  0  0  0
  -26.7369  -32.5162   23.0851 H   0  0  0  0  0  0
  -24.9986  -33.9477   25.0094 H   0  0  0  0  0  0
  -22.7807  -31.2647   21.3509 H   0  0  0  0  0  0
  -23.3790  -35.9486   23.3298 H   0  0  0  0  0  0
  -24.3551  -36.8824   22.2038 H   0  0  0  0  0  0
  -23.7230  -37.6348   23.6706 H   0  0  0  0  0  0
  -26.2152  -31.3740   20.6110 H   0  0  0  0  0  0
  -26.8976  -30.6946   22.0497 H   0  0  0  0  0  0
  -28.1433  -28.6219   21.2663 H   0  0  0  0  0  0
  -25.8884  -25.7208   19.0307 H   0  0  0  0  0  0
  -23.9955  -27.2517   18.9696 H   0  0  0  0  0  0
  -23.8414  -30.5061   19.3818 H   0  0  0  0  0  0
  -22.8140  -29.1857   19.8534 H   0  0  0  0  0  0
  -25.1340  -36.1744   25.0772 H   0  0  0  0  0  0
  -20.9992  -28.3425   24.1349 H   0  0  0  0  0  0
  -20.5696  -26.2404   23.3666 H   0  0  0  0  0  0
  -21.6654  -26.7475   22.1201 H   0  0  0  0  0  0
  -19.6929  -25.6344   21.1253 H   0  0  0  0  0  0
  -19.6699  -27.3258   20.6785 H   0  0  0  0  0  0
  -17.4198  -26.6717   21.4040 H   0  0  0  0  0  0
  -18.0321  -26.0132   22.9046 H   0  0  0  0  0  0
  -19.7950  -30.7341   24.2228 H   0  0  0  0  0  0
  -17.5031  -31.6308   24.5181 H   0  0  0  0  0  0
  -15.5362  -30.3024   23.7736 H   0  0  0  0  0  0
  -15.8667  -28.0869   22.7136 H   0  0  0  0  0  0
  -24.5915  -30.7067   25.7605 H   0  0  0  0  0  0
  -24.8828  -32.2993   26.4480 H   0  0  0  0  0  0
  -25.7899  -30.9096   27.0175 H   0  0  0  0  0  0
  -26.3073  -29.6558   24.1298 H   0  0  0  0  0  0
  -27.3911  -29.7157   25.4971 H   0  0  0  0  0  0
  -27.9055  -30.3985   23.9772 H   0  0  0  0  0  0
  -27.2639  -33.3585   26.1971 H   0  0  0  0  0  0
  -28.3956  -32.6784   25.0364 H   0  0  0  0  0  0
  -28.0680  -31.8416   26.5431 H   0  0  0  0  0  0
  -28.2558  -38.0065   24.7572 H   0  0  0  0  0  0
  -28.1114  -36.2600   24.6213 H   0  0  0  0  0  0
  -27.2296  -37.1258   25.8850 H   0  0  0  0  0  0
  -20.9615  -29.8562   21.6502 H   0  0  0  0  0  0
  -26.0128  -38.2751   24.1486 H   0  0  0  0  0  0
  -28.0287  -21.5851   22.4262 H   0  0  0  0  0  0
  -29.7001  -21.5570   18.5350 H   0  0  0  0  0  0
  -27.5777  -23.9602   22.2417 H   0  0  0  0  0  0
  -29.2446  -23.9574   18.3584 H   0  0  0  0  0  0
  -34.7325  -20.0155   20.9030 H   0  0  0  0  0  0
  -33.4445  -21.0573   20.1045 H   0  0  0  0  0  0
  -33.5152  -22.6519   22.0525 H   0  0  0  0  0  0
  -34.8273  -21.6179   22.8228 H   0  0  0  0  0  0
  -31.9683  -17.7141   22.3288 H   0  0  0  0  0  0
  -30.8397  -18.3843   23.4448 H   0  0  0  0  0  0
  -28.9739  -17.1468   22.5572 H   0  0  0  0  0  0
  -30.2722  -16.0393   22.7769 H   0  0  0  0  0  0
  -30.0005  -18.0027   19.1602 H   0  0  0  0  0  0
  -28.3721  -17.7733   19.6689 H   0  0  0  0  0  0
  -28.7148  -19.3151   21.6968 H   0  0  0  0  0  0
  -33.2781  -19.6791   22.8939 H   0  0  0  0  0  0
  -31.4461  -19.1383   20.6114 H   0  0  0  0  0  0
  -31.3319  -21.4676   21.3516 H   0  0  0  0  0  0
  -31.1129  -20.3267   23.9183 H   0  0  0  0  0  0
  1 25  1  0  0  0
  1 30  2  0  0  0
  1 86  1  0  0  0
  2  3  1  0  0  0
  2 25  1  0  0  0
  2 88  1  0  0  0
  2 89  1  0  0  0
  3  4  1  0  0  0
  3 90  1  0  0  0
  3 91  1  0  0  0
  4  5  1  0  0  0
  4 92  1  0  0  0
  4 93  1  0  0  0
  5  6  1  0  0  0
  5 26  1  0  0  0
  5 94  1  0  0  0
  6 25  1  0  0  0
  6 95  1  0  0  0
  6 96  1  0  0  0
  7  8  2  0  0  0
  7 26  1  0  0  0
  7 29  1  0  0  0
  8  9  1  0  0  0
  8 22  1  0  0  0
  9 10  1  0  0  0
  9 27  2  0  0  0
 10 11  2  0  0  0
 10 15  1  0  0  0
 11 12  1  0  0  0
 11 97  1  0  0  0
 12 13  2  0  0  0
 12 98  1  0  0  0
 13 14  1  0  0  0
 13 31  1  0  0  0
 14 15  2  0  0  0
 14 99  1  0  0  0
 15100  1  0  0  0
 16 17  2  0  0  0
 16 21  1  0  0  0
 16 31  1  0  0  0
 17 18  1  0  0  0
 17101  1  0  0  0
 18 19  2  0  0  0
 18102  1  0  0  0
 19 20  1  0  0  0
 19 24  1  0  0  0
 20 21  2  0  0  0
 20103  1  0  0  0
 21 23  1  0  0  0
 22 28  1  0  0  0
 22 32  2  0  0  0
 26 27  1  0  0  0
 28104  1  0  0  0
 28105  1  0  0  0
 29106  1  0  0  0
 29107  1  0  0  0
 33 34  1  0  0  0
 33 66  1  0  0  0
 33 70  2  0  0  0
 34 36  1  0  0  0
 34 59  1  0  0  0
 34108  1  0  0  0
 35 44  2  0  0  0
 35 45  1  0  0  0
 35 68  1  0  0  0
 36 56  1  0  0  0
 36109  1  0  0  0
 37 39  1  0  0  0
 37 47  1  0  0  0
 37 66  1  0  0  0
 37110  1  0  0  0
 38 43  2  0  0  0
 38 46  1  0  0  0
 38 47  1  0  0  0
 39 64  1  0  0  0
 39 67  2  0  0  0
 40 52  1  0  0  0
 40 53  2  0  0  0
 40 58  1  0  0  0
 41111  1  0  0  0
 41112  1  0  0  0
 41113  1  0  0  0
 41 48  1  0  0  0
 42 43  1  0  0  0
 42 66  1  0  0  0
 42114  1  0  0  0
 42115  1  0  0  0
 43 44  1  0  0  0
 44116  1  0  0  0
 45 46  2  0  0  0
 45117  1  0  0  0
 46118  1  0  0  0
 47119  1  0  0  0
 47120  1  0  0  0
 48 56  1  0  0  0
 48 65  1  0  0  0
 48121  1  0  0  0
 49 50  1  0  0  0
 49 53  1  0  0  0
 49 64  1  0  0  0
 49122  1  0  0  0
 50 51  1  0  0  0
 50123  1  0  0  0
 50124  1  0  0  0
 51 52  1  0  0  0
 51125  1  0  0  0
 51126  1  0  0  0
 52127  1  0  0  0
 52128  1  0  0  0
 53 54  1  0  0  0
 54 55  2  0  0  0
 54129  1  0  0  0
 55 57  1  0  0  0
 55130  1  0  0  0
 56 69  2  0  0  0
 57 58  2  0  0  0
 57131  1  0  0  0
 58132  1  0  0  0
 59 60  1  0  0  0
 59 61  1  0  0  0
 59 62  1  0  0  0
 60133  1  0  0  0
 60134  1  0  0  0
 60135  1  0  0  0
 61136  1  0  0  0
 61137  1  0  0  0
 61138  1  0  0  0
 62139  1  0  0  0
 62140  1  0  0  0
 62141  1  0  0  0
 63 65  1  0  0  0
 63142  1  0  0  0
 63143  1  0  0  0
 63144  1  0  0  0
 64145  1  0  0  0
 65146  1  0  0  0
 68 76  1  0  0  0
 71 73  2  0  0  0
 71 75  1  0  0  0
 71147  1  0  0  0
 72 74  1  0  0  0
 72 75  2  0  0  0
 72148  1  0  0  0
 73 76  1  0  0  0
 73149  1  0  0  0
 74 76  2  0  0  0
 74150  1  0  0  0
 75 82  1  0  0  0
 77 78  1  0  0  0
 77151  1  0  0  0
 77152  1  0  0  0
 77 83  1  0  0  0
 78 83  1  0  0  0
 78153  1  0  0  0
 78154  1  0  0  0
 79 80  1  0  0  0
 79155  1  0  0  0
 79156  1  0  0  0
 79 84  1  0  0  0
 80 86  1  0  0  0
 80157  1  0  0  0
 80158  1  0  0  0
 81 82  1  0  0  0
 81 86  1  0  0  0
 81159  1  0  0  0
 81160  1  0  0  0
 82 84  1  0  0  0
 82161  1  0  0  0
 83 85  1  0  0  0
 83162  1  0  0  0
 84 85  1  0  0  0
 84163  1  0  0  0
 85 87  1  0  0  0
 85164  1  0  0  0
 87165  1  0  0  0
M  ISO  4   1 100  68 101  76 101  86 100
M  END
> <chiral flag>
0

> <version>
0

> <s_m_source_file>
/data/baiqing/PycharmProjects/Reinvent-master-3.2/result/LINK_invent/BTK/process_docking_weight1_custom_sum_contain_oxygen_bond_distance_aromatic_linkinvent_7_9_3/rearranged_h_0140.sdf

> <i_m_source_file_index>
4

> <r_mmod_Potential_Energy-OPLS-2005>
1360.73669433594

> <r_mmod_Stretch_Energy-OPLS-2005>
472.187957763672

> <r_mmod_Bend_Energy-OPLS-2005>
458.961151123047

> <r_mmod_Torsional_Energy-OPLS-2005>
391.295227050781

> <r_mmod_Improper_Torsional_Energy-OPLS-2005>
6.6977424621582

> <r_mmod_Van_der_Waal_Energy-OPLS-2005>
131.286285400391

> <r_mmod_Electrostatic_Energy-OPLS-2005>
-293.039794921875

> <r_mmod_Solvation_Energy-OPLS-2005>
-208.796997070312

> <b_mmod_Minimization_Converged-OPLS-2005>
0

> <r_mmod_RMS_Derivative-OPLS-2005>
3.49767684936523

$$$$
4
                    3D
 Structure written by MMmdl.
175183  0  0  1  0            999 V2000
  -30.7407  -14.3778   20.6804 C   0  0  0  0  0  0
  -30.4523  -12.3131   19.3587 C   0  0  0  0  0  0
  -29.4913  -12.5082   18.1716 C   0  0  0  0  0  0
  -28.0157  -12.3715   18.5977 C   0  0  0  0  0  0
  -27.6763  -13.1849   19.8722 C   0  0  2  0  0  0
  -28.7210  -12.9060   20.9752 C   0  0  0  0  0  0
  -25.2689  -13.7942   20.5659 C   0  0  0  0  0  0
  -24.1950  -13.0281   20.9158 C   0  0  0  0  0  0
  -24.6455  -11.6759   20.8671 C   0  0  0  0  0  0
  -23.9072  -10.4195   21.0385 C   0  0  0  0  0  0
  -24.3617   -9.4112   21.9151 C   0  0  0  0  0  0
  -23.6310   -8.2132   22.0693 C   0  0  0  0  0  0
  -22.4277   -8.0182   21.3489 C   0  0  0  0  0  0
  -21.9908   -9.0160   20.4621 C   0  0  0  0  0  0
  -22.7235  -10.2035   20.3029 C   0  0  0  0  0  0
  -21.6832   -6.0710   22.5273 C   0  0  0  0  0  0
  -21.4021   -6.5612   23.8223 C   0  0  0  0  0  0
  -21.3657   -5.6761   24.9203 C   0  0  0  0  0  0
  -21.6047   -4.3034   24.7235 C   0  0  0  0  0  0
  -21.8873   -3.8126   23.4367 C   0  0  0  0  0  0
  -21.9186   -4.6950   22.3431 C   0  0  0  0  0  0
  -22.7968  -13.5120   21.1919 C   0  0  0  0  0  0
  -22.1692   -4.2162   21.1013 F   0  0  0  0  0  0
  -21.5561   -3.4517   25.7745 F   0  0  0  0  0  0
  -30.0635  -13.2265   20.4429 N   0  0  0  0  0  0
  -26.3143  -12.9136   20.3319 N   0  0  0  0  0  0
  -25.9393  -11.6307   20.5715 N   0  0  0  0  0  0
  -22.0515  -12.8027   22.0323 N   0  0  0  0  0  0
  -25.4420  -15.1625   20.4202 N   0  0  0  0  0  0
  -31.7520  -14.7249   20.0634 O   0  0  0  0  0  0
  -21.6582   -6.8849   21.4224 O   0  0  0  0  0  0
  -22.3749  -14.5538   20.6902 O   0  0  0  0  0  0
  -24.6031  -31.8733   23.2124 C   0  0  0  0  0  0
  -25.8951  -32.4864   23.8421 C   0  0  1  0  0  0
  -27.2642  -27.4947   20.1114 C   0  0  0  0  0  0
  -25.5860  -33.8689   24.2339 N   0  0  0  0  0  0
  -23.3894  -30.4879   21.5546 C   0  0  2  0  0  0
  -24.8442  -28.9569   20.1228 C   0  0  0  0  0  0
  -22.7374  -29.4642   22.5064 C   0  0  0  0  0  0
  -18.0255  -28.1401   22.8493 C   0  0  0  0  0  0
  -24.1482  -36.7326   23.2637 C   0  0  0  0  0  0
  -25.9054  -30.8608   21.3541 C   0  0  0  0  0  0
  -25.9927  -29.4943   20.7130 C   0  0  0  0  0  0
  -27.2023  -28.7770   20.7048 C   0  0  0  0  0  0
  -26.1003  -26.9620   19.5177 C   0  0  0  0  0  0
  -24.8900  -27.6837   19.5226 C   0  0  0  0  0  0
  -23.5963  -29.8073   20.1730 C   0  0  0  0  0  0
  -25.4112  -36.3162   24.0330 C   0  0  1  0  0  0
  -20.5840  -28.3633   23.1391 C   0  0  2  0  0  0
  -20.6769  -26.9382   22.5456 C   0  0  0  0  0  0
  -19.5764  -26.6383   21.5245 C   0  0  0  0  0  0
  -18.1916  -26.7951   22.1621 C   0  0  0  0  0  0
  -19.1499  -28.8834   23.2931 C   0  0  0  0  0  0
  -18.9437  -30.1460   23.8898 C   0  0  0  0  0  0
  -17.6438  -30.6600   24.0561 C   0  0  0  0  0  0
  -25.9016  -34.9521   23.5122 C   0  0  0  0  0  0
  -16.5329  -29.9092   23.6363 C   0  0  0  0  0  0
  -16.7242  -28.6529   23.0349 C   0  0  0  0  0  0
  -26.4407  -31.6680   25.0756 C   0  0  0  0  0  0
  -25.3628  -31.3831   26.1473 C   0  0  0  0  0  0
  -27.0250  -30.3133   24.6135 C   0  0  0  0  0  0
  -27.6013  -32.4400   25.7494 C   0  0  0  0  0  0
  -27.5584  -37.1820   24.8455 C   0  0  0  0  0  0
  -21.4110  -29.3002   22.3801 N   0  0  0  0  0  0
  -26.4312  -37.3832   23.9383 N   0  0  0  0  0  0
  -24.6490  -31.0878   22.0996 N   0  0  0  0  0  0
  -23.4168  -28.8188   23.3090 O   0  0  0  0  0  0
  -28.4031  -26.7216   20.0692 O   0  0  0  0  0  0
  -26.5605  -34.8945   22.4686 O   0  0  0  0  0  0
  -23.5244  -32.1473   23.7532 O   0  0  0  0  0  0
  -29.1883  -20.5259   23.4734 C   0  0  0  0  0  0
  -29.3420  -19.1662   23.1441 C   0  0  0  0  0  0
  -27.6190  -20.7694   21.6303 C   0  0  0  0  0  0
  -28.3444  -21.3340   22.6938 C   0  0  0  0  0  0
  -28.6516  -18.6012   22.0504 C   0  0  0  0  0  0
  -27.7431  -19.3972   21.3021 C   0  0  0  0  0  0
  -25.9484  -17.8480   17.7620 C   0  0  0  0  0  0
  -24.0264  -18.0961   19.4597 C   0  0  0  0  0  0
  -28.2502  -22.8239   22.9413 C   0  0  0  0  0  0
  -28.8261  -17.1190   21.7405 C   0  0  0  0  0  0
  -30.2708  -16.5685   21.8184 C   0  0  0  0  0  0
  -29.4341  -23.5513   22.2866 C   0  0  0  0  0  0
  -30.1424  -25.7373   21.3372 C   0  0  0  0  0  0
  -29.4986  -27.0601   20.9241 C   0  0  0  0  0  0
  -26.0428  -19.6226   19.6062 C   0  0  0  0  0  0
  -25.1443  -18.7952   18.6713 C   0  0  0  0  0  0
  -30.1895  -15.1286   21.6351 N   0  0  0  0  0  0
  -29.2310  -25.0102   22.2490 N   0  3  0  0  0  0
  -26.9892  -18.8064   20.3046 O   0  0  0  0  0  0
  -31.4787  -12.4855   19.0240 H   0  0  0  0  0  0
  -30.4335  -11.2827   19.7110 H   0  0  0  0  0  0
  -29.7101  -11.7717   17.3949 H   0  0  0  0  0  0
  -29.6615  -13.4877   17.7191 H   0  0  0  0  0  0
  -27.8024  -11.3147   18.7603 H   0  0  0  0  0  0
  -27.3701  -12.6771   17.7763 H   0  0  0  0  0  0
  -27.7290  -14.2428   19.6073 H   0  0  0  0  0  0
  -28.7109  -11.8545   21.2663 H   0  0  0  0  0  0
  -28.4581  -13.4498   21.8817 H   0  0  0  0  0  0
  -25.2754   -9.5557   22.4727 H   0  0  0  0  0  0
  -23.9996   -7.4530   22.7390 H   0  0  0  0  0  0
  -21.0821   -8.8695   19.8923 H   0  0  0  0  0  0
  -22.3683  -10.9561   19.6133 H   0  0  0  0  0  0
  -21.2066   -7.6132   23.9752 H   0  0  0  0  0  0
  -21.1370   -6.0474   25.9073 H   0  0  0  0  0  0
  -22.0656   -2.7569   23.2865 H   0  0  0  0  0  0
  -22.3776  -11.9248   22.4122 H   0  0  0  0  0  0
  -21.1197  -13.1182   22.2659 H   0  0  0  0  0  0
  -24.6538  -15.7919   20.5237 H   0  0  0  0  0  0
  -26.2944  -15.6312   20.1426 H   0  0  0  0  0  0
  -26.7018  -32.5629   23.1212 H   0  0  0  0  0  0
  -25.0034  -33.9902   25.0499 H   0  0  0  0  0  0
  -22.6692  -31.2957   21.4125 H   0  0  0  0  0  0
  -23.3770  -35.9637   23.3340 H   0  0  0  0  0  0
  -24.3562  -36.8912   22.2041 H   0  0  0  0  0  0
  -23.7213  -37.6530   23.6619 H   0  0  0  0  0  0
  -25.9992  -31.6212   20.5760 H   0  0  0  0  0  0
  -26.7985  -30.9302   21.9624 H   0  0  0  0  0  0
  -28.0721  -29.2404   21.1522 H   0  0  0  0  0  0
  -26.1297  -25.9820   19.0623 H   0  0  0  0  0  0
  -24.0040  -27.2602   19.0709 H   0  0  0  0  0  0
  -23.6829  -30.5725   19.4026 H   0  0  0  0  0  0
  -22.7285  -29.2051   19.8916 H   0  0  0  0  0  0
  -25.1294  -36.2050   25.0832 H   0  0  0  0  0  0
  -20.9891  -28.3178   24.1536 H   0  0  0  0  0  0
  -20.5754  -26.2196   23.3600 H   0  0  0  0  0  0
  -21.6621  -26.7522   22.1170 H   0  0  0  0  0  0
  -19.6918  -25.6295   21.1253 H   0  0  0  0  0  0
  -19.6733  -27.3211   20.6782 H   0  0  0  0  0  0
  -17.4199  -26.6718   21.3993 H   0  0  0  0  0  0
  -18.0294  -26.0109   22.9024 H   0  0  0  0  0  0
  -19.7906  -30.7294   24.2242 H   0  0  0  0  0  0
  -17.4992  -31.6283   24.5159 H   0  0  0  0  0  0
  -15.5330  -30.2976   23.7724 H   0  0  0  0  0  0
  -15.8646  -28.0848   22.7068 H   0  0  0  0  0  0
  -24.5737  -30.7294   25.7730 H   0  0  0  0  0  0
  -24.8891  -32.3037   26.4906 H   0  0  0  0  0  0
  -25.7883  -30.8925   27.0239 H   0  0  0  0  0  0
  -26.2840  -29.6938   24.1066 H   0  0  0  0  0  0
  -27.3907  -29.7346   25.4633 H   0  0  0  0  0  0
  -27.8713  -30.4489   23.9396 H   0  0  0  0  0  0
  -27.2653  -33.3676   26.2142 H   0  0  0  0  0  0
  -28.3763  -32.7025   25.0277 H   0  0  0  0  0  0
  -28.0749  -31.8500   26.5347 H   0  0  0  0  0  0
  -28.2624  -38.0099   24.7529 H   0  0  0  0  0  0
  -28.1081  -36.2650   24.6276 H   0  0  0  0  0  0
  -27.2303  -37.1440   25.8862 H   0  0  0  0  0  0
  -20.9247  -29.8646   21.6960 H   0  0  0  0  0  0
  -26.0227  -38.2922   24.1406 H   0  0  0  0  0  0
  -29.7376  -20.9505   24.3048 H   0  0  0  0  0  0
  -29.9823  -18.5545   23.7597 H   0  0  0  0  0  0
  -26.9693  -21.4246   21.0723 H   0  0  0  0  0  0
  -25.3260  -17.4451   16.9620 H   0  0  0  0  0  0
  -26.3651  -17.0088   18.3198 H   0  0  0  0  0  0
  -26.7788  -18.3778   17.2893 H   0  0  0  0  0  0
  -23.3550  -18.8321   19.9039 H   0  0  0  0  0  0
  -24.4213  -17.5127   20.2874 H   0  0  0  0  0  0
  -23.4242  -17.4424   18.8251 H   0  0  0  0  0  0
  -28.2198  -23.0125   24.0154 H   0  0  0  0  0  0
  -27.3060  -23.1867   22.5351 H   0  0  0  0  0  0
  -28.4203  -16.8979   20.7523 H   0  0  0  0  0  0
  -28.1999  -16.5759   22.4467 H   0  0  0  0  0  0
  -30.7223  -16.7479   22.7940 H   0  0  0  0  0  0
  -30.9202  -17.0409   21.0785 H   0  0  0  0  0  0
  -29.5622  -23.1831   21.2646 H   0  0  0  0  0  0
  -30.3591  -23.3311   22.8240 H   0  0  0  0  0  0
  -31.0945  -25.9072   21.8401 H   0  0  0  0  0  0
  -30.3523  -25.1568   20.4404 H   0  0  0  0  0  0
  -30.2001  -27.6971   20.3863 H   0  0  0  0  0  0
  -29.2013  -27.5823   21.8321 H   0  0  0  0  0  0
  -25.3897  -20.1316   20.3189 H   0  0  0  0  0  0
  -26.5615  -20.3927   19.0311 H   0  0  0  0  0  0
  -24.6443  -19.5029   18.0083 H   0  0  0  0  0  0
  -29.4376  -14.6786   22.1335 H   0  0  0  0  0  0
  -29.3076  -25.3835   23.1834 H   0  0  0  0  0  0
  -28.2913  -25.1789   21.9237 H   0  0  0  0  0  0
  1 25  1  0  0  0
  1 30  2  0  0  0
  1 87  1  0  0  0
  2  3  1  0  0  0
  2 25  1  0  0  0
  2 90  1  0  0  0
  2 91  1  0  0  0
  3  4  1  0  0  0
  3 92  1  0  0  0
  3 93  1  0  0  0
  4  5  1  0  0  0
  4 94  1  0  0  0
  4 95  1  0  0  0
  5  6  1  0  0  0
  5 26  1  0  0  0
  5 96  1  0  0  0
  6 25  1  0  0  0
  6 97  1  0  0  0
  6 98  1  0  0  0
  7  8  2  0  0  0
  7 26  1  0  0  0
  7 29  1  0  0  0
  8  9  1  0  0  0
  8 22  1  0  0  0
  9 10  1  0  0  0
  9 27  2  0  0  0
 10 11  2  0  0  0
 10 15  1  0  0  0
 11 12  1  0  0  0
 11 99  1  0  0  0
 12 13  2  0  0  0
 12100  1  0  0  0
 13 14  1  0  0  0
 13 31  1  0  0  0
 14 15  2  0  0  0
 14101  1  0  0  0
 15102  1  0  0  0
 16 17  2  0  0  0
 16 21  1  0  0  0
 16 31  1  0  0  0
 17 18  1  0  0  0
 17103  1  0  0  0
 18 19  2  0  0  0
 18104  1  0  0  0
 19 20  1  0  0  0
 19 24  1  0  0  0
 20 21  2  0  0  0
 20105  1  0  0  0
 21 23  1  0  0  0
 22 28  1  0  0  0
 22 32  2  0  0  0
 26 27  1  0  0  0
 28106  1  0  0  0
 28107  1  0  0  0
 29108  1  0  0  0
 29109  1  0  0  0
 33 34  1  0  0  0
 33 66  1  0  0  0
 33 70  2  0  0  0
 34 36  1  0  0  0
 34 59  1  0  0  0
 34110  1  0  0  0
 35 44  2  0  0  0
 35 45  1  0  0  0
 35 68  1  0  0  0
 36 56  1  0  0  0
 36111  1  0  0  0
 37 39  1  0  0  0
 37 47  1  0  0  0
 37 66  1  0  0  0
 37112  1  0  0  0
 38 43  2  0  0  0
 38 46  1  0  0  0
 38 47  1  0  0  0
 39 64  1  0  0  0
 39 67  2  0  0  0
 40 52  1  0  0  0
 40 53  2  0  0  0
 40 58  1  0  0  0
 41113  1  0  0  0
 41114  1  0  0  0
 41115  1  0  0  0
 41 48  1  0  0  0
 42 43  1  0  0  0
 42 66  1  0  0  0
 42116  1  0  0  0
 42117  1  0  0  0
 43 44  1  0  0  0
 44118  1  0  0  0
 45 46  2  0  0  0
 45119  1  0  0  0
 46120  1  0  0  0
 47121  1  0  0  0
 47122  1  0  0  0
 48 56  1  0  0  0
 48 65  1  0  0  0
 48123  1  0  0  0
 49 50  1  0  0  0
 49 53  1  0  0  0
 49 64  1  0  0  0
 49124  1  0  0  0
 50 51  1  0  0  0
 50125  1  0  0  0
 50126  1  0  0  0
 51 52  1  0  0  0
 51127  1  0  0  0
 51128  1  0  0  0
 52129  1  0  0  0
 52130  1  0  0  0
 53 54  1  0  0  0
 54 55  2  0  0  0
 54131  1  0  0  0
 55 57  1  0  0  0
 55132  1  0  0  0
 56 69  2  0  0  0
 57 58  2  0  0  0
 57133  1  0  0  0
 58134  1  0  0  0
 59 60  1  0  0  0
 59 61  1  0  0  0
 59 62  1  0  0  0
 60135  1  0  0  0
 60136  1  0  0  0
 60137  1  0  0  0
 61138  1  0  0  0
 61139  1  0  0  0
 61140  1  0  0  0
 62141  1  0  0  0
 62142  1  0  0  0
 62143  1  0  0  0
 63 65  1  0  0  0
 63144  1  0  0  0
 63145  1  0  0  0
 63146  1  0  0  0
 64147  1  0  0  0
 65148  1  0  0  0
 68 84  1  0  0  0
 71 72  2  0  0  0
 71 74  1  0  0  0
 71149  1  0  0  0
 72 75  1  0  0  0
 72150  1  0  0  0
 73 74  2  0  0  0
 73 76  1  0  0  0
 73151  1  0  0  0
 74 79  1  0  0  0
 75 76  2  0  0  0
 75 80  1  0  0  0
 76 89  1  0  0  0
 77152  1  0  0  0
 77153  1  0  0  0
 77154  1  0  0  0
 77 86  1  0  0  0
 78 86  1  0  0  0
 78155  1  0  0  0
 78156  1  0  0  0
 78157  1  0  0  0
 79 82  1  0  0  0
 79158  1  0  0  0
 79159  1  0  0  0
 80 81  1  0  0  0
 80160  1  0  0  0
 80161  1  0  0  0
 81 87  1  0  0  0
 81162  1  0  0  0
 81163  1  0  0  0
 82 88  1  0  0  0
 82164  1  0  0  0
 82165  1  0  0  0
 83 84  1  0  0  0
 83 88  1  0  0  0
 83166  1  0  0  0
 83167  1  0  0  0
 84168  1  0  0  0
 84169  1  0  0  0
 85 86  1  0  0  0
 85 89  1  0  0  0
 85170  1  0  0  0
 85171  1  0  0  0
 86172  1  0  0  0
 87173  1  0  0  0
 88174  1  0  0  0
 88175  1  0  0  0
M  CHG  1  88   1
M  ISO  4   1 100  68 101  84 101  87 100
M  END
> <chiral flag>
0

> <version>
0

> <s_m_source_file>
/data/baiqing/PycharmProjects/Reinvent-master-3.2/result/LINK_invent/BTK/process_docking_weight1_custom_sum_contain_oxygen_bond_distance_aromatic_linkinvent_7_9_3/rearranged_h_0140.sdf

> <i_m_source_file_index>
5

> <r_mmod_Potential_Energy-OPLS-2005>
-218.976226806641

> <r_mmod_Stretch_Energy-OPLS-2005>
33.5951728820801

> <r_mmod_Bend_Energy-OPLS-2005>
106.24195098877

> <r_mmod_Torsional_Energy-OPLS-2005>
216.999496459961

> <r_mmod_Improper_Torsional_Energy-OPLS-2005>
2.76342964172363

> <r_mmod_Van_der_Waal_Energy-OPLS-2005>
159.692810058594

> <r_mmod_Electrostatic_Energy-OPLS-2005>
-305.756164550781

> <r_mmod_Solvation_Energy-OPLS-2005>
-440.42333984375

> <b_mmod_Minimization_Converged-OPLS-2005>
0

> <r_mmod_RMS_Derivative-OPLS-2005>
5.80668163299561

$$$$
5
                    3D
 Structure written by MMmdl.
173182  0  0  1  0            999 V2000
  -30.6583  -14.5372   20.5407 C   0  0  0  0  0  0
  -30.4292  -12.3372   19.4313 C   0  0  0  0  0  0
  -29.4987  -12.5031   18.2111 C   0  0  0  0  0  0
  -28.0206  -12.3531   18.6244 C   0  0  0  0  0  0
  -27.6571  -13.2067   19.8688 C   0  0  2  0  0  0
  -28.6994  -13.0154   20.9926 C   0  0  0  0  0  0
  -25.2573  -13.8155   20.5663 C   0  0  0  0  0  0
  -24.1828  -13.0440   20.9178 C   0  0  0  0  0  0
  -24.6385  -11.6902   20.8738 C   0  0  0  0  0  0
  -23.9049  -10.4288   21.0403 C   0  0  0  0  0  0
  -24.3607   -9.4207   21.9182 C   0  0  0  0  0  0
  -23.6288   -8.2241   22.0756 C   0  0  0  0  0  0
  -22.4269   -8.0278   21.3546 C   0  0  0  0  0  0
  -21.9900   -9.0248   20.4647 C   0  0  0  0  0  0
  -22.7224  -10.2127   20.3054 C   0  0  0  0  0  0
  -21.6848   -6.0730   22.5278 C   0  0  0  0  0  0
  -21.4016   -6.5638   23.8212 C   0  0  0  0  0  0
  -21.3664   -5.6793   24.9176 C   0  0  0  0  0  0
  -21.6043   -4.3054   24.7228 C   0  0  0  0  0  0
  -21.8820   -3.8144   23.4350 C   0  0  0  0  0  0
  -21.9195   -4.6958   22.3404 C   0  0  0  0  0  0
  -22.7855  -13.5235   21.1855 C   0  0  0  0  0  0
  -22.1660   -4.2144   21.0979 F   0  0  0  0  0  0
  -21.5632   -3.4541   25.7743 F   0  0  0  0  0  0
  -30.0220  -13.3363   20.4325 N   0  0  0  0  0  0
  -26.3001  -12.9319   20.3331 N   0  0  0  0  0  0
  -25.9311  -11.6481   20.5754 N   0  0  0  0  0  0
  -22.0501  -12.8222   22.0405 N   0  0  0  0  0  0
  -25.4291  -15.1875   20.4047 N   0  0  0  0  0  0
  -31.8122  -14.7161   20.1414 O   0  0  0  0  0  0
  -21.6640   -6.8871   21.4237 O   0  0  0  0  0  0
  -22.3543  -14.5547   20.6711 O   0  0  0  0  0  0
  -24.6178  -31.8626   23.2080 C   0  0  0  0  0  0
  -25.9054  -32.4790   23.8385 C   0  0  1  0  0  0
  -27.2233  -27.3876   20.1052 C   0  0  0  0  0  0
  -25.5904  -33.8589   24.2308 N   0  0  0  0  0  0
  -23.4070  -30.4858   21.5490 C   0  0  2  0  0  0
  -24.8515  -28.9449   20.1136 C   0  0  0  0  0  0
  -22.7419  -29.4619   22.4983 C   0  0  0  0  0  0
  -18.0271  -28.1361   22.8463 C   0  0  0  0  0  0
  -24.1492  -36.7316   23.2640 C   0  0  0  0  0  0
  -25.9391  -30.8124   21.3682 C   0  0  0  0  0  0
  -26.0128  -29.4419   20.7186 C   0  0  0  0  0  0
  -27.1997  -28.6674   20.7163 C   0  0  0  0  0  0
  -26.0505  -26.9284   19.4659 C   0  0  0  0  0  0
  -24.8650  -27.6866   19.4862 C   0  0  0  0  0  0
  -23.6175  -29.8184   20.1634 C   0  0  0  0  0  0
  -25.4108  -36.3089   24.0340 C   0  0  1  0  0  0
  -20.5857  -28.3645   23.1302 C   0  0  2  0  0  0
  -20.6746  -26.9377   22.5407 C   0  0  0  0  0  0
  -19.5740  -26.6365   21.5187 C   0  0  0  0  0  0
  -18.1913  -26.7904   22.1599 C   0  0  0  0  0  0
  -19.1517  -28.8823   23.2873 C   0  0  0  0  0  0
  -18.9458  -30.1433   23.8887 C   0  0  0  0  0  0
  -17.6460  -30.6568   24.0555 C   0  0  0  0  0  0
  -25.9041  -34.9455   23.5129 C   0  0  0  0  0  0
  -16.5348  -29.9074   23.6324 C   0  0  0  0  0  0
  -16.7262  -28.6490   23.0337 C   0  0  0  0  0  0
  -26.4472  -31.6592   25.0732 C   0  0  0  0  0  0
  -25.3747  -31.3698   26.1489 C   0  0  0  0  0  0
  -27.0298  -30.3028   24.6123 C   0  0  0  0  0  0
  -27.6038  -32.4313   25.7494 C   0  0  0  0  0  0
  -27.5581  -37.1805   24.8459 C   0  0  0  0  0  0
  -21.4142  -29.3017   22.3725 N   0  0  0  0  0  0
  -26.4290  -37.3781   23.9415 N   0  0  0  0  0  0
  -24.6730  -31.0703   22.0993 N   0  0  0  0  0  0
  -23.4176  -28.8145   23.3027 O   0  0  0  0  0  0
  -28.3825  -26.6265   20.1053 O   0  0  0  0  0  0
  -26.5604  -34.8915   22.4692 O   0  0  0  0  0  0
  -23.5367  -32.1417   23.7455 O   0  0  0  0  0  0
  -29.4517  -23.0745   19.6665 C   0  0  0  0  0  0
  -27.3802  -24.4994   20.8980 C   0  0  0  0  0  0
  -29.4187  -24.4917   19.5940 C   0  0  0  0  0  0
  -28.4434  -22.3429   20.3349 C   0  0  0  0  0  0
  -28.3711  -25.2308   20.1968 C   0  0  0  0  0  0
  -27.3875  -23.0753   20.9430 C   0  0  0  0  0  0
  -30.6333  -19.2707   19.8734 C   0  0  0  0  0  0
  -29.5223  -19.2370   22.1512 C   0  0  0  0  0  0
  -30.3011  -17.7551   19.7155 C   0  0  0  0  0  0
  -29.1489  -17.7520   21.9125 C   0  0  0  0  0  0
  -29.7414  -20.0829   20.8646 C   0  0  2  0  0  0
  -30.2118  -17.0096   21.0696 C   0  0  1  0  0  0
  -30.5222  -25.2292   18.8605 C   0  0  0  0  0  0
  -24.0844  -21.7383   21.6019 C   0  0  0  0  0  0
  -27.9729  -20.2962   18.9262 C   0  0  0  0  0  0
  -25.0689  -22.9080   21.5191 C   0  0  0  0  0  0
  -28.4390  -20.7856   20.3078 C   0  0  2  0  0  0
  -29.8792  -15.5681   20.9487 N   0  0  0  0  0  0
  -26.3813  -22.3631   21.5571 O   0  0  0  0  0  0
  -31.4731  -12.4493   19.1332 H   0  0  0  0  0  0
  -30.3427  -11.3317   19.8458 H   0  0  0  0  0  0
  -29.7476  -11.7697   17.4435 H   0  0  0  0  0  0
  -29.6554  -13.4837   17.7582 H   0  0  0  0  0  0
  -27.8433  -11.2978   18.8361 H   0  0  0  0  0  0
  -27.3675  -12.6067   17.7889 H   0  0  0  0  0  0
  -27.6905  -14.2490   19.5522 H   0  0  0  0  0  0
  -28.6888  -11.9849   21.3519 H   0  0  0  0  0  0
  -28.4574  -13.6300   21.8609 H   0  0  0  0  0  0
  -25.2755   -9.5688   22.4755 H   0  0  0  0  0  0
  -24.0003   -7.4632   22.7477 H   0  0  0  0  0  0
  -21.0838   -8.8759   19.8948 H   0  0  0  0  0  0
  -22.3683  -10.9666   19.6165 H   0  0  0  0  0  0
  -21.2003   -7.6148   23.9714 H   0  0  0  0  0  0
  -21.1488   -6.0525   25.9080 H   0  0  0  0  0  0
  -22.0596   -2.7607   23.2852 H   0  0  0  0  0  0
  -22.4123  -11.9875   22.4772 H   0  0  0  0  0  0
  -21.1127  -13.1249   22.2633 H   0  0  0  0  0  0
  -24.6574  -15.8388   20.4989 H   0  0  0  0  0  0
  -26.2742  -15.6236   20.0592 H   0  0  0  0  0  0
  -26.7121  -32.5475   23.1140 H   0  0  0  0  0  0
  -25.0043  -33.9754   25.0445 H   0  0  0  0  0  0
  -22.6985  -31.3044   21.4076 H   0  0  0  0  0  0
  -23.3743  -35.9657   23.3292 H   0  0  0  0  0  0
  -24.3585  -36.8948   22.2056 H   0  0  0  0  0  0
  -23.7258  -37.6524   23.6667 H   0  0  0  0  0  0
  -26.0602  -31.5728   20.5958 H   0  0  0  0  0  0
  -26.8246  -30.8650   21.9891 H   0  0  0  0  0  0
  -28.0963  -29.0394   21.1913 H   0  0  0  0  0  0
  -26.0457  -25.9739   18.9583 H   0  0  0  0  0  0
  -23.9736  -27.3012   19.0091 H   0  0  0  0  0  0
  -23.7302  -30.5934   19.4039 H   0  0  0  0  0  0
  -22.7397  -29.2413   19.8672 H   0  0  0  0  0  0
  -25.1281  -36.1959   25.0831 H   0  0  0  0  0  0
  -20.9946  -28.3207   24.1424 H   0  0  0  0  0  0
  -20.5618  -26.2250   23.3591 H   0  0  0  0  0  0
  -21.6621  -26.7386   22.1219 H   0  0  0  0  0  0
  -19.6904  -25.6276   21.1217 H   0  0  0  0  0  0
  -19.6699  -27.3167   20.6708 H   0  0  0  0  0  0
  -17.4181  -26.6636   21.4010 H   0  0  0  0  0  0
  -18.0328  -26.0050   22.9005 H   0  0  0  0  0  0
  -19.7949  -30.7229   24.2252 H   0  0  0  0  0  0
  -17.5034  -31.6253   24.5150 H   0  0  0  0  0  0
  -15.5355  -30.2974   23.7667 H   0  0  0  0  0  0
  -15.8653  -28.0825   22.7045 H   0  0  0  0  0  0
  -24.5932  -30.7017   25.7852 H   0  0  0  0  0  0
  -24.8919  -32.2842   26.4937 H   0  0  0  0  0  0
  -25.8117  -30.8893   27.0252 H   0  0  0  0  0  0
  -26.2841  -29.6786   24.1179 H   0  0  0  0  0  0
  -27.4061  -29.7260   25.4580 H   0  0  0  0  0  0
  -27.8682  -30.4326   23.9276 H   0  0  0  0  0  0
  -27.2658  -33.3615   26.2065 H   0  0  0  0  0  0
  -28.3851  -32.6865   25.0328 H   0  0  0  0  0  0
  -28.0695  -31.8443   26.5420 H   0  0  0  0  0  0
  -28.2580  -38.0119   24.7509 H   0  0  0  0  0  0
  -28.1097  -36.2648   24.6269 H   0  0  0  0  0  0
  -27.2306  -37.1435   25.8864 H   0  0  0  0  0  0
  -20.9310  -29.8812   21.7006 H   0  0  0  0  0  0
  -26.0181  -38.2860   24.1415 H   0  0  0  0  0  0
  -30.2516  -22.5346   19.1779 H   0  0  0  0  0  0
  -26.5905  -25.0455   21.3919 H   0  0  0  0  0  0
  -30.6668  -19.7572   18.8987 H   0  0  0  0  0  0
  -31.6577  -19.3299   20.2438 H   0  0  0  0  0  0
  -30.4477  -19.2526   22.7288 H   0  0  0  0  0  0
  -28.7821  -19.7126   22.7956 H   0  0  0  0  0  0
  -31.0686  -17.2934   19.0939 H   0  0  0  0  0  0
  -29.3667  -17.6305   19.1710 H   0  0  0  0  0  0
  -28.1746  -17.6958   21.4242 H   0  0  0  0  0  0
  -29.0338  -17.2568   22.8782 H   0  0  0  0  0  0
  -30.3678  -20.9135   21.1935 H   0  0  0  0  0  0
  -31.1744  -17.0792   21.5811 H   0  0  0  0  0  0
  -31.3184  -24.5562   18.5436 H   0  0  0  0  0  0
  -30.9660  -25.9858   19.5086 H   0  0  0  0  0  0
  -30.1236  -25.7293   17.9775 H   0  0  0  0  0  0
  -23.0529  -22.0869   21.5434 H   0  0  0  0  0  0
  -24.1988  -21.1863   22.5350 H   0  0  0  0  0  0
  -24.2478  -21.0389   20.7815 H   0  0  0  0  0  0
  -27.0084  -20.7374   18.6747 H   0  0  0  0  0  0
  -27.8357  -19.2163   18.9057 H   0  0  0  0  0  0
  -28.6677  -20.5739   18.1347 H   0  0  0  0  0  0
  -24.9206  -23.5923   22.3555 H   0  0  0  0  0  0
  -24.8915  -23.4593   20.5929 H   0  0  0  0  0  0
  -27.6403  -20.4649   20.9739 H   0  0  0  0  0  0
  -28.9375  -15.3093   21.2009 H   0  0  0  0  0  0
  1 25  1  0  0  0
  1 30  2  0  0  0
  1 88  1  0  0  0
  2  3  1  0  0  0
  2 25  1  0  0  0
  2 90  1  0  0  0
  2 91  1  0  0  0
  3  4  1  0  0  0
  3 92  1  0  0  0
  3 93  1  0  0  0
  4  5  1  0  0  0
  4 94  1  0  0  0
  4 95  1  0  0  0
  5  6  1  0  0  0
  5 26  1  0  0  0
  5 96  1  0  0  0
  6 25  1  0  0  0
  6 97  1  0  0  0
  6 98  1  0  0  0
  7  8  2  0  0  0
  7 26  1  0  0  0
  7 29  1  0  0  0
  8  9  1  0  0  0
  8 22  1  0  0  0
  9 10  1  0  0  0
  9 27  2  0  0  0
 10 11  2  0  0  0
 10 15  1  0  0  0
 11 12  1  0  0  0
 11 99  1  0  0  0
 12 13  2  0  0  0
 12100  1  0  0  0
 13 14  1  0  0  0
 13 31  1  0  0  0
 14 15  2  0  0  0
 14101  1  0  0  0
 15102  1  0  0  0
 16 17  2  0  0  0
 16 21  1  0  0  0
 16 31  1  0  0  0
 17 18  1  0  0  0
 17103  1  0  0  0
 18 19  2  0  0  0
 18104  1  0  0  0
 19 20  1  0  0  0
 19 24  1  0  0  0
 20 21  2  0  0  0
 20105  1  0  0  0
 21 23  1  0  0  0
 22 28  1  0  0  0
 22 32  2  0  0  0
 26 27  1  0  0  0
 28106  1  0  0  0
 28107  1  0  0  0
 29108  1  0  0  0
 29109  1  0  0  0
 33 34  1  0  0  0
 33 66  1  0  0  0
 33 70  2  0  0  0
 34 36  1  0  0  0
 34 59  1  0  0  0
 34110  1  0  0  0
 35 44  2  0  0  0
 35 45  1  0  0  0
 35 68  1  0  0  0
 36 56  1  0  0  0
 36111  1  0  0  0
 37 39  1  0  0  0
 37 47  1  0  0  0
 37 66  1  0  0  0
 37112  1  0  0  0
 38 43  2  0  0  0
 38 46  1  0  0  0
 38 47  1  0  0  0
 39 64  1  0  0  0
 39 67  2  0  0  0
 40 52  1  0  0  0
 40 53  2  0  0  0
 40 58  1  0  0  0
 41113  1  0  0  0
 41114  1  0  0  0
 41115  1  0  0  0
 41 48  1  0  0  0
 42 43  1  0  0  0
 42 66  1  0  0  0
 42116  1  0  0  0
 42117  1  0  0  0
 43 44  1  0  0  0
 44118  1  0  0  0
 45 46  2  0  0  0
 45119  1  0  0  0
 46120  1  0  0  0
 47121  1  0  0  0
 47122  1  0  0  0
 48 56  1  0  0  0
 48 65  1  0  0  0
 48123  1  0  0  0
 49 50  1  0  0  0
 49 53  1  0  0  0
 49 64  1  0  0  0
 49124  1  0  0  0
 50 51  1  0  0  0
 50125  1  0  0  0
 50126  1  0  0  0
 51 52  1  0  0  0
 51127  1  0  0  0
 51128  1  0  0  0
 52129  1  0  0  0
 52130  1  0  0  0
 53 54  1  0  0  0
 54 55  2  0  0  0
 54131  1  0  0  0
 55 57  1  0  0  0
 55132  1  0  0  0
 56 69  2  0  0  0
 57 58  2  0  0  0
 57133  1  0  0  0
 58134  1  0  0  0
 59 60  1  0  0  0
 59 61  1  0  0  0
 59 62  1  0  0  0
 60135  1  0  0  0
 60136  1  0  0  0
 60137  1  0  0  0
 61138  1  0  0  0
 61139  1  0  0  0
 61140  1  0  0  0
 62141  1  0  0  0
 62142  1  0  0  0
 62143  1  0  0  0
 63 65  1  0  0  0
 63144  1  0  0  0
 63145  1  0  0  0
 63146  1  0  0  0
 64147  1  0  0  0
 65148  1  0  0  0
 68 75  1  0  0  0
 71 73  2  0  0  0
 71 74  1  0  0  0
 71149  1  0  0  0
 72 75  2  0  0  0
 72 76  1  0  0  0
 72150  1  0  0  0
 73 75  1  0  0  0
 73 83  1  0  0  0
 74 76  2  0  0  0
 74 87  1  0  0  0
 76 89  1  0  0  0
 77 79  1  0  0  0
 77151  1  0  0  0
 77152  1  0  0  0
 77 81  1  0  0  0
 78 80  1  0  0  0
 78 81  1  0  0  0
 78153  1  0  0  0
 78154  1  0  0  0
 79 82  1  0  0  0
 79155  1  0  0  0
 79156  1  0  0  0
 80 82  1  0  0  0
 80157  1  0  0  0
 80158  1  0  0  0
 81 87  1  0  0  0
 81159  1  0  0  0
 82 88  1  0  0  0
 82160  1  0  0  0
 83161  1  0  0  0
 83162  1  0  0  0
 83163  1  0  0  0
 84 86  1  0  0  0
 84164  1  0  0  0
 84165  1  0  0  0
 84166  1  0  0  0
 85167  1  0  0  0
 85168  1  0  0  0
 85169  1  0  0  0
 85 87  1  0  0  0
 86 89  1  0  0  0
 86170  1  0  0  0
 86171  1  0  0  0
 87172  1  0  0  0
 88173  1  0  0  0
M  ISO  4   1 100  68 101  75 101  88 100
M  END
> <chiral flag>
0

> <version>
0

> <s_m_source_file>
/data/baiqing/PycharmProjects/Reinvent-master-3.2/result/LINK_invent/BTK/process_docking_weight1_custom_sum_contain_oxygen_bond_distance_aromatic_linkinvent_7_9_3/rearranged_h_0140.sdf

> <i_m_source_file_index>
6

> <r_mmod_Potential_Energy-OPLS-2005>
8.64667320251465

> <r_mmod_Stretch_Energy-OPLS-2005>
51.3608932495117

> <r_mmod_Bend_Energy-OPLS-2005>
124.155899047852

> <r_mmod_Torsional_Energy-OPLS-2005>
248.105285644531

> <r_mmod_Improper_Torsional_Energy-OPLS-2005>
4.24466323852539

> <r_mmod_Van_der_Waal_Energy-OPLS-2005>
150.030517578125

> <r_mmod_Electrostatic_Energy-OPLS-2005>
-397.661102294922

> <r_mmod_Solvation_Energy-OPLS-2005>
-193.775543212891

> <b_mmod_Minimization_Converged-OPLS-2005>
0

> <r_mmod_RMS_Derivative-OPLS-2005>
1.82294523715973

$$$$
6
                    3D
 Structure written by MMmdl.
172180  0  0  1  0            999 V2000
  -30.7718  -14.4051   20.6422 C   0  0  0  0  0  0
  -30.3949  -12.2788   19.4382 C   0  0  0  0  0  0
  -29.4899  -12.4841   18.2150 C   0  0  0  0  0  0
  -28.0085  -12.3729   18.6182 C   0  0  0  0  0  0
  -27.6578  -13.2155   19.8737 C   0  0  2  0  0  0
  -28.6898  -13.0088   21.0010 C   0  0  0  0  0  0
  -25.2574  -13.8207   20.5684 C   0  0  0  0  0  0
  -24.1831  -13.0456   20.9193 C   0  0  0  0  0  0
  -24.6394  -11.6930   20.8754 C   0  0  0  0  0  0
  -23.9059  -10.4312   21.0416 C   0  0  0  0  0  0
  -24.3606   -9.4230   21.9196 C   0  0  0  0  0  0
  -23.6300   -8.2255   22.0751 C   0  0  0  0  0  0
  -22.4295   -8.0283   21.3529 C   0  0  0  0  0  0
  -21.9912   -9.0262   20.4636 C   0  0  0  0  0  0
  -22.7231  -10.2153   20.3068 C   0  0  0  0  0  0
  -21.6857   -6.0741   22.5284 C   0  0  0  0  0  0
  -21.4014   -6.5639   23.8216 C   0  0  0  0  0  0
  -21.3672   -5.6791   24.9177 C   0  0  0  0  0  0
  -21.6048   -4.3055   24.7227 C   0  0  0  0  0  0
  -21.8820   -3.8150   23.4351 C   0  0  0  0  0  0
  -21.9192   -4.6966   22.3405 C   0  0  0  0  0  0
  -22.7858  -13.5259   21.1861 C   0  0  0  0  0  0
  -22.1657   -4.2150   21.0984 F   0  0  0  0  0  0
  -21.5634   -3.4538   25.7740 F   0  0  0  0  0  0
  -30.0263  -13.2802   20.4534 N   0  0  0  0  0  0
  -26.3004  -12.9390   20.3361 N   0  0  0  0  0  0
  -25.9323  -11.6534   20.5771 N   0  0  0  0  0  0
  -22.0465  -12.8260   22.0404 N   0  0  0  0  0  0
  -25.4301  -15.1924   20.4109 N   0  0  0  0  0  0
  -31.8381  -14.5915   20.0454 O   0  0  0  0  0  0
  -21.6650   -6.8891   21.4245 O   0  0  0  0  0  0
  -22.3546  -14.5555   20.6696 O   0  0  0  0  0  0
  -24.6154  -31.8664   23.2095 C   0  0  0  0  0  0
  -25.9027  -32.4847   23.8397 C   0  0  1  0  0  0
  -27.2317  -27.4277   20.1023 C   0  0  0  0  0  0
  -25.5861  -33.8649   24.2314 N   0  0  0  0  0  0
  -23.4047  -30.4865   21.5572 C   0  0  2  0  0  0
  -24.8560  -28.9570   20.1141 C   0  0  0  0  0  0
  -22.7433  -29.4599   22.5047 C   0  0  0  0  0  0
  -18.0273  -28.1394   22.8502 C   0  0  0  0  0  0
  -24.1483  -36.7330   23.2634 C   0  0  0  0  0  0
  -25.9344  -30.8308   21.3643 C   0  0  0  0  0  0
  -26.0146  -29.4639   20.7134 C   0  0  0  0  0  0
  -27.2093  -28.7039   20.7120 C   0  0  0  0  0  0
  -26.0622  -26.9412   19.4800 C   0  0  0  0  0  0
  -24.8749  -27.6966   19.4885 C   0  0  0  0  0  0
  -23.6124  -29.8168   20.1721 C   0  0  0  0  0  0
  -25.4116  -36.3147   24.0337 C   0  0  1  0  0  0
  -20.5865  -28.3621   23.1355 C   0  0  2  0  0  0
  -20.6787  -26.9355   22.5442 C   0  0  0  0  0  0
  -19.5753  -26.6377   21.5250 C   0  0  0  0  0  0
  -18.1925  -26.7935   22.1645 C   0  0  0  0  0  0
  -19.1524  -28.8831   23.2916 C   0  0  0  0  0  0
  -18.9436  -30.1453   23.8903 C   0  0  0  0  0  0
  -17.6433  -30.6593   24.0557 C   0  0  0  0  0  0
  -25.9013  -34.9496   23.5123 C   0  0  0  0  0  0
  -16.5327  -29.9084   23.6344 C   0  0  0  0  0  0
  -16.7252  -28.6509   23.0347 C   0  0  0  0  0  0
  -26.4441  -31.6641   25.0740 C   0  0  0  0  0  0
  -25.3664  -31.3775   26.1456 C   0  0  0  0  0  0
  -27.0254  -30.3077   24.6118 C   0  0  0  0  0  0
  -27.6028  -32.4345   25.7494 C   0  0  0  0  0  0
  -27.5598  -37.1827   24.8462 C   0  0  0  0  0  0
  -21.4160  -29.2983   22.3788 N   0  0  0  0  0  0
  -26.4316  -37.3824   23.9401 N   0  0  0  0  0  0
  -24.6715  -31.0711   22.1043 N   0  0  0  0  0  0
  -23.4207  -28.8134   23.3083 O   0  0  0  0  0  0
  -28.3545  -26.6291   20.1423 O   0  0  0  0  0  0
  -26.5559  -34.8920   22.4671 O   0  0  0  0  0  0
  -23.5326  -32.1430   23.7430 O   0  0  0  0  0  0
  -28.3420  -18.2892   22.5023 C   0  0  0  0  0  0
  -29.1377  -18.5502   20.2365 C   0  0  0  0  0  0
  -28.4910  -19.0957   21.3571 C   0  0  0  0  0  0
  -28.8920  -16.9907   22.5648 C   0  0  0  0  0  0
  -29.6372  -16.4613   21.4626 C   0  0  0  0  0  0
  -29.6795  -17.2360   20.2532 C   0  0  0  0  0  0
  -28.6370  -16.2066   23.8495 C   0  0  0  0  0  0
  -29.8557  -15.8740   16.1741 C   0  0  0  0  0  0
  -31.4033  -15.2437   22.7355 C   0  0  0  0  0  0
  -27.8791  -20.5006   21.2932 C   0  0  0  0  0  0
  -30.9969  -16.6486   16.8423 C   0  0  0  0  0  0
  -28.8745  -21.6847   21.1363 C   0  0  0  0  0  0
  -28.8553  -24.1800   20.5661 C   0  0  0  0  0  0
  -30.4886  -17.5341   17.9829 C   0  0  0  0  0  0
  -28.1984  -25.5053   21.0356 C   0  0  0  0  0  0
  -30.4051  -15.2396   21.6466 N   0  0  0  0  0  0
  -28.1604  -22.9911   21.1520 N   0  3  0  0  0  0
  -30.2403  -16.6979   19.1110 O   0  0  0  0  0  0
  -31.4422  -12.3428   19.1421 H   0  0  0  0  0  0
  -30.2607  -11.2728   19.8418 H   0  0  0  0  0  0
  -29.7246  -11.7483   17.4445 H   0  0  0  0  0  0
  -29.6911  -13.4577   17.7776 H   0  0  0  0  0  0
  -27.8020  -11.3190   18.8087 H   0  0  0  0  0  0
  -27.3672  -12.6621   17.7859 H   0  0  0  0  0  0
  -27.7048  -14.2644   19.5789 H   0  0  0  0  0  0
  -28.6481  -11.9855   21.3775 H   0  0  0  0  0  0
  -28.4478  -13.6461   21.8500 H   0  0  0  0  0  0
  -25.2733   -9.5736   22.4787 H   0  0  0  0  0  0
  -24.0009   -7.4663   22.7478 H   0  0  0  0  0  0
  -21.0835   -8.8798   19.8948 H   0  0  0  0  0  0
  -22.3673  -10.9708   19.6202 H   0  0  0  0  0  0
  -21.1998   -7.6145   23.9731 H   0  0  0  0  0  0
  -21.1494   -6.0506   25.9078 H   0  0  0  0  0  0
  -22.0586   -2.7608   23.2850 H   0  0  0  0  0  0
  -22.4009  -11.9907   22.4826 H   0  0  0  0  0  0
  -21.1091  -13.1345   22.2581 H   0  0  0  0  0  0
  -24.6716  -15.8528   20.5403 H   0  0  0  0  0  0
  -26.2983  -15.6371   20.1389 H   0  0  0  0  0  0
  -26.7092  -32.5551   23.1163 H   0  0  0  0  0  0
  -25.0075  -33.9842   25.0495 H   0  0  0  0  0  0
  -22.6922  -31.3044   21.4206 H   0  0  0  0  0  0
  -23.3755  -35.9655   23.3319 H   0  0  0  0  0  0
  -24.3570  -36.8917   22.2047 H   0  0  0  0  0  0
  -23.7215  -37.6532   23.6615 H   0  0  0  0  0  0
  -26.0314  -31.5917   20.5894 H   0  0  0  0  0  0
  -26.8285  -30.8975   21.9734 H   0  0  0  0  0  0
  -28.0975  -29.0796   21.1996 H   0  0  0  0  0  0
  -26.0632  -25.9705   19.0010 H   0  0  0  0  0  0
  -23.9886  -27.3072   19.0094 H   0  0  0  0  0  0
  -23.7027  -30.5928   19.4126 H   0  0  0  0  0  0
  -22.7418  -29.2282   19.8767 H   0  0  0  0  0  0
  -25.1306  -36.2053   25.0840 H   0  0  0  0  0  0
  -20.9926  -28.3166   24.1483 H   0  0  0  0  0  0
  -20.5739  -26.2201   23.3617 H   0  0  0  0  0  0
  -21.6653  -26.7450   22.1180 H   0  0  0  0  0  0
  -19.6896  -25.6294   21.1260 H   0  0  0  0  0  0
  -19.6710  -27.3220   20.6806 H   0  0  0  0  0  0
  -17.4204  -26.6673   21.4038 H   0  0  0  0  0  0
  -18.0266  -26.0111   22.9055 H   0  0  0  0  0  0
  -19.7902  -30.7285   24.2260 H   0  0  0  0  0  0
  -17.4975  -31.6277   24.5150 H   0  0  0  0  0  0
  -15.5319  -30.2969   23.7685 H   0  0  0  0  0  0
  -15.8659  -28.0840   22.7037 H   0  0  0  0  0  0
  -24.5821  -30.7173   25.7747 H   0  0  0  0  0  0
  -24.8858  -32.2940   26.4868 H   0  0  0  0  0  0
  -25.7941  -30.8923   27.0234 H   0  0  0  0  0  0
  -26.2810  -29.6904   24.1073 H   0  0  0  0  0  0
  -27.3913  -29.7279   25.4599 H   0  0  0  0  0  0
  -27.8691  -30.4414   23.9348 H   0  0  0  0  0  0
  -27.2667  -33.3633   26.2103 H   0  0  0  0  0  0
  -28.3793  -32.6926   25.0290 H   0  0  0  0  0  0
  -28.0730  -31.8448   26.5363 H   0  0  0  0  0  0
  -28.2627  -38.0118   24.7521 H   0  0  0  0  0  0
  -28.1083  -36.2646   24.6292 H   0  0  0  0  0  0
  -27.2282  -37.1484   25.8854 H   0  0  0  0  0  0
  -20.9322  -29.8703   21.7014 H   0  0  0  0  0  0
  -26.0220  -38.2909   24.1407 H   0  0  0  0  0  0
  -27.7979  -18.6685   23.3566 H   0  0  0  0  0  0
  -29.1946  -19.1769   19.3602 H   0  0  0  0  0  0
  -27.6287  -16.3824   24.2260 H   0  0  0  0  0  0
  -29.3280  -16.5196   24.6331 H   0  0  0  0  0  0
  -28.7369  -15.1314   23.7115 H   0  0  0  0  0  0
  -30.2422  -15.1110   15.4961 H   0  0  0  0  0  0
  -29.2117  -16.5416   15.6012 H   0  0  0  0  0  0
  -29.2295  -15.3905   16.9219 H   0  0  0  0  0  0
  -31.1329  -15.8370   23.6045 H   0  0  0  0  0  0
  -32.3532  -15.6527   22.3845 H   0  0  0  0  0  0
  -31.5896  -14.2275   23.0920 H   0  0  0  0  0  0
  -27.2686  -20.6542   22.1838 H   0  0  0  0  0  0
  -27.1832  -20.5147   20.4521 H   0  0  0  0  0  0
  -31.4981  -17.2592   16.0907 H   0  0  0  0  0  0
  -31.7514  -15.9605   17.2270 H   0  0  0  0  0  0
  -29.4364  -21.5838   20.2073 H   0  0  0  0  0  0
  -29.6049  -21.6729   21.9461 H   0  0  0  0  0  0
  -29.9154  -24.1967   20.8286 H   0  0  0  0  0  0
  -28.8048  -24.1077   19.4786 H   0  0  0  0  0  0
  -29.5952  -18.0609   17.6388 H   0  0  0  0  0  0
  -31.2410  -18.2763   18.2528 H   0  0  0  0  0  0
  -28.6190  -25.7838   22.0027 H   0  0  0  0  0  0
  -27.1411  -25.3106   21.2230 H   0  0  0  0  0  0
  -27.9116  -23.1857   22.1109 H   0  0  0  0  0  0
  -27.2923  -22.8654   20.6538 H   0  0  0  0  0  0
  1 25  1  0  0  0
  1 30  2  0  0  0
  1 86  1  0  0  0
  2  3  1  0  0  0
  2 25  1  0  0  0
  2 89  1  0  0  0
  2 90  1  0  0  0
  3  4  1  0  0  0
  3 91  1  0  0  0
  3 92  1  0  0  0
  4  5  1  0  0  0
  4 93  1  0  0  0
  4 94  1  0  0  0
  5  6  1  0  0  0
  5 26  1  0  0  0
  5 95  1  0  0  0
  6 25  1  0  0  0
  6 96  1  0  0  0
  6 97  1  0  0  0
  7  8  2  0  0  0
  7 26  1  0  0  0
  7 29  1  0  0  0
  8  9  1  0  0  0
  8 22  1  0  0  0
  9 10  1  0  0  0
  9 27  2  0  0  0
 10 11  2  0  0  0
 10 15  1  0  0  0
 11 12  1  0  0  0
 11 98  1  0  0  0
 12 13  2  0  0  0
 12 99  1  0  0  0
 13 14  1  0  0  0
 13 31  1  0  0  0
 14 15  2  0  0  0
 14100  1  0  0  0
 15101  1  0  0  0
 16 17  2  0  0  0
 16 21  1  0  0  0
 16 31  1  0  0  0
 17 18  1  0  0  0
 17102  1  0  0  0
 18 19  2  0  0  0
 18103  1  0  0  0
 19 20  1  0  0  0
 19 24  1  0  0  0
 20 21  2  0  0  0
 20104  1  0  0  0
 21 23  1  0  0  0
 22 28  1  0  0  0
 22 32  2  0  0  0
 26 27  1  0  0  0
 28105  1  0  0  0
 28106  1  0  0  0
 29107  1  0  0  0
 29108  1  0  0  0
 33 34  1  0  0  0
 33 66  1  0  0  0
 33 70  2  0  0  0
 34 36  1  0  0  0
 34 59  1  0  0  0
 34109  1  0  0  0
 35 44  2  0  0  0
 35 45  1  0  0  0
 35 68  1  0  0  0
 36 56  1  0  0  0
 36110  1  0  0  0
 37 39  1  0  0  0
 37 47  1  0  0  0
 37 66  1  0  0  0
 37111  1  0  0  0
 38 43  2  0  0  0
 38 46  1  0  0  0
 38 47  1  0  0  0
 39 64  1  0  0  0
 39 67  2  0  0  0
 40 52  1  0  0  0
 40 53  2  0  0  0
 40 58  1  0  0  0
 41112  1  0  0  0
 41113  1  0  0  0
 41114  1  0  0  0
 41 48  1  0  0  0
 42 43  1  0  0  0
 42 66  1  0  0  0
 42115  1  0  0  0
 42116  1  0  0  0
 43 44  1  0  0  0
 44117  1  0  0  0
 45 46  2  0  0  0
 45118  1  0  0  0
 46119  1  0  0  0
 47120  1  0  0  0
 47121  1  0  0  0
 48 56  1  0  0  0
 48 65  1  0  0  0
 48122  1  0  0  0
 49 50  1  0  0  0
 49 53  1  0  0  0
 49 64  1  0  0  0
 49123  1  0  0  0
 50 51  1  0  0  0
 50124  1  0  0  0
 50125  1  0  0  0
 51 52  1  0  0  0
 51126  1  0  0  0
 51127  1  0  0  0
 52128  1  0  0  0
 52129  1  0  0  0
 53 54  1  0  0  0
 54 55  2  0  0  0
 54130  1  0  0  0
 55 57  1  0  0  0
 55131  1  0  0  0
 56 69  2  0  0  0
 57 58  2  0  0  0
 57132  1  0  0  0
 58133  1  0  0  0
 59 60  1  0  0  0
 59 61  1  0  0  0
 59 62  1  0  0  0
 60134  1  0  0  0
 60135  1  0  0  0
 60136  1  0  0  0
 61137  1  0  0  0
 61138  1  0  0  0
 61139  1  0  0  0
 62140  1  0  0  0
 62141  1  0  0  0
 62142  1  0  0  0
 63 65  1  0  0  0
 63143  1  0  0  0
 63144  1  0  0  0
 63145  1  0  0  0
 64146  1  0  0  0
 65147  1  0  0  0
 68 85  1  0  0  0
 71 73  2  0  0  0
 71 74  1  0  0  0
 71148  1  0  0  0
 72 73  1  0  0  0
 72 76  2  0  0  0
 72149  1  0  0  0
 73 80  1  0  0  0
 74 75  2  0  0  0
 74 77  1  0  0  0
 75 76  1  0  0  0
 75 86  1  0  0  0
 76 88  1  0  0  0
 77150  1  0  0  0
 77151  1  0  0  0
 77152  1  0  0  0
 78 81  1  0  0  0
 78153  1  0  0  0
 78154  1  0  0  0
 78155  1  0  0  0
 79 86  1  0  0  0
 79156  1  0  0  0
 79157  1  0  0  0
 79158  1  0  0  0
 80 82  1  0  0  0
 80159  1  0  0  0
 80160  1  0  0  0
 81 84  1  0  0  0
 81161  1  0  0  0
 81162  1  0  0  0
 82 87  1  0  0  0
 82163  1  0  0  0
 82164  1  0  0  0
 83 85  1  0  0  0
 83 87  1  0  0  0
 83165  1  0  0  0
 83166  1  0  0  0
 84 88  1  0  0  0
 84167  1  0  0  0
 84168  1  0  0  0
 85169  1  0  0  0
 85170  1  0  0  0
 87171  1  0  0  0
 87172  1  0  0  0
M  CHG  1  87   1
M  ISO  4   1 100  68 101  85 101  86 100
M  END
> <chiral flag>
0

> <version>
0

> <s_m_source_file>
/data/baiqing/PycharmProjects/Reinvent-master-3.2/result/LINK_invent/BTK/process_docking_weight1_custom_sum_contain_oxygen_bond_distance_aromatic_linkinvent_7_9_3/rearranged_h_0140.sdf

> <i_m_source_file_index>
7

> <r_mmod_Potential_Energy-OPLS-2005>
10.4064035415649

> <r_mmod_Stretch_Energy-OPLS-2005>
47.9628295898438

> <r_mmod_Bend_Energy-OPLS-2005>
115.050155639648

> <r_mmod_Torsional_Energy-OPLS-2005>
324.224792480469

> <r_mmod_Improper_Torsional_Energy-OPLS-2005>
6.27307367324829

> <r_mmod_Van_der_Waal_Energy-OPLS-2005>
162.014862060547

> <r_mmod_Electrostatic_Energy-OPLS-2005>
-209.125930786133

> <r_mmod_Solvation_Energy-OPLS-2005>
-449.3984375

> <b_mmod_Minimization_Converged-OPLS-2005>
0

> <r_mmod_RMS_Derivative-OPLS-2005>
3.82729721069336

$$$$
7
                    3D
 Structure written by MMmdl.
163171  0  0  1  0            999 V2000
  -30.7330  -14.3789   20.5989 C   0  0  0  0  0  0
  -30.4090  -12.2555   19.4031 C   0  0  0  0  0  0
  -29.4872  -12.5038   18.1941 C   0  0  0  0  0  0
  -28.0069  -12.3723   18.6055 C   0  0  0  0  0  0
  -27.6626  -13.1972   19.8763 C   0  0  2  0  0  0
  -28.7011  -12.9381   20.9906 C   0  0  0  0  0  0
  -25.2594  -13.8141   20.5646 C   0  0  0  0  0  0
  -24.1839  -13.0440   20.9146 C   0  0  0  0  0  0
  -24.6379  -11.6892   20.8715 C   0  0  0  0  0  0
  -23.9050  -10.4277   21.0387 C   0  0  0  0  0  0
  -24.3598   -9.4205   21.9173 C   0  0  0  0  0  0
  -23.6276   -8.2240   22.0754 C   0  0  0  0  0  0
  -22.4264   -8.0265   21.3541 C   0  0  0  0  0  0
  -21.9884   -9.0242   20.4645 C   0  0  0  0  0  0
  -22.7215  -10.2123   20.3044 C   0  0  0  0  0  0
  -21.6855   -6.0729   22.5280 C   0  0  0  0  0  0
  -21.4011   -6.5632   23.8214 C   0  0  0  0  0  0
  -21.3665   -5.6783   24.9173 C   0  0  0  0  0  0
  -21.6040   -4.3046   24.7218 C   0  0  0  0  0  0
  -21.8828   -3.8142   23.4344 C   0  0  0  0  0  0
  -21.9191   -4.6957   22.3400 C   0  0  0  0  0  0
  -22.7873  -13.5229   21.1837 C   0  0  0  0  0  0
  -22.1663   -4.2140   21.0981 F   0  0  0  0  0  0
  -21.5630   -3.4538   25.7741 F   0  0  0  0  0  0
  -30.0378  -13.2244   20.4417 N   0  0  0  0  0  0
  -26.3012  -12.9288   20.3366 N   0  0  0  0  0  0
  -25.9292  -11.6445   20.5737 N   0  0  0  0  0  0
  -22.0525  -12.8221   22.0401 N   0  0  0  0  0  0
  -25.4308  -15.1855   20.4055 N   0  0  0  0  0  0
  -31.8572  -14.5576   20.1295 O   0  0  0  0  0  0
  -21.6639   -6.8870   21.4236 O   0  0  0  0  0  0
  -22.3549  -14.5546   20.6707 O   0  0  0  0  0  0
  -24.6078  -31.8753   23.2143 C   0  0  0  0  0  0
  -25.8979  -32.4873   23.8456 C   0  0  1  0  0  0
  -27.2299  -27.4786   20.0687 C   0  0  0  0  0  0
  -25.5908  -33.8674   24.2395 N   0  0  0  0  0  0
  -23.3906  -30.5010   21.5608 C   0  0  2  0  0  0
  -24.8315  -28.9763   20.1176 C   0  0  0  0  0  0
  -22.7346  -29.4680   22.5025 C   0  0  0  0  0  0
  -18.0256  -28.1366   22.8505 C   0  0  0  0  0  0
  -24.1476  -36.7309   23.2664 C   0  0  0  0  0  0
  -25.9206  -30.8425   21.3729 C   0  0  0  0  0  0
  -25.9908  -29.4815   20.7203 C   0  0  0  0  0  0
  -27.1845  -28.7319   20.7098 C   0  0  0  0  0  0
  -26.0529  -26.9922   19.4450 C   0  0  0  0  0  0
  -24.8544  -27.7232   19.4865 C   0  0  0  0  0  0
  -23.5956  -29.8438   20.1726 C   0  0  0  0  0  0
  -25.4097  -36.3147   24.0386 C   0  0  1  0  0  0
  -20.5859  -28.3664   23.1304 C   0  0  2  0  0  0
  -20.6741  -26.9401   22.5404 C   0  0  0  0  0  0
  -19.5701  -26.6361   21.5212 C   0  0  0  0  0  0
  -18.1881  -26.7904   22.1647 C   0  0  0  0  0  0
  -19.1514  -28.8823   23.2907 C   0  0  0  0  0  0
  -18.9459  -30.1434   23.8906 C   0  0  0  0  0  0
  -17.6461  -30.6584   24.0558 C   0  0  0  0  0  0
  -25.9057  -34.9513   23.5194 C   0  0  0  0  0  0
  -16.5345  -29.9070   23.6357 C   0  0  0  0  0  0
  -16.7243  -28.6490   23.0365 C   0  0  0  0  0  0
  -26.4430  -31.6604   25.0750 C   0  0  0  0  0  0
  -25.3699  -31.3611   26.1493 C   0  0  0  0  0  0
  -27.0295  -30.3083   24.6090 C   0  0  0  0  0  0
  -27.6054  -32.4312   25.7448 C   0  0  0  0  0  0
  -27.5584  -37.1789   24.8485 C   0  0  0  0  0  0
  -21.4089  -29.3017   22.3710 N   0  0  0  0  0  0
  -26.4292  -37.3823   23.9439 N   0  0  0  0  0  0
  -24.6579  -31.0850   22.1075 N   0  0  0  0  0  0
  -23.4104  -28.8264   23.3125 O   0  0  0  0  0  0
  -28.4192  -26.7847   20.0716 O   0  0  0  0  0  0
  -26.5578  -34.8941   22.4738 O   0  0  0  0  0  0
  -23.5267  -32.1516   23.7533 O   0  0  0  0  0  0
  -28.7356  -22.3915   19.8313 C   0  0  0  0  0  0
  -31.1303  -18.9121   20.1351 C   0  0  0  0  0  0
  -29.7240  -19.0263   22.2153 C   0  0  0  0  0  0
  -30.8110  -17.4180   19.9833 C   0  0  0  0  0  0
  -29.3792  -17.5367   22.0803 C   0  0  0  0  0  0
  -30.0083  -19.6797   20.8527 C   0  0  2  0  0  0
  -30.4862  -16.7523   21.3456 C   0  0  1  0  0  0
  -28.7071  -21.0612   19.0727 C   0  0  0  0  0  0
  -28.7235  -19.8300   19.9980 C   0  0  0  0  0  0
  -29.6583  -24.6982   19.8991 C   0  0  0  0  0  0
  -28.3965  -25.4763   19.5234 C   0  0  0  0  0  0
  -29.5700  -23.3367   19.3776 N   0  0  0  0  0  0
  -30.0504  -15.3662   21.1912 N   0  0  0  0  0  0
  -28.0087  -22.5633   20.8121 O   0  0  0  0  0  0
  -31.4554  -12.3317   19.1055 H   0  0  0  0  0  0
  -30.2794  -11.2374   19.7742 H   0  0  0  0  0  0
  -29.7144  -11.8012   17.3916 H   0  0  0  0  0  0
  -29.6676  -13.5016   17.7889 H   0  0  0  0  0  0
  -27.8059  -11.3156   18.7838 H   0  0  0  0  0  0
  -27.3563  -12.6660   17.7792 H   0  0  0  0  0  0
  -27.7208  -14.2507   19.6016 H   0  0  0  0  0  0
  -28.6560  -11.8927   21.3064 H   0  0  0  0  0  0
  -28.4721  -13.5179   21.8859 H   0  0  0  0  0  0
  -25.2752   -9.5689   22.4738 H   0  0  0  0  0  0
  -24.0001   -7.4634   22.7466 H   0  0  0  0  0  0
  -21.0827   -8.8748   19.8949 H   0  0  0  0  0  0
  -22.3671  -10.9652   19.6143 H   0  0  0  0  0  0
  -21.2005   -7.6143   23.9710 H   0  0  0  0  0  0
  -21.1477   -6.0520   25.9078 H   0  0  0  0  0  0
  -22.0600   -2.7601   23.2851 H   0  0  0  0  0  0
  -22.4150  -11.9869   22.4761 H   0  0  0  0  0  0
  -21.1139  -13.1242   22.2647 H   0  0  0  0  0  0
  -24.6594  -15.8353   20.5049 H   0  0  0  0  0  0
  -26.2834  -15.6270   20.0873 H   0  0  0  0  0  0
  -26.7054  -32.5563   23.1223 H   0  0  0  0  0  0
  -24.9957  -33.9868   25.0470 H   0  0  0  0  0  0
  -22.6818  -31.3219   21.4320 H   0  0  0  0  0  0
  -23.3786  -35.9595   23.3345 H   0  0  0  0  0  0
  -24.3556  -36.8879   22.2072 H   0  0  0  0  0  0
  -23.7176  -37.6506   23.6645 H   0  0  0  0  0  0
  -26.0533  -31.6129   20.6120 H   0  0  0  0  0  0
  -26.7980  -30.8753   22.0051 H   0  0  0  0  0  0
  -28.0734  -29.1143   21.1952 H   0  0  0  0  0  0
  -26.0311  -26.0620   18.8965 H   0  0  0  0  0  0
  -23.9710  -27.3240   19.0059 H   0  0  0  0  0  0
  -23.7068  -30.6291   19.4261 H   0  0  0  0  0  0
  -22.7147  -29.2787   19.8684 H   0  0  0  0  0  0
  -25.1268  -36.2039   25.0881 H   0  0  0  0  0  0
  -20.9971  -28.3223   24.1420 H   0  0  0  0  0  0
  -20.5624  -26.2287   23.3593 H   0  0  0  0  0  0
  -21.6613  -26.7395   22.1222 H   0  0  0  0  0  0
  -19.6869  -25.6262   21.1221 H   0  0  0  0  0  0
  -19.6638  -27.3188   20.6743 H   0  0  0  0  0  0
  -17.4144  -26.6658   21.4039 H   0  0  0  0  0  0
  -18.0323  -26.0034   22.9042 H   0  0  0  0  0  0
  -19.7954  -30.7251   24.2251 H   0  0  0  0  0  0
  -17.5039  -31.6280   24.5147 H   0  0  0  0  0  0
  -15.5360  -30.2990   23.7681 H   0  0  0  0  0  0
  -15.8648  -28.0802   22.7114 H   0  0  0  0  0  0
  -24.5974  -30.6870   25.7776 H   0  0  0  0  0  0
  -24.8752  -32.2686   26.4963 H   0  0  0  0  0  0
  -25.8059  -30.8766   27.0235 H   0  0  0  0  0  0
  -26.2803  -29.6793   24.1265 H   0  0  0  0  0  0
  -27.4246  -29.7388   25.4508 H   0  0  0  0  0  0
  -27.8567  -30.4506   23.9138 H   0  0  0  0  0  0
  -27.2790  -33.3665   26.1998 H   0  0  0  0  0  0
  -28.3802  -32.6748   25.0177 H   0  0  0  0  0  0
  -28.0782  -31.8435   26.5319 H   0  0  0  0  0  0
  -28.2611  -38.0078   24.7581 H   0  0  0  0  0  0
  -28.1065  -36.2621   24.6262 H   0  0  0  0  0  0
  -27.2308  -37.1391   25.8885 H   0  0  0  0  0  0
  -20.9223  -29.8747   21.6962 H   0  0  0  0  0  0
  -26.0211  -38.2909   24.1437 H   0  0  0  0  0  0
  -31.3423  -19.3522   19.1595 H   0  0  0  0  0  0
  -32.0530  -19.0126   20.7087 H   0  0  0  0  0  0
  -30.6005  -19.1373   22.8553 H   0  0  0  0  0  0
  -28.9202  -19.5577   22.7261 H   0  0  0  0  0  0
  -31.6761  -16.9470   19.5170 H   0  0  0  0  0  0
  -29.9841  -17.2725   19.2864 H   0  0  0  0  0  0
  -28.4298  -17.4359   21.5480 H   0  0  0  0  0  0
  -29.2136  -17.1166   23.0727 H   0  0  0  0  0  0
  -30.3925  -20.6749   21.0752 H   0  0  0  0  0  0
  -31.3845  -16.7608   21.9641 H   0  0  0  0  0  0
  -29.5320  -21.0086   18.3620 H   0  0  0  0  0  0
  -27.7920  -21.0413   18.4790 H   0  0  0  0  0  0
  -27.8491  -19.8786   20.6488 H   0  0  0  0  0  0
  -28.5530  -18.9415   19.3900 H   0  0  0  0  0  0
  -29.7868  -24.6784   20.9831 H   0  0  0  0  0  0
  -30.5336  -25.2015   19.4883 H   0  0  0  0  0  0
  -27.5373  -24.9372   19.9201 H   0  0  0  0  0  0
  -28.2905  -25.5305   18.4366 H   0  0  0  0  0  0
  -30.1171  -23.1339   18.5523 H   0  0  0  0  0  0
  -29.1213  -15.1355   21.5094 H   0  0  0  0  0  0
  1 25  1  0  0  0
  1 30  2  0  0  0
  1 83  1  0  0  0
  2  3  1  0  0  0
  2 25  1  0  0  0
  2 85  1  0  0  0
  2 86  1  0  0  0
  3  4  1  0  0  0
  3 87  1  0  0  0
  3 88  1  0  0  0
  4  5  1  0  0  0
  4 89  1  0  0  0
  4 90  1  0  0  0
  5  6  1  0  0  0
  5 26  1  0  0  0
  5 91  1  0  0  0
  6 25  1  0  0  0
  6 92  1  0  0  0
  6 93  1  0  0  0
  7  8  2  0  0  0
  7 26  1  0  0  0
  7 29  1  0  0  0
  8  9  1  0  0  0
  8 22  1  0  0  0
  9 10  1  0  0  0
  9 27  2  0  0  0
 10 11  2  0  0  0
 10 15  1  0  0  0
 11 12  1  0  0  0
 11 94  1  0  0  0
 12 13  2  0  0  0
 12 95  1  0  0  0
 13 14  1  0  0  0
 13 31  1  0  0  0
 14 15  2  0  0  0
 14 96  1  0  0  0
 15 97  1  0  0  0
 16 17  2  0  0  0
 16 21  1  0  0  0
 16 31  1  0  0  0
 17 18  1  0  0  0
 17 98  1  0  0  0
 18 19  2  0  0  0
 18 99  1  0  0  0
 19 20  1  0  0  0
 19 24  1  0  0  0
 20 21  2  0  0  0
 20100  1  0  0  0
 21 23  1  0  0  0
 22 28  1  0  0  0
 22 32  2  0  0  0
 26 27  1  0  0  0
 28101  1  0  0  0
 28102  1  0  0  0
 29103  1  0  0  0
 29104  1  0  0  0
 33 34  1  0  0  0
 33 66  1  0  0  0
 33 70  2  0  0  0
 34 36  1  0  0  0
 34 59  1  0  0  0
 34105  1  0  0  0
 35 44  2  0  0  0
 35 45  1  0  0  0
 35 68  1  0  0  0
 36 56  1  0  0  0
 36106  1  0  0  0
 37 39  1  0  0  0
 37 47  1  0  0  0
 37 66  1  0  0  0
 37107  1  0  0  0
 38 43  2  0  0  0
 38 46  1  0  0  0
 38 47  1  0  0  0
 39 64  1  0  0  0
 39 67  2  0  0  0
 40 52  1  0  0  0
 40 53  2  0  0  0
 40 58  1  0  0  0
 41108  1  0  0  0
 41109  1  0  0  0
 41110  1  0  0  0
 41 48  1  0  0  0
 42 43  1  0  0  0
 42 66  1  0  0  0
 42111  1  0  0  0
 42112  1  0  0  0
 43 44  1  0  0  0
 44113  1  0  0  0
 45 46  2  0  0  0
 45114  1  0  0  0
 46115  1  0  0  0
 47116  1  0  0  0
 47117  1  0  0  0
 48 56  1  0  0  0
 48 65  1  0  0  0
 48118  1  0  0  0
 49 50  1  0  0  0
 49 53  1  0  0  0
 49 64  1  0  0  0
 49119  1  0  0  0
 50 51  1  0  0  0
 50120  1  0  0  0
 50121  1  0  0  0
 51 52  1  0  0  0
 51122  1  0  0  0
 51123  1  0  0  0
 52124  1  0  0  0
 52125  1  0  0  0
 53 54  1  0  0  0
 54 55  2  0  0  0
 54126  1  0  0  0
 55 57  1  0  0  0
 55127  1  0  0  0
 56 69  2  0  0  0
 57 58  2  0  0  0
 57128  1  0  0  0
 58129  1  0  0  0
 59 60  1  0  0  0
 59 61  1  0  0  0
 59 62  1  0  0  0
 60130  1  0  0  0
 60131  1  0  0  0
 60132  1  0  0  0
 61133  1  0  0  0
 61134  1  0  0  0
 61135  1  0  0  0
 62136  1  0  0  0
 62137  1  0  0  0
 62138  1  0  0  0
 63 65  1  0  0  0
 63139  1  0  0  0
 63140  1  0  0  0
 63141  1  0  0  0
 64142  1  0  0  0
 65143  1  0  0  0
 68 81  1  0  0  0
 71 78  1  0  0  0
 71 82  1  0  0  0
 71 84  2  0  0  0
 72 74  1  0  0  0
 72 76  1  0  0  0
 72144  1  0  0  0
 72145  1  0  0  0
 73 75  1  0  0  0
 73 76  1  0  0  0
 73146  1  0  0  0
 73147  1  0  0  0
 74 77  1  0  0  0
 74148  1  0  0  0
 74149  1  0  0  0
 75 77  1  0  0  0
 75150  1  0  0  0
 75151  1  0  0  0
 76 79  1  0  0  0
 76152  1  0  0  0
 77 83  1  0  0  0
 77153  1  0  0  0
 78 79  1  0  0  0
 78154  1  0  0  0
 78155  1  0  0  0
 79156  1  0  0  0
 79157  1  0  0  0
 80 81  1  0  0  0
 80 82  1  0  0  0
 80158  1  0  0  0
 80159  1  0  0  0
 81160  1  0  0  0
 81161  1  0  0  0
 82162  1  0  0  0
 83163  1  0  0  0
M  ISO  4   1 100  68 101  81 101  83 100
M  END
> <chiral flag>
0

> <version>
0

> <s_m_source_file>
/data/baiqing/PycharmProjects/Reinvent-master-3.2/result/LINK_invent/BTK/process_docking_weight1_custom_sum_contain_oxygen_bond_distance_aromatic_linkinvent_7_9_3/rearranged_h_0140.sdf

> <i_m_source_file_index>
8

> <r_mmod_Potential_Energy-OPLS-2005>
-173.915710449219

> <r_mmod_Stretch_Energy-OPLS-2005>
30.3247985839844

> <r_mmod_Bend_Energy-OPLS-2005>
93.1421585083008

> <r_mmod_Torsional_Energy-OPLS-2005>
208.14811706543

> <r_mmod_Improper_Torsional_Energy-OPLS-2005>
3.09421586990356

> <r_mmod_Van_der_Waal_Energy-OPLS-2005>
157.200408935547

> <r_mmod_Electrostatic_Energy-OPLS-2005>
-447.8310546875

> <r_mmod_Solvation_Energy-OPLS-2005>
-229.055709838867

> <b_mmod_Minimization_Converged-OPLS-2005>
0

> <r_mmod_RMS_Derivative-OPLS-2005>
4.44710969924927

$$$$
8
                    3D
 Structure written by MMmdl.
176186  0  0  1  0            999 V2000
  -30.7542  -14.5544   20.5972 C   0  0  0  0  0  0
  -30.4201  -12.3768   19.4526 C   0  0  0  0  0  0
  -29.4971  -12.4939   18.2242 C   0  0  0  0  0  0
  -28.0283  -12.3059   18.6400 C   0  0  0  0  0  0
  -27.6466  -13.1921   19.8503 C   0  0  2  0  0  0
  -28.6938  -13.0858   20.9898 C   0  0  0  0  0  0
  -25.2576  -13.8123   20.5695 C   0  0  0  0  0  0
  -24.1823  -13.0403   20.9199 C   0  0  0  0  0  0
  -24.6373  -11.6878   20.8753 C   0  0  0  0  0  0
  -23.9032  -10.4286   21.0432 C   0  0  0  0  0  0
  -24.3608   -9.4211   21.9193 C   0  0  0  0  0  0
  -23.6283   -8.2248   22.0763 C   0  0  0  0  0  0
  -22.4270   -8.0282   21.3540 C   0  0  0  0  0  0
  -21.9911   -9.0256   20.4637 C   0  0  0  0  0  0
  -22.7230  -10.2135   20.3054 C   0  0  0  0  0  0
  -21.6866   -6.0753   22.5286 C   0  0  0  0  0  0
  -21.4020   -6.5640   23.8227 C   0  0  0  0  0  0
  -21.3662   -5.6785   24.9180 C   0  0  0  0  0  0
  -21.6037   -4.3055   24.7225 C   0  0  0  0  0  0
  -21.8829   -3.8153   23.4350 C   0  0  0  0  0  0
  -21.9199   -4.6975   22.3404 C   0  0  0  0  0  0
  -22.7853  -13.5235   21.1849 C   0  0  0  0  0  0
  -22.1657   -4.2164   21.0987 F   0  0  0  0  0  0
  -21.5637   -3.4530   25.7742 F   0  0  0  0  0  0
  -30.0186  -13.4055   20.4359 N   0  0  0  0  0  0
  -26.2959  -12.9234   20.3269 N   0  0  0  0  0  0
  -25.9289  -11.6432   20.5771 N   0  0  0  0  0  0
  -22.0483  -12.8221   22.0405 N   0  0  0  0  0  0
  -25.4270  -15.1829   20.4090 N   0  0  0  0  0  0
  -31.8776  -14.6489   20.0967 O   0  0  0  0  0  0
  -21.6627   -6.8880   21.4237 O   0  0  0  0  0  0
  -22.3526  -14.5530   20.6698 O   0  0  0  0  0  0
  -24.6090  -31.8651   23.2102 C   0  0  0  0  0  0
  -25.8998  -32.4806   23.8361 C   0  0  1  0  0  0
  -27.2414  -27.4375   20.0967 C   0  0  0  0  0  0
  -25.5878  -33.8608   24.2298 N   0  0  0  0  0  0
  -23.3939  -30.4872   21.5494 C   0  0  2  0  0  0
  -24.8394  -28.9452   20.1137 C   0  0  0  0  0  0
  -22.7337  -29.4632   22.4987 C   0  0  0  0  0  0
  -18.0249  -28.1397   22.8501 C   0  0  0  0  0  0
  -24.1473  -36.7313   23.2638 C   0  0  0  0  0  0
  -25.9164  -30.8297   21.3563 C   0  0  0  0  0  0
  -25.9940  -29.4605   20.7142 C   0  0  0  0  0  0
  -27.1873  -28.7084   20.7118 C   0  0  0  0  0  0
  -26.0678  -26.9278   19.4934 C   0  0  0  0  0  0
  -24.8710  -27.6763   19.5060 C   0  0  0  0  0  0
  -23.6009  -29.8145   20.1626 C   0  0  0  0  0  0
  -25.4109  -36.3098   24.0320 C   0  0  1  0  0  0
  -20.5823  -28.3669   23.1339 C   0  0  2  0  0  0
  -20.6739  -26.9411   22.5433 C   0  0  0  0  0  0
  -19.5733  -26.6404   21.5220 C   0  0  0  0  0  0
  -18.1905  -26.7946   22.1619 C   0  0  0  0  0  0
  -19.1492  -28.8858   23.2920 C   0  0  0  0  0  0
  -18.9435  -30.1468   23.8919 C   0  0  0  0  0  0
  -17.6447  -30.6617   24.0587 C   0  0  0  0  0  0
  -25.9045  -34.9465   23.5101 C   0  0  0  0  0  0
  -16.5335  -29.9125   23.6338 C   0  0  0  0  0  0
  -16.7250  -28.6542   23.0353 C   0  0  0  0  0  0
  -26.4467  -31.6595   25.0683 C   0  0  0  0  0  0
  -25.3773  -31.3646   26.1449 C   0  0  0  0  0  0
  -27.0325  -30.3061   24.6021 C   0  0  0  0  0  0
  -27.6029  -32.4321   25.7477 C   0  0  0  0  0  0
  -27.5572  -37.1803   24.8465 C   0  0  0  0  0  0
  -21.4064  -29.3026   22.3732 N   0  0  0  0  0  0
  -26.4280  -37.3797   23.9422 N   0  0  0  0  0  0
  -24.6591  -31.0733   22.0996 N   0  0  0  0  0  0
  -23.4118  -28.8191   23.3038 O   0  0  0  0  0  0
  -28.4577  -26.7834   20.1238 O   0  0  0  0  0  0
  -26.5593  -34.8932   22.4654 O   0  0  0  0  0  0
  -23.5300  -32.1399   23.7519 O   0  0  0  0  0  0
  -29.6891  -20.7462   20.5891 C   0  0  0  0  0  0
  -29.3873  -22.1946   22.3002 C   0  0  0  0  0  0
  -29.4232  -22.0995   20.9400 C   0  0  0  0  0  0
  -29.7018  -20.0093   21.7477 C   0  0  0  0  0  0
  -26.5982  -17.4486   25.9698 C   0  0  0  0  0  0
  -26.7466  -17.7389   27.4486 C   0  0  0  0  0  0
  -28.9748  -17.7243   20.9237 C   0  0  0  0  0  0
  -31.2215  -17.9227   21.8691 C   0  0  0  0  0  0
  -28.9536  -16.2104   21.2267 C   0  0  0  0  0  0
  -31.2132  -16.4028   22.2027 C   0  0  0  0  0  0
  -29.8047  -18.5066   21.9428 C   0  0  0  0  0  0
  -26.8128  -18.8645   26.4439 C   0  0  0  0  0  0
  -28.1127  -19.5693   26.1176 C   0  0  0  0  0  0
  -28.1158  -20.1216   24.6845 C   0  0  0  0  0  0
  -29.5078  -20.5988   24.2327 C   0  0  0  0  0  0
  -28.4655  -24.3244   20.4226 C   0  0  0  0  0  0
  -28.6700  -25.5282   19.4697 C   0  0  0  0  0  0
  -29.5439  -20.9118   22.8099 N   0  0  0  0  0  0
  -30.2852  -15.5840   21.3772 N   0  0  0  0  0  0
  -29.2264  -23.1339   20.0118 N   0  0  0  0  0  0
  -31.4615  -12.4678   19.1434 H   0  0  0  0  0  0
  -30.3382  -11.3872   19.9046 H   0  0  0  0  0  0
  -29.7702  -11.7443   17.4806 H   0  0  0  0  0  0
  -29.6294  -13.4676   17.7473 H   0  0  0  0  0  0
  -27.8866  -11.2541   18.8902 H   0  0  0  0  0  0
  -27.3662  -12.5092   17.7976 H   0  0  0  0  0  0
  -27.6292  -14.1940   19.4368 H   0  0  0  0  0  0
  -28.7028  -12.0781   21.4044 H   0  0  0  0  0  0
  -28.4251  -13.7310   21.8257 H   0  0  0  0  0  0
  -25.2783   -9.5685   22.4727 H   0  0  0  0  0  0
  -24.0010   -7.4643   22.7488 H   0  0  0  0  0  0
  -21.0860   -8.8764   19.8924 H   0  0  0  0  0  0
  -22.3720  -10.9661   19.6137 H   0  0  0  0  0  0
  -21.2004   -7.6150   23.9735 H   0  0  0  0  0  0
  -21.1456   -6.0508   25.9079 H   0  0  0  0  0  0
  -22.0598   -2.7615   23.2839 H   0  0  0  0  0  0
  -22.4102  -11.9910   22.4835 H   0  0  0  0  0  0
  -21.1074  -13.1205   22.2541 H   0  0  0  0  0  0
  -24.6608  -15.8364   20.5349 H   0  0  0  0  0  0
  -26.2822  -15.6314   20.1068 H   0  0  0  0  0  0
  -26.7043  -32.5518   23.1105 H   0  0  0  0  0  0
  -25.0058  -33.9791   25.0456 H   0  0  0  0  0  0
  -22.6820  -31.3039   21.4108 H   0  0  0  0  0  0
  -23.3739  -35.9637   23.3302 H   0  0  0  0  0  0
  -24.3549  -36.8954   22.2051 H   0  0  0  0  0  0
  -23.7240  -37.6516   23.6680 H   0  0  0  0  0  0
  -26.0099  -31.5860   20.5758 H   0  0  0  0  0  0
  -26.8096  -30.8972   21.9632 H   0  0  0  0  0  0
  -28.0762  -29.1036   21.1826 H   0  0  0  0  0  0
  -26.0548  -25.9603   19.0119 H   0  0  0  0  0  0
  -23.9811  -27.2724   19.0421 H   0  0  0  0  0  0
  -23.7091  -30.5901   19.4028 H   0  0  0  0  0  0
  -22.7203  -29.2386   19.8691 H   0  0  0  0  0  0
  -25.1286  -36.1947   25.0809 H   0  0  0  0  0  0
  -20.9912  -28.3267   24.1458 H   0  0  0  0  0  0
  -20.5670  -26.2274   23.3609 H   0  0  0  0  0  0
  -21.6623  -26.7467   22.1245 H   0  0  0  0  0  0
  -19.6903  -25.6324   21.1239 H   0  0  0  0  0  0
  -19.6695  -27.3216   20.6756 H   0  0  0  0  0  0
  -17.4166  -26.6699   21.4017 H   0  0  0  0  0  0
  -18.0300  -26.0093   22.9016 H   0  0  0  0  0  0
  -19.7919  -30.7285   24.2281 H   0  0  0  0  0  0
  -17.5016  -31.6284   24.5205 H   0  0  0  0  0  0
  -15.5353  -30.3049   23.7680 H   0  0  0  0  0  0
  -15.8632  -28.0907   22.7035 H   0  0  0  0  0  0
  -24.5971  -30.6955   25.7806 H   0  0  0  0  0  0
  -24.8927  -32.2768   26.4929 H   0  0  0  0  0  0
  -25.8179  -30.8825   27.0187 H   0  0  0  0  0  0
  -26.2848  -29.6787   24.1144 H   0  0  0  0  0  0
  -27.4219  -29.7325   25.4448 H   0  0  0  0  0  0
  -27.8618  -30.4429   23.9073 H   0  0  0  0  0  0
  -27.2638  -33.3622   26.2054 H   0  0  0  0  0  0
  -28.3870  -32.6877   25.0335 H   0  0  0  0  0  0
  -28.0653  -31.8432   26.5411 H   0  0  0  0  0  0
  -28.2568  -38.0118   24.7545 H   0  0  0  0  0  0
  -28.1089  -36.2648   24.6268 H   0  0  0  0  0  0
  -27.2273  -37.1437   25.8861 H   0  0  0  0  0  0
  -20.9196  -29.8753   21.6977 H   0  0  0  0  0  0
  -26.0149  -38.2849   24.1507 H   0  0  0  0  0  0
  -29.7995  -20.3358   19.5961 H   0  0  0  0  0  0
  -29.2342  -23.0356   22.9645 H   0  0  0  0  0  0
  -25.6107  -17.1974   25.5882 H   0  0  0  0  0  0
  -27.4293  -16.9620   25.4610 H   0  0  0  0  0  0
  -27.6721  -17.4333   27.9351 H   0  0  0  0  0  0
  -25.8514  -17.6642   28.0642 H   0  0  0  0  0  0
  -27.9510  -18.1049   20.9107 H   0  0  0  0  0  0
  -29.3688  -17.8933   19.9215 H   0  0  0  0  0  0
  -31.6402  -18.0905   20.8757 H   0  0  0  0  0  0
  -31.8764  -18.4504   22.5657 H   0  0  0  0  0  0
  -28.4150  -15.7707   20.4034 H   0  0  0  0  0  0
  -28.3694  -16.0269   22.1292 H   0  0  0  0  0  0
  -30.9195  -16.2761   23.2460 H   0  0  0  0  0  0
  -32.2379  -16.0325   22.1515 H   0  0  0  0  0  0
  -29.4078  -18.2546   22.9259 H   0  0  0  0  0  0
  -25.9403  -19.5142   26.4033 H   0  0  0  0  0  0
  -28.9345  -18.8642   26.2441 H   0  0  0  0  0  0
  -28.2781  -20.3701   26.8403 H   0  0  0  0  0  0
  -27.3975  -20.9375   24.6060 H   0  0  0  0  0  0
  -27.7571  -19.3458   24.0079 H   0  0  0  0  0  0
  -30.2610  -19.8402   24.4423 H   0  0  0  0  0  0
  -29.7990  -21.4817   24.8024 H   0  0  0  0  0  0
  -27.4045  -24.0782   20.4890 H   0  0  0  0  0  0
  -28.7803  -24.6236   21.4216 H   0  0  0  0  0  0
  -28.1192  -25.4331   18.5344 H   0  0  0  0  0  0
  -29.7216  -25.5522   19.1774 H   0  0  0  0  0  0
  -29.1219  -22.8469   19.0403 H   0  0  0  0  0  0
  1 25  1  0  0  0
  1 30  2  0  0  0
  1 89  1  0  0  0
  2  3  1  0  0  0
  2 25  1  0  0  0
  2 91  1  0  0  0
  2 92  1  0  0  0
  3  4  1  0  0  0
  3 93  1  0  0  0
  3 94  1  0  0  0
  4  5  1  0  0  0
  4 95  1  0  0  0
  4 96  1  0  0  0
  5  6  1  0  0  0
  5 26  1  0  0  0
  5 97  1  0  0  0
  6 25  1  0  0  0
  6 98  1  0  0  0
  6 99  1  0  0  0
  7  8  2  0  0  0
  7 26  1  0  0  0
  7 29  1  0  0  0
  8  9  1  0  0  0
  8 22  1  0  0  0
  9 10  1  0  0  0
  9 27  2  0  0  0
 10 11  2  0  0  0
 10 15  1  0  0  0
 11 12  1  0  0  0
 11100  1  0  0  0
 12 13  2  0  0  0
 12101  1  0  0  0
 13 14  1  0  0  0
 13 31  1  0  0  0
 14 15  2  0  0  0
 14102  1  0  0  0
 15103  1  0  0  0
 16 17  2  0  0  0
 16 21  1  0  0  0
 16 31  1  0  0  0
 17 18  1  0  0  0
 17104  1  0  0  0
 18 19  2  0  0  0
 18105  1  0  0  0
 19 20  1  0  0  0
 19 24  1  0  0  0
 20 21  2  0  0  0
 20106  1  0  0  0
 21 23  1  0  0  0
 22 28  1  0  0  0
 22 32  2  0  0  0
 26 27  1  0  0  0
 28107  1  0  0  0
 28108  1  0  0  0
 29109  1  0  0  0
 29110  1  0  0  0
 33 34  1  0  0  0
 33 66  1  0  0  0
 33 70  2  0  0  0
 34 36  1  0  0  0
 34 59  1  0  0  0
 34111  1  0  0  0
 35 44  2  0  0  0
 35 45  1  0  0  0
 35 68  1  0  0  0
 36 56  1  0  0  0
 36112  1  0  0  0
 37 39  1  0  0  0
 37 47  1  0  0  0
 37 66  1  0  0  0
 37113  1  0  0  0
 38 43  2  0  0  0
 38 46  1  0  0  0
 38 47  1  0  0  0
 39 64  1  0  0  0
 39 67  2  0  0  0
 40 52  1  0  0  0
 40 53  2  0  0  0
 40 58  1  0  0  0
 41114  1  0  0  0
 41115  1  0  0  0
 41116  1  0  0  0
 41 48  1  0  0  0
 42 43  1  0  0  0
 42 66  1  0  0  0
 42117  1  0  0  0
 42118  1  0  0  0
 43 44  1  0  0  0
 44119  1  0  0  0
 45 46  2  0  0  0
 45120  1  0  0  0
 46121  1  0  0  0
 47122  1  0  0  0
 47123  1  0  0  0
 48 56  1  0  0  0
 48 65  1  0  0  0
 48124  1  0  0  0
 49 50  1  0  0  0
 49 53  1  0  0  0
 49 64  1  0  0  0
 49125  1  0  0  0
 50 51  1  0  0  0
 50126  1  0  0  0
 50127  1  0  0  0
 51 52  1  0  0  0
 51128  1  0  0  0
 51129  1  0  0  0
 52130  1  0  0  0
 52131  1  0  0  0
 53 54  1  0  0  0
 54 55  2  0  0  0
 54132  1  0  0  0
 55 57  1  0  0  0
 55133  1  0  0  0
 56 69  2  0  0  0
 57 58  2  0  0  0
 57134  1  0  0  0
 58135  1  0  0  0
 59 60  1  0  0  0
 59 61  1  0  0  0
 59 62  1  0  0  0
 60136  1  0  0  0
 60137  1  0  0  0
 60138  1  0  0  0
 61139  1  0  0  0
 61140  1  0  0  0
 61141  1  0  0  0
 62142  1  0  0  0
 62143  1  0  0  0
 62144  1  0  0  0
 63 65  1  0  0  0
 63145  1  0  0  0
 63146  1  0  0  0
 63147  1  0  0  0
 64148  1  0  0  0
 65149  1  0  0  0
 68 87  1  0  0  0
 71 73  1  0  0  0
 71 74  2  0  0  0
 71150  1  0  0  0
 72 73  2  0  0  0
 72 88  1  0  0  0
 72151  1  0  0  0
 73 90  1  0  0  0
 74 88  1  0  0  0
 74 81  1  0  0  0
 75 76  1  0  0  0
 75 82  1  0  0  0
 75152  1  0  0  0
 75153  1  0  0  0
 76 82  1  0  0  0
 76154  1  0  0  0
 76155  1  0  0  0
 77 79  1  0  0  0
 77 81  1  0  0  0
 77156  1  0  0  0
 77157  1  0  0  0
 78 80  1  0  0  0
 78 81  1  0  0  0
 78158  1  0  0  0
 78159  1  0  0  0
 79 89  1  0  0  0
 79160  1  0  0  0
 79161  1  0  0  0
 80 89  1  0  0  0
 80162  1  0  0  0
 80163  1  0  0  0
 81164  1  0  0  0
 82 83  1  0  0  0
 82165  1  0  0  0
 83 84  1  0  0  0
 83166  1  0  0  0
 83167  1  0  0  0
 84 85  1  0  0  0
 84168  1  0  0  0
 84169  1  0  0  0
 85 88  1  0  0  0
 85170  1  0  0  0
 85171  1  0  0  0
 86 87  1  0  0  0
 86 90  1  0  0  0
 86172  1  0  0  0
 86173  1  0  0  0
 87174  1  0  0  0
 87175  1  0  0  0
 90176  1  0  0  0
M  ISO  4   1 100  68 101  87 101  89 100
M  END
> <chiral flag>
0

> <version>
0

> <s_m_source_file>
/data/baiqing/PycharmProjects/Reinvent-master-3.2/result/LINK_invent/BTK/process_docking_weight1_custom_sum_contain_oxygen_bond_distance_aromatic_linkinvent_7_9_3/rearranged_h_0140.sdf

> <i_m_source_file_index>
9

> <r_mmod_Potential_Energy-OPLS-2005>
189.553115844727

> <r_mmod_Stretch_Energy-OPLS-2005>
44.4011459350586

> <r_mmod_Bend_Energy-OPLS-2005>
140.501556396484

> <r_mmod_Torsional_Energy-OPLS-2005>
360.957946777344

> <r_mmod_Improper_Torsional_Energy-OPLS-2005>
5.19948625564575

> <r_mmod_Van_der_Waal_Energy-OPLS-2005>
132.817092895508

> <r_mmod_Electrostatic_Energy-OPLS-2005>
-303.256866455078

> <r_mmod_Solvation_Energy-OPLS-2005>
-214.463012695312

> <b_mmod_Minimization_Converged-OPLS-2005>
0

> <r_mmod_RMS_Derivative-OPLS-2005>
4.08115196228027

$$$$
9
                    3D
 Structure written by MMmdl.
173183  0  0  1  0            999 V2000
  -30.6460  -14.6121   20.4768 C   0  0  0  0  0  0
  -30.4480  -12.3709   19.4495 C   0  0  0  0  0  0
  -29.5154  -12.5123   18.2235 C   0  0  0  0  0  0
  -28.0355  -12.3601   18.6340 C   0  0  0  0  0  0
  -27.6630  -13.2089   19.8802 C   0  0  2  0  0  0
  -28.7183  -13.0510   21.0036 C   0  0  0  0  0  0
  -25.2601  -13.8151   20.5691 C   0  0  0  0  0  0
  -24.1838  -13.0430   20.9172 C   0  0  0  0  0  0
  -24.6401  -11.6884   20.8750 C   0  0  0  0  0  0
  -23.9064  -10.4266   21.0405 C   0  0  0  0  0  0
  -24.3595   -9.4187   21.9191 C   0  0  0  0  0  0
  -23.6242   -8.2244   22.0804 C   0  0  0  0  0  0
  -22.4227   -8.0292   21.3588 C   0  0  0  0  0  0
  -21.9851   -9.0270   20.4701 C   0  0  0  0  0  0
  -22.7224  -10.2128   20.3071 C   0  0  0  0  0  0
  -21.6825   -6.0722   22.5270 C   0  0  0  0  0  0
  -21.4024   -6.5628   23.8210 C   0  0  0  0  0  0
  -21.3653   -5.6784   24.9173 C   0  0  0  0  0  0
  -21.6034   -4.3045   24.7226 C   0  0  0  0  0  0
  -21.8804   -3.8136   23.4347 C   0  0  0  0  0  0
  -21.9186   -4.6952   22.3403 C   0  0  0  0  0  0
  -22.7849  -13.5259   21.1763 C   0  0  0  0  0  0
  -22.1631   -4.2143   21.0977 F   0  0  0  0  0  0
  -21.5626   -3.4527   25.7738 F   0  0  0  0  0  0
  -30.0396  -13.3850   20.4381 N   0  0  0  0  0  0
  -26.3050  -12.9310   20.3411 N   0  0  0  0  0  0
  -25.9351  -11.6469   20.5808 N   0  0  0  0  0  0
  -22.0404  -12.8369   22.0324 N   0  0  0  0  0  0
  -25.4294  -15.1879   20.4106 N   0  0  0  0  0  0
  -31.7809  -14.7974   20.0334 O   0  0  0  0  0  0
  -21.6617   -6.8875   21.4238 O   0  0  0  0  0  0
  -22.3565  -14.5539   20.6557 O   0  0  0  0  0  0
  -24.6282  -31.8605   23.1944 C   0  0  0  0  0  0
  -25.9087  -32.4801   23.8335 C   0  0  1  0  0  0
  -27.2467  -27.3447   20.0993 C   0  0  0  0  0  0
  -25.5793  -33.8578   24.2219 N   0  0  0  0  0  0
  -23.4217  -30.4762   21.5413 C   0  0  2  0  0  0
  -24.8691  -28.9185   20.1310 C   0  0  0  0  0  0
  -22.7458  -29.4610   22.4963 C   0  0  0  0  0  0
  -18.0246  -28.1418   22.8492 C   0  0  0  0  0  0
  -24.1441  -36.7346   23.2639 C   0  0  0  0  0  0
  -25.9592  -30.8023   21.3550 C   0  0  0  0  0  0
  -26.0389  -29.4235   20.7091 C   0  0  0  0  0  0
  -27.2324  -28.6478   20.6799 C   0  0  0  0  0  0
  -26.0482  -26.8723   19.5289 C   0  0  0  0  0  0
  -24.8683  -27.6402   19.5442 C   0  0  0  0  0  0
  -23.6382  -29.7931   20.1668 C   0  0  0  0  0  0
  -25.4080  -36.3088   24.0287 C   0  0  1  0  0  0
  -20.5865  -28.3709   23.1313 C   0  0  2  0  0  0
  -20.6733  -26.9427   22.5444 C   0  0  0  0  0  0
  -19.5705  -26.6400   21.5239 C   0  0  0  0  0  0
  -18.1893  -26.7958   22.1637 C   0  0  0  0  0  0
  -19.1522  -28.8883   23.2904 C   0  0  0  0  0  0
  -18.9431  -30.1473   23.8939 C   0  0  0  0  0  0
  -17.6438  -30.6615   24.0595 C   0  0  0  0  0  0
  -25.9010  -34.9457   23.5071 C   0  0  0  0  0  0
  -16.5328  -29.9133   23.6312 C   0  0  0  0  0  0
  -16.7252  -28.6557   23.0341 C   0  0  0  0  0  0
  -26.4464  -31.6632   25.0732 C   0  0  0  0  0  0
  -25.3684  -31.3785   26.1446 C   0  0  0  0  0  0
  -27.0298  -30.3030   24.6242 C   0  0  0  0  0  0
  -27.6045  -32.4370   25.7461 C   0  0  0  0  0  0
  -27.5548  -37.1801   24.8442 C   0  0  0  0  0  0
  -21.4186  -29.3053   22.3705 N   0  0  0  0  0  0
  -26.4255  -37.3780   23.9391 N   0  0  0  0  0  0
  -24.6900  -31.0647   22.0885 N   0  0  0  0  0  0
  -23.4196  -28.8155   23.3051 O   0  0  0  0  0  0
  -28.4119  -26.5706   20.0813 O   0  0  0  0  0  0
  -26.5683  -34.8927   22.4709 O   0  0  0  0  0  0
  -23.5443  -32.1369   23.7276 O   0  0  0  0  0  0
  -32.7535  -22.0679   19.4318 C   0  0  0  0  0  0
  -32.9722  -20.5853   19.2530 C   0  0  0  0  0  0
  -29.6054  -23.0698   21.2846 C   0  0  0  0  0  0
  -29.2938  -23.0605   18.7645 C   0  0  0  0  0  0
  -29.5550  -24.6083   21.0436 C   0  0  0  0  0  0
  -28.3308  -24.3041   18.8603 C   0  0  0  0  0  0
  -30.0101  -18.7378   18.5381 C   0  0  0  0  0  0
  -30.3375  -18.3001   20.8719 C   0  0  0  0  0  0
  -31.5939  -21.1789   19.0568 C   0  0  0  0  0  0
  -29.3931  -22.1501   20.0418 C   0  0  1  0  0  0
  -29.8470  -19.4426   19.9035 C   0  0  1  0  0  0
  -29.7404  -17.2285   18.7607 C   0  0  1  0  0  0
  -29.6314  -17.0351   20.2881 C   0  0  1  0  0  0
  -28.3510  -25.1042   20.2061 C   0  0  2  0  0  0
  -28.4863  -16.7758   18.0100 C   0  0  0  0  0  0
  -30.4326  -20.9188   20.0246 C   0  0  1  0  0  0
  -29.8299  -15.6436   20.8252 N   0  0  0  0  0  0
  -31.4932  -12.4776   19.1554 H   0  0  0  0  0  0
  -30.3693  -11.3738   19.8860 H   0  0  0  0  0  0
  -29.7746  -11.7719   17.4631 H   0  0  0  0  0  0
  -29.6700  -13.4872   17.7532 H   0  0  0  0  0  0
  -27.8568  -11.3053   18.8407 H   0  0  0  0  0  0
  -27.3859  -12.6227   17.7991 H   0  0  0  0  0  0
  -27.6785  -14.2479   19.5632 H   0  0  0  0  0  0
  -28.7259  -12.0280   21.3820 H   0  0  0  0  0  0
  -28.4765  -13.6751   21.8664 H   0  0  0  0  0  0
  -25.2742   -9.5634   22.4775 H   0  0  0  0  0  0
  -23.9932   -7.4618   22.7533 H   0  0  0  0  0  0
  -21.0773   -8.8808   19.9002 H   0  0  0  0  0  0
  -22.3707  -10.9664   19.6166 H   0  0  0  0  0  0
  -21.2038   -7.6136   23.9713 H   0  0  0  0  0  0
  -21.1473   -6.0514   25.9073 H   0  0  0  0  0  0
  -22.0594   -2.7604   23.2843 H   0  0  0  0  0  0
  -22.3919  -12.0086   22.4874 H   0  0  0  0  0  0
  -21.1044  -13.1526   22.2437 H   0  0  0  0  0  0
  -24.6570  -15.8382   20.5087 H   0  0  0  0  0  0
  -26.2857  -15.6285   20.0972 H   0  0  0  0  0  0
  -26.7158  -32.5513   23.1101 H   0  0  0  0  0  0
  -24.9709  -33.9715   25.0202 H   0  0  0  0  0  0
  -22.7161  -31.2939   21.3834 H   0  0  0  0  0  0
  -23.3648  -35.9727   23.3323 H   0  0  0  0  0  0
  -24.3549  -36.9011   22.2058 H   0  0  0  0  0  0
  -23.7232  -37.6539   23.6729 H   0  0  0  0  0  0
  -26.0662  -31.5522   20.5693 H   0  0  0  0  0  0
  -26.8491  -30.8756   21.9680 H   0  0  0  0  0  0
  -28.1412  -29.0335   21.1145 H   0  0  0  0  0  0
  -26.0193  -25.8965   19.0674 H   0  0  0  0  0  0
  -23.9621  -27.2378   19.1158 H   0  0  0  0  0  0
  -23.7647  -30.5557   19.3980 H   0  0  0  0  0  0
  -22.7659  -29.2120   19.8667 H   0  0  0  0  0  0
  -25.1251  -36.1926   25.0769 H   0  0  0  0  0  0
  -20.9949  -28.3289   24.1438 H   0  0  0  0  0  0
  -20.5637  -26.2314   23.3657 H   0  0  0  0  0  0
  -21.6608  -26.7458   22.1247 H   0  0  0  0  0  0
  -19.6860  -25.6306   21.1266 H   0  0  0  0  0  0
  -19.6632  -27.3230   20.6800 H   0  0  0  0  0  0
  -17.4141  -26.6716   21.4043 H   0  0  0  0  0  0
  -18.0270  -26.0127   22.9061 H   0  0  0  0  0  0
  -19.7926  -30.7279   24.2345 H   0  0  0  0  0  0
  -17.4999  -31.6295   24.5202 H   0  0  0  0  0  0
  -15.5334  -30.3060   23.7618 H   0  0  0  0  0  0
  -15.8644  -28.0904   22.7020 H   0  0  0  0  0  0
  -24.5833  -30.7184   25.7750 H   0  0  0  0  0  0
  -24.8916  -32.2942   26.4922 H   0  0  0  0  0  0
  -25.7963  -30.8896   27.0194 H   0  0  0  0  0  0
  -26.2900  -29.6755   24.1242 H   0  0  0  0  0  0
  -27.3895  -29.7308   25.4811 H   0  0  0  0  0  0
  -27.8791  -30.4289   23.9529 H   0  0  0  0  0  0
  -27.2659  -33.3662   26.2049 H   0  0  0  0  0  0
  -28.3796  -32.6962   25.0233 H   0  0  0  0  0  0
  -28.0782  -31.8512   26.5344 H   0  0  0  0  0  0
  -28.2546  -38.0116   24.7497 H   0  0  0  0  0  0
  -28.1023  -36.2629   24.6201 H   0  0  0  0  0  0
  -27.2308  -37.1437   25.8862 H   0  0  0  0  0  0
  -20.9353  -29.8810   21.6950 H   0  0  0  0  0  0
  -26.0103  -38.2814   24.1465 H   0  0  0  0  0  0
  -33.1505  -22.7321   18.6637 H   0  0  0  0  0  0
  -32.7973  -22.4547   20.4477 H   0  0  0  0  0  0
  -33.1540  -19.9858   20.1433 H   0  0  0  0  0  0
  -33.5166  -20.2694   18.3621 H   0  0  0  0  0  0
  -28.8869  -22.7894   22.0527 H   0  0  0  0  0  0
  -30.5805  -22.8705   21.7338 H   0  0  0  0  0  0
  -30.2828  -23.4483   18.5155 H   0  0  0  0  0  0
  -28.9937  -22.4551   17.9079 H   0  0  0  0  0  0
  -30.4804  -24.9078   20.5483 H   0  0  0  0  0  0
  -29.5616  -25.1107   22.0128 H   0  0  0  0  0  0
  -27.3086  -23.9825   18.6525 H   0  0  0  0  0  0
  -28.5777  -24.9796   18.0380 H   0  0  0  0  0  0
  -31.0302  -18.8299   18.1623 H   0  0  0  0  0  0
  -29.3600  -19.1807   17.7822 H   0  0  0  0  0  0
  -30.0636  -18.4952   21.9100 H   0  0  0  0  0  0
  -31.4224  -18.1849   20.8303 H   0  0  0  0  0  0
  -31.2778  -21.2472   18.0154 H   0  0  0  0  0  0
  -28.3948  -21.7252   20.1585 H   0  0  0  0  0  0
  -28.7766  -19.5315   20.0861 H   0  0  0  0  0  0
  -30.5943  -16.6687   18.3748 H   0  0  0  0  0  0
  -28.5804  -17.2000   20.5299 H   0  0  0  0  0  0
  -27.4622  -24.8399   20.7803 H   0  0  0  0  0  0
  -27.6033  -17.2905   18.3900 H   0  0  0  0  0  0
  -28.3331  -15.7064   18.1044 H   0  0  0  0  0  0
  -28.5698  -17.0019   16.9482 H   0  0  0  0  0  0
  -30.8839  -20.8965   21.0189 H   0  0  0  0  0  0
  -28.9966  -15.2904   21.2679 H   0  0  0  0  0  0
  1 25  1  0  0  0
  1 30  2  0  0  0
  1 87  1  0  0  0
  2  3  1  0  0  0
  2 25  1  0  0  0
  2 88  1  0  0  0
  2 89  1  0  0  0
  3  4  1  0  0  0
  3 90  1  0  0  0
  3 91  1  0  0  0
  4  5  1  0  0  0
  4 92  1  0  0  0
  4 93  1  0  0  0
  5  6  1  0  0  0
  5 26  1  0  0  0
  5 94  1  0  0  0
  6 25  1  0  0  0
  6 95  1  0  0  0
  6 96  1  0  0  0
  7  8  2  0  0  0
  7 26  1  0  0  0
  7 29  1  0  0  0
  8  9  1  0  0  0
  8 22  1  0  0  0
  9 10  1  0  0  0
  9 27  2  0  0  0
 10 11  2  0  0  0
 10 15  1  0  0  0
 11 12  1  0  0  0
 11 97  1  0  0  0
 12 13  2  0  0  0
 12 98  1  0  0  0
 13 14  1  0  0  0
 13 31  1  0  0  0
 14 15  2  0  0  0
 14 99  1  0  0  0
 15100  1  0  0  0
 16 17  2  0  0  0
 16 21  1  0  0  0
 16 31  1  0  0  0
 17 18  1  0  0  0
 17101  1  0  0  0
 18 19  2  0  0  0
 18102  1  0  0  0
 19 20  1  0  0  0
 19 24  1  0  0  0
 20 21  2  0  0  0
 20103  1  0  0  0
 21 23  1  0  0  0
 22 28  1  0  0  0
 22 32  2  0  0  0
 26 27  1  0  0  0
 28104  1  0  0  0
 28105  1  0  0  0
 29106  1  0  0  0
 29107  1  0  0  0
 33 34  1  0  0  0
 33 66  1  0  0  0
 33 70  2  0  0  0
 34 36  1  0  0  0
 34 59  1  0  0  0
 34108  1  0  0  0
 35 44  2  0  0  0
 35 45  1  0  0  0
 35 68  1  0  0  0
 36 56  1  0  0  0
 36109  1  0  0  0
 37 39  1  0  0  0
 37 47  1  0  0  0
 37 66  1  0  0  0
 37110  1  0  0  0
 38 43  2  0  0  0
 38 46  1  0  0  0
 38 47  1  0  0  0
 39 64  1  0  0  0
 39 67  2  0  0  0
 40 52  1  0  0  0
 40 53  2  0  0  0
 40 58  1  0  0  0
 41111  1  0  0  0
 41112  1  0  0  0
 41113  1  0  0  0
 41 48  1  0  0  0
 42 43  1  0  0  0
 42 66  1  0  0  0
 42114  1  0  0  0
 42115  1  0  0  0
 43 44  1  0  0  0
 44116  1  0  0  0
 45 46  2  0  0  0
 45117  1  0  0  0
 46118  1  0  0  0
 47119  1  0  0  0
 47120  1  0  0  0
 48 56  1  0  0  0
 48 65  1  0  0  0
 48121  1  0  0  0
 49 50  1  0  0  0
 49 53  1  0  0  0
 49 64  1  0  0  0
 49122  1  0  0  0
 50 51  1  0  0  0
 50123  1  0  0  0
 50124  1  0  0  0
 51 52  1  0  0  0
 51125  1  0  0  0
 51126  1  0  0  0
 52127  1  0  0  0
 52128  1  0  0  0
 53 54  1  0  0  0
 54 55  2  0  0  0
 54129  1  0  0  0
 55 57  1  0  0  0
 55130  1  0  0  0
 56 69  2  0  0  0
 57 58  2  0  0  0
 57131  1  0  0  0
 58132  1  0  0  0
 59 60  1  0  0  0
 59 61  1  0  0  0
 59 62  1  0  0  0
 60133  1  0  0  0
 60134  1  0  0  0
 60135  1  0  0  0
 61136  1  0  0  0
 61137  1  0  0  0
 61138  1  0  0  0
 62139  1  0  0  0
 62140  1  0  0  0
 62141  1  0  0  0
 63 65  1  0  0  0
 63142  1  0  0  0
 63143  1  0  0  0
 63144  1  0  0  0
 64145  1  0  0  0
 65146  1  0  0  0
 68 84  1  0  0  0
 71 72  1  0  0  0
 71147  1  0  0  0
 71148  1  0  0  0
 71 79  1  0  0  0
 72 79  1  0  0  0
 72149  1  0  0  0
 72150  1  0  0  0
 73 75  1  0  0  0
 73151  1  0  0  0
 73152  1  0  0  0
 73 80  1  0  0  0
 74 76  1  0  0  0
 74 80  1  0  0  0
 74153  1  0  0  0
 74154  1  0  0  0
 75 84  1  0  0  0
 75155  1  0  0  0
 75156  1  0  0  0
 76 84  1  0  0  0
 76157  1  0  0  0
 76158  1  0  0  0
 77 82  1  0  0  0
 77159  1  0  0  0
 77160  1  0  0  0
 77 81  1  0  0  0
 78 81  1  0  0  0
 78 83  1  0  0  0
 78161  1  0  0  0
 78162  1  0  0  0
 79163  1  0  0  0
 79 86  1  0  0  0
 80 86  1  0  0  0
 80164  1  0  0  0
 81 86  1  0  0  0
 81165  1  0  0  0
 82 83  1  0  0  0
 82 85  1  0  0  0
 82166  1  0  0  0
 83 87  1  0  0  0
 83167  1  0  0  0
 84168  1  0  0  0
 85169  1  0  0  0
 85170  1  0  0  0
 85171  1  0  0  0
 86172  1  0  0  0
 87173  1  0  0  0
M  ISO  4   1 100  68 101  84 101  87 100
M  END
> <chiral flag>
0

> <version>
0

> <s_m_source_file>
/data/baiqing/PycharmProjects/Reinvent-master-3.2/result/LINK_invent/BTK/process_docking_weight1_custom_sum_contain_oxygen_bond_distance_aromatic_linkinvent_7_9_3/rearranged_h_0140.sdf

> <i_m_source_file_index>
10

> <r_mmod_Potential_Energy-OPLS-2005>
243.972427368164

> <r_mmod_Stretch_Energy-OPLS-2005>
73.910026550293

> <r_mmod_Bend_Energy-OPLS-2005>
203.640045166016

> <r_mmod_Torsional_Energy-OPLS-2005>
386.063720703125

> <r_mmod_Improper_Torsional_Energy-OPLS-2005>
6.94741725921631

> <r_mmod_Van_der_Waal_Energy-OPLS-2005>
120.363990783691

> <r_mmod_Electrostatic_Energy-OPLS-2005>
-389.565216064453

> <r_mmod_Solvation_Energy-OPLS-2005>
-194.596923828125

> <b_mmod_Minimization_Converged-OPLS-2005>
0

> <r_mmod_RMS_Derivative-OPLS-2005>
6.26706647872925

$$$$
10
                    3D
 Structure written by MMmdl.
168177  0  0  1  0            999 V2000
  -30.7209  -14.4981   20.5179 C   0  0  0  0  0  0
  -30.4108  -12.3101   19.4320 C   0  0  0  0  0  0
  -29.4923  -12.4926   18.2079 C   0  0  0  0  0  0
  -28.0121  -12.3606   18.6190 C   0  0  0  0  0  0
  -27.6546  -13.2130   19.8681 C   0  0  2  0  0  0
  -28.7023  -13.0265   20.9892 C   0  0  0  0  0  0
  -25.2563  -13.8177   20.5687 C   0  0  0  0  0  0
  -24.1825  -13.0440   20.9188 C   0  0  0  0  0  0
  -24.6387  -11.6910   20.8738 C   0  0  0  0  0  0
  -23.9058  -10.4294   21.0394 C   0  0  0  0  0  0
  -24.3616   -9.4209   21.9175 C   0  0  0  0  0  0
  -23.6295   -8.2241   22.0742 C   0  0  0  0  0  0
  -22.4278   -8.0276   21.3536 C   0  0  0  0  0  0
  -21.9909   -9.0246   20.4636 C   0  0  0  0  0  0
  -22.7228  -10.2130   20.3047 C   0  0  0  0  0  0
  -21.6855   -6.0732   22.5272 C   0  0  0  0  0  0
  -21.4016   -6.5635   23.8206 C   0  0  0  0  0  0
  -21.3664   -5.6787   24.9172 C   0  0  0  0  0  0
  -21.6047   -4.3047   24.7219 C   0  0  0  0  0  0
  -21.8821   -3.8140   23.4337 C   0  0  0  0  0  0
  -21.9196   -4.6961   22.3396 C   0  0  0  0  0  0
  -22.7845  -13.5234   21.1849 C   0  0  0  0  0  0
  -22.1658   -4.2146   21.0972 F   0  0  0  0  0  0
  -21.5637   -3.4533   25.7733 F   0  0  0  0  0  0
  -30.0188  -13.3333   20.4159 N   0  0  0  0  0  0
  -26.2998  -12.9352   20.3359 N   0  0  0  0  0  0
  -25.9318  -11.6508   20.5779 N   0  0  0  0  0  0
  -22.0490  -12.8229   22.0409 N   0  0  0  0  0  0
  -25.4286  -15.1893   20.4076 N   0  0  0  0  0  0
  -31.9046  -14.5557   20.1724 O   0  0  0  0  0  0
  -21.6641   -6.8873   21.4233 O   0  0  0  0  0  0
  -22.3526  -14.5533   20.6686 O   0  0  0  0  0  0
  -24.6190  -31.8675   23.2102 C   0  0  0  0  0  0
  -25.9077  -32.4813   23.8397 C   0  0  1  0  0  0
  -27.2207  -27.4104   20.0891 C   0  0  0  0  0  0
  -25.5922  -33.8608   24.2324 N   0  0  0  0  0  0
  -23.4056  -30.4954   21.5525 C   0  0  2  0  0  0
  -24.8474  -28.9676   20.1110 C   0  0  0  0  0  0
  -22.7429  -29.4663   22.4980 C   0  0  0  0  0  0
  -18.0276  -28.1376   22.8489 C   0  0  0  0  0  0
  -24.1487  -36.7314   23.2637 C   0  0  0  0  0  0
  -25.9396  -30.8271   21.3666 C   0  0  0  0  0  0
  -26.0136  -29.4634   20.7064 C   0  0  0  0  0  0
  -27.2051  -28.6956   20.6873 C   0  0  0  0  0  0
  -26.0290  -26.9445   19.4817 C   0  0  0  0  0  0
  -24.8525  -27.7095   19.4931 C   0  0  0  0  0  0
  -23.6125  -29.8369   20.1644 C   0  0  0  0  0  0
  -25.4106  -36.3099   24.0333 C   0  0  1  0  0  0
  -20.5871  -28.3665   23.1309 C   0  0  2  0  0  0
  -20.6766  -26.9398   22.5413 C   0  0  0  0  0  0
  -19.5742  -26.6384   21.5212 C   0  0  0  0  0  0
  -18.1922  -26.7921   22.1625 C   0  0  0  0  0  0
  -19.1526  -28.8836   23.2897 C   0  0  0  0  0  0
  -18.9450  -30.1443   23.8908 C   0  0  0  0  0  0
  -17.6451  -30.6576   24.0564 C   0  0  0  0  0  0
  -25.9037  -34.9469   23.5120 C   0  0  0  0  0  0
  -16.5342  -29.9077   23.6323 C   0  0  0  0  0  0
  -16.7264  -28.6499   23.0341 C   0  0  0  0  0  0
  -26.4490  -31.6589   25.0730 C   0  0  0  0  0  0
  -25.3753  -31.3694   26.1474 C   0  0  0  0  0  0
  -27.0321  -30.3028   24.6119 C   0  0  0  0  0  0
  -27.6061  -32.4308   25.7498 C   0  0  0  0  0  0
  -27.5575  -37.1809   24.8461 C   0  0  0  0  0  0
  -21.4155  -29.3038   22.3719 N   0  0  0  0  0  0
  -26.4289  -37.3787   23.9404 N   0  0  0  0  0  0
  -24.6733  -31.0775   22.1007 N   0  0  0  0  0  0
  -23.4197  -28.8193   23.3014 O   0  0  0  0  0  0
  -28.3710  -26.6349   20.1139 O   0  0  0  0  0  0
  -26.5595  -34.8921   22.4678 O   0  0  0  0  0  0
  -23.5379  -32.1433   23.7491 O   0  0  0  0  0  0
  -29.4202  -20.5799   20.2910 C   0  0  0  0  0  0
  -31.0196  -22.0636   19.2929 C   0  0  0  0  0  0
  -30.1361  -19.4652   19.7697 C   0  0  0  0  0  0
  -29.8324  -21.9138   20.0384 C   0  0  0  0  0  0
  -31.2586  -19.7705   18.9485 C   0  0  0  0  0  0
  -29.2676  -17.7219   21.5246 C   0  0  0  0  0  0
  -29.1675  -16.1822   21.5934 C   0  0  0  0  0  0
  -30.4710  -16.8096   19.7227 C   0  0  0  0  0  0
  -29.5942  -18.0310   20.0617 C   0  0  2  0  0  0
  -32.9905  -17.9554   16.1765 C   0  0  0  0  0  0
  -34.3603  -19.2687   17.8482 C   0  0  0  0  0  0
  -28.1683  -25.2027   20.0569 C   0  0  0  0  0  0
  -29.4351  -24.3437   20.2673 C   0  0  0  0  0  0
  -32.9694  -19.0754   17.2253 C   0  0  0  0  0  0
  -31.6939  -21.0304   18.7593 N   0  0  0  0  0  0
  -29.9981  -15.6560   20.5060 N   0  0  0  0  0  0
  -31.9686  -18.7858   18.2496 N   0  0  0  0  0  0
  -29.0588  -22.9681   20.5117 O   0  0  0  0  0  0
  -31.4570  -12.3843   19.1305 H   0  0  0  0  0  0
  -30.2963  -11.3113   19.8556 H   0  0  0  0  0  0
  -29.7335  -11.7561   17.4403 H   0  0  0  0  0  0
  -29.6657  -13.4721   17.7599 H   0  0  0  0  0  0
  -27.8216  -11.3062   18.8235 H   0  0  0  0  0  0
  -27.3648  -12.6271   17.7829 H   0  0  0  0  0  0
  -27.6855  -14.2554   19.5513 H   0  0  0  0  0  0
  -28.6885  -11.9976   21.3516 H   0  0  0  0  0  0
  -28.4778  -13.6434   21.8575 H   0  0  0  0  0  0
  -25.2757   -9.5691   22.4753 H   0  0  0  0  0  0
  -24.0006   -7.4634   22.7458 H   0  0  0  0  0  0
  -21.0843   -8.8755   19.8942 H   0  0  0  0  0  0
  -22.3676  -10.9668   19.6155 H   0  0  0  0  0  0
  -21.1996   -7.6141   23.9709 H   0  0  0  0  0  0
  -21.1494   -6.0515   25.9076 H   0  0  0  0  0  0
  -22.0598   -2.7602   23.2836 H   0  0  0  0  0  0
  -22.4111  -11.9897   22.4809 H   0  0  0  0  0  0
  -21.1098  -13.1233   22.2599 H   0  0  0  0  0  0
  -24.6652  -15.8482   20.5170 H   0  0  0  0  0  0
  -26.2838  -15.6241   20.0852 H   0  0  0  0  0  0
  -26.7150  -32.5508   23.1159 H   0  0  0  0  0  0
  -25.0076  -33.9763   25.0472 H   0  0  0  0  0  0
  -22.6954  -31.3137   21.4175 H   0  0  0  0  0  0
  -23.3737  -35.9659   23.3306 H   0  0  0  0  0  0
  -24.3584  -36.8924   22.2050 H   0  0  0  0  0  0
  -23.7257  -37.6528   23.6650 H   0  0  0  0  0  0
  -26.0610  -31.5970   20.6033 H   0  0  0  0  0  0
  -26.8249  -30.8730   21.9889 H   0  0  0  0  0  0
  -28.1046  -29.0766   21.1508 H   0  0  0  0  0  0
  -25.9716  -25.9893   18.9842 H   0  0  0  0  0  0
  -23.9581  -27.3253   19.0219 H   0  0  0  0  0  0
  -23.7232  -30.6166   19.4097 H   0  0  0  0  0  0
  -22.7350  -29.2614   19.8644 H   0  0  0  0  0  0
  -25.1286  -36.1960   25.0828 H   0  0  0  0  0  0
  -20.9964  -28.3227   24.1430 H   0  0  0  0  0  0
  -20.5670  -26.2271   23.3600 H   0  0  0  0  0  0
  -21.6635  -26.7439   22.1198 H   0  0  0  0  0  0
  -19.6899  -25.6300   21.1227 H   0  0  0  0  0  0
  -19.6681  -27.3208   20.6753 H   0  0  0  0  0  0
  -17.4194  -26.6674   21.4025 H   0  0  0  0  0  0
  -18.0318  -26.0059   22.9016 H   0  0  0  0  0  0
  -19.7926  -30.7258   24.2281 H   0  0  0  0  0  0
  -17.5001  -31.6258   24.5162 H   0  0  0  0  0  0
  -15.5341  -30.2979   23.7640 H   0  0  0  0  0  0
  -15.8666  -28.0820   22.7042 H   0  0  0  0  0  0
  -24.5926  -30.7043   25.7809 H   0  0  0  0  0  0
  -24.8949  -32.2847   26.4938 H   0  0  0  0  0  0
  -25.8108  -30.8851   27.0222 H   0  0  0  0  0  0
  -26.2867  -29.6784   24.1176 H   0  0  0  0  0  0
  -27.4088  -29.7270   25.4583 H   0  0  0  0  0  0
  -27.8706  -30.4338   23.9275 H   0  0  0  0  0  0
  -27.2676  -33.3591   26.2108 H   0  0  0  0  0  0
  -28.3858  -32.6890   25.0320 H   0  0  0  0  0  0
  -28.0742  -31.8410   26.5389 H   0  0  0  0  0  0
  -28.2594  -38.0104   24.7500 H   0  0  0  0  0  0
  -28.1070  -36.2636   24.6292 H   0  0  0  0  0  0
  -27.2292  -37.1465   25.8864 H   0  0  0  0  0  0
  -20.9311  -29.8786   21.6967 H   0  0  0  0  0  0
  -26.0174  -38.2864   24.1401 H   0  0  0  0  0  0
  -28.5254  -20.4150   20.8726 H   0  0  0  0  0  0
  -31.4561  -23.0235   19.0720 H   0  0  0  0  0  0
  -30.0911  -18.0531   22.1602 H   0  0  0  0  0  0
  -28.3611  -18.2150   21.8776 H   0  0  0  0  0  0
  -28.1355  -15.8734   21.4305 H   0  0  0  0  0  0
  -29.4787  -15.8048   22.5689 H   0  0  0  0  0  0
  -31.4983  -17.0067   20.0361 H   0  0  0  0  0  0
  -30.4616  -16.5760   18.6564 H   0  0  0  0  0  0
  -28.6684  -17.9353   19.4908 H   0  0  0  0  0  0
  -33.7281  -18.1629   15.4002 H   0  0  0  0  0  0
  -32.0235  -17.8566   15.6807 H   0  0  0  0  0  0
  -33.2416  -16.9894   16.6168 H   0  0  0  0  0  0
  -35.1010  -19.4994   17.0821 H   0  0  0  0  0  0
  -34.6954  -18.3732   18.3727 H   0  0  0  0  0  0
  -34.3674  -20.0945   18.5605 H   0  0  0  0  0  0
  -27.4336  -24.9246   20.8144 H   0  0  0  0  0  0
  -27.7630  -24.9136   19.0874 H   0  0  0  0  0  0
  -29.9937  -24.7034   21.1319 H   0  0  0  0  0  0
  -30.0579  -24.4921   19.3888 H   0  0  0  0  0  0
  -32.6926  -19.9945   16.7060 H   0  0  0  0  0  0
  -31.6434  -17.8311   18.3275 H   0  0  0  0  0  0
  1 25  1  0  0  0
  1 30  2  0  0  0
  1 86  1  0  0  0
  2  3  1  0  0  0
  2 25  1  0  0  0
  2 89  1  0  0  0
  2 90  1  0  0  0
  3  4  1  0  0  0
  3 91  1  0  0  0
  3 92  1  0  0  0
  4  5  1  0  0  0
  4 93  1  0  0  0
  4 94  1  0  0  0
  5  6  1  0  0  0
  5 26  1  0  0  0
  5 95  1  0  0  0
  6 25  1  0  0  0
  6 96  1  0  0  0
  6 97  1  0  0  0
  7  8  2  0  0  0
  7 26  1  0  0  0
  7 29  1  0  0  0
  8  9  1  0  0  0
  8 22  1  0  0  0
  9 10  1  0  0  0
  9 27  2  0  0  0
 10 11  2  0  0  0
 10 15  1  0  0  0
 11 12  1  0  0  0
 11 98  1  0  0  0
 12 13  2  0  0  0
 12 99  1  0  0  0
 13 14  1  0  0  0
 13 31  1  0  0  0
 14 15  2  0  0  0
 14100  1  0  0  0
 15101  1  0  0  0
 16 17  2  0  0  0
 16 21  1  0  0  0
 16 31  1  0  0  0
 17 18  1  0  0  0
 17102  1  0  0  0
 18 19  2  0  0  0
 18103  1  0  0  0
 19 20  1  0  0  0
 19 24  1  0  0  0
 20 21  2  0  0  0
 20104  1  0  0  0
 21 23  1  0  0  0
 22 28  1  0  0  0
 22 32  2  0  0  0
 26 27  1  0  0  0
 28105  1  0  0  0
 28106  1  0  0  0
 29107  1  0  0  0
 29108  1  0  0  0
 33 34  1  0  0  0
 33 66  1  0  0  0
 33 70  2  0  0  0
 34 36  1  0  0  0
 34 59  1  0  0  0
 34109  1  0  0  0
 35 44  2  0  0  0
 35 45  1  0  0  0
 35 68  1  0  0  0
 36 56  1  0  0  0
 36110  1  0  0  0
 37 39  1  0  0  0
 37 47  1  0  0  0
 37 66  1  0  0  0
 37111  1  0  0  0
 38 43  2  0  0  0
 38 46  1  0  0  0
 38 47  1  0  0  0
 39 64  1  0  0  0
 39 67  2  0  0  0
 40 52  1  0  0  0
 40 53  2  0  0  0
 40 58  1  0  0  0
 41112  1  0  0  0
 41113  1  0  0  0
 41114  1  0  0  0
 41 48  1  0  0  0
 42 43  1  0  0  0
 42 66  1  0  0  0
 42115  1  0  0  0
 42116  1  0  0  0
 43 44  1  0  0  0
 44117  1  0  0  0
 45 46  2  0  0  0
 45118  1  0  0  0
 46119  1  0  0  0
 47120  1  0  0  0
 47121  1  0  0  0
 48 56  1  0  0  0
 48 65  1  0  0  0
 48122  1  0  0  0
 49 50  1  0  0  0
 49 53  1  0  0  0
 49 64  1  0  0  0
 49123  1  0  0  0
 50 51  1  0  0  0
 50124  1  0  0  0
 50125  1  0  0  0
 51 52  1  0  0  0
 51126  1  0  0  0
 51127  1  0  0  0
 52128  1  0  0  0
 52129  1  0  0  0
 53 54  1  0  0  0
 54 55  2  0  0  0
 54130  1  0  0  0
 55 57  1  0  0  0
 55131  1  0  0  0
 56 69  2  0  0  0
 57 58  2  0  0  0
 57132  1  0  0  0
 58133  1  0  0  0
 59 60  1  0  0  0
 59 61  1  0  0  0
 59 62  1  0  0  0
 60134  1  0  0  0
 60135  1  0  0  0
 60136  1  0  0  0
 61137  1  0  0  0
 61138  1  0  0  0
 61139  1  0  0  0
 62140  1  0  0  0
 62141  1  0  0  0
 62142  1  0  0  0
 63 65  1  0  0  0
 63143  1  0  0  0
 63144  1  0  0  0
 63145  1  0  0  0
 64146  1  0  0  0
 65147  1  0  0  0
 68 82  1  0  0  0
 71 73  2  0  0  0
 71 74  1  0  0  0
 71148  1  0  0  0
 72 74  2  0  0  0
 72 85  1  0  0  0
 72149  1  0  0  0
 73 75  1  0  0  0
 73 79  1  0  0  0
 74 88  1  0  0  0
 75 85  2  0  0  0
 75 87  1  0  0  0
 76 77  1  0  0  0
 76 79  1  0  0  0
 76150  1  0  0  0
 76151  1  0  0  0
 77 86  1  0  0  0
 77152  1  0  0  0
 77153  1  0  0  0
 78 79  1  0  0  0
 78 86  1  0  0  0
 78154  1  0  0  0
 78155  1  0  0  0
 79156  1  0  0  0
 80157  1  0  0  0
 80158  1  0  0  0
 80159  1  0  0  0
 80 84  1  0  0  0
 81 84  1  0  0  0
 81160  1  0  0  0
 81161  1  0  0  0
 81162  1  0  0  0
 82 83  1  0  0  0
 82163  1  0  0  0
 82164  1  0  0  0
 83 88  1  0  0  0
 83165  1  0  0  0
 83166  1  0  0  0
 84 87  1  0  0  0
 84167  1  0  0  0
 87168  1  0  0  0
M  ISO  4   1 100  68 101  82 101  86 100
M  END
> <chiral flag>
0

> <version>
0

> <s_m_source_file>
/data/baiqing/PycharmProjects/Reinvent-master-3.2/result/LINK_invent/BTK/process_docking_weight1_custom_sum_contain_oxygen_bond_distance_aromatic_linkinvent_7_9_3/rearranged_h_0140.sdf

> <i_m_source_file_index>
11

> <r_mmod_Potential_Energy-OPLS-2005>
48.5833435058594

> <r_mmod_Stretch_Energy-OPLS-2005>
47.0521202087402

> <r_mmod_Bend_Energy-OPLS-2005>
164.547714233398

> <r_mmod_Torsional_Energy-OPLS-2005>
304.978088378906

> <r_mmod_Improper_Torsional_Energy-OPLS-2005>
18.7702007293701

> <r_mmod_Van_der_Waal_Energy-OPLS-2005>
171.998947143555

> <r_mmod_Electrostatic_Energy-OPLS-2005>
-463.941467285156

> <r_mmod_Solvation_Energy-OPLS-2005>
-217.427642822266

> <b_mmod_Minimization_Converged-OPLS-2005>
0

> <r_mmod_RMS_Derivative-OPLS-2005>
1.0147739648819

$$$$
11
                    3D
 Structure written by MMmdl.
169178  0  0  1  0            999 V2000
  -30.7368  -14.3775   20.6493 C   0  0  0  0  0  0
  -30.4245  -12.2824   19.3967 C   0  0  0  0  0  0
  -29.4902  -12.5159   18.1938 C   0  0  0  0  0  0
  -28.0123  -12.3719   18.6091 C   0  0  0  0  0  0
  -27.6688  -13.1945   19.8801 C   0  0  2  0  0  0
  -28.7057  -12.9283   20.9927 C   0  0  0  0  0  0
  -25.2625  -13.8111   20.5677 C   0  0  0  0  0  0
  -24.1864  -13.0403   20.9183 C   0  0  0  0  0  0
  -24.6408  -11.6874   20.8730 C   0  0  0  0  0  0
  -23.9076  -10.4266   21.0381 C   0  0  0  0  0  0
  -24.3616   -9.4181   21.9163 C   0  0  0  0  0  0
  -23.6282   -8.2224   22.0743 C   0  0  0  0  0  0
  -22.4254   -8.0268   21.3544 C   0  0  0  0  0  0
  -21.9898   -9.0247   20.4642 C   0  0  0  0  0  0
  -22.7241  -10.2121   20.3041 C   0  0  0  0  0  0
  -21.6843   -6.0725   22.5281 C   0  0  0  0  0  0
  -21.4011   -6.5632   23.8217 C   0  0  0  0  0  0
  -21.3665   -5.6785   24.9183 C   0  0  0  0  0  0
  -21.6050   -4.3046   24.7226 C   0  0  0  0  0  0
  -21.8824   -3.8138   23.4344 C   0  0  0  0  0  0
  -21.9197   -4.6958   22.3403 C   0  0  0  0  0  0
  -22.7895  -13.5208   21.1843 C   0  0  0  0  0  0
  -22.1655   -4.2140   21.0978 F   0  0  0  0  0  0
  -21.5634   -3.4531   25.7742 F   0  0  0  0  0  0
  -30.0466  -13.2262   20.4538 N   0  0  0  0  0  0
  -26.3071  -12.9275   20.3378 N   0  0  0  0  0  0
  -25.9335  -11.6447   20.5765 N   0  0  0  0  0  0
  -22.0540  -12.8198   22.0393 N   0  0  0  0  0  0
  -25.4335  -15.1833   20.4062 N   0  0  0  0  0  0
  -31.7921  -14.6579   20.0727 O   0  0  0  0  0  0
  -21.6627   -6.8859   21.4238 O   0  0  0  0  0  0
  -22.3598  -14.5514   20.6685 O   0  0  0  0  0  0
  -24.6099  -31.8704   23.2175 C   0  0  0  0  0  0
  -25.9006  -32.4849   23.8440 C   0  0  1  0  0  0
  -27.2228  -27.4727   20.0742 C   0  0  0  0  0  0
  -25.5877  -33.8639   24.2356 N   0  0  0  0  0  0
  -23.3986  -30.4951   21.5562 C   0  0  2  0  0  0
  -24.8433  -28.9796   20.1025 C   0  0  0  0  0  0
  -22.7443  -29.4627   22.5012 C   0  0  0  0  0  0
  -18.0307  -28.1342   22.8564 C   0  0  0  0  0  0
  -24.1480  -36.7327   23.2636 C   0  0  0  0  0  0
  -25.9248  -30.8465   21.3688 C   0  0  0  0  0  0
  -26.0021  -29.4874   20.7066 C   0  0  0  0  0  0
  -27.1976  -28.7371   20.6970 C   0  0  0  0  0  0
  -26.0533  -26.9857   19.4479 C   0  0  0  0  0  0
  -24.8620  -27.7269   19.4704 C   0  0  0  0  0  0
  -23.6032  -29.8411   20.1643 C   0  0  0  0  0  0
  -25.4108  -36.3121   24.0332 C   0  0  1  0  0  0
  -20.5919  -28.3618   23.1362 C   0  0  2  0  0  0
  -20.6810  -26.9368   22.5416 C   0  0  0  0  0  0
  -19.5763  -26.6390   21.5227 C   0  0  0  0  0  0
  -18.1991  -26.7853   22.1755 C   0  0  0  0  0  0
  -19.1576  -28.8794   23.2943 C   0  0  0  0  0  0
  -18.9540  -30.1442   23.8868 C   0  0  0  0  0  0
  -17.6560  -30.6631   24.0492 C   0  0  0  0  0  0
  -25.9027  -34.9486   23.5144 C   0  0  0  0  0  0
  -16.5423  -29.9110   23.6384 C   0  0  0  0  0  0
  -16.7304  -28.6508   23.0435 C   0  0  0  0  0  0
  -26.4462  -31.6613   25.0748 C   0  0  0  0  0  0
  -25.3738  -31.3692   26.1503 C   0  0  0  0  0  0
  -27.0284  -30.3053   24.6114 C   0  0  0  0  0  0
  -27.6040  -32.4319   25.7498 C   0  0  0  0  0  0
  -27.5584  -37.1828   24.8465 C   0  0  0  0  0  0
  -21.4168  -29.3046   22.3818 N   0  0  0  0  0  0
  -26.4305  -37.3808   23.9399 N   0  0  0  0  0  0
  -24.6620  -31.0820   22.1057 N   0  0  0  0  0  0
  -23.4251  -28.8098   23.2958 O   0  0  0  0  0  0
  -28.3442  -26.6816   20.1233 O   0  0  0  0  0  0
  -26.5575  -34.8916   22.4701 O   0  0  0  0  0  0
  -23.5283  -32.1437   23.7573 O   0  0  0  0  0  0
  -28.6378  -24.3075   19.8376 C   0  0  0  0  0  0
  -27.3620  -25.1358   21.7146 C   0  0  0  0  0  0
  -27.4898  -22.7044   21.3213 C   0  0  0  0  0  0
  -28.3488  -22.9745   20.2039 C   0  0  0  0  0  0
  -27.0195  -23.8200   22.0817 C   0  0  0  0  0  0
  -28.1382  -25.3936   20.5698 C   0  0  0  0  0  0
  -26.7548  -20.1839   20.7827 C   0  0  0  0  0  0
  -28.0447  -20.7919   22.9232 C   0  0  0  0  0  0
  -27.2462  -18.7865   21.2284 C   0  0  0  0  0  0
  -29.1741  -19.8952   22.4065 C   0  0  0  0  0  0
  -27.0994  -21.2883   21.8144 C   0  0  1  0  0  0
  -29.0022  -21.9165   19.3263 C   0  0  0  0  0  0
  -26.1277  -23.6700   23.3120 C   0  0  0  0  0  0
  -29.6533  -16.5185   20.9403 C   0  0  0  0  0  0
  -29.1564  -17.4295   22.0733 C   0  0  0  0  0  0
  -30.1502  -15.2512   21.4668 N   0  0  0  0  0  0
  -28.7004  -18.7522   21.5665 N   0  3  1  0  0  0
  -31.4685  -12.3983   19.0957 H   0  0  0  0  0  0
  -30.3365  -11.2598   19.7610 H   0  0  0  0  0  0
  -29.7229  -11.8131   17.3927 H   0  0  0  0  0  0
  -29.6609  -13.5121   17.7829 H   0  0  0  0  0  0
  -27.8203  -11.3137   18.7884 H   0  0  0  0  0  0
  -27.3593  -12.6640   17.7859 H   0  0  0  0  0  0
  -27.7261  -14.2475   19.6066 H   0  0  0  0  0  0
  -28.6670  -11.8852   21.3060 H   0  0  0  0  0  0
  -28.4631  -13.5032   21.8879 H   0  0  0  0  0  0
  -25.2764   -9.5640   22.4730 H   0  0  0  0  0  0
  -24.0002   -7.4602   22.7439 H   0  0  0  0  0  0
  -21.0843   -8.8760   19.8924 H   0  0  0  0  0  0
  -22.3708  -10.9659   19.6141 H   0  0  0  0  0  0
  -21.1981   -7.6133   23.9724 H   0  0  0  0  0  0
  -21.1493   -6.0504   25.9093 H   0  0  0  0  0  0
  -22.0596   -2.7594   23.2855 H   0  0  0  0  0  0
  -22.4181  -11.9892   22.4813 H   0  0  0  0  0  0
  -21.1140  -13.1192   22.2549 H   0  0  0  0  0  0
  -24.6494  -15.8221   20.4771 H   0  0  0  0  0  0
  -26.2662  -15.6083   20.0220 H   0  0  0  0  0  0
  -26.7060  -32.5556   23.1188 H   0  0  0  0  0  0
  -25.0073  -33.9828   25.0519 H   0  0  0  0  0  0
  -22.6831  -31.3113   21.4297 H   0  0  0  0  0  0
  -23.3735  -35.9677   23.3323 H   0  0  0  0  0  0
  -24.3577  -36.8918   22.2053 H   0  0  0  0  0  0
  -23.7248  -37.6542   23.6629 H   0  0  0  0  0  0
  -26.0397  -31.6205   20.6086 H   0  0  0  0  0  0
  -26.8108  -30.8895   21.9899 H   0  0  0  0  0  0
  -28.0879  -29.1082   21.1840 H   0  0  0  0  0  0
  -26.0583  -26.0176   18.9646 H   0  0  0  0  0  0
  -23.9725  -27.3366   18.9916 H   0  0  0  0  0  0
  -23.7125  -30.6267   19.4156 H   0  0  0  0  0  0
  -22.7261  -29.2656   19.8624 H   0  0  0  0  0  0
  -25.1292  -36.2015   25.0829 H   0  0  0  0  0  0
  -21.0070  -28.3151   24.1470 H   0  0  0  0  0  0
  -20.5687  -26.2213   23.3577 H   0  0  0  0  0  0
  -21.6651  -26.7362   22.1180 H   0  0  0  0  0  0
  -19.6941  -25.6296   21.1241 H   0  0  0  0  0  0
  -19.6658  -27.3251   20.6792 H   0  0  0  0  0  0
  -17.4200  -26.6328   21.4269 H   0  0  0  0  0  0
  -18.0682  -26.0034   22.9258 H   0  0  0  0  0  0
  -19.8059  -30.7245   24.2173 H   0  0  0  0  0  0
  -17.5154  -31.6374   24.4990 H   0  0  0  0  0  0
  -15.5433  -30.3066   23.7760 H   0  0  0  0  0  0
  -15.8649  -28.0854   22.7207 H   0  0  0  0  0  0
  -24.5912  -30.7056   25.7826 H   0  0  0  0  0  0
  -24.8946  -32.2840   26.4990 H   0  0  0  0  0  0
  -25.8109  -30.8827   27.0232 H   0  0  0  0  0  0
  -26.2832  -29.6826   24.1171 H   0  0  0  0  0  0
  -27.4040  -29.7294   25.4578 H   0  0  0  0  0  0
  -27.8664  -30.4361   23.9273 H   0  0  0  0  0  0
  -27.2671  -33.3591   26.2141 H   0  0  0  0  0  0
  -28.3823  -32.6935   25.0314 H   0  0  0  0  0  0
  -28.0746  -31.8420   26.5374 H   0  0  0  0  0  0
  -28.2619  -38.0103   24.7503 H   0  0  0  0  0  0
  -28.1060  -36.2647   24.6308 H   0  0  0  0  0  0
  -27.2295  -37.1499   25.8862 H   0  0  0  0  0  0
  -20.9307  -29.8984   21.7251 H   0  0  0  0  0  0
  -26.0192  -38.2887   24.1388 H   0  0  0  0  0  0
  -29.2434  -24.5116   18.9651 H   0  0  0  0  0  0
  -26.9768  -25.9645   22.2909 H   0  0  0  0  0  0
  -25.6710  -20.1440   20.6611 H   0  0  0  0  0  0
  -27.1004  -20.3959   19.7764 H   0  0  0  0  0  0
  -28.4600  -21.6268   23.4869 H   0  0  0  0  0  0
  -27.4708  -20.2151   23.6472 H   0  0  0  0  0  0
  -27.0358  -18.0631   20.4385 H   0  0  0  0  0  0
  -26.6681  -18.4670   22.0961 H   0  0  0  0  0  0
  -29.7383  -19.5602   23.2770 H   0  0  0  0  0  0
  -29.8829  -20.4870   21.8291 H   0  0  0  0  0  0
  -26.1397  -21.4083   22.3153 H   0  0  0  0  0  0
  -29.9820  -22.2509   18.9866 H   0  0  0  0  0  0
  -28.3945  -21.7439   18.4359 H   0  0  0  0  0  0
  -29.1665  -20.9703   19.8269 H   0  0  0  0  0  0
  -26.0385  -24.6032   23.8722 H   0  0  0  0  0  0
  -26.5184  -22.9280   24.0069 H   0  0  0  0  0  0
  -25.1227  -23.3731   23.0138 H   0  0  0  0  0  0
  -30.4522  -17.0191   20.3903 H   0  0  0  0  0  0
  -28.8531  -16.3199   20.2258 H   0  0  0  0  0  0
  -29.9845  -17.5446   22.7746 H   0  0  0  0  0  0
  -28.3553  -16.9529   22.6384 H   0  0  0  0  0  0
  -30.6584  -15.3549   22.3353 H   0  0  0  0  0  0
  -29.1906  -18.8706   20.6907 H   0  0  0  0  0  0
  1 25  1  0  0  0
  1 30  2  0  0  0
  1 86  1  0  0  0
  2  3  1  0  0  0
  2 25  1  0  0  0
  2 88  1  0  0  0
  2 89  1  0  0  0
  3  4  1  0  0  0
  3 90  1  0  0  0
  3 91  1  0  0  0
  4  5  1  0  0  0
  4 92  1  0  0  0
  4 93  1  0  0  0
  5  6  1  0  0  0
  5 26  1  0  0  0
  5 94  1  0  0  0
  6 25  1  0  0  0
  6 95  1  0  0  0
  6 96  1  0  0  0
  7  8  2  0  0  0
  7 26  1  0  0  0
  7 29  1  0  0  0
  8  9  1  0  0  0
  8 22  1  0  0  0
  9 10  1  0  0  0
  9 27  2  0  0  0
 10 11  2  0  0  0
 10 15  1  0  0  0
 11 12  1  0  0  0
 11 97  1  0  0  0
 12 13  2  0  0  0
 12 98  1  0  0  0
 13 14  1  0  0  0
 13 31  1  0  0  0
 14 15  2  0  0  0
 14 99  1  0  0  0
 15100  1  0  0  0
 16 17  2  0  0  0
 16 21  1  0  0  0
 16 31  1  0  0  0
 17 18  1  0  0  0
 17101  1  0  0  0
 18 19  2  0  0  0
 18102  1  0  0  0
 19 20  1  0  0  0
 19 24  1  0  0  0
 20 21  2  0  0  0
 20103  1  0  0  0
 21 23  1  0  0  0
 22 28  1  0  0  0
 22 32  2  0  0  0
 26 27  1  0  0  0
 28104  1  0  0  0
 28105  1  0  0  0
 29106  1  0  0  0
 29107  1  0  0  0
 33 34  1  0  0  0
 33 66  1  0  0  0
 33 70  2  0  0  0
 34 36  1  0  0  0
 34 59  1  0  0  0
 34108  1  0  0  0
 35 44  2  0  0  0
 35 45  1  0  0  0
 35 68  1  0  0  0
 36 56  1  0  0  0
 36109  1  0  0  0
 37 39  1  0  0  0
 37 47  1  0  0  0
 37 66  1  0  0  0
 37110  1  0  0  0
 38 43  2  0  0  0
 38 46  1  0  0  0
 38 47  1  0  0  0
 39 64  1  0  0  0
 39 67  2  0  0  0
 40 52  1  0  0  0
 40 53  2  0  0  0
 40 58  1  0  0  0
 41111  1  0  0  0
 41112  1  0  0  0
 41113  1  0  0  0
 41 48  1  0  0  0
 42 43  1  0  0  0
 42 66  1  0  0  0
 42114  1  0  0  0
 42115  1  0  0  0
 43 44  1  0  0  0
 44116  1  0  0  0
 45 46  2  0  0  0
 45117  1  0  0  0
 46118  1  0  0  0
 47119  1  0  0  0
 47120  1  0  0  0
 48 56  1  0  0  0
 48 65  1  0  0  0
 48121  1  0  0  0
 49 50  1  0  0  0
 49 53  1  0  0  0
 49 64  1  0  0  0
 49122  1  0  0  0
 50 51  1  0  0  0
 50123  1  0  0  0
 50124  1  0  0  0
 51 52  1  0  0  0
 51125  1  0  0  0
 51126  1  0  0  0
 52127  1  0  0  0
 52128  1  0  0  0
 53 54  1  0  0  0
 54 55  2  0  0  0
 54129  1  0  0  0
 55 57  1  0  0  0
 55130  1  0  0  0
 56 69  2  0  0  0
 57 58  2  0  0  0
 57131  1  0  0  0
 58132  1  0  0  0
 59 60  1  0  0  0
 59 61  1  0  0  0
 59 62  1  0  0  0
 60133  1  0  0  0
 60134  1  0  0  0
 60135  1  0  0  0
 61136  1  0  0  0
 61137  1  0  0  0
 61138  1  0  0  0
 62139  1  0  0  0
 62140  1  0  0  0
 62141  1  0  0  0
 63 65  1  0  0  0
 63142  1  0  0  0
 63143  1  0  0  0
 63144  1  0  0  0
 64145  1  0  0  0
 65146  1  0  0  0
 68 76  1  0  0  0
 71 74  2  0  0  0
 71 76  1  0  0  0
 71147  1  0  0  0
 72 75  1  0  0  0
 72 76  2  0  0  0
 72148  1  0  0  0
 73 74  1  0  0  0
 73 75  2  0  0  0
 73 81  1  0  0  0
 74 82  1  0  0  0
 75 83  1  0  0  0
 77 79  1  0  0  0
 77 81  1  0  0  0
 77149  1  0  0  0
 77150  1  0  0  0
 78 80  1  0  0  0
 78 81  1  0  0  0
 78151  1  0  0  0
 78152  1  0  0  0
 79 87  1  0  0  0
 79153  1  0  0  0
 79154  1  0  0  0
 80 87  1  0  0  0
 80155  1  0  0  0
 80156  1  0  0  0
 81157  1  0  0  0
 82158  1  0  0  0
 82159  1  0  0  0
 82160  1  0  0  0
 83161  1  0  0  0
 83162  1  0  0  0
 83163  1  0  0  0
 84 85  1  0  0  0
 84 86  1  0  0  0
 84164  1  0  0  0
 84165  1  0  0  0
 85166  1  0  0  0
 85167  1  0  0  0
 85 87  1  0  0  0
 86168  1  0  0  0
 87169  1  0  0  0
M  CHG  1  87   1
M  ISO  4   1 100  68 101  76 101  86 100
M  END
> <chiral flag>
0

> <version>
0

> <s_m_source_file>
/data/baiqing/PycharmProjects/Reinvent-master-3.2/result/LINK_invent/BTK/process_docking_weight1_custom_sum_contain_oxygen_bond_distance_aromatic_linkinvent_7_9_3/rearranged_h_0140.sdf

> <i_m_source_file_index>
12

> <r_mmod_Potential_Energy-OPLS-2005>
-55.4423980712891

> <r_mmod_Stretch_Energy-OPLS-2005>
39.1540870666504

> <r_mmod_Bend_Energy-OPLS-2005>
114.017356872559

> <r_mmod_Torsional_Energy-OPLS-2005>
336.245574951172

> <r_mmod_Improper_Torsional_Energy-OPLS-2005>
7.0663104057312

> <r_mmod_Van_der_Waal_Energy-OPLS-2005>
178.039184570312

> <r_mmod_Electrostatic_Energy-OPLS-2005>
-282.909698486328

> <r_mmod_Solvation_Energy-OPLS-2005>
-456.598052978516

> <b_mmod_Minimization_Converged-OPLS-2005>
0

> <r_mmod_RMS_Derivative-OPLS-2005>
3.95307064056396

$$$$
12
                    3D
 Structure written by MMmdl.
159168  0  0  1  0            999 V2000
  -30.4508  -15.2165   20.3848 C   0  0  0  0  0  0
  -30.4375  -12.7771   19.5130 C   0  0  0  0  0  0
  -29.5330  -12.5733   18.2738 C   0  0  0  0  0  0
  -28.0783  -12.3046   18.6999 C   0  0  0  0  0  0
  -27.6128  -13.2707   19.8194 C   0  0  2  0  0  0
  -28.6483  -13.4238   20.9525 C   0  0  0  0  0  0
  -25.2402  -13.8242   20.5712 C   0  0  0  0  0  0
  -24.1756  -13.0440   20.9248 C   0  0  0  0  0  0
  -24.6408  -11.6936   20.8757 C   0  0  0  0  0  0
  -23.9105  -10.4295   21.0402 C   0  0  0  0  0  0
  -24.3650   -9.4210   21.9180 C   0  0  0  0  0  0
  -23.6315   -8.2250   22.0753 C   0  0  0  0  0  0
  -22.4297   -8.0283   21.3544 C   0  0  0  0  0  0
  -21.9936   -9.0260   20.4649 C   0  0  0  0  0  0
  -22.7274  -10.2134   20.3056 C   0  0  0  0  0  0
  -21.6856   -6.0743   22.5279 C   0  0  0  0  0  0
  -21.4019   -6.5645   23.8214 C   0  0  0  0  0  0
  -21.3664   -5.6793   24.9171 C   0  0  0  0  0  0
  -21.6045   -4.3057   24.7221 C   0  0  0  0  0  0
  -21.8820   -3.8153   23.4340 C   0  0  0  0  0  0
  -21.9196   -4.6971   22.3399 C   0  0  0  0  0  0
  -22.7776  -13.5201   21.1895 C   0  0  0  0  0  0
  -22.1658   -4.2157   21.0973 F   0  0  0  0  0  0
  -21.5633   -3.4539   25.7733 F   0  0  0  0  0  0
  -29.8818  -13.9188   20.3229 N   0  0  0  0  0  0
  -26.2820  -12.9509   20.3182 N   0  0  0  0  0  0
  -25.9339  -11.6618   20.5701 N   0  0  0  0  0  0
  -22.0426  -12.8192   22.0450 N   0  0  0  0  0  0
  -25.4035  -15.1975   20.4138 N   0  0  0  0  0  0
  -31.6772  -15.2147   20.2124 O   0  0  0  0  0  0
  -21.6650   -6.8888   21.4240 O   0  0  0  0  0  0
  -22.3461  -14.5498   20.6721 O   0  0  0  0  0  0
  -24.6578  -31.8270   23.1730 C   0  0  0  0  0  0
  -25.9283  -32.4601   23.8181 C   0  0  1  0  0  0
  -27.2204  -26.9590   20.1923 C   0  0  0  0  0  0
  -25.5981  -33.8416   24.2092 N   0  0  0  0  0  0
  -23.4705  -30.4373   21.5213 C   0  0  2  0  0  0
  -24.9221  -28.8224   20.1179 C   0  0  0  0  0  0
  -22.7640  -29.4454   22.4809 C   0  0  0  0  0  0
  -18.0324  -28.1397   22.8475 C   0  0  0  0  0  0
  -24.1496  -36.7210   23.2645 C   0  0  0  0  0  0
  -26.0348  -30.6427   21.3978 C   0  0  0  0  0  0
  -26.1020  -29.2323   20.7509 C   0  0  0  0  0  0
  -27.2437  -28.3203   20.7639 C   0  0  0  0  0  0
  -26.0128  -26.6882   19.5117 C   0  0  0  0  0  0
  -24.8998  -27.5693   19.4810 C   0  0  0  0  0  0
  -23.7082  -29.7489   20.1484 C   0  0  0  0  0  0
  -25.4135  -36.2970   24.0298 C   0  0  1  0  0  0
  -20.5946  -28.3737   23.1205 C   0  0  2  0  0  0
  -20.6798  -26.9420   22.5406 C   0  0  0  0  0  0
  -19.5766  -26.6365   21.5223 C   0  0  0  0  0  0
  -18.1950  -26.7936   22.1628 C   0  0  0  0  0  0
  -19.1584  -28.8890   23.2827 C   0  0  0  0  0  0
  -18.9492  -30.1491   23.8843 C   0  0  0  0  0  0
  -17.6482  -30.6587   24.0556 C   0  0  0  0  0  0
  -25.9100  -34.9356   23.5011 C   0  0  0  0  0  0
  -16.5378  -29.9071   23.6341 C   0  0  0  0  0  0
  -16.7307  -28.6497   23.0357 C   0  0  0  0  0  0
  -26.4557  -31.6534   25.0694 C   0  0  0  0  0  0
  -25.3700  -31.3781   26.1362 C   0  0  0  0  0  0
  -27.0448  -30.2901   24.6403 C   0  0  0  0  0  0
  -27.6045  -32.4348   25.7499 C   0  0  0  0  0  0
  -27.5571  -37.1762   24.8465 C   0  0  0  0  0  0
  -21.4316  -29.3040   22.3561 N   0  0  0  0  0  0
  -26.4281  -37.3700   23.9407 N   0  0  0  0  0  0
  -24.7422  -30.9958   22.0847 N   0  0  0  0  0  0
  -23.4207  -28.8030   23.3041 O   0  0  0  0  0  0
  -28.2864  -25.9291   20.2016 O   0  0  0  0  0  0
  -26.5697  -34.8884   22.4603 O   0  0  0  0  0  0
  -23.5658  -32.1238   23.6844 O   0  0  0  0  0  0
  -27.4220  -23.4219   20.8099 C   0  0  0  0  0  0
  -27.6288  -21.9498   20.8328 C   0  0  0  0  0  0
  -28.7885  -21.2305   20.2889 C   0  0  0  0  0  0
  -29.6375  -22.2931   19.7494 C   0  0  0  0  0  0
  -28.3104  -24.3968   20.2270 C   0  0  0  0  0  0
  -25.5592  -20.3438   20.6190 C   0  0  0  0  0  0
  -25.0730  -21.5442   21.3887 C   0  0  0  0  0  0
  -26.5320  -21.1367   21.4632 C   0  0  0  0  0  0
  -30.9295  -21.8982   19.0638 C   0  0  0  0  0  0
  -31.3683  -18.4575   20.3790 C   0  0  0  0  0  0
  -28.8981  -19.4879   20.0714 C   0  0  0  0  0  0
  -29.8955  -18.1203   20.6386 C   0  0  1  0  0  0
  -29.4224  -23.7043   19.7449 N   0  0  0  0  0  0
  -29.6744  -16.4764   20.4451 N   0  0  0  0  0  0
  -31.4591  -12.9751   19.1858 H   0  0  0  0  0  0
  -30.4901  -11.8634   20.1075 H   0  0  0  0  0  0
  -29.9049  -11.7517   17.6601 H   0  0  0  0  0  0
  -29.5711  -13.4665   17.6474 H   0  0  0  0  0  0
  -28.0254  -11.2752   19.0567 H   0  0  0  0  0  0
  -27.4117  -12.3650   17.8384 H   0  0  0  0  0  0
  -27.5340  -14.2446   19.3350 H   0  0  0  0  0  0
  -28.8087  -12.4825   21.4798 H   0  0  0  0  0  0
  -28.2969  -14.1438   21.6941 H   0  0  0  0  0  0
  -25.2791   -9.5686   22.4761 H   0  0  0  0  0  0
  -24.0018   -7.4650   22.7479 H   0  0  0  0  0  0
  -21.0862   -8.8787   19.8961 H   0  0  0  0  0  0
  -22.3726  -10.9676   19.6171 H   0  0  0  0  0  0
  -21.2004   -7.6152   23.9719 H   0  0  0  0  0  0
  -21.1487   -6.0520   25.9074 H   0  0  0  0  0  0
  -22.0595   -2.7615   23.2835 H   0  0  0  0  0  0
  -22.4042  -11.9864   22.4858 H   0  0  0  0  0  0
  -21.1031  -13.1198   22.2632 H   0  0  0  0  0  0
  -24.6294  -15.8436   20.5219 H   0  0  0  0  0  0
  -26.2369  -15.6367   20.0472 H   0  0  0  0  0  0
  -26.7354  -32.5145   23.0898 H   0  0  0  0  0  0
  -25.0120  -33.9510   25.0237 H   0  0  0  0  0  0
  -22.7809  -31.2667   21.3502 H   0  0  0  0  0  0
  -23.3767  -35.9534   23.3284 H   0  0  0  0  0  0
  -24.3577  -36.8876   22.2065 H   0  0  0  0  0  0
  -23.7244  -37.6387   23.6719 H   0  0  0  0  0  0
  -26.2088  -31.3824   20.6155 H   0  0  0  0  0  0
  -26.8979  -30.7028   22.0491 H   0  0  0  0  0  0
  -28.1443  -28.6391   21.2697 H   0  0  0  0  0  0
  -25.9093  -25.7328   19.0167 H   0  0  0  0  0  0
  -24.0031  -27.2524   18.9659 H   0  0  0  0  0  0
  -23.8602  -30.5151   19.3869 H   0  0  0  0  0  0
  -22.8182  -29.2002   19.8354 H   0  0  0  0  0  0
  -25.1334  -36.1768   25.0788 H   0  0  0  0  0  0
  -21.0042  -28.3339   24.1328 H   0  0  0  0  0  0
  -20.5685  -26.2357   23.3647 H   0  0  0  0  0  0
  -21.6659  -26.7400   22.1204 H   0  0  0  0  0  0
  -19.6919  -25.6264   21.1278 H   0  0  0  0  0  0
  -19.6698  -27.3160   20.6741 H   0  0  0  0  0  0
  -17.4224  -26.6701   21.4026 H   0  0  0  0  0  0
  -18.0326  -26.0083   22.9024 H   0  0  0  0  0  0
  -19.7967  -30.7331   24.2171 H   0  0  0  0  0  0
  -17.5027  -31.6263   24.5168 H   0  0  0  0  0  0
  -15.5370  -30.2948   23.7688 H   0  0  0  0  0  0
  -15.8714  -28.0792   22.7087 H   0  0  0  0  0  0
  -24.5890  -30.7120   25.7686 H   0  0  0  0  0  0
  -24.8889  -32.2982   26.4683 H   0  0  0  0  0  0
  -25.7947  -30.9019   27.0208 H   0  0  0  0  0  0
  -26.3113  -29.6578   24.1387 H   0  0  0  0  0  0
  -27.3971  -29.7258   25.5049 H   0  0  0  0  0  0
  -27.9056  -30.4089   23.9818 H   0  0  0  0  0  0
  -27.2603  -33.3685   26.1961 H   0  0  0  0  0  0
  -28.3915  -32.6850   25.0375 H   0  0  0  0  0  0
  -28.0649  -31.8555   26.5510 H   0  0  0  0  0  0
  -28.2560  -38.0081   24.7507 H   0  0  0  0  0  0
  -28.1087  -36.2602   24.6296 H   0  0  0  0  0  0
  -27.2287  -37.1410   25.8866 H   0  0  0  0  0  0
  -20.9561  -29.8719   21.6684 H   0  0  0  0  0  0
  -26.0125  -38.2758   24.1412 H   0  0  0  0  0  0
  -26.5327  -23.8226   21.2742 H   0  0  0  0  0  0
  -25.6308  -20.4402   19.5371 H   0  0  0  0  0  0
  -25.2576  -19.3639   20.9841 H   0  0  0  0  0  0
  -24.4461  -21.3483   22.2565 H   0  0  0  0  0  0
  -24.7913  -22.4139   20.7988 H   0  0  0  0  0  0
  -26.8739  -20.6886   22.3945 H   0  0  0  0  0  0
  -30.7428  -21.1804   18.2662 H   0  0  0  0  0  0
  -31.6165  -21.4514   19.7798 H   0  0  0  0  0  0
  -31.4313  -22.7612   18.6245 H   0  0  0  0  0  0
  -31.6180  -19.4377   20.7808 H   0  0  0  0  0  0
  -31.5928  -18.4559   19.3119 H   0  0  0  0  0  0
  -32.0346  -17.7474   20.8670 H   0  0  0  0  0  0
  -28.9589  -19.4064   18.9859 H   0  0  0  0  0  0
  -27.8901  -19.1395   20.2804 H   0  0  0  0  0  0
  -29.7847  -18.1954   21.7208 H   0  0  0  0  0  0
  -28.6898  -16.2519   20.4580 H   0  0  0  0  0  0
  1 25  1  0  0  0
  1 30  2  0  0  0
  1 84  1  0  0  0
  2  3  1  0  0  0
  2 25  1  0  0  0
  2 85  1  0  0  0
  2 86  1  0  0  0
  3  4  1  0  0  0
  3 87  1  0  0  0
  3 88  1  0  0  0
  4  5  1  0  0  0
  4 89  1  0  0  0
  4 90  1  0  0  0
  5  6  1  0  0  0
  5 26  1  0  0  0
  5 91  1  0  0  0
  6 25  1  0  0  0
  6 92  1  0  0  0
  6 93  1  0  0  0
  7  8  2  0  0  0
  7 26  1  0  0  0
  7 29  1  0  0  0
  8  9  1  0  0  0
  8 22  1  0  0  0
  9 10  1  0  0  0
  9 27  2  0  0  0
 10 11  2  0  0  0
 10 15  1  0  0  0
 11 12  1  0  0  0
 11 94  1  0  0  0
 12 13  2  0  0  0
 12 95  1  0  0  0
 13 14  1  0  0  0
 13 31  1  0  0  0
 14 15  2  0  0  0
 14 96  1  0  0  0
 15 97  1  0  0  0
 16 17  2  0  0  0
 16 21  1  0  0  0
 16 31  1  0  0  0
 17 18  1  0  0  0
 17 98  1  0  0  0
 18 19  2  0  0  0
 18 99  1  0  0  0
 19 20  1  0  0  0
 19 24  1  0  0  0
 20 21  2  0  0  0
 20100  1  0  0  0
 21 23  1  0  0  0
 22 28  1  0  0  0
 22 32  2  0  0  0
 26 27  1  0  0  0
 28101  1  0  0  0
 28102  1  0  0  0
 29103  1  0  0  0
 29104  1  0  0  0
 33 34  1  0  0  0
 33 66  1  0  0  0
 33 70  2  0  0  0
 34 36  1  0  0  0
 34 59  1  0  0  0
 34105  1  0  0  0
 35 44  2  0  0  0
 35 45  1  0  0  0
 35 68  1  0  0  0
 36 56  1  0  0  0
 36106  1  0  0  0
 37 39  1  0  0  0
 37 47  1  0  0  0
 37 66  1  0  0  0
 37107  1  0  0  0
 38 43  2  0  0  0
 38 46  1  0  0  0
 38 47  1  0  0  0
 39 64  1  0  0  0
 39 67  2  0  0  0
 40 52  1  0  0  0
 40 53  2  0  0  0
 40 58  1  0  0  0
 41108  1  0  0  0
 41109  1  0  0  0
 41110  1  0  0  0
 41 48  1  0  0  0
 42 43  1  0  0  0
 42 66  1  0  0  0
 42111  1  0  0  0
 42112  1  0  0  0
 43 44  1  0  0  0
 44113  1  0  0  0
 45 46  2  0  0  0
 45114  1  0  0  0
 46115  1  0  0  0
 47116  1  0  0  0
 47117  1  0  0  0
 48 56  1  0  0  0
 48 65  1  0  0  0
 48118  1  0  0  0
 49 50  1  0  0  0
 49 53  1  0  0  0
 49 64  1  0  0  0
 49119  1  0  0  0
 50 51  1  0  0  0
 50120  1  0  0  0
 50121  1  0  0  0
 51 52  1  0  0  0
 51122  1  0  0  0
 51123  1  0  0  0
 52124  1  0  0  0
 52125  1  0  0  0
 53 54  1  0  0  0
 54 55  2  0  0  0
 54126  1  0  0  0
 55 57  1  0  0  0
 55127  1  0  0  0
 56 69  2  0  0  0
 57 58  2  0  0  0
 57128  1  0  0  0
 58129  1  0  0  0
 59 60  1  0  0  0
 59 61  1  0  0  0
 59 62  1  0  0  0
 60130  1  0  0  0
 60131  1  0  0  0
 60132  1  0  0  0
 61133  1  0  0  0
 61134  1  0  0  0
 61135  1  0  0  0
 62136  1  0  0  0
 62137  1  0  0  0
 62138  1  0  0  0
 63 65  1  0  0  0
 63139  1  0  0  0
 63140  1  0  0  0
 63141  1  0  0  0
 64142  1  0  0  0
 65143  1  0  0  0
 68 75  1  0  0  0
 71 72  2  0  0  0
 71 75  1  0  0  0
 71144  1  0  0  0
 72 73  1  0  0  0
 72 78  1  0  0  0
 73 74  2  0  0  0
 73 81  1  0  0  0
 74 79  1  0  0  0
 74 83  1  0  0  0
 75 83  2  0  0  0
 76 77  1  0  0  0
 76 78  1  0  0  0
 76145  1  0  0  0
 76146  1  0  0  0
 77 78  1  0  0  0
 77147  1  0  0  0
 77148  1  0  0  0
 78149  1  0  0  0
 79150  1  0  0  0
 79151  1  0  0  0
 79152  1  0  0  0
 80153  1  0  0  0
 80154  1  0  0  0
 80155  1  0  0  0
 80 82  1  0  0  0
 81 82  1  0  0  0
 81156  1  0  0  0
 81157  1  0  0  0
 82 84  1  0  0  0
 82158  1  0  0  0
 84159  1  0  0  0
M  ISO  4   1 100  68 101  75 101  84 100
M  END
> <chiral flag>
0

> <version>
0

> <s_m_source_file>
/data/baiqing/PycharmProjects/Reinvent-master-3.2/result/LINK_invent/BTK/process_docking_weight1_custom_sum_contain_oxygen_bond_distance_aromatic_linkinvent_7_9_3/rearranged_h_0140.sdf

> <i_m_source_file_index>
13

> <r_mmod_Potential_Energy-OPLS-2005>
909.975219726562

> <r_mmod_Stretch_Energy-OPLS-2005>
479.643005371094

> <r_mmod_Bend_Energy-OPLS-2005>
429.450469970703

> <r_mmod_Torsional_Energy-OPLS-2005>
238.629608154297

> <r_mmod_Improper_Torsional_Energy-OPLS-2005>
6.41695070266724

> <r_mmod_Van_der_Waal_Energy-OPLS-2005>
123.547149658203

> <r_mmod_Electrostatic_Energy-OPLS-2005>
-541.224060058594

> <r_mmod_Solvation_Energy-OPLS-2005>
-224.603912353516

> <b_mmod_Minimization_Converged-OPLS-2005>
0

> <r_mmod_RMS_Derivative-OPLS-2005>
1.47079765796661

$$$$
13
                    3D
 Structure written by MMmdl.
176185  0  0  1  0            999 V2000
  -30.7434  -14.4425   20.6254 C   0  0  0  0  0  0
  -30.4198  -12.3093   19.4163 C   0  0  0  0  0  0
  -29.4921  -12.5147   18.2020 C   0  0  0  0  0  0
  -28.0130  -12.3754   18.6137 C   0  0  0  0  0  0
  -27.6627  -13.2122   19.8742 C   0  0  2  0  0  0
  -28.7051  -12.9911   20.9939 C   0  0  0  0  0  0
  -25.2572  -13.8181   20.5685 C   0  0  0  0  0  0
  -24.1827  -13.0450   20.9188 C   0  0  0  0  0  0
  -24.6390  -11.6924   20.8745 C   0  0  0  0  0  0
  -23.9064  -10.4311   21.0421 C   0  0  0  0  0  0
  -24.3624   -9.4220   21.9195 C   0  0  0  0  0  0
  -23.6314   -8.2243   22.0757 C   0  0  0  0  0  0
  -22.4297   -8.0278   21.3548 C   0  0  0  0  0  0
  -21.9930   -9.0241   20.4643 C   0  0  0  0  0  0
  -22.7246  -10.2132   20.3056 C   0  0  0  0  0  0
  -21.6840   -6.0751   22.5296 C   0  0  0  0  0  0
  -21.3991   -6.5651   23.8232 C   0  0  0  0  0  0
  -21.3666   -5.6793   24.9184 C   0  0  0  0  0  0
  -21.6056   -4.3053   24.7223 C   0  0  0  0  0  0
  -21.8819   -3.8151   23.4340 C   0  0  0  0  0  0
  -21.9189   -4.6982   22.3406 C   0  0  0  0  0  0
  -22.7850  -13.5240   21.1850 C   0  0  0  0  0  0
  -22.1659   -4.2178   21.0982 F   0  0  0  0  0  0
  -21.5646   -3.4528   25.7726 F   0  0  0  0  0  0
  -30.0408  -13.2890   20.4469 N   0  0  0  0  0  0
  -26.3018  -12.9367   20.3364 N   0  0  0  0  0  0
  -25.9318  -11.6516   20.5765 N   0  0  0  0  0  0
  -22.0472  -12.8232   22.0399 N   0  0  0  0  0  0
  -25.4280  -15.1909   20.4120 N   0  0  0  0  0  0
  -31.8285  -14.6596   20.0800 O   0  0  0  0  0  0
  -21.6639   -6.8892   21.4256 O   0  0  0  0  0  0
  -22.3544  -14.5546   20.6702 O   0  0  0  0  0  0
  -24.6220  -31.8684   23.2133 C   0  0  0  0  0  0
  -25.9121  -32.4808   23.8428 C   0  0  1  0  0  0
  -27.2253  -27.4089   20.0840 C   0  0  0  0  0  0
  -25.5984  -33.8602   24.2371 N   0  0  0  0  0  0
  -23.4084  -30.4992   21.5573 C   0  0  2  0  0  0
  -24.8480  -28.9685   20.1178 C   0  0  0  0  0  0
  -22.7429  -29.4708   22.5018 C   0  0  0  0  0  0
  -18.0271  -28.1403   22.8492 C   0  0  0  0  0  0
  -24.1491  -36.7294   23.2636 C   0  0  0  0  0  0
  -25.9440  -30.8225   21.3744 C   0  0  0  0  0  0
  -26.0149  -29.4579   20.7182 C   0  0  0  0  0  0
  -27.2015  -28.6843   20.7048 C   0  0  0  0  0  0
  -26.0330  -26.9581   19.4629 C   0  0  0  0  0  0
  -24.8529  -27.7169   19.4908 C   0  0  0  0  0  0
  -23.6162  -29.8406   20.1705 C   0  0  0  0  0  0
  -25.4109  -36.3100   24.0356 C   0  0  1  0  0  0
  -20.5863  -28.3697   23.1316 C   0  0  2  0  0  0
  -20.6772  -26.9442   22.5408 C   0  0  0  0  0  0
  -19.5759  -26.6409   21.5212 C   0  0  0  0  0  0
  -18.1932  -26.7957   22.1609 C   0  0  0  0  0  0
  -19.1518  -28.8872   23.2893 C   0  0  0  0  0  0
  -18.9435  -30.1467   23.8915 C   0  0  0  0  0  0
  -17.6436  -30.6604   24.0561 C   0  0  0  0  0  0
  -25.9051  -34.9464   23.5147 C   0  0  0  0  0  0
  -16.5329  -29.9100   23.6338 C   0  0  0  0  0  0
  -16.7259  -28.6517   23.0364 C   0  0  0  0  0  0
  -26.4528  -31.6574   25.0755 C   0  0  0  0  0  0
  -25.3758  -31.3660   26.1472 C   0  0  0  0  0  0
  -27.0386  -30.3015   24.6161 C   0  0  0  0  0  0
  -27.6132  -32.4265   25.7509 C   0  0  0  0  0  0
  -27.5590  -37.1798   24.8466 C   0  0  0  0  0  0
  -21.4156  -29.3058   22.3724 N   0  0  0  0  0  0
  -26.4292  -37.3788   23.9420 N   0  0  0  0  0  0
  -24.6773  -31.0771   22.1060 N   0  0  0  0  0  0
  -23.4178  -28.8249   23.3080 O   0  0  0  0  0  0
  -28.3893  -26.6456   20.1172 O   0  0  0  0  0  0
  -26.5573  -34.8919   22.4683 O   0  0  0  0  0  0
  -23.5409  -32.1480   23.7508 O   0  0  0  0  0  0
  -28.2593  -23.3199   21.0622 C   0  0  0  0  0  0
  -30.4737  -23.8996   20.1627 C   0  0  0  0  0  0
  -27.5464  -24.2485   20.0636 C   0  0  0  0  0  0
  -29.8653  -24.8887   19.1373 C   0  0  0  0  0  0
  -28.9961  -18.1826   20.8100 C   0  0  0  0  0  0
  -28.9740  -19.6416   20.3416 C   0  0  0  0  0  0
  -29.5345  -22.7069   20.4573 C   0  0  1  0  0  0
  -30.4784  -17.8767   21.0136 C   0  0  1  0  0  0
  -28.4198  -25.3741   19.4256 C   0  0  2  0  0  0
  -31.0125  -19.1652   21.6963 C   0  0  2  0  0  0
  -33.4966  -18.6425   23.5004 C   0  0  0  0  0  0
  -34.3757  -20.4967   22.0102 C   0  0  0  0  0  0
  -30.7815  -16.6221   21.8816 C   0  0  0  0  0  0
  -30.1581  -21.6057   21.3805 C   0  0  0  0  0  0
  -33.1285  -19.8071   22.5697 C   0  0  0  0  0  0
  -30.1667  -15.3682   21.4101 N   0  0  0  0  0  0
  -30.2598  -20.2444   20.7677 N   0  3  2  0  0  0
  -32.3836  -19.3036   21.4645 O   0  0  0  0  0  0
  -31.4643  -12.4022   19.1140 H   0  0  0  0  0  0
  -30.3152  -11.2960   19.8095 H   0  0  0  0  0  0
  -29.7334  -11.7954   17.4183 H   0  0  0  0  0  0
  -29.6631  -13.5024   17.7716 H   0  0  0  0  0  0
  -27.8170  -11.3202   18.8036 H   0  0  0  0  0  0
  -27.3643  -12.6575   17.7836 H   0  0  0  0  0  0
  -27.7074  -14.2630   19.5819 H   0  0  0  0  0  0
  -28.6770  -11.9551   21.3341 H   0  0  0  0  0  0
  -28.4588  -13.5872   21.8723 H   0  0  0  0  0  0
  -25.2776   -9.5702   22.4759 H   0  0  0  0  0  0
  -24.0039   -7.4636   22.7472 H   0  0  0  0  0  0
  -21.0865   -8.8751   19.8945 H   0  0  0  0  0  0
  -22.3718  -10.9656   19.6152 H   0  0  0  0  0  0
  -21.1946   -7.6156   23.9741 H   0  0  0  0  0  0
  -21.1499   -6.0511   25.9097 H   0  0  0  0  0  0
  -22.0583   -2.7615   23.2811 H   0  0  0  0  0  0
  -22.4041  -11.9885   22.4801 H   0  0  0  0  0  0
  -21.1079  -13.1269   22.2564 H   0  0  0  0  0  0
  -24.6616  -15.8446   20.5281 H   0  0  0  0  0  0
  -26.2837  -15.6318   20.0987 H   0  0  0  0  0  0
  -26.7202  -32.5507   23.1196 H   0  0  0  0  0  0
  -25.0196  -33.9745   25.0566 H   0  0  0  0  0  0
  -22.7011  -31.3205   21.4230 H   0  0  0  0  0  0
  -23.3762  -35.9612   23.3277 H   0  0  0  0  0  0
  -24.3604  -36.8916   22.2056 H   0  0  0  0  0  0
  -23.7208  -37.6488   23.6641 H   0  0  0  0  0  0
  -26.0671  -31.5871   20.6063 H   0  0  0  0  0  0
  -26.8305  -30.8694   21.9958 H   0  0  0  0  0  0
  -28.1001  -29.0575   21.1778 H   0  0  0  0  0  0
  -25.9683  -26.0117   18.9518 H   0  0  0  0  0  0
  -23.9564  -27.3356   19.0207 H   0  0  0  0  0  0
  -23.7311  -30.6205   19.4163 H   0  0  0  0  0  0
  -22.7376  -29.2671   19.8709 H   0  0  0  0  0  0
  -25.1272  -36.1973   25.0849 H   0  0  0  0  0  0
  -20.9944  -28.3246   24.1439 H   0  0  0  0  0  0
  -20.5713  -26.2293   23.3579 H   0  0  0  0  0  0
  -21.6638  -26.7521   22.1174 H   0  0  0  0  0  0
  -19.6912  -25.6319   21.1255 H   0  0  0  0  0  0
  -19.6716  -27.3194   20.6728 H   0  0  0  0  0  0
  -17.4212  -26.6725   21.3993 H   0  0  0  0  0  0
  -18.0318  -26.0087   22.8997 H   0  0  0  0  0  0
  -19.7902  -30.7270   24.2314 H   0  0  0  0  0  0
  -17.4993  -31.6299   24.5140 H   0  0  0  0  0  0
  -15.5329  -30.2997   23.7688 H   0  0  0  0  0  0
  -15.8651  -28.0838   22.7087 H   0  0  0  0  0  0
  -24.5966  -30.6997   25.7745 H   0  0  0  0  0  0
  -24.8908  -32.2800   26.4909 H   0  0  0  0  0  0
  -25.8084  -30.8808   27.0231 H   0  0  0  0  0  0
  -26.2958  -29.6719   24.1250 H   0  0  0  0  0  0
  -27.4194  -29.7304   25.4635 H   0  0  0  0  0  0
  -27.8773  -30.4322   23.9319 H   0  0  0  0  0  0
  -27.2823  -33.3580   26.2105 H   0  0  0  0  0  0
  -28.3948  -32.6774   25.0324 H   0  0  0  0  0  0
  -28.0804  -31.8351   26.5397 H   0  0  0  0  0  0
  -28.2587  -38.0114   24.7557 H   0  0  0  0  0  0
  -28.1120  -36.2657   24.6247 H   0  0  0  0  0  0
  -27.2328  -37.1384   25.8871 H   0  0  0  0  0  0
  -20.9342  -29.8746   21.6901 H   0  0  0  0  0  0
  -26.0194  -38.2878   24.1386 H   0  0  0  0  0  0
  -27.5664  -22.5337   21.3656 H   0  0  0  0  0  0
  -28.5019  -23.8752   21.9708 H   0  0  0  0  0  0
  -30.7092  -24.4309   21.0869 H   0  0  0  0  0  0
  -31.4254  -23.5353   19.7722 H   0  0  0  0  0  0
  -26.6655  -24.6547   20.5578 H   0  0  0  0  0  0
  -27.1645  -23.6265   19.2534 H   0  0  0  0  0  0
  -29.8531  -24.3812   18.1725 H   0  0  0  0  0  0
  -30.5226  -25.7487   18.9995 H   0  0  0  0  0  0
  -28.5229  -17.5096   20.0931 H   0  0  0  0  0  0
  -28.4592  -18.0899   21.7549 H   0  0  0  0  0  0
  -28.1091  -20.1625   20.7515 H   0  0  0  0  0  0
  -28.9049  -19.7008   19.2545 H   0  0  0  0  0  0
  -29.2720  -22.2499   19.5017 H   0  0  0  0  0  0
  -30.9619  -17.7757   20.0395 H   0  0  0  0  0  0
  -28.0201  -25.5831   18.4320 H   0  0  0  0  0  0
  -30.6988  -19.2496   22.7413 H   0  0  0  0  0  0
  -34.0835  -18.9887   24.3513 H   0  0  0  0  0  0
  -34.0862  -17.8894   22.9762 H   0  0  0  0  0  0
  -32.6113  -18.1482   23.8980 H   0  0  0  0  0  0
  -34.9909  -20.9057   22.8124 H   0  0  0  0  0  0
  -34.1026  -21.3216   21.3518 H   0  0  0  0  0  0
  -34.9922  -19.8041   21.4369 H   0  0  0  0  0  0
  -30.4272  -16.7858   22.8992 H   0  0  0  0  0  0
  -31.8620  -16.4928   21.9651 H   0  0  0  0  0  0
  -29.6001  -21.5236   22.3146 H   0  0  0  0  0  0
  -31.1628  -21.9114   21.6740 H   0  0  0  0  0  0
  -32.5558  -20.5535   23.1246 H   0  0  0  0  0  0
  -29.2697  -15.1185   21.8000 H   0  0  0  0  0  0
  -30.8013  -20.3473   19.9220 H   0  0  0  0  0  0
  1 25  1  0  0  0
  1 30  2  0  0  0
  1 86  1  0  0  0
  2  3  1  0  0  0
  2 25  1  0  0  0
  2 89  1  0  0  0
  2 90  1  0  0  0
  3  4  1  0  0  0
  3 91  1  0  0  0
  3 92  1  0  0  0
  4  5  1  0  0  0
  4 93  1  0  0  0
  4 94  1  0  0  0
  5  6  1  0  0  0
  5 26  1  0  0  0
  5 95  1  0  0  0
  6 25  1  0  0  0
  6 96  1  0  0  0
  6 97  1  0  0  0
  7  8  2  0  0  0
  7 26  1  0  0  0
  7 29  1  0  0  0
  8  9  1  0  0  0
  8 22  1  0  0  0
  9 10  1  0  0  0
  9 27  2  0  0  0
 10 11  2  0  0  0
 10 15  1  0  0  0
 11 12  1  0  0  0
 11 98  1  0  0  0
 12 13  2  0  0  0
 12 99  1  0  0  0
 13 14  1  0  0  0
 13 31  1  0  0  0
 14 15  2  0  0  0
 14100  1  0  0  0
 15101  1  0  0  0
 16 17  2  0  0  0
 16 21  1  0  0  0
 16 31  1  0  0  0
 17 18  1  0  0  0
 17102  1  0  0  0
 18 19  2  0  0  0
 18103  1  0  0  0
 19 20  1  0  0  0
 19 24  1  0  0  0
 20 21  2  0  0  0
 20104  1  0  0  0
 21 23  1  0  0  0
 22 28  1  0  0  0
 22 32  2  0  0  0
 26 27  1  0  0  0
 28105  1  0  0  0
 28106  1  0  0  0
 29107  1  0  0  0
 29108  1  0  0  0
 33 34  1  0  0  0
 33 66  1  0  0  0
 33 70  2  0  0  0
 34 36  1  0  0  0
 34 59  1  0  0  0
 34109  1  0  0  0
 35 44  2  0  0  0
 35 45  1  0  0  0
 35 68  1  0  0  0
 36 56  1  0  0  0
 36110  1  0  0  0
 37 39  1  0  0  0
 37 47  1  0  0  0
 37 66  1  0  0  0
 37111  1  0  0  0
 38 43  2  0  0  0
 38 46  1  0  0  0
 38 47  1  0  0  0
 39 64  1  0  0  0
 39 67  2  0  0  0
 40 52  1  0  0  0
 40 53  2  0  0  0
 40 58  1  0  0  0
 41112  1  0  0  0
 41113  1  0  0  0
 41114  1  0  0  0
 41 48  1  0  0  0
 42 43  1  0  0  0
 42 66  1  0  0  0
 42115  1  0  0  0
 42116  1  0  0  0
 43 44  1  0  0  0
 44117  1  0  0  0
 45 46  2  0  0  0
 45118  1  0  0  0
 46119  1  0  0  0
 47120  1  0  0  0
 47121  1  0  0  0
 48 56  1  0  0  0
 48 65  1  0  0  0
 48122  1  0  0  0
 49 50  1  0  0  0
 49 53  1  0  0  0
 49 64  1  0  0  0
 49123  1  0  0  0
 50 51  1  0  0  0
 50124  1  0  0  0
 50125  1  0  0  0
 51 52  1  0  0  0
 51126  1  0  0  0
 51127  1  0  0  0
 52128  1  0  0  0
 52129  1  0  0  0
 53 54  1  0  0  0
 54 55  2  0  0  0
 54130  1  0  0  0
 55 57  1  0  0  0
 55131  1  0  0  0
 56 69  2  0  0  0
 57 58  2  0  0  0
 57132  1  0  0  0
 58133  1  0  0  0
 59 60  1  0  0  0
 59 61  1  0  0  0
 59 62  1  0  0  0
 60134  1  0  0  0
 60135  1  0  0  0
 60136  1  0  0  0
 61137  1  0  0  0
 61138  1  0  0  0
 61139  1  0  0  0
 62140  1  0  0  0
 62141  1  0  0  0
 62142  1  0  0  0
 63 65  1  0  0  0
 63143  1  0  0  0
 63144  1  0  0  0
 63145  1  0  0  0
 64146  1  0  0  0
 65147  1  0  0  0
 68 79  1  0  0  0
 71 73  1  0  0  0
 71 77  1  0  0  0
 71148  1  0  0  0
 71149  1  0  0  0
 72 74  1  0  0  0
 72 77  1  0  0  0
 72150  1  0  0  0
 72151  1  0  0  0
 73 79  1  0  0  0
 73152  1  0  0  0
 73153  1  0  0  0
 74 79  1  0  0  0
 74154  1  0  0  0
 74155  1  0  0  0
 75 76  1  0  0  0
 75 78  1  0  0  0
 75156  1  0  0  0
 75157  1  0  0  0
 76 87  1  0  0  0
 76158  1  0  0  0
 76159  1  0  0  0
 77 84  1  0  0  0
 77160  1  0  0  0
 78 80  1  0  0  0
 78 83  1  0  0  0
 78161  1  0  0  0
 79162  1  0  0  0
 80 87  1  0  0  0
 80 88  1  0  0  0
 80163  1  0  0  0
 81164  1  0  0  0
 81165  1  0  0  0
 81166  1  0  0  0
 81 85  1  0  0  0
 82 85  1  0  0  0
 82167  1  0  0  0
 82168  1  0  0  0
 82169  1  0  0  0
 83 86  1  0  0  0
 83170  1  0  0  0
 83171  1  0  0  0
 84172  1  0  0  0
 84173  1  0  0  0
 84 87  1  0  0  0
 85 88  1  0  0  0
 85174  1  0  0  0
 86175  1  0  0  0
 87176  1  0  0  0
M  CHG  1  87   1
M  ISO  4   1 100  68 101  79 101  86 100
M  END
> <chiral flag>
0

> <version>
0

> <s_m_source_file>
/data/baiqing/PycharmProjects/Reinvent-master-3.2/result/LINK_invent/BTK/process_docking_weight1_custom_sum_contain_oxygen_bond_distance_aromatic_linkinvent_7_9_3/rearranged_h_0140.sdf

> <i_m_source_file_index>
14

> <r_mmod_Potential_Energy-OPLS-2005>
-70.1752166748047

> <r_mmod_Stretch_Energy-OPLS-2005>
43.4248275756836

> <r_mmod_Bend_Energy-OPLS-2005>
133.620910644531

> <r_mmod_Torsional_Energy-OPLS-2005>
326.89404296875

> <r_mmod_Improper_Torsional_Energy-OPLS-2005>
1.9099315404892

> <r_mmod_Van_der_Waal_Energy-OPLS-2005>
132.644790649414

> <r_mmod_Electrostatic_Energy-OPLS-2005>
-284.246032714844

> <r_mmod_Solvation_Energy-OPLS-2005>
-438.018737792969

> <b_mmod_Minimization_Converged-OPLS-2005>
0

> <r_mmod_RMS_Derivative-OPLS-2005>
2.52144384384155

$$$$
14
                    3D
 Structure written by MMmdl.
165175  0  0  1  0            999 V2000
  -30.6730  -14.4832   20.5905 C   0  0  0  0  0  0
  -30.4318  -12.3178   19.4131 C   0  0  0  0  0  0
  -29.4955  -12.5138   18.2022 C   0  0  0  0  0  0
  -28.0163  -12.3703   18.6166 C   0  0  0  0  0  0
  -27.6661  -13.2006   19.8811 C   0  0  2  0  0  0
  -28.7113  -12.9556   20.9933 C   0  0  0  0  0  0
  -25.2618  -13.8148   20.5689 C   0  0  0  0  0  0
  -24.1853  -13.0434   20.9172 C   0  0  0  0  0  0
  -24.6397  -11.6899   20.8731 C   0  0  0  0  0  0
  -23.9056  -10.4290   21.0401 C   0  0  0  0  0  0
  -24.3608   -9.4207   21.9182 C   0  0  0  0  0  0
  -23.6287   -8.2241   22.0756 C   0  0  0  0  0  0
  -22.4270   -8.0279   21.3545 C   0  0  0  0  0  0
  -21.9902   -9.0250   20.4646 C   0  0  0  0  0  0
  -22.7227  -10.2131   20.3055 C   0  0  0  0  0  0
  -21.6850   -6.0735   22.5279 C   0  0  0  0  0  0
  -21.4013   -6.5640   23.8212 C   0  0  0  0  0  0
  -21.3658   -5.6795   24.9173 C   0  0  0  0  0  0
  -21.6049   -4.3058   24.7225 C   0  0  0  0  0  0
  -21.8817   -3.8148   23.4347 C   0  0  0  0  0  0
  -21.9191   -4.6963   22.3403 C   0  0  0  0  0  0
  -22.7876  -13.5239   21.1838 C   0  0  0  0  0  0
  -22.1659   -4.2150   21.0979 F   0  0  0  0  0  0
  -21.5629   -3.4542   25.7736 F   0  0  0  0  0  0
  -30.0342  -13.2884   20.4443 N   0  0  0  0  0  0
  -26.3055  -12.9302   20.3403 N   0  0  0  0  0  0
  -25.9328  -11.6467   20.5779 N   0  0  0  0  0  0
  -22.0511  -12.8235   22.0389 N   0  0  0  0  0  0
  -25.4363  -15.1861   20.4099 N   0  0  0  0  0  0
  -31.7807  -14.6920   20.0854 O   0  0  0  0  0  0
  -21.6638   -6.8877   21.4242 O   0  0  0  0  0  0
  -22.3568  -14.5548   20.6688 O   0  0  0  0  0  0
  -24.6152  -31.8666   23.2096 C   0  0  0  0  0  0
  -25.9035  -32.4819   23.8396 C   0  0  1  0  0  0
  -27.2369  -27.4339   20.0939 C   0  0  0  0  0  0
  -25.5884  -33.8615   24.2323 N   0  0  0  0  0  0
  -23.4050  -30.4893   21.5498 C   0  0  2  0  0  0
  -24.8543  -28.9531   20.1153 C   0  0  0  0  0  0
  -22.7418  -29.4651   22.4987 C   0  0  0  0  0  0
  -18.0268  -28.1380   22.8488 C   0  0  0  0  0  0
  -24.1490  -36.7313   23.2640 C   0  0  0  0  0  0
  -25.9342  -30.8320   21.3635 C   0  0  0  0  0  0
  -26.0145  -29.4652   20.7113 C   0  0  0  0  0  0
  -27.2129  -28.7123   20.6987 C   0  0  0  0  0  0
  -26.0637  -26.9346   19.4936 C   0  0  0  0  0  0
  -24.8725  -27.6863   19.5046 C   0  0  0  0  0  0
  -23.6155  -29.8199   20.1650 C   0  0  0  0  0  0
  -25.4109  -36.3105   24.0340 C   0  0  1  0  0  0
  -20.5861  -28.3669   23.1309 C   0  0  2  0  0  0
  -20.6763  -26.9402   22.5417 C   0  0  0  0  0  0
  -19.5749  -26.6387   21.5208 C   0  0  0  0  0  0
  -18.1919  -26.7926   22.1613 C   0  0  0  0  0  0
  -19.1519  -28.8840   23.2895 C   0  0  0  0  0  0
  -18.9451  -30.1441   23.8913 C   0  0  0  0  0  0
  -17.6455  -30.6587   24.0561 C   0  0  0  0  0  0
  -25.9033  -34.9469   23.5131 C   0  0  0  0  0  0
  -16.5345  -29.9092   23.6322 C   0  0  0  0  0  0
  -16.7256  -28.6503   23.0347 C   0  0  0  0  0  0
  -26.4471  -31.6600   25.0721 C   0  0  0  0  0  0
  -25.3738  -31.3694   26.1470 C   0  0  0  0  0  0
  -27.0308  -30.3046   24.6093 C   0  0  0  0  0  0
  -27.6053  -32.4322   25.7474 C   0  0  0  0  0  0
  -27.5586  -37.1802   24.8461 C   0  0  0  0  0  0
  -21.4142  -29.3035   22.3719 N   0  0  0  0  0  0
  -26.4298  -37.3789   23.9409 N   0  0  0  0  0  0
  -24.6696  -31.0769   22.0996 N   0  0  0  0  0  0
  -23.4180  -28.8193   23.3036 O   0  0  0  0  0  0
  -28.3737  -26.6575   20.0801 O   0  0  0  0  0  0
  -26.5600  -34.8918   22.4696 O   0  0  0  0  0  0
  -23.5339  -32.1425   23.7484 O   0  0  0  0  0  0
  -29.6273  -20.0947   19.8475 C   0  0  0  0  0  0
  -28.9553  -23.8837   19.2980 C   0  0  0  0  0  0
  -28.8311  -23.1982   21.6184 C   0  0  0  0  0  0
  -29.3632  -21.5113   19.8887 C   0  0  0  0  0  0
  -28.7407  -24.2226   20.6507 C   0  0  0  0  0  0
  -29.2544  -22.5491   18.9214 C   0  0  0  0  0  0
  -29.1461  -21.8699   21.2484 C   0  0  0  0  0  0
  -29.5365  -19.6153   21.1332 C   0  0  0  0  0  0
  -29.8824  -21.6093   24.2667 C   0  0  0  0  0  0
  -30.3378  -20.1730   24.2160 C   0  0  0  0  0  0
  -29.1100  -20.6009   23.4381 C   0  0  0  0  0  0
  -29.4446  -22.2150   17.4547 C   0  0  0  0  0  0
  -28.3952  -25.6501   21.1058 C   0  0  0  0  0  0
  -29.5814  -18.1838   21.6442 C   0  0  0  0  0  0
  -29.9759  -15.6565   21.3317 C   0  0  0  0  0  0
  -30.2164  -17.0849   20.7491 C   0  0  0  0  0  0
  -29.2975  -20.6986   21.9936 N   0  0  0  0  0  0
  -31.4742  -12.4311   19.1111 H   0  0  0  0  0  0
  -30.3470  -11.3018   19.8017 H   0  0  0  0  0  0
  -29.7359  -11.7929   17.4198 H   0  0  0  0  0  0
  -29.6602  -13.5015   17.7692 H   0  0  0  0  0  0
  -27.8257  -11.3130   18.8045 H   0  0  0  0  0  0
  -27.3641  -12.6531   17.7892 H   0  0  0  0  0  0
  -27.7169  -14.2515   19.5970 H   0  0  0  0  0  0
  -28.6970  -11.9072   21.2949 H   0  0  0  0  0  0
  -28.4762  -13.5074   21.9031 H   0  0  0  0  0  0
  -25.2753   -9.5685   22.4757 H   0  0  0  0  0  0
  -23.9998   -7.4634   22.7477 H   0  0  0  0  0  0
  -21.0834   -8.8767   19.8951 H   0  0  0  0  0  0
  -22.3685  -10.9671   19.6166 H   0  0  0  0  0  0
  -21.2005   -7.6147   23.9715 H   0  0  0  0  0  0
  -21.1484   -6.0525   25.9077 H   0  0  0  0  0  0
  -22.0598   -2.7612   23.2845 H   0  0  0  0  0  0
  -22.4112  -11.9884   22.4766 H   0  0  0  0  0  0
  -21.1139  -13.1279   22.2609 H   0  0  0  0  0  0
  -24.6748  -15.8465   20.5220 H   0  0  0  0  0  0
  -26.2976  -15.6225   20.1054 H   0  0  0  0  0  0
  -26.7109  -32.5538   23.1165 H   0  0  0  0  0  0
  -25.0044  -33.9787   25.0474 H   0  0  0  0  0  0
  -22.6942  -31.3059   21.4082 H   0  0  0  0  0  0
  -23.3751  -35.9646   23.3305 H   0  0  0  0  0  0
  -24.3590  -36.8929   22.2054 H   0  0  0  0  0  0
  -23.7246  -37.6519   23.6659 H   0  0  0  0  0  0
  -26.0464  -31.5988   20.5951 H   0  0  0  0  0  0
  -26.8210  -30.8857   21.9835 H   0  0  0  0  0  0
  -28.1101  -29.1014   21.1599 H   0  0  0  0  0  0
  -26.0741  -25.9614   19.0226 H   0  0  0  0  0  0
  -23.9805  -27.2866   19.0415 H   0  0  0  0  0  0
  -23.7220  -30.5938   19.4038 H   0  0  0  0  0  0
  -22.7391  -29.2394   19.8707 H   0  0  0  0  0  0
  -25.1286  -36.1976   25.0837 H   0  0  0  0  0  0
  -20.9949  -28.3244   24.1430 H   0  0  0  0  0  0
  -20.5677  -26.2272   23.3604 H   0  0  0  0  0  0
  -21.6633  -26.7459   22.1204 H   0  0  0  0  0  0
  -19.6920  -25.6303   21.1228 H   0  0  0  0  0  0
  -19.6699  -27.3201   20.6744 H   0  0  0  0  0  0
  -17.4194  -26.6666   21.4010 H   0  0  0  0  0  0
  -18.0325  -26.0075   22.9018 H   0  0  0  0  0  0
  -19.7932  -30.7241   24.2302 H   0  0  0  0  0  0
  -17.5015  -31.6270   24.5157 H   0  0  0  0  0  0
  -15.5342  -30.2994   23.7651 H   0  0  0  0  0  0
  -15.8654  -28.0827   22.7061 H   0  0  0  0  0  0
  -24.5913  -30.7045   25.7801 H   0  0  0  0  0  0
  -24.8924  -32.2838   26.4945 H   0  0  0  0  0  0
  -25.8090  -30.8846   27.0216 H   0  0  0  0  0  0
  -26.2852  -29.6793   24.1170 H   0  0  0  0  0  0
  -27.4110  -29.7296   25.4544 H   0  0  0  0  0  0
  -27.8667  -30.4373   23.9219 H   0  0  0  0  0  0
  -27.2687  -33.3622   26.2069 H   0  0  0  0  0  0
  -28.3842  -32.6887   25.0280 H   0  0  0  0  0  0
  -28.0740  -31.8434   26.5369 H   0  0  0  0  0  0
  -28.2593  -38.0110   24.7525 H   0  0  0  0  0  0
  -28.1091  -36.2641   24.6267 H   0  0  0  0  0  0
  -27.2302  -37.1427   25.8862 H   0  0  0  0  0  0
  -20.9304  -29.8755   21.6938 H   0  0  0  0  0  0
  -26.0187  -38.2870   24.1410 H   0  0  0  0  0  0
  -29.8096  -19.5182   18.9516 H   0  0  0  0  0  0
  -28.8772  -24.6553   18.5425 H   0  0  0  0  0  0
  -28.6540  -23.4322   22.6586 H   0  0  0  0  0  0
  -30.5168  -22.3370   23.7635 H   0  0  0  0  0  0
  -29.4201  -21.9584   25.1878 H   0  0  0  0  0  0
  -30.1775  -19.5619   25.1021 H   0  0  0  0  0  0
  -31.2552  -19.9656   23.6674 H   0  0  0  0  0  0
  -28.1139  -20.2731   23.7317 H   0  0  0  0  0  0
  -29.1215  -23.0359   16.8135 H   0  0  0  0  0  0
  -28.8610  -21.3335   17.1857 H   0  0  0  0  0  0
  -30.4936  -22.0083   17.2415 H   0  0  0  0  0  0
  -29.1392  -25.9540   21.8430 H   0  0  0  0  0  0
  -27.4461  -25.6017   21.6441 H   0  0  0  0  0  0
  -28.5557  -17.8888   21.8698 H   0  0  0  0  0  0
  -30.1013  -18.1476   22.5991 H   0  0  0  0  0  0
  -28.8976  -15.5165   21.3437 H   0  0  0  0  0  0
  -30.3012  -15.6193   22.3715 H   0  0  0  0  0  0
  -31.2839  -17.2798   20.6377 H   0  0  0  0  0  0
  -29.7864  -17.1316   19.7482 H   0  0  0  0  0  0
  1 25  1  0  0  0
  1 30  2  0  0  0
  1 85  1  0  0  0
  2  3  1  0  0  0
  2 25  1  0  0  0
  2 88  1  0  0  0
  2 89  1  0  0  0
  3  4  1  0  0  0
  3 90  1  0  0  0
  3 91  1  0  0  0
  4  5  1  0  0  0
  4 92  1  0  0  0
  4 93  1  0  0  0
  5  6  1  0  0  0
  5 26  1  0  0  0
  5 94  1  0  0  0
  6 25  1  0  0  0
  6 95  1  0  0  0
  6 96  1  0  0  0
  7  8  2  0  0  0
  7 26  1  0  0  0
  7 29  1  0  0  0
  8  9  1  0  0  0
  8 22  1  0  0  0
  9 10  1  0  0  0
  9 27  2  0  0  0
 10 11  2  0  0  0
 10 15  1  0  0  0
 11 12  1  0  0  0
 11 97  1  0  0  0
 12 13  2  0  0  0
 12 98  1  0  0  0
 13 14  1  0  0  0
 13 31  1  0  0  0
 14 15  2  0  0  0
 14 99  1  0  0  0
 15100  1  0  0  0
 16 17  2  0  0  0
 16 21  1  0  0  0
 16 31  1  0  0  0
 17 18  1  0  0  0
 17101  1  0  0  0
 18 19  2  0  0  0
 18102  1  0  0  0
 19 20  1  0  0  0
 19 24  1  0  0  0
 20 21  2  0  0  0
 20103  1  0  0  0
 21 23  1  0  0  0
 22 28  1  0  0  0
 22 32  2  0  0  0
 26 27  1  0  0  0
 28104  1  0  0  0
 28105  1  0  0  0
 29106  1  0  0  0
 29107  1  0  0  0
 33 34  1  0  0  0
 33 66  1  0  0  0
 33 70  2  0  0  0
 34 36  1  0  0  0
 34 59  1  0  0  0
 34108  1  0  0  0
 35 44  2  0  0  0
 35 45  1  0  0  0
 35 68  1  0  0  0
 36 56  1  0  0  0
 36109  1  0  0  0
 37 39  1  0  0  0
 37 47  1  0  0  0
 37 66  1  0  0  0
 37110  1  0  0  0
 38 43  2  0  0  0
 38 46  1  0  0  0
 38 47  1  0  0  0
 39 64  1  0  0  0
 39 67  2  0  0  0
 40 52  1  0  0  0
 40 53  2  0  0  0
 40 58  1  0  0  0
 41111  1  0  0  0
 41112  1  0  0  0
 41113  1  0  0  0
 41 48  1  0  0  0
 42 43  1  0  0  0
 42 66  1  0  0  0
 42114  1  0  0  0
 42115  1  0  0  0
 43 44  1  0  0  0
 44116  1  0  0  0
 45 46  2  0  0  0
 45117  1  0  0  0
 46118  1  0  0  0
 47119  1  0  0  0
 47120  1  0  0  0
 48 56  1  0  0  0
 48 65  1  0  0  0
 48121  1  0  0  0
 49 50  1  0  0  0
 49 53  1  0  0  0
 49 64  1  0  0  0
 49122  1  0  0  0
 50 51  1  0  0  0
 50123  1  0  0  0
 50124  1  0  0  0
 51 52  1  0  0  0
 51125  1  0  0  0
 51126  1  0  0  0
 52127  1  0  0  0
 52128  1  0  0  0
 53 54  1  0  0  0
 54 55  2  0  0  0
 54129  1  0  0  0
 55 57  1  0  0  0
 55130  1  0  0  0
 56 69  2  0  0  0
 57 58  2  0  0  0
 57131  1  0  0  0
 58132  1  0  0  0
 59 60  1  0  0  0
 59 61  1  0  0  0
 59 62  1  0  0  0
 60133  1  0  0  0
 60134  1  0  0  0
 60135  1  0  0  0
 61136  1  0  0  0
 61137  1  0  0  0
 61138  1  0  0  0
 62139  1  0  0  0
 62140  1  0  0  0
 62141  1  0  0  0
 63 65  1  0  0  0
 63142  1  0  0  0
 63143  1  0  0  0
 63144  1  0  0  0
 64145  1  0  0  0
 65146  1  0  0  0
 68 83  1  0  0  0
 71 74  1  0  0  0
 71 78  2  0  0  0
 71147  1  0  0  0
 72 75  2  0  0  0
 72 76  1  0  0  0
 72148  1  0  0  0
 73 75  1  0  0  0
 73 77  2  0  0  0
 73149  1  0  0  0
 74 76  2  0  0  0
 74 77  1  0  0  0
 75 83  1  0  0  0
 76 82  1  0  0  0
 77 87  1  0  0  0
 78 84  1  0  0  0
 78 87  1  0  0  0
 79 80  1  0  0  0
 79 81  1  0  0  0
 79150  1  0  0  0
 79151  1  0  0  0
 80 81  1  0  0  0
 80152  1  0  0  0
 80153  1  0  0  0
 81 87  1  0  0  0
 81154  1  0  0  0
 82155  1  0  0  0
 82156  1  0  0  0
 82157  1  0  0  0
 83158  1  0  0  0
 83159  1  0  0  0
 84 86  1  0  0  0
 84160  1  0  0  0
 84161  1  0  0  0
 85 86  1  0  0  0
 85162  1  0  0  0
 85163  1  0  0  0
 86164  1  0  0  0
 86165  1  0  0  0
M  ISO  4   1 100  68 101  83 101  85 100
M  END
> <chiral flag>
0

> <version>
0

> <s_m_source_file>
/data/baiqing/PycharmProjects/Reinvent-master-3.2/result/LINK_invent/BTK/process_docking_weight1_custom_sum_contain_oxygen_bond_distance_aromatic_linkinvent_7_9_3/rearranged_h_0140.sdf

> <i_m_source_file_index>
15

> <r_mmod_Potential_Energy-OPLS-2005>
53.631404876709

> <r_mmod_Stretch_Energy-OPLS-2005>
40.4784889221191

> <r_mmod_Bend_Energy-OPLS-2005>
102.248550415039

> <r_mmod_Torsional_Energy-OPLS-2005>
258.464263916016

> <r_mmod_Improper_Torsional_Energy-OPLS-2005>
2.76415371894836

> <r_mmod_Van_der_Waal_Energy-OPLS-2005>
139.726638793945

> <r_mmod_Electrostatic_Energy-OPLS-2005>
-311.457763671875

> <r_mmod_Solvation_Energy-OPLS-2005>
-191.271347045898

> <b_mmod_Minimization_Converged-OPLS-2005>
0

> <r_mmod_RMS_Derivative-OPLS-2005>
1.01470160484314

$$$$
15
                    3D
 Structure written by MMmdl.
172181  0  0  1  0            999 V2000
  -30.7447  -14.5788   20.4731 C   0  0  0  0  0  0
  -30.3918  -12.3797   19.4060 C   0  0  0  0  0  0
  -29.4637  -12.4915   18.1853 C   0  0  0  0  0  0
  -27.9997  -12.3347   18.6235 C   0  0  0  0  0  0
  -27.6338  -13.2333   19.8361 C   0  0  2  0  0  0
  -28.6894  -13.1680   20.9582 C   0  0  0  0  0  0
  -25.2502  -13.8232   20.5647 C   0  0  0  0  0  0
  -24.1793  -13.0476   20.9212 C   0  0  0  0  0  0
  -24.6389  -11.6953   20.8775 C   0  0  0  0  0  0
  -23.9036  -10.4328   21.0405 C   0  0  0  0  0  0
  -24.3585   -9.4252   21.9192 C   0  0  0  0  0  0
  -23.6262   -8.2280   22.0774 C   0  0  0  0  0  0
  -22.4252   -8.0301   21.3554 C   0  0  0  0  0  0
  -21.9890   -9.0256   20.4636 C   0  0  0  0  0  0
  -22.7208  -10.2147   20.3040 C   0  0  0  0  0  0
  -21.6872   -6.0730   22.5264 C   0  0  0  0  0  0
  -21.4041   -6.5632   23.8204 C   0  0  0  0  0  0
  -21.3672   -5.6784   24.9162 C   0  0  0  0  0  0
  -21.6073   -4.3055   24.7219 C   0  0  0  0  0  0
  -21.8806   -3.8139   23.4337 C   0  0  0  0  0  0
  -21.9189   -4.6952   22.3392 C   0  0  0  0  0  0
  -22.7819  -13.5270   21.1838 C   0  0  0  0  0  0
  -22.1650   -4.2128   21.0982 F   0  0  0  0  0  0
  -21.5621   -3.4544   25.7743 F   0  0  0  0  0  0
  -29.9882  -13.4494   20.3396 N   0  0  0  0  0  0
  -26.2922  -12.9430   20.3264 N   0  0  0  0  0  0
  -25.9339  -11.6576   20.5811 N   0  0  0  0  0  0
  -22.0458  -12.8252   22.0398 N   0  0  0  0  0  0
  -25.4259  -15.1930   20.3980 N   0  0  0  0  0  0
  -31.9655  -14.5037   20.3447 O   0  0  0  0  0  0
  -21.6651   -6.8871   21.4221 O   0  0  0  0  0  0
  -22.3490  -14.5551   20.6669 O   0  0  0  0  0  0
  -24.6271  -31.8755   23.2122 C   0  0  0  0  0  0
  -25.9150  -32.4934   23.8442 C   0  0  1  0  0  0
  -27.2060  -27.3966   20.1036 C   0  0  0  0  0  0
  -25.5976  -33.8736   24.2362 N   0  0  0  0  0  0
  -23.4099  -30.5052   21.5640 C   0  0  2  0  0  0
  -24.8442  -28.9763   20.1008 C   0  0  0  0  0  0
  -22.7463  -29.4735   22.5101 C   0  0  0  0  0  0
  -18.0381  -28.1347   22.8459 C   0  0  0  0  0  0
  -24.1481  -36.7333   23.2617 C   0  0  0  0  0  0
  -25.9449  -30.8171   21.3782 C   0  0  0  0  0  0
  -26.0104  -29.4586   20.7159 C   0  0  0  0  0  0
  -27.1870  -28.6733   20.7151 C   0  0  0  0  0  0
  -26.0203  -26.9597   19.4561 C   0  0  0  0  0  0
  -24.8537  -27.7376   19.4514 C   0  0  0  0  0  0
  -23.6162  -29.8542   20.1679 C   0  0  0  0  0  0
  -25.4135  -36.3218   24.0342 C   0  0  1  0  0  0
  -20.5915  -28.3769   23.1438 C   0  0  2  0  0  0
  -20.6991  -26.9588   22.5398 C   0  0  0  0  0  0
  -19.5976  -26.6588   21.5230 C   0  0  0  0  0  0
  -18.2203  -26.7890   22.1702 C   0  0  0  0  0  0
  -19.1523  -28.8886   23.2921 C   0  0  0  0  0  0
  -18.9373  -30.1525   23.8857 C   0  0  0  0  0  0
  -17.6310  -30.6534   24.0555 C   0  0  0  0  0  0
  -25.9055  -34.9568   23.5152 C   0  0  0  0  0  0
  -16.5301  -29.8925   23.6260 C   0  0  0  0  0  0
  -16.7318  -28.6403   23.0187 C   0  0  0  0  0  0
  -26.4478  -31.6760   25.0819 C   0  0  0  0  0  0
  -25.3664  -31.3737   26.1463 C   0  0  0  0  0  0
  -27.0271  -30.3204   24.6288 C   0  0  0  0  0  0
  -27.6119  -32.4408   25.7614 C   0  0  0  0  0  0
  -27.5626  -37.1852   24.8472 C   0  0  0  0  0  0
  -21.4150  -29.3228   22.3917 N   0  0  0  0  0  0
  -26.4356  -37.3897   23.9412 N   0  0  0  0  0  0
  -24.6817  -31.0777   22.1121 N   0  0  0  0  0  0
  -23.4192  -28.8286   23.3207 O   0  0  0  0  0  0
  -28.3707  -26.6444   20.1687 O   0  0  0  0  0  0
  -26.5558  -34.9024   22.4680 O   0  0  0  0  0  0
  -23.5425  -32.1578   23.7443 O   0  0  0  0  0  0
  -28.2843  -22.3944   22.1415 C   0  0  0  0  0  0
  -28.1150  -22.7936   20.7880 C   0  0  0  0  0  0
  -28.2209  -21.0359   22.5233 C   0  0  0  0  0  0
  -27.6274  -21.7552   19.9079 C   0  0  0  0  0  0
  -28.0584  -20.0607   21.5195 C   0  0  0  0  0  0
  -31.5063  -17.8433   20.2901 C   0  0  0  0  0  0
  -30.8903  -17.5425   21.6560 C   0  0  0  0  0  0
  -30.9491  -16.7318   19.3730 C   0  0  0  0  0  0
  -29.6422  -16.7238   21.2902 C   0  0  1  0  0  0
  -28.4109  -20.6336   23.9884 C   0  0  0  0  0  0
  -26.4219  -23.2814   18.1059 C   0  0  0  0  0  0
  -25.3743  -21.2296   18.8238 C   0  0  0  0  0  0
  -28.8808  -24.1317   20.4275 C   0  0  0  0  0  0
  -28.5075  -17.7201   20.8129 C   0  0  0  0  0  0
  -28.4664  -25.3558   19.5189 C   0  0  0  0  0  0
  -26.7610  -21.8866   18.6159 C   0  0  0  0  0  0
  -27.7299  -20.4376   20.2611 N   0  0  0  0  0  0
  -30.1552  -15.8036   20.2261 N   0  0  0  0  0  0
  -28.1770  -18.7034   21.8244 O   0  0  0  0  0  0
  -31.4331  -12.4510   19.0851 H   0  0  0  0  0  0
  -30.2827  -11.4054   19.8831 H   0  0  0  0  0  0
  -29.7113  -11.7326   17.4471 H   0  0  0  0  0  0
  -29.6039  -13.4550   17.6868 H   0  0  0  0  0  0
  -27.8332  -11.2790   18.8642 H   0  0  0  0  0  0
  -27.3326  -12.5570   17.7896 H   0  0  0  0  0  0
  -27.6301  -14.2540   19.4525 H   0  0  0  0  0  0
  -28.6995  -12.1920   21.4423 H   0  0  0  0  0  0
  -28.4647  -13.9031   21.7291 H   0  0  0  0  0  0
  -25.2734   -9.5747   22.4751 H   0  0  0  0  0  0
  -23.9983   -7.4694   22.7499 H   0  0  0  0  0  0
  -21.0854   -8.8763   19.8906 H   0  0  0  0  0  0
  -22.3684  -10.9672   19.6131 H   0  0  0  0  0  0
  -21.2039   -7.6149   23.9697 H   0  0  0  0  0  0
  -21.1518   -6.0527   25.9074 H   0  0  0  0  0  0
  -22.0563   -2.7583   23.2852 H   0  0  0  0  0  0
  -22.4103  -11.9947   22.4809 H   0  0  0  0  0  0
  -21.1072  -13.1249   22.2596 H   0  0  0  0  0  0
  -24.6647  -15.8548   20.4730 H   0  0  0  0  0  0
  -26.2770  -15.6074   20.0366 H   0  0  0  0  0  0
  -26.7261  -32.5551   23.1248 H   0  0  0  0  0  0
  -25.0266  -33.9897   25.0597 H   0  0  0  0  0  0
  -22.6934  -31.3165   21.4325 H   0  0  0  0  0  0
  -23.3867  -35.9565   23.3352 H   0  0  0  0  0  0
  -24.3485  -36.8861   22.1992 H   0  0  0  0  0  0
  -23.7097  -37.6509   23.6579 H   0  0  0  0  0  0
  -26.0549  -31.5842   20.6126 H   0  0  0  0  0  0
  -26.8361  -30.8682   21.9944 H   0  0  0  0  0  0
  -28.0891  -29.0348   21.1912 H   0  0  0  0  0  0
  -25.9270  -26.0249   18.9353 H   0  0  0  0  0  0
  -23.9770  -27.3875   18.9159 H   0  0  0  0  0  0
  -23.7453  -30.6507   19.4335 H   0  0  0  0  0  0
  -22.7286  -29.3010   19.8530 H   0  0  0  0  0  0
  -25.1347  -36.2139   25.0863 H   0  0  0  0  0  0
  -20.9923  -28.3353   24.1643 H   0  0  0  0  0  0
  -20.6264  -26.2346   23.3489 H   0  0  0  0  0  0
  -21.6897  -26.7929   22.1106 H   0  0  0  0  0  0
  -19.7351  -25.6591   21.1084 H   0  0  0  0  0  0
  -19.6862  -27.3585   20.6900 H   0  0  0  0  0  0
  -17.4495  -26.6404   21.4144 H   0  0  0  0  0  0
  -18.0931  -26.0048   22.9162 H   0  0  0  0  0  0
  -19.7842  -30.7404   24.2192 H   0  0  0  0  0  0
  -17.4748  -31.6181   24.5190 H   0  0  0  0  0  0
  -15.5235  -30.2687   23.7559 H   0  0  0  0  0  0
  -15.8833  -28.0662   22.6704 H   0  0  0  0  0  0
  -24.6017  -30.6949   25.7625 H   0  0  0  0  0  0
  -24.8614  -32.2777   26.4891 H   0  0  0  0  0  0
  -25.7937  -30.8850   27.0226 H   0  0  0  0  0  0
  -26.2666  -29.6879   24.1665 H   0  0  0  0  0  0
  -27.4197  -29.7660   25.4804 H   0  0  0  0  0  0
  -27.8537  -30.4408   23.9283 H   0  0  0  0  0  0
  -27.2893  -33.3711   26.2331 H   0  0  0  0  0  0
  -28.3974  -32.6944   25.0478 H   0  0  0  0  0  0
  -28.0887  -31.8432   26.5413 H   0  0  0  0  0  0
  -28.2726  -38.0059   24.7628 H   0  0  0  0  0  0
  -28.1049  -36.2647   24.6315 H   0  0  0  0  0  0
  -27.2322  -37.1537   25.8843 H   0  0  0  0  0  0
  -20.9336  -29.8899   21.7073 H   0  0  0  0  0  0
  -26.0320  -38.3025   24.1415 H   0  0  0  0  0  0
  -28.5664  -23.1204   22.8903 H   0  0  0  0  0  0
  -32.5951  -17.8422   20.3389 H   0  0  0  0  0  0
  -31.2037  -18.8313   19.9280 H   0  0  0  0  0  0
  -31.5748  -16.9423   22.2609 H   0  0  0  0  0  0
  -30.6647  -18.4482   22.2318 H   0  0  0  0  0  0
  -30.3124  -17.1594   18.5937 H   0  0  0  0  0  0
  -31.7619  -16.2713   18.8088 H   0  0  0  0  0  0
  -29.2778  -16.1630   22.1561 H   0  0  0  0  0  0
  -27.4497  -20.6164   24.5054 H   0  0  0  0  0  0
  -29.0598  -21.3340   24.5213 H   0  0  0  0  0  0
  -28.8535  -19.6428   24.0792 H   0  0  0  0  0  0
  -27.2769  -23.6865   17.5634 H   0  0  0  0  0  0
  -26.1163  -23.8601   18.9774 H   0  0  0  0  0  0
  -25.5987  -23.3225   17.3809 H   0  0  0  0  0  0
  -25.4508  -20.1639   19.0265 H   0  0  0  0  0  0
  -24.7405  -21.3244   17.9387 H   0  0  0  0  0  0
  -24.8457  -21.7065   19.6513 H   0  0  0  0  0  0
  -29.8335  -23.7836   20.0292 H   0  0  0  0  0  0
  -29.1700  -24.5879   21.3757 H   0  0  0  0  0  0
  -27.6144  -17.1698   20.5222 H   0  0  0  0  0  0
  -28.8411  -18.2275   19.9059 H   0  0  0  0  0  0
  -27.7344  -25.2184   18.7570 H   0  0  0  0  0  0
  -29.3517  -25.5063   18.8961 H   0  0  0  0  0  0
  -27.2930  -21.3643   17.8187 H   0  0  0  0  0  0
  1 25  1  0  0  0
  1 30  2  0  0  0
  1 88  1  0  0  0
  2  3  1  0  0  0
  2 25  1  0  0  0
  2 90  1  0  0  0
  2 91  1  0  0  0
  3  4  1  0  0  0
  3 92  1  0  0  0
  3 93  1  0  0  0
  4  5  1  0  0  0
  4 94  1  0  0  0
  4 95  1  0  0  0
  5  6  1  0  0  0
  5 26  1  0  0  0
  5 96  1  0  0  0
  6 25  1  0  0  0
  6 97  1  0  0  0
  6 98  1  0  0  0
  7  8  2  0  0  0
  7 26  1  0  0  0
  7 29  1  0  0  0
  8  9  1  0  0  0
  8 22  1  0  0  0
  9 10  1  0  0  0
  9 27  2  0  0  0
 10 11  2  0  0  0
 10 15  1  0  0  0
 11 12  1  0  0  0
 11 99  1  0  0  0
 12 13  2  0  0  0
 12100  1  0  0  0
 13 14  1  0  0  0
 13 31  1  0  0  0
 14 15  2  0  0  0
 14101  1  0  0  0
 15102  1  0  0  0
 16 17  2  0  0  0
 16 21  1  0  0  0
 16 31  1  0  0  0
 17 18  1  0  0  0
 17103  1  0  0  0
 18 19  2  0  0  0
 18104  1  0  0  0
 19 20  1  0  0  0
 19 24  1  0  0  0
 20 21  2  0  0  0
 20105  1  0  0  0
 21 23  1  0  0  0
 22 28  1  0  0  0
 22 32  2  0  0  0
 26 27  1  0  0  0
 28106  1  0  0  0
 28107  1  0  0  0
 29108  1  0  0  0
 29109  1  0  0  0
 33 34  1  0  0  0
 33 66  1  0  0  0
 33 70  2  0  0  0
 34 36  1  0  0  0
 34 59  1  0  0  0
 34110  1  0  0  0
 35 44  2  0  0  0
 35 45  1  0  0  0
 35 68  1  0  0  0
 36 56  1  0  0  0
 36111  1  0  0  0
 37 39  1  0  0  0
 37 47  1  0  0  0
 37 66  1  0  0  0
 37112  1  0  0  0
 38 43  2  0  0  0
 38 46  1  0  0  0
 38 47  1  0  0  0
 39 64  1  0  0  0
 39 67  2  0  0  0
 40 52  1  0  0  0
 40 53  2  0  0  0
 40 58  1  0  0  0
 41113  1  0  0  0
 41114  1  0  0  0
 41115  1  0  0  0
 41 48  1  0  0  0
 42 43  1  0  0  0
 42 66  1  0  0  0
 42116  1  0  0  0
 42117  1  0  0  0
 43 44  1  0  0  0
 44118  1  0  0  0
 45 46  2  0  0  0
 45119  1  0  0  0
 46120  1  0  0  0
 47121  1  0  0  0
 47122  1  0  0  0
 48 56  1  0  0  0
 48 65  1  0  0  0
 48123  1  0  0  0
 49 50  1  0  0  0
 49 53  1  0  0  0
 49 64  1  0  0  0
 49124  1  0  0  0
 50 51  1  0  0  0
 50125  1  0  0  0
 50126  1  0  0  0
 51 52  1  0  0  0
 51127  1  0  0  0
 51128  1  0  0  0
 52129  1  0  0  0
 52130  1  0  0  0
 53 54  1  0  0  0
 54 55  2  0  0  0
 54131  1  0  0  0
 55 57  1  0  0  0
 55132  1  0  0  0
 56 69  2  0  0  0
 57 58  2  0  0  0
 57133  1  0  0  0
 58134  1  0  0  0
 59 60  1  0  0  0
 59 61  1  0  0  0
 59 62  1  0  0  0
 60135  1  0  0  0
 60136  1  0  0  0
 60137  1  0  0  0
 61138  1  0  0  0
 61139  1  0  0  0
 61140  1  0  0  0
 62141  1  0  0  0
 62142  1  0  0  0
 62143  1  0  0  0
 63 65  1  0  0  0
 63144  1  0  0  0
 63145  1  0  0  0
 63146  1  0  0  0
 64147  1  0  0  0
 65148  1  0  0  0
 68 85  1  0  0  0
 71 72  2  0  0  0
 71 73  1  0  0  0
 71149  1  0  0  0
 72 74  1  0  0  0
 72 83  1  0  0  0
 73 75  2  0  0  0
 73 80  1  0  0  0
 74 86  1  0  0  0
 74 87  2  0  0  0
 75 87  1  0  0  0
 75 89  1  0  0  0
 76 77  1  0  0  0
 76 78  1  0  0  0
 76150  1  0  0  0
 76151  1  0  0  0
 77 79  1  0  0  0
 77152  1  0  0  0
 77153  1  0  0  0
 78 88  1  0  0  0
 78154  1  0  0  0
 78155  1  0  0  0
 79 84  1  0  0  0
 79 88  1  0  0  0
 79156  1  0  0  0
 80157  1  0  0  0
 80158  1  0  0  0
 80159  1  0  0  0
 81160  1  0  0  0
 81161  1  0  0  0
 81162  1  0  0  0
 81 86  1  0  0  0
 82 86  1  0  0  0
 82163  1  0  0  0
 82164  1  0  0  0
 82165  1  0  0  0
 83 85  1  0  0  0
 83166  1  0  0  0
 83167  1  0  0  0
 84 89  1  0  0  0
 84168  1  0  0  0
 84169  1  0  0  0
 85170  1  0  0  0
 85171  1  0  0  0
 86172  1  0  0  0
M  ISO  4   1 100  68 101  85 101  88 100
M  END
> <chiral flag>
0

> <version>
0

> <s_m_source_file>
/data/baiqing/PycharmProjects/Reinvent-master-3.2/result/LINK_invent/BTK/process_docking_weight1_custom_sum_contain_oxygen_bond_distance_aromatic_linkinvent_7_9_3/rearranged_h_0140.sdf

> <i_m_source_file_index>
16

> <r_mmod_Potential_Energy-OPLS-2005>
290.859375

> <r_mmod_Stretch_Energy-OPLS-2005>
74.1801300048828

> <r_mmod_Bend_Energy-OPLS-2005>
261.903198242188

> <r_mmod_Torsional_Energy-OPLS-2005>
409.577911376953

> <r_mmod_Improper_Torsional_Energy-OPLS-2005>
27.0516586303711

> <r_mmod_Van_der_Waal_Energy-OPLS-2005>
180.024795532227

> <r_mmod_Electrostatic_Energy-OPLS-2005>
-519.001403808594

> <r_mmod_Solvation_Energy-OPLS-2005>
-196.638778686523

> <b_mmod_Minimization_Converged-OPLS-2005>
0

> <r_mmod_RMS_Derivative-OPLS-2005>
10.5935850143433

$$$$
16
                    3D
 Structure written by MMmdl.
179187  0  0  1  0            999 V2000
  -30.5543  -14.7722   20.4662 C   0  0  0  0  0  0
  -30.4516  -12.4804   19.4526 C   0  0  0  0  0  0
  -29.5156  -12.5172   18.2248 C   0  0  0  0  0  0
  -28.0406  -12.3318   18.6395 C   0  0  0  0  0  0
  -27.6442  -13.2231   19.8474 C   0  0  2  0  0  0
  -28.6935  -13.1375   20.9750 C   0  0  0  0  0  0
  -25.2545  -13.8180   20.5683 C   0  0  0  0  0  0
  -24.1836  -13.0426   20.9204 C   0  0  0  0  0  0
  -24.6429  -11.6912   20.8761 C   0  0  0  0  0  0
  -23.9100  -10.4290   21.0411 C   0  0  0  0  0  0
  -24.3658   -9.4206   21.9185 C   0  0  0  0  0  0
  -23.6324   -8.2247   22.0759 C   0  0  0  0  0  0
  -22.4306   -8.0290   21.3549 C   0  0  0  0  0  0
  -21.9938   -9.0270   20.4647 C   0  0  0  0  0  0
  -22.7281  -10.2141   20.3060 C   0  0  0  0  0  0
  -21.6862   -6.0746   22.5279 C   0  0  0  0  0  0
  -21.4011   -6.5642   23.8207 C   0  0  0  0  0  0
  -21.3655   -5.6799   24.9166 C   0  0  0  0  0  0
  -21.6052   -4.3063   24.7215 C   0  0  0  0  0  0
  -21.8827   -3.8156   23.4330 C   0  0  0  0  0  0
  -21.9195   -4.6976   22.3393 C   0  0  0  0  0  0
  -22.7861  -13.5220   21.1857 C   0  0  0  0  0  0
  -22.1667   -4.2162   21.0963 F   0  0  0  0  0  0
  -21.5616   -3.4540   25.7715 F   0  0  0  0  0  0
  -29.9853  -13.5218   20.3906 N   0  0  0  0  0  0
  -26.2962  -12.9364   20.3263 N   0  0  0  0  0  0
  -25.9349  -11.6526   20.5758 N   0  0  0  0  0  0
  -22.0499  -12.8230   22.0401 N   0  0  0  0  0  0
  -25.4239  -15.1901   20.4075 N   0  0  0  0  0  0
  -31.7527  -14.9322   20.2183 O   0  0  0  0  0  0
  -21.6661   -6.8896   21.4245 O   0  0  0  0  0  0
  -22.3543  -14.5523   20.6687 O   0  0  0  0  0  0
  -24.6322  -31.8530   23.1945 C   0  0  0  0  0  0
  -25.9144  -32.4741   23.8304 C   0  0  1  0  0  0
  -27.2267  -27.2490   20.1565 C   0  0  0  0  0  0
  -25.5933  -33.8544   24.2237 N   0  0  0  0  0  0
  -23.4301  -30.4721   21.5369 C   0  0  2  0  0  0
  -24.8798  -28.9026   20.1218 C   0  0  0  0  0  0
  -22.7504  -29.4601   22.4901 C   0  0  0  0  0  0
  -18.0288  -28.1389   22.8476 C   0  0  0  0  0  0
  -24.1486  -36.7282   23.2644 C   0  0  0  0  0  0
  -25.9747  -30.7639   21.3723 C   0  0  0  0  0  0
  -26.0499  -29.3794   20.7272 C   0  0  0  0  0  0
  -27.2296  -28.5677   20.7241 C   0  0  0  0  0  0
  -26.0355  -26.8276   19.5354 C   0  0  0  0  0  0
  -24.8772  -27.6349   19.5138 C   0  0  0  0  0  0
  -23.6519  -29.7945   20.1573 C   0  0  0  0  0  0
  -25.4110  -36.3064   24.0327 C   0  0  1  0  0  0
  -20.5894  -28.3711   23.1258 C   0  0  2  0  0  0
  -20.6773  -26.9423   22.5411 C   0  0  0  0  0  0
  -19.5755  -26.6383   21.5208 C   0  0  0  0  0  0
  -18.1932  -26.7929   22.1616 C   0  0  0  0  0  0
  -19.1543  -28.8864   23.2862 C   0  0  0  0  0  0
  -18.9465  -30.1460   23.8890 C   0  0  0  0  0  0
  -17.6466  -30.6590   24.0556 C   0  0  0  0  0  0
  -25.9057  -34.9434   23.5089 C   0  0  0  0  0  0
  -16.5355  -29.9090   23.6327 C   0  0  0  0  0  0
  -16.7274  -28.6507   23.0345 C   0  0  0  0  0  0
  -26.4512  -31.6564   25.0700 C   0  0  0  0  0  0
  -25.3735  -31.3728   26.1423 C   0  0  0  0  0  0
  -27.0367  -30.2976   24.6198 C   0  0  0  0  0  0
  -27.6056  -32.4317   25.7486 C   0  0  0  0  0  0
  -27.5574  -37.1793   24.8459 C   0  0  0  0  0  0
  -21.4204  -29.3052   22.3643 N   0  0  0  0  0  0
  -26.4281  -37.3767   23.9416 N   0  0  0  0  0  0
  -24.6983  -31.0490   22.0909 N   0  0  0  0  0  0
  -23.4188  -28.8155   23.3021 O   0  0  0  0  0  0
  -28.3490  -26.3982   20.0950 O   0  0  0  0  0  0
  -26.5637  -34.8917   22.4662 O   0  0  0  0  0  0
  -23.5474  -32.1354   23.7239 O   0  0  0  0  0  0
  -29.9883  -23.4438   21.6860 C   0  0  0  0  0  0
  -28.2082  -23.5895   20.2363 C   0  0  0  0  0  0
  -29.8693  -24.9204   21.2740 C   0  0  1  0  0  0
  -28.4219  -25.0837   20.8242 C   0  0  1  0  0  0
  -30.2738  -25.8817   22.3995 C   0  0  0  0  0  0
  -28.4155  -23.6805   16.4692 C   0  0  0  0  0  0
  -31.3268  -21.0840   16.1524 C   0  0  0  0  0  0
  -30.0503  -20.7007   22.2050 C   0  0  0  0  0  0
  -29.8096  -23.0654   16.6779 C   0  0  0  0  0  0
  -29.9876  -18.5369   19.9755 C   0  0  0  0  0  0
  -29.7264  -17.3234   21.0175 C   0  0  0  0  0  0
  -29.1709  -20.6757   17.4577 C   0  0  0  0  0  0
  -29.8783  -21.5473   16.3899 C   0  0  2  0  0  0
  -29.1251  -21.1376   21.0476 C   0  0  2  0  0  0
  -29.2325  -20.0091   19.8895 C   0  0  1  0  0  0
  -29.3150  -22.6306   20.6612 N   0  0  0  0  0  0
  -29.6726  -15.8333   20.6280 N   0  0  0  0  0  0
  -29.8299  -20.7730   18.7781 N   0  3  0  0  0  0
  -31.4821  -12.6541   19.1407 H   0  0  0  0  0  0
  -30.4343  -11.4992   19.9303 H   0  0  0  0  0  0
  -29.8074  -11.7464   17.5101 H   0  0  0  0  0  0
  -29.6298  -13.4711   17.7073 H   0  0  0  0  0  0
  -27.8971  -11.2806   18.8934 H   0  0  0  0  0  0
  -27.3865  -12.5345   17.7909 H   0  0  0  0  0  0
  -27.6396  -14.2477   19.4769 H   0  0  0  0  0  0
  -28.7462  -12.1304   21.3895 H   0  0  0  0  0  0
  -28.4293  -13.7943   21.8054 H   0  0  0  0  0  0
  -25.2803   -9.5673   22.4752 H   0  0  0  0  0  0
  -24.0028   -7.4644   22.7483 H   0  0  0  0  0  0
  -21.0859   -8.8817   19.8966 H   0  0  0  0  0  0
  -22.3758  -10.9692   19.6173 H   0  0  0  0  0  0
  -21.2009   -7.6153   23.9722 H   0  0  0  0  0  0
  -21.1463   -6.0512   25.9072 H   0  0  0  0  0  0
  -22.0609   -2.7622   23.2829 H   0  0  0  0  0  0
  -22.4134  -11.9902   22.4790 H   0  0  0  0  0  0
  -21.1109  -13.1248   22.2589 H   0  0  0  0  0  0
  -24.6508  -15.8389   20.5079 H   0  0  0  0  0  0
  -26.2541  -15.6290   20.0349 H   0  0  0  0  0  0
  -26.7213  -32.5404   23.1051 H   0  0  0  0  0  0
  -25.0040  -33.9661   25.0358 H   0  0  0  0  0  0
  -22.7292  -31.2954   21.3829 H   0  0  0  0  0  0
  -23.3748  -35.9614   23.3289 H   0  0  0  0  0  0
  -24.3573  -36.8923   22.2061 H   0  0  0  0  0  0
  -23.7235  -37.6477   23.6676 H   0  0  0  0  0  0
  -26.1090  -31.5179   20.5952 H   0  0  0  0  0  0
  -26.8543  -30.8212   22.0024 H   0  0  0  0  0  0
  -28.1370  -28.9383   21.1814 H   0  0  0  0  0  0
  -26.0012  -25.8570   19.0616 H   0  0  0  0  0  0
  -23.9822  -27.2652   19.0336 H   0  0  0  0  0  0
  -23.7832  -30.5646   19.3959 H   0  0  0  0  0  0
  -22.7696  -29.2287   19.8523 H   0  0  0  0  0  0
  -25.1293  -36.1900   25.0822 H   0  0  0  0  0  0
  -20.9986  -28.3292   24.1377 H   0  0  0  0  0  0
  -20.5648  -26.2328   23.3622 H   0  0  0  0  0  0
  -21.6641  -26.7429   22.1219 H   0  0  0  0  0  0
  -19.6916  -25.6291   21.1238 H   0  0  0  0  0  0
  -19.6689  -27.3188   20.6733 H   0  0  0  0  0  0
  -17.4203  -26.6670   21.4017 H   0  0  0  0  0  0
  -18.0333  -26.0071   22.9015 H   0  0  0  0  0  0
  -19.7949  -30.7265   24.2254 H   0  0  0  0  0  0
  -17.5029  -31.6266   24.5170 H   0  0  0  0  0  0
  -15.5357  -30.2991   23.7657 H   0  0  0  0  0  0
  -15.8672  -28.0825   22.7059 H   0  0  0  0  0  0
  -24.5902  -30.7080   25.7757 H   0  0  0  0  0  0
  -24.8939  -32.2905   26.4843 H   0  0  0  0  0  0
  -25.8055  -30.8910   27.0204 H   0  0  0  0  0  0
  -26.2953  -29.6710   24.1224 H   0  0  0  0  0  0
  -27.4036  -29.7258   25.4733 H   0  0  0  0  0  0
  -27.8834  -30.4240   23.9449 H   0  0  0  0  0  0
  -27.2642  -33.3614   26.2055 H   0  0  0  0  0  0
  -28.3878  -32.6881   25.0328 H   0  0  0  0  0  0
  -28.0708  -31.8446   26.5416 H   0  0  0  0  0  0
  -28.2584  -38.0098   24.7516 H   0  0  0  0  0  0
  -28.1077  -36.2630   24.6265 H   0  0  0  0  0  0
  -27.2299  -37.1420   25.8863 H   0  0  0  0  0  0
  -20.9396  -29.8784   21.6853 H   0  0  0  0  0  0
  -26.0155  -38.2838   24.1419 H   0  0  0  0  0  0
  -29.4885  -23.3179   22.6480 H   0  0  0  0  0  0
  -31.0345  -23.1547   21.8076 H   0  0  0  0  0  0
  -28.1689  -23.6259   19.1519 H   0  0  0  0  0  0
  -27.2416  -23.2068   20.5672 H   0  0  0  0  0  0
  -30.5202  -25.0898   20.4143 H   0  0  0  0  0  0
  -27.7940  -25.1690   21.7127 H   0  0  0  0  0  0
  -29.6496  -25.7453   23.2828 H   0  0  0  0  0  0
  -30.1771  -26.9195   22.0794 H   0  0  0  0  0  0
  -31.3106  -25.7195   22.6944 H   0  0  0  0  0  0
  -28.4088  -24.7293   16.7691 H   0  0  0  0  0  0
  -27.6435  -23.1726   17.0467 H   0  0  0  0  0  0
  -28.1167  -23.6387   15.4214 H   0  0  0  0  0  0
  -31.7804  -21.6200   15.3167 H   0  0  0  0  0  0
  -31.3651  -20.0211   15.9108 H   0  0  0  0  0  0
  -31.9605  -21.2515   17.0241 H   0  0  0  0  0  0
  -29.8781  -19.6596   22.4710 H   0  0  0  0  0  0
  -29.8671  -21.2532   23.1257 H   0  0  0  0  0  0
  -31.1041  -20.7993   21.9424 H   0  0  0  0  0  0
  -30.1642  -23.2801   17.6866 H   0  0  0  0  0  0
  -30.4991  -23.5900   16.0149 H   0  0  0  0  0  0
  -29.8620  -18.0912   18.9883 H   0  0  0  0  0  0
  -31.0575  -18.7412   20.0394 H   0  0  0  0  0  0
  -28.7586  -17.5157   21.4825 H   0  0  0  0  0  0
  -30.4445  -17.4149   21.8353 H   0  0  0  0  0  0
  -29.1596  -19.6331   17.1355 H   0  0  0  0  0  0
  -28.1272  -20.9772   17.5529 H   0  0  0  0  0  0
  -29.3533  -21.3804   15.4481 H   0  0  0  0  0  0
  -28.1162  -21.0666   21.4597 H   0  0  0  0  0  0
  -28.1972  -19.7925   19.6229 H   0  0  0  0  0  0
  -28.7318  -15.4724   20.6836 H   0  0  0  0  0  0
  -29.7439  -21.7253   19.1256 H   0  0  0  0  0  0
  -30.8134  -20.5705   18.7120 H   0  0  0  0  0  0
  1 25  1  0  0  0
  1 30  2  0  0  0
  1 87  1  0  0  0
  2  3  1  0  0  0
  2 25  1  0  0  0
  2 89  1  0  0  0
  2 90  1  0  0  0
  3  4  1  0  0  0
  3 91  1  0  0  0
  3 92  1  0  0  0
  4  5  1  0  0  0
  4 93  1  0  0  0
  4 94  1  0  0  0
  5  6  1  0  0  0
  5 26  1  0  0  0
  5 95  1  0  0  0
  6 25  1  0  0  0
  6 96  1  0  0  0
  6 97  1  0  0  0
  7  8  2  0  0  0
  7 26  1  0  0  0
  7 29  1  0  0  0
  8  9  1  0  0  0
  8 22  1  0  0  0
  9 10  1  0  0  0
  9 27  2  0  0  0
 10 11  2  0  0  0
 10 15  1  0  0  0
 11 12  1  0  0  0
 11 98  1  0  0  0
 12 13  2  0  0  0
 12 99  1  0  0  0
 13 14  1  0  0  0
 13 31  1  0  0  0
 14 15  2  0  0  0
 14100  1  0  0  0
 15101  1  0  0  0
 16 17  2  0  0  0
 16 21  1  0  0  0
 16 31  1  0  0  0
 17 18  1  0  0  0
 17102  1  0  0  0
 18 19  2  0  0  0
 18103  1  0  0  0
 19 20  1  0  0  0
 19 24  1  0  0  0
 20 21  2  0  0  0
 20104  1  0  0  0
 21 23  1  0  0  0
 22 28  1  0  0  0
 22 32  2  0  0  0
 26 27  1  0  0  0
 28105  1  0  0  0
 28106  1  0  0  0
 29107  1  0  0  0
 29108  1  0  0  0
 33 34  1  0  0  0
 33 66  1  0  0  0
 33 70  2  0  0  0
 34 36  1  0  0  0
 34 59  1  0  0  0
 34109  1  0  0  0
 35 44  2  0  0  0
 35 45  1  0  0  0
 35 68  1  0  0  0
 36 56  1  0  0  0
 36110  1  0  0  0
 37 39  1  0  0  0
 37 47  1  0  0  0
 37 66  1  0  0  0
 37111  1  0  0  0
 38 43  2  0  0  0
 38 46  1  0  0  0
 38 47  1  0  0  0
 39 64  1  0  0  0
 39 67  2  0  0  0
 40 52  1  0  0  0
 40 53  2  0  0  0
 40 58  1  0  0  0
 41112  1  0  0  0
 41113  1  0  0  0
 41114  1  0  0  0
 41 48  1  0  0  0
 42 43  1  0  0  0
 42 66  1  0  0  0
 42115  1  0  0  0
 42116  1  0  0  0
 43 44  1  0  0  0
 44117  1  0  0  0
 45 46  2  0  0  0
 45118  1  0  0  0
 46119  1  0  0  0
 47120  1  0  0  0
 47121  1  0  0  0
 48 56  1  0  0  0
 48 65  1  0  0  0
 48122  1  0  0  0
 49 50  1  0  0  0
 49 53  1  0  0  0
 49 64  1  0  0  0
 49123  1  0  0  0
 50 51  1  0  0  0
 50124  1  0  0  0
 50125  1  0  0  0
 51 52  1  0  0  0
 51126  1  0  0  0
 51127  1  0  0  0
 52128  1  0  0  0
 52129  1  0  0  0
 53 54  1  0  0  0
 54 55  2  0  0  0
 54130  1  0  0  0
 55 57  1  0  0  0
 55131  1  0  0  0
 56 69  2  0  0  0
 57 58  2  0  0  0
 57132  1  0  0  0
 58133  1  0  0  0
 59 60  1  0  0  0
 59 61  1  0  0  0
 59 62  1  0  0  0
 60134  1  0  0  0
 60135  1  0  0  0
 60136  1  0  0  0
 61137  1  0  0  0
 61138  1  0  0  0
 61139  1  0  0  0
 62140  1  0  0  0
 62141  1  0  0  0
 62142  1  0  0  0
 63 65  1  0  0  0
 63143  1  0  0  0
 63144  1  0  0  0
 63145  1  0  0  0
 64146  1  0  0  0
 65147  1  0  0  0
 68 74  1  0  0  0
 71 73  1  0  0  0
 71 86  1  0  0  0
 71148  1  0  0  0
 71149  1  0  0  0
 72 74  1  0  0  0
 72 86  1  0  0  0
 72150  1  0  0  0
 72151  1  0  0  0
 73 74  1  0  0  0
 73 75  1  0  0  0
 73152  1  0  0  0
 74153  1  0  0  0
 75154  1  0  0  0
 75155  1  0  0  0
 75156  1  0  0  0
 76 79  1  0  0  0
 76157  1  0  0  0
 76158  1  0  0  0
 76159  1  0  0  0
 77160  1  0  0  0
 77161  1  0  0  0
 77162  1  0  0  0
 77 83  1  0  0  0
 78163  1  0  0  0
 78164  1  0  0  0
 78165  1  0  0  0
 78 84  1  0  0  0
 79 83  1  0  0  0
 79166  1  0  0  0
 79167  1  0  0  0
 80 81  1  0  0  0
 80168  1  0  0  0
 80169  1  0  0  0
 80 85  1  0  0  0
 81 87  1  0  0  0
 81170  1  0  0  0
 81171  1  0  0  0
 82 83  1  0  0  0
 82 88  1  0  0  0
 82172  1  0  0  0
 82173  1  0  0  0
 83174  1  0  0  0
 84 85  1  0  0  0
 84 86  1  0  0  0
 84175  1  0  0  0
 85 88  1  0  0  0
 85176  1  0  0  0
 87177  1  0  0  0
 88178  1  0  0  0
 88179  1  0  0  0
M  CHG  1  88   1
M  ISO  4   1 100  68 101  74 101  87 100
M  END
> <chiral flag>
0

> <version>
0

> <s_m_source_file>
/data/baiqing/PycharmProjects/Reinvent-master-3.2/result/LINK_invent/BTK/process_docking_weight1_custom_sum_contain_oxygen_bond_distance_aromatic_linkinvent_7_9_3/rearranged_h_0140.sdf

> <i_m_source_file_index>
17

> <r_mmod_Potential_Energy-OPLS-2005>
261.477813720703

> <r_mmod_Stretch_Energy-OPLS-2005>
147.90576171875

> <r_mmod_Bend_Energy-OPLS-2005>
296.631469726562

> <r_mmod_Torsional_Energy-OPLS-2005>
367.072174072266

> <r_mmod_Improper_Torsional_Energy-OPLS-2005>
5.26848649978638

> <r_mmod_Van_der_Waal_Energy-OPLS-2005>
114.905059814453

> <r_mmod_Electrostatic_Energy-OPLS-2005>
-341.363494873047

> <r_mmod_Solvation_Energy-OPLS-2005>
-421.830322265625

> <b_mmod_Minimization_Converged-OPLS-2005>
0

> <r_mmod_RMS_Derivative-OPLS-2005>
2.42374515533447

$$$$
17
                    3D
 Structure written by MMmdl.
163172  0  0  1  0            999 V2000
  -30.4550  -15.1873   20.3837 C   0  0  0  0  0  0
  -30.4398  -12.7477   19.5284 C   0  0  0  0  0  0
  -29.5350  -12.5670   18.2841 C   0  0  0  0  0  0
  -28.0764  -12.3082   18.7018 C   0  0  0  0  0  0
  -27.6163  -13.2694   19.8294 C   0  0  2  0  0  0
  -28.6513  -13.4003   20.9683 C   0  0  0  0  0  0
  -25.2388  -13.8243   20.5749 C   0  0  0  0  0  0
  -24.1735  -13.0454   20.9264 C   0  0  0  0  0  0
  -24.6373  -11.6941   20.8776 C   0  0  0  0  0  0
  -23.9079  -10.4298   21.0401 C   0  0  0  0  0  0
  -24.3616   -9.4222   21.9190 C   0  0  0  0  0  0
  -23.6295   -8.2252   22.0750 C   0  0  0  0  0  0
  -22.4270   -8.0269   21.3549 C   0  0  0  0  0  0
  -21.9906   -9.0245   20.4658 C   0  0  0  0  0  0
  -22.7239  -10.2130   20.3065 C   0  0  0  0  0  0
  -21.6864   -6.0705   22.5269 C   0  0  0  0  0  0
  -21.4020   -6.5621   23.8199 C   0  0  0  0  0  0
  -21.3671   -5.6779   24.9159 C   0  0  0  0  0  0
  -21.6035   -4.3040   24.7211 C   0  0  0  0  0  0
  -21.8834   -3.8120   23.4338 C   0  0  0  0  0  0
  -21.9210   -4.6934   22.3392 C   0  0  0  0  0  0
  -22.7749  -13.5191   21.1898 C   0  0  0  0  0  0
  -22.1675   -4.2116   21.0972 F   0  0  0  0  0  0
  -21.5632   -3.4535   25.7733 F   0  0  0  0  0  0
  -29.8935  -13.8868   20.3489 N   0  0  0  0  0  0
  -26.2821  -12.9520   20.3219 N   0  0  0  0  0  0
  -25.9311  -11.6634   20.5730 N   0  0  0  0  0  0
  -22.0410  -12.8198   22.0468 N   0  0  0  0  0  0
  -25.4043  -15.1983   20.4173 N   0  0  0  0  0  0
  -31.6714  -15.2097   20.1501 O   0  0  0  0  0  0
  -21.6649   -6.8849   21.4229 O   0  0  0  0  0  0
  -22.3439  -14.5482   20.6714 O   0  0  0  0  0  0
  -24.6584  -31.8281   23.1718 C   0  0  0  0  0  0
  -25.9299  -32.4593   23.8169 C   0  0  1  0  0  0
  -27.2244  -26.9675   20.1941 C   0  0  0  0  0  0
  -25.6014  -33.8413   24.2077 N   0  0  0  0  0  0
  -23.4692  -30.4353   21.5216 C   0  0  2  0  0  0
  -24.9232  -28.8191   20.1210 C   0  0  0  0  0  0
  -22.7641  -29.4463   22.4844 C   0  0  0  0  0  0
  -18.0315  -28.1372   22.8459 C   0  0  0  0  0  0
  -24.1508  -36.7187   23.2638 C   0  0  0  0  0  0
  -26.0355  -30.6441   21.4009 C   0  0  0  0  0  0
  -26.1024  -29.2360   20.7501 C   0  0  0  0  0  0
  -27.2463  -28.3277   20.7624 C   0  0  0  0  0  0
  -26.0196  -26.6866   19.5170 C   0  0  0  0  0  0
  -24.9044  -27.5649   19.4856 C   0  0  0  0  0  0
  -23.7030  -29.7374   20.1531 C   0  0  0  0  0  0
  -25.4156  -36.2968   24.0284 C   0  0  1  0  0  0
  -20.5933  -28.3726   23.1209 C   0  0  2  0  0  0
  -20.6800  -26.9414   22.5403 C   0  0  0  0  0  0
  -19.5781  -26.6352   21.5213 C   0  0  0  0  0  0
  -18.1954  -26.7905   22.1601 C   0  0  0  0  0  0
  -19.1572  -28.8872   23.2812 C   0  0  0  0  0  0
  -18.9478  -30.1462   23.8838 C   0  0  0  0  0  0
  -17.6468  -30.6577   24.0530 C   0  0  0  0  0  0
  -25.9121  -34.9349   23.4998 C   0  0  0  0  0  0
  -16.5360  -29.9038   23.6347 C   0  0  0  0  0  0
  -16.7292  -28.6450   23.0385 C   0  0  0  0  0  0
  -26.4569  -31.6528   25.0685 C   0  0  0  0  0  0
  -25.3708  -31.3773   26.1352 C   0  0  0  0  0  0
  -27.0463  -30.2882   24.6423 C   0  0  0  0  0  0
  -27.6063  -32.4339   25.7501 C   0  0  0  0  0  0
  -27.5585  -37.1751   24.8460 C   0  0  0  0  0  0
  -21.4322  -29.3016   22.3576 N   0  0  0  0  0  0
  -26.4299  -37.3701   23.9394 N   0  0  0  0  0  0
  -24.7406  -30.9978   22.0833 N   0  0  0  0  0  0
  -23.4211  -28.8073   23.3098 O   0  0  0  0  0  0
  -28.2885  -25.9392   20.2216 O   0  0  0  0  0  0
  -26.5691  -34.8870   22.4568 O   0  0  0  0  0  0
  -23.5671  -32.1257   23.6848 O   0  0  0  0  0  0
  -28.2354  -23.5340   21.4169 C   0  0  0  0  0  0
  -28.6880  -23.5157   19.1742 C   0  0  0  0  0  0
  -28.4435  -22.0601   21.4794 C   0  0  0  0  0  0
  -28.9252  -22.0414   19.2068 C   0  0  0  0  0  0
  -28.8081  -21.1661   20.3752 C   0  0  0  0  0  0
  -28.3010  -24.4103   20.2573 C   0  0  0  0  0  0
  -31.8408  -22.0881   17.8439 C   0  0  0  0  0  0
  -31.6137  -21.3287   16.5589 C   0  0  0  0  0  0
  -30.4702  -22.0854   17.2018 C   0  0  0  0  0  0
  -28.2573  -21.4229   22.8476 C   0  0  0  0  0  0
  -28.0858  -21.2281   16.9738 C   0  0  0  0  0  0
  -28.7789  -19.4158   20.4067 C   0  0  0  0  0  0
  -29.9383  -18.0709   20.3913 C   0  0  0  0  0  0
  -29.3093  -21.3717   17.8874 C   0  0  2  0  0  0
  -29.6742  -16.4339   20.4826 N   0  0  0  0  0  0
  -31.4676  -12.9337   19.2124 H   0  0  0  0  0  0
  -30.4801  -11.8261   20.1122 H   0  0  0  0  0  0
  -29.9004  -11.7525   17.6557 H   0  0  0  0  0  0
  -29.5828  -13.4690   17.6743 H   0  0  0  0  0  0
  -28.0085  -11.2776   19.0525 H   0  0  0  0  0  0
  -27.4128  -12.3791   17.8384 H   0  0  0  0  0  0
  -27.5457  -14.2483   19.3550 H   0  0  0  0  0  0
  -28.7999  -12.4481   21.4803 H   0  0  0  0  0  0
  -28.3099  -14.1125   21.7240 H   0  0  0  0  0  0
  -25.2757   -9.5700   22.4765 H   0  0  0  0  0  0
  -24.0005   -7.4641   22.7472 H   0  0  0  0  0  0
  -21.0831   -8.8764   19.8951 H   0  0  0  0  0  0
  -22.3700  -10.9657   19.6160 H   0  0  0  0  0  0
  -21.2009   -7.6127   23.9692 H   0  0  0  0  0  0
  -21.1487   -6.0501   25.9063 H   0  0  0  0  0  0
  -22.0606   -2.7580   23.2844 H   0  0  0  0  0  0
  -22.4015  -11.9853   22.4858 H   0  0  0  0  0  0
  -21.1022  -13.1218   22.2644 H   0  0  0  0  0  0
  -24.6342  -15.8498   20.5198 H   0  0  0  0  0  0
  -26.2403  -15.6349   20.0533 H   0  0  0  0  0  0
  -26.7362  -32.5123   23.0884 H   0  0  0  0  0  0
  -25.0180  -33.9496   25.0241 H   0  0  0  0  0  0
  -22.7780  -31.2633   21.3488 H   0  0  0  0  0  0
  -23.3789  -35.9498   23.3277 H   0  0  0  0  0  0
  -24.3592  -36.8857   22.2060 H   0  0  0  0  0  0
  -23.7241  -37.6349   23.6716 H   0  0  0  0  0  0
  -26.2237  -31.3869   20.6249 H   0  0  0  0  0  0
  -26.8931  -30.6958   22.0607 H   0  0  0  0  0  0
  -28.1482  -28.6523   21.2626 H   0  0  0  0  0  0
  -25.9225  -25.7240   19.0349 H   0  0  0  0  0  0
  -24.0061  -27.2404   18.9800 H   0  0  0  0  0  0
  -23.8367  -30.4937   19.3797 H   0  0  0  0  0  0
  -22.8187  -29.1694   19.8565 H   0  0  0  0  0  0
  -25.1367  -36.1767   25.0772 H   0  0  0  0  0  0
  -20.9991  -28.3310   24.1346 H   0  0  0  0  0  0
  -20.5711  -26.2326   23.3622 H   0  0  0  0  0  0
  -21.6668  -26.7409   22.1209 H   0  0  0  0  0  0
  -19.6953  -25.6253   21.1272 H   0  0  0  0  0  0
  -19.6733  -27.3138   20.6723 H   0  0  0  0  0  0
  -17.4239  -26.6656   21.3983 H   0  0  0  0  0  0
  -18.0339  -26.0055   22.8998 H   0  0  0  0  0  0
  -19.7963  -30.7297   24.2176 H   0  0  0  0  0  0
  -17.5020  -31.6278   24.5104 H   0  0  0  0  0  0
  -15.5352  -30.2909   23.7724 H   0  0  0  0  0  0
  -15.8690  -28.0726   22.7163 H   0  0  0  0  0  0
  -24.5889  -30.7129   25.7651 H   0  0  0  0  0  0
  -24.8901  -32.2974   26.4678 H   0  0  0  0  0  0
  -25.7958  -30.8990   27.0188 H   0  0  0  0  0  0
  -26.3116  -29.6552   24.1432 H   0  0  0  0  0  0
  -27.3981  -29.7263   25.5083 H   0  0  0  0  0  0
  -27.9078  -30.4027   23.9843 H   0  0  0  0  0  0
  -27.2600  -33.3651   26.2002 H   0  0  0  0  0  0
  -28.3930  -32.6892   25.0387 H   0  0  0  0  0  0
  -28.0681  -31.8523   26.5489 H   0  0  0  0  0  0
  -28.2573  -38.0075   24.7538 H   0  0  0  0  0  0
  -28.1113  -36.2600   24.6276 H   0  0  0  0  0  0
  -27.2294  -37.1371   25.8859 H   0  0  0  0  0  0
  -20.9591  -29.8595   21.6613 H   0  0  0  0  0  0
  -26.0148  -38.2758   24.1400 H   0  0  0  0  0  0
  -28.0274  -24.0368   22.3508 H   0  0  0  0  0  0
  -28.8369  -24.0124   18.2265 H   0  0  0  0  0  0
  -32.4211  -23.0091   17.7936 H   0  0  0  0  0  0
  -31.9658  -21.5079   18.7570 H   0  0  0  0  0  0
  -31.6257  -20.2407   16.6161 H   0  0  0  0  0  0
  -32.0437  -21.7512   15.6514 H   0  0  0  0  0  0
  -30.1920  -23.0165   16.7122 H   0  0  0  0  0  0
  -27.9316  -22.1473   23.5961 H   0  0  0  0  0  0
  -29.2026  -20.9918   23.1878 H   0  0  0  0  0  0
  -27.5048  -20.6327   22.8133 H   0  0  0  0  0  0
  -27.2952  -20.6685   17.4738 H   0  0  0  0  0  0
  -28.3371  -20.7068   16.0488 H   0  0  0  0  0  0
  -27.6702  -22.2004   16.7093 H   0  0  0  0  0  0
  -28.1131  -19.1858   19.5737 H   0  0  0  0  0  0
  -28.1537  -19.1872   21.2670 H   0  0  0  0  0  0
  -30.6354  -18.2765   21.2056 H   0  0  0  0  0  0
  -30.5285  -18.1994   19.4834 H   0  0  0  0  0  0
  -29.6577  -20.3635   18.1091 H   0  0  0  0  0  0
  -28.6997  -16.2215   20.6342 H   0  0  0  0  0  0
  1 25  1  0  0  0
  1 30  2  0  0  0
  1 85  1  0  0  0
  2  3  1  0  0  0
  2 25  1  0  0  0
  2 86  1  0  0  0
  2 87  1  0  0  0
  3  4  1  0  0  0
  3 88  1  0  0  0
  3 89  1  0  0  0
  4  5  1  0  0  0
  4 90  1  0  0  0
  4 91  1  0  0  0
  5  6  1  0  0  0
  5 26  1  0  0  0
  5 92  1  0  0  0
  6 25  1  0  0  0
  6 93  1  0  0  0
  6 94  1  0  0  0
  7  8  2  0  0  0
  7 26  1  0  0  0
  7 29  1  0  0  0
  8  9  1  0  0  0
  8 22  1  0  0  0
  9 10  1  0  0  0
  9 27  2  0  0  0
 10 11  2  0  0  0
 10 15  1  0  0  0
 11 12  1  0  0  0
 11 95  1  0  0  0
 12 13  2  0  0  0
 12 96  1  0  0  0
 13 14  1  0  0  0
 13 31  1  0  0  0
 14 15  2  0  0  0
 14 97  1  0  0  0
 15 98  1  0  0  0
 16 17  2  0  0  0
 16 21  1  0  0  0
 16 31  1  0  0  0
 17 18  1  0  0  0
 17 99  1  0  0  0
 18 19  2  0  0  0
 18100  1  0  0  0
 19 20  1  0  0  0
 19 24  1  0  0  0
 20 21  2  0  0  0
 20101  1  0  0  0
 21 23  1  0  0  0
 22 28  1  0  0  0
 22 32  2  0  0  0
 26 27  1  0  0  0
 28102  1  0  0  0
 28103  1  0  0  0
 29104  1  0  0  0
 29105  1  0  0  0
 33 34  1  0  0  0
 33 66  1  0  0  0
 33 70  2  0  0  0
 34 36  1  0  0  0
 34 59  1  0  0  0
 34106  1  0  0  0
 35 44  2  0  0  0
 35 45  1  0  0  0
 35 68  1  0  0  0
 36 56  1  0  0  0
 36107  1  0  0  0
 37 39  1  0  0  0
 37 47  1  0  0  0
 37 66  1  0  0  0
 37108  1  0  0  0
 38 43  2  0  0  0
 38 46  1  0  0  0
 38 47  1  0  0  0
 39 64  1  0  0  0
 39 67  2  0  0  0
 40 52  1  0  0  0
 40 53  2  0  0  0
 40 58  1  0  0  0
 41109  1  0  0  0
 41110  1  0  0  0
 41111  1  0  0  0
 41 48  1  0  0  0
 42 43  1  0  0  0
 42 66  1  0  0  0
 42112  1  0  0  0
 42113  1  0  0  0
 43 44  1  0  0  0
 44114  1  0  0  0
 45 46  2  0  0  0
 45115  1  0  0  0
 46116  1  0  0  0
 47117  1  0  0  0
 47118  1  0  0  0
 48 56  1  0  0  0
 48 65  1  0  0  0
 48119  1  0  0  0
 49 50  1  0  0  0
 49 53  1  0  0  0
 49 64  1  0  0  0
 49120  1  0  0  0
 50 51  1  0  0  0
 50121  1  0  0  0
 50122  1  0  0  0
 51 52  1  0  0  0
 51123  1  0  0  0
 51124  1  0  0  0
 52125  1  0  0  0
 52126  1  0  0  0
 53 54  1  0  0  0
 54 55  2  0  0  0
 54127  1  0  0  0
 55 57  1  0  0  0
 55128  1  0  0  0
 56 69  2  0  0  0
 57 58  2  0  0  0
 57129  1  0  0  0
 58130  1  0  0  0
 59 60  1  0  0  0
 59 61  1  0  0  0
 59 62  1  0  0  0
 60131  1  0  0  0
 60132  1  0  0  0
 60133  1  0  0  0
 61134  1  0  0  0
 61135  1  0  0  0
 61136  1  0  0  0
 62137  1  0  0  0
 62138  1  0  0  0
 62139  1  0  0  0
 63 65  1  0  0  0
 63140  1  0  0  0
 63141  1  0  0  0
 63142  1  0  0  0
 64143  1  0  0  0
 65144  1  0  0  0
 68 76  1  0  0  0
 71 73  2  0  0  0
 71 76  1  0  0  0
 71145  1  0  0  0
 72 74  1  0  0  0
 72 76  2  0  0  0
 72146  1  0  0  0
 73 75  1  0  0  0
 73 80  1  0  0  0
 74 75  2  0  0  0
 74 84  1  0  0  0
 75 82  1  0  0  0
 77 78  1  0  0  0
 77147  1  0  0  0
 77148  1  0  0  0
 77 79  1  0  0  0
 78 79  1  0  0  0
 78149  1  0  0  0
 78150  1  0  0  0
 79 84  1  0  0  0
 79151  1  0  0  0
 80152  1  0  0  0
 80153  1  0  0  0
 80154  1  0  0  0
 81155  1  0  0  0
 81156  1  0  0  0
 81157  1  0  0  0
 81 84  1  0  0  0
 82 83  1  0  0  0
 82158  1  0  0  0
 82159  1  0  0  0
 83 85  1  0  0  0
 83160  1  0  0  0
 83161  1  0  0  0
 84162  1  0  0  0
 85163  1  0  0  0
M  ISO  4   1 100  68 101  76 101  85 100
M  END
> <chiral flag>
0

> <version>
0

> <s_m_source_file>
/data/baiqing/PycharmProjects/Reinvent-master-3.2/result/LINK_invent/BTK/process_docking_weight1_custom_sum_contain_oxygen_bond_distance_aromatic_linkinvent_7_9_3/rearranged_h_0140.sdf

> <i_m_source_file_index>
18

> <r_mmod_Potential_Energy-OPLS-2005>
1035.99084472656

> <r_mmod_Stretch_Energy-OPLS-2005>
460.153533935547

> <r_mmod_Bend_Energy-OPLS-2005>
397.317840576172

> <r_mmod_Torsional_Energy-OPLS-2005>
255.689407348633

> <r_mmod_Improper_Torsional_Energy-OPLS-2005>
7.3636212348938

> <r_mmod_Van_der_Waal_Energy-OPLS-2005>
124.411003112793

> <r_mmod_Electrostatic_Energy-OPLS-2005>
-378.202514648438

> <r_mmod_Solvation_Energy-OPLS-2005>
-208.878631591797

> <b_mmod_Minimization_Converged-OPLS-2005>
0

> <r_mmod_RMS_Derivative-OPLS-2005>
3.420250415802

$$$$
18
                    3D
 Structure written by MMmdl.
170180  0  0  1  0            999 V2000
  -30.7876  -14.4853   20.5918 C   0  0  0  0  0  0
  -30.4039  -12.3509   19.4155 C   0  0  0  0  0  0
  -29.4666  -12.5159   18.2061 C   0  0  0  0  0  0
  -28.0157  -12.3078   18.6535 C   0  0  0  0  0  0
  -27.6560  -13.2079   19.8647 C   0  0  2  0  0  0
  -28.6921  -13.1352   21.0063 C   0  0  0  0  0  0
  -25.2714  -13.8013   20.5660 C   0  0  0  0  0  0
  -24.1970  -13.0347   20.9214 C   0  0  0  0  0  0
  -24.6518  -11.6856   20.8813 C   0  0  0  0  0  0
  -23.9148  -10.4275   21.0483 C   0  0  0  0  0  0
  -24.3691   -9.4239   21.9308 C   0  0  0  0  0  0
  -23.6336   -8.2299   22.0850 C   0  0  0  0  0  0
  -22.4316   -8.0390   21.3627 C   0  0  0  0  0  0
  -21.9991   -9.0337   20.4658 C   0  0  0  0  0  0
  -22.7331  -10.2217   20.3081 C   0  0  0  0  0  0
  -21.6878   -6.0813   22.5319 C   0  0  0  0  0  0
  -21.4020   -6.5689   23.8236 C   0  0  0  0  0  0
  -21.3671   -5.6849   24.9198 C   0  0  0  0  0  0
  -21.6028   -4.3092   24.7251 C   0  0  0  0  0  0
  -21.8791   -3.8203   23.4337 C   0  0  0  0  0  0
  -21.9192   -4.7041   22.3417 C   0  0  0  0  0  0
  -22.8013  -13.5293   21.1721 C   0  0  0  0  0  0
  -22.1684   -4.2241   21.0985 F   0  0  0  0  0  0
  -21.5610   -3.4541   25.7725 F   0  0  0  0  0  0
  -30.0319  -13.3553   20.4466 N   0  0  0  0  0  0
  -26.3111  -12.9195   20.3394 N   0  0  0  0  0  0
  -25.9471  -11.6378   20.5894 N   0  0  0  0  0  0
  -22.0594  -12.8345   22.0246 N   0  0  0  0  0  0
  -25.4478  -15.1590   20.4159 N   0  0  0  0  0  0
  -31.8995  -14.5562   20.0588 O   0  0  0  0  0  0
  -21.6642   -6.9027   21.4318 O   0  0  0  0  0  0
  -22.3779  -14.5638   20.6558 O   0  0  0  0  0  0
  -24.6391  -31.8565   23.1897 C   0  0  0  0  0  0
  -25.9180  -32.4830   23.8215 C   0  0  1  0  0  0
  -27.2469  -27.3970   20.1191 C   0  0  0  0  0  0
  -25.5938  -33.8594   24.2103 N   0  0  0  0  0  0
  -23.5850  -30.2274   21.6591 C   0  0  2  0  0  0
  -24.9107  -28.9780   19.9975 C   0  0  0  0  0  0
  -22.6855  -29.4639   22.6516 C   0  0  0  0  0  0
  -18.0089  -28.1361   22.8286 C   0  0  0  0  0  0
  -24.1501  -36.7344   23.2629 C   0  0  0  0  0  0
  -25.9748  -30.8787   21.2835 C   0  0  0  0  0  0
  -26.0780  -29.5063   20.5960 C   0  0  0  0  0  0
  -27.2441  -28.7124   20.6572 C   0  0  0  0  0  0
  -26.0708  -26.9033   19.5174 C   0  0  0  0  0  0
  -24.8990  -27.6746   19.4801 C   0  0  0  0  0  0
  -23.6258  -29.7560   20.1856 C   0  0  0  0  0  0
  -25.4127  -36.3061   24.0260 C   0  0  1  0  0  0
  -20.5471  -28.3870   23.1266 C   0  0  2  0  0  0
  -20.6711  -26.9501   22.5713 C   0  0  0  0  0  0
  -19.5840  -26.6044   21.5462 C   0  0  0  0  0  0
  -18.1870  -26.7810   22.1568 C   0  0  0  0  0  0
  -19.1195  -28.8984   23.2644 C   0  0  0  0  0  0
  -18.9157  -30.1583   23.8634 C   0  0  0  0  0  0
  -17.6129  -30.6570   24.0487 C   0  0  0  0  0  0
  -25.9103  -34.9480   23.4966 C   0  0  0  0  0  0
  -16.5108  -29.8943   23.6365 C   0  0  0  0  0  0
  -16.7075  -28.6365   23.0320 C   0  0  0  0  0  0
  -26.4643  -31.6596   25.0527 C   0  0  0  0  0  0
  -25.4009  -31.3732   26.1374 C   0  0  0  0  0  0
  -27.0429  -30.3018   24.5790 C   0  0  0  0  0  0
  -27.6211  -32.4367   25.7265 C   0  0  0  0  0  0
  -27.5570  -37.1840   24.8464 C   0  0  0  0  0  0
  -21.3873  -29.3256   22.3804 N   0  0  0  0  0  0
  -26.4289  -37.3748   23.9411 N   0  0  0  0  0  0
  -24.7072  -31.1163   22.0494 N   0  0  0  0  0  0
  -23.1922  -28.8752   23.6258 O   0  0  0  0  0  0
  -28.3953  -26.6317   20.1150 O   0  0  0  0  0  0
  -26.5692  -34.8969   22.4543 O   0  0  0  0  0  0
  -23.5573  -32.1013   23.7400 O   0  0  0  0  0  0
  -25.2489  -20.6035   21.6631 C   0  0  0  0  0  0
  -28.0078  -20.7248   21.3014 C   0  0  0  0  0  0
  -25.9870  -19.4077   21.5356 C   0  0  0  0  0  0
  -25.8661  -21.8710   21.6927 C   0  0  0  0  0  0
  -27.3887  -19.4299   21.3007 C   0  0  0  0  0  0
  -27.2768  -21.9372   21.5004 C   0  0  0  0  0  0
  -31.3696  -18.0055   24.0628 C   0  0  0  0  0  0
  -30.0282  -17.3032   24.0936 C   0  0  0  0  0  0
  -31.1926  -16.6521   23.3836 C   0  0  0  0  0  0
  -31.3051  -16.4453   21.8652 C   0  0  2  0  0  0
  -30.4280  -16.9337   20.7300 C   0  0  2  0  0  0
  -25.2162  -18.1055   21.6797 C   0  0  0  0  0  0
  -24.9890  -23.0888   22.0104 C   0  0  0  0  0  0
  -29.5964  -18.2324   20.9865 C   0  0  0  0  0  0
  -28.4722  -25.5074   21.0272 C   0  0  0  0  0  0
  -27.6740  -24.2144   20.6795 C   0  0  0  0  0  0
  -30.3037  -15.5741   21.2686 N   0  0  0  0  0  0
  -28.1194  -18.2188   21.0700 N   0  0  0  0  0  0
  -27.9873  -23.1343   21.5888 O   0  0  0  0  0  0
  -31.4294  -12.4539   19.0514 H   0  0  0  0  0  0
  -30.3586  -11.3462   19.8273 H   0  0  0  0  0  0
  -29.7321  -11.7945   17.4296 H   0  0  0  0  0  0
  -29.5859  -13.5152   17.7798 H   0  0  0  0  0  0
  -27.9176  -11.2580   18.9285 H   0  0  0  0  0  0
  -27.3299  -12.4965   17.8230 H   0  0  0  0  0  0
  -27.6759  -14.2284   19.4912 H   0  0  0  0  0  0
  -28.6501  -12.1958   21.5582 H   0  0  0  0  0  0
  -28.4315  -13.9117   21.7307 H   0  0  0  0  0  0
  -25.2882   -9.5679   22.4833 H   0  0  0  0  0  0
  -24.0041   -7.4697   22.7548 H   0  0  0  0  0  0
  -21.0971   -8.8852   19.8889 H   0  0  0  0  0  0
  -22.3916  -10.9777   19.6100 H   0  0  0  0  0  0
  -21.1998   -7.6186   23.9813 H   0  0  0  0  0  0
  -21.1530   -6.0535   25.9130 H   0  0  0  0  0  0
  -22.0539   -2.7661   23.2783 H   0  0  0  0  0  0
  -22.4222  -12.0056   22.4709 H   0  0  0  0  0  0
  -21.1253  -13.1474   22.2424 H   0  0  0  0  0  0
  -24.6742  -15.8004   20.5272 H   0  0  0  0  0  0
  -26.3040  -15.6078   20.1209 H   0  0  0  0  0  0
  -26.7263  -32.5535   23.1027 H   0  0  0  0  0  0
  -25.0100  -33.9609   25.0251 H   0  0  0  0  0  0
  -24.2417  -29.4474   22.0039 H   0  0  0  0  0  0
  -23.3688  -35.9768   23.3305 H   0  0  0  0  0  0
  -24.3603  -36.8959   22.2057 H   0  0  0  0  0  0
  -23.7374  -37.6573   23.6658 H   0  0  0  0  0  0
  -26.0551  -31.6435   20.5075 H   0  0  0  0  0  0
  -26.8741  -30.9502   21.8867 H   0  0  0  0  0  0
  -28.1448  -29.0843   21.1277 H   0  0  0  0  0  0
  -26.0345  -25.9072   19.0944 H   0  0  0  0  0  0
  -23.9876  -27.2411   19.0930 H   0  0  0  0  0  0
  -23.5940  -30.5940   19.4892 H   0  0  0  0  0  0
  -22.7771  -29.1098   19.9494 H   0  0  0  0  0  0
  -25.1345  -36.1862   25.0752 H   0  0  0  0  0  0
  -20.8895  -28.3555   24.1654 H   0  0  0  0  0  0
  -20.5377  -26.2646   23.4057 H   0  0  0  0  0  0
  -21.6743  -26.7523   22.1834 H   0  0  0  0  0  0
  -19.7153  -25.5690   21.2183 H   0  0  0  0  0  0
  -19.7031  -27.2378   20.6636 H   0  0  0  0  0  0
  -17.4303  -26.6438   21.3768 H   0  0  0  0  0  0
  -17.9978  -26.0157   22.9114 H   0  0  0  0  0  0
  -19.7667  -30.7428   24.1820 H   0  0  0  0  0  0
  -17.4598  -31.6240   24.5175 H   0  0  0  0  0  0
  -15.5028  -30.2662   23.7736 H   0  0  0  0  0  0
  -15.8474  -28.0553   22.7199 H   0  0  0  0  0  0
  -24.6072  -30.7117   25.7806 H   0  0  0  0  0  0
  -24.9446  -32.2971   26.4936 H   0  0  0  0  0  0
  -25.8603  -30.8910   27.0034 H   0  0  0  0  0  0
  -26.2771  -29.6657   24.1270 H   0  0  0  0  0  0
  -27.4686  -29.7369   25.4103 H   0  0  0  0  0  0
  -27.8429  -30.4308   23.8442 H   0  0  0  0  0  0
  -27.2696  -33.3591   26.1926 H   0  0  0  0  0  0
  -28.3932  -32.7128   25.0066 H   0  0  0  0  0  0
  -28.0984  -31.8477   26.5093 H   0  0  0  0  0  0
  -28.2574  -38.0130   24.7441 H   0  0  0  0  0  0
  -28.1043  -36.2665   24.6346 H   0  0  0  0  0  0
  -27.2272  -37.1547   25.8846 H   0  0  0  0  0  0
  -20.9887  -29.7931   21.5753 H   0  0  0  0  0  0
  -26.0133  -38.2797   24.1411 H   0  0  0  0  0  0
  -24.1745  -20.5423   21.7835 H   0  0  0  0  0  0
  -29.0741  -20.8151   21.1699 H   0  0  0  0  0  0
  -31.8386  -18.0841   25.0396 H   0  0  0  0  0  0
  -31.5250  -18.8850   23.4426 H   0  0  0  0  0  0
  -29.2106  -17.7661   23.5491 H   0  0  0  0  0  0
  -29.7221  -16.8604   25.0379 H   0  0  0  0  0  0
  -31.6484  -15.8264   23.9280 H   0  0  0  0  0  0
  -32.3516  -16.3272   21.5689 H   0  0  0  0  0  0
  -30.7900  -16.8993   19.7000 H   0  0  0  0  0  0
  -25.2242  -17.6121   20.7176 H   0  0  0  0  0  0
  -24.1712  -18.2636   21.9559 H   0  0  0  0  0  0
  -25.6425  -17.4526   22.4496 H   0  0  0  0  0  0
  -25.4880  -23.8001   22.6743 H   0  0  0  0  0  0
  -24.0653  -22.7873   22.5022 H   0  0  0  0  0  0
  -24.6558  -23.6131   21.1149 H   0  0  0  0  0  0
  -29.9906  -18.7401   21.8634 H   0  0  0  0  0  0
  -29.8781  -18.9068   20.1735 H   0  0  0  0  0  0
  -29.5231  -25.2248   21.0468 H   0  0  0  0  0  0
  -28.2467  -25.8292   22.0432 H   0  0  0  0  0  0
  -27.9217  -23.8873   19.6745 H   0  0  0  0  0  0
  -26.6171  -24.4486   20.6735 H   0  0  0  0  0  0
  -27.6672  -17.3138   21.1676 H   0  0  0  0  0  0
  1 25  1  0  0  0
  1 30  2  0  0  0
  1 87  1  0  0  0
  2  3  1  0  0  0
  2 25  1  0  0  0
  2 90  1  0  0  0
  2 91  1  0  0  0
  3  4  1  0  0  0
  3 92  1  0  0  0
  3 93  1  0  0  0
  4  5  1  0  0  0
  4 94  1  0  0  0
  4 95  1  0  0  0
  5  6  1  0  0  0
  5 26  1  0  0  0
  5 96  1  0  0  0
  6 25  1  0  0  0
  6 97  1  0  0  0
  6 98  1  0  0  0
  7  8  2  0  0  0
  7 26  1  0  0  0
  7 29  1  0  0  0
  8  9  1  0  0  0
  8 22  1  0  0  0
  9 10  1  0  0  0
  9 27  2  0  0  0
 10 11  2  0  0  0
 10 15  1  0  0  0
 11 12  1  0  0  0
 11 99  1  0  0  0
 12 13  2  0  0  0
 12100  1  0  0  0
 13 14  1  0  0  0
 13 31  1  0  0  0
 14 15  2  0  0  0
 14101  1  0  0  0
 15102  1  0  0  0
 16 17  2  0  0  0
 16 21  1  0  0  0
 16 31  1  0  0  0
 17 18  1  0  0  0
 17103  1  0  0  0
 18 19  2  0  0  0
 18104  1  0  0  0
 19 20  1  0  0  0
 19 24  1  0  0  0
 20 21  2  0  0  0
 20105  1  0  0  0
 21 23  1  0  0  0
 22 28  1  0  0  0
 22 32  2  0  0  0
 26 27  1  0  0  0
 28106  1  0  0  0
 28107  1  0  0  0
 29108  1  0  0  0
 29109  1  0  0  0
 33 34  1  0  0  0
 33 66  1  0  0  0
 33 70  2  0  0  0
 34 36  1  0  0  0
 34 59  1  0  0  0
 34110  1  0  0  0
 35 44  2  0  0  0
 35 45  1  0  0  0
 35 68  1  0  0  0
 36 56  1  0  0  0
 36111  1  0  0  0
 37 39  1  0  0  0
 37 47  1  0  0  0
 37 66  1  0  0  0
 37112  1  0  0  0
 38 43  2  0  0  0
 38 46  1  0  0  0
 38 47  1  0  0  0
 39 64  1  0  0  0
 39 67  2  0  0  0
 40 52  1  0  0  0
 40 53  2  0  0  0
 40 58  1  0  0  0
 41113  1  0  0  0
 41114  1  0  0  0
 41115  1  0  0  0
 41 48  1  0  0  0
 42 43  1  0  0  0
 42 66  1  0  0  0
 42116  1  0  0  0
 42117  1  0  0  0
 43 44  1  0  0  0
 44118  1  0  0  0
 45 46  2  0  0  0
 45119  1  0  0  0
 46120  1  0  0  0
 47121  1  0  0  0
 47122  1  0  0  0
 48 56  1  0  0  0
 48 65  1  0  0  0
 48123  1  0  0  0
 49 50  1  0  0  0
 49 53  1  0  0  0
 49 64  1  0  0  0
 49124  1  0  0  0
 50 51  1  0  0  0
 50125  1  0  0  0
 50126  1  0  0  0
 51 52  1  0  0  0
 51127  1  0  0  0
 51128  1  0  0  0
 52129  1  0  0  0
 52130  1  0  0  0
 53 54  1  0  0  0
 54 55  2  0  0  0
 54131  1  0  0  0
 55 57  1  0  0  0
 55132  1  0  0  0
 56 69  2  0  0  0
 57 58  2  0  0  0
 57133  1  0  0  0
 58134  1  0  0  0
 59 60  1  0  0  0
 59 61  1  0  0  0
 59 62  1  0  0  0
 60135  1  0  0  0
 60136  1  0  0  0
 60137  1  0  0  0
 61138  1  0  0  0
 61139  1  0  0  0
 61140  1  0  0  0
 62141  1  0  0  0
 62142  1  0  0  0
 62143  1  0  0  0
 63 65  1  0  0  0
 63144  1  0  0  0
 63145  1  0  0  0
 63146  1  0  0  0
 64147  1  0  0  0
 65148  1  0  0  0
 68 85  1  0  0  0
 71 73  2  0  0  0
 71 74  1  0  0  0
 71149  1  0  0  0
 72 75  2  0  0  0
 72 76  1  0  0  0
 72150  1  0  0  0
 73 75  1  0  0  0
 73 82  1  0  0  0
 74 76  2  0  0  0
 74 83  1  0  0  0
 75 88  1  0  0  0
 76 89  1  0  0  0
 77 78  1  0  0  0
 77151  1  0  0  0
 77152  1  0  0  0
 77 79  1  0  0  0
 78 79  1  0  0  0
 78153  1  0  0  0
 78154  1  0  0  0
 79 80  1  0  0  0
 79155  1  0  0  0
 80 81  1  0  0  0
 80 87  1  0  0  0
 80156  1  0  0  0
 81 84  1  0  0  0
 81 87  1  0  0  0
 81157  1  0  0  0
 82158  1  0  0  0
 82159  1  0  0  0
 82160  1  0  0  0
 83161  1  0  0  0
 83162  1  0  0  0
 83163  1  0  0  0
 84 88  1  0  0  0
 84164  1  0  0  0
 84165  1  0  0  0
 85 86  1  0  0  0
 85166  1  0  0  0
 85167  1  0  0  0
 86 89  1  0  0  0
 86168  1  0  0  0
 86169  1  0  0  0
 88170  1  0  0  0
M  ISO  4   1 100  68 101  85 101  87 100
M  END
> <chiral flag>
0

> <version>
0

> <s_m_source_file>
/data/baiqing/PycharmProjects/Reinvent-master-3.2/result/LINK_invent/BTK/process_docking_weight1_custom_sum_contain_oxygen_bond_distance_aromatic_linkinvent_7_9_3/rearranged_h_0140.sdf

> <i_m_source_file_index>
19

> <r_mmod_Potential_Energy-OPLS-2005>
514.257019042969

> <r_mmod_Stretch_Energy-OPLS-2005>
63.6506652832031

> <r_mmod_Bend_Energy-OPLS-2005>
326.528442382812

> <r_mmod_Torsional_Energy-OPLS-2005>
439.828765869141

> <r_mmod_Improper_Torsional_Energy-OPLS-2005>
14.5320014953613

> <r_mmod_Van_der_Waal_Energy-OPLS-2005>
210.65641784668

> <r_mmod_Electrostatic_Energy-OPLS-2005>
-409.299682617188

> <r_mmod_Solvation_Energy-OPLS-2005>
-192.399749755859

> <b_mmod_Minimization_Converged-OPLS-2005>
0

> <r_mmod_RMS_Derivative-OPLS-2005>
13.465048789978

$$$$
19
                    3D
 Structure written by MMmdl.
164173  0  0  1  0            999 V2000
  -30.5918  -14.8289   20.4323 C   0  0  0  0  0  0
  -30.4229  -12.5071   19.4853 C   0  0  0  0  0  0
  -29.5088  -12.4991   18.2424 C   0  0  0  0  0  0
  -28.0389  -12.3122   18.6613 C   0  0  0  0  0  0
  -27.6292  -13.2394   19.8365 C   0  0  2  0  0  0
  -28.6697  -13.2368   20.9747 C   0  0  0  0  0  0
  -25.2468  -13.8202   20.5703 C   0  0  0  0  0  0
  -24.1766  -13.0444   20.9210 C   0  0  0  0  0  0
  -24.6356  -11.6923   20.8745 C   0  0  0  0  0  0
  -23.9039  -10.4293   21.0413 C   0  0  0  0  0  0
  -24.3593   -9.4208   21.9186 C   0  0  0  0  0  0
  -23.6272   -8.2242   22.0756 C   0  0  0  0  0  0
  -22.4257   -8.0270   21.3551 C   0  0  0  0  0  0
  -21.9887   -9.0241   20.4658 C   0  0  0  0  0  0
  -22.7212  -10.2120   20.3065 C   0  0  0  0  0  0
  -21.6856   -6.0712   22.5278 C   0  0  0  0  0  0
  -21.4017   -6.5621   23.8205 C   0  0  0  0  0  0
  -21.3668   -5.6777   24.9168 C   0  0  0  0  0  0
  -21.6052   -4.3040   24.7225 C   0  0  0  0  0  0
  -21.8818   -3.8128   23.4347 C   0  0  0  0  0  0
  -21.9195   -4.6941   22.3401 C   0  0  0  0  0  0
  -22.7795  -13.5234   21.1871 C   0  0  0  0  0  0
  -22.1669   -4.2124   21.0981 F   0  0  0  0  0  0
  -21.5631   -3.4528   25.7744 F   0  0  0  0  0  0
  -29.9526  -13.6030   20.3715 N   0  0  0  0  0  0
  -26.2872  -12.9420   20.3232 N   0  0  0  0  0  0
  -25.9279  -11.6556   20.5716 N   0  0  0  0  0  0
  -22.0443  -12.8233   22.0437 N   0  0  0  0  0  0
  -25.4200  -15.1918   20.4154 N   0  0  0  0  0  0
  -31.8005  -14.8550   20.1724 O   0  0  0  0  0  0
  -21.6640   -6.8854   21.4243 O   0  0  0  0  0  0
  -22.3484  -14.5544   20.6717 O   0  0  0  0  0  0
  -24.6358  -31.8503   23.1940 C   0  0  0  0  0  0
  -25.9166  -32.4726   23.8297 C   0  0  1  0  0  0
  -27.2065  -27.1886   20.1411 C   0  0  0  0  0  0
  -25.5941  -33.8530   24.2222 N   0  0  0  0  0  0
  -23.4345  -30.4712   21.5393 C   0  0  2  0  0  0
  -24.8775  -28.9004   20.1173 C   0  0  0  0  0  0
  -22.7521  -29.4577   22.4898 C   0  0  0  0  0  0
  -18.0289  -28.1387   22.8486 C   0  0  0  0  0  0
  -24.1495  -36.7271   23.2639 C   0  0  0  0  0  0
  -25.9854  -30.7354   21.3881 C   0  0  0  0  0  0
  -26.0495  -29.3474   20.7399 C   0  0  0  0  0  0
  -27.2118  -28.5021   20.7429 C   0  0  0  0  0  0
  -26.0191  -26.8362   19.4686 C   0  0  0  0  0  0
  -24.8709  -27.6550   19.4698 C   0  0  0  0  0  0
  -23.6556  -29.8009   20.1574 C   0  0  0  0  0  0
  -25.4122  -36.3053   24.0322 C   0  0  1  0  0  0
  -20.5898  -28.3704   23.1259 C   0  0  2  0  0  0
  -20.6780  -26.9418   22.5404 C   0  0  0  0  0  0
  -19.5751  -26.6385   21.5212 C   0  0  0  0  0  0
  -18.1935  -26.7929   22.1630 C   0  0  0  0  0  0
  -19.1546  -28.8863   23.2867 C   0  0  0  0  0  0
  -18.9464  -30.1460   23.8890 C   0  0  0  0  0  0
  -17.6465  -30.6590   24.0558 C   0  0  0  0  0  0
  -25.9064  -34.9424   23.5083 C   0  0  0  0  0  0
  -16.5354  -29.9087   23.6331 C   0  0  0  0  0  0
  -16.7279  -28.6502   23.0359 C   0  0  0  0  0  0
  -26.4514  -31.6570   25.0717 C   0  0  0  0  0  0
  -25.3719  -31.3744   26.1430 C   0  0  0  0  0  0
  -27.0361  -30.2966   24.6266 C   0  0  0  0  0  0
  -27.6065  -32.4319   25.7486 C   0  0  0  0  0  0
  -27.5582  -37.1789   24.8466 C   0  0  0  0  0  0
  -21.4228  -29.3042   22.3646 N   0  0  0  0  0  0
  -26.4291  -37.3759   23.9413 N   0  0  0  0  0  0
  -24.7048  -31.0401   22.0956 N   0  0  0  0  0  0
  -23.4202  -28.8123   23.3021 O   0  0  0  0  0  0
  -28.3356  -26.3206   20.1080 O   0  0  0  0  0  0
  -26.5655  -34.8910   22.4662 O   0  0  0  0  0  0
  -23.5493  -32.1369   23.7191 O   0  0  0  0  0  0
  -27.8628  -22.4056   19.9365 C   0  0  0  0  0  0
  -27.5626  -23.8238   19.8494 C   0  0  0  0  0  0
  -29.9628  -22.9219   20.9238 C   0  0  0  0  0  0
  -29.6650  -24.3433   20.8251 C   0  0  0  0  0  0
  -29.0839  -21.8830   20.4675 C   0  0  0  0  0  0
  -28.4490  -24.8744   20.2788 C   0  0  0  0  0  0
  -29.2412  -18.3021   19.1244 C   0  0  0  0  0  0
  -28.7172  -18.1846   21.5285 C   0  0  0  0  0  0
  -30.2257  -17.0710   19.3686 C   0  0  0  0  0  0
  -29.6723  -16.8944   21.6172 C   0  0  0  0  0  0
  -28.7991  -19.2128   20.3283 C   0  0  0  0  0  0
  -31.2940  -22.4916   21.5394 C   0  0  0  0  0  0
  -31.6556  -25.7544   20.1275 C   0  0  0  0  0  0
  -30.7096  -25.3651   21.2730 C   0  0  0  0  0  0
  -29.8548  -16.0407   20.3984 N   0  0  0  0  0  0
  -29.5301  -20.5051   20.5628 O   0  0  0  0  0  0
  -31.4639  -12.6308   19.1829 H   0  0  0  0  0  0
  -30.3772  -11.5483   20.0041 H   0  0  0  0  0  0
  -29.8090  -11.7039   17.5577 H   0  0  0  0  0  0
  -29.6197  -13.4350   17.6945 H   0  0  0  0  0  0
  -27.9154  -11.2703   18.9595 H   0  0  0  0  0  0
  -27.3772  -12.4611   17.8076 H   0  0  0  0  0  0
  -27.6071  -14.2484   19.4221 H   0  0  0  0  0  0
  -28.7284  -12.2610   21.4598 H   0  0  0  0  0  0
  -28.3891  -13.9565   21.7455 H   0  0  0  0  0  0
  -25.2729   -9.5692   22.4757 H   0  0  0  0  0  0
  -23.9982   -7.4636   22.7471 H   0  0  0  0  0  0
  -21.0816   -8.8753   19.8964 H   0  0  0  0  0  0
  -22.3659  -10.9648   19.6170 H   0  0  0  0  0  0
  -21.2014   -7.6128   23.9693 H   0  0  0  0  0  0
  -21.1503   -6.0516   25.9067 H   0  0  0  0  0  0
  -22.0593   -2.7589   23.2858 H   0  0  0  0  0  0
  -22.4037  -11.9881   22.4820 H   0  0  0  0  0  0
  -21.1073  -13.1283   22.2658 H   0  0  0  0  0  0
  -24.6601  -15.8527   20.5356 H   0  0  0  0  0  0
  -26.2822  -15.6277   20.1158 H   0  0  0  0  0  0
  -26.7226  -32.5344   23.1020 H   0  0  0  0  0  0
  -25.0055  -33.9654   25.0349 H   0  0  0  0  0  0
  -22.7326  -31.2949   21.3903 H   0  0  0  0  0  0
  -23.3754  -35.9603   23.3293 H   0  0  0  0  0  0
  -24.3582  -36.8905   22.2053 H   0  0  0  0  0  0
  -23.7247  -37.6470   23.6671 H   0  0  0  0  0  0
  -26.1353  -31.4853   20.6097 H   0  0  0  0  0  0
  -26.8605  -30.7869   22.0250 H   0  0  0  0  0  0
  -28.1151  -28.8457   21.2274 H   0  0  0  0  0  0
  -25.9633  -25.9185   18.9107 H   0  0  0  0  0  0
  -23.9825  -27.3214   18.9517 H   0  0  0  0  0  0
  -23.7914  -30.5759   19.4016 H   0  0  0  0  0  0
  -22.7704  -29.2417   19.8489 H   0  0  0  0  0  0
  -25.1300  -36.1890   25.0811 H   0  0  0  0  0  0
  -20.9989  -28.3290   24.1379 H   0  0  0  0  0  0
  -20.5681  -26.2318   23.3615 H   0  0  0  0  0  0
  -21.6647  -26.7440   22.1197 H   0  0  0  0  0  0
  -19.6913  -25.6292   21.1252 H   0  0  0  0  0  0
  -19.6680  -27.3189   20.6732 H   0  0  0  0  0  0
  -17.4199  -26.6661   21.4038 H   0  0  0  0  0  0
  -18.0342  -26.0076   22.9032 H   0  0  0  0  0  0
  -19.7937  -30.7272   24.2272 H   0  0  0  0  0  0
  -17.5017  -31.6273   24.5154 H   0  0  0  0  0  0
  -15.5356  -30.2987   23.7654 H   0  0  0  0  0  0
  -15.8677  -28.0813   22.7088 H   0  0  0  0  0  0
  -24.5877  -30.7122   25.7744 H   0  0  0  0  0  0
  -24.8935  -32.2922   26.4852 H   0  0  0  0  0  0
  -25.8013  -30.8902   27.0209 H   0  0  0  0  0  0
  -26.2953  -29.6704   24.1286 H   0  0  0  0  0  0
  -27.3988  -29.7250   25.4817 H   0  0  0  0  0  0
  -27.8861  -30.4194   23.9555 H   0  0  0  0  0  0
  -27.2678  -33.3624   26.2051 H   0  0  0  0  0  0
  -28.3880  -32.6876   25.0320 H   0  0  0  0  0  0
  -28.0742  -31.8463   26.5411 H   0  0  0  0  0  0
  -28.2592  -38.0095   24.7521 H   0  0  0  0  0  0
  -28.1086  -36.2623   24.6275 H   0  0  0  0  0  0
  -27.2305  -37.1424   25.8872 H   0  0  0  0  0  0
  -20.9429  -29.8743   21.6819 H   0  0  0  0  0  0
  -26.0164  -38.2831   24.1406 H   0  0  0  0  0  0
  -27.1286  -21.7126   19.5518 H   0  0  0  0  0  0
  -26.6164  -24.0717   19.4013 H   0  0  0  0  0  0
  -28.3278  -17.8780   18.7046 H   0  0  0  0  0  0
  -29.6360  -18.9353   18.3296 H   0  0  0  0  0  0
  -28.7856  -18.7422   22.4622 H   0  0  0  0  0  0
  -27.6979  -17.7956   21.5224 H   0  0  0  0  0  0
  -31.2150  -17.4642   19.6111 H   0  0  0  0  0  0
  -30.3529  -16.5560   18.4143 H   0  0  0  0  0  0
  -29.3037  -16.2557   22.4211 H   0  0  0  0  0  0
  -30.6609  -17.2211   21.9470 H   0  0  0  0  0  0
  -27.7776  -19.5336   20.1206 H   0  0  0  0  0  0
  -32.1329  -22.9173   20.9906 H   0  0  0  0  0  0
  -31.4457  -21.4141   21.5521 H   0  0  0  0  0  0
  -31.3536  -22.8198   22.5772 H   0  0  0  0  0  0
  -32.3896  -26.4887   20.4592 H   0  0  0  0  0  0
  -31.1026  -26.1903   19.2948 H   0  0  0  0  0  0
  -32.2007  -24.8921   19.7437 H   0  0  0  0  0  0
  -31.2829  -25.0060   22.1266 H   0  0  0  0  0  0
  -30.2139  -26.2604   21.6493 H   0  0  0  0  0  0
  1 25  1  0  0  0
  1 30  2  0  0  0
  1 85  1  0  0  0
  2  3  1  0  0  0
  2 25  1  0  0  0
  2 87  1  0  0  0
  2 88  1  0  0  0
  3  4  1  0  0  0
  3 89  1  0  0  0
  3 90  1  0  0  0
  4  5  1  0  0  0
  4 91  1  0  0  0
  4 92  1  0  0  0
  5  6  1  0  0  0
  5 26  1  0  0  0
  5 93  1  0  0  0
  6 25  1  0  0  0
  6 94  1  0  0  0
  6 95  1  0  0  0
  7  8  2  0  0  0
  7 26  1  0  0  0
  7 29  1  0  0  0
  8  9  1  0  0  0
  8 22  1  0  0  0
  9 10  1  0  0  0
  9 27  2  0  0  0
 10 11  2  0  0  0
 10 15  1  0  0  0
 11 12  1  0  0  0
 11 96  1  0  0  0
 12 13  2  0  0  0
 12 97  1  0  0  0
 13 14  1  0  0  0
 13 31  1  0  0  0
 14 15  2  0  0  0
 14 98  1  0  0  0
 15 99  1  0  0  0
 16 17  2  0  0  0
 16 21  1  0  0  0
 16 31  1  0  0  0
 17 18  1  0  0  0
 17100  1  0  0  0
 18 19  2  0  0  0
 18101  1  0  0  0
 19 20  1  0  0  0
 19 24  1  0  0  0
 20 21  2  0  0  0
 20102  1  0  0  0
 21 23  1  0  0  0
 22 28  1  0  0  0
 22 32  2  0  0  0
 26 27  1  0  0  0
 28103  1  0  0  0
 28104  1  0  0  0
 29105  1  0  0  0
 29106  1  0  0  0
 33 34  1  0  0  0
 33 66  1  0  0  0
 33 70  2  0  0  0
 34 36  1  0  0  0
 34 59  1  0  0  0
 34107  1  0  0  0
 35 44  2  0  0  0
 35 45  1  0  0  0
 35 68  1  0  0  0
 36 56  1  0  0  0
 36108  1  0  0  0
 37 39  1  0  0  0
 37 47  1  0  0  0
 37 66  1  0  0  0
 37109  1  0  0  0
 38 43  2  0  0  0
 38 46  1  0  0  0
 38 47  1  0  0  0
 39 64  1  0  0  0
 39 67  2  0  0  0
 40 52  1  0  0  0
 40 53  2  0  0  0
 40 58  1  0  0  0
 41110  1  0  0  0
 41111  1  0  0  0
 41112  1  0  0  0
 41 48  1  0  0  0
 42 43  1  0  0  0
 42 66  1  0  0  0
 42113  1  0  0  0
 42114  1  0  0  0
 43 44  1  0  0  0
 44115  1  0  0  0
 45 46  2  0  0  0
 45116  1  0  0  0
 46117  1  0  0  0
 47118  1  0  0  0
 47119  1  0  0  0
 48 56  1  0  0  0
 48 65  1  0  0  0
 48120  1  0  0  0
 49 50  1  0  0  0
 49 53  1  0  0  0
 49 64  1  0  0  0
 49121  1  0  0  0
 50 51  1  0  0  0
 50122  1  0  0  0
 50123  1  0  0  0
 51 52  1  0  0  0
 51124  1  0  0  0
 51125  1  0  0  0
 52126  1  0  0  0
 52127  1  0  0  0
 53 54  1  0  0  0
 54 55  2  0  0  0
 54128  1  0  0  0
 55 57  1  0  0  0
 55129  1  0  0  0
 56 69  2  0  0  0
 57 58  2  0  0  0
 57130  1  0  0  0
 58131  1  0  0  0
 59 60  1  0  0  0
 59 61  1  0  0  0
 59 62  1  0  0  0
 60132  1  0  0  0
 60133  1  0  0  0
 60134  1  0  0  0
 61135  1  0  0  0
 61136  1  0  0  0
 61137  1  0  0  0
 62138  1  0  0  0
 62139  1  0  0  0
 62140  1  0  0  0
 63 65  1  0  0  0
 63141  1  0  0  0
 63142  1  0  0  0
 63143  1  0  0  0
 64144  1  0  0  0
 65145  1  0  0  0
 68 76  1  0  0  0
 71 72  2  0  0  0
 71 75  1  0  0  0
 71146  1  0  0  0
 72 76  1  0  0  0
 72147  1  0  0  0
 73 74  1  0  0  0
 73 75  2  0  0  0
 73 82  1  0  0  0
 74 76  2  0  0  0
 74 84  1  0  0  0
 75 86  1  0  0  0
 77 79  1  0  0  0
 77 81  1  0  0  0
 77148  1  0  0  0
 77149  1  0  0  0
 78 80  1  0  0  0
 78 81  1  0  0  0
 78150  1  0  0  0
 78151  1  0  0  0
 79 85  1  0  0  0
 79152  1  0  0  0
 79153  1  0  0  0
 80 85  1  0  0  0
 80154  1  0  0  0
 80155  1  0  0  0
 81 86  1  0  0  0
 81156  1  0  0  0
 82157  1  0  0  0
 82158  1  0  0  0
 82159  1  0  0  0
 83 84  1  0  0  0
 83160  1  0  0  0
 83161  1  0  0  0
 83162  1  0  0  0
 84163  1  0  0  0
 84164  1  0  0  0
M  ISO  4   1 100  68 101  76 101  85 100
M  END
> <chiral flag>
0

> <version>
0

> <s_m_source_file>
/data/baiqing/PycharmProjects/Reinvent-master-3.2/result/LINK_invent/BTK/process_docking_weight1_custom_sum_contain_oxygen_bond_distance_aromatic_linkinvent_7_9_3/rearranged_h_0140.sdf

> <i_m_source_file_index>
20

> <r_mmod_Potential_Energy-OPLS-2005>
545.38037109375

> <r_mmod_Stretch_Energy-OPLS-2005>
153.921203613281

> <r_mmod_Bend_Energy-OPLS-2005>
274.950622558594

> <r_mmod_Torsional_Energy-OPLS-2005>
330.914855957031

> <r_mmod_Improper_Torsional_Energy-OPLS-2005>
16.2845420837402

> <r_mmod_Van_der_Waal_Energy-OPLS-2005>
143.787948608398

> <r_mmod_Electrostatic_Energy-OPLS-2005>
-304.458587646484

> <r_mmod_Solvation_Energy-OPLS-2005>
-192.585968017578

> <b_mmod_Minimization_Converged-OPLS-2005>
0

> <r_mmod_RMS_Derivative-OPLS-2005>
1.873295545578

$$$$
20
                    3D
 Structure written by MMmdl.
164173  0  0  1  0            999 V2000
  -30.5217  -14.9518   20.4152 C   0  0  0  0  0  0
  -30.4438  -12.5916   19.4840 C   0  0  0  0  0  0
  -29.5120  -12.5287   18.2503 C   0  0  0  0  0  0
  -28.0484  -12.3040   18.6716 C   0  0  0  0  0  0
  -27.6281  -13.2254   19.8438 C   0  0  2  0  0  0
  -28.6744  -13.2639   20.9777 C   0  0  0  0  0  0
  -25.2432  -13.8119   20.5777 C   0  0  0  0  0  0
  -24.1734  -13.0345   20.9268 C   0  0  0  0  0  0
  -24.6363  -11.6853   20.8767 C   0  0  0  0  0  0
  -23.9051  -10.4231   21.0405 C   0  0  0  0  0  0
  -24.3604   -9.4156   21.9200 C   0  0  0  0  0  0
  -23.6265   -8.2225   22.0760 C   0  0  0  0  0  0
  -22.4251   -8.0267   21.3546 C   0  0  0  0  0  0
  -21.9898   -9.0221   20.4629 C   0  0  0  0  0  0
  -22.7226  -10.2096   20.3036 C   0  0  0  0  0  0
  -21.6853   -6.0726   22.5280 C   0  0  0  0  0  0
  -21.4005   -6.5635   23.8211 C   0  0  0  0  0  0
  -21.3650   -5.6790   24.9170 C   0  0  0  0  0  0
  -21.6030   -4.3052   24.7232 C   0  0  0  0  0  0
  -21.8818   -3.8129   23.4363 C   0  0  0  0  0  0
  -21.9193   -4.6951   22.3416 C   0  0  0  0  0  0
  -22.7743  -13.5132   21.1921 C   0  0  0  0  0  0
  -22.1651   -4.2135   21.0992 F   0  0  0  0  0  0
  -21.5640   -3.4526   25.7735 F   0  0  0  0  0  0
  -29.9536  -13.6774   20.3807 N   0  0  0  0  0  0
  -26.2857  -12.9349   20.3280 N   0  0  0  0  0  0
  -25.9289  -11.6498   20.5741 N   0  0  0  0  0  0
  -22.0347  -12.8138   22.0468 N   0  0  0  0  0  0
  -25.3966  -15.1890   20.4424 N   0  0  0  0  0  0
  -31.7167  -15.0548   20.1192 O   0  0  0  0  0  0
  -21.6599   -6.8870   21.4253 O   0  0  0  0  0  0
  -22.3470  -14.5480   20.6791 O   0  0  0  0  0  0
  -24.6446  -31.8443   23.1874 C   0  0  0  0  0  0
  -25.9236  -32.4681   23.8273 C   0  0  1  0  0  0
  -27.2495  -27.1722   20.1385 C   0  0  0  0  0  0
  -25.6012  -33.8482   24.2220 N   0  0  0  0  0  0
  -23.4454  -30.4630   21.5306 C   0  0  2  0  0  0
  -24.9014  -28.8863   20.1108 C   0  0  0  0  0  0
  -22.7555  -29.4555   22.4849 C   0  0  0  0  0  0
  -18.0289  -28.1393   22.8452 C   0  0  0  0  0  0
  -24.1499  -36.7235   23.2632 C   0  0  0  0  0  0
  -25.9956  -30.7332   21.3732 C   0  0  0  0  0  0
  -26.0745  -29.3406   20.7248 C   0  0  0  0  0  0
  -27.2450  -28.4975   20.7294 C   0  0  0  0  0  0
  -26.0501  -26.8154   19.4817 C   0  0  0  0  0  0
  -24.8978  -27.6334   19.4764 C   0  0  0  0  0  0
  -23.6720  -29.7819   20.1519 C   0  0  0  0  0  0
  -25.4112  -36.2997   24.0321 C   0  0  1  0  0  0
  -20.5900  -28.3724   23.1216 C   0  0  2  0  0  0
  -20.6763  -26.9432   22.5379 C   0  0  0  0  0  0
  -19.5749  -26.6388   21.5165 C   0  0  0  0  0  0
  -18.1922  -26.7937   22.1577 C   0  0  0  0  0  0
  -19.1549  -28.8867   23.2828 C   0  0  0  0  0  0
  -18.9478  -30.1445   23.8871 C   0  0  0  0  0  0
  -17.6487  -30.6585   24.0531 C   0  0  0  0  0  0
  -25.9071  -34.9387   23.5066 C   0  0  0  0  0  0
  -16.5367  -29.9077   23.6329 C   0  0  0  0  0  0
  -16.7278  -28.6494   23.0347 C   0  0  0  0  0  0
  -26.4581  -31.6513   25.0679 C   0  0  0  0  0  0
  -25.3831  -31.3662   26.1416 C   0  0  0  0  0  0
  -27.0419  -30.2927   24.6188 C   0  0  0  0  0  0
  -27.6137  -32.4227   25.7483 C   0  0  0  0  0  0
  -27.5551  -37.1767   24.8453 C   0  0  0  0  0  0
  -21.4249  -29.3073   22.3616 N   0  0  0  0  0  0
  -26.4243  -37.3739   23.9423 N   0  0  0  0  0  0
  -24.7148  -31.0326   22.0869 N   0  0  0  0  0  0
  -23.4205  -28.8124   23.3009 O   0  0  0  0  0  0
  -28.3317  -26.2219   20.2101 O   0  0  0  0  0  0
  -26.5604  -34.8913   22.4613 O   0  0  0  0  0  0
  -23.5572  -32.1290   23.7138 O   0  0  0  0  0  0
  -30.1235  -20.0660   20.9296 C   0  0  0  0  0  0
  -28.4035  -19.5978   19.4035 C   0  0  0  0  0  0
  -30.3837  -18.6230   21.0783 C   0  0  0  0  0  0
  -28.6263  -18.1799   19.5333 C   0  0  0  0  0  0
  -29.6479  -17.5933   20.3648 C   0  0  0  0  0  0
  -29.1020  -20.6334   20.0866 C   0  0  0  0  0  0
  -32.4465  -19.0336   22.7359 C   0  0  0  0  0  0
  -32.8518  -18.0153   21.6975 C   0  0  0  0  0  0
  -31.4004  -18.1532   22.0852 C   0  0  0  0  0  0
  -26.9273  -16.2539   16.5933 C   0  0  0  0  0  0
  -27.6374  -17.3025   18.7824 C   0  0  0  0  0  0
  -27.8256  -17.3033   17.2623 C   0  0  0  0  0  0
  -28.1270  -24.7147   19.9180 C   0  0  0  0  0  0
  -29.0788  -23.3867   20.3154 C   0  0  0  0  0  0
  -29.6758  -16.0736   20.6224 N   0  0  0  0  0  0
  -28.6386  -21.9983   19.8494 O   0  0  0  0  0  0
  -31.4698  -12.7676   19.1555 H   0  0  0  0  0  0
  -30.4482  -11.6347   20.0099 H   0  0  0  0  0  0
  -29.8325  -11.7361   17.5718 H   0  0  0  0  0  0
  -29.5788  -13.4597   17.6855 H   0  0  0  0  0  0
  -27.9438  -11.2601   18.9668 H   0  0  0  0  0  0
  -27.3857  -12.4468   17.8174 H   0  0  0  0  0  0
  -27.5831  -14.2143   19.4052 H   0  0  0  0  0  0
  -28.7678  -12.2936   21.4694 H   0  0  0  0  0  0
  -28.3605  -13.9685   21.7507 H   0  0  0  0  0  0
  -25.2751   -9.5608   22.4758 H   0  0  0  0  0  0
  -23.9944   -7.4603   22.7491 H   0  0  0  0  0  0
  -21.0833   -8.8738   19.8916 H   0  0  0  0  0  0
  -22.3716  -10.9641   19.6115 H   0  0  0  0  0  0
  -21.1990   -7.6139   23.9709 H   0  0  0  0  0  0
  -21.1499   -6.0520   25.9077 H   0  0  0  0  0  0
  -22.0620   -2.7604   23.2852 H   0  0  0  0  0  0
  -22.3916  -11.9828   22.4941 H   0  0  0  0  0  0
  -21.0952  -13.1206   22.2658 H   0  0  0  0  0  0
  -24.6130  -15.8079   20.6189 H   0  0  0  0  0  0
  -26.2378  -15.6801   20.1857 H   0  0  0  0  0  0
  -26.7292  -32.5316   23.1000 H   0  0  0  0  0  0
  -25.0296  -33.9609   25.0460 H   0  0  0  0  0  0
  -22.7457  -31.2860   21.3695 H   0  0  0  0  0  0
  -23.3762  -35.9557   23.3236 H   0  0  0  0  0  0
  -24.3636  -36.8922   22.2066 H   0  0  0  0  0  0
  -23.7249  -37.6423   23.6694 H   0  0  0  0  0  0
  -26.1267  -31.4840   20.5918 H   0  0  0  0  0  0
  -26.8730  -30.8055   22.0033 H   0  0  0  0  0  0
  -28.1347  -28.8419   21.2375 H   0  0  0  0  0  0
  -25.9740  -25.8646   18.9749 H   0  0  0  0  0  0
  -24.0029  -27.2731   18.9888 H   0  0  0  0  0  0
  -23.8102  -30.5495   19.3892 H   0  0  0  0  0  0
  -22.7911  -29.2180   19.8404 H   0  0  0  0  0  0
  -25.1300  -36.1795   25.0816 H   0  0  0  0  0  0
  -20.9977  -28.3298   24.1337 H   0  0  0  0  0  0
  -20.5592  -26.2358   23.3603 H   0  0  0  0  0  0
  -21.6646  -26.7411   22.1235 H   0  0  0  0  0  0
  -19.6936  -25.6286   21.1220 H   0  0  0  0  0  0
  -19.6708  -27.3159   20.6652 H   0  0  0  0  0  0
  -17.4209  -26.6651   21.3948 H   0  0  0  0  0  0
  -18.0356  -26.0074   22.8980 H   0  0  0  0  0  0
  -19.7963  -30.7225   24.2261 H   0  0  0  0  0  0
  -17.5056  -31.6268   24.5119 H   0  0  0  0  0  0
  -15.5363  -30.2965   23.7686 H   0  0  0  0  0  0
  -15.8672  -28.0793   22.7097 H   0  0  0  0  0  0
  -24.6120  -30.6844   25.7813 H   0  0  0  0  0  0
  -24.8887  -32.2798   26.4715 H   0  0  0  0  0  0
  -25.8234  -30.9015   27.0256 H   0  0  0  0  0  0
  -26.2986  -29.6640   24.1254 H   0  0  0  0  0  0
  -27.4142  -29.7228   25.4714 H   0  0  0  0  0  0
  -27.8870  -30.4180   23.9413 H   0  0  0  0  0  0
  -27.2806  -33.3625   26.1908 H   0  0  0  0  0  0
  -28.4070  -32.6576   25.0368 H   0  0  0  0  0  0
  -28.0652  -31.8394   26.5531 H   0  0  0  0  0  0
  -28.2510  -38.0121   24.7532 H   0  0  0  0  0  0
  -28.1101  -36.2637   24.6198 H   0  0  0  0  0  0
  -27.2301  -37.1335   25.8870 H   0  0  0  0  0  0
  -20.9455  -29.8848   21.6856 H   0  0  0  0  0  0
  -26.0088  -38.2795   24.1450 H   0  0  0  0  0  0
  -30.6993  -20.7690   21.5116 H   0  0  0  0  0  0
  -27.5990  -19.9157   18.7543 H   0  0  0  0  0  0
  -32.5278  -20.0797   22.4576 H   0  0  0  0  0  0
  -32.7122  -18.8069   23.7677 H   0  0  0  0  0  0
  -33.3777  -17.1270   22.0427 H   0  0  0  0  0  0
  -33.1635  -18.4026   20.7303 H   0  0  0  0  0  0
  -30.9768  -17.3743   22.7156 H   0  0  0  0  0  0
  -27.0187  -16.2828   15.5074 H   0  0  0  0  0  0
  -25.8780  -16.4202   16.8404 H   0  0  0  0  0  0
  -27.1886  -15.2462   16.9236 H   0  0  0  0  0  0
  -26.6264  -17.6429   19.0143 H   0  0  0  0  0  0
  -27.6859  -16.2874   19.1455 H   0  0  0  0  0  0
  -27.6013  -18.2918   16.8612 H   0  0  0  0  0  0
  -28.8678  -17.0940   17.0147 H   0  0  0  0  0  0
  -27.1455  -24.4681   20.3216 H   0  0  0  0  0  0
  -28.0135  -24.6691   18.8321 H   0  0  0  0  0  0
  -29.2020  -23.3528   21.3974 H   0  0  0  0  0  0
  -30.0795  -23.5563   19.9105 H   0  0  0  0  0  0
  -28.7498  -15.7296   20.8207 H   0  0  0  0  0  0
  1 25  1  0  0  0
  1 30  2  0  0  0
  1 85  1  0  0  0
  2  3  1  0  0  0
  2 25  1  0  0  0
  2 87  1  0  0  0
  2 88  1  0  0  0
  3  4  1  0  0  0
  3 89  1  0  0  0
  3 90  1  0  0  0
  4  5  1  0  0  0
  4 91  1  0  0  0
  4 92  1  0  0  0
  5  6  1  0  0  0
  5 26  1  0  0  0
  5 93  1  0  0  0
  6 25  1  0  0  0
  6 94  1  0  0  0
  6 95  1  0  0  0
  7  8  2  0  0  0
  7 26  1  0  0  0
  7 29  1  0  0  0
  8  9  1  0  0  0
  8 22  1  0  0  0
  9 10  1  0  0  0
  9 27  2  0  0  0
 10 11  2  0  0  0
 10 15  1  0  0  0
 11 12  1  0  0  0
 11 96  1  0  0  0
 12 13  2  0  0  0
 12 97  1  0  0  0
 13 14  1  0  0  0
 13 31  1  0  0  0
 14 15  2  0  0  0
 14 98  1  0  0  0
 15 99  1  0  0  0
 16 17  2  0  0  0
 16 21  1  0  0  0
 16 31  1  0  0  0
 17 18  1  0  0  0
 17100  1  0  0  0
 18 19  2  0  0  0
 18101  1  0  0  0
 19 20  1  0  0  0
 19 24  1  0  0  0
 20 21  2  0  0  0
 20102  1  0  0  0
 21 23  1  0  0  0
 22 28  1  0  0  0
 22 32  2  0  0  0
 26 27  1  0  0  0
 28103  1  0  0  0
 28104  1  0  0  0
 29105  1  0  0  0
 29106  1  0  0  0
 33 34  1  0  0  0
 33 66  1  0  0  0
 33 70  2  0  0  0
 34 36  1  0  0  0
 34 59  1  0  0  0
 34107  1  0  0  0
 35 44  2  0  0  0
 35 45  1  0  0  0
 35 68  1  0  0  0
 36 56  1  0  0  0
 36108  1  0  0  0
 37 39  1  0  0  0
 37 47  1  0  0  0
 37 66  1  0  0  0
 37109  1  0  0  0
 38 43  2  0  0  0
 38 46  1  0  0  0
 38 47  1  0  0  0
 39 64  1  0  0  0
 39 67  2  0  0  0
 40 52  1  0  0  0
 40 53  2  0  0  0
 40 58  1  0  0  0
 41110  1  0  0  0
 41111  1  0  0  0
 41112  1  0  0  0
 41 48  1  0  0  0
 42 43  1  0  0  0
 42 66  1  0  0  0
 42113  1  0  0  0
 42114  1  0  0  0
 43 44  1  0  0  0
 44115  1  0  0  0
 45 46  2  0  0  0
 45116  1  0  0  0
 46117  1  0  0  0
 47118  1  0  0  0
 47119  1  0  0  0
 48 56  1  0  0  0
 48 65  1  0  0  0
 48120  1  0  0  0
 49 50  1  0  0  0
 49 53  1  0  0  0
 49 64  1  0  0  0
 49121  1  0  0  0
 50 51  1  0  0  0
 50122  1  0  0  0
 50123  1  0  0  0
 51 52  1  0  0  0
 51124  1  0  0  0
 51125  1  0  0  0
 52126  1  0  0  0
 52127  1  0  0  0
 53 54  1  0  0  0
 54 55  2  0  0  0
 54128  1  0  0  0
 55 57  1  0  0  0
 55129  1  0  0  0
 56 69  2  0  0  0
 57 58  2  0  0  0
 57130  1  0  0  0
 58131  1  0  0  0
 59 60  1  0  0  0
 59 61  1  0  0  0
 59 62  1  0  0  0
 60132  1  0  0  0
 60133  1  0  0  0
 60134  1  0  0  0
 61135  1  0  0  0
 61136  1  0  0  0
 61137  1  0  0  0
 62138  1  0  0  0
 62139  1  0  0  0
 62140  1  0  0  0
 63 65  1  0  0  0
 63141  1  0  0  0
 63142  1  0  0  0
 63143  1  0  0  0
 64144  1  0  0  0
 65145  1  0  0  0
 68 83  1  0  0  0
 71 73  2  0  0  0
 71 76  1  0  0  0
 71146  1  0  0  0
 72 74  1  0  0  0
 72 76  2  0  0  0
 72147  1  0  0  0
 73 75  1  0  0  0
 73 79  1  0  0  0
 74 75  2  0  0  0
 74 81  1  0  0  0
 75 85  1  0  0  0
 76 86  1  0  0  0
 77 78  1  0  0  0
 77 79  1  0  0  0
 77148  1  0  0  0
 77149  1  0  0  0
 78 79  1  0  0  0
 78150  1  0  0  0
 78151  1  0  0  0
 79152  1  0  0  0
 80 82  1  0  0  0
 80153  1  0  0  0
 80154  1  0  0  0
 80155  1  0  0  0
 81 82  1  0  0  0
 81156  1  0  0  0
 81157  1  0  0  0
 82158  1  0  0  0
 82159  1  0  0  0
 83 84  1  0  0  0
 83160  1  0  0  0
 83161  1  0  0  0
 84 86  1  0  0  0
 84162  1  0  0  0
 84163  1  0  0  0
 85164  1  0  0  0
M  ISO  4   1 100  68 101  83 101  85 100
M  END
> <chiral flag>
0

> <version>
0

> <s_m_source_file>
/data/baiqing/PycharmProjects/Reinvent-master-3.2/result/LINK_invent/BTK/process_docking_weight1_custom_sum_contain_oxygen_bond_distance_aromatic_linkinvent_7_9_3/rearranged_h_0140.sdf

> <i_m_source_file_index>
21

> <r_mmod_Potential_Energy-OPLS-2005>
506.349639892578

> <r_mmod_Stretch_Energy-OPLS-2005>
220.5517578125

> <r_mmod_Bend_Energy-OPLS-2005>
298.059844970703

> <r_mmod_Torsional_Energy-OPLS-2005>
264.522674560547

> <r_mmod_Improper_Torsional_Energy-OPLS-2005>
6.28885984420776

> <r_mmod_Van_der_Waal_Energy-OPLS-2005>
121.191932678223

> <r_mmod_Electrostatic_Energy-OPLS-2005>
-375.928588867188

> <r_mmod_Solvation_Energy-OPLS-2005>
-207.730377197266

> <b_mmod_Minimization_Converged-OPLS-2005>
0

> <r_mmod_RMS_Derivative-OPLS-2005>
4.6097583770752

$$$$
21
                    3D
 Structure written by MMmdl.
177186  0  0  1  0            999 V2000
  -30.6808  -14.4390   20.6344 C   0  0  0  0  0  0
  -30.4486  -12.3134   19.3925 C   0  0  0  0  0  0
  -29.5050  -12.5431   18.1933 C   0  0  0  0  0  0
  -28.0224  -12.3969   18.6035 C   0  0  0  0  0  0
  -27.6757  -13.1954   19.8879 C   0  0  2  0  0  0
  -28.7185  -12.8975   20.9885 C   0  0  0  0  0  0
  -25.2658  -13.8107   20.5667 C   0  0  0  0  0  0
  -24.1871  -13.0424   20.9143 C   0  0  0  0  0  0
  -24.6396  -11.6880   20.8721 C   0  0  0  0  0  0
  -23.9044  -10.4277   21.0380 C   0  0  0  0  0  0
  -24.3614   -9.4199   21.9162 C   0  0  0  0  0  0
  -23.6290   -8.2237   22.0750 C   0  0  0  0  0  0
  -22.4273   -8.0280   21.3544 C   0  0  0  0  0  0
  -21.9905   -9.0248   20.4640 C   0  0  0  0  0  0
  -22.7225  -10.2116   20.3016 C   0  0  0  0  0  0
  -21.6835   -6.0714   22.5281 C   0  0  0  0  0  0
  -21.4005   -6.5608   23.8225 C   0  0  0  0  0  0
  -21.3666   -5.6764   24.9190 C   0  0  0  0  0  0
  -21.6056   -4.3033   24.7219 C   0  0  0  0  0  0
  -21.8824   -3.8115   23.4342 C   0  0  0  0  0  0
  -21.9192   -4.6940   22.3397 C   0  0  0  0  0  0
  -22.7894  -13.5240   21.1784 C   0  0  0  0  0  0
  -22.1654   -4.2112   21.0983 F   0  0  0  0  0  0
  -21.5651   -3.4523   25.7731 F   0  0  0  0  0  0
  -30.0572  -13.2440   20.4617 N   0  0  0  0  0  0
  -26.3109  -12.9249   20.3418 N   0  0  0  0  0  0
  -25.9326  -11.6426   20.5757 N   0  0  0  0  0  0
  -22.0484  -12.8298   22.0360 N   0  0  0  0  0  0
  -25.4396  -15.1819   20.4058 N   0  0  0  0  0  0
  -31.7408  -14.7445   20.0767 O   0  0  0  0  0  0
  -21.6633   -6.8869   21.4250 O   0  0  0  0  0  0
  -22.3618  -14.5534   20.6585 O   0  0  0  0  0  0
  -24.6151  -31.8674   23.2103 C   0  0  0  0  0  0
  -25.9049  -32.4811   23.8382 C   0  0  1  0  0  0
  -27.2358  -27.4421   20.0600 C   0  0  0  0  0  0
  -25.5914  -33.8611   24.2314 N   0  0  0  0  0  0
  -23.3993  -30.4923   21.5521 C   0  0  2  0  0  0
  -24.8407  -28.9516   20.1220 C   0  0  0  0  0  0
  -22.7400  -29.4676   22.5027 C   0  0  0  0  0  0
  -18.0263  -28.1395   22.8494 C   0  0  0  0  0  0
  -24.1491  -36.7317   23.2635 C   0  0  0  0  0  0
  -25.9292  -30.8277   21.3638 C   0  0  0  0  0  0
  -26.0029  -29.4611   20.7126 C   0  0  0  0  0  0
  -27.1984  -28.7081   20.6892 C   0  0  0  0  0  0
  -26.0369  -26.9256   19.5140 C   0  0  0  0  0  0
  -24.8496  -27.6774   19.5323 C   0  0  0  0  0  0
  -23.6041  -29.8190   20.1693 C   0  0  0  0  0  0
  -25.4106  -36.3107   24.0339 C   0  0  1  0  0  0
  -20.5854  -28.3670   23.1344 C   0  0  2  0  0  0
  -20.6762  -26.9410   22.5429 C   0  0  0  0  0  0
  -19.5741  -26.6391   21.5224 C   0  0  0  0  0  0
  -18.1915  -26.7943   22.1628 C   0  0  0  0  0  0
  -19.1512  -28.8838   23.2909 C   0  0  0  0  0  0
  -18.9450  -30.1451   23.8913 C   0  0  0  0  0  0
  -17.6453  -30.6596   24.0575 C   0  0  0  0  0  0
  -25.9037  -34.9475   23.5113 C   0  0  0  0  0  0
  -16.5341  -29.9103   23.6343 C   0  0  0  0  0  0
  -16.7253  -28.6527   23.0342 C   0  0  0  0  0  0
  -26.4495  -31.6594   25.0713 C   0  0  0  0  0  0
  -25.3763  -31.3701   26.1463 C   0  0  0  0  0  0
  -27.0308  -30.3023   24.6091 C   0  0  0  0  0  0
  -27.6063  -32.4316   25.7474 C   0  0  0  0  0  0
  -27.5582  -37.1808   24.8460 C   0  0  0  0  0  0
  -21.4128  -29.3042   22.3754 N   0  0  0  0  0  0
  -26.4293  -37.3791   23.9409 N   0  0  0  0  0  0
  -24.6663  -31.0777   22.1004 N   0  0  0  0  0  0
  -23.4171  -28.8221   23.3065 O   0  0  0  0  0  0
  -28.4296  -26.7482   20.0198 O   0  0  0  0  0  0
  -26.5602  -34.8931   22.4682 O   0  0  0  0  0  0
  -23.5355  -32.1458   23.7503 O   0  0  0  0  0  0
  -31.4770  -25.0336   19.7249 C   0  0  0  0  0  0
  -30.9533  -18.9661   22.0711 C   0  0  0  0  0  0
  -28.6808  -18.8233   20.8203 C   0  0  0  0  0  0
  -31.2537  -17.5155   21.6147 C   0  0  0  0  0  0
  -29.0809  -17.4010   20.3887 C   0  0  0  0  0  0
  -32.8493  -24.4073   19.5849 C   0  0  1  0  0  0
  -29.8793  -19.7223   21.2250 C   0  0  2  0  0  0
  -32.5672  -22.9046   19.6842 C   0  0  2  0  0  0
  -29.9283  -16.7508   21.4900 C   0  0  1  0  0  0
  -31.0323  -22.7783   19.4206 C   0  0  2  0  0  0
  -33.5516  -24.8187   18.2784 C   0  0  0  0  0  0
  -32.9791  -22.3823   21.0806 C   0  0  0  0  0  0
  -28.3197  -23.4090   18.4558 C   0  0  0  0  0  0
  -30.4565  -20.5484   20.0438 C   0  0  0  0  0  0
  -28.6870  -25.8658   18.9130 C   0  0  0  0  0  0
  -29.0382  -24.4171   19.3842 C   0  0  2  0  0  0
  -30.4993  -24.1379   19.4949 N   0  0  0  0  0  0
  -29.9693  -15.2893   21.3893 N   0  0  0  0  0  0
  -31.3500  -26.2299   19.9950 O   0  0  0  0  0  0
  -30.4340  -21.9439   20.3778 O   0  0  0  0  0  0
  -31.4874  -12.4540   19.0887 H   0  0  0  0  0  0
  -30.3827  -11.2829   19.7453 H   0  0  0  0  0  0
  -29.7478  -11.8454   17.3885 H   0  0  0  0  0  0
  -29.6762  -13.5438   17.7937 H   0  0  0  0  0  0
  -27.8304  -11.3366   18.7676 H   0  0  0  0  0  0
  -27.3689  -12.7016   17.7844 H   0  0  0  0  0  0
  -27.7413  -14.2546   19.6412 H   0  0  0  0  0  0
  -28.7025  -11.8345   21.2372 H   0  0  0  0  0  0
  -28.4653  -13.4009   21.9235 H   0  0  0  0  0  0
  -25.2750   -9.5668   22.4755 H   0  0  0  0  0  0
  -23.9963   -7.4632   22.7493 H   0  0  0  0  0  0
  -21.0804   -8.8758   19.8988 H   0  0  0  0  0  0
  -22.3667  -10.9651   19.6116 H   0  0  0  0  0  0
  -21.1988   -7.6114   23.9713 H   0  0  0  0  0  0
  -21.1500   -6.0494   25.9092 H   0  0  0  0  0  0
  -22.0603   -2.7578   23.2850 H   0  0  0  0  0  0
  -22.3990  -11.9958   22.4826 H   0  0  0  0  0  0
  -21.1110  -13.1415   22.2459 H   0  0  0  0  0  0
  -24.6805  -15.8456   20.5108 H   0  0  0  0  0  0
  -26.2978  -15.6190   20.0947 H   0  0  0  0  0  0
  -26.7105  -32.5512   23.1129 H   0  0  0  0  0  0
  -25.0087  -33.9768   25.0473 H   0  0  0  0  0  0
  -22.6878  -31.3088   21.4121 H   0  0  0  0  0  0
  -23.3753  -35.9649   23.3297 H   0  0  0  0  0  0
  -24.3589  -36.8928   22.2051 H   0  0  0  0  0  0
  -23.7240  -37.6519   23.6654 H   0  0  0  0  0  0
  -26.0439  -31.5905   20.5925 H   0  0  0  0  0  0
  -26.8170  -30.8805   21.9825 H   0  0  0  0  0  0
  -28.0995  -29.1021   21.1379 H   0  0  0  0  0  0
  -25.9917  -25.9379   19.0798 H   0  0  0  0  0  0
  -23.9475  -27.2673   19.1007 H   0  0  0  0  0  0
  -23.7100  -30.5882   19.4037 H   0  0  0  0  0  0
  -22.7276  -29.2358   19.8796 H   0  0  0  0  0  0
  -25.1290  -36.1967   25.0833 H   0  0  0  0  0  0
  -20.9941  -28.3227   24.1467 H   0  0  0  0  0  0
  -20.5691  -26.2272   23.3608 H   0  0  0  0  0  0
  -21.6632  -26.7479   22.1206 H   0  0  0  0  0  0
  -19.6907  -25.6305   21.1244 H   0  0  0  0  0  0
  -19.6697  -27.3214   20.6772 H   0  0  0  0  0  0
  -17.4203  -26.6704   21.4012 H   0  0  0  0  0  0
  -18.0300  -26.0072   22.9009 H   0  0  0  0  0  0
  -19.7920  -30.7261   24.2282 H   0  0  0  0  0  0
  -17.5011  -31.6283   24.5172 H   0  0  0  0  0  0
  -15.5347  -30.3009   23.7654 H   0  0  0  0  0  0
  -15.8652  -28.0854   22.7038 H   0  0  0  0  0  0
  -24.5934  -30.7055   25.7802 H   0  0  0  0  0  0
  -24.8980  -32.2867   26.4929 H   0  0  0  0  0  0
  -25.8139  -30.8860   27.0203 H   0  0  0  0  0  0
  -26.2835  -29.6773   24.1193 H   0  0  0  0  0  0
  -27.4107  -29.7281   25.4551 H   0  0  0  0  0  0
  -27.8672  -30.4316   23.9212 H   0  0  0  0  0  0
  -27.2673  -33.3597   26.2091 H   0  0  0  0  0  0
  -28.3871  -32.6903   25.0307 H   0  0  0  0  0  0
  -28.0745  -31.8417   26.5366 H   0  0  0  0  0  0
  -28.2606  -38.0101   24.7518 H   0  0  0  0  0  0
  -28.1080  -36.2642   24.6287 H   0  0  0  0  0  0
  -27.2317  -37.1446   25.8865 H   0  0  0  0  0  0
  -20.9278  -29.8757   21.6979 H   0  0  0  0  0  0
  -26.0189  -38.2872   24.1411 H   0  0  0  0  0  0
  -31.8795  -19.5358   22.1166 H   0  0  0  0  0  0
  -30.5995  -18.9241   23.1027 H   0  0  0  0  0  0
  -28.0069  -18.7403   21.6739 H   0  0  0  0  0  0
  -28.0868  -19.2984   20.0395 H   0  0  0  0  0  0
  -31.9112  -17.0296   22.3367 H   0  0  0  0  0  0
  -31.7831  -17.5197   20.6607 H   0  0  0  0  0  0
  -29.6315  -17.4262   19.4475 H   0  0  0  0  0  0
  -28.1768  -16.8198   20.2057 H   0  0  0  0  0  0
  -33.4607  -24.7473   20.4217 H   0  0  0  0  0  0
  -29.4508  -20.4675   21.8991 H   0  0  0  0  0  0
  -33.0993  -22.3442   18.9157 H   0  0  0  0  0  0
  -29.3985  -16.8960   22.4339 H   0  0  0  0  0  0
  -30.8378  -22.4247   18.4047 H   0  0  0  0  0  0
  -32.9599  -24.5430   17.4038 H   0  0  0  0  0  0
  -34.5224  -24.3308   18.1864 H   0  0  0  0  0  0
  -33.7197  -25.8969   18.2415 H   0  0  0  0  0  0
  -32.3696  -22.8209   21.8719 H   0  0  0  0  0  0
  -34.0199  -22.6260   21.2948 H   0  0  0  0  0  0
  -32.8978  -21.3011   21.1536 H   0  0  0  0  0  0
  -27.2503  -23.6210   18.4025 H   0  0  0  0  0  0
  -28.4059  -22.3805   18.8053 H   0  0  0  0  0  0
  -28.7078  -23.4520   17.4375 H   0  0  0  0  0  0
  -29.8621  -20.3931   19.1424 H   0  0  0  0  0  0
  -31.4631  -20.2116   19.7929 H   0  0  0  0  0  0
  -27.8746  -25.8406   18.1899 H   0  0  0  0  0  0
  -29.4877  -26.2895   18.3057 H   0  0  0  0  0  0
  -28.6231  -24.2793   20.3832 H   0  0  0  0  0  0
  -29.1718  -14.8344   21.8092 H   0  0  0  0  0  0
  1 25  1  0  0  0
  1 30  2  0  0  0
  1 88  1  0  0  0
  2  3  1  0  0  0
  2 25  1  0  0  0
  2 91  1  0  0  0
  2 92  1  0  0  0
  3  4  1  0  0  0
  3 93  1  0  0  0
  3 94  1  0  0  0
  4  5  1  0  0  0
  4 95  1  0  0  0
  4 96  1  0  0  0
  5  6  1  0  0  0
  5 26  1  0  0  0
  5 97  1  0  0  0
  6 25  1  0  0  0
  6 98  1  0  0  0
  6 99  1  0  0  0
  7  8  2  0  0  0
  7 26  1  0  0  0
  7 29  1  0  0  0
  8  9  1  0  0  0
  8 22  1  0  0  0
  9 10  1  0  0  0
  9 27  2  0  0  0
 10 11  2  0  0  0
 10 15  1  0  0  0
 11 12  1  0  0  0
 11100  1  0  0  0
 12 13  2  0  0  0
 12101  1  0  0  0
 13 14  1  0  0  0
 13 31  1  0  0  0
 14 15  2  0  0  0
 14102  1  0  0  0
 15103  1  0  0  0
 16 17  2  0  0  0
 16 21  1  0  0  0
 16 31  1  0  0  0
 17 18  1  0  0  0
 17104  1  0  0  0
 18 19  2  0  0  0
 18105  1  0  0  0
 19 20  1  0  0  0
 19 24  1  0  0  0
 20 21  2  0  0  0
 20106  1  0  0  0
 21 23  1  0  0  0
 22 28  1  0  0  0
 22 32  2  0  0  0
 26 27  1  0  0  0
 28107  1  0  0  0
 28108  1  0  0  0
 29109  1  0  0  0
 29110  1  0  0  0
 33 34  1  0  0  0
 33 66  1  0  0  0
 33 70  2  0  0  0
 34 36  1  0  0  0
 34 59  1  0  0  0
 34111  1  0  0  0
 35 44  2  0  0  0
 35 45  1  0  0  0
 35 68  1  0  0  0
 36 56  1  0  0  0
 36112  1  0  0  0
 37 39  1  0  0  0
 37 47  1  0  0  0
 37 66  1  0  0  0
 37113  1  0  0  0
 38 43  2  0  0  0
 38 46  1  0  0  0
 38 47  1  0  0  0
 39 64  1  0  0  0
 39 67  2  0  0  0
 40 52  1  0  0  0
 40 53  2  0  0  0
 40 58  1  0  0  0
 41114  1  0  0  0
 41115  1  0  0  0
 41116  1  0  0  0
 41 48  1  0  0  0
 42 43  1  0  0  0
 42 66  1  0  0  0
 42117  1  0  0  0
 42118  1  0  0  0
 43 44  1  0  0  0
 44119  1  0  0  0
 45 46  2  0  0  0
 45120  1  0  0  0
 46121  1  0  0  0
 47122  1  0  0  0
 47123  1  0  0  0
 48 56  1  0  0  0
 48 65  1  0  0  0
 48124  1  0  0  0
 49 50  1  0  0  0
 49 53  1  0  0  0
 49 64  1  0  0  0
 49125  1  0  0  0
 50 51  1  0  0  0
 50126  1  0  0  0
 50127  1  0  0  0
 51 52  1  0  0  0
 51128  1  0  0  0
 51129  1  0  0  0
 52130  1  0  0  0
 52131  1  0  0  0
 53 54  1  0  0  0
 54 55  2  0  0  0
 54132  1  0  0  0
 55 57  1  0  0  0
 55133  1  0  0  0
 56 69  2  0  0  0
 57 58  2  0  0  0
 57134  1  0  0  0
 58135  1  0  0  0
 59 60  1  0  0  0
 59 61  1  0  0  0
 59 62  1  0  0  0
 60136  1  0  0  0
 60137  1  0  0  0
 60138  1  0  0  0
 61139  1  0  0  0
 61140  1  0  0  0
 61141  1  0  0  0
 62142  1  0  0  0
 62143  1  0  0  0
 62144  1  0  0  0
 63 65  1  0  0  0
 63145  1  0  0  0
 63146  1  0  0  0
 63147  1  0  0  0
 64148  1  0  0  0
 65149  1  0  0  0
 68 85  1  0  0  0
 71 76  1  0  0  0
 71 87  1  0  0  0
 71 89  2  0  0  0
 72 74  1  0  0  0
 72 77  1  0  0  0
 72150  1  0  0  0
 72151  1  0  0  0
 73 75  1  0  0  0
 73 77  1  0  0  0
 73152  1  0  0  0
 73153  1  0  0  0
 74 79  1  0  0  0
 74154  1  0  0  0
 74155  1  0  0  0
 75 79  1  0  0  0
 75156  1  0  0  0
 75157  1  0  0  0
 76 78  1  0  0  0
 76 81  1  0  0  0
 76158  1  0  0  0
 77 84  1  0  0  0
 77159  1  0  0  0
 78 80  1  0  0  0
 78 82  1  0  0  0
 78160  1  0  0  0
 79 88  1  0  0  0
 79161  1  0  0  0
 80 87  1  0  0  0
 80 90  1  0  0  0
 80162  1  0  0  0
 81163  1  0  0  0
 81164  1  0  0  0
 81165  1  0  0  0
 82166  1  0  0  0
 82167  1  0  0  0
 82168  1  0  0  0
 83169  1  0  0  0
 83170  1  0  0  0
 83171  1  0  0  0
 83 86  1  0  0  0
 84 90  1  0  0  0
 84172  1  0  0  0
 84173  1  0  0  0
 85 86  1  0  0  0
 85174  1  0  0  0
 85175  1  0  0  0
 86 87  1  0  0  0
 86176  1  0  0  0
 88177  1  0  0  0
M  ISO  4   1 100  68 101  85 101  88 100
M  END
> <chiral flag>
0

> <version>
0

> <s_m_source_file>
/data/baiqing/PycharmProjects/Reinvent-master-3.2/result/LINK_invent/BTK/process_docking_weight1_custom_sum_contain_oxygen_bond_distance_aromatic_linkinvent_7_9_3/rearranged_h_0140.sdf

> <i_m_source_file_index>
22

> <r_mmod_Potential_Energy-OPLS-2005>
95.2351531982422

> <r_mmod_Stretch_Energy-OPLS-2005>
44.4479446411133

> <r_mmod_Bend_Energy-OPLS-2005>
151.425323486328

> <r_mmod_Torsional_Energy-OPLS-2005>
326.52099609375

> <r_mmod_Improper_Torsional_Energy-OPLS-2005>
3.49201083183289

> <r_mmod_Van_der_Waal_Energy-OPLS-2005>
147.868560791016

> <r_mmod_Electrostatic_Energy-OPLS-2005>
-357.678619384766

> <r_mmod_Solvation_Energy-OPLS-2005>
-232.124282836914

> <b_mmod_Minimization_Converged-OPLS-2005>
0

> <r_mmod_RMS_Derivative-OPLS-2005>
3.30716443061829

$$$$
22
                    3D
 Structure written by MMmdl.
176186  0  0  1  0            999 V2000
  -30.3302  -15.5763   20.0970 C   0  0  0  0  0  0
  -30.4140  -13.0082   19.4835 C   0  0  0  0  0  0
  -29.5330  -12.5938   18.2814 C   0  0  0  0  0  0
  -28.1092  -12.2642   18.7510 C   0  0  0  0  0  0
  -27.5892  -13.2972   19.7769 C   0  0  2  0  0  0
  -28.6176  -13.6665   20.8683 C   0  0  0  0  0  0
  -25.2383  -13.8271   20.5769 C   0  0  0  0  0  0
  -24.1760  -13.0444   20.9271 C   0  0  0  0  0  0
  -24.6444  -11.6943   20.8769 C   0  0  0  0  0  0
  -23.9128  -10.4297   21.0406 C   0  0  0  0  0  0
  -24.3672   -9.4199   21.9174 C   0  0  0  0  0  0
  -23.6325   -8.2247   22.0760 C   0  0  0  0  0  0
  -22.4295   -8.0295   21.3562 C   0  0  0  0  0  0
  -21.9950   -9.0262   20.4646 C   0  0  0  0  0  0
  -22.7300  -10.2132   20.3044 C   0  0  0  0  0  0
  -21.6852   -6.0748   22.5283 C   0  0  0  0  0  0
  -21.3999   -6.5645   23.8215 C   0  0  0  0  0  0
  -21.3665   -5.6802   24.9183 C   0  0  0  0  0  0
  -21.6050   -4.3064   24.7234 C   0  0  0  0  0  0
  -21.8814   -3.8154   23.4352 C   0  0  0  0  0  0
  -21.9190   -4.6975   22.3408 C   0  0  0  0  0  0
  -22.7774  -13.5185   21.1904 C   0  0  0  0  0  0
  -22.1661   -4.2161   21.0986 F   0  0  0  0  0  0
  -21.5643   -3.4543   25.7744 F   0  0  0  0  0  0
  -29.7959  -14.2250   20.1650 N   0  0  0  0  0  0
  -26.2787  -12.9576   20.3130 N   0  0  0  0  0  0
  -25.9375  -11.6662   20.5663 N   0  0  0  0  0  0
  -22.0425  -12.8166   22.0441 N   0  0  0  0  0  0
  -25.4015  -15.2009   20.4253 N   0  0  0  0  0  0
  -31.5630  -15.4830   19.9394 O   0  0  0  0  0  0
  -21.6642   -6.8901   21.4253 O   0  0  0  0  0  0
  -22.3454  -14.5478   20.6725 O   0  0  0  0  0  0
  -24.8622  -31.7574   22.8418 C   0  0  0  0  0  0
  -26.0252  -32.4218   23.6729 C   0  0  1  0  0  0
  -26.5662  -27.6799   21.5354 C   0  0  0  0  0  0
  -25.6120  -33.7840   24.0998 N   0  0  0  0  0  0
  -23.6428  -30.0876   21.2262 C   0  0  2  0  0  0
  -25.2678  -27.7616   19.6103 C   0  0  0  0  0  0
  -22.8114  -29.4637   22.4226 C   0  0  0  0  0  0
  -18.0441  -28.1538   22.8405 C   0  0  0  0  0  0
  -24.1502  -36.6954   23.2719 C   0  0  0  0  0  0
  -26.7125  -30.5257   21.0232 C   0  0  0  0  0  0
  -26.9411  -28.6979   20.0560 C   0  0  0  0  0  0
  -27.7201  -28.0637   20.9298 C   0  0  0  0  0  0
  -26.1820  -26.4328   20.8967 C   0  0  0  0  0  0
  -25.1866  -26.4966   19.9564 C   0  0  0  0  0  0
  -23.6689  -28.5871   20.1338 C   0  0  0  0  0  0
  -25.4197  -36.2635   24.0222 C   0  0  1  0  0  0
  -20.6149  -28.4189   23.0979 C   0  0  2  0  0  0
  -20.6887  -26.9655   22.5615 C   0  0  0  0  0  0
  -19.5975  -26.6436   21.5345 C   0  0  0  0  0  0
  -18.2094  -26.8052   22.1597 C   0  0  0  0  0  0
  -19.1671  -28.9159   23.2669 C   0  0  0  0  0  0
  -18.9478  -30.1704   23.8749 C   0  0  0  0  0  0
  -17.6423  -30.6635   24.0568 C   0  0  0  0  0  0
  -25.9274  -34.9165   23.4572 C   0  0  0  0  0  0
  -16.5364  -29.9039   23.6379 C   0  0  0  0  0  0
  -16.7396  -28.6495   23.0369 C   0  0  0  0  0  0
  -26.4716  -31.6319   24.9814 C   0  0  0  0  0  0
  -25.3387  -31.3805   26.0088 C   0  0  0  0  0  0
  -27.0621  -30.2611   24.5965 C   0  0  0  0  0  0
  -27.5917  -32.4144   25.7161 C   0  0  0  0  0  0
  -27.5554  -37.1583   24.8467 C   0  0  0  0  0  0
  -21.4685  -29.3286   22.3025 N   0  0  0  0  0  0
  -26.4221  -37.3514   23.9466 N   0  0  0  0  0  0
  -25.0729  -30.9720   21.6658 N   0  0  0  0  0  0
  -23.4076  -28.9340   23.3628 O   0  0  0  0  0  0
  -25.5217  -28.7779   21.4274 O   0  0  0  0  0  0
  -26.6055  -34.9092   22.4292 O   0  0  0  0  0  0
  -23.7307  -32.0088   23.3230 O   0  0  0  0  0  0
  -29.6082  -20.8060   18.2528 C   0  0  0  0  0  0
  -29.2656  -18.4965   19.6184 C   0  0  0  0  0  0
  -29.9779  -19.3900   18.6830 C   0  0  0  0  0  0
  -28.5070  -21.6941   18.6987 C   0  0  0  0  0  0
  -28.1879  -19.4614   20.0305 C   0  0  0  0  0  0
  -33.3038  -19.1021   19.3847 C   0  0  0  0  0  0
  -33.5237  -18.8338   17.9125 C   0  0  0  0  0  0
  -26.6086  -24.1589   17.8431 C   0  0  0  0  0  0
  -28.6030  -24.9246   18.7206 C   0  0  0  0  0  0
  -26.2887  -25.7396   17.1852 C   0  0  0  0  0  0
  -28.3085  -26.5023   18.0370 C   0  0  0  0  0  0
  -28.0884  -23.4294   18.1514 C   0  0  1  0  0  0
  -32.3172  -19.6204   18.3583 C   0  0  0  0  0  0
  -27.2105  -18.9792   21.0900 C   0  0  0  0  0  0
  -30.0810  -17.2861   21.6732 C   0  0  0  0  0  0
  -26.2255  -28.8008   17.6630 C   0  0  0  0  0  0
  -25.3301  -29.9691   19.1697 C   0  0  0  0  0  0
  -27.8724  -20.8433   19.6430 N   0  0  0  0  0  0
  -29.6535  -16.9648   20.2948 N   0  0  0  0  0  0
  -26.8683  -27.0926   17.7708 N   0  3  1  0  0  0
  -31.1379  -18.8355   18.1938 O   0  0  0  0  0  0
  -31.4200  -13.2177   19.1190 H   0  0  0  0  0  0
  -30.5381  -12.1842   20.1860 H   0  0  0  0  0  0
  -29.9783  -11.7385   17.7712 H   0  0  0  0  0  0
  -29.5023  -13.4092   17.5568 H   0  0  0  0  0  0
  -28.1450  -11.2813   19.2209 H   0  0  0  0  0  0
  -27.4328  -12.1726   17.9022 H   0  0  0  0  0  0
  -27.4378  -14.2029   19.1875 H   0  0  0  0  0  0
  -28.8633  -12.8199   21.5079 H   0  0  0  0  0  0
  -28.2073  -14.4387   21.5198 H   0  0  0  0  0  0
  -25.2822   -9.5663   22.4749 H   0  0  0  0  0  0
  -24.0024   -7.4634   22.7485 H   0  0  0  0  0  0
  -21.0875   -8.8780   19.8951 H   0  0  0  0  0  0
  -22.3756  -10.9668   19.6149 H   0  0  0  0  0  0
  -21.1964   -7.6145   23.9727 H   0  0  0  0  0  0
  -21.1498   -6.0526   25.9091 H   0  0  0  0  0  0
  -22.0587   -2.7612   23.2845 H   0  0  0  0  0  0
  -22.4076  -11.9861   22.4864 H   0  0  0  0  0  0
  -21.1027  -13.1155   22.2617 H   0  0  0  0  0  0
  -24.6320  -15.8497   20.5496 H   0  0  0  0  0  0
  -26.2561  -15.6447   20.1165 H   0  0  0  0  0  0
  -26.8940  -32.5038   23.0151 H   0  0  0  0  0  0
  -25.0024  -33.8408   24.9013 H   0  0  0  0  0  0
  -22.9764  -30.8226   20.7656 H   0  0  0  0  0  0
  -23.3877  -35.9159   23.3155 H   0  0  0  0  0  0
  -24.3527  -36.8947   22.2183 H   0  0  0  0  0  0
  -23.7130  -37.5949   23.7056 H   0  0  0  0  0  0
  -27.1551  -31.3441   20.4510 H   0  0  0  0  0  0
  -27.3715  -30.5096   21.8872 H   0  0  0  0  0  0
  -28.4272  -28.6641   21.4816 H   0  0  0  0  0  0
  -26.5208  -25.4837   21.2948 H   0  0  0  0  0  0
  -24.4526  -25.7491   19.7093 H   0  0  0  0  0  0
  -23.0281  -28.7260   19.2591 H   0  0  0  0  0  0
  -23.1361  -27.7863   20.6519 H   0  0  0  0  0  0
  -25.1482  -36.1132   25.0687 H   0  0  0  0  0  0
  -21.0306  -28.4042   24.1097 H   0  0  0  0  0  0
  -20.5503  -26.2918   23.4079 H   0  0  0  0  0  0
  -21.6798  -26.7294   22.1744 H   0  0  0  0  0  0
  -19.7189  -25.6296   21.1543 H   0  0  0  0  0  0
  -19.6991  -27.3102   20.6779 H   0  0  0  0  0  0
  -17.4463  -26.6841   21.3904 H   0  0  0  0  0  0
  -18.0345  -26.0212   22.8981 H   0  0  0  0  0  0
  -19.7901  -30.7634   24.2065 H   0  0  0  0  0  0
  -17.4863  -31.6267   24.5242 H   0  0  0  0  0  0
  -15.5337  -30.2809   23.7803 H   0  0  0  0  0  0
  -15.8830  -28.0726   22.7165 H   0  0  0  0  0  0
  -24.5393  -30.7729   25.5845 H   0  0  0  0  0  0
  -24.8970  -32.3158   26.3531 H   0  0  0  0  0  0
  -25.7078  -30.8511   26.8888 H   0  0  0  0  0  0
  -26.3371  -29.6390   24.0706 H   0  0  0  0  0  0
  -27.3756  -29.6991   25.4773 H   0  0  0  0  0  0
  -27.9506  -30.3623   23.9728 H   0  0  0  0  0  0
  -27.2234  -33.3444   26.1477 H   0  0  0  0  0  0
  -28.4101  -32.6719   25.0436 H   0  0  0  0  0  0
  -28.0159  -31.8365   26.5386 H   0  0  0  0  0  0
  -28.2433  -38.0016   24.7651 H   0  0  0  0  0  0
  -28.1191  -36.2528   24.6106 H   0  0  0  0  0  0
  -27.2327  -37.1007   25.8889 H   0  0  0  0  0  0
  -21.0229  -29.7841   21.5160 H   0  0  0  0  0  0
  -25.9979  -38.2505   24.1595 H   0  0  0  0  0  0
  -30.2485  -21.2564   17.5068 H   0  0  0  0  0  0
  -34.0104  -19.7941   19.8430 H   0  0  0  0  0  0
  -32.9969  -18.2735   20.0187 H   0  0  0  0  0  0
  -33.3698  -17.8148   17.5654 H   0  0  0  0  0  0
  -34.3069  -19.3896   17.3976 H   0  0  0  0  0  0
  -26.0767  -23.4622   17.1978 H   0  0  0  0  0  0
  -26.0538  -24.1099   18.7814 H   0  0  0  0  0  0
  -28.2850  -24.9649   19.7598 H   0  0  0  0  0  0
  -29.6852  -24.8508   18.7982 H   0  0  0  0  0  0
  -25.2064  -25.8582   17.1604 H   0  0  0  0  0  0
  -26.5833  -25.7191   16.1334 H   0  0  0  0  0  0
  -28.8079  -26.5210   17.0641 H   0  0  0  0  0  0
  -28.8640  -27.2360   18.6221 H   0  0  0  0  0  0
  -28.5464  -23.3802   17.1617 H   0  0  0  0  0  0
  -32.2663  -20.6854   18.1376 H   0  0  0  0  0  0
  -26.9936  -17.9185   20.9687 H   0  0  0  0  0  0
  -26.2599  -19.5071   21.0358 H   0  0  0  0  0  0
  -27.6080  -19.1386   22.0922 H   0  0  0  0  0  0
  -29.5548  -18.1383   22.0926 H   0  0  0  0  0  0
  -31.1383  -17.5741   21.6685 H   0  0  0  0  0  0
  -29.9616  -16.4697   22.3930 H   0  0  0  0  0  0
  -27.0174  -29.3982   17.2064 H   0  0  0  0  0  0
  -25.4628  -28.7498   16.8875 H   0  0  0  0  0  0
  -24.3571  -30.2970   18.7932 H   0  0  0  0  0  0
  -25.7565  -30.9618   19.0045 H   0  0  0  0  0  0
  -26.4901  -27.0061   18.7125 H   0  0  0  0  0  0
  1 25  1  0  0  0
  1 30  2  0  0  0
  1 89  1  0  0  0
  2  3  1  0  0  0
  2 25  1  0  0  0
  2 92  1  0  0  0
  2 93  1  0  0  0
  3  4  1  0  0  0
  3 94  1  0  0  0
  3 95  1  0  0  0
  4  5  1  0  0  0
  4 96  1  0  0  0
  4 97  1  0  0  0
  5  6  1  0  0  0
  5 26  1  0  0  0
  5 98  1  0  0  0
  6 25  1  0  0  0
  6 99  1  0  0  0
  6100  1  0  0  0
  7  8  2  0  0  0
  7 26  1  0  0  0
  7 29  1  0  0  0
  8  9  1  0  0  0
  8 22  1  0  0  0
  9 10  1  0  0  0
  9 27  2  0  0  0
 10 11  2  0  0  0
 10 15  1  0  0  0
 11 12  1  0  0  0
 11101  1  0  0  0
 12 13  2  0  0  0
 12102  1  0  0  0
 13 14  1  0  0  0
 13 31  1  0  0  0
 14 15  2  0  0  0
 14103  1  0  0  0
 15104  1  0  0  0
 16 17  2  0  0  0
 16 21  1  0  0  0
 16 31  1  0  0  0
 17 18  1  0  0  0
 17105  1  0  0  0
 18 19  2  0  0  0
 18106  1  0  0  0
 19 20  1  0  0  0
 19 24  1  0  0  0
 20 21  2  0  0  0
 20107  1  0  0  0
 21 23  1  0  0  0
 22 28  1  0  0  0
 22 32  2  0  0  0
 26 27  1  0  0  0
 28108  1  0  0  0
 28109  1  0  0  0
 29110  1  0  0  0
 29111  1  0  0  0
 33 34  1  0  0  0
 33 66  1  0  0  0
 33 70  2  0  0  0
 34 36  1  0  0  0
 34 59  1  0  0  0
 34112  1  0  0  0
 35 44  2  0  0  0
 35 45  1  0  0  0
 35 68  1  0  0  0
 36 56  1  0  0  0
 36113  1  0  0  0
 37 39  1  0  0  0
 37 47  1  0  0  0
 37 66  1  0  0  0
 37114  1  0  0  0
 38 43  2  0  0  0
 38 46  1  0  0  0
 38 47  1  0  0  0
 39 64  1  0  0  0
 39 67  2  0  0  0
 40 52  1  0  0  0
 40 53  2  0  0  0
 40 58  1  0  0  0
 41115  1  0  0  0
 41116  1  0  0  0
 41117  1  0  0  0
 41 48  1  0  0  0
 42 43  1  0  0  0
 42 66  1  0  0  0
 42118  1  0  0  0
 42119  1  0  0  0
 43 44  1  0  0  0
 44120  1  0  0  0
 45 46  2  0  0  0
 45121  1  0  0  0
 46122  1  0  0  0
 47123  1  0  0  0
 47124  1  0  0  0
 48 56  1  0  0  0
 48 65  1  0  0  0
 48125  1  0  0  0
 49 50  1  0  0  0
 49 53  1  0  0  0
 49 64  1  0  0  0
 49126  1  0  0  0
 50 51  1  0  0  0
 50127  1  0  0  0
 50128  1  0  0  0
 51 52  1  0  0  0
 51129  1  0  0  0
 51130  1  0  0  0
 52131  1  0  0  0
 52132  1  0  0  0
 53 54  1  0  0  0
 54 55  2  0  0  0
 54133  1  0  0  0
 55 57  1  0  0  0
 55134  1  0  0  0
 56 69  2  0  0  0
 57 58  2  0  0  0
 57135  1  0  0  0
 58136  1  0  0  0
 59 60  1  0  0  0
 59 61  1  0  0  0
 59 62  1  0  0  0
 60137  1  0  0  0
 60138  1  0  0  0
 60139  1  0  0  0
 61140  1  0  0  0
 61141  1  0  0  0
 61142  1  0  0  0
 62143  1  0  0  0
 62144  1  0  0  0
 62145  1  0  0  0
 63 65  1  0  0  0
 63146  1  0  0  0
 63147  1  0  0  0
 63148  1  0  0  0
 64149  1  0  0  0
 65150  1  0  0  0
 68 87  1  0  0  0
 71 73  2  0  0  0
 71 74  1  0  0  0
 71151  1  0  0  0
 72 73  1  0  0  0
 72 75  2  0  0  0
 72 89  1  0  0  0
 73 91  1  0  0  0
 74 88  2  0  0  0
 74 82  1  0  0  0
 75 84  1  0  0  0
 75 88  1  0  0  0
 76 77  1  0  0  0
 76 83  1  0  0  0
 76152  1  0  0  0
 76153  1  0  0  0
 77 83  1  0  0  0
 77154  1  0  0  0
 77155  1  0  0  0
 78 80  1  0  0  0
 78 82  1  0  0  0
 78156  1  0  0  0
 78157  1  0  0  0
 79 81  1  0  0  0
 79 82  1  0  0  0
 79158  1  0  0  0
 79159  1  0  0  0
 80 90  1  0  0  0
 80160  1  0  0  0
 80161  1  0  0  0
 81 90  1  0  0  0
 81162  1  0  0  0
 81163  1  0  0  0
 82164  1  0  0  0
 83 91  1  0  0  0
 83165  1  0  0  0
 84166  1  0  0  0
 84167  1  0  0  0
 84168  1  0  0  0
 85 89  1  0  0  0
 85169  1  0  0  0
 85170  1  0  0  0
 85171  1  0  0  0
 86 87  1  0  0  0
 86172  1  0  0  0
 86173  1  0  0  0
 86 90  1  0  0  0
 87174  1  0  0  0
 87175  1  0  0  0
 90176  1  0  0  0
M  CHG  1  90   1
M  ISO  4   1 100  68 101  87 101  89 100
M  END
> <chiral flag>
0

> <version>
0

> <s_m_source_file>
/data/baiqing/PycharmProjects/Reinvent-master-3.2/result/LINK_invent/BTK/process_docking_weight1_custom_sum_contain_oxygen_bond_distance_aromatic_linkinvent_7_9_3/rearranged_h_0140.sdf

> <i_m_source_file_index>
23

> <r_mmod_Potential_Energy-OPLS-2005>
11641.994140625

> <r_mmod_Stretch_Energy-OPLS-2005>
4918.07373046875

> <r_mmod_Bend_Energy-OPLS-2005>
1172.42834472656

> <r_mmod_Torsional_Energy-OPLS-2005>
766.842712402344

> <r_mmod_Improper_Torsional_Energy-OPLS-2005>
87.4570617675781

> <r_mmod_Van_der_Waal_Energy-OPLS-2005>
2148.40698242188

> <r_mmod_Electrostatic_Energy-OPLS-2005>
-466.153442382812

> <r_mmod_Solvation_Energy-OPLS-2005>
-424.964935302734

> <b_mmod_Minimization_Converged-OPLS-2005>
0

> <r_mmod_RMS_Derivative-OPLS-2005>
13.3774900436401

$$$$
23
                    3D
 Structure written by MMmdl.
164173  0  0  1  0            999 V2000
  -30.7704  -14.3837   20.6799 C   0  0  0  0  0  0
  -30.4164  -12.3008   19.4006 C   0  0  0  0  0  0
  -29.4858  -12.5253   18.1948 C   0  0  0  0  0  0
  -28.0115  -12.3766   18.6127 C   0  0  0  0  0  0
  -27.6652  -13.2063   19.8779 C   0  0  2  0  0  0
  -28.7031  -12.9635   20.9954 C   0  0  0  0  0  0
  -25.2605  -13.8163   20.5682 C   0  0  0  0  0  0
  -24.1851  -13.0440   20.9173 C   0  0  0  0  0  0
  -24.6403  -11.6905   20.8735 C   0  0  0  0  0  0
  -23.9072  -10.4289   21.0413 C   0  0  0  0  0  0
  -24.3628   -9.4202   21.9190 C   0  0  0  0  0  0
  -23.6306   -8.2235   22.0757 C   0  0  0  0  0  0
  -22.4282   -8.0277   21.3551 C   0  0  0  0  0  0
  -21.9916   -9.0251   20.4656 C   0  0  0  0  0  0
  -22.7248  -10.2129   20.3065 C   0  0  0  0  0  0
  -21.6853   -6.0736   22.5285 C   0  0  0  0  0  0
  -21.4012   -6.5644   23.8221 C   0  0  0  0  0  0
  -21.3658   -5.6797   24.9181 C   0  0  0  0  0  0
  -21.6041   -4.3057   24.7230 C   0  0  0  0  0  0
  -21.8821   -3.8147   23.4354 C   0  0  0  0  0  0
  -21.9196   -4.6967   22.3409 C   0  0  0  0  0  0
  -22.7874  -13.5241   21.1843 C   0  0  0  0  0  0
  -22.1665   -4.2152   21.0984 F   0  0  0  0  0  0
  -21.5625   -3.4538   25.7738 F   0  0  0  0  0  0
  -30.0454  -13.2555   20.4569 N   0  0  0  0  0  0
  -26.3046  -12.9335   20.3374 N   0  0  0  0  0  0
  -25.9329  -11.6491   20.5760 N   0  0  0  0  0  0
  -22.0516  -12.8235   22.0401 N   0  0  0  0  0  0
  -25.4340  -15.1881   20.4098 N   0  0  0  0  0  0
  -31.7964  -14.6606   20.0528 O   0  0  0  0  0  0
  -21.6644   -6.8877   21.4244 O   0  0  0  0  0  0
  -22.3561  -14.5552   20.6704 O   0  0  0  0  0  0
  -24.6108  -31.8704   23.2131 C   0  0  0  0  0  0
  -25.9016  -32.4836   23.8416 C   0  0  1  0  0  0
  -27.2410  -27.4648   20.0959 C   0  0  0  0  0  0
  -25.5882  -33.8636   24.2344 N   0  0  0  0  0  0
  -23.3987  -30.4932   21.5511 C   0  0  2  0  0  0
  -24.8495  -28.9615   20.1174 C   0  0  0  0  0  0
  -22.7393  -29.4668   22.4996 C   0  0  0  0  0  0
  -18.0268  -28.1380   22.8490 C   0  0  0  0  0  0
  -24.1484  -36.7325   23.2639 C   0  0  0  0  0  0
  -25.9238  -30.8430   21.3654 C   0  0  0  0  0  0
  -26.0042  -29.4770   20.7209 C   0  0  0  0  0  0
  -27.2032  -28.7318   20.7205 C   0  0  0  0  0  0
  -26.0783  -26.9622   19.4814 C   0  0  0  0  0  0
  -24.8786  -27.6990   19.4983 C   0  0  0  0  0  0
  -23.6082  -29.8233   20.1660 C   0  0  0  0  0  0
  -25.4102  -36.3122   24.0345 C   0  0  1  0  0  0
  -20.5856  -28.3660   23.1325 C   0  0  2  0  0  0
  -20.6759  -26.9395   22.5431 C   0  0  0  0  0  0
  -19.5748  -26.6385   21.5219 C   0  0  0  0  0  0
  -18.1918  -26.7933   22.1609 C   0  0  0  0  0  0
  -19.1517  -28.8835   23.2909 C   0  0  0  0  0  0
  -18.9447  -30.1440   23.8923 C   0  0  0  0  0  0
  -17.6449  -30.6583   24.0570 C   0  0  0  0  0  0
  -25.9025  -34.9485   23.5140 C   0  0  0  0  0  0
  -16.5341  -29.9087   23.6324 C   0  0  0  0  0  0
  -16.7257  -28.6508   23.0339 C   0  0  0  0  0  0
  -26.4463  -31.6606   25.0727 C   0  0  0  0  0  0
  -25.3745  -31.3714   26.1488 C   0  0  0  0  0  0
  -27.0280  -30.3047   24.6086 C   0  0  0  0  0  0
  -27.6058  -32.4318   25.7467 C   0  0  0  0  0  0
  -27.5586  -37.1811   24.8457 C   0  0  0  0  0  0
  -21.4125  -29.3025   22.3730 N   0  0  0  0  0  0
  -26.4293  -37.3800   23.9409 N   0  0  0  0  0  0
  -24.6621  -31.0831   22.1021 N   0  0  0  0  0  0
  -23.4177  -28.8219   23.3034 O   0  0  0  0  0  0
  -28.3773  -26.6964   20.0363 O   0  0  0  0  0  0
  -26.5586  -34.8932   22.4700 O   0  0  0  0  0  0
  -23.5310  -32.1445   23.7542 O   0  0  0  0  0  0
  -30.7201  -22.4308   21.3066 C   0  0  0  0  0  0
  -28.4076  -21.7289   20.9861 C   0  0  0  0  0  0
  -31.0935  -21.0744   21.2786 C   0  0  0  0  0  0
  -30.1617  -20.0488   21.1261 C   0  0  0  0  0  0
  -28.7956  -20.3667   20.9438 C   0  0  0  0  0  0
  -29.3491  -22.7693   21.1700 C   0  0  0  0  0  0
  -32.4982  -20.5522   21.3699 C   0  0  0  0  0  0
  -32.3216  -19.0232   21.4463 C   0  0  0  0  0  0
  -30.8376  -18.6803   21.1277 C   0  0  1  0  0  0
  -27.7454  -19.3055   20.6765 C   0  0  0  0  0  0
  -30.2441  -17.6523   22.1288 C   0  0  0  0  0  0
  -31.0324  -16.3215   22.2449 C   0  0  0  0  0  0
  -29.0466  -26.4866   21.2759 C   0  0  0  0  0  0
  -29.7958  -25.1429   21.2253 C   0  0  0  0  0  0
  -30.3285  -15.1668   21.6757 N   0  0  0  0  0  0
  -28.8625  -24.0619   21.1963 O   0  0  0  0  0  0
  -31.4603  -12.3971   19.0963 H   0  0  0  0  0  0
  -30.3129  -11.2808   19.7741 H   0  0  0  0  0  0
  -29.7231  -11.8158   17.4014 H   0  0  0  0  0  0
  -29.6519  -13.5198   17.7778 H   0  0  0  0  0  0
  -27.8266  -11.3185   18.8019 H   0  0  0  0  0  0
  -27.3563  -12.6540   17.7859 H   0  0  0  0  0  0
  -27.7193  -14.2590   19.5998 H   0  0  0  0  0  0
  -28.6678  -11.9236   21.3231 H   0  0  0  0  0  0
  -28.4473  -13.5500   21.8780 H   0  0  0  0  0  0
  -25.2774   -9.5671   22.4762 H   0  0  0  0  0  0
  -24.0023   -7.4618   22.7463 H   0  0  0  0  0  0
  -21.0847   -8.8766   19.8962 H   0  0  0  0  0  0
  -22.3711  -10.9666   19.6169 H   0  0  0  0  0  0
  -21.2001   -7.6154   23.9728 H   0  0  0  0  0  0
  -21.1480   -6.0522   25.9084 H   0  0  0  0  0  0
  -22.0604   -2.7610   23.2849 H   0  0  0  0  0  0
  -22.4133  -11.9901   22.4798 H   0  0  0  0  0  0
  -21.1131  -13.1257   22.2585 H   0  0  0  0  0  0
  -24.6728  -15.8483   20.5238 H   0  0  0  0  0  0
  -26.2958  -15.6251   20.1078 H   0  0  0  0  0  0
  -26.7090  -32.5573   23.1191 H   0  0  0  0  0  0
  -25.0037  -33.9803   25.0490 H   0  0  0  0  0  0
  -22.6866  -31.3090   21.4114 H   0  0  0  0  0  0
  -23.3742  -35.9663   23.3313 H   0  0  0  0  0  0
  -24.3588  -36.8923   22.2050 H   0  0  0  0  0  0
  -23.7242  -37.6540   23.6641 H   0  0  0  0  0  0
  -26.0309  -31.6067   20.5936 H   0  0  0  0  0  0
  -26.8140  -30.9017   21.9803 H   0  0  0  0  0  0
  -28.0940  -29.1350   21.1821 H   0  0  0  0  0  0
  -26.1030  -25.9955   18.9983 H   0  0  0  0  0  0
  -23.9925  -27.2965   19.0265 H   0  0  0  0  0  0
  -23.7117  -30.5973   19.4043 H   0  0  0  0  0  0
  -22.7348  -29.2379   19.8724 H   0  0  0  0  0  0
  -25.1282  -36.1992   25.0840 H   0  0  0  0  0  0
  -20.9949  -28.3230   24.1444 H   0  0  0  0  0  0
  -20.5641  -26.2273   23.3621 H   0  0  0  0  0  0
  -21.6633  -26.7433   22.1233 H   0  0  0  0  0  0
  -19.6909  -25.6299   21.1235 H   0  0  0  0  0  0
  -19.6705  -27.3205   20.6760 H   0  0  0  0  0  0
  -17.4203  -26.6699   21.3995 H   0  0  0  0  0  0
  -18.0297  -26.0063   22.8987 H   0  0  0  0  0  0
  -19.7925  -30.7244   24.2306 H   0  0  0  0  0  0
  -17.5007  -31.6265   24.5166 H   0  0  0  0  0  0
  -15.5341  -30.2996   23.7639 H   0  0  0  0  0  0
  -15.8658  -28.0838   22.7032 H   0  0  0  0  0  0
  -24.5929  -30.7036   25.7845 H   0  0  0  0  0  0
  -24.8917  -32.2866   26.4926 H   0  0  0  0  0  0
  -25.8111  -30.8910   27.0251 H   0  0  0  0  0  0
  -26.2807  -29.6815   24.1157 H   0  0  0  0  0  0
  -27.4063  -29.7276   25.4534 H   0  0  0  0  0  0
  -27.8642  -30.4361   23.9216 H   0  0  0  0  0  0
  -27.2694  -33.3601   26.2095 H   0  0  0  0  0  0
  -28.3831  -32.6906   25.0263 H   0  0  0  0  0  0
  -28.0773  -31.8415   26.5334 H   0  0  0  0  0  0
  -28.2612  -38.0098   24.7499 H   0  0  0  0  0  0
  -28.1073  -36.2637   24.6277 H   0  0  0  0  0  0
  -27.2320  -37.1453   25.8864 H   0  0  0  0  0  0
  -20.9281  -29.8745   21.6957 H   0  0  0  0  0  0
  -26.0193  -38.2883   24.1414 H   0  0  0  0  0  0
  -31.4876  -23.1809   21.4293 H   0  0  0  0  0  0
  -27.3661  -21.9892   20.8581 H   0  0  0  0  0  0
  -33.0153  -20.9491   22.2445 H   0  0  0  0  0  0
  -33.0557  -20.8419   20.4785 H   0  0  0  0  0  0
  -32.5591  -18.7212   22.4673 H   0  0  0  0  0  0
  -33.0187  -18.4924   20.7966 H   0  0  0  0  0  0
  -30.7709  -18.2815   20.1145 H   0  0  0  0  0  0
  -26.8961  -19.7277   20.1384 H   0  0  0  0  0  0
  -27.3734  -18.8884   21.6122 H   0  0  0  0  0  0
  -28.1498  -18.4988   20.0649 H   0  0  0  0  0  0
  -29.2032  -17.4374   21.8985 H   0  0  0  0  0  0
  -30.2254  -18.1207   23.1141 H   0  0  0  0  0  0
  -31.1850  -16.0986   23.3019 H   0  0  0  0  0  0
  -32.0377  -16.4160   21.8324 H   0  0  0  0  0  0
  -29.7553  -27.2998   21.4368 H   0  0  0  0  0  0
  -28.3524  -26.4880   22.1189 H   0  0  0  0  0  0
  -30.4233  -25.0634   22.1141 H   0  0  0  0  0  0
  -30.4463  -25.1100   20.3502 H   0  0  0  0  0  0
  -29.4923  -14.8550   22.1476 H   0  0  0  0  0  0
  1 25  1  0  0  0
  1 30  2  0  0  0
  1 85  1  0  0  0
  2  3  1  0  0  0
  2 25  1  0  0  0
  2 87  1  0  0  0
  2 88  1  0  0  0
  3  4  1  0  0  0
  3 89  1  0  0  0
  3 90  1  0  0  0
  4  5  1  0  0  0
  4 91  1  0  0  0
  4 92  1  0  0  0
  5  6  1  0  0  0
  5 26  1  0  0  0
  5 93  1  0  0  0
  6 25  1  0  0  0
  6 94  1  0  0  0
  6 95  1  0  0  0
  7  8  2  0  0  0
  7 26  1  0  0  0
  7 29  1  0  0  0
  8  9  1  0  0  0
  8 22  1  0  0  0
  9 10  1  0  0  0
  9 27  2  0  0  0
 10 11  2  0  0  0
 10 15  1  0  0  0
 11 12  1  0  0  0
 11 96  1  0  0  0
 12 13  2  0  0  0
 12 97  1  0  0  0
 13 14  1  0  0  0
 13 31  1  0  0  0
 14 15  2  0  0  0
 14 98  1  0  0  0
 15 99  1  0  0  0
 16 17  2  0  0  0
 16 21  1  0  0  0
 16 31  1  0  0  0
 17 18  1  0  0  0
 17100  1  0  0  0
 18 19  2  0  0  0
 18101  1  0  0  0
 19 20  1  0  0  0
 19 24  1  0  0  0
 20 21  2  0  0  0
 20102  1  0  0  0
 21 23  1  0  0  0
 22 28  1  0  0  0
 22 32  2  0  0  0
 26 27  1  0  0  0
 28103  1  0  0  0
 28104  1  0  0  0
 29105  1  0  0  0
 29106  1  0  0  0
 33 34  1  0  0  0
 33 66  1  0  0  0
 33 70  2  0  0  0
 34 36  1  0  0  0
 34 59  1  0  0  0
 34107  1  0  0  0
 35 44  2  0  0  0
 35 45  1  0  0  0
 35 68  1  0  0  0
 36 56  1  0  0  0
 36108  1  0  0  0
 37 39  1  0  0  0
 37 47  1  0  0  0
 37 66  1  0  0  0
 37109  1  0  0  0
 38 43  2  0  0  0
 38 46  1  0  0  0
 38 47  1  0  0  0
 39 64  1  0  0  0
 39 67  2  0  0  0
 40 52  1  0  0  0
 40 53  2  0  0  0
 40 58  1  0  0  0
 41110  1  0  0  0
 41111  1  0  0  0
 41112  1  0  0  0
 41 48  1  0  0  0
 42 43  1  0  0  0
 42 66  1  0  0  0
 42113  1  0  0  0
 42114  1  0  0  0
 43 44  1  0  0  0
 44115  1  0  0  0
 45 46  2  0  0  0
 45116  1  0  0  0
 46117  1  0  0  0
 47118  1  0  0  0
 47119  1  0  0  0
 48 56  1  0  0  0
 48 65  1  0  0  0
 48120  1  0  0  0
 49 50  1  0  0  0
 49 53  1  0  0  0
 49 64  1  0  0  0
 49121  1  0  0  0
 50 51  1  0  0  0
 50122  1  0  0  0
 50123  1  0  0  0
 51 52  1  0  0  0
 51124  1  0  0  0
 51125  1  0  0  0
 52126  1  0  0  0
 52127  1  0  0  0
 53 54  1  0  0  0
 54 55  2  0  0  0
 54128  1  0  0  0
 55 57  1  0  0  0
 55129  1  0  0  0
 56 69  2  0  0  0
 57 58  2  0  0  0
 57130  1  0  0  0
 58131  1  0  0  0
 59 60  1  0  0  0
 59 61  1  0  0  0
 59 62  1  0  0  0
 60132  1  0  0  0
 60133  1  0  0  0
 60134  1  0  0  0
 61135  1  0  0  0
 61136  1  0  0  0
 61137  1  0  0  0
 62138  1  0  0  0
 62139  1  0  0  0
 62140  1  0  0  0
 63 65  1  0  0  0
 63141  1  0  0  0
 63142  1  0  0  0
 63143  1  0  0  0
 64144  1  0  0  0
 65145  1  0  0  0
 68 83  1  0  0  0
 71 73  2  0  0  0
 71 76  1  0  0  0
 71146  1  0  0  0
 72 75  1  0  0  0
 72 76  2  0  0  0
 72147  1  0  0  0
 73 74  1  0  0  0
 73 77  1  0  0  0
 74 75  2  0  0  0
 74 79  1  0  0  0
 75 80  1  0  0  0
 76 86  1  0  0  0
 77 78  1  0  0  0
 77148  1  0  0  0
 77149  1  0  0  0
 78 79  1  0  0  0
 78150  1  0  0  0
 78151  1  0  0  0
 79 81  1  0  0  0
 79152  1  0  0  0
 80153  1  0  0  0
 80154  1  0  0  0
 80155  1  0  0  0
 81 82  1  0  0  0
 81156  1  0  0  0
 81157  1  0  0  0
 82 85  1  0  0  0
 82158  1  0  0  0
 82159  1  0  0  0
 83 84  1  0  0  0
 83160  1  0  0  0
 83161  1  0  0  0
 84 86  1  0  0  0
 84162  1  0  0  0
 84163  1  0  0  0
 85164  1  0  0  0
M  ISO  4   1 100  68 101  83 101  85 100
M  END
> <chiral flag>
0

> <version>
0

> <s_m_source_file>
/data/baiqing/PycharmProjects/Reinvent-master-3.2/result/LINK_invent/BTK/process_docking_weight1_custom_sum_contain_oxygen_bond_distance_aromatic_linkinvent_7_9_3/rearranged_h_0140.sdf

> <i_m_source_file_index>
24

> <r_mmod_Potential_Energy-OPLS-2005>
-25.8234844207764

> <r_mmod_Stretch_Energy-OPLS-2005>
35.5598793029785

> <r_mmod_Bend_Energy-OPLS-2005>
134.75927734375

> <r_mmod_Torsional_Energy-OPLS-2005>
238.038452148438

> <r_mmod_Improper_Torsional_Energy-OPLS-2005>
2.05647253990173

> <r_mmod_Van_der_Waal_Energy-OPLS-2005>
151.749237060547

> <r_mmod_Electrostatic_Energy-OPLS-2005>
-377.886444091797

> <r_mmod_Solvation_Energy-OPLS-2005>
-216.852249145508

> <b_mmod_Minimization_Converged-OPLS-2005>
0

> <r_mmod_RMS_Derivative-OPLS-2005>
1.05444860458374

$$$$
24
                    3D
 Structure written by MMmdl.
163172  0  0  1  0            999 V2000
  -30.7982  -14.3661   20.6006 C   0  0  0  0  0  0
  -30.4083  -12.2675   19.3744 C   0  0  0  0  0  0
  -29.4698  -12.4958   18.1764 C   0  0  0  0  0  0
  -27.9976  -12.3493   18.6049 C   0  0  0  0  0  0
  -27.6547  -13.1853   19.8641 C   0  0  2  0  0  0
  -28.7125  -12.9797   20.9741 C   0  0  0  0  0  0
  -25.2594  -13.8107   20.5700 C   0  0  0  0  0  0
  -24.1824  -13.0423   20.9179 C   0  0  0  0  0  0
  -24.6336  -11.6889   20.8757 C   0  0  0  0  0  0
  -23.8999  -10.4291   21.0424 C   0  0  0  0  0  0
  -24.3571   -9.4216   21.9198 C   0  0  0  0  0  0
  -23.6270   -8.2239   22.0757 C   0  0  0  0  0  0
  -22.4249   -8.0273   21.3547 C   0  0  0  0  0  0
  -21.9877   -9.0233   20.4639 C   0  0  0  0  0  0
  -22.7175  -10.2129   20.3066 C   0  0  0  0  0  0
  -21.6846   -6.0736   22.5284 C   0  0  0  0  0  0
  -21.3999   -6.5641   23.8213 C   0  0  0  0  0  0
  -21.3659   -5.6793   24.9178 C   0  0  0  0  0  0
  -21.6038   -4.3057   24.7225 C   0  0  0  0  0  0
  -21.8819   -3.8147   23.4348 C   0  0  0  0  0  0
  -21.9185   -4.6968   22.3403 C   0  0  0  0  0  0
  -22.7843  -13.5259   21.1828 C   0  0  0  0  0  0
  -22.1664   -4.2161   21.0977 F   0  0  0  0  0  0
  -21.5635   -3.4531   25.7733 F   0  0  0  0  0  0
  -30.0465  -13.2482   20.4033 N   0  0  0  0  0  0
  -26.3001  -12.9220   20.3383 N   0  0  0  0  0  0
  -25.9258  -11.6410   20.5790 N   0  0  0  0  0  0
  -22.0443  -12.8294   22.0389 N   0  0  0  0  0  0
  -25.4313  -15.1820   20.4095 N   0  0  0  0  0  0
  -31.9329  -14.5222   20.1414 O   0  0  0  0  0  0
  -21.6624   -6.8873   21.4243 O   0  0  0  0  0  0
  -22.3573  -14.5564   20.6662 O   0  0  0  0  0  0
  -24.6087  -31.8716   23.2165 C   0  0  0  0  0  0
  -25.9018  -32.4842   23.8423 C   0  0  1  0  0  0
  -27.2298  -27.4813   20.0689 C   0  0  0  0  0  0
  -25.5878  -33.8639   24.2342 N   0  0  0  0  0  0
  -23.3956  -30.4962   21.5539 C   0  0  2  0  0  0
  -24.8444  -28.9771   20.1083 C   0  0  0  0  0  0
  -22.7371  -29.4669   22.4992 C   0  0  0  0  0  0
  -18.0272  -28.1383   22.8471 C   0  0  0  0  0  0
  -24.1493  -36.7323   23.2632 C   0  0  0  0  0  0
  -25.9191  -30.8477   21.3687 C   0  0  0  0  0  0
  -26.0002  -29.4857   20.7138 C   0  0  0  0  0  0
  -27.1963  -28.7384   20.7090 C   0  0  0  0  0  0
  -26.0719  -27.0015   19.4218 C   0  0  0  0  0  0
  -24.8707  -27.7290   19.4654 C   0  0  0  0  0  0
  -23.6037  -29.8361   20.1657 C   0  0  0  0  0  0
  -25.4113  -36.3116   24.0339 C   0  0  1  0  0  0
  -20.5856  -28.3667   23.1319 C   0  0  2  0  0  0
  -20.6749  -26.9401   22.5421 C   0  0  0  0  0  0
  -19.5741  -26.6452   21.5212 C   0  0  0  0  0  0
  -18.1919  -26.7937   22.1641 C   0  0  0  0  0  0
  -19.1520  -28.8842   23.2889 C   0  0  0  0  0  0
  -18.9427  -30.1445   23.8914 C   0  0  0  0  0  0
  -17.6430  -30.6567   24.0573 C   0  0  0  0  0  0
  -25.9022  -34.9476   23.5122 C   0  0  0  0  0  0
  -16.5338  -29.9061   23.6303 C   0  0  0  0  0  0
  -16.7251  -28.6498   23.0297 C   0  0  0  0  0  0
  -26.4478  -31.6605   25.0729 C   0  0  0  0  0  0
  -25.3769  -31.3667   26.1481 C   0  0  0  0  0  0
  -27.0287  -30.3053   24.6070 C   0  0  0  0  0  0
  -27.6053  -32.4312   25.7491 C   0  0  0  0  0  0
  -27.5581  -37.1824   24.8464 C   0  0  0  0  0  0
  -21.4110  -29.2997   22.3685 N   0  0  0  0  0  0
  -26.4302  -37.3801   23.9392 N   0  0  0  0  0  0
  -24.6577  -31.0861   22.1046 N   0  0  0  0  0  0
  -23.4149  -28.8246   23.3060 O   0  0  0  0  0  0
  -28.3681  -26.7163   20.0794 O   0  0  0  0  0  0
  -26.5584  -34.8897   22.4690 O   0  0  0  0  0  0
  -23.5302  -32.1456   23.7592 O   0  0  0  0  0  0
  -27.7789  -18.2894   19.5247 C   0  0  0  0  0  0
  -28.9628  -17.3795   21.4212 C   0  0  0  0  0  0
  -28.1467  -18.3827   20.8850 C   0  0  0  0  0  0
  -28.2732  -17.2136   18.7695 C   0  0  0  0  0  0
  -29.3925  -16.3198   20.6125 C   0  0  0  0  0  0
  -28.2651  -22.5286   21.9116 C   0  0  0  0  0  0
  -26.1955  -22.7831   22.0785 C   0  0  0  0  0  0
  -27.1097  -21.5816   22.2359 C   0  0  1  0  0  0
  -27.9565  -17.0775   17.2943 C   0  0  0  0  0  0
  -26.8853  -20.3837   21.3325 C   0  0  0  0  0  0
  -27.3418  -24.6729   21.0204 C   0  0  0  0  0  0
  -28.4164  -25.7704   21.1578 C   0  0  0  0  0  0
  -29.0586  -16.2599   19.3024 N   0  0  0  0  0  0
  -30.2136  -15.3686   21.2511 N   0  0  0  0  0  0
  -27.3629  -23.6636   22.1016 N   0  3  2  0  0  0
  -27.8028  -19.3921   21.7514 O   0  0  0  0  0  0
  -31.4476  -12.3514   19.0511 H   0  0  0  0  0  0
  -30.2992  -11.2552   19.7653 H   0  0  0  0  0  0
  -29.6953  -11.7922   17.3739 H   0  0  0  0  0  0
  -29.6333  -13.4929   17.7624 H   0  0  0  0  0  0
  -27.8107  -11.2937   18.8021 H   0  0  0  0  0  0
  -27.3378  -12.6269   17.7819 H   0  0  0  0  0  0
  -27.6717  -14.2226   19.5527 H   0  0  0  0  0  0
  -28.6777  -11.9544   21.3480 H   0  0  0  0  0  0
  -28.4895  -13.6185   21.8296 H   0  0  0  0  0  0
  -25.2719   -9.5718   22.4774 H   0  0  0  0  0  0
  -23.9983   -7.4644   22.7489 H   0  0  0  0  0  0
  -21.0810   -8.8737   19.8947 H   0  0  0  0  0  0
  -22.3625  -10.9668   19.6186 H   0  0  0  0  0  0
  -21.1994   -7.6143   23.9724 H   0  0  0  0  0  0
  -21.1475   -6.0517   25.9081 H   0  0  0  0  0  0
  -22.0596   -2.7608   23.2833 H   0  0  0  0  0  0
  -22.4029  -11.9995   22.4873 H   0  0  0  0  0  0
  -21.1041  -13.1345   22.2492 H   0  0  0  0  0  0
  -24.6600  -15.8320   20.5134 H   0  0  0  0  0  0
  -26.2943  -15.6231   20.1187 H   0  0  0  0  0  0
  -26.7091  -32.5589   23.1189 H   0  0  0  0  0  0
  -25.0073  -33.9835   25.0509 H   0  0  0  0  0  0
  -22.6842  -31.3143   21.4189 H   0  0  0  0  0  0
  -23.3737  -35.9674   23.3320 H   0  0  0  0  0  0
  -24.3583  -36.8924   22.2040 H   0  0  0  0  0  0
  -23.7271  -37.6548   23.6636 H   0  0  0  0  0  0
  -26.0239  -31.6146   20.6021 H   0  0  0  0  0  0
  -26.8093  -30.8985   21.9838 H   0  0  0  0  0  0
  -28.0860  -29.1199   21.1895 H   0  0  0  0  0  0
  -26.0891  -26.0561   18.8995 H   0  0  0  0  0  0
  -23.9840  -27.3379   18.9882 H   0  0  0  0  0  0
  -23.7085  -30.6142   19.4078 H   0  0  0  0  0  0
  -22.7294  -29.2542   19.8707 H   0  0  0  0  0  0
  -25.1293  -36.1989   25.0842 H   0  0  0  0  0  0
  -20.9966  -28.3270   24.1444 H   0  0  0  0  0  0
  -20.5649  -26.2251   23.3588 H   0  0  0  0  0  0
  -21.6610  -26.7467   22.1167 H   0  0  0  0  0  0
  -19.6914  -25.6375   21.1219 H   0  0  0  0  0  0
  -19.6731  -27.3326   20.6818 H   0  0  0  0  0  0
  -17.4199  -26.6654   21.4055 H   0  0  0  0  0  0
  -18.0342  -26.0080   22.9046 H   0  0  0  0  0  0
  -19.7909  -30.7210   24.2304 H   0  0  0  0  0  0
  -17.4971  -31.6225   24.5212 H   0  0  0  0  0  0
  -15.5331  -30.2955   23.7606 H   0  0  0  0  0  0
  -15.8641  -28.0836   22.6966 H   0  0  0  0  0  0
  -24.5965  -30.6998   25.7804 H   0  0  0  0  0  0
  -24.8936  -32.2797   26.4962 H   0  0  0  0  0  0
  -25.8149  -30.8816   27.0215 H   0  0  0  0  0  0
  -26.2801  -29.6832   24.1159 H   0  0  0  0  0  0
  -27.4091  -29.7280   25.4508 H   0  0  0  0  0  0
  -27.8625  -30.4361   23.9171 H   0  0  0  0  0  0
  -27.2685  -33.3601   26.2105 H   0  0  0  0  0  0
  -28.3854  -32.6911   25.0318 H   0  0  0  0  0  0
  -28.0740  -31.8422   26.5392 H   0  0  0  0  0  0
  -28.2609  -38.0110   24.7499 H   0  0  0  0  0  0
  -28.1070  -36.2644   24.6311 H   0  0  0  0  0  0
  -27.2291  -37.1498   25.8867 H   0  0  0  0  0  0
  -20.9265  -29.8617   21.6832 H   0  0  0  0  0  0
  -26.0188  -38.2878   24.1411 H   0  0  0  0  0  0
  -27.1523  -19.0163   19.0295 H   0  0  0  0  0  0
  -29.2560  -17.4337   22.4600 H   0  0  0  0  0  0
  -28.6370  -22.4155   20.8917 H   0  0  0  0  0  0
  -29.0804  -22.4944   22.6322 H   0  0  0  0  0  0
  -25.5117  -22.9415   22.9131 H   0  0  0  0  0  0
  -25.6694  -22.7792   21.1212 H   0  0  0  0  0  0
  -27.1420  -21.2970   23.2903 H   0  0  0  0  0  0
  -28.5885  -16.3213   16.8245 H   0  0  0  0  0  0
  -28.1226  -18.0242   16.7780 H   0  0  0  0  0  0
  -26.9166  -16.7894   17.1474 H   0  0  0  0  0  0
  -25.8660  -20.0083   21.4172 H   0  0  0  0  0  0
  -27.0310  -20.6913   20.2969 H   0  0  0  0  0  0
  -27.4215  -24.1926   20.0434 H   0  0  0  0  0  0
  -26.3506  -25.1186   21.0784 H   0  0  0  0  0  0
  -29.4062  -25.3137   21.1548 H   0  0  0  0  0  0
  -28.3103  -26.2934   22.1092 H   0  0  0  0  0  0
  -30.8240  -15.7988   21.9266 H   0  0  0  0  0  0
  -27.4612  -24.0699   23.0224 H   0  0  0  0  0  0
  1 25  1  0  0  0
  1 30  2  0  0  0
  1 84  1  0  0  0
  2  3  1  0  0  0
  2 25  1  0  0  0
  2 87  1  0  0  0
  2 88  1  0  0  0
  3  4  1  0  0  0
  3 89  1  0  0  0
  3 90  1  0  0  0
  4  5  1  0  0  0
  4 91  1  0  0  0
  4 92  1  0  0  0
  5  6  1  0  0  0
  5 26  1  0  0  0
  5 93  1  0  0  0
  6 25  1  0  0  0
  6 94  1  0  0  0
  6 95  1  0  0  0
  7  8  2  0  0  0
  7 26  1  0  0  0
  7 29  1  0  0  0
  8  9  1  0  0  0
  8 22  1  0  0  0
  9 10  1  0  0  0
  9 27  2  0  0  0
 10 11  2  0  0  0
 10 15  1  0  0  0
 11 12  1  0  0  0
 11 96  1  0  0  0
 12 13  2  0  0  0
 12 97  1  0  0  0
 13 14  1  0  0  0
 13 31  1  0  0  0
 14 15  2  0  0  0
 14 98  1  0  0  0
 15 99  1  0  0  0
 16 17  2  0  0  0
 16 21  1  0  0  0
 16 31  1  0  0  0
 17 18  1  0  0  0
 17100  1  0  0  0
 18 19  2  0  0  0
 18101  1  0  0  0
 19 20  1  0  0  0
 19 24  1  0  0  0
 20 21  2  0  0  0
 20102  1  0  0  0
 21 23  1  0  0  0
 22 28  1  0  0  0
 22 32  2  0  0  0
 26 27  1  0  0  0
 28103  1  0  0  0
 28104  1  0  0  0
 29105  1  0  0  0
 29106  1  0  0  0
 33 34  1  0  0  0
 33 66  1  0  0  0
 33 70  2  0  0  0
 34 36  1  0  0  0
 34 59  1  0  0  0
 34107  1  0  0  0
 35 44  2  0  0  0
 35 45  1  0  0  0
 35 68  1  0  0  0
 36 56  1  0  0  0
 36108  1  0  0  0
 37 39  1  0  0  0
 37 47  1  0  0  0
 37 66  1  0  0  0
 37109  1  0  0  0
 38 43  2  0  0  0
 38 46  1  0  0  0
 38 47  1  0  0  0
 39 64  1  0  0  0
 39 67  2  0  0  0
 40 52  1  0  0  0
 40 53  2  0  0  0
 40 58  1  0  0  0
 41110  1  0  0  0
 41111  1  0  0  0
 41112  1  0  0  0
 41 48  1  0  0  0
 42 43  1  0  0  0
 42 66  1  0  0  0
 42113  1  0  0  0
 42114  1  0  0  0
 43 44  1  0  0  0
 44115  1  0  0  0
 45 46  2  0  0  0
 45116  1  0  0  0
 46117  1  0  0  0
 47118  1  0  0  0
 47119  1  0  0  0
 48 56  1  0  0  0
 48 65  1  0  0  0
 48120  1  0  0  0
 49 50  1  0  0  0
 49 53  1  0  0  0
 49 64  1  0  0  0
 49121  1  0  0  0
 50 51  1  0  0  0
 50122  1  0  0  0
 50123  1  0  0  0
 51 52  1  0  0  0
 51124  1  0  0  0
 51125  1  0  0  0
 52126  1  0  0  0
 52127  1  0  0  0
 53 54  1  0  0  0
 54 55  2  0  0  0
 54128  1  0  0  0
 55 57  1  0  0  0
 55129  1  0  0  0
 56 69  2  0  0  0
 57 58  2  0  0  0
 57130  1  0  0  0
 58131  1  0  0  0
 59 60  1  0  0  0
 59 61  1  0  0  0
 59 62  1  0  0  0
 60132  1  0  0  0
 60133  1  0  0  0
 60134  1  0  0  0
 61135  1  0  0  0
 61136  1  0  0  0
 61137  1  0  0  0
 62138  1  0  0  0
 62139  1  0  0  0
 62140  1  0  0  0
 63 65  1  0  0  0
 63141  1  0  0  0
 63142  1  0  0  0
 63143  1  0  0  0
 64144  1  0  0  0
 65145  1  0  0  0
 68 82  1  0  0  0
 71 73  2  0  0  0
 71 74  1  0  0  0
 71146  1  0  0  0
 72 73  1  0  0  0
 72 75  2  0  0  0
 72147  1  0  0  0
 73 86  1  0  0  0
 74 79  1  0  0  0
 74 83  2  0  0  0
 75 83  1  0  0  0
 75 84  1  0  0  0
 76 78  1  0  0  0
 76 85  1  0  0  0
 76148  1  0  0  0
 76149  1  0  0  0
 77 78  1  0  0  0
 77 85  1  0  0  0
 77150  1  0  0  0
 77151  1  0  0  0
 78 80  1  0  0  0
 78152  1  0  0  0
 79153  1  0  0  0
 79154  1  0  0  0
 79155  1  0  0  0
 80 86  1  0  0  0
 80156  1  0  0  0
 80157  1  0  0  0
 81 82  1  0  0  0
 81158  1  0  0  0
 81159  1  0  0  0
 81 85  1  0  0  0
 82160  1  0  0  0
 82161  1  0  0  0
 84162  1  0  0  0
 85163  1  0  0  0
M  CHG  1  85   1
M  ISO  4   1 100  68 101  82 101  84 100
M  END
> <chiral flag>
0

> <version>
0

> <s_m_source_file>
/data/baiqing/PycharmProjects/Reinvent-master-3.2/result/LINK_invent/BTK/process_docking_weight1_custom_sum_contain_oxygen_bond_distance_aromatic_linkinvent_7_9_3/rearranged_h_0140.sdf

> <i_m_source_file_index>
25

> <r_mmod_Potential_Energy-OPLS-2005>
-297.53662109375

> <r_mmod_Stretch_Energy-OPLS-2005>
30.6993503570557

> <r_mmod_Bend_Energy-OPLS-2005>
115.012222290039

> <r_mmod_Torsional_Energy-OPLS-2005>
299.89111328125

> <r_mmod_Improper_Torsional_Energy-OPLS-2005>
5.84440231323242

> <r_mmod_Van_der_Waal_Energy-OPLS-2005>
159.895584106445

> <r_mmod_Electrostatic_Energy-OPLS-2005>
-471.470642089844

> <r_mmod_Solvation_Energy-OPLS-2005>
-452.24462890625

> <b_mmod_Minimization_Converged-OPLS-2005>
0

> <r_mmod_RMS_Derivative-OPLS-2005>
3.800461769104

$$$$
25
                    3D
 Structure written by MMmdl.
170180  0  0  1  0            999 V2000
  -30.6932  -14.4334   20.6880 C   0  0  0  0  0  0
  -30.4467  -12.3348   19.3832 C   0  0  0  0  0  0
  -29.4975  -12.5586   18.1873 C   0  0  0  0  0  0
  -28.0192  -12.4004   18.6011 C   0  0  0  0  0  0
  -27.6746  -13.2003   19.8831 C   0  0  2  0  0  0
  -28.7162  -12.8972   20.9813 C   0  0  0  0  0  0
  -25.2640  -13.8131   20.5678 C   0  0  0  0  0  0
  -24.1862  -13.0418   20.9141 C   0  0  0  0  0  0
  -24.6403  -11.6880   20.8691 C   0  0  0  0  0  0
  -23.9051  -10.4267   21.0379 C   0  0  0  0  0  0
  -24.3596   -9.4195   21.9172 C   0  0  0  0  0  0
  -23.6265   -8.2241   22.0758 C   0  0  0  0  0  0
  -22.4251   -8.0268   21.3550 C   0  0  0  0  0  0
  -21.9879   -9.0245   20.4658 C   0  0  0  0  0  0
  -22.7212  -10.2112   20.3049 C   0  0  0  0  0  0
  -21.6851   -6.0726   22.5273 C   0  0  0  0  0  0
  -21.4018   -6.5626   23.8208 C   0  0  0  0  0  0
  -21.3662   -5.6774   24.9170 C   0  0  0  0  0  0
  -21.6039   -4.3039   24.7215 C   0  0  0  0  0  0
  -21.8819   -3.8136   23.4340 C   0  0  0  0  0  0
  -21.9191   -4.6956   22.3396 C   0  0  0  0  0  0
  -22.7885  -13.5241   21.1799 C   0  0  0  0  0  0
  -22.1659   -4.2145   21.0978 F   0  0  0  0  0  0
  -21.5630   -3.4528   25.7736 F   0  0  0  0  0  0
  -30.0581  -13.2482   20.4689 N   0  0  0  0  0  0
  -26.3091  -12.9298   20.3372 N   0  0  0  0  0  0
  -25.9331  -11.6455   20.5704 N   0  0  0  0  0  0
  -22.0498  -12.8279   22.0371 N   0  0  0  0  0  0
  -25.4363  -15.1851   20.4143 N   0  0  0  0  0  0
  -31.6836  -14.8035   20.0469 O   0  0  0  0  0  0
  -21.6624   -6.8869   21.4241 O   0  0  0  0  0  0
  -22.3581  -14.5549   20.6640 O   0  0  0  0  0  0
  -24.6148  -31.8670   23.2099 C   0  0  0  0  0  0
  -25.9034  -32.4830   23.8383 C   0  0  1  0  0  0
  -27.2388  -27.4195   20.0850 C   0  0  0  0  0  0
  -25.5897  -33.8628   24.2316 N   0  0  0  0  0  0
  -23.4034  -30.4900   21.5518 C   0  0  2  0  0  0
  -24.8486  -28.9530   20.1181 C   0  0  0  0  0  0
  -22.7407  -29.4652   22.5005 C   0  0  0  0  0  0
  -18.0274  -28.1392   22.8483 C   0  0  0  0  0  0
  -24.1487  -36.7305   23.2632 C   0  0  0  0  0  0
  -25.9331  -30.8271   21.3647 C   0  0  0  0  0  0
  -26.0103  -29.4594   20.7117 C   0  0  0  0  0  0
  -27.2059  -28.7006   20.6909 C   0  0  0  0  0  0
  -26.0519  -26.9329   19.4874 C   0  0  0  0  0  0
  -24.8652  -27.6902   19.5038 C   0  0  0  0  0  0
  -23.6107  -29.8202   20.1672 C   0  0  0  0  0  0
  -25.4114  -36.3119   24.0327 C   0  0  1  0  0  0
  -20.5857  -28.3678   23.1333 C   0  0  2  0  0  0
  -20.6774  -26.9420   22.5424 C   0  0  0  0  0  0
  -19.5758  -26.6398   21.5212 C   0  0  0  0  0  0
  -18.1928  -26.7940   22.1610 C   0  0  0  0  0  0
  -19.1517  -28.8848   23.2908 C   0  0  0  0  0  0
  -18.9447  -30.1454   23.8920 C   0  0  0  0  0  0
  -17.6455  -30.6604   24.0562 C   0  0  0  0  0  0
  -25.9040  -34.9482   23.5117 C   0  0  0  0  0  0
  -16.5343  -29.9105   23.6334 C   0  0  0  0  0  0
  -16.7263  -28.6520   23.0351 C   0  0  0  0  0  0
  -26.4470  -31.6614   25.0709 C   0  0  0  0  0  0
  -25.3736  -31.3712   26.1456 C   0  0  0  0  0  0
  -27.0283  -30.3059   24.6070 C   0  0  0  0  0  0
  -27.6066  -32.4319   25.7457 C   0  0  0  0  0  0
  -27.5587  -37.1807   24.8461 C   0  0  0  0  0  0
  -21.4135  -29.3039   22.3740 N   0  0  0  0  0  0
  -26.4300  -37.3803   23.9406 N   0  0  0  0  0  0
  -24.6691  -31.0747   22.1013 N   0  0  0  0  0  0
  -23.4178  -28.8191   23.3045 O   0  0  0  0  0  0
  -28.4218  -26.6947   20.0877 O   0  0  0  0  0  0
  -26.5600  -34.8937   22.4684 O   0  0  0  0  0  0
  -23.5339  -32.1414   23.7499 O   0  0  0  0  0  0
  -28.6167  -18.9659   22.4382 C   0  0  0  0  0  0
  -28.1980  -17.8527   23.1768 C   0  0  0  0  0  0
  -30.1778  -17.5622   21.1919 C   0  0  0  0  0  0
  -29.6125  -18.8480   21.4466 C   0  0  0  0  0  0
  -28.7607  -16.5848   22.9469 C   0  0  0  0  0  0
  -29.7471  -16.4221   21.9360 C   0  0  0  0  0  0
  -28.1106  -15.5344   25.2792 C   0  0  0  0  0  0
  -29.1870  -14.6595   24.6873 C   0  0  0  0  0  0
  -28.8591  -20.7902   19.9482 C   0  0  0  0  0  0
  -30.6621  -21.1543   21.6995 C   0  0  0  0  0  0
  -29.1422  -22.2255   19.4366 C   0  0  0  0  0  0
  -30.8730  -22.5655   21.1042 C   0  0  0  0  0  0
  -30.0448  -20.1323   20.7091 C   0  0  1  0  0  0
  -28.2583  -15.4341   23.7777 C   0  0  0  0  0  0
  -29.7081  -24.5723   20.1955 C   0  0  0  0  0  0
  -28.3528  -25.2673   19.8860 C   0  0  0  0  0  0
  -30.2378  -15.0870   21.7708 N   0  0  0  0  0  0
  -29.6106  -23.1125   20.5377 N   0  3  1  0  0  0
  -31.4855  -12.4806   19.0791 H   0  0  0  0  0  0
  -30.3845  -11.3020   19.7291 H   0  0  0  0  0  0
  -29.7359  -11.8638   17.3818 H   0  0  0  0  0  0
  -29.6569  -13.5592   17.7803 H   0  0  0  0  0  0
  -27.8244  -11.3391   18.7612 H   0  0  0  0  0  0
  -27.3695  -12.7085   17.7828 H   0  0  0  0  0  0
  -27.7415  -14.2605   19.6363 H   0  0  0  0  0  0
  -28.6969  -11.8330   21.2236 H   0  0  0  0  0  0
  -28.4497  -13.3929   21.9087 H   0  0  0  0  0  0
  -25.2750   -9.5671   22.4726 H   0  0  0  0  0  0
  -23.9981   -7.4638   22.7472 H   0  0  0  0  0  0
  -21.0811   -8.8758   19.8970 H   0  0  0  0  0  0
  -22.3681  -10.9638   19.6139 H   0  0  0  0  0  0
  -21.2016   -7.6128   23.9715 H   0  0  0  0  0  0
  -21.1486   -6.0499   25.9068 H   0  0  0  0  0  0
  -22.0599   -2.7603   23.2833 H   0  0  0  0  0  0
  -22.4103  -11.9958   22.4804 H   0  0  0  0  0  0
  -21.1122  -13.1346   22.2557 H   0  0  0  0  0  0
  -24.6746  -15.8420   20.5379 H   0  0  0  0  0  0
  -26.3037  -15.6293   20.1391 H   0  0  0  0  0  0
  -26.7098  -32.5540   23.1139 H   0  0  0  0  0  0
  -25.0066  -33.9799   25.0476 H   0  0  0  0  0  0
  -22.6917  -31.3067   21.4143 H   0  0  0  0  0  0
  -23.3755  -35.9634   23.3309 H   0  0  0  0  0  0
  -24.3568  -36.8910   22.2042 H   0  0  0  0  0  0
  -23.7242  -37.6511   23.6644 H   0  0  0  0  0  0
  -26.0401  -31.5909   20.5932 H   0  0  0  0  0  0
  -26.8240  -30.8863   21.9783 H   0  0  0  0  0  0
  -28.1043  -29.0892   21.1492 H   0  0  0  0  0  0
  -26.0176  -25.9747   18.9911 H   0  0  0  0  0  0
  -23.9709  -27.2955   19.0418 H   0  0  0  0  0  0
  -23.7186  -30.5923   19.4046 H   0  0  0  0  0  0
  -22.7339  -29.2389   19.8759 H   0  0  0  0  0  0
  -25.1300  -36.1971   25.0819 H   0  0  0  0  0  0
  -20.9946  -28.3249   24.1453 H   0  0  0  0  0  0
  -20.5705  -26.2275   23.3601 H   0  0  0  0  0  0
  -21.6654  -26.7500   22.1205 H   0  0  0  0  0  0
  -19.6932  -25.6310   21.1243 H   0  0  0  0  0  0
  -19.6713  -27.3211   20.6742 H   0  0  0  0  0  0
  -17.4208  -26.6687   21.4001 H   0  0  0  0  0  0
  -18.0332  -26.0088   22.9012 H   0  0  0  0  0  0
  -19.7918  -30.7258   24.2309 H   0  0  0  0  0  0
  -17.5011  -31.6290   24.5158 H   0  0  0  0  0  0
  -15.5345  -30.3021   23.7655 H   0  0  0  0  0  0
  -15.8648  -28.0850   22.7075 H   0  0  0  0  0  0
  -24.5919  -30.7055   25.7781 H   0  0  0  0  0  0
  -24.8907  -32.2862   26.4898 H   0  0  0  0  0  0
  -25.8086  -30.8875   27.0212 H   0  0  0  0  0  0
  -26.2801  -29.6833   24.1150 H   0  0  0  0  0  0
  -27.4082  -29.7295   25.4514 H   0  0  0  0  0  0
  -27.8635  -30.4373   23.9185 H   0  0  0  0  0  0
  -27.2715  -33.3622   26.2053 H   0  0  0  0  0  0
  -28.3857  -32.6870   25.0263 H   0  0  0  0  0  0
  -28.0751  -31.8421   26.5345 H   0  0  0  0  0  0
  -28.2617  -38.0095   24.7530 H   0  0  0  0  0  0
  -28.1077  -36.2633   24.6275 H   0  0  0  0  0  0
  -27.2300  -37.1449   25.8863 H   0  0  0  0  0  0
  -20.9300  -29.8715   21.6918 H   0  0  0  0  0  0
  -26.0183  -38.2876   24.1439 H   0  0  0  0  0  0
  -28.1627  -19.9228   22.6575 H   0  0  0  0  0  0
  -27.4350  -17.9793   23.9326 H   0  0  0  0  0  0
  -30.9447  -17.4576   20.4377 H   0  0  0  0  0  0
  -28.4260  -16.4524   25.7713 H   0  0  0  0  0  0
  -27.2625  -15.0262   25.7347 H   0  0  0  0  0  0
  -29.0481  -13.5821   24.7587 H   0  0  0  0  0  0
  -30.2149  -15.0066   24.7847 H   0  0  0  0  0  0
  -28.5654  -20.1520   19.1133 H   0  0  0  0  0  0
  -27.9829  -20.8484   20.5917 H   0  0  0  0  0  0
  -30.0282  -21.2654   22.5789 H   0  0  0  0  0  0
  -31.6118  -20.7679   22.0729 H   0  0  0  0  0  0
  -28.2293  -22.6244   18.9942 H   0  0  0  0  0  0
  -29.8880  -22.2031   18.6411 H   0  0  0  0  0  0
  -31.6452  -22.5418   20.3335 H   0  0  0  0  0  0
  -31.2480  -23.2238   21.8885 H   0  0  0  0  0  0
  -30.8088  -19.8694   19.9763 H   0  0  0  0  0  0
  -27.4643  -14.9020   23.2558 H   0  0  0  0  0  0
  -30.1382  -25.0839   21.0580 H   0  0  0  0  0  0
  -30.4090  -24.7257   19.3729 H   0  0  0  0  0  0
  -27.5782  -24.8551   20.5352 H   0  0  0  0  0  0
  -28.0694  -25.0489   18.8555 H   0  0  0  0  0  0
  -29.7569  -14.4411   22.3787 H   0  0  0  0  0  0
  -28.9253  -23.0499   21.2779 H   0  0  0  0  0  0
  1 25  1  0  0  0
  1 30  2  0  0  0
  1 87  1  0  0  0
  2  3  1  0  0  0
  2 25  1  0  0  0
  2 89  1  0  0  0
  2 90  1  0  0  0
  3  4  1  0  0  0
  3 91  1  0  0  0
  3 92  1  0  0  0
  4  5  1  0  0  0
  4 93  1  0  0  0
  4 94  1  0  0  0
  5  6  1  0  0  0
  5 26  1  0  0  0
  5 95  1  0  0  0
  6 25  1  0  0  0
  6 96  1  0  0  0
  6 97  1  0  0  0
  7  8  2  0  0  0
  7 26  1  0  0  0
  7 29  1  0  0  0
  8  9  1  0  0  0
  8 22  1  0  0  0
  9 10  1  0  0  0
  9 27  2  0  0  0
 10 11  2  0  0  0
 10 15  1  0  0  0
 11 12  1  0  0  0
 11 98  1  0  0  0
 12 13  2  0  0  0
 12 99  1  0  0  0
 13 14  1  0  0  0
 13 31  1  0  0  0
 14 15  2  0  0  0
 14100  1  0  0  0
 15101  1  0  0  0
 16 17  2  0  0  0
 16 21  1  0  0  0
 16 31  1  0  0  0
 17 18  1  0  0  0
 17102  1  0  0  0
 18 19  2  0  0  0
 18103  1  0  0  0
 19 20  1  0  0  0
 19 24  1  0  0  0
 20 21  2  0  0  0
 20104  1  0  0  0
 21 23  1  0  0  0
 22 28  1  0  0  0
 22 32  2  0  0  0
 26 27  1  0  0  0
 28105  1  0  0  0
 28106  1  0  0  0
 29107  1  0  0  0
 29108  1  0  0  0
 33 34  1  0  0  0
 33 66  1  0  0  0
 33 70  2  0  0  0
 34 36  1  0  0  0
 34 59  1  0  0  0
 34109  1  0  0  0
 35 44  2  0  0  0
 35 45  1  0  0  0
 35 68  1  0  0  0
 36 56  1  0  0  0
 36110  1  0  0  0
 37 39  1  0  0  0
 37 47  1  0  0  0
 37 66  1  0  0  0
 37111  1  0  0  0
 38 43  2  0  0  0
 38 46  1  0  0  0
 38 47  1  0  0  0
 39 64  1  0  0  0
 39 67  2  0  0  0
 40 52  1  0  0  0
 40 53  2  0  0  0
 40 58  1  0  0  0
 41112  1  0  0  0
 41113  1  0  0  0
 41114  1  0  0  0
 41 48  1  0  0  0
 42 43  1  0  0  0
 42 66  1  0  0  0
 42115  1  0  0  0
 42116  1  0  0  0
 43 44  1  0  0  0
 44117  1  0  0  0
 45 46  2  0  0  0
 45118  1  0  0  0
 46119  1  0  0  0
 47120  1  0  0  0
 47121  1  0  0  0
 48 56  1  0  0  0
 48 65  1  0  0  0
 48122  1  0  0  0
 49 50  1  0  0  0
 49 53  1  0  0  0
 49 64  1  0  0  0
 49123  1  0  0  0
 50 51  1  0  0  0
 50124  1  0  0  0
 50125  1  0  0  0
 51 52  1  0  0  0
 51126  1  0  0  0
 51127  1  0  0  0
 52128  1  0  0  0
 52129  1  0  0  0
 53 54  1  0  0  0
 54 55  2  0  0  0
 54130  1  0  0  0
 55 57  1  0  0  0
 55131  1  0  0  0
 56 69  2  0  0  0
 57 58  2  0  0  0
 57132  1  0  0  0
 58133  1  0  0  0
 59 60  1  0  0  0
 59 61  1  0  0  0
 59 62  1  0  0  0
 60134  1  0  0  0
 60135  1  0  0  0
 60136  1  0  0  0
 61137  1  0  0  0
 61138  1  0  0  0
 61139  1  0  0  0
 62140  1  0  0  0
 62141  1  0  0  0
 62142  1  0  0  0
 63 65  1  0  0  0
 63143  1  0  0  0
 63144  1  0  0  0
 63145  1  0  0  0
 64146  1  0  0  0
 65147  1  0  0  0
 68 86  1  0  0  0
 71 72  2  0  0  0
 71 74  1  0  0  0
 71148  1  0  0  0
 72 75  1  0  0  0
 72149  1  0  0  0
 73 74  2  0  0  0
 73 76  1  0  0  0
 73150  1  0  0  0
 74 83  1  0  0  0
 75 76  2  0  0  0
 75 84  1  0  0  0
 76 87  1  0  0  0
 77 78  1  0  0  0
 77 84  1  0  0  0
 77151  1  0  0  0
 77152  1  0  0  0
 78 84  1  0  0  0
 78153  1  0  0  0
 78154  1  0  0  0
 79 81  1  0  0  0
 79 83  1  0  0  0
 79155  1  0  0  0
 79156  1  0  0  0
 80 82  1  0  0  0
 80 83  1  0  0  0
 80157  1  0  0  0
 80158  1  0  0  0
 81 88  1  0  0  0
 81159  1  0  0  0
 81160  1  0  0  0
 82 88  1  0  0  0
 82161  1  0  0  0
 82162  1  0  0  0
 83163  1  0  0  0
 84164  1  0  0  0
 85 86  1  0  0  0
 85165  1  0  0  0
 85166  1  0  0  0
 85 88  1  0  0  0
 86167  1  0  0  0
 86168  1  0  0  0
 87169  1  0  0  0
 88170  1  0  0  0
M  CHG  1  88   1
M  ISO  4   1 100  68 101  86 101  87 100
M  END
> <chiral flag>
0

> <version>
0

> <s_m_source_file>
/data/baiqing/PycharmProjects/Reinvent-master-3.2/result/LINK_invent/BTK/process_docking_weight1_custom_sum_contain_oxygen_bond_distance_aromatic_linkinvent_7_9_3/rearranged_h_0140.sdf

> <i_m_source_file_index>
26

> <r_mmod_Potential_Energy-OPLS-2005>
-67.8326721191406

> <r_mmod_Stretch_Energy-OPLS-2005>
45.5256462097168

> <r_mmod_Bend_Energy-OPLS-2005>
116.883949279785

> <r_mmod_Torsional_Energy-OPLS-2005>
286.738494873047

> <r_mmod_Improper_Torsional_Energy-OPLS-2005>
6.02061700820923

> <r_mmod_Van_der_Waal_Energy-OPLS-2005>
149.682540893555

> <r_mmod_Electrostatic_Energy-OPLS-2005>
-265.199127197266

> <r_mmod_Solvation_Energy-OPLS-2005>
-421.593292236328

> <b_mmod_Minimization_Converged-OPLS-2005>
0

> <r_mmod_RMS_Derivative-OPLS-2005>
2.14096355438232

$$$$
26
                    3D
 Structure written by MMmdl.
170179  0  0  1  0            999 V2000
  -30.6878  -14.4838   20.5319 C   0  0  0  0  0  0
  -30.4316  -12.3012   19.4260 C   0  0  0  0  0  0
  -29.5009  -12.4811   18.2090 C   0  0  0  0  0  0
  -28.0234  -12.3496   18.6293 C   0  0  0  0  0  0
  -27.6674  -13.1996   19.8782 C   0  0  2  0  0  0
  -28.7125  -12.9905   21.0018 C   0  0  0  0  0  0
  -25.2610  -13.8136   20.5663 C   0  0  0  0  0  0
  -24.1873  -13.0433   20.9196 C   0  0  0  0  0  0
  -24.6386  -11.6885   20.8754 C   0  0  0  0  0  0
  -23.9038  -10.4290   21.0413 C   0  0  0  0  0  0
  -24.3584   -9.4197   21.9182 C   0  0  0  0  0  0
  -23.6262   -8.2239   22.0760 C   0  0  0  0  0  0
  -22.4243   -8.0269   21.3546 C   0  0  0  0  0  0
  -21.9879   -9.0248   20.4654 C   0  0  0  0  0  0
  -22.7208  -10.2129   20.3062 C   0  0  0  0  0  0
  -21.6853   -6.0714   22.5278 C   0  0  0  0  0  0
  -21.4002   -6.5628   23.8210 C   0  0  0  0  0  0
  -21.3663   -5.6788   24.9182 C   0  0  0  0  0  0
  -21.6041   -4.3049   24.7233 C   0  0  0  0  0  0
  -21.8822   -3.8132   23.4360 C   0  0  0  0  0  0
  -21.9190   -4.6941   22.3413 C   0  0  0  0  0  0
  -22.7889  -13.5242   21.1861 C   0  0  0  0  0  0
  -22.1660   -4.2124   21.0989 F   0  0  0  0  0  0
  -21.5636   -3.4538   25.7754 F   0  0  0  0  0  0
  -30.0379  -13.2917   20.4397 N   0  0  0  0  0  0
  -26.3043  -12.9296   20.3363 N   0  0  0  0  0  0
  -25.9327  -11.6458   20.5811 N   0  0  0  0  0  0
  -22.0501  -12.8260   22.0398 N   0  0  0  0  0  0
  -25.4363  -15.1866   20.4022 N   0  0  0  0  0  0
  -31.8383  -14.6501   20.1202 O   0  0  0  0  0  0
  -21.6628   -6.8843   21.4226 O   0  0  0  0  0  0
  -22.3587  -14.5572   20.6728 O   0  0  0  0  0  0
  -24.6162  -31.8676   23.2081 C   0  0  0  0  0  0
  -25.9047  -32.4812   23.8395 C   0  0  1  0  0  0
  -27.2388  -27.4161   20.0864 C   0  0  0  0  0  0
  -25.5902  -33.8615   24.2330 N   0  0  0  0  0  0
  -23.4046  -30.4917   21.5489 C   0  0  2  0  0  0
  -24.8471  -28.9511   20.1193 C   0  0  0  0  0  0
  -22.7401  -29.4693   22.5000 C   0  0  0  0  0  0
  -18.0269  -28.1387   22.8500 C   0  0  0  0  0  0
  -24.1482  -36.7313   23.2634 C   0  0  0  0  0  0
  -25.9331  -30.8245   21.3659 C   0  0  0  0  0  0
  -26.0086  -29.4579   20.7121 C   0  0  0  0  0  0
  -27.2015  -28.6969   20.6944 C   0  0  0  0  0  0
  -26.0437  -26.9195   19.5121 C   0  0  0  0  0  0
  -24.8607  -27.6804   19.5224 C   0  0  0  0  0  0
  -23.6122  -29.8217   20.1656 C   0  0  0  0  0  0
  -25.4101  -36.3112   24.0334 C   0  0  1  0  0  0
  -20.5850  -28.3710   23.1312 C   0  0  2  0  0  0
  -20.6755  -26.9441   22.5420 C   0  0  0  0  0  0
  -19.5741  -26.6401   21.5210 C   0  0  0  0  0  0
  -18.1916  -26.7929   22.1636 C   0  0  0  0  0  0
  -19.1513  -28.8856   23.2904 C   0  0  0  0  0  0
  -18.9426  -30.1452   23.8917 C   0  0  0  0  0  0
  -17.6426  -30.6596   24.0553 C   0  0  0  0  0  0
  -25.9042  -34.9475   23.5123 C   0  0  0  0  0  0
  -16.5317  -29.9091   23.6318 C   0  0  0  0  0  0
  -16.7254  -28.6510   23.0349 C   0  0  0  0  0  0
  -26.4468  -31.6595   25.0721 C   0  0  0  0  0  0
  -25.3738  -31.3697   26.1471 C   0  0  0  0  0  0
  -27.0298  -30.3035   24.6091 C   0  0  0  0  0  0
  -27.6042  -32.4316   25.7491 C   0  0  0  0  0  0
  -27.5582  -37.1810   24.8467 C   0  0  0  0  0  0
  -21.4123  -29.3108   22.3737 N   0  0  0  0  0  0
  -26.4301  -37.3794   23.9407 N   0  0  0  0  0  0
  -24.6691  -31.0770   22.0993 N   0  0  0  0  0  0
  -23.4165  -28.8229   23.3060 O   0  0  0  0  0  0
  -28.4347  -26.7158   20.0959 O   0  0  0  0  0  0
  -26.5595  -34.8920   22.4681 O   0  0  0  0  0  0
  -23.5347  -32.1446   23.7461 O   0  0  0  0  0  0
  -28.5965  -20.7403   20.1384 C   0  0  0  0  0  0
  -27.7959  -21.9274   20.1053 C   0  0  0  0  0  0
  -26.5918  -21.6401   20.7124 C   0  0  0  0  0  0
  -27.8665  -19.7729   20.7734 C   0  0  0  0  0  0
  -25.2151  -20.1940   23.2379 C   0  0  0  0  0  0
  -26.0204  -18.9206   23.1846 C   0  0  0  0  0  0
  -25.6008  -19.6001   21.8970 C   0  0  0  0  0  0
  -24.7894  -22.9139   19.4662 C   0  0  0  0  0  0
  -25.4152  -23.6527   21.8001 C   0  0  0  0  0  0
  -29.5649  -18.0394   21.3661 C   0  0  0  0  0  0
  -30.2354  -16.9312   20.5059 C   0  0  0  0  0  0
  -28.5960  -25.4846   19.3629 C   0  0  0  0  0  0
  -28.5463  -24.2041   20.2385 C   0  0  0  0  0  0
  -25.3201  -22.4593   20.8334 C   0  0  0  0  0  0
  -26.6607  -20.3221   21.1902 N   0  0  0  0  0  0
  -28.2193  -18.4133   20.9271 N   0  0  0  0  0  0
  -29.9268  -15.5382   20.8976 N   0  0  0  0  0  0
  -28.1245  -23.0892   19.4422 O   0  0  0  0  0  0
  -31.4732  -12.4023   19.1191 H   0  0  0  0  0  0
  -30.3373  -11.2895   19.8253 H   0  0  0  0  0  0
  -29.7331  -11.7448   17.4399 H   0  0  0  0  0  0
  -29.6789  -13.4523   17.7463 H   0  0  0  0  0  0
  -27.8405  -11.2956   18.8465 H   0  0  0  0  0  0
  -27.3711  -12.6008   17.7959 H   0  0  0  0  0  0
  -27.7173  -14.2452   19.5697 H   0  0  0  0  0  0
  -28.6910  -11.9578   21.3572 H   0  0  0  0  0  0
  -28.4892  -13.6058   21.8740 H   0  0  0  0  0  0
  -25.2724   -9.5698   22.4761 H   0  0  0  0  0  0
  -23.9973   -7.4638   22.7511 H   0  0  0  0  0  0
  -21.0802   -8.8751   19.8991 H   0  0  0  0  0  0
  -22.3632  -10.9655   19.6193 H   0  0  0  0  0  0
  -21.1979   -7.6131   23.9701 H   0  0  0  0  0  0
  -21.1492   -6.0520   25.9080 H   0  0  0  0  0  0
  -22.0598   -2.7589   23.2875 H   0  0  0  0  0  0
  -22.4067  -11.9896   22.4784 H   0  0  0  0  0  0
  -21.1143  -13.1370   22.2620 H   0  0  0  0  0  0
  -24.6631  -15.8356   20.4857 H   0  0  0  0  0  0
  -26.2615  -15.6054   19.9934 H   0  0  0  0  0  0
  -26.7111  -32.5503   23.1156 H   0  0  0  0  0  0
  -25.0061  -33.9798   25.0474 H   0  0  0  0  0  0
  -22.6942  -31.3081   21.4070 H   0  0  0  0  0  0
  -23.3741  -35.9656   23.3312 H   0  0  0  0  0  0
  -24.3587  -36.8912   22.2059 H   0  0  0  0  0  0
  -23.7249  -37.6511   23.6649 H   0  0  0  0  0  0
  -26.0492  -31.5888   20.5987 H   0  0  0  0  0  0
  -26.8212  -30.8775   21.9823 H   0  0  0  0  0  0
  -28.1006  -29.0925   21.1462 H   0  0  0  0  0  0
  -25.9827  -25.9401   19.0640 H   0  0  0  0  0  0
  -23.9626  -27.2754   19.0761 H   0  0  0  0  0  0
  -23.7222  -30.5924   19.4027 H   0  0  0  0  0  0
  -22.7336  -29.2470   19.8693 H   0  0  0  0  0  0
  -25.1289  -36.1990   25.0837 H   0  0  0  0  0  0
  -20.9956  -28.3278   24.1430 H   0  0  0  0  0  0
  -20.5684  -26.2325   23.3612 H   0  0  0  0  0  0
  -21.6621  -26.7482   22.1228 H   0  0  0  0  0  0
  -19.6921  -25.6295   21.1263 H   0  0  0  0  0  0
  -19.6677  -27.3237   20.6739 H   0  0  0  0  0  0
  -17.4187  -26.6673   21.4029 H   0  0  0  0  0  0
  -18.0336  -26.0058   22.9031 H   0  0  0  0  0  0
  -19.7880  -30.7283   24.2307 H   0  0  0  0  0  0
  -17.4984  -31.6280   24.5151 H   0  0  0  0  0  0
  -15.5322  -30.3011   23.7660 H   0  0  0  0  0  0
  -15.8656  -28.0839   22.7064 H   0  0  0  0  0  0
  -24.5900  -30.7057   25.7814 H   0  0  0  0  0  0
  -24.8931  -32.2850   26.4940 H   0  0  0  0  0  0
  -25.8093  -30.8851   27.0230 H   0  0  0  0  0  0
  -26.2840  -29.6798   24.1137 H   0  0  0  0  0  0
  -27.4064  -29.7275   25.4562 H   0  0  0  0  0  0
  -27.8692  -30.4348   23.9254 H   0  0  0  0  0  0
  -27.2661  -33.3606   26.2089 H   0  0  0  0  0  0
  -28.3833  -32.6889   25.0301 H   0  0  0  0  0  0
  -28.0726  -31.8426   26.5384 H   0  0  0  0  0  0
  -28.2606  -38.0099   24.7502 H   0  0  0  0  0  0
  -28.1069  -36.2636   24.6310 H   0  0  0  0  0  0
  -27.2303  -37.1476   25.8869 H   0  0  0  0  0  0
  -20.9281  -29.8832   21.6946 H   0  0  0  0  0  0
  -26.0182  -38.2870   24.1394 H   0  0  0  0  0  0
  -29.5732  -20.6032   19.6939 H   0  0  0  0  0  0
  -25.7294  -21.0918   23.5768 H   0  0  0  0  0  0
  -24.1760  -20.1137   23.5520 H   0  0  0  0  0  0
  -27.0611  -18.9884   23.4971 H   0  0  0  0  0  0
  -25.5099  -17.9977   23.4513 H   0  0  0  0  0  0
  -24.8518  -19.1593   21.2413 H   0  0  0  0  0  0
  -23.8636  -23.4829   19.5770 H   0  0  0  0  0  0
  -24.5718  -22.0527   18.8330 H   0  0  0  0  0  0
  -25.5099  -23.5444   18.9457 H   0  0  0  0  0  0
  -24.4237  -23.9726   22.1152 H   0  0  0  0  0  0
  -25.8591  -24.5269   21.3345 H   0  0  0  0  0  0
  -25.9837  -23.4073   22.6977 H   0  0  0  0  0  0
  -30.1897  -18.9286   21.2894 H   0  0  0  0  0  0
  -29.5631  -17.7639   22.4219 H   0  0  0  0  0  0
  -30.0172  -17.0762   19.4455 H   0  0  0  0  0  0
  -31.3123  -17.0814   20.6041 H   0  0  0  0  0  0
  -27.9080  -25.4016   18.5257 H   0  0  0  0  0  0
  -29.5731  -25.5182   18.8829 H   0  0  0  0  0  0
  -27.8947  -24.3551   21.0906 H   0  0  0  0  0  0
  -29.5278  -24.0031   20.6705 H   0  0  0  0  0  0
  -24.5316  -21.8262   21.2394 H   0  0  0  0  0  0
  -27.4867  -17.8772   21.3856 H   0  0  0  0  0  0
  -28.9932  -15.3417   21.2317 H   0  0  0  0  0  0
  1 25  1  0  0  0
  1 30  2  0  0  0
  1 87  1  0  0  0
  2  3  1  0  0  0
  2 25  1  0  0  0
  2 89  1  0  0  0
  2 90  1  0  0  0
  3  4  1  0  0  0
  3 91  1  0  0  0
  3 92  1  0  0  0
  4  5  1  0  0  0
  4 93  1  0  0  0
  4 94  1  0  0  0
  5  6  1  0  0  0
  5 26  1  0  0  0
  5 95  1  0  0  0
  6 25  1  0  0  0
  6 96  1  0  0  0
  6 97  1  0  0  0
  7  8  2  0  0  0
  7 26  1  0  0  0
  7 29  1  0  0  0
  8  9  1  0  0  0
  8 22  1  0  0  0
  9 10  1  0  0  0
  9 27  2  0  0  0
 10 11  2  0  0  0
 10 15  1  0  0  0
 11 12  1  0  0  0
 11 98  1  0  0  0
 12 13  2  0  0  0
 12 99  1  0  0  0
 13 14  1  0  0  0
 13 31  1  0  0  0
 14 15  2  0  0  0
 14100  1  0  0  0
 15101  1  0  0  0
 16 17  2  0  0  0
 16 21  1  0  0  0
 16 31  1  0  0  0
 17 18  1  0  0  0
 17102  1  0  0  0
 18 19  2  0  0  0
 18103  1  0  0  0
 19 20  1  0  0  0
 19 24  1  0  0  0
 20 21  2  0  0  0
 20104  1  0  0  0
 21 23  1  0  0  0
 22 28  1  0  0  0
 22 32  2  0  0  0
 26 27  1  0  0  0
 28105  1  0  0  0
 28106  1  0  0  0
 29107  1  0  0  0
 29108  1  0  0  0
 33 34  1  0  0  0
 33 66  1  0  0  0
 33 70  2  0  0  0
 34 36  1  0  0  0
 34 59  1  0  0  0
 34109  1  0  0  0
 35 44  2  0  0  0
 35 45  1  0  0  0
 35 68  1  0  0  0
 36 56  1  0  0  0
 36110  1  0  0  0
 37 39  1  0  0  0
 37 47  1  0  0  0
 37 66  1  0  0  0
 37111  1  0  0  0
 38 43  2  0  0  0
 38 46  1  0  0  0
 38 47  1  0  0  0
 39 64  1  0  0  0
 39 67  2  0  0  0
 40 52  1  0  0  0
 40 53  2  0  0  0
 40 58  1  0  0  0
 41112  1  0  0  0
 41113  1  0  0  0
 41114  1  0  0  0
 41 48  1  0  0  0
 42 43  1  0  0  0
 42 66  1  0  0  0
 42115  1  0  0  0
 42116  1  0  0  0
 43 44  1  0  0  0
 44117  1  0  0  0
 45 46  2  0  0  0
 45118  1  0  0  0
 46119  1  0  0  0
 47120  1  0  0  0
 47121  1  0  0  0
 48 56  1  0  0  0
 48 65  1  0  0  0
 48122  1  0  0  0
 49 50  1  0  0  0
 49 53  1  0  0  0
 49 64  1  0  0  0
 49123  1  0  0  0
 50 51  1  0  0  0
 50124  1  0  0  0
 50125  1  0  0  0
 51 52  1  0  0  0
 51126  1  0  0  0
 51127  1  0  0  0
 52128  1  0  0  0
 52129  1  0  0  0
 53 54  1  0  0  0
 54 55  2  0  0  0
 54130  1  0  0  0
 55 57  1  0  0  0
 55131  1  0  0  0
 56 69  2  0  0  0
 57 58  2  0  0  0
 57132  1  0  0  0
 58133  1  0  0  0
 59 60  1  0  0  0
 59 61  1  0  0  0
 59 62  1  0  0  0
 60134  1  0  0  0
 60135  1  0  0  0
 60136  1  0  0  0
 61137  1  0  0  0
 61138  1  0  0  0
 61139  1  0  0  0
 62140  1  0  0  0
 62141  1  0  0  0
 62142  1  0  0  0
 63 65  1  0  0  0
 63143  1  0  0  0
 63144  1  0  0  0
 63145  1  0  0  0
 64146  1  0  0  0
 65147  1  0  0  0
 68 82  1  0  0  0
 71 72  1  0  0  0
 71 74  2  0  0  0
 71148  1  0  0  0
 72 73  2  0  0  0
 72 88  1  0  0  0
 73 84  1  0  0  0
 73 85  1  0  0  0
 74 85  1  0  0  0
 74 86  1  0  0  0
 75 76  1  0  0  0
 75 77  1  0  0  0
 75149  1  0  0  0
 75150  1  0  0  0
 76 77  1  0  0  0
 76151  1  0  0  0
 76152  1  0  0  0
 77 85  1  0  0  0
 77153  1  0  0  0
 78154  1  0  0  0
 78155  1  0  0  0
 78156  1  0  0  0
 78 84  1  0  0  0
 79 84  1  0  0  0
 79157  1  0  0  0
 79158  1  0  0  0
 79159  1  0  0  0
 80 81  1  0  0  0
 80 86  1  0  0  0
 80160  1  0  0  0
 80161  1  0  0  0
 81 87  1  0  0  0
 81162  1  0  0  0
 81163  1  0  0  0
 82 83  1  0  0  0
 82164  1  0  0  0
 82165  1  0  0  0
 83 88  1  0  0  0
 83166  1  0  0  0
 83167  1  0  0  0
 84168  1  0  0  0
 86169  1  0  0  0
 87170  1  0  0  0
M  ISO  4   1 100  68 101  82 101  87 100
M  END
> <chiral flag>
0

> <version>
0

> <s_m_source_file>
/data/baiqing/PycharmProjects/Reinvent-master-3.2/result/LINK_invent/BTK/process_docking_weight1_custom_sum_contain_oxygen_bond_distance_aromatic_linkinvent_7_9_3/rearranged_h_0140.sdf

> <i_m_source_file_index>
27

> <r_mmod_Potential_Energy-OPLS-2005>
-29.5163307189941

> <r_mmod_Stretch_Energy-OPLS-2005>
41.5417060852051

> <r_mmod_Bend_Energy-OPLS-2005>
124.959686279297

> <r_mmod_Torsional_Energy-OPLS-2005>
310.506805419922

> <r_mmod_Improper_Torsional_Energy-OPLS-2005>
11.3109750747681

> <r_mmod_Van_der_Waal_Energy-OPLS-2005>
120.518577575684

> <r_mmod_Electrostatic_Energy-OPLS-2005>
-443.899932861328

> <r_mmod_Solvation_Energy-OPLS-2005>
-209.994659423828

> <b_mmod_Minimization_Converged-OPLS-2005>
0

> <r_mmod_RMS_Derivative-OPLS-2005>
5.98181200027466

$$$$
27
                    3D
 Structure written by MMmdl.
176186  0  0  1  0            999 V2000
  -30.5853  -14.8956   20.4145 C   0  0  0  0  0  0
  -30.4354  -12.5560   19.4826 C   0  0  0  0  0  0
  -29.5116  -12.4949   18.2457 C   0  0  0  0  0  0
  -28.0459  -12.2979   18.6760 C   0  0  0  0  0  0
  -27.6282  -13.2391   19.8366 C   0  0  2  0  0  0
  -28.6765  -13.2804   20.9652 C   0  0  0  0  0  0
  -25.2486  -13.8203   20.5758 C   0  0  0  0  0  0
  -24.1778  -13.0444   20.9245 C   0  0  0  0  0  0
  -24.6379  -11.6923   20.8773 C   0  0  0  0  0  0
  -23.9054  -10.4298   21.0429 C   0  0  0  0  0  0
  -24.3611   -9.4214   21.9200 C   0  0  0  0  0  0
  -23.6295   -8.2251   22.0771 C   0  0  0  0  0  0
  -22.4269   -8.0293   21.3571 C   0  0  0  0  0  0
  -21.9895   -9.0258   20.4670 C   0  0  0  0  0  0
  -22.7225  -10.2137   20.3076 C   0  0  0  0  0  0
  -21.6854   -6.0742   22.5283 C   0  0  0  0  0  0
  -21.4012   -6.5644   23.8221 C   0  0  0  0  0  0
  -21.3663   -5.6795   24.9179 C   0  0  0  0  0  0
  -21.6048   -4.3062   24.7222 C   0  0  0  0  0  0
  -21.8814   -3.8148   23.4343 C   0  0  0  0  0  0
  -21.9189   -4.6967   22.3397 C   0  0  0  0  0  0
  -22.7800  -13.5225   21.1878 C   0  0  0  0  0  0
  -22.1664   -4.2157   21.0971 F   0  0  0  0  0  0
  -21.5619   -3.4544   25.7732 F   0  0  0  0  0  0
  -29.9478  -13.6643   20.3435 N   0  0  0  0  0  0
  -26.2892  -12.9413   20.3290 N   0  0  0  0  0  0
  -25.9306  -11.6555   20.5767 N   0  0  0  0  0  0
  -22.0432  -12.8231   22.0434 N   0  0  0  0  0  0
  -25.4183  -15.1936   20.4197 N   0  0  0  0  0  0
  -31.8140  -14.9040   20.2969 O   0  0  0  0  0  0
  -21.6638   -6.8885   21.4250 O   0  0  0  0  0  0
  -22.3496  -14.5522   20.6708 O   0  0  0  0  0  0
  -24.6398  -31.8483   23.1929 C   0  0  0  0  0  0
  -25.9191  -32.4719   23.8306 C   0  0  1  0  0  0
  -27.2189  -27.1784   20.1594 C   0  0  0  0  0  0
  -25.5959  -33.8525   24.2229 N   0  0  0  0  0  0
  -23.4419  -30.4692   21.5368 C   0  0  2  0  0  0
  -24.8947  -28.9047   20.1101 C   0  0  0  0  0  0
  -22.7550  -29.4565   22.4865 C   0  0  0  0  0  0
  -18.0309  -28.1397   22.8469 C   0  0  0  0  0  0
  -24.1494  -36.7261   23.2640 C   0  0  0  0  0  0
  -25.9951  -30.7363   21.3871 C   0  0  0  0  0  0
  -26.0692  -29.3509   20.7312 C   0  0  0  0  0  0
  -27.2358  -28.5033   20.7410 C   0  0  0  0  0  0
  -26.0288  -26.8341   19.4821 C   0  0  0  0  0  0
  -24.8852  -27.6584   19.4676 C   0  0  0  0  0  0
  -23.6684  -29.8018   20.1544 C   0  0  0  0  0  0
  -25.4120  -36.3042   24.0322 C   0  0  1  0  0  0
  -20.5917  -28.3719   23.1235 C   0  0  2  0  0  0
  -20.6788  -26.9423   22.5402 C   0  0  0  0  0  0
  -19.5767  -26.6381   21.5202 C   0  0  0  0  0  0
  -18.1949  -26.7937   22.1612 C   0  0  0  0  0  0
  -19.1564  -28.8875   23.2846 C   0  0  0  0  0  0
  -18.9480  -30.1467   23.8878 C   0  0  0  0  0  0
  -17.6477  -30.6583   24.0564 C   0  0  0  0  0  0
  -25.9068  -34.9416   23.5073 C   0  0  0  0  0  0
  -16.5369  -29.9078   23.6334 C   0  0  0  0  0  0
  -16.7294  -28.6502   23.0347 C   0  0  0  0  0  0
  -26.4525  -31.6568   25.0729 C   0  0  0  0  0  0
  -25.3723  -31.3750   26.1433 C   0  0  0  0  0  0
  -27.0370  -30.2965   24.6277 C   0  0  0  0  0  0
  -27.6073  -32.4317   25.7501 C   0  0  0  0  0  0
  -27.5574  -37.1789   24.8462 C   0  0  0  0  0  0
  -21.4248  -29.3042   22.3604 N   0  0  0  0  0  0
  -26.4284  -37.3750   23.9408 N   0  0  0  0  0  0
  -24.7116  -31.0375   22.0946 N   0  0  0  0  0  0
  -23.4205  -28.8112   23.3005 O   0  0  0  0  0  0
  -28.2550  -26.1884   20.2097 O   0  0  0  0  0  0
  -26.5642  -34.8899   22.4643 O   0  0  0  0  0  0
  -23.5528  -32.1343   23.7174 O   0  0  0  0  0  0
  -28.6458  -21.0268   19.4354 C   0  0  0  0  0  0
  -29.3835  -22.6918   21.5101 C   0  0  0  0  0  0
  -29.4790  -20.3848   20.4183 C   0  0  0  0  0  0
  -28.2239  -22.4186   19.4687 C   0  0  0  0  0  0
  -29.8084  -21.3022   21.4806 C   0  0  0  0  0  0
  -28.5840  -23.3391   20.5103 C   0  0  0  0  0  0
  -33.0803  -21.1817   17.6410 C   0  0  0  0  0  0
  -31.8446  -21.2033   18.5478 C   0  0  0  0  0  0
  -32.7505  -19.7103   17.3710 C   0  0  0  0  0  0
  -29.5576  -17.4265   20.7270 C   0  0  0  0  0  0
  -31.1498  -17.4471   18.3827 C   0  0  0  0  0  0
  -30.1662  -18.8926   20.2052 C   0  0  1  0  0  0
  -32.0520  -19.6880   18.7496 C   0  0  0  0  0  0
  -30.0363  -16.4012   18.5903 C   0  0  2  0  0  0
  -27.3187  -22.9188   18.3572 C   0  0  0  0  0  0
  -30.6386  -20.8101   22.6560 C   0  0  0  0  0  0
  -28.6989  -16.7407   17.8950 C   0  0  0  0  0  0
  -27.8755  -24.8007   20.7523 C   0  0  0  0  0  0
  -29.8811  -16.0689   20.0177 N   0  0  0  0  0  0
  -30.8284  -18.8239   18.8567 N   0  3  1  0  0  0
  -31.4686  -12.7069   19.1666 H   0  0  0  0  0  0
  -30.4228  -11.6118   20.0293 H   0  0  0  0  0  0
  -29.8181  -11.6839   17.5850 H   0  0  0  0  0  0
  -29.6053  -13.4082   17.6573 H   0  0  0  0  0  0
  -27.9429  -11.2587   18.9928 H   0  0  0  0  0  0
  -27.3778  -12.4255   17.8246 H   0  0  0  0  0  0
  -27.5853  -14.2364   19.4057 H   0  0  0  0  0  0
  -28.7581  -12.3165   21.4683 H   0  0  0  0  0  0
  -28.3875  -14.0095   21.7242 H   0  0  0  0  0  0
  -25.2764   -9.5673   22.4765 H   0  0  0  0  0  0
  -24.0011   -7.4622   22.7464 H   0  0  0  0  0  0
  -21.0835   -8.8760   19.8967 H   0  0  0  0  0  0
  -22.3690  -10.9668   19.6172 H   0  0  0  0  0  0
  -21.2017   -7.6160   23.9717 H   0  0  0  0  0  0
  -21.1491   -6.0532   25.9077 H   0  0  0  0  0  0
  -22.0588   -2.7609   23.2835 H   0  0  0  0  0  0
  -22.4037  -11.9922   22.4882 H   0  0  0  0  0  0
  -21.1046  -13.1276   22.2604 H   0  0  0  0  0  0
  -24.6533  -15.8474   20.5394 H   0  0  0  0  0  0
  -26.2743  -15.6387   20.1157 H   0  0  0  0  0  0
  -26.7254  -32.5343   23.1040 H   0  0  0  0  0  0
  -25.0109  -33.9647   25.0381 H   0  0  0  0  0  0
  -22.7424  -31.2940   21.3856 H   0  0  0  0  0  0
  -23.3753  -35.9593   23.3296 H   0  0  0  0  0  0
  -24.3579  -36.8893   22.2053 H   0  0  0  0  0  0
  -23.7249  -37.6458   23.6677 H   0  0  0  0  0  0
  -26.1461  -31.4921   20.6150 H   0  0  0  0  0  0
  -26.8665  -30.7872   22.0281 H   0  0  0  0  0  0
  -28.1293  -28.8382   21.2493 H   0  0  0  0  0  0
  -25.9653  -25.8840   18.9716 H   0  0  0  0  0  0
  -23.9932  -27.3166   18.9612 H   0  0  0  0  0  0
  -23.8036  -30.5792   19.4010 H   0  0  0  0  0  0
  -22.7839  -29.2432   19.8419 H   0  0  0  0  0  0
  -25.1303  -36.1874   25.0812 H   0  0  0  0  0  0
  -21.0017  -28.3314   24.1354 H   0  0  0  0  0  0
  -20.5667  -26.2334   23.3622 H   0  0  0  0  0  0
  -21.6660  -26.7418   22.1215 H   0  0  0  0  0  0
  -19.6927  -25.6285   21.1246 H   0  0  0  0  0  0
  -19.6702  -27.3176   20.6723 H   0  0  0  0  0  0
  -17.4215  -26.6683   21.4017 H   0  0  0  0  0  0
  -18.0343  -26.0081   22.9010 H   0  0  0  0  0  0
  -19.7952  -30.7290   24.2238 H   0  0  0  0  0  0
  -17.5025  -31.6256   24.5175 H   0  0  0  0  0  0
  -15.5368  -30.2969   23.7664 H   0  0  0  0  0  0
  -15.8699  -28.0810   22.7072 H   0  0  0  0  0  0
  -24.5921  -30.7064   25.7769 H   0  0  0  0  0  0
  -24.8891  -32.2929   26.4795 H   0  0  0  0  0  0
  -25.8027  -30.8982   27.0253 H   0  0  0  0  0  0
  -26.2966  -29.6701   24.1287 H   0  0  0  0  0  0
  -27.3992  -29.7248   25.4835 H   0  0  0  0  0  0
  -27.8878  -30.4201   23.9572 H   0  0  0  0  0  0
  -27.2688  -33.3640   26.2034 H   0  0  0  0  0  0
  -28.3907  -32.6836   25.0338 H   0  0  0  0  0  0
  -28.0716  -31.8469   26.5456 H   0  0  0  0  0  0
  -28.2594  -38.0087   24.7495 H   0  0  0  0  0  0
  -28.1071  -36.2614   24.6297 H   0  0  0  0  0  0
  -27.2297  -37.1445   25.8869 H   0  0  0  0  0  0
  -20.9457  -29.8762   21.6791 H   0  0  0  0  0  0
  -26.0154  -38.2817   24.1410 H   0  0  0  0  0  0
  -28.3287  -20.4367   18.5872 H   0  0  0  0  0  0
  -29.6518  -23.2832   22.3736 H   0  0  0  0  0  0
  -34.0170  -21.3182   18.1847 H   0  0  0  0  0  0
  -33.0215  -21.8323   16.7683 H   0  0  0  0  0  0
  -30.9425  -21.4674   17.9923 H   0  0  0  0  0  0
  -31.9543  -21.8108   19.4468 H   0  0  0  0  0  0
  -33.6179  -19.0559   17.2814 H   0  0  0  0  0  0
  -32.0737  -19.5972   16.5204 H   0  0  0  0  0  0
  -28.4715  -17.5103   20.6974 H   0  0  0  0  0  0
  -29.7829  -17.3162   21.7887 H   0  0  0  0  0  0
  -31.3792  -17.4786   17.3185 H   0  0  0  0  0  0
  -32.0681  -17.1109   18.8682 H   0  0  0  0  0  0
  -31.0320  -18.9494   20.8630 H   0  0  0  0  0  0
  -32.7775  -19.4790   19.5392 H   0  0  0  0  0  0
  -30.3963  -15.5158   18.0605 H   0  0  0  0  0  0
  -27.3800  -22.2854   17.4725 H   0  0  0  0  0  0
  -27.5975  -23.9294   18.0582 H   0  0  0  0  0  0
  -26.2815  -22.9365   18.6926 H   0  0  0  0  0  0
  -30.5579  -21.4835   23.5105 H   0  0  0  0  0  0
  -31.6929  -20.7377   22.3876 H   0  0  0  0  0  0
  -30.2962  -19.8305   22.9921 H   0  0  0  0  0  0
  -28.2046  -17.6124   18.3224 H   0  0  0  0  0  0
  -27.9990  -15.9088   17.9501 H   0  0  0  0  0  0
  -28.8559  -16.9491   16.8359 H   0  0  0  0  0  0
  -27.8980  -24.9385   21.8331 H   0  0  0  0  0  0
  -26.8210  -24.6175   20.5568 H   0  0  0  0  0  0
  -30.1484  -19.1777   18.2018 H   0  0  0  0  0  0
  1 25  1  0  0  0
  1 30  2  0  0  0
  1 89  1  0  0  0
  2  3  1  0  0  0
  2 25  1  0  0  0
  2 91  1  0  0  0
  2 92  1  0  0  0
  3  4  1  0  0  0
  3 93  1  0  0  0
  3 94  1  0  0  0
  4  5  1  0  0  0
  4 95  1  0  0  0
  4 96  1  0  0  0
  5  6  1  0  0  0
  5 26  1  0  0  0
  5 97  1  0  0  0
  6 25  1  0  0  0
  6 98  1  0  0  0
  6 99  1  0  0  0
  7  8  2  0  0  0
  7 26  1  0  0  0
  7 29  1  0  0  0
  8  9  1  0  0  0
  8 22  1  0  0  0
  9 10  1  0  0  0
  9 27  2  0  0  0
 10 11  2  0  0  0
 10 15  1  0  0  0
 11 12  1  0  0  0
 11100  1  0  0  0
 12 13  2  0  0  0
 12101  1  0  0  0
 13 14  1  0  0  0
 13 31  1  0  0  0
 14 15  2  0  0  0
 14102  1  0  0  0
 15103  1  0  0  0
 16 17  2  0  0  0
 16 21  1  0  0  0
 16 31  1  0  0  0
 17 18  1  0  0  0
 17104  1  0  0  0
 18 19  2  0  0  0
 18105  1  0  0  0
 19 20  1  0  0  0
 19 24  1  0  0  0
 20 21  2  0  0  0
 20106  1  0  0  0
 21 23  1  0  0  0
 22 28  1  0  0  0
 22 32  2  0  0  0
 26 27  1  0  0  0
 28107  1  0  0  0
 28108  1  0  0  0
 29109  1  0  0  0
 29110  1  0  0  0
 33 34  1  0  0  0
 33 66  1  0  0  0
 33 70  2  0  0  0
 34 36  1  0  0  0
 34 59  1  0  0  0
 34111  1  0  0  0
 35 44  2  0  0  0
 35 45  1  0  0  0
 35 68  1  0  0  0
 36 56  1  0  0  0
 36112  1  0  0  0
 37 39  1  0  0  0
 37 47  1  0  0  0
 37 66  1  0  0  0
 37113  1  0  0  0
 38 43  2  0  0  0
 38 46  1  0  0  0
 38 47  1  0  0  0
 39 64  1  0  0  0
 39 67  2  0  0  0
 40 52  1  0  0  0
 40 53  2  0  0  0
 40 58  1  0  0  0
 41114  1  0  0  0
 41115  1  0  0  0
 41116  1  0  0  0
 41 48  1  0  0  0
 42 43  1  0  0  0
 42 66  1  0  0  0
 42117  1  0  0  0
 42118  1  0  0  0
 43 44  1  0  0  0
 44119  1  0  0  0
 45 46  2  0  0  0
 45120  1  0  0  0
 46121  1  0  0  0
 47122  1  0  0  0
 47123  1  0  0  0
 48 56  1  0  0  0
 48 65  1  0  0  0
 48124  1  0  0  0
 49 50  1  0  0  0
 49 53  1  0  0  0
 49 64  1  0  0  0
 49125  1  0  0  0
 50 51  1  0  0  0
 50126  1  0  0  0
 50127  1  0  0  0
 51 52  1  0  0  0
 51128  1  0  0  0
 51129  1  0  0  0
 52130  1  0  0  0
 52131  1  0  0  0
 53 54  1  0  0  0
 54 55  2  0  0  0
 54132  1  0  0  0
 55 57  1  0  0  0
 55133  1  0  0  0
 56 69  2  0  0  0
 57 58  2  0  0  0
 57134  1  0  0  0
 58135  1  0  0  0
 59 60  1  0  0  0
 59 61  1  0  0  0
 59 62  1  0  0  0
 60136  1  0  0  0
 60137  1  0  0  0
 60138  1  0  0  0
 61139  1  0  0  0
 61140  1  0  0  0
 61141  1  0  0  0
 62142  1  0  0  0
 62143  1  0  0  0
 62144  1  0  0  0
 63 65  1  0  0  0
 63145  1  0  0  0
 63146  1  0  0  0
 63147  1  0  0  0
 64148  1  0  0  0
 65149  1  0  0  0
 68 88  1  0  0  0
 71 73  2  0  0  0
 71 74  1  0  0  0
 71150  1  0  0  0
 72 75  2  0  0  0
 72 76  1  0  0  0
 72151  1  0  0  0
 73 75  1  0  0  0
 73 82  1  0  0  0
 74 76  2  0  0  0
 74 85  1  0  0  0
 75 86  1  0  0  0
 76 88  1  0  0  0
 77 78  1  0  0  0
 77 79  1  0  0  0
 77152  1  0  0  0
 77153  1  0  0  0
 78154  1  0  0  0
 78155  1  0  0  0
 78 83  1  0  0  0
 79 83  1  0  0  0
 79156  1  0  0  0
 79157  1  0  0  0
 80 82  1  0  0  0
 80 89  1  0  0  0
 80158  1  0  0  0
 80159  1  0  0  0
 81 84  1  0  0  0
 81160  1  0  0  0
 81161  1  0  0  0
 81 90  1  0  0  0
 82 90  1  0  0  0
 82162  1  0  0  0
 83 90  1  0  0  0
 83163  1  0  0  0
 84 87  1  0  0  0
 84 89  1  0  0  0
 84164  1  0  0  0
 85165  1  0  0  0
 85166  1  0  0  0
 85167  1  0  0  0
 86168  1  0  0  0
 86169  1  0  0  0
 86170  1  0  0  0
 87171  1  0  0  0
 87172  1  0  0  0
 87173  1  0  0  0
 88174  1  0  0  0
 88175  1  0  0  0
 90176  1  0  0  0
M  CHG  1  90   1
M  ISO  4   1 100  68 101  88 101  89 100
M  END
> <chiral flag>
0

> <version>
0

> <s_m_source_file>
/data/baiqing/PycharmProjects/Reinvent-master-3.2/result/LINK_invent/BTK/process_docking_weight1_custom_sum_contain_oxygen_bond_distance_aromatic_linkinvent_7_9_3/rearranged_h_0140.sdf

> <i_m_source_file_index>
28

> <r_mmod_Potential_Energy-OPLS-2005>
705.10888671875

> <r_mmod_Stretch_Energy-OPLS-2005>
214.288421630859

> <r_mmod_Bend_Energy-OPLS-2005>
284.382141113281

> <r_mmod_Torsional_Energy-OPLS-2005>
486.004150390625

> <r_mmod_Improper_Torsional_Energy-OPLS-2005>
27.6539306640625

> <r_mmod_Van_der_Waal_Energy-OPLS-2005>
136.455383300781

> <r_mmod_Electrostatic_Energy-OPLS-2005>
-211.616409301758

> <r_mmod_Solvation_Energy-OPLS-2005>
-399.653167724609

> <b_mmod_Minimization_Converged-OPLS-2005>
0

> <r_mmod_RMS_Derivative-OPLS-2005>
2.26290726661682

$$$$
28
                    3D
 Structure written by MMmdl.
157165  0  0  1  0            999 V2000
  -30.6834  -14.6363   20.5028 C   0  0  0  0  0  0
  -30.4195  -12.3991   19.4527 C   0  0  0  0  0  0
  -29.4970  -12.5012   18.2209 C   0  0  0  0  0  0
  -28.0231  -12.3438   18.6387 C   0  0  0  0  0  0
  -27.6451  -13.2304   19.8556 C   0  0  2  0  0  0
  -28.6932  -13.1337   20.9865 C   0  0  0  0  0  0
  -25.2516  -13.8195   20.5703 C   0  0  0  0  0  0
  -24.1803  -13.0433   20.9210 C   0  0  0  0  0  0
  -24.6395  -11.6916   20.8756 C   0  0  0  0  0  0
  -23.9072  -10.4285   21.0409 C   0  0  0  0  0  0
  -24.3614   -9.4202   21.9188 C   0  0  0  0  0  0
  -23.6292   -8.2241   22.0762 C   0  0  0  0  0  0
  -22.4276   -8.0283   21.3556 C   0  0  0  0  0  0
  -21.9909   -9.0255   20.4657 C   0  0  0  0  0  0
  -22.7239  -10.2134   20.3056 C   0  0  0  0  0  0
  -21.6855   -6.0734   22.5284 C   0  0  0  0  0  0
  -21.4008   -6.5635   23.8212 C   0  0  0  0  0  0
  -21.3655   -5.6786   24.9171 C   0  0  0  0  0  0
  -21.6041   -4.3050   24.7225 C   0  0  0  0  0  0
  -21.8819   -3.8143   23.4345 C   0  0  0  0  0  0
  -21.9187   -4.6960   22.3398 C   0  0  0  0  0  0
  -22.7826  -13.5210   21.1864 C   0  0  0  0  0  0
  -22.1657   -4.2146   21.0976 F   0  0  0  0  0  0
  -21.5634   -3.4530   25.7735 F   0  0  0  0  0  0
  -30.0027  -13.4507   20.4037 N   0  0  0  0  0  0
  -26.2951  -12.9408   20.3321 N   0  0  0  0  0  0
  -25.9328  -11.6548   20.5771 N   0  0  0  0  0  0
  -22.0484  -12.8187   22.0417 N   0  0  0  0  0  0
  -25.4189  -15.1910   20.4103 N   0  0  0  0  0  0
  -31.8616  -14.7113   20.1484 O   0  0  0  0  0  0
  -21.6646   -6.8879   21.4249 O   0  0  0  0  0  0
  -22.3500  -14.5513   20.6712 O   0  0  0  0  0  0
  -24.6265  -31.8621   23.2039 C   0  0  0  0  0  0
  -25.9124  -32.4788   23.8361 C   0  0  1  0  0  0
  -27.2128  -27.3134   20.1165 C   0  0  0  0  0  0
  -25.5946  -33.8584   24.2294 N   0  0  0  0  0  0
  -23.4192  -30.4889   21.5475 C   0  0  2  0  0  0
  -24.8638  -28.9504   20.1083 C   0  0  0  0  0  0
  -22.7481  -29.4641   22.4934 C   0  0  0  0  0  0
  -18.0301  -28.1384   22.8499 C   0  0  0  0  0  0
  -24.1489  -36.7278   23.2635 C   0  0  0  0  0  0
  -25.9626  -30.7907   21.3788 C   0  0  0  0  0  0
  -26.0341  -29.4196   20.7179 C   0  0  0  0  0  0
  -27.2112  -28.6122   20.7158 C   0  0  0  0  0  0
  -26.0225  -26.9154   19.4608 C   0  0  0  0  0  0
  -24.8607  -27.7039   19.4689 C   0  0  0  0  0  0
  -23.6330  -29.8297   20.1608 C   0  0  0  0  0  0
  -25.4113  -36.3077   24.0329 C   0  0  1  0  0  0
  -20.5901  -28.3695   23.1277 C   0  0  2  0  0  0
  -20.6789  -26.9417   22.5400 C   0  0  0  0  0  0
  -19.5754  -26.6389   21.5212 C   0  0  0  0  0  0
  -18.1940  -26.7930   22.1627 C   0  0  0  0  0  0
  -19.1553  -28.8857   23.2887 C   0  0  0  0  0  0
  -18.9461  -30.1465   23.8894 C   0  0  0  0  0  0
  -17.6459  -30.6583   24.0571 C   0  0  0  0  0  0
  -25.9054  -34.9451   23.5106 C   0  0  0  0  0  0
  -16.5356  -29.9076   23.6338 C   0  0  0  0  0  0
  -16.7288  -28.6495   23.0357 C   0  0  0  0  0  0
  -26.4502  -31.6585   25.0727 C   0  0  0  0  0  0
  -25.3736  -31.3729   26.1455 C   0  0  0  0  0  0
  -27.0346  -30.3006   24.6182 C   0  0  0  0  0  0
  -27.6061  -32.4316   25.7501 C   0  0  0  0  0  0
  -27.5577  -37.1793   24.8464 C   0  0  0  0  0  0
  -21.4195  -29.3048   22.3662 N   0  0  0  0  0  0
  -26.4288  -37.3774   23.9409 N   0  0  0  0  0  0
  -24.6884  -31.0632   22.0997 N   0  0  0  0  0  0
  -23.4203  -28.8192   23.3027 O   0  0  0  0  0  0
  -28.3092  -26.4336   20.1952 O   0  0  0  0  0  0
  -26.5599  -34.8919   22.4658 O   0  0  0  0  0  0
  -23.5424  -32.1417   23.7363 O   0  0  0  0  0  0
  -29.6727  -20.9381   21.4486 C   0  0  0  0  0  0
  -28.9635  -20.1855   19.2906 C   0  0  0  0  0  0
  -30.0749  -19.6015   21.7707 C   0  0  0  0  0  0
  -29.3887  -18.8517   19.5793 C   0  0  0  0  0  0
  -29.9639  -18.5154   20.8373 C   0  0  0  0  0  0
  -29.1119  -21.2710   20.1937 C   0  0  0  0  0  0
  -30.6578  -19.3784   23.1576 C   0  0  0  0  0  0
  -29.2656  -17.8027   18.4864 C   0  0  0  0  0  0
  -30.6338  -17.1072   21.1333 C   0  0  0  0  0  0
  -28.0441  -24.9917   19.9446 C   0  0  0  0  0  0
  -28.9808  -23.8132   20.4637 C   0  0  0  0  0  0
  -29.9961  -15.7723   20.8479 N   0  0  0  0  0  0
  -28.6741  -22.5479   19.7841 O   0  0  0  0  0  0
  -31.4621  -12.4960   19.1462 H   0  0  0  0  0  0
  -30.3358  -11.4159   19.9172 H   0  0  0  0  0  0
  -29.7610  -11.7392   17.4858 H   0  0  0  0  0  0
  -29.6384  -13.4649   17.7297 H   0  0  0  0  0  0
  -27.8617  -11.2942   18.8859 H   0  0  0  0  0  0
  -27.3661  -12.5635   17.7964 H   0  0  0  0  0  0
  -27.6513  -14.2585   19.4923 H   0  0  0  0  0  0
  -28.7063  -12.1333   21.4217 H   0  0  0  0  0  0
  -28.4458  -13.8172   21.8002 H   0  0  0  0  0  0
  -25.2757   -9.5677   22.4764 H   0  0  0  0  0  0
  -24.0003   -7.4621   22.7459 H   0  0  0  0  0  0
  -21.0851   -8.8763   19.8951 H   0  0  0  0  0  0
  -22.3701  -10.9673   19.6166 H   0  0  0  0  0  0
  -21.2000   -7.6139   23.9719 H   0  0  0  0  0  0
  -21.1480   -6.0512   25.9078 H   0  0  0  0  0  0
  -22.0604   -2.7610   23.2842 H   0  0  0  0  0  0
  -22.4146  -11.9869   22.4806 H   0  0  0  0  0  0
  -21.1099  -13.1187   22.2633 H   0  0  0  0  0  0
  -24.6443  -15.8383   20.5044 H   0  0  0  0  0  0
  -26.2622  -15.6326   20.0683 H   0  0  0  0  0  0
  -26.7200  -32.5466   23.1114 H   0  0  0  0  0  0
  -25.0139  -33.9733   25.0469 H   0  0  0  0  0  0
  -22.7124  -31.3095   21.4088 H   0  0  0  0  0  0
  -23.3753  -35.9609   23.3297 H   0  0  0  0  0  0
  -24.3576  -36.8894   22.2048 H   0  0  0  0  0  0
  -23.7245  -37.6482   23.6652 H   0  0  0  0  0  0
  -26.0994  -31.5568   20.6147 H   0  0  0  0  0  0
  -26.8401  -30.8323   22.0122 H   0  0  0  0  0  0
  -28.1049  -28.9655   21.2096 H   0  0  0  0  0  0
  -25.9471  -25.9725   18.9417 H   0  0  0  0  0  0
  -23.9673  -27.3410   18.9796 H   0  0  0  0  0  0
  -23.7512  -30.6088   19.4070 H   0  0  0  0  0  0
  -22.7529  -29.2604   19.8571 H   0  0  0  0  0  0
  -25.1299  -36.1923   25.0823 H   0  0  0  0  0  0
  -21.0010  -28.3273   24.1392 H   0  0  0  0  0  0
  -20.5701  -26.2304   23.3607 H   0  0  0  0  0  0
  -21.6659  -26.7455   22.1189 H   0  0  0  0  0  0
  -19.6908  -25.6301   21.1241 H   0  0  0  0  0  0
  -19.6680  -27.3202   20.6747 H   0  0  0  0  0  0
  -17.4215  -26.6704   21.4025 H   0  0  0  0  0  0
  -18.0327  -26.0056   22.9004 H   0  0  0  0  0  0
  -19.7937  -30.7297   24.2238 H   0  0  0  0  0  0
  -17.5009  -31.6259   24.5175 H   0  0  0  0  0  0
  -15.5352  -30.2972   23.7653 H   0  0  0  0  0  0
  -15.8695  -28.0815   22.7055 H   0  0  0  0  0  0
  -24.5926  -30.7063   25.7783 H   0  0  0  0  0  0
  -24.8918  -32.2902   26.4851 H   0  0  0  0  0  0
  -25.8065  -30.8934   27.0245 H   0  0  0  0  0  0
  -26.2923  -29.6754   24.1211 H   0  0  0  0  0  0
  -27.4046  -29.7265   25.4684 H   0  0  0  0  0  0
  -27.8793  -30.4277   23.9408 H   0  0  0  0  0  0
  -27.2674  -33.3622   26.2060 H   0  0  0  0  0  0
  -28.3881  -32.6859   25.0336 H   0  0  0  0  0  0
  -28.0716  -31.8453   26.5434 H   0  0  0  0  0  0
  -28.2596  -38.0089   24.7518 H   0  0  0  0  0  0
  -28.1076  -36.2623   24.6290 H   0  0  0  0  0  0
  -27.2291  -37.1445   25.8865 H   0  0  0  0  0  0
  -20.9358  -29.8748   21.6863 H   0  0  0  0  0  0
  -26.0165  -38.2846   24.1419 H   0  0  0  0  0  0
  -29.8013  -21.7168   22.1873 H   0  0  0  0  0  0
  -28.5360  -20.3963   18.3202 H   0  0  0  0  0  0
  -30.5627  -20.2680   23.7817 H   0  0  0  0  0  0
  -31.7173  -19.1271   23.1011 H   0  0  0  0  0  0
  -30.1304  -18.5750   23.6723 H   0  0  0  0  0  0
  -28.9682  -18.2455   17.5352 H   0  0  0  0  0  0
  -28.5182  -17.0556   18.7530 H   0  0  0  0  0  0
  -30.2186  -17.2967   18.3271 H   0  0  0  0  0  0
  -30.9101  -17.0451   22.1829 H   0  0  0  0  0  0
  -31.5902  -17.1524   20.6109 H   0  0  0  0  0  0
  -27.0644  -24.7379   20.3516 H   0  0  0  0  0  0
  -27.9673  -24.8826   18.8623 H   0  0  0  0  0  0
  -28.8658  -23.7078   21.5425 H   0  0  0  0  0  0
  -30.0255  -24.0599   20.2742 H   0  0  0  0  0  0
  -29.0167  -15.6743   21.0662 H   0  0  0  0  0  0
  1 25  1  0  0  0
  1 30  2  0  0  0
  1 82  1  0  0  0
  2  3  1  0  0  0
  2 25  1  0  0  0
  2 84  1  0  0  0
  2 85  1  0  0  0
  3  4  1  0  0  0
  3 86  1  0  0  0
  3 87  1  0  0  0
  4  5  1  0  0  0
  4 88  1  0  0  0
  4 89  1  0  0  0
  5  6  1  0  0  0
  5 26  1  0  0  0
  5 90  1  0  0  0
  6 25  1  0  0  0
  6 91  1  0  0  0
  6 92  1  0  0  0
  7  8  2  0  0  0
  7 26  1  0  0  0
  7 29  1  0  0  0
  8  9  1  0  0  0
  8 22  1  0  0  0
  9 10  1  0  0  0
  9 27  2  0  0  0
 10 11  2  0  0  0
 10 15  1  0  0  0
 11 12  1  0  0  0
 11 93  1  0  0  0
 12 13  2  0  0  0
 12 94  1  0  0  0
 13 14  1  0  0  0
 13 31  1  0  0  0
 14 15  2  0  0  0
 14 95  1  0  0  0
 15 96  1  0  0  0
 16 17  2  0  0  0
 16 21  1  0  0  0
 16 31  1  0  0  0
 17 18  1  0  0  0
 17 97  1  0  0  0
 18 19  2  0  0  0
 18 98  1  0  0  0
 19 20  1  0  0  0
 19 24  1  0  0  0
 20 21  2  0  0  0
 20 99  1  0  0  0
 21 23  1  0  0  0
 22 28  1  0  0  0
 22 32  2  0  0  0
 26 27  1  0  0  0
 28100  1  0  0  0
 28101  1  0  0  0
 29102  1  0  0  0
 29103  1  0  0  0
 33 34  1  0  0  0
 33 66  1  0  0  0
 33 70  2  0  0  0
 34 36  1  0  0  0
 34 59  1  0  0  0
 34104  1  0  0  0
 35 44  2  0  0  0
 35 45  1  0  0  0
 35 68  1  0  0  0
 36 56  1  0  0  0
 36105  1  0  0  0
 37 39  1  0  0  0
 37 47  1  0  0  0
 37 66  1  0  0  0
 37106  1  0  0  0
 38 43  2  0  0  0
 38 46  1  0  0  0
 38 47  1  0  0  0
 39 64  1  0  0  0
 39 67  2  0  0  0
 40 52  1  0  0  0
 40 53  2  0  0  0
 40 58  1  0  0  0
 41107  1  0  0  0
 41108  1  0  0  0
 41109  1  0  0  0
 41 48  1  0  0  0
 42 43  1  0  0  0
 42 66  1  0  0  0
 42110  1  0  0  0
 42111  1  0  0  0
 43 44  1  0  0  0
 44112  1  0  0  0
 45 46  2  0  0  0
 45113  1  0  0  0
 46114  1  0  0  0
 47115  1  0  0  0
 47116  1  0  0  0
 48 56  1  0  0  0
 48 65  1  0  0  0
 48117  1  0  0  0
 49 50  1  0  0  0
 49 53  1  0  0  0
 49 64  1  0  0  0
 49118  1  0  0  0
 50 51  1  0  0  0
 50119  1  0  0  0
 50120  1  0  0  0
 51 52  1  0  0  0
 51121  1  0  0  0
 51122  1  0  0  0
 52123  1  0  0  0
 52124  1  0  0  0
 53 54  1  0  0  0
 54 55  2  0  0  0
 54125  1  0  0  0
 55 57  1  0  0  0
 55126  1  0  0  0
 56 69  2  0  0  0
 57 58  2  0  0  0
 57127  1  0  0  0
 58128  1  0  0  0
 59 60  1  0  0  0
 59 61  1  0  0  0
 59 62  1  0  0  0
 60129  1  0  0  0
 60130  1  0  0  0
 60131  1  0  0  0
 61132  1  0  0  0
 61133  1  0  0  0
 61134  1  0  0  0
 62135  1  0  0  0
 62136  1  0  0  0
 62137  1  0  0  0
 63 65  1  0  0  0
 63138  1  0  0  0
 63139  1  0  0  0
 63140  1  0  0  0
 64141  1  0  0  0
 65142  1  0  0  0
 68 80  1  0  0  0
 71 73  2  0  0  0
 71 76  1  0  0  0
 71143  1  0  0  0
 72 74  1  0  0  0
 72 76  2  0  0  0
 72144  1  0  0  0
 73 75  1  0  0  0
 73 77  1  0  0  0
 74 75  2  0  0  0
 74 78  1  0  0  0
 75 79  1  0  0  0
 76 83  1  0  0  0
 77145  1  0  0  0
 77146  1  0  0  0
 77147  1  0  0  0
 78148  1  0  0  0
 78149  1  0  0  0
 78150  1  0  0  0
 79 82  1  0  0  0
 79151  1  0  0  0
 79152  1  0  0  0
 80 81  1  0  0  0
 80153  1  0  0  0
 80154  1  0  0  0
 81 83  1  0  0  0
 81155  1  0  0  0
 81156  1  0  0  0
 82157  1  0  0  0
M  ISO  4   1 100  68 101  80 101  82 100
M  END
> <chiral flag>
0

> <version>
0

> <s_m_source_file>
/data/baiqing/PycharmProjects/Reinvent-master-3.2/result/LINK_invent/BTK/process_docking_weight1_custom_sum_contain_oxygen_bond_distance_aromatic_linkinvent_7_9_3/rearranged_h_0140.sdf

> <i_m_source_file_index>
29

> <r_mmod_Potential_Energy-OPLS-2005>
42.2586326599121

> <r_mmod_Stretch_Energy-OPLS-2005>
83.2163696289062

> <r_mmod_Bend_Energy-OPLS-2005>
159.996536254883

> <r_mmod_Torsional_Energy-OPLS-2005>
203.276458740234

> <r_mmod_Improper_Torsional_Energy-OPLS-2005>
4.50205326080322

> <r_mmod_Van_der_Waal_Energy-OPLS-2005>
153.536163330078

> <r_mmod_Electrostatic_Energy-OPLS-2005>
-406.759979248047

> <r_mmod_Solvation_Energy-OPLS-2005>
-210.376220703125

> <b_mmod_Minimization_Converged-OPLS-2005>
0

> <r_mmod_RMS_Derivative-OPLS-2005>
1.62400460243225

$$$$
29
                    3D
 Structure written by MMmdl.
166174  0  0  1  0            999 V2000
  -30.5452  -14.8432   20.4515 C   0  0  0  0  0  0
  -30.4424  -12.5200   19.4720 C   0  0  0  0  0  0
  -29.5116  -12.5144   18.2379 C   0  0  0  0  0  0
  -28.0416  -12.3176   18.6604 C   0  0  0  0  0  0
  -27.6346  -13.2317   19.8453 C   0  0  2  0  0  0
  -28.6817  -13.1948   20.9775 C   0  0  0  0  0  0
  -25.2493  -13.8185   20.5704 C   0  0  0  0  0  0
  -24.1789  -13.0431   20.9224 C   0  0  0  0  0  0
  -24.6383  -11.6911   20.8758 C   0  0  0  0  0  0
  -23.9066  -10.4288   21.0417 C   0  0  0  0  0  0
  -24.3610   -9.4206   21.9202 C   0  0  0  0  0  0
  -23.6288   -8.2237   22.0767 C   0  0  0  0  0  0
  -22.4280   -8.0269   21.3546 C   0  0  0  0  0  0
  -21.9910   -9.0249   20.4655 C   0  0  0  0  0  0
  -22.7240  -10.2129   20.3070 C   0  0  0  0  0  0
  -21.6847   -6.0732   22.5278 C   0  0  0  0  0  0
  -21.4010   -6.5636   23.8211 C   0  0  0  0  0  0
  -21.3660   -5.6794   24.9177 C   0  0  0  0  0  0
  -21.6049   -4.3056   24.7230 C   0  0  0  0  0  0
  -21.8817   -3.8144   23.4350 C   0  0  0  0  0  0
  -21.9195   -4.6961   22.3406 C   0  0  0  0  0  0
  -22.7817  -13.5210   21.1887 C   0  0  0  0  0  0
  -22.1660   -4.2146   21.0989 F   0  0  0  0  0  0
  -21.5631   -3.4547   25.7745 F   0  0  0  0  0  0
  -29.9638  -13.5901   20.3821 N   0  0  0  0  0  0
  -26.2908  -12.9386   20.3279 N   0  0  0  0  0  0
  -25.9309  -11.6535   20.5768 N   0  0  0  0  0  0
  -22.0475  -12.8187   22.0441 N   0  0  0  0  0  0
  -25.4170  -15.1914   20.4095 N   0  0  0  0  0  0
  -31.7484  -14.9609   20.2043 O   0  0  0  0  0  0
  -21.6641   -6.8872   21.4239 O   0  0  0  0  0  0
  -22.3504  -14.5530   20.6758 O   0  0  0  0  0  0
  -24.6404  -31.8491   23.1905 C   0  0  0  0  0  0
  -25.9181  -32.4710   23.8310 C   0  0  1  0  0  0
  -27.2166  -27.1745   20.1384 C   0  0  0  0  0  0
  -25.5943  -33.8509   24.2230 N   0  0  0  0  0  0
  -23.4424  -30.4675   21.5373 C   0  0  2  0  0  0
  -24.8886  -28.8981   20.1142 C   0  0  0  0  0  0
  -22.7565  -29.4550   22.4894 C   0  0  0  0  0  0
  -18.0301  -28.1385   22.8471 C   0  0  0  0  0  0
  -24.1483  -36.7247   23.2656 C   0  0  0  0  0  0
  -25.9952  -30.7307   21.3851 C   0  0  0  0  0  0
  -26.0630  -29.3440   20.7301 C   0  0  0  0  0  0
  -27.2287  -28.4947   20.7296 C   0  0  0  0  0  0
  -26.0204  -26.8252   19.4725 C   0  0  0  0  0  0
  -24.8782  -27.6505   19.4715 C   0  0  0  0  0  0
  -23.6644  -29.7978   20.1560 C   0  0  0  0  0  0
  -25.4107  -36.3041   24.0345 C   0  0  1  0  0  0
  -20.5908  -28.3689   23.1266 C   0  0  2  0  0  0
  -20.6779  -26.9403   22.5412 C   0  0  0  0  0  0
  -19.5741  -26.6366   21.5233 C   0  0  0  0  0  0
  -18.1917  -26.7917   22.1629 C   0  0  0  0  0  0
  -19.1557  -28.8861   23.2858 C   0  0  0  0  0  0
  -18.9485  -30.1465   23.8865 C   0  0  0  0  0  0
  -17.6482  -30.6582   24.0558 C   0  0  0  0  0  0
  -25.9070  -34.9408   23.5100 C   0  0  0  0  0  0
  -16.5368  -29.9071   23.6352 C   0  0  0  0  0  0
  -16.7290  -28.6499   23.0356 C   0  0  0  0  0  0
  -26.4499  -31.6568   25.0750 C   0  0  0  0  0  0
  -25.3679  -31.3721   26.1456 C   0  0  0  0  0  0
  -27.0392  -30.2984   24.6290 C   0  0  0  0  0  0
  -27.6047  -32.4340   25.7495 C   0  0  0  0  0  0
  -27.5554  -37.1772   24.8466 C   0  0  0  0  0  0
  -21.4259  -29.3022   22.3644 N   0  0  0  0  0  0
  -26.4258  -37.3762   23.9428 N   0  0  0  0  0  0
  -24.7118  -31.0372   22.0924 N   0  0  0  0  0  0
  -23.4221  -28.8107   23.3048 O   0  0  0  0  0  0
  -28.3006  -26.2365   20.1900 O   0  0  0  0  0  0
  -26.5659  -34.8897   22.4676 O   0  0  0  0  0  0
  -23.5523  -32.1357   23.7134 O   0  0  0  0  0  0
  -28.4137  -23.9066   21.5041 C   0  0  0  0  0  0
  -28.7792  -23.8067   19.0529 C   0  0  0  0  0  0
  -28.1846  -22.3204   21.4427 C   0  0  2  0  0  0
  -29.6431  -22.4677   19.3977 C   0  0  1  0  0  0
  -28.1084  -24.7015   20.1872 C   0  0  2  0  0  0
  -29.2207  -21.4739   20.5928 C   0  0  2  0  0  0
  -26.7344  -21.9853   21.0386 C   0  0  0  0  0  0
  -30.2550  -22.5217   16.8534 C   0  0  0  0  0  0
  -31.6052  -21.1337   18.4291 C   0  0  0  0  0  0
  -29.9397  -17.4663   20.9532 C   0  0  0  0  0  0
  -29.4880  -18.7368   19.9985 C   0  0  0  0  0  0
  -30.1955  -21.7017   18.1579 C   0  0  0  0  0  0
  -29.7135  -15.9623   20.6104 N   0  0  0  0  0  0
  -28.7826  -20.0118   20.4611 O   0  0  0  0  0  0
  -31.4758  -12.6815   19.1645 H   0  0  0  0  0  0
  -30.4238  -11.5521   19.9749 H   0  0  0  0  0  0
  -29.8069  -11.7269   17.5432 H   0  0  0  0  0  0
  -29.6123  -13.4553   17.6951 H   0  0  0  0  0  0
  -27.9203  -11.2721   18.9468 H   0  0  0  0  0  0
  -27.3755  -12.4786   17.8118 H   0  0  0  0  0  0
  -27.6165  -14.2463   19.4467 H   0  0  0  0  0  0
  -28.7491  -12.1993   21.4196 H   0  0  0  0  0  0
  -28.4044  -13.8700   21.7898 H   0  0  0  0  0  0
  -25.2746   -9.5686   22.4784 H   0  0  0  0  0  0
  -23.9996   -7.4633   22.7477 H   0  0  0  0  0  0
  -21.0846   -8.8763   19.8956 H   0  0  0  0  0  0
  -22.3690  -10.9670   19.6177 H   0  0  0  0  0  0
  -21.1994   -7.6146   23.9708 H   0  0  0  0  0  0
  -21.1485   -6.0532   25.9078 H   0  0  0  0  0  0
  -22.0595   -2.7609   23.2859 H   0  0  0  0  0  0
  -22.4088  -11.9812   22.4758 H   0  0  0  0  0  0
  -21.1106  -13.1216   22.2706 H   0  0  0  0  0  0
  -24.6424  -15.8394   20.5092 H   0  0  0  0  0  0
  -26.2555  -15.6322   20.0549 H   0  0  0  0  0  0
  -26.7254  -32.5330   23.1050 H   0  0  0  0  0  0
  -25.0081  -33.9649   25.0365 H   0  0  0  0  0  0
  -22.7430  -31.2931   21.3836 H   0  0  0  0  0  0
  -23.3761  -35.9568   23.3310 H   0  0  0  0  0  0
  -24.3586  -36.8883   22.2081 H   0  0  0  0  0  0
  -23.7230  -37.6434   23.6683 H   0  0  0  0  0  0
  -26.1502  -31.4849   20.6127 H   0  0  0  0  0  0
  -26.8663  -30.7801   22.0260 H   0  0  0  0  0  0
  -28.1234  -28.8254   21.2366 H   0  0  0  0  0  0
  -25.9399  -25.8867   18.9447 H   0  0  0  0  0  0
  -23.9848  -27.3097   18.9673 H   0  0  0  0  0  0
  -23.8026  -30.5729   19.4009 H   0  0  0  0  0  0
  -22.7785  -29.2411   19.8462 H   0  0  0  0  0  0
  -25.1295  -36.1881   25.0843 H   0  0  0  0  0  0
  -21.0002  -28.3258   24.1393 H   0  0  0  0  0  0
  -20.5714  -26.2302   23.3613 H   0  0  0  0  0  0
  -21.6640  -26.7438   22.1192 H   0  0  0  0  0  0
  -19.6926  -25.6295   21.1242 H   0  0  0  0  0  0
  -19.6676  -27.3200   20.6778 H   0  0  0  0  0  0
  -17.4208  -26.6703   21.4004 H   0  0  0  0  0  0
  -18.0280  -26.0053   22.9015 H   0  0  0  0  0  0
  -19.7975  -30.7280   24.2185 H   0  0  0  0  0  0
  -17.5052  -31.6256   24.5172 H   0  0  0  0  0  0
  -15.5376  -30.2963   23.7697 H   0  0  0  0  0  0
  -15.8686  -28.0815   22.7082 H   0  0  0  0  0  0
  -24.5895  -30.7032   25.7763 H   0  0  0  0  0  0
  -24.8820  -32.2883   26.4830 H   0  0  0  0  0  0
  -25.7992  -30.8935   27.0267 H   0  0  0  0  0  0
  -26.3026  -29.6672   24.1315 H   0  0  0  0  0  0
  -27.4074  -29.7318   25.4854 H   0  0  0  0  0  0
  -27.8870  -30.4278   23.9566 H   0  0  0  0  0  0
  -27.2680  -33.3690   26.1974 H   0  0  0  0  0  0
  -28.3856  -32.6823   25.0298 H   0  0  0  0  0  0
  -28.0683  -31.8522   26.5473 H   0  0  0  0  0  0
  -28.2565  -38.0075   24.7554 H   0  0  0  0  0  0
  -28.1059  -36.2623   24.6238 H   0  0  0  0  0  0
  -27.2281  -37.1359   25.8867 H   0  0  0  0  0  0
  -20.9461  -29.8739   21.6827 H   0  0  0  0  0  0
  -26.0128  -38.2820   24.1460 H   0  0  0  0  0  0
  -29.4414  -24.1055   21.8102 H   0  0  0  0  0  0
  -27.7899  -24.3206   22.2950 H   0  0  0  0  0  0
  -27.9878  -23.5293   18.3561 H   0  0  0  0  0  0
  -29.4219  -24.4781   18.4856 H   0  0  0  0  0  0
  -28.2868  -21.9675   22.4691 H   0  0  0  0  0  0
  -30.5297  -22.9499   19.8124 H   0  0  0  0  0  0
  -27.0418  -24.5377   20.0638 H   0  0  0  0  0  0
  -30.1117  -21.3875   21.2185 H   0  0  0  0  0  0
  -26.5668  -22.1356   19.9706 H   0  0  0  0  0  0
  -26.0156  -22.6020   21.5784 H   0  0  0  0  0  0
  -26.4988  -20.9437   21.2624 H   0  0  0  0  0  0
  -29.2719  -22.8738   16.5431 H   0  0  0  0  0  0
  -30.6425  -21.9187   16.0299 H   0  0  0  0  0  0
  -30.9106  -23.3877   16.9570 H   0  0  0  0  0  0
  -31.6835  -20.6499   19.4015 H   0  0  0  0  0  0
  -32.3631  -21.9175   18.4149 H   0  0  0  0  0  0
  -31.8804  -20.3966   17.6737 H   0  0  0  0  0  0
  -29.3997  -17.6031   21.8914 H   0  0  0  0  0  0
  -30.9874  -17.6000   21.2260 H   0  0  0  0  0  0
  -28.7543  -18.3076   19.3165 H   0  0  0  0  0  0
  -30.3140  -18.9806   19.3365 H   0  0  0  0  0  0
  -29.5204  -20.8676   17.9696 H   0  0  0  0  0  0
  -28.7445  -15.6923   20.6804 H   0  0  0  0  0  0
  1 25  1  0  0  0
  1 30  2  0  0  0
  1 83  1  0  0  0
  2  3  1  0  0  0
  2 25  1  0  0  0
  2 85  1  0  0  0
  2 86  1  0  0  0
  3  4  1  0  0  0
  3 87  1  0  0  0
  3 88  1  0  0  0
  4  5  1  0  0  0
  4 89  1  0  0  0
  4 90  1  0  0  0
  5  6  1  0  0  0
  5 26  1  0  0  0
  5 91  1  0  0  0
  6 25  1  0  0  0
  6 92  1  0  0  0
  6 93  1  0  0  0
  7  8  2  0  0  0
  7 26  1  0  0  0
  7 29  1  0  0  0
  8  9  1  0  0  0
  8 22  1  0  0  0
  9 10  1  0  0  0
  9 27  2  0  0  0
 10 11  2  0  0  0
 10 15  1  0  0  0
 11 12  1  0  0  0
 11 94  1  0  0  0
 12 13  2  0  0  0
 12 95  1  0  0  0
 13 14  1  0  0  0
 13 31  1  0  0  0
 14 15  2  0  0  0
 14 96  1  0  0  0
 15 97  1  0  0  0
 16 17  2  0  0  0
 16 21  1  0  0  0
 16 31  1  0  0  0
 17 18  1  0  0  0
 17 98  1  0  0  0
 18 19  2  0  0  0
 18 99  1  0  0  0
 19 20  1  0  0  0
 19 24  1  0  0  0
 20 21  2  0  0  0
 20100  1  0  0  0
 21 23  1  0  0  0
 22 28  1  0  0  0
 22 32  2  0  0  0
 26 27  1  0  0  0
 28101  1  0  0  0
 28102  1  0  0  0
 29103  1  0  0  0
 29104  1  0  0  0
 33 34  1  0  0  0
 33 66  1  0  0  0
 33 70  2  0  0  0
 34 36  1  0  0  0
 34 59  1  0  0  0
 34105  1  0  0  0
 35 44  2  0  0  0
 35 45  1  0  0  0
 35 68  1  0  0  0
 36 56  1  0  0  0
 36106  1  0  0  0
 37 39  1  0  0  0
 37 47  1  0  0  0
 37 66  1  0  0  0
 37107  1  0  0  0
 38 43  2  0  0  0
 38 46  1  0  0  0
 38 47  1  0  0  0
 39 64  1  0  0  0
 39 67  2  0  0  0
 40 52  1  0  0  0
 40 53  2  0  0  0
 40 58  1  0  0  0
 41108  1  0  0  0
 41109  1  0  0  0
 41110  1  0  0  0
 41 48  1  0  0  0
 42 43  1  0  0  0
 42 66  1  0  0  0
 42111  1  0  0  0
 42112  1  0  0  0
 43 44  1  0  0  0
 44113  1  0  0  0
 45 46  2  0  0  0
 45114  1  0  0  0
 46115  1  0  0  0
 47116  1  0  0  0
 47117  1  0  0  0
 48 56  1  0  0  0
 48 65  1  0  0  0
 48118  1  0  0  0
 49 50  1  0  0  0
 49 53  1  0  0  0
 49 64  1  0  0  0
 49119  1  0  0  0
 50 51  1  0  0  0
 50120  1  0  0  0
 50121  1  0  0  0
 51 52  1  0  0  0
 51122  1  0  0  0
 51123  1  0  0  0
 52124  1  0  0  0
 52125  1  0  0  0
 53 54  1  0  0  0
 54 55  2  0  0  0
 54126  1  0  0  0
 55 57  1  0  0  0
 55127  1  0  0  0
 56 69  2  0  0  0
 57 58  2  0  0  0
 57128  1  0  0  0
 58129  1  0  0  0
 59 60  1  0  0  0
 59 61  1  0  0  0
 59 62  1  0  0  0
 60130  1  0  0  0
 60131  1  0  0  0
 60132  1  0  0  0
 61133  1  0  0  0
 61134  1  0  0  0
 61135  1  0  0  0
 62136  1  0  0  0
 62137  1  0  0  0
 62138  1  0  0  0
 63 65  1  0  0  0
 63139  1  0  0  0
 63140  1  0  0  0
 63141  1  0  0  0
 64142  1  0  0  0
 65143  1  0  0  0
 68 75  1  0  0  0
 71 73  1  0  0  0
 71 75  1  0  0  0
 71144  1  0  0  0
 71145  1  0  0  0
 72 75  1  0  0  0
 72146  1  0  0  0
 72147  1  0  0  0
 72 74  1  0  0  0
 73 76  1  0  0  0
 73 77  1  0  0  0
 73148  1  0  0  0
 74 76  1  0  0  0
 74 82  1  0  0  0
 74149  1  0  0  0
 75150  1  0  0  0
 76 84  1  0  0  0
 76151  1  0  0  0
 77152  1  0  0  0
 77153  1  0  0  0
 77154  1  0  0  0
 78155  1  0  0  0
 78156  1  0  0  0
 78157  1  0  0  0
 78 82  1  0  0  0
 79 82  1  0  0  0
 79158  1  0  0  0
 79159  1  0  0  0
 79160  1  0  0  0
 80 81  1  0  0  0
 80 83  1  0  0  0
 80161  1  0  0  0
 80162  1  0  0  0
 81 84  1  0  0  0
 81163  1  0  0  0
 81164  1  0  0  0
 82165  1  0  0  0
 83166  1  0  0  0
M  ISO  4   1 100  68 101  75 101  83 100
M  END
> <chiral flag>
0

> <version>
0

> <s_m_source_file>
/data/baiqing/PycharmProjects/Reinvent-master-3.2/result/LINK_invent/BTK/process_docking_weight1_custom_sum_contain_oxygen_bond_distance_aromatic_linkinvent_7_9_3/rearranged_h_0140.sdf

> <i_m_source_file_index>
30

> <r_mmod_Potential_Energy-OPLS-2005>
462.708190917969

> <r_mmod_Stretch_Energy-OPLS-2005>
197.542922973633

> <r_mmod_Bend_Energy-OPLS-2005>
310.689636230469

> <r_mmod_Torsional_Energy-OPLS-2005>
301.5185546875

> <r_mmod_Improper_Torsional_Energy-OPLS-2005>
4.43163442611694

> <r_mmod_Van_der_Waal_Energy-OPLS-2005>
126.150695800781

> <r_mmod_Electrostatic_Energy-OPLS-2005>
-418.344177246094

> <r_mmod_Solvation_Energy-OPLS-2005>
-199.908599853516

> <b_mmod_Minimization_Converged-OPLS-2005>
0

> <r_mmod_RMS_Derivative-OPLS-2005>
2.87981152534485

$$$$
30
                    3D
 Structure written by MMmdl.
168176  0  0  1  0            999 V2000
  -29.4574  -15.9772   20.3190 C   0  0  0  0  0  0
  -30.2807  -13.4076   19.6011 C   0  0  0  0  0  0
  -29.5302  -12.7645   18.3856 C   0  0  0  0  0  0
  -28.1261  -12.2815   18.7852 C   0  0  0  0  0  0
  -27.5017  -13.2771   19.7830 C   0  0  2  0  0  0
  -28.4083  -13.6421   20.9520 C   0  0  0  0  0  0
  -25.1888  -13.8111   20.5634 C   0  0  0  0  0  0
  -24.1378  -13.0300   20.9304 C   0  0  0  0  0  0
  -24.6093  -11.6816   20.8775 C   0  0  0  0  0  0
  -23.8906  -10.4204   21.0453 C   0  0  0  0  0  0
  -24.3546   -9.4146   21.9196 C   0  0  0  0  0  0
  -23.6256   -8.2172   22.0747 C   0  0  0  0  0  0
  -22.4229   -8.0215   21.3546 C   0  0  0  0  0  0
  -21.9840   -9.0163   20.4640 C   0  0  0  0  0  0
  -22.7129  -10.2046   20.3059 C   0  0  0  0  0  0
  -21.6830   -6.0701   22.5289 C   0  0  0  0  0  0
  -21.3999   -6.5622   23.8219 C   0  0  0  0  0  0
  -21.3651   -5.6780   24.9182 C   0  0  0  0  0  0
  -21.6046   -4.3044   24.7236 C   0  0  0  0  0  0
  -21.8823   -3.8132   23.4360 C   0  0  0  0  0  0
  -21.9189   -4.6938   22.3414 C   0  0  0  0  0  0
  -22.7466  -13.5091   21.2016 C   0  0  0  0  0  0
  -22.1659   -4.2132   21.0989 F   0  0  0  0  0  0
  -21.5630   -3.4531   25.7750 F   0  0  0  0  0  0
  -29.4117  -14.4829   20.3265 N   0  0  0  0  0  0
  -26.2079  -12.9294   20.2785 N   0  0  0  0  0  0
  -25.8933  -11.6441   20.5494 N   0  0  0  0  0  0
  -22.0181  -12.8078   22.0603 N   0  0  0  0  0  0
  -25.3555  -15.1861   20.4135 N   0  0  0  0  0  0
  -30.7112  -16.1199   20.1541 O   0  0  0  0  0  0
  -21.6604   -6.8816   21.4241 O   0  0  0  0  0  0
  -22.3194  -14.5419   20.6869 O   0  0  0  0  0  0
  -24.7855  -31.8871   22.7198 C   0  0  0  0  0  0
  -25.9947  -32.4775   23.6072 C   0  0  1  0  0  0
  -26.5353  -28.0103   21.4925 C   0  0  0  0  0  0
  -25.5960  -33.8263   24.0620 N   0  0  0  0  0  0
  -24.0682  -29.4444   21.0957 C   0  0  2  0  0  0
  -25.4051  -28.9895   19.4565 C   0  0  0  0  0  0
  -23.5736  -27.7156   22.1356 C   0  0  0  0  0  0
  -18.1480  -28.0905   22.7688 C   0  0  0  0  0  0
  -24.1420  -36.7276   23.2702 C   0  0  0  0  0  0
  -26.0767  -31.0318   20.8525 C   0  0  0  0  0  0
  -26.4075  -29.7075   20.1813 C   0  0  0  0  0  0
  -27.3417  -28.9261   20.8464 C   0  0  0  0  0  0
  -26.0397  -27.0498   20.5241 C   0  0  0  0  0  0
  -25.4117  -27.5923   19.4010 C   0  0  0  0  0  0
  -24.0864  -29.4910   19.5732 C   0  0  0  0  0  0
  -25.4162  -36.2938   24.0142 C   0  0  1  0  0  0
  -20.7476  -27.5854   23.2626 C   0  0  2  0  0  0
  -20.3726  -26.2493   22.6777 C   0  0  0  0  0  0
  -19.3436  -26.2294   21.5616 C   0  0  0  0  0  0
  -18.0384  -26.7480   22.0983 C   0  0  0  0  0  0
  -19.4086  -28.6023   23.2579 C   0  0  0  0  0  0
  -19.2040  -29.8252   23.9966 C   0  0  0  0  0  0
  -17.9507  -30.5049   24.1151 C   0  0  0  0  0  0
  -25.9256  -34.9571   23.4357 C   0  0  0  0  0  0
  -16.7741  -29.9470   23.5987 C   0  0  0  0  0  0
  -16.8867  -28.7193   22.9499 C   0  0  0  0  0  0
  -26.4609  -31.7094   24.9571 C   0  0  0  0  0  0
  -25.3876  -31.5477   26.0850 C   0  0  0  0  0  0
  -27.1076  -30.3379   24.6546 C   0  0  0  0  0  0
  -27.6121  -32.5057   25.6340 C   0  0  0  0  0  0
  -27.5534  -37.1755   24.8446 C   0  0  0  0  0  0
  -22.3497  -27.4793   22.9991 N   0  0  0  0  0  0
  -26.4180  -37.3817   23.9502 N   0  0  0  0  0  0
  -24.8403  -30.9136   21.6100 N   0  0  0  0  0  0
  -24.2725  -27.0556   22.8417 O   0  0  0  0  0  0
  -25.8813  -28.7428   22.6803 O   0  0  0  0  0  0
  -26.6092  -34.9543   22.4119 O   0  0  0  0  0  0
  -23.7178  -32.1914   23.2757 O   0  0  0  0  0  0
  -25.7583  -22.6709   19.5397 C   0  0  0  0  0  0
  -25.0462  -22.1933   21.4738 C   0  0  0  0  0  0
  -24.4892  -24.0057   19.3406 C   0  0  0  0  0  0
  -23.7949  -23.5753   21.4144 C   0  0  0  0  0  0
  -25.8698  -21.0691   20.3312 C   0  0  2  0  0  0
  -23.4297  -24.9977   20.3861 C   0  0  1  0  0  0
  -20.9192  -32.0350   22.7717 C   0  0  0  0  0  0
  -28.0320  -17.4732   20.3395 C   0  0  0  0  0  0
  -27.3945  -19.5327   20.4641 C   0  0  0  0  0  0
  -21.6688  -28.3011   20.7764 C   0  0  0  0  0  0
  -24.1974  -29.4953   23.5411 C   0  0  0  0  0  0
  -22.2089  -29.7729   22.4660 C   0  0  1  0  0  0
  -22.3276  -26.5468   20.2279 N   0  0  0  0  0  0
  -21.7849  -31.1434   21.9662 N   0  3  0  0  0  0
  -31.2004  -13.8616   19.2328 H   0  0  0  0  0  0
  -30.6172  -12.6383   20.2981 H   0  0  0  0  0  0
  -30.1129  -11.9505   17.9529 H   0  0  0  0  0  0
  -29.4336  -13.5210   17.6057 H   0  0  0  0  0  0
  -28.2149  -11.3005   19.2569 H   0  0  0  0  0  0
  -27.4932  -12.1539   17.9067 H   0  0  0  0  0  0
  -27.3369  -14.1726   19.1806 H   0  0  0  0  0  0
  -28.7973  -12.7703   21.4809 H   0  0  0  0  0  0
  -27.8749  -14.2427   21.6917 H   0  0  0  0  0  0
  -25.2688   -9.5654   22.4764 H   0  0  0  0  0  0
  -23.9981   -7.4556   22.7451 H   0  0  0  0  0  0
  -21.0777   -8.8667   19.8941 H   0  0  0  0  0  0
  -22.3588  -10.9591   19.6179 H   0  0  0  0  0  0
  -21.1984   -7.6132   23.9718 H   0  0  0  0  0  0
  -21.1469   -6.0509   25.9084 H   0  0  0  0  0  0
  -22.0614   -2.7596   23.2865 H   0  0  0  0  0  0
  -22.3843  -11.9740   22.4950 H   0  0  0  0  0  0
  -21.0811  -13.1085   22.2865 H   0  0  0  0  0  0
  -24.5878  -15.8345   20.5505 H   0  0  0  0  0  0
  -26.1793  -15.6255   20.0272 H   0  0  0  0  0  0
  -26.8876  -32.5884   22.9985 H   0  0  0  0  0  0
  -24.9685  -33.8771   24.8501 H   0  0  0  0  0  0
  -23.2609  -29.9883   20.6477 H   0  0  0  0  0  0
  -23.3765  -35.9502   23.3153 H   0  0  0  0  0  0
  -24.3388  -36.9310   22.2163 H   0  0  0  0  0  0
  -23.7102  -37.6279   23.7094 H   0  0  0  0  0  0
  -25.9406  -31.7876   20.0793 H   0  0  0  0  0  0
  -26.9517  -31.3409   21.4178 H   0  0  0  0  0  0
  -27.9968  -29.4881   21.4963 H   0  0  0  0  0  0
  -25.7010  -26.0794   20.8522 H   0  0  0  0  0  0
  -24.6695  -27.0135   18.8705 H   0  0  0  0  0  0
  -24.0750  -30.4706   19.0655 H   0  0  0  0  0  0
  -23.4290  -28.8293   19.0049 H   0  0  0  0  0  0
  -25.1476  -36.1327   25.0602 H   0  0  0  0  0  0
  -20.7938  -27.4311   24.3421 H   0  0  0  0  0  0
  -19.9310  -25.6743   23.4929 H   0  0  0  0  0  0
  -21.2139  -25.6105   22.3933 H   0  0  0  0  0  0
  -19.1746  -25.1854   21.3012 H   0  0  0  0  0  0
  -19.6033  -26.6633   20.6058 H   0  0  0  0  0  0
  -17.3015  -26.7944   21.2932 H   0  0  0  0  0  0
  -17.6479  -26.0529   22.8450 H   0  0  0  0  0  0
  -20.0181  -30.2287   24.5823 H   0  0  0  0  0  0
  -17.8886  -31.4248   24.6825 H   0  0  0  0  0  0
  -15.8151  -30.4307   23.7262 H   0  0  0  0  0  0
  -15.9863  -28.2496   22.5822 H   0  0  0  0  0  0
  -24.3587  -31.6568   25.7475 H   0  0  0  0  0  0
  -25.4867  -32.3273   26.8409 H   0  0  0  0  0  0
  -25.4772  -30.6012   26.6213 H   0  0  0  0  0  0
  -26.4276  -29.5059   24.7973 H   0  0  0  0  0  0
  -27.9204  -30.1020   25.3427 H   0  0  0  0  0  0
  -27.5421  -30.3026   23.6564 H   0  0  0  0  0  0
  -27.3080  -33.5073   25.9415 H   0  0  0  0  0  0
  -28.4610  -32.6255   24.9594 H   0  0  0  0  0  0
  -27.9800  -32.0130   26.5361 H   0  0  0  0  0  0
  -28.2468  -38.0144   24.7682 H   0  0  0  0  0  0
  -28.1111  -36.2701   24.6002 H   0  0  0  0  0  0
  -27.2331  -37.1097   25.8860 H   0  0  0  0  0  0
  -22.6829  -26.7714   23.6380 H   0  0  0  0  0  0
  -25.9935  -38.2764   24.1770 H   0  0  0  0  0  0
  -26.6417  -23.2089   19.9023 H   0  0  0  0  0  0
  -26.0426  -22.4517   18.5120 H   0  0  0  0  0  0
  -24.6301  -21.5178   22.2219 H   0  0  0  0  0  0
  -25.8711  -22.6489   22.0241 H   0  0  0  0  0  0
  -23.7859  -23.5657   18.6320 H   0  0  0  0  0  0
  -25.0112  -24.7454   18.7351 H   0  0  0  0  0  0
  -23.8167  -23.9907   22.4234 H   0  0  0  0  0  0
  -22.8571  -23.0192   21.4096 H   0  0  0  0  0  0
  -25.0578  -20.5002   19.8735 H   0  0  0  0  0  0
  -22.5063  -24.5480   20.0193 H   0  0  0  0  0  0
  -21.0910  -33.0659   22.4578 H   0  0  0  0  0  0
  -21.1496  -31.9972   23.8358 H   0  0  0  0  0  0
  -19.8631  -31.8345   22.6009 H   0  0  0  0  0  0
  -27.5882  -17.2262   19.3755 H   0  0  0  0  0  0
  -27.3587  -17.0219   21.0678 H   0  0  0  0  0  0
  -27.7854  -19.7689   21.4545 H   0  0  0  0  0  0
  -28.1459  -19.9827   19.8167 H   0  0  0  0  0  0
  -21.6468  -28.8715   19.8522 H   0  0  0  0  0  0
  -20.5921  -28.2822   20.8539 H   0  0  0  0  0  0
  -23.9983  -28.7951   24.3598 H   0  0  0  0  0  0
  -24.3673  -30.1884   24.3387 H   0  0  0  0  0  0
  -21.5915  -29.7610   23.3370 H   0  0  0  0  0  0
  -21.8221  -26.3813   19.3618 H   0  0  0  0  0  0
  -22.6381  -31.6865   21.9064 H   0  0  0  0  0  0
  -21.3847  -31.0909   21.0406 H   0  0  0  0  0  0
  1 25  1  0  0  0
  1 30  2  0  0  0
  1 78  1  0  0  0
  2  3  1  0  0  0
  2 25  1  0  0  0
  2 85  1  0  0  0
  2 86  1  0  0  0
  3  4  1  0  0  0
  3 87  1  0  0  0
  3 88  1  0  0  0
  4  5  1  0  0  0
  4 89  1  0  0  0
  4 90  1  0  0  0
  5  6  1  0  0  0
  5 26  1  0  0  0
  5 91  1  0  0  0
  6 25  1  0  0  0
  6 92  1  0  0  0
  6 93  1  0  0  0
  7  8  2  0  0  0
  7 26  1  0  0  0
  7 29  1  0  0  0
  8  9  1  0  0  0
  8 22  1  0  0  0
  9 10  1  0  0  0
  9 27  2  0  0  0
 10 11  2  0  0  0
 10 15  1  0  0  0
 11 12  1  0  0  0
 11 94  1  0  0  0
 12 13  2  0  0  0
 12 95  1  0  0  0
 13 14  1  0  0  0
 13 31  1  0  0  0
 14 15  2  0  0  0
 14 96  1  0  0  0
 15 97  1  0  0  0
 16 17  2  0  0  0
 16 21  1  0  0  0
 16 31  1  0  0  0
 17 18  1  0  0  0
 17 98  1  0  0  0
 18 19  2  0  0  0
 18 99  1  0  0  0
 19 20  1  0  0  0
 19 24  1  0  0  0
 20 21  2  0  0  0
 20100  1  0  0  0
 21 23  1  0  0  0
 22 28  1  0  0  0
 22 32  2  0  0  0
 26 27  1  0  0  0
 28101  1  0  0  0
 28102  1  0  0  0
 29103  1  0  0  0
 29104  1  0  0  0
 33 34  1  0  0  0
 33 66  1  0  0  0
 33 70  2  0  0  0
 34 36  1  0  0  0
 34 59  1  0  0  0
 34105  1  0  0  0
 35 44  2  0  0  0
 35 45  1  0  0  0
 35 68  1  0  0  0
 36 56  1  0  0  0
 36106  1  0  0  0
 37 39  1  0  0  0
 37 47  1  0  0  0
 37 66  1  0  0  0
 37107  1  0  0  0
 38 43  2  0  0  0
 38 46  1  0  0  0
 38 47  1  0  0  0
 39 64  1  0  0  0
 39 67  2  0  0  0
 40 52  1  0  0  0
 40 53  2  0  0  0
 40 58  1  0  0  0
 41108  1  0  0  0
 41109  1  0  0  0
 41110  1  0  0  0
 41 48  1  0  0  0
 42 43  1  0  0  0
 42 66  1  0  0  0
 42111  1  0  0  0
 42112  1  0  0  0
 43 44  1  0  0  0
 44113  1  0  0  0
 45 46  2  0  0  0
 45114  1  0  0  0
 46115  1  0  0  0
 47116  1  0  0  0
 47117  1  0  0  0
 48 56  1  0  0  0
 48 65  1  0  0  0
 48118  1  0  0  0
 49 50  1  0  0  0
 49 53  1  0  0  0
 49 64  1  0  0  0
 49119  1  0  0  0
 50 51  1  0  0  0
 50120  1  0  0  0
 50121  1  0  0  0
 51 52  1  0  0  0
 51122  1  0  0  0
 51123  1  0  0  0
 52124  1  0  0  0
 52125  1  0  0  0
 53 54  1  0  0  0
 54 55  2  0  0  0
 54126  1  0  0  0
 55 57  1  0  0  0
 55127  1  0  0  0
 56 69  2  0  0  0
 57 58  2  0  0  0
 57128  1  0  0  0
 58129  1  0  0  0
 59 60  1  0  0  0
 59 61  1  0  0  0
 59 62  1  0  0  0
 60130  1  0  0  0
 60131  1  0  0  0
 60132  1  0  0  0
 61133  1  0  0  0
 61134  1  0  0  0
 61135  1  0  0  0
 62136  1  0  0  0
 62137  1  0  0  0
 62138  1  0  0  0
 63 65  1  0  0  0
 63139  1  0  0  0
 63140  1  0  0  0
 63141  1  0  0  0
 64142  1  0  0  0
 65143  1  0  0  0
 68 81  1  0  0  0
 71 73  1  0  0  0
 71 75  1  0  0  0
 71144  1  0  0  0
 71145  1  0  0  0
 72 74  1  0  0  0
 72 75  1  0  0  0
 72146  1  0  0  0
 72147  1  0  0  0
 73 76  1  0  0  0
 73148  1  0  0  0
 73149  1  0  0  0
 74 76  1  0  0  0
 74150  1  0  0  0
 74151  1  0  0  0
 75 79  1  0  0  0
 75152  1  0  0  0
 76 83  1  0  0  0
 76153  1  0  0  0
 77 84  1  0  0  0
 77154  1  0  0  0
 77155  1  0  0  0
 77156  1  0  0  0
 78 79  1  0  0  0
 78157  1  0  0  0
 78158  1  0  0  0
 79159  1  0  0  0
 79160  1  0  0  0
 80 83  1  0  0  0
 80161  1  0  0  0
 80162  1  0  0  0
 80 82  1  0  0  0
 81 82  1  0  0  0
 81163  1  0  0  0
 81164  1  0  0  0
 82 84  1  0  0  0
 82165  1  0  0  0
 83166  1  0  0  0
 84167  1  0  0  0
 84168  1  0  0  0
M  CHG  1  84   1
M  ISO  4   1 100  68 101  78 100  81 101
M  END
> <chiral flag>
0

> <version>
0

> <s_m_source_file>
/data/baiqing/PycharmProjects/Reinvent-master-3.2/result/LINK_invent/BTK/process_docking_weight1_custom_sum_contain_oxygen_bond_distance_aromatic_linkinvent_7_9_3/rearranged_h_0140.sdf

> <i_m_source_file_index>
31

> <r_mmod_Potential_Energy-OPLS-2005>
15011.0595703125

> <r_mmod_Stretch_Energy-OPLS-2005>
5352.796875

> <r_mmod_Bend_Energy-OPLS-2005>
2440.83422851562

> <r_mmod_Torsional_Energy-OPLS-2005>
693.065490722656

> <r_mmod_Improper_Torsional_Energy-OPLS-2005>
90.3468551635742

> <r_mmod_Van_der_Waal_Energy-OPLS-2005>
1740.75109863281

> <r_mmod_Electrostatic_Energy-OPLS-2005>
-267.911865234375

> <r_mmod_Solvation_Energy-OPLS-2005>
-369.579223632812

> <b_mmod_Minimization_Converged-OPLS-2005>
0

> <r_mmod_RMS_Derivative-OPLS-2005>
6.12940740585327

$$$$
31
                    3D
 Structure written by MMmdl.
156164  0  0  1  0            999 V2000
  -30.5150  -14.9565   20.4203 C   0  0  0  0  0  0
  -30.4462  -12.5982   19.4768 C   0  0  0  0  0  0
  -29.5164  -12.5167   18.2437 C   0  0  0  0  0  0
  -28.0510  -12.3037   18.6709 C   0  0  0  0  0  0
  -27.6270  -13.2409   19.8312 C   0  0  2  0  0  0
  -28.6741  -13.2654   20.9622 C   0  0  0  0  0  0
  -25.2468  -13.8197   20.5702 C   0  0  0  0  0  0
  -24.1781  -13.0429   20.9236 C   0  0  0  0  0  0
  -24.6390  -11.6916   20.8767 C   0  0  0  0  0  0
  -23.9074  -10.4288   21.0420 C   0  0  0  0  0  0
  -24.3623   -9.4201   21.9196 C   0  0  0  0  0  0
  -23.6293   -8.2239   22.0760 C   0  0  0  0  0  0
  -22.4278   -8.0279   21.3544 C   0  0  0  0  0  0
  -21.9918   -9.0260   20.4649 C   0  0  0  0  0  0
  -22.7249  -10.2135   20.3066 C   0  0  0  0  0  0
  -21.6853   -6.0733   22.5275 C   0  0  0  0  0  0
  -21.4008   -6.5639   23.8208 C   0  0  0  0  0  0
  -21.3653   -5.6793   24.9173 C   0  0  0  0  0  0
  -21.6049   -4.3055   24.7224 C   0  0  0  0  0  0
  -21.8818   -3.8146   23.4347 C   0  0  0  0  0  0
  -21.9194   -4.6961   22.3402 C   0  0  0  0  0  0
  -22.7804  -13.5209   21.1884 C   0  0  0  0  0  0
  -22.1664   -4.2145   21.0977 F   0  0  0  0  0  0
  -21.5631   -3.4540   25.7740 F   0  0  0  0  0  0
  -29.9393  -13.6905   20.3516 N   0  0  0  0  0  0
  -26.2878  -12.9413   20.3221 N   0  0  0  0  0  0
  -25.9316  -11.6552   20.5744 N   0  0  0  0  0  0
  -22.0453  -12.8201   22.0441 N   0  0  0  0  0  0
  -25.4134  -15.1924   20.4100 N   0  0  0  0  0  0
  -31.7326  -15.0383   20.2268 O   0  0  0  0  0  0
  -21.6640   -6.8877   21.4239 O   0  0  0  0  0  0
  -22.3493  -14.5517   20.6731 O   0  0  0  0  0  0
  -24.6439  -31.8440   23.1872 C   0  0  0  0  0  0
  -25.9206  -32.4694   23.8262 C   0  0  1  0  0  0
  -27.2141  -27.1254   20.1660 C   0  0  0  0  0  0
  -25.5948  -33.8497   24.2176 N   0  0  0  0  0  0
  -23.4487  -30.4609   21.5336 C   0  0  2  0  0  0
  -24.8977  -28.8777   20.1210 C   0  0  0  0  0  0
  -22.7568  -29.4541   22.4868 C   0  0  0  0  0  0
  -18.0304  -28.1385   22.8485 C   0  0  0  0  0  0
  -24.1483  -36.7246   23.2645 C   0  0  0  0  0  0
  -26.0034  -30.7134   21.3874 C   0  0  0  0  0  0
  -26.0765  -29.3198   20.7376 C   0  0  0  0  0  0
  -27.2405  -28.4611   20.7398 C   0  0  0  0  0  0
  -26.0102  -26.7793   19.5221 C   0  0  0  0  0  0
  -24.8766  -27.6201   19.4982 C   0  0  0  0  0  0
  -23.6778  -29.7851   20.1557 C   0  0  0  0  0  0
  -25.4119  -36.3029   24.0312 C   0  0  1  0  0  0
  -20.5913  -28.3720   23.1234 C   0  0  2  0  0  0
  -20.6789  -26.9423   22.5401 C   0  0  0  0  0  0
  -19.5763  -26.6378   21.5207 C   0  0  0  0  0  0
  -18.1944  -26.7929   22.1620 C   0  0  0  0  0  0
  -19.1560  -28.8872   23.2849 C   0  0  0  0  0  0
  -18.9481  -30.1464   23.8871 C   0  0  0  0  0  0
  -17.6480  -30.6586   24.0557 C   0  0  0  0  0  0
  -25.9074  -34.9405   23.5055 C   0  0  0  0  0  0
  -16.5368  -29.9078   23.6334 C   0  0  0  0  0  0
  -16.7290  -28.6494   23.0361 C   0  0  0  0  0  0
  -26.4520  -31.6570   25.0713 C   0  0  0  0  0  0
  -25.3689  -31.3763   26.1400 C   0  0  0  0  0  0
  -27.0399  -30.2972   24.6302 C   0  0  0  0  0  0
  -27.6050  -32.4345   25.7491 C   0  0  0  0  0  0
  -27.5567  -37.1778   24.8466 C   0  0  0  0  0  0
  -21.4259  -29.3053   22.3613 N   0  0  0  0  0  0
  -26.4281  -37.3739   23.9405 N   0  0  0  0  0  0
  -24.7185  -31.0278   22.0917 N   0  0  0  0  0  0
  -23.4202  -28.8083   23.3023 O   0  0  0  0  0  0
  -28.2674  -26.1449   20.1158 O   0  0  0  0  0  0
  -26.5663  -34.8905   22.4636 O   0  0  0  0  0  0
  -23.5555  -32.1329   23.7073 O   0  0  0  0  0  0
  -29.3975  -22.0250   20.1455 C   0  0  0  0  0  0
  -27.3762  -20.8463   20.6504 C   0  0  0  0  0  0
  -28.9196  -20.5237   20.6233 C   0  0  1  0  0  0
  -28.3461  -23.1195   20.7410 C   0  0  1  0  0  0
  -28.4308  -18.5376   18.8843 C   0  0  0  0  0  0
  -28.2361  -24.8267   20.9355 C   0  0  0  0  0  0
  -29.8797  -17.6458   20.8745 C   0  0  0  0  0  0
  -29.3942  -19.0045   19.9874 C   0  0  2  0  0  0
  -29.6891  -16.1140   20.5047 N   0  0  0  0  0  0
  -27.0904  -22.3332   20.6688 N   0  3  0  0  0  0
  -31.4716  -12.7828   19.1533 H   0  0  0  0  0  0
  -30.4656  -11.6495   20.0150 H   0  0  0  0  0  0
  -29.8332  -11.7075   17.5837 H   0  0  0  0  0  0
  -29.5978  -13.4357   17.6613 H   0  0  0  0  0  0
  -27.9512  -11.2649   18.9871 H   0  0  0  0  0  0
  -27.3828  -12.4261   17.8178 H   0  0  0  0  0  0
  -27.5894  -14.2410   19.3996 H   0  0  0  0  0  0
  -28.7715  -12.2860   21.4327 H   0  0  0  0  0  0
  -28.3767  -13.9602   21.7493 H   0  0  0  0  0  0
  -25.2761   -9.5677   22.4778 H   0  0  0  0  0  0
  -23.9998   -7.4629   22.7480 H   0  0  0  0  0  0
  -21.0847   -8.8781   19.8954 H   0  0  0  0  0  0
  -22.3705  -10.9681   19.6179 H   0  0  0  0  0  0
  -21.1993   -7.6145   23.9705 H   0  0  0  0  0  0
  -21.1476   -6.0526   25.9073 H   0  0  0  0  0  0
  -22.0604   -2.7607   23.2850 H   0  0  0  0  0  0
  -22.4070  -11.9855   22.4818 H   0  0  0  0  0  0
  -21.1071  -13.1224   22.2645 H   0  0  0  0  0  0
  -24.6388  -15.8392   20.5134 H   0  0  0  0  0  0
  -26.2461  -15.6314   20.0416 H   0  0  0  0  0  0
  -26.7274  -32.5302   23.0989 H   0  0  0  0  0  0
  -25.0068  -33.9598   25.0308 H   0  0  0  0  0  0
  -22.7518  -31.2863   21.3752 H   0  0  0  0  0  0
  -23.3750  -35.9576   23.3310 H   0  0  0  0  0  0
  -24.3558  -36.8885   22.2059 H   0  0  0  0  0  0
  -23.7236  -37.6438   23.6691 H   0  0  0  0  0  0
  -26.1577  -31.4638   20.6108 H   0  0  0  0  0  0
  -26.8734  -30.7689   22.0299 H   0  0  0  0  0  0
  -28.1474  -28.8020   21.2210 H   0  0  0  0  0  0
  -25.9362  -25.8153   19.0392 H   0  0  0  0  0  0
  -23.9759  -27.2760   19.0070 H   0  0  0  0  0  0
  -23.8201  -30.5567   19.3978 H   0  0  0  0  0  0
  -22.7911  -29.2296   19.8446 H   0  0  0  0  0  0
  -25.1307  -36.1857   25.0804 H   0  0  0  0  0  0
  -21.0002  -28.3316   24.1352 H   0  0  0  0  0  0
  -20.5680  -26.2329   23.3619 H   0  0  0  0  0  0
  -21.6657  -26.7426   22.1198 H   0  0  0  0  0  0
  -19.6916  -25.6279   21.1257 H   0  0  0  0  0  0
  -19.6699  -27.3169   20.6723 H   0  0  0  0  0  0
  -17.4214  -26.6680   21.4024 H   0  0  0  0  0  0
  -18.0337  -26.0067   22.9009 H   0  0  0  0  0  0
  -19.7956  -30.7283   24.2236 H   0  0  0  0  0  0
  -17.5034  -31.6268   24.5164 H   0  0  0  0  0  0
  -15.5365  -30.2969   23.7680 H   0  0  0  0  0  0
  -15.8689  -28.0799   22.7092 H   0  0  0  0  0  0
  -24.5870  -30.7110   25.7709 H   0  0  0  0  0  0
  -24.8859  -32.2946   26.4761 H   0  0  0  0  0  0
  -25.7957  -30.8974   27.0222 H   0  0  0  0  0  0
  -26.3024  -29.6669   24.1323 H   0  0  0  0  0  0
  -27.4029  -29.7304   25.4883 H   0  0  0  0  0  0
  -27.8921  -30.4206   23.9617 H   0  0  0  0  0  0
  -27.2658  -33.3690   26.1975 H   0  0  0  0  0  0
  -28.3909  -32.6836   25.0345 H   0  0  0  0  0  0
  -28.0666  -31.8527   26.5482 H   0  0  0  0  0  0
  -28.2587  -38.0071   24.7513 H   0  0  0  0  0  0
  -28.1064  -36.2602   24.6309 H   0  0  0  0  0  0
  -27.2277  -37.1441   25.8866 H   0  0  0  0  0  0
  -20.9468  -29.8784   21.6803 H   0  0  0  0  0  0
  -26.0152  -38.2804   24.1425 H   0  0  0  0  0  0
  -29.3955  -22.0789   19.0563 H   0  0  0  0  0  0
  -30.4171  -22.2346   20.4711 H   0  0  0  0  0  0
  -26.9032  -20.3662   21.5085 H   0  0  0  0  0  0
  -26.8704  -20.4530   19.7703 H   0  0  0  0  0  0
  -29.2336  -20.4775   21.6674 H   0  0  0  0  0  0
  -28.5653  -22.9357   21.7955 H   0  0  0  0  0  0
  -28.2096  -19.3411   18.1804 H   0  0  0  0  0  0
  -27.4887  -18.1806   19.3017 H   0  0  0  0  0  0
  -28.8611  -17.7189   18.3063 H   0  0  0  0  0  0
  -29.0623  -25.0315   21.6171 H   0  0  0  0  0  0
  -27.3616  -24.9584   21.5749 H   0  0  0  0  0  0
  -29.3744  -17.7367   21.8361 H   0  0  0  0  0  0
  -30.9337  -17.7768   21.1218 H   0  0  0  0  0  0
  -30.3050  -19.2609   19.4442 H   0  0  0  0  0  0
  -28.7148  -15.8539   20.4885 H   0  0  0  0  0  0
  -26.4849  -22.5510   21.4464 H   0  0  0  0  0  0
  -26.5936  -22.5706   19.8244 H   0  0  0  0  0  0
  1 25  1  0  0  0
  1 30  2  0  0  0
  1 79  1  0  0  0
  2  3  1  0  0  0
  2 25  1  0  0  0
  2 81  1  0  0  0
  2 82  1  0  0  0
  3  4  1  0  0  0
  3 83  1  0  0  0
  3 84  1  0  0  0
  4  5  1  0  0  0
  4 85  1  0  0  0
  4 86  1  0  0  0
  5  6  1  0  0  0
  5 26  1  0  0  0
  5 87  1  0  0  0
  6 25  1  0  0  0
  6 88  1  0  0  0
  6 89  1  0  0  0
  7  8  2  0  0  0
  7 26  1  0  0  0
  7 29  1  0  0  0
  8  9  1  0  0  0
  8 22  1  0  0  0
  9 10  1  0  0  0
  9 27  2  0  0  0
 10 11  2  0  0  0
 10 15  1  0  0  0
 11 12  1  0  0  0
 11 90  1  0  0  0
 12 13  2  0  0  0
 12 91  1  0  0  0
 13 14  1  0  0  0
 13 31  1  0  0  0
 14 15  2  0  0  0
 14 92  1  0  0  0
 15 93  1  0  0  0
 16 17  2  0  0  0
 16 21  1  0  0  0
 16 31  1  0  0  0
 17 18  1  0  0  0
 17 94  1  0  0  0
 18 19  2  0  0  0
 18 95  1  0  0  0
 19 20  1  0  0  0
 19 24  1  0  0  0
 20 21  2  0  0  0
 20 96  1  0  0  0
 21 23  1  0  0  0
 22 28  1  0  0  0
 22 32  2  0  0  0
 26 27  1  0  0  0
 28 97  1  0  0  0
 28 98  1  0  0  0
 29 99  1  0  0  0
 29100  1  0  0  0
 33 34  1  0  0  0
 33 66  1  0  0  0
 33 70  2  0  0  0
 34 36  1  0  0  0
 34 59  1  0  0  0
 34101  1  0  0  0
 35 44  2  0  0  0
 35 45  1  0  0  0
 35 68  1  0  0  0
 36 56  1  0  0  0
 36102  1  0  0  0
 37 39  1  0  0  0
 37 47  1  0  0  0
 37 66  1  0  0  0
 37103  1  0  0  0
 38 43  2  0  0  0
 38 46  1  0  0  0
 38 47  1  0  0  0
 39 64  1  0  0  0
 39 67  2  0  0  0
 40 52  1  0  0  0
 40 53  2  0  0  0
 40 58  1  0  0  0
 41104  1  0  0  0
 41105  1  0  0  0
 41106  1  0  0  0
 41 48  1  0  0  0
 42 43  1  0  0  0
 42 66  1  0  0  0
 42107  1  0  0  0
 42108  1  0  0  0
 43 44  1  0  0  0
 44109  1  0  0  0
 45 46  2  0  0  0
 45110  1  0  0  0
 46111  1  0  0  0
 47112  1  0  0  0
 47113  1  0  0  0
 48 56  1  0  0  0
 48 65  1  0  0  0
 48114  1  0  0  0
 49 50  1  0  0  0
 49 53  1  0  0  0
 49 64  1  0  0  0
 49115  1  0  0  0
 50 51  1  0  0  0
 50116  1  0  0  0
 50117  1  0  0  0
 51 52  1  0  0  0
 51118  1  0  0  0
 51119  1  0  0  0
 52120  1  0  0  0
 52121  1  0  0  0
 53 54  1  0  0  0
 54 55  2  0  0  0
 54122  1  0  0  0
 55 57  1  0  0  0
 55123  1  0  0  0
 56 69  2  0  0  0
 57 58  2  0  0  0
 57124  1  0  0  0
 58125  1  0  0  0
 59 60  1  0  0  0
 59 61  1  0  0  0
 59 62  1  0  0  0
 60126  1  0  0  0
 60127  1  0  0  0
 60128  1  0  0  0
 61129  1  0  0  0
 61130  1  0  0  0
 61131  1  0  0  0
 62132  1  0  0  0
 62133  1  0  0  0
 62134  1  0  0  0
 63 65  1  0  0  0
 63135  1  0  0  0
 63136  1  0  0  0
 63137  1  0  0  0
 64138  1  0  0  0
 65139  1  0  0  0
 68 76  1  0  0  0
 71 74  1  0  0  0
 71140  1  0  0  0
 71141  1  0  0  0
 71 73  1  0  0  0
 72 73  1  0  0  0
 72 80  1  0  0  0
 72142  1  0  0  0
 72143  1  0  0  0
 73 78  1  0  0  0
 73144  1  0  0  0
 74 76  1  0  0  0
 74 80  1  0  0  0
 74145  1  0  0  0
 75146  1  0  0  0
 75147  1  0  0  0
 75148  1  0  0  0
 75 78  1  0  0  0
 76149  1  0  0  0
 76150  1  0  0  0
 77 78  1  0  0  0
 77 79  1  0  0  0
 77151  1  0  0  0
 77152  1  0  0  0
 78153  1  0  0  0
 79154  1  0  0  0
 80155  1  0  0  0
 80156  1  0  0  0
M  CHG  1  80   1
M  ISO  4   1 100  68 101  76 101  79 100
M  END
> <chiral flag>
0

> <version>
0

> <s_m_source_file>
/data/baiqing/PycharmProjects/Reinvent-master-3.2/result/LINK_invent/BTK/process_docking_weight1_custom_sum_contain_oxygen_bond_distance_aromatic_linkinvent_7_9_3/rearranged_h_0140.sdf

> <i_m_source_file_index>
32

> <r_mmod_Potential_Energy-OPLS-2005>
619.426696777344

> <r_mmod_Stretch_Energy-OPLS-2005>
273.598022460938

> <r_mmod_Bend_Energy-OPLS-2005>
419.970062255859

> <r_mmod_Torsional_Energy-OPLS-2005>
326.594543457031

> <r_mmod_Improper_Torsional_Energy-OPLS-2005>
4.73480892181396

> <r_mmod_Van_der_Waal_Energy-OPLS-2005>
107.884063720703

> <r_mmod_Electrostatic_Energy-OPLS-2005>
-250.762405395508

> <r_mmod_Solvation_Energy-OPLS-2005>
-462.707153320312

> <b_mmod_Minimization_Converged-OPLS-2005>
0

> <r_mmod_RMS_Derivative-OPLS-2005>
1.37085247039795

$$$$
32
                    3D
 Structure written by MMmdl.
166175  0  0  1  0            999 V2000
  -30.7541  -14.4066   20.6046 C   0  0  0  0  0  0
  -30.4582  -12.2859   19.4002 C   0  0  0  0  0  0
  -29.5296  -12.5387   18.1971 C   0  0  0  0  0  0
  -28.0449  -12.4291   18.6065 C   0  0  0  0  0  0
  -27.6982  -13.2197   19.8979 C   0  0  2  0  0  0
  -28.7475  -12.9437   21.0088 C   0  0  0  0  0  0
  -25.2744  -13.8193   20.5693 C   0  0  0  0  0  0
  -24.2022  -13.0420   20.9160 C   0  0  0  0  0  0
  -24.6628  -11.6900   20.8763 C   0  0  0  0  0  0
  -23.9294  -10.4269   21.0434 C   0  0  0  0  0  0
  -24.3774   -9.4163   21.9227 C   0  0  0  0  0  0
  -23.6381   -8.2243   22.0787 C   0  0  0  0  0  0
  -22.4365   -8.0324   21.3561 C   0  0  0  0  0  0
  -22.0035   -9.0369   20.4693 C   0  0  0  0  0  0
  -22.7457  -10.2203   20.3091 C   0  0  0  0  0  0
  -21.6876   -6.0806   22.5307 C   0  0  0  0  0  0
  -21.3995   -6.5641   23.8245 C   0  0  0  0  0  0
  -21.3656   -5.6768   24.9191 C   0  0  0  0  0  0
  -21.6076   -4.3039   24.7228 C   0  0  0  0  0  0
  -21.8816   -3.8167   23.4315 C   0  0  0  0  0  0
  -21.9185   -4.7021   22.3394 C   0  0  0  0  0  0
  -22.8008  -13.5212   21.1799 C   0  0  0  0  0  0
  -22.1655   -4.2208   21.0973 F   0  0  0  0  0  0
  -21.5672   -3.4504   25.7703 F   0  0  0  0  0  0
  -30.0944  -13.2283   20.4701 N   0  0  0  0  0  0
  -26.3330  -12.9418   20.3465 N   0  0  0  0  0  0
  -25.9579  -11.6544   20.5852 N   0  0  0  0  0  0
  -22.0606  -12.8278   22.0334 N   0  0  0  0  0  0
  -25.4219  -15.1950   20.4168 N   0  0  0  0  0  0
  -31.7590  -14.7130   19.9648 O   0  0  0  0  0  0
  -21.6652   -6.8990   21.4273 O   0  0  0  0  0  0
  -22.3684  -14.5500   20.6555 O   0  0  0  0  0  0
  -24.6201  -31.8668   23.2008 C   0  0  0  0  0  0
  -25.9090  -32.4844   23.8339 C   0  0  1  0  0  0
  -27.2162  -27.3859   20.0906 C   0  0  0  0  0  0
  -25.5934  -33.8641   24.2260 N   0  0  0  0  0  0
  -23.4141  -30.4916   21.5362 C   0  0  2  0  0  0
  -24.8583  -28.9489   20.1048 C   0  0  0  0  0  0
  -22.7424  -29.4680   22.4830 C   0  0  0  0  0  0
  -18.0270  -28.1372   22.8488 C   0  0  0  0  0  0
  -24.1457  -36.7343   23.2636 C   0  0  0  0  0  0
  -25.9469  -30.8082   21.3664 C   0  0  0  0  0  0
  -26.0187  -29.4367   20.7181 C   0  0  0  0  0  0
  -27.2039  -28.6583   20.7192 C   0  0  0  0  0  0
  -26.0565  -26.9521   19.4151 C   0  0  0  0  0  0
  -24.8716  -27.7081   19.4471 C   0  0  0  0  0  0
  -23.6287  -29.8289   20.1487 C   0  0  0  0  0  0
  -25.4092  -36.3122   24.0313 C   0  0  1  0  0  0
  -20.5877  -28.3707   23.1191 C   0  0  2  0  0  0
  -20.6712  -26.9423   22.5322 C   0  0  0  0  0  0
  -19.5637  -26.6369   21.5176 C   0  0  0  0  0  0
  -18.1842  -26.7931   22.1586 C   0  0  0  0  0  0
  -19.1532  -28.8866   23.2837 C   0  0  0  0  0  0
  -18.9400  -30.1463   23.8864 C   0  0  0  0  0  0
  -17.6376  -30.6559   24.0565 C   0  0  0  0  0  0
  -25.9031  -34.9520   23.5078 C   0  0  0  0  0  0
  -16.5282  -29.9046   23.6305 C   0  0  0  0  0  0
  -16.7232  -28.6473   23.0343 C   0  0  0  0  0  0
  -26.4435  -31.6679   25.0729 C   0  0  0  0  0  0
  -25.3685  -31.3935   26.1483 C   0  0  0  0  0  0
  -27.0244  -30.3090   24.6200 C   0  0  0  0  0  0
  -27.5938  -32.4439   25.7576 C   0  0  0  0  0  0
  -27.5566  -37.1841   24.8458 C   0  0  0  0  0  0
  -21.4147  -29.3066   22.3520 N   0  0  0  0  0  0
  -26.4270  -37.3821   23.9422 N   0  0  0  0  0  0
  -24.6784  -31.0747   22.0918 N   0  0  0  0  0  0
  -23.4151  -28.8212   23.2916 O   0  0  0  0  0  0
  -28.3113  -26.5465   20.1071 O   0  0  0  0  0  0
  -26.5573  -34.8971   22.4626 O   0  0  0  0  0  0
  -23.5379  -32.1434   23.7342 O   0  0  0  0  0  0
  -28.2582  -20.9393   21.2841 C   0  0  0  0  0  0
  -28.7203  -19.6515   21.6375 C   0  0  0  0  0  0
  -30.8525  -20.1407   20.6234 C   0  0  0  0  0  0
  -29.0675  -21.8477   20.5374 C   0  0  0  0  0  0
  -30.0277  -19.2260   21.2992 C   0  0  0  0  0  0
  -30.3879  -21.4086   20.2121 C   0  0  0  0  0  0
  -26.0407  -23.1614   19.6656 C   0  0  0  0  0  0
  -28.4687  -23.1847   19.9955 C   0  0  1  0  0  0
  -27.3690  -22.8876   18.9597 C   0  0  2  0  0  0
  -27.7773  -24.1409   21.0252 C   0  0  1  0  0  0
  -31.3779  -22.1956   19.3550 C   0  0  0  0  0  0
  -30.5673  -17.8257   21.6512 C   0  0  0  0  0  0
  -28.3377  -25.6044   21.2138 C   0  0  0  0  0  0
  -29.8340  -16.6644   20.9465 C   0  0  0  0  0  0
  -30.1540  -15.2996   21.3982 N   0  0  0  0  0  0
  -26.3268  -24.1506   20.7174 N   0  3  0  0  0  0
  -27.5528  -23.9839   17.5555 Cl  0  0  0  0  0  0
  -30.3527  -11.2601   19.7481 H   0  0  0  0  0  0
  -31.5021  -12.3886   19.0959 H   0  0  0  0  0  0
  -29.7543  -11.8360   17.3938 H   0  0  0  0  0  0
  -29.7363  -13.5307   17.7941 H   0  0  0  0  0  0
  -27.8204  -11.3731   18.7493 H   0  0  0  0  0  0
  -27.4218  -12.7759   17.7845 H   0  0  0  0  0  0
  -27.7589  -14.2805   19.6555 H   0  0  0  0  0  0
  -28.7166  -11.8964   21.3100 H   0  0  0  0  0  0
  -28.5293  -13.5077   21.9156 H   0  0  0  0  0  0
  -25.2988   -9.5538   22.4781 H   0  0  0  0  0  0
  -24.0057   -7.4585   22.7478 H   0  0  0  0  0  0
  -21.0973   -8.9031   19.8984 H   0  0  0  0  0  0
  -22.4075  -10.9784   19.6171 H   0  0  0  0  0  0
  -21.1938   -7.6140   23.9772 H   0  0  0  0  0  0
  -21.1515   -6.0492   25.9120 H   0  0  0  0  0  0
  -22.0602   -2.7640   23.2812 H   0  0  0  0  0  0
  -22.4187  -11.9991   22.4848 H   0  0  0  0  0  0
  -21.1206  -13.1344   22.2377 H   0  0  0  0  0  0
  -24.6198  -15.8079   20.5241 H   0  0  0  0  0  0
  -26.2661  -15.6929   20.1761 H   0  0  0  0  0  0
  -26.7154  -32.5494   23.1082 H   0  0  0  0  0  0
  -25.0211  -33.9795   25.0486 H   0  0  0  0  0  0
  -22.7087  -31.3107   21.3844 H   0  0  0  0  0  0
  -23.3718  -35.9682   23.3302 H   0  0  0  0  0  0
  -24.3531  -36.8960   22.2049 H   0  0  0  0  0  0
  -23.7213  -37.6557   23.6651 H   0  0  0  0  0  0
  -26.0813  -31.5631   20.5902 H   0  0  0  0  0  0
  -26.8310  -30.8585   21.9937 H   0  0  0  0  0  0
  -28.1026  -29.0209   21.1981 H   0  0  0  0  0  0
  -26.0739  -26.0367   18.8409 H   0  0  0  0  0  0
  -23.9932  -27.3479   18.9304 H   0  0  0  0  0  0
  -23.7644  -30.6061   19.3927 H   0  0  0  0  0  0
  -22.7503  -29.2653   19.8307 H   0  0  0  0  0  0
  -25.1257  -36.1977   25.0804 H   0  0  0  0  0  0
  -21.0020  -28.3316   24.1283 H   0  0  0  0  0  0
  -20.5653  -26.2320   23.3546 H   0  0  0  0  0  0
  -21.6545  -26.7457   22.1042 H   0  0  0  0  0  0
  -19.6750  -25.6270   21.1225 H   0  0  0  0  0  0
  -19.6521  -27.3166   20.6690 H   0  0  0  0  0  0
  -17.4110  -26.6793   21.3970 H   0  0  0  0  0  0
  -18.0156  -26.0065   22.8951 H   0  0  0  0  0  0
  -19.7866  -30.7330   24.2186 H   0  0  0  0  0  0
  -17.4895  -31.6223   24.5195 H   0  0  0  0  0  0
  -15.5273  -30.2897   23.7651 H   0  0  0  0  0  0
  -15.8628  -28.0772   22.7037 H   0  0  0  0  0  0
  -24.5808  -30.7278   25.7922 H   0  0  0  0  0  0
  -24.8922  -32.3165   26.4823 H   0  0  0  0  0  0
  -25.8010  -30.9238   27.0314 H   0  0  0  0  0  0
  -26.2805  -29.6935   24.1114 H   0  0  0  0  0  0
  -27.3787  -29.7286   25.4727 H   0  0  0  0  0  0
  -27.8733  -30.4346   23.9480 H   0  0  0  0  0  0
  -27.2448  -33.3701   26.2156 H   0  0  0  0  0  0
  -28.3806  -32.7090   25.0511 H   0  0  0  0  0  0
  -28.0533  -31.8591   26.5551 H   0  0  0  0  0  0
  -28.2579  -38.0138   24.7503 H   0  0  0  0  0  0
  -28.1037  -36.2671   24.6238 H   0  0  0  0  0  0
  -27.2294  -37.1466   25.8862 H   0  0  0  0  0  0
  -20.9297  -29.8666   21.6634 H   0  0  0  0  0  0
  -26.0145  -38.2880   24.1472 H   0  0  0  0  0  0
  -27.2389  -21.1901   21.5453 H   0  0  0  0  0  0
  -28.0685  -18.9708   22.1676 H   0  0  0  0  0  0
  -31.8663  -19.8465   20.3831 H   0  0  0  0  0  0
  -25.6716  -22.2554   20.1461 H   0  0  0  0  0  0
  -25.2544  -23.4864   18.9874 H   0  0  0  0  0  0
  -29.2555  -23.7428   19.4948 H   0  0  0  0  0  0
  -27.4019  -21.8696   18.5713 H   0  0  0  0  0  0
  -27.8626  -23.6620   21.9998 H   0  0  0  0  0  0
  -32.4025  -22.0024   19.6764 H   0  0  0  0  0  0
  -31.2590  -23.2734   19.3590 H   0  0  0  0  0  0
  -31.3121  -21.8526   18.3239 H   0  0  0  0  0  0
  -30.5623  -17.6894   22.7291 H   0  0  0  0  0  0
  -31.6114  -17.7741   21.3361 H   0  0  0  0  0  0
  -29.3679  -25.5305   21.5489 H   0  0  0  0  0  0
  -27.8114  -26.0506   22.0629 H   0  0  0  0  0  0
  -29.9985  -16.7149   19.8787 H   0  0  0  0  0  0
  -28.7594  -16.7393   21.0975 H   0  0  0  0  0  0
  -29.4521  -14.8887   21.9952 H   0  0  0  0  0  0
  -25.7670  -23.9638   21.5389 H   0  0  0  0  0  0
  -26.0800  -25.0682   20.3781 H   0  0  0  0  0  0
  1 25  1  0  0  0
  1 30  2  0  0  0
  1 85  1  0  0  0
  2  3  1  0  0  0
  2 25  1  0  0  0
  2 88  1  0  0  0
  2 89  1  0  0  0
  3  4  1  0  0  0
  3 90  1  0  0  0
  3 91  1  0  0  0
  4  5  1  0  0  0
  4 92  1  0  0  0
  4 93  1  0  0  0
  5  6  1  0  0  0
  5 26  1  0  0  0
  5 94  1  0  0  0
  6 25  1  0  0  0
  6 95  1  0  0  0
  6 96  1  0  0  0
  7  8  2  0  0  0
  7 26  1  0  0  0
  7 29  1  0  0  0
  8  9  1  0  0  0
  8 22  1  0  0  0
  9 10  1  0  0  0
  9 27  2  0  0  0
 10 11  2  0  0  0
 10 15  1  0  0  0
 11 12  1  0  0  0
 11 97  1  0  0  0
 12 13  2  0  0  0
 12 98  1  0  0  0
 13 14  1  0  0  0
 13 31  1  0  0  0
 14 15  2  0  0  0
 14 99  1  0  0  0
 15100  1  0  0  0
 16 17  2  0  0  0
 16 21  1  0  0  0
 16 31  1  0  0  0
 17 18  1  0  0  0
 17101  1  0  0  0
 18 19  2  0  0  0
 18102  1  0  0  0
 19 20  1  0  0  0
 19 24  1  0  0  0
 20 21  2  0  0  0
 20103  1  0  0  0
 21 23  1  0  0  0
 22 28  1  0  0  0
 22 32  2  0  0  0
 26 27  1  0  0  0
 28104  1  0  0  0
 28105  1  0  0  0
 29106  1  0  0  0
 29107  1  0  0  0
 33 34  1  0  0  0
 33 66  1  0  0  0
 33 70  2  0  0  0
 34 36  1  0  0  0
 34 59  1  0  0  0
 34108  1  0  0  0
 35 44  2  0  0  0
 35 45  1  0  0  0
 35 68  1  0  0  0
 36 56  1  0  0  0
 36109  1  0  0  0
 37 39  1  0  0  0
 37 47  1  0  0  0
 37 66  1  0  0  0
 37110  1  0  0  0
 38 43  2  0  0  0
 38 46  1  0  0  0
 38 47  1  0  0  0
 39 64  1  0  0  0
 39 67  2  0  0  0
 40 52  1  0  0  0
 40 53  2  0  0  0
 40 58  1  0  0  0
 41111  1  0  0  0
 41112  1  0  0  0
 41113  1  0  0  0
 41 48  1  0  0  0
 42 43  1  0  0  0
 42 66  1  0  0  0
 42114  1  0  0  0
 42115  1  0  0  0
 43 44  1  0  0  0
 44116  1  0  0  0
 45 46  2  0  0  0
 45117  1  0  0  0
 46118  1  0  0  0
 47119  1  0  0  0
 47120  1  0  0  0
 48 56  1  0  0  0
 48 65  1  0  0  0
 48121  1  0  0  0
 49 50  1  0  0  0
 49 53  1  0  0  0
 49 64  1  0  0  0
 49122  1  0  0  0
 50 51  1  0  0  0
 50123  1  0  0  0
 50124  1  0  0  0
 51 52  1  0  0  0
 51125  1  0  0  0
 51126  1  0  0  0
 52127  1  0  0  0
 52128  1  0  0  0
 53 54  1  0  0  0
 54 55  2  0  0  0
 54129  1  0  0  0
 55 57  1  0  0  0
 55130  1  0  0  0
 56 69  2  0  0  0
 57 58  2  0  0  0
 57131  1  0  0  0
 58132  1  0  0  0
 59 60  1  0  0  0
 59 61  1  0  0  0
 59 62  1  0  0  0
 60133  1  0  0  0
 60134  1  0  0  0
 60135  1  0  0  0
 61136  1  0  0  0
 61137  1  0  0  0
 61138  1  0  0  0
 62139  1  0  0  0
 62140  1  0  0  0
 62141  1  0  0  0
 63 65  1  0  0  0
 63142  1  0  0  0
 63143  1  0  0  0
 63144  1  0  0  0
 64145  1  0  0  0
 65146  1  0  0  0
 68 83  1  0  0  0
 71 72  2  0  0  0
 71 74  1  0  0  0
 71147  1  0  0  0
 72 75  1  0  0  0
 72148  1  0  0  0
 73 75  2  0  0  0
 73 76  1  0  0  0
 73149  1  0  0  0
 74 76  2  0  0  0
 74 78  1  0  0  0
 75 82  1  0  0  0
 76 81  1  0  0  0
 77 79  1  0  0  0
 77 86  1  0  0  0
 77150  1  0  0  0
 77151  1  0  0  0
 78 79  1  0  0  0
 78 80  1  0  0  0
 78152  1  0  0  0
 79 87  1  0  0  0
 79153  1  0  0  0
 80 83  1  0  0  0
 80 86  1  0  0  0
 80154  1  0  0  0
 81155  1  0  0  0
 81156  1  0  0  0
 81157  1  0  0  0
 82 84  1  0  0  0
 82158  1  0  0  0
 82159  1  0  0  0
 83160  1  0  0  0
 83161  1  0  0  0
 84 85  1  0  0  0
 84162  1  0  0  0
 84163  1  0  0  0
 85164  1  0  0  0
 86165  1  0  0  0
 86166  1  0  0  0
M  CHG  1  86   1
M  ISO  4   1 100  68 101  83 101  85 100
M  END
> <chiral flag>
0

> <version>
0

> <s_m_source_file>
/data/baiqing/PycharmProjects/Reinvent-master-3.2/result/LINK_invent/BTK/process_docking_weight1_custom_sum_contain_oxygen_bond_distance_aromatic_linkinvent_7_9_3/rearranged_h_0140.sdf

> <i_m_source_file_index>
33

> <r_mmod_Potential_Energy-OPLS-2005>
-91.8349151611328

> <r_mmod_Stretch_Energy-OPLS-2005>
50.5770416259766

> <r_mmod_Bend_Energy-OPLS-2005>
133.719100952148

> <r_mmod_Torsional_Energy-OPLS-2005>
351.700042724609

> <r_mmod_Improper_Torsional_Energy-OPLS-2005>
6.88449811935425

> <r_mmod_Van_der_Waal_Energy-OPLS-2005>
137.449447631836

> <r_mmod_Electrostatic_Energy-OPLS-2005>
-343.874389648438

> <r_mmod_Solvation_Energy-OPLS-2005>
-449.033996582031

> <b_mmod_Minimization_Converged-OPLS-2005>
0

> <r_mmod_RMS_Derivative-OPLS-2005>
10.6707525253296

$$$$
33
                    3D
 Structure written by MMmdl.
155164  0  0  1  0            999 V2000
  -30.5694  -14.8168   20.4575 C   0  0  0  0  0  0
  -30.4418  -12.4991   19.4947 C   0  0  0  0  0  0
  -29.5217  -12.5168   18.2518 C   0  0  0  0  0  0
  -28.0476  -12.3297   18.6606 C   0  0  0  0  0  0
  -27.6434  -13.2352   19.8542 C   0  0  2  0  0  0
  -28.6846  -13.1848   20.9949 C   0  0  0  0  0  0
  -25.2510  -13.8191   20.5695 C   0  0  0  0  0  0
  -24.1805  -13.0437   20.9225 C   0  0  0  0  0  0
  -24.6405  -11.6917   20.8760 C   0  0  0  0  0  0
  -23.9086  -10.4290   21.0407 C   0  0  0  0  0  0
  -24.3639   -9.4206   21.9183 C   0  0  0  0  0  0
  -23.6309   -8.2242   22.0755 C   0  0  0  0  0  0
  -22.4291   -8.0281   21.3544 C   0  0  0  0  0  0
  -21.9926   -9.0258   20.4651 C   0  0  0  0  0  0
  -22.7260  -10.2134   20.3058 C   0  0  0  0  0  0
  -21.6855   -6.0741   22.5276 C   0  0  0  0  0  0
  -21.4021   -6.5646   23.8211 C   0  0  0  0  0  0
  -21.3670   -5.6800   24.9171 C   0  0  0  0  0  0
  -21.6047   -4.3062   24.7222 C   0  0  0  0  0  0
  -21.8816   -3.8154   23.4340 C   0  0  0  0  0  0
  -21.9192   -4.6969   22.3398 C   0  0  0  0  0  0
  -22.7827  -13.5223   21.1861 C   0  0  0  0  0  0
  -22.1655   -4.2157   21.0974 F   0  0  0  0  0  0
  -21.5633   -3.4543   25.7732 F   0  0  0  0  0  0
  -29.9814  -13.5657   20.4202 N   0  0  0  0  0  0
  -26.2944  -12.9414   20.3290 N   0  0  0  0  0  0
  -25.9340  -11.6555   20.5765 N   0  0  0  0  0  0
  -22.0469  -12.8232   22.0422 N   0  0  0  0  0  0
  -25.4163  -15.1911   20.4064 N   0  0  0  0  0  0
  -31.7455  -14.9364   20.0972 O   0  0  0  0  0  0
  -21.6645   -6.8883   21.4240 O   0  0  0  0  0  0
  -22.3524  -14.5526   20.6688 O   0  0  0  0  0  0
  -24.6387  -31.8507   23.1975 C   0  0  0  0  0  0
  -25.9183  -32.4733   23.8340 C   0  0  1  0  0  0
  -27.2046  -27.1883   20.1382 C   0  0  0  0  0  0
  -25.5965  -33.8540   24.2254 N   0  0  0  0  0  0
  -23.4394  -30.4774   21.5402 C   0  0  2  0  0  0
  -24.8879  -28.9284   20.1031 C   0  0  0  0  0  0
  -22.7555  -29.4578   22.4854 C   0  0  0  0  0  0
  -18.0309  -28.1383   22.8480 C   0  0  0  0  0  0
  -24.1496  -36.7288   23.2634 C   0  0  0  0  0  0
  -25.9938  -30.7407   21.3939 C   0  0  0  0  0  0
  -26.0631  -29.3592   20.7321 C   0  0  0  0  0  0
  -27.2217  -28.5020   20.7441 C   0  0  0  0  0  0
  -26.0127  -26.8730   19.4400 C   0  0  0  0  0  0
  -24.8743  -27.6965   19.4414 C   0  0  0  0  0  0
  -23.6641  -29.8238   20.1528 C   0  0  0  0  0  0
  -25.4118  -36.3059   24.0319 C   0  0  1  0  0  0
  -20.5919  -28.3709   23.1238 C   0  0  2  0  0  0
  -20.6792  -26.9419   22.5392 C   0  0  0  0  0  0
  -19.5760  -26.6377   21.5205 C   0  0  0  0  0  0
  -18.1946  -26.7919   22.1629 C   0  0  0  0  0  0
  -19.1562  -28.8861   23.2853 C   0  0  0  0  0  0
  -18.9474  -30.1457   23.8880 C   0  0  0  0  0  0
  -17.6469  -30.6581   24.0557 C   0  0  0  0  0  0
  -25.9062  -34.9428   23.5083 C   0  0  0  0  0  0
  -16.5364  -29.9075   23.6325 C   0  0  0  0  0  0
  -16.7292  -28.6493   23.0352 C   0  0  0  0  0  0
  -26.4519  -31.6575   25.0755 C   0  0  0  0  0  0
  -25.3726  -31.3763   26.1470 C   0  0  0  0  0  0
  -27.0365  -30.2970   24.6296 C   0  0  0  0  0  0
  -27.6061  -32.4324   25.7536 C   0  0  0  0  0  0
  -27.5580  -37.1801   24.8456 C   0  0  0  0  0  0
  -21.4248  -29.3058   22.3620 N   0  0  0  0  0  0
  -26.4287  -37.3760   23.9405 N   0  0  0  0  0  0
  -24.7097  -31.0421   22.0990 N   0  0  0  0  0  0
  -23.4226  -28.8092   23.2955 O   0  0  0  0  0  0
  -28.2297  -26.1874   20.2462 O   0  0  0  0  0  0
  -26.5624  -34.8903   22.4648 O   0  0  0  0  0  0
  -23.5518  -32.1369   23.7219 O   0  0  0  0  0  0
  -29.4331  -21.0817   19.4727 C   0  0  0  0  0  0
  -29.1763  -22.4973   19.3149 C   0  0  0  0  0  0
  -28.5209  -21.1845   21.6466 C   0  0  0  0  0  0
  -29.0733  -20.3316   20.6351 C   0  0  0  0  0  0
  -28.5402  -23.3233   20.2993 C   0  0  0  0  0  0
  -28.2471  -22.6073   21.5045 C   0  0  0  0  0  0
  -28.7136  -17.9329   19.5750 C   0  0  0  0  0  0
  -29.0651  -18.7128   20.8092 C   0  0  1  0  0  0
  -29.9303  -17.4091   20.3046 C   0  0  1  0  0  0
  -27.2815  -22.6967   23.7122 C   0  0  0  0  0  0
  -27.8369  -24.7414   19.9178 C   0  0  0  0  0  0
  -29.7583  -15.9373   20.6768 N   0  0  0  0  0  0
  -27.6102  -23.3388   22.4862 O   0  0  0  0  0  0
  -31.4808  -12.6383   19.1926 H   0  0  0  0  0  0
  -30.4050  -11.5276   19.9895 H   0  0  0  0  0  0
  -29.8202  -11.7355   17.5518 H   0  0  0  0  0  0
  -29.6369  -13.4630   17.7205 H   0  0  0  0  0  0
  -27.9148  -11.2828   18.9343 H   0  0  0  0  0  0
  -27.3910  -12.5082   17.8083 H   0  0  0  0  0  0
  -27.6341  -14.2539   19.4655 H   0  0  0  0  0  0
  -28.7366  -12.1883   21.4357 H   0  0  0  0  0  0
  -28.4051  -13.8600   21.8052 H   0  0  0  0  0  0
  -25.2777   -9.5699   22.4762 H   0  0  0  0  0  0
  -24.0023   -7.4646   22.7486 H   0  0  0  0  0  0
  -21.0850   -8.8790   19.8961 H   0  0  0  0  0  0
  -22.3714  -10.9683   19.6178 H   0  0  0  0  0  0
  -21.2014   -7.6155   23.9726 H   0  0  0  0  0  0
  -21.1500   -6.0518   25.9076 H   0  0  0  0  0  0
  -22.0583   -2.7618   23.2831 H   0  0  0  0  0  0
  -22.4097  -11.9910   22.4836 H   0  0  0  0  0  0
  -21.1078  -13.1248   22.2602 H   0  0  0  0  0  0
  -24.6398  -15.8354   20.5052 H   0  0  0  0  0  0
  -26.2440  -15.6272   20.0233 H   0  0  0  0  0  0
  -26.7252  -32.5352   23.1076 H   0  0  0  0  0  0
  -25.0136  -33.9669   25.0418 H   0  0  0  0  0  0
  -22.7384  -31.3022   21.3961 H   0  0  0  0  0  0
  -23.3751  -35.9625   23.3273 H   0  0  0  0  0  0
  -24.3600  -36.8936   22.2057 H   0  0  0  0  0  0
  -23.7258  -37.6482   23.6680 H   0  0  0  0  0  0
  -26.1451  -31.4986   20.6240 H   0  0  0  0  0  0
  -26.8669  -30.7877   22.0329 H   0  0  0  0  0  0
  -28.1080  -28.8181   21.2762 H   0  0  0  0  0  0
  -25.9019  -25.9494   18.8939 H   0  0  0  0  0  0
  -23.9853  -27.3699   18.9198 H   0  0  0  0  0  0
  -23.8010  -30.6077   19.4070 H   0  0  0  0  0  0
  -22.7800  -29.2697   19.8344 H   0  0  0  0  0  0
  -25.1299  -36.1896   25.0812 H   0  0  0  0  0  0
  -21.0022  -28.3290   24.1351 H   0  0  0  0  0  0
  -20.5694  -26.2320   23.3603 H   0  0  0  0  0  0
  -21.6655  -26.7428   22.1180 H   0  0  0  0  0  0
  -19.6917  -25.6282   21.1244 H   0  0  0  0  0  0
  -19.6684  -27.3175   20.6723 H   0  0  0  0  0  0
  -17.4208  -26.6656   21.4040 H   0  0  0  0  0  0
  -18.0356  -26.0070   22.9038 H   0  0  0  0  0  0
  -19.7948  -30.7274   24.2249 H   0  0  0  0  0  0
  -17.5020  -31.6255   24.5169 H   0  0  0  0  0  0
  -15.5359  -30.2965   23.7649 H   0  0  0  0  0  0
  -15.8700  -28.0798   22.7073 H   0  0  0  0  0  0
  -24.5847  -30.7180   25.7792 H   0  0  0  0  0  0
  -24.8992  -32.2959   26.4921 H   0  0  0  0  0  0
  -25.8018  -30.8894   27.0236 H   0  0  0  0  0  0
  -26.2965  -29.6710   24.1295 H   0  0  0  0  0  0
  -27.3978  -29.7247   25.4852 H   0  0  0  0  0  0
  -27.8885  -30.4207   23.9606 H   0  0  0  0  0  0
  -27.2651  -33.3617   26.2114 H   0  0  0  0  0  0
  -28.3882  -32.6898   25.0380 H   0  0  0  0  0  0
  -28.0726  -31.8455   26.5460 H   0  0  0  0  0  0
  -28.2569  -38.0124   24.7515 H   0  0  0  0  0  0
  -28.1105  -36.2652   24.6260 H   0  0  0  0  0  0
  -27.2306  -37.1422   25.8859 H   0  0  0  0  0  0
  -20.9431  -29.8829   21.6867 H   0  0  0  0  0  0
  -26.0158  -38.2827   24.1404 H   0  0  0  0  0  0
  -29.8510  -20.5481   18.6308 H   0  0  0  0  0  0
  -29.3935  -22.9368   18.3516 H   0  0  0  0  0  0
  -28.2230  -20.6794   22.5525 H   0  0  0  0  0  0
  -28.9087  -18.3778   18.6020 H   0  0  0  0  0  0
  -27.7837  -17.3687   19.6236 H   0  0  0  0  0  0
  -28.4667  -18.5027   21.6947 H   0  0  0  0  0  0
  -30.9026  -17.6612   19.8837 H   0  0  0  0  0  0
  -26.7934  -23.4117   24.3736 H   0  0  0  0  0  0
  -28.1741  -22.3340   24.2239 H   0  0  0  0  0  0
  -26.5870  -21.8685   23.5625 H   0  0  0  0  0  0
  -26.8358  -24.5984   20.3274 H   0  0  0  0  0  0
  -27.7209  -24.7071   18.8337 H   0  0  0  0  0  0
  -28.8395  -15.7004   21.0193 H   0  0  0  0  0  0
  1 25  1  0  0  0
  1 30  2  0  0  0
  1 82  1  0  0  0
  2  3  1  0  0  0
  2 25  1  0  0  0
  2 84  1  0  0  0
  2 85  1  0  0  0
  3  4  1  0  0  0
  3 86  1  0  0  0
  3 87  1  0  0  0
  4  5  1  0  0  0
  4 88  1  0  0  0
  4 89  1  0  0  0
  5  6  1  0  0  0
  5 26  1  0  0  0
  5 90  1  0  0  0
  6 25  1  0  0  0
  6 91  1  0  0  0
  6 92  1  0  0  0
  7  8  2  0  0  0
  7 26  1  0  0  0
  7 29  1  0  0  0
  8  9  1  0  0  0
  8 22  1  0  0  0
  9 10  1  0  0  0
  9 27  2  0  0  0
 10 11  2  0  0  0
 10 15  1  0  0  0
 11 12  1  0  0  0
 11 93  1  0  0  0
 12 13  2  0  0  0
 12 94  1  0  0  0
 13 14  1  0  0  0
 13 31  1  0  0  0
 14 15  2  0  0  0
 14 95  1  0  0  0
 15 96  1  0  0  0
 16 17  2  0  0  0
 16 21  1  0  0  0
 16 31  1  0  0  0
 17 18  1  0  0  0
 17 97  1  0  0  0
 18 19  2  0  0  0
 18 98  1  0  0  0
 19 20  1  0  0  0
 19 24  1  0  0  0
 20 21  2  0  0  0
 20 99  1  0  0  0
 21 23  1  0  0  0
 22 28  1  0  0  0
 22 32  2  0  0  0
 26 27  1  0  0  0
 28100  1  0  0  0
 28101  1  0  0  0
 29102  1  0  0  0
 29103  1  0  0  0
 33 34  1  0  0  0
 33 66  1  0  0  0
 33 70  2  0  0  0
 34 36  1  0  0  0
 34 59  1  0  0  0
 34104  1  0  0  0
 35 44  2  0  0  0
 35 45  1  0  0  0
 35 68  1  0  0  0
 36 56  1  0  0  0
 36105  1  0  0  0
 37 39  1  0  0  0
 37 47  1  0  0  0
 37 66  1  0  0  0
 37106  1  0  0  0
 38 43  2  0  0  0
 38 46  1  0  0  0
 38 47  1  0  0  0
 39 64  1  0  0  0
 39 67  2  0  0  0
 40 52  1  0  0  0
 40 53  2  0  0  0
 40 58  1  0  0  0
 41107  1  0  0  0
 41108  1  0  0  0
 41109  1  0  0  0
 41 48  1  0  0  0
 42 43  1  0  0  0
 42 66  1  0  0  0
 42110  1  0  0  0
 42111  1  0  0  0
 43 44  1  0  0  0
 44112  1  0  0  0
 45 46  2  0  0  0
 45113  1  0  0  0
 46114  1  0  0  0
 47115  1  0  0  0
 47116  1  0  0  0
 48 56  1  0  0  0
 48 65  1  0  0  0
 48117  1  0  0  0
 49 50  1  0  0  0
 49 53  1  0  0  0
 49 64  1  0  0  0
 49118  1  0  0  0
 50 51  1  0  0  0
 50119  1  0  0  0
 50120  1  0  0  0
 51 52  1  0  0  0
 51121  1  0  0  0
 51122  1  0  0  0
 52123  1  0  0  0
 52124  1  0  0  0
 53 54  1  0  0  0
 54 55  2  0  0  0
 54125  1  0  0  0
 55 57  1  0  0  0
 55126  1  0  0  0
 56 69  2  0  0  0
 57 58  2  0  0  0
 57127  1  0  0  0
 58128  1  0  0  0
 59 60  1  0  0  0
 59 61  1  0  0  0
 59 62  1  0  0  0
 60129  1  0  0  0
 60130  1  0  0  0
 60131  1  0  0  0
 61132  1  0  0  0
 61133  1  0  0  0
 61134  1  0  0  0
 62135  1  0  0  0
 62136  1  0  0  0
 62137  1  0  0  0
 63 65  1  0  0  0
 63138  1  0  0  0
 63139  1  0  0  0
 63140  1  0  0  0
 64141  1  0  0  0
 65142  1  0  0  0
 68 81  1  0  0  0
 71 72  2  0  0  0
 71 74  1  0  0  0
 71143  1  0  0  0
 72 75  1  0  0  0
 72144  1  0  0  0
 73 74  2  0  0  0
 73 76  1  0  0  0
 73145  1  0  0  0
 74 78  1  0  0  0
 75 76  2  0  0  0
 75 81  1  0  0  0
 76 83  1  0  0  0
 77 78  1  0  0  0
 77 79  1  0  0  0
 77146  1  0  0  0
 77147  1  0  0  0
 78 79  1  0  0  0
 78148  1  0  0  0
 79 82  1  0  0  0
 79149  1  0  0  0
 80 83  1  0  0  0
 80150  1  0  0  0
 80151  1  0  0  0
 80152  1  0  0  0
 81153  1  0  0  0
 81154  1  0  0  0
 82155  1  0  0  0
M  ISO  4   1 100  68 101  81 101  82 100
M  END
> <chiral flag>
0

> <version>
0

> <s_m_source_file>
/data/baiqing/PycharmProjects/Reinvent-master-3.2/result/LINK_invent/BTK/process_docking_weight1_custom_sum_contain_oxygen_bond_distance_aromatic_linkinvent_7_9_3/rearranged_h_0140.sdf

> <i_m_source_file_index>
34

> <r_mmod_Potential_Energy-OPLS-2005>
422.611511230469

> <r_mmod_Stretch_Energy-OPLS-2005>
179.388153076172

> <r_mmod_Bend_Energy-OPLS-2005>
234.752838134766

> <r_mmod_Torsional_Energy-OPLS-2005>
282.005157470703

> <r_mmod_Improper_Torsional_Energy-OPLS-2005>
10.6057987213135

> <r_mmod_Van_der_Waal_Energy-OPLS-2005>
148.659973144531

> <r_mmod_Electrostatic_Energy-OPLS-2005>
-347.647888183594

> <r_mmod_Solvation_Energy-OPLS-2005>
-221.263732910156

> <b_mmod_Minimization_Converged-OPLS-2005>
0

> <r_mmod_RMS_Derivative-OPLS-2005>
1.48008871078491

$$$$
34
                    3D
 Structure written by MMmdl.
164173  0  0  1  0            999 V2000
  -30.5139  -15.0272   20.3498 C   0  0  0  0  0  0
  -30.4412  -12.6036   19.5572 C   0  0  0  0  0  0
  -29.5585  -12.4446   18.2986 C   0  0  0  0  0  0
  -28.0673  -12.3078   18.6736 C   0  0  0  0  0  0
  -27.6235  -13.2557   19.8241 C   0  0  2  0  0  0
  -28.6552  -13.3376   20.9662 C   0  0  0  0  0  0
  -25.2455  -13.8258   20.5717 C   0  0  0  0  0  0
  -24.1765  -13.0468   20.9183 C   0  0  0  0  0  0
  -24.6382  -11.6949   20.8700 C   0  0  0  0  0  0
  -23.9061  -10.4316   21.0376 C   0  0  0  0  0  0
  -24.3617   -9.4247   21.9165 C   0  0  0  0  0  0
  -23.6310   -8.2274   22.0734 C   0  0  0  0  0  0
  -22.4289   -8.0303   21.3538 C   0  0  0  0  0  0
  -21.9907   -9.0262   20.4631 C   0  0  0  0  0  0
  -22.7220  -10.2157   20.3036 C   0  0  0  0  0  0
  -21.6890   -6.0750   22.5270 C   0  0  0  0  0  0
  -21.4041   -6.5641   23.8211 C   0  0  0  0  0  0
  -21.3666   -5.6787   24.9162 C   0  0  0  0  0  0
  -21.6046   -4.3049   24.7210 C   0  0  0  0  0  0
  -21.8828   -3.8155   23.4325 C   0  0  0  0  0  0
  -21.9209   -4.6975   22.3389 C   0  0  0  0  0  0
  -22.7788  -13.5234   21.1879 C   0  0  0  0  0  0
  -22.1668   -4.2160   21.0963 F   0  0  0  0  0  0
  -21.5612   -3.4531   25.7720 F   0  0  0  0  0  0
  -29.9267  -13.7535   20.3602 N   0  0  0  0  0  0
  -26.2850  -12.9479   20.3161 N   0  0  0  0  0  0
  -25.9310  -11.6604   20.5671 N   0  0  0  0  0  0
  -22.0461  -12.8192   22.0422 N   0  0  0  0  0  0
  -25.4184  -15.2011   20.4303 N   0  0  0  0  0  0
  -31.7344  -15.0483   20.1656 O   0  0  0  0  0  0
  -21.6673   -6.8891   21.4235 O   0  0  0  0  0  0
  -22.3448  -14.5550   20.6763 O   0  0  0  0  0  0
  -24.6476  -31.8394   23.1817 C   0  0  0  0  0  0
  -25.9215  -32.4674   23.8253 C   0  0  1  0  0  0
  -27.2279  -27.0758   20.1669 C   0  0  0  0  0  0
  -25.5956  -33.8490   24.2161 N   0  0  0  0  0  0
  -23.4551  -30.4508   21.5316 C   0  0  2  0  0  0
  -24.9071  -28.8583   20.1223 C   0  0  0  0  0  0
  -22.7574  -29.4522   22.4877 C   0  0  0  0  0  0
  -18.0302  -28.1412   22.8445 C   0  0  0  0  0  0
  -24.1497  -36.7231   23.2634 C   0  0  0  0  0  0
  -26.0148  -30.6897   21.3926 C   0  0  0  0  0  0
  -26.0877  -29.2934   20.7385 C   0  0  0  0  0  0
  -27.2486  -28.4209   20.7365 C   0  0  0  0  0  0
  -26.0187  -26.7543   19.5141 C   0  0  0  0  0  0
  -24.8877  -27.6033   19.4968 C   0  0  0  0  0  0
  -23.6868  -29.7686   20.1582 C   0  0  0  0  0  0
  -25.4145  -36.3032   24.0296 C   0  0  1  0  0  0
  -20.5907  -28.3747   23.1207 C   0  0  2  0  0  0
  -20.6799  -26.9452   22.5383 C   0  0  0  0  0  0
  -19.5799  -26.6384   21.5183 C   0  0  0  0  0  0
  -18.1968  -26.7944   22.1586 C   0  0  0  0  0  0
  -19.1552  -28.8896   23.2814 C   0  0  0  0  0  0
  -18.9477  -30.1490   23.8838 C   0  0  0  0  0  0
  -17.6478  -30.6603   24.0552 C   0  0  0  0  0  0
  -25.9091  -34.9400   23.5043 C   0  0  0  0  0  0
  -16.5372  -29.9085   23.6358 C   0  0  0  0  0  0
  -16.7287  -28.6518   23.0349 C   0  0  0  0  0  0
  -26.4532  -31.6557   25.0705 C   0  0  0  0  0  0
  -25.3691  -31.3764   26.1376 C   0  0  0  0  0  0
  -27.0378  -30.2940   24.6316 C   0  0  0  0  0  0
  -27.6080  -32.4311   25.7478 C   0  0  0  0  0  0
  -27.5599  -37.1771   24.8458 C   0  0  0  0  0  0
  -21.4263  -29.3055   22.3580 N   0  0  0  0  0  0
  -26.4310  -37.3744   23.9400 N   0  0  0  0  0  0
  -24.7256  -31.0177   22.0899 N   0  0  0  0  0  0
  -23.4178  -28.8095   23.3068 O   0  0  0  0  0  0
  -28.2855  -26.0724   20.1739 O   0  0  0  0  0  0
  -26.5681  -34.8898   22.4623 O   0  0  0  0  0  0
  -23.5573  -32.1309   23.6993 O   0  0  0  0  0  0
  -30.1405  -20.4615   18.8208 C   0  0  0  0  0  0
  -29.3161  -18.9571   20.5066 C   0  0  0  0  0  0
  -30.6472  -19.3301   18.1386 C   0  0  0  0  0  0
  -30.3880  -17.9757   18.5430 C   0  0  0  0  0  0
  -29.8501  -17.7033   19.8578 C   0  0  0  0  0  0
  -29.3798  -20.3727   19.9957 C   0  0  0  0  0  0
  -28.1153  -16.4035   16.5242 C   0  0  0  0  0  0
  -29.0407  -15.4100   15.8677 C   0  0  0  0  0  0
  -29.3749  -15.9661   17.2379 C   0  0  0  0  0  0
  -31.4869  -19.6416   16.9008 C   0  0  0  0  0  0
  -31.9345  -16.2269   17.3340 C   0  0  0  0  0  0
  -28.0631  -24.5280   20.4859 C   0  0  0  0  0  0
  -28.8920  -23.0994   19.9651 C   0  0  0  0  0  0
  -30.5578  -16.9099   17.4230 C   0  0  2  0  0  0
  -29.7302  -16.2389   20.4000 N   0  0  0  0  0  0
  -28.7956  -21.6251   20.5426 O   0  0  0  0  0  0
  -31.4859  -12.7424   19.2767 H   0  0  0  0  0  0
  -30.4155  -11.6896   20.1529 H   0  0  0  0  0  0
  -29.8755  -11.5636   17.7401 H   0  0  0  0  0  0
  -29.7230  -13.2797   17.6271 H   0  0  0  0  0  0
  -27.9172  -11.2716   18.9746 H   0  0  0  0  0  0
  -27.4460  -12.4601   17.7914 H   0  0  0  0  0  0
  -27.5682  -14.2457   19.3745 H   0  0  0  0  0  0
  -28.7457  -12.3808   21.4830 H   0  0  0  0  0  0
  -28.3379  -14.0608   21.7197 H   0  0  0  0  0  0
  -25.2773   -9.5756   22.4722 H   0  0  0  0  0  0
  -24.0064   -7.4673   22.7438 H   0  0  0  0  0  0
  -21.0858   -8.8747   19.8917 H   0  0  0  0  0  0
  -22.3670  -10.9677   19.6127 H   0  0  0  0  0  0
  -21.2043   -7.6160   23.9708 H   0  0  0  0  0  0
  -21.1474   -6.0522   25.9068 H   0  0  0  0  0  0
  -22.0602   -2.7621   23.2821 H   0  0  0  0  0  0
  -22.4131  -11.9847   22.4759 H   0  0  0  0  0  0
  -21.1062  -13.1155   22.2640 H   0  0  0  0  0  0
  -24.6616  -15.8617   20.5699 H   0  0  0  0  0  0
  -26.2844  -15.6491   20.1592 H   0  0  0  0  0  0
  -26.7254  -32.5261   23.0958 H   0  0  0  0  0  0
  -25.0123  -33.9628   25.0322 H   0  0  0  0  0  0
  -22.7630  -31.2780   21.3665 H   0  0  0  0  0  0
  -23.3803  -35.9515   23.3273 H   0  0  0  0  0  0
  -24.3578  -36.8899   22.2051 H   0  0  0  0  0  0
  -23.7200  -37.6387   23.6705 H   0  0  0  0  0  0
  -26.1783  -31.4409   20.6196 H   0  0  0  0  0  0
  -26.8795  -30.7435   22.0412 H   0  0  0  0  0  0
  -28.1515  -28.7591   21.2258 H   0  0  0  0  0  0
  -25.9341  -25.8013   19.0139 H   0  0  0  0  0  0
  -23.9865  -27.2608   19.0068 H   0  0  0  0  0  0
  -23.8290  -30.5350   19.3960 H   0  0  0  0  0  0
  -22.8012  -29.2092   19.8506 H   0  0  0  0  0  0
  -25.1345  -36.1868   25.0788 H   0  0  0  0  0  0
  -20.9980  -28.3346   24.1339 H   0  0  0  0  0  0
  -20.5690  -26.2370   23.3612 H   0  0  0  0  0  0
  -21.6677  -26.7465   22.1194 H   0  0  0  0  0  0
  -19.6980  -25.6278   21.1273 H   0  0  0  0  0  0
  -19.6754  -27.3143   20.6675 H   0  0  0  0  0  0
  -17.4239  -26.6645   21.4000 H   0  0  0  0  0  0
  -18.0399  -26.0107   22.9005 H   0  0  0  0  0  0
  -19.7950  -30.7312   24.2187 H   0  0  0  0  0  0
  -17.5036  -31.6285   24.5148 H   0  0  0  0  0  0
  -15.5375  -30.2971   23.7728 H   0  0  0  0  0  0
  -15.8686  -28.0827   22.7100 H   0  0  0  0  0  0
  -24.5843  -30.7172   25.7658 H   0  0  0  0  0  0
  -24.8904  -32.2940   26.4794 H   0  0  0  0  0  0
  -25.7909  -30.8894   27.0169 H   0  0  0  0  0  0
  -26.2978  -29.6665   24.1325 H   0  0  0  0  0  0
  -27.3967  -29.7263   25.4913 H   0  0  0  0  0  0
  -27.8921  -30.4166   23.9653 H   0  0  0  0  0  0
  -27.2724  -33.3658   26.1988 H   0  0  0  0  0  0
  -28.3923  -32.6785   25.0310 H   0  0  0  0  0  0
  -28.0711  -31.8463   26.5436 H   0  0  0  0  0  0
  -28.2592  -38.0098   24.7565 H   0  0  0  0  0  0
  -28.1133  -36.2630   24.6243 H   0  0  0  0  0  0
  -27.2307  -37.1350   25.8855 H   0  0  0  0  0  0
  -20.9513  -29.8722   21.6695 H   0  0  0  0  0  0
  -26.0187  -38.2809   24.1424 H   0  0  0  0  0  0
  -30.3247  -21.4366   18.3945 H   0  0  0  0  0  0
  -28.8093  -18.8226   21.4535 H   0  0  0  0  0  0
  -27.1730  -16.0257   16.9182 H   0  0  0  0  0  0
  -28.0795  -17.4100   16.1123 H   0  0  0  0  0  0
  -29.6333  -15.7527   15.0221 H   0  0  0  0  0  0
  -28.7074  -14.3766   15.8064 H   0  0  0  0  0  0
  -29.1849  -15.3017   18.0663 H   0  0  0  0  0  0
  -31.9253  -20.6379   16.9584 H   0  0  0  0  0  0
  -30.8887  -19.5989   15.9899 H   0  0  0  0  0  0
  -32.3225  -18.9460   16.8054 H   0  0  0  0  0  0
  -32.7172  -16.8411   17.7797 H   0  0  0  0  0  0
  -32.2062  -16.0740   16.2874 H   0  0  0  0  0  0
  -31.9573  -15.2435   17.7958 H   0  0  0  0  0  0
  -28.1737  -24.5141   21.5713 H   0  0  0  0  0  0
  -27.0056  -24.3239   20.3364 H   0  0  0  0  0  0
  -29.9558  -23.3394   19.9936 H   0  0  0  0  0  0
  -28.6678  -23.0088   18.9025 H   0  0  0  0  0  0
  -30.5117  -17.4580   16.4854 H   0  0  0  0  0  0
  -28.8276  -16.0554   20.8139 H   0  0  0  0  0  0
  1 25  1  0  0  0
  1 30  2  0  0  0
  1 85  1  0  0  0
  2  3  1  0  0  0
  2 25  1  0  0  0
  2 87  1  0  0  0
  2 88  1  0  0  0
  3  4  1  0  0  0
  3 89  1  0  0  0
  3 90  1  0  0  0
  4  5  1  0  0  0
  4 91  1  0  0  0
  4 92  1  0  0  0
  5  6  1  0  0  0
  5 26  1  0  0  0
  5 93  1  0  0  0
  6 25  1  0  0  0
  6 94  1  0  0  0
  6 95  1  0  0  0
  7  8  2  0  0  0
  7 26  1  0  0  0
  7 29  1  0  0  0
  8  9  1  0  0  0
  8 22  1  0  0  0
  9 10  1  0  0  0
  9 27  2  0  0  0
 10 11  2  0  0  0
 10 15  1  0  0  0
 11 12  1  0  0  0
 11 96  1  0  0  0
 12 13  2  0  0  0
 12 97  1  0  0  0
 13 14  1  0  0  0
 13 31  1  0  0  0
 14 15  2  0  0  0
 14 98  1  0  0  0
 15 99  1  0  0  0
 16 17  2  0  0  0
 16 21  1  0  0  0
 16 31  1  0  0  0
 17 18  1  0  0  0
 17100  1  0  0  0
 18 19  2  0  0  0
 18101  1  0  0  0
 19 20  1  0  0  0
 19 24  1  0  0  0
 20 21  2  0  0  0
 20102  1  0  0  0
 21 23  1  0  0  0
 22 28  1  0  0  0
 22 32  2  0  0  0
 26 27  1  0  0  0
 28103  1  0  0  0
 28104  1  0  0  0
 29105  1  0  0  0
 29106  1  0  0  0
 33 34  1  0  0  0
 33 66  1  0  0  0
 33 70  2  0  0  0
 34 36  1  0  0  0
 34 59  1  0  0  0
 34107  1  0  0  0
 35 44  2  0  0  0
 35 45  1  0  0  0
 35 68  1  0  0  0
 36 56  1  0  0  0
 36108  1  0  0  0
 37 39  1  0  0  0
 37 47  1  0  0  0
 37 66  1  0  0  0
 37109  1  0  0  0
 38 43  2  0  0  0
 38 46  1  0  0  0
 38 47  1  0  0  0
 39 64  1  0  0  0
 39 67  2  0  0  0
 40 52  1  0  0  0
 40 53  2  0  0  0
 40 58  1  0  0  0
 41110  1  0  0  0
 41111  1  0  0  0
 41112  1  0  0  0
 41 48  1  0  0  0
 42 43  1  0  0  0
 42 66  1  0  0  0
 42113  1  0  0  0
 42114  1  0  0  0
 43 44  1  0  0  0
 44115  1  0  0  0
 45 46  2  0  0  0
 45116  1  0  0  0
 46117  1  0  0  0
 47118  1  0  0  0
 47119  1  0  0  0
 48 56  1  0  0  0
 48 65  1  0  0  0
 48120  1  0  0  0
 49 50  1  0  0  0
 49 53  1  0  0  0
 49 64  1  0  0  0
 49121  1  0  0  0
 50 51  1  0  0  0
 50122  1  0  0  0
 50123  1  0  0  0
 51 52  1  0  0  0
 51124  1  0  0  0
 51125  1  0  0  0
 52126  1  0  0  0
 52127  1  0  0  0
 53 54  1  0  0  0
 54 55  2  0  0  0
 54128  1  0  0  0
 55 57  1  0  0  0
 55129  1  0  0  0
 56 69  2  0  0  0
 57 58  2  0  0  0
 57130  1  0  0  0
 58131  1  0  0  0
 59 60  1  0  0  0
 59 61  1  0  0  0
 59 62  1  0  0  0
 60132  1  0  0  0
 60133  1  0  0  0
 60134  1  0  0  0
 61135  1  0  0  0
 61136  1  0  0  0
 61137  1  0  0  0
 62138  1  0  0  0
 62139  1  0  0  0
 62140  1  0  0  0
 63 65  1  0  0  0
 63141  1  0  0  0
 63142  1  0  0  0
 63143  1  0  0  0
 64144  1  0  0  0
 65145  1  0  0  0
 68 82  1  0  0  0
 71 73  2  0  0  0
 71 76  1  0  0  0
 71146  1  0  0  0
 72 75  1  0  0  0
 72 76  2  0  0  0
 72147  1  0  0  0
 73 74  1  0  0  0
 73 80  1  0  0  0
 74 75  2  0  0  0
 74 84  1  0  0  0
 75 85  1  0  0  0
 76 86  1  0  0  0
 77 78  1  0  0  0
 77148  1  0  0  0
 77149  1  0  0  0
 77 79  1  0  0  0
 78 79  1  0  0  0
 78150  1  0  0  0
 78151  1  0  0  0
 79 84  1  0  0  0
 79152  1  0  0  0
 80153  1  0  0  0
 80154  1  0  0  0
 80155  1  0  0  0
 81156  1  0  0  0
 81157  1  0  0  0
 81158  1  0  0  0
 81 84  1  0  0  0
 82 83  1  0  0  0
 82159  1  0  0  0
 82160  1  0  0  0
 83 86  1  0  0  0
 83161  1  0  0  0
 83162  1  0  0  0
 84163  1  0  0  0
 85164  1  0  0  0
M  ISO  4   1 100  68 101  82 101  85 100
M  END
> <chiral flag>
0

> <version>
0

> <s_m_source_file>
/data/baiqing/PycharmProjects/Reinvent-master-3.2/result/LINK_invent/BTK/process_docking_weight1_custom_sum_contain_oxygen_bond_distance_aromatic_linkinvent_7_9_3/rearranged_h_0140.sdf

> <i_m_source_file_index>
35

> <r_mmod_Potential_Energy-OPLS-2005>
816.741516113281

> <r_mmod_Stretch_Energy-OPLS-2005>
353.898071289062

> <r_mmod_Bend_Energy-OPLS-2005>
315.591644287109

> <r_mmod_Torsional_Energy-OPLS-2005>
320.179565429688

> <r_mmod_Improper_Torsional_Energy-OPLS-2005>
3.93362164497375

> <r_mmod_Van_der_Waal_Energy-OPLS-2005>
134.078552246094

> <r_mmod_Electrostatic_Energy-OPLS-2005>
-350.427001953125

> <r_mmod_Solvation_Energy-OPLS-2005>
-211.220550537109

> <b_mmod_Minimization_Converged-OPLS-2005>
0

> <r_mmod_RMS_Derivative-OPLS-2005>
3.76434206962585

$$$$
35
                    3D
 Structure written by MMmdl.
168178  0  0  1  0            999 V2000
  -30.6956  -14.6040   20.5481 C   0  0  0  0  0  0
  -30.4172  -12.3887   19.4464 C   0  0  0  0  0  0
  -29.4946  -12.5031   18.2171 C   0  0  0  0  0  0
  -28.0206  -12.3456   18.6349 C   0  0  0  0  0  0
  -27.6472  -13.2253   19.8585 C   0  0  2  0  0  0
  -28.6927  -13.1080   20.9891 C   0  0  0  0  0  0
  -25.2533  -13.8194   20.5693 C   0  0  0  0  0  0
  -24.1813  -13.0446   20.9198 C   0  0  0  0  0  0
  -24.6389  -11.6917   20.8741 C   0  0  0  0  0  0
  -23.9063  -10.4293   21.0400 C   0  0  0  0  0  0
  -24.3614   -9.4209   21.9179 C   0  0  0  0  0  0
  -23.6290   -8.2247   22.0753 C   0  0  0  0  0  0
  -22.4275   -8.0278   21.3543 C   0  0  0  0  0  0
  -21.9907   -9.0251   20.4646 C   0  0  0  0  0  0
  -22.7235  -10.2130   20.3052 C   0  0  0  0  0  0
  -21.6853   -6.0728   22.5274 C   0  0  0  0  0  0
  -21.4018   -6.5636   23.8208 C   0  0  0  0  0  0
  -21.3657   -5.6791   24.9169 C   0  0  0  0  0  0
  -21.6047   -4.3052   24.7224 C   0  0  0  0  0  0
  -21.8820   -3.8140   23.4346 C   0  0  0  0  0  0
  -21.9197   -4.6957   22.3399 C   0  0  0  0  0  0
  -22.7836  -13.5232   21.1854 C   0  0  0  0  0  0
  -22.1664   -4.2140   21.0976 F   0  0  0  0  0  0
  -21.5627   -3.4537   25.7736 F   0  0  0  0  0  0
  -30.0031  -13.4300   20.4099 N   0  0  0  0  0  0
  -26.2962  -12.9390   20.3322 N   0  0  0  0  0  0
  -25.9323  -11.6537   20.5770 N   0  0  0  0  0  0
  -22.0480  -12.8216   22.0402 N   0  0  0  0  0  0
  -25.4250  -15.1914   20.4090 N   0  0  0  0  0  0
  -31.8470  -14.7041   20.1133 O   0  0  0  0  0  0
  -21.6643   -6.8871   21.4236 O   0  0  0  0  0  0
  -22.3518  -14.5531   20.6693 O   0  0  0  0  0  0
  -24.6239  -31.8597   23.2019 C   0  0  0  0  0  0
  -25.9090  -32.4774   23.8348 C   0  0  1  0  0  0
  -27.2218  -27.3272   20.1097 C   0  0  0  0  0  0
  -25.5919  -33.8581   24.2272 N   0  0  0  0  0  0
  -23.4159  -30.4832   21.5448 C   0  0  2  0  0  0
  -24.8595  -28.9351   20.1105 C   0  0  0  0  0  0
  -22.7462  -29.4630   22.4951 C   0  0  0  0  0  0
  -18.0287  -28.1385   22.8499 C   0  0  0  0  0  0
  -24.1487  -36.7293   23.2641 C   0  0  0  0  0  0
  -25.9544  -30.7938   21.3684 C   0  0  0  0  0  0
  -26.0263  -29.4203   20.7129 C   0  0  0  0  0  0
  -27.2073  -28.6247   20.7051 C   0  0  0  0  0  0
  -26.0276  -26.8837   19.4964 C   0  0  0  0  0  0
  -24.8609  -27.6724   19.4964 C   0  0  0  0  0  0
  -23.6281  -29.8157   20.1599 C   0  0  0  0  0  0
  -25.4113  -36.3082   24.0327 C   0  0  1  0  0  0
  -20.5884  -28.3684   23.1298 C   0  0  2  0  0  0
  -20.6779  -26.9412   22.5421 C   0  0  0  0  0  0
  -19.5751  -26.6387   21.5228 C   0  0  0  0  0  0
  -18.1930  -26.7933   22.1633 C   0  0  0  0  0  0
  -19.1538  -28.8853   23.2893 C   0  0  0  0  0  0
  -18.9464  -30.1462   23.8897 C   0  0  0  0  0  0
  -17.6461  -30.6590   24.0571 C   0  0  0  0  0  0
  -25.9050  -34.9456   23.5100 C   0  0  0  0  0  0
  -16.5352  -29.9088   23.6336 C   0  0  0  0  0  0
  -16.7275  -28.6508   23.0350 C   0  0  0  0  0  0
  -26.4485  -31.6582   25.0715 C   0  0  0  0  0  0
  -25.3743  -31.3714   26.1460 C   0  0  0  0  0  0
  -27.0318  -30.3015   24.6141 C   0  0  0  0  0  0
  -27.6040  -32.4320   25.7489 C   0  0  0  0  0  0
  -27.5570  -37.1806   24.8469 C   0  0  0  0  0  0
  -21.4176  -29.3034   22.3693 N   0  0  0  0  0  0
  -26.4286  -37.3778   23.9409 N   0  0  0  0  0  0
  -24.6839  -31.0621   22.0957 N   0  0  0  0  0  0
  -23.4194  -28.8169   23.3022 O   0  0  0  0  0  0
  -28.3692  -26.5264   20.1621 O   0  0  0  0  0  0
  -26.5620  -34.8922   22.4663 O   0  0  0  0  0  0
  -23.5408  -32.1383   23.7364 O   0  0  0  0  0  0
  -29.8676  -21.0889   22.0662 C   0  0  0  0  0  0
  -30.7869  -20.4184   22.8708 C   0  0  0  0  0  0
  -31.6005  -16.3721   22.7340 C   0  0  0  0  0  0
  -30.3440  -18.2545   21.7516 C   0  0  0  0  0  0
  -29.1986  -20.4190   21.0335 C   0  0  0  0  0  0
  -29.4430  -18.9865   20.8667 C   0  0  0  0  0  0
  -31.0383  -19.0458   22.7347 C   0  0  0  0  0  0
  -30.6502  -16.8141   21.7780 C   0  0  0  0  0  0
  -32.2357  -17.2637   23.5953 C   0  0  0  0  0  0
  -29.8596  -24.6643   19.4500 C   0  0  0  0  0  0
  -29.8171  -23.1098   19.3725 C   0  0  0  0  0  0
  -27.8344  -23.9303   20.4250 C   0  0  0  0  0  0
  -28.4082  -25.1515   19.6232 C   0  0  1  0  0  0
  -28.7442  -18.2307   19.7406 C   0  0  0  0  0  0
  -33.2725  -16.7951   24.5960 C   0  0  0  0  0  0
  -28.1443  -21.2984   20.2628 C   0  0  0  0  0  0
  -31.9517  -18.5655   23.6009 N   0  0  0  0  0  0
  -30.0421  -15.7156   21.0259 N   0  0  0  0  0  0
  -28.4514  -22.7156   19.7843 N   0  3  2  0  0  0
  -31.4609  -12.4840   19.1418 H   0  0  0  0  0  0
  -30.3329  -11.3994   19.8995 H   0  0  0  0  0  0
  -29.7551  -11.7466   17.4756 H   0  0  0  0  0  0
  -29.6418  -13.4707   17.7338 H   0  0  0  0  0  0
  -27.8570  -11.2937   18.8723 H   0  0  0  0  0  0
  -27.3637  -12.5716   17.7941 H   0  0  0  0  0  0
  -27.6599  -14.2573   19.5071 H   0  0  0  0  0  0
  -28.7032  -12.0988   21.4038 H   0  0  0  0  0  0
  -28.4436  -13.7716   21.8181 H   0  0  0  0  0  0
  -25.2757   -9.5686   22.4758 H   0  0  0  0  0  0
  -23.9995   -7.4638   22.7474 H   0  0  0  0  0  0
  -21.0840   -8.8766   19.8951 H   0  0  0  0  0  0
  -22.3689  -10.9666   19.6161 H   0  0  0  0  0  0
  -21.2009   -7.6146   23.9706 H   0  0  0  0  0  0
  -21.1479   -6.0521   25.9072 H   0  0  0  0  0  0
  -22.0602   -2.7603   23.2848 H   0  0  0  0  0  0
  -22.4093  -11.9874   22.4782 H   0  0  0  0  0  0
  -21.1096  -13.1237   22.2609 H   0  0  0  0  0  0
  -24.6567  -15.8457   20.5118 H   0  0  0  0  0  0
  -26.2700  -15.6247   20.0613 H   0  0  0  0  0  0
  -26.7158  -32.5452   23.1099 H   0  0  0  0  0  0
  -25.0098  -33.9731   25.0438 H   0  0  0  0  0  0
  -22.7103  -31.3043   21.4026 H   0  0  0  0  0  0
  -23.3746  -35.9632   23.3315 H   0  0  0  0  0  0
  -24.3587  -36.8896   22.2056 H   0  0  0  0  0  0
  -23.7247  -37.6499   23.6659 H   0  0  0  0  0  0
  -26.0826  -31.5557   20.5983 H   0  0  0  0  0  0
  -26.8366  -30.8447   21.9950 H   0  0  0  0  0  0
  -28.1056  -28.9936   21.1799 H   0  0  0  0  0  0
  -25.9597  -25.9156   19.0244 H   0  0  0  0  0  0
  -23.9622  -27.2949   19.0279 H   0  0  0  0  0  0
  -23.7460  -30.5907   19.4019 H   0  0  0  0  0  0
  -22.7479  -29.2448   19.8588 H   0  0  0  0  0  0
  -25.1295  -36.1932   25.0821 H   0  0  0  0  0  0
  -20.9982  -28.3253   24.1415 H   0  0  0  0  0  0
  -20.5703  -26.2290   23.3616 H   0  0  0  0  0  0
  -21.6644  -26.7458   22.1196 H   0  0  0  0  0  0
  -19.6913  -25.6301   21.1244 H   0  0  0  0  0  0
  -19.6681  -27.3212   20.6771 H   0  0  0  0  0  0
  -17.4204  -26.6698   21.4026 H   0  0  0  0  0  0
  -18.0311  -26.0070   22.9019 H   0  0  0  0  0  0
  -19.7939  -30.7287   24.2250 H   0  0  0  0  0  0
  -17.5016  -31.6268   24.5175 H   0  0  0  0  0  0
  -15.5353  -30.2988   23.7661 H   0  0  0  0  0  0
  -15.8676  -28.0832   22.7047 H   0  0  0  0  0  0
  -24.5922  -30.7040   25.7814 H   0  0  0  0  0  0
  -24.8931  -32.2878   26.4890 H   0  0  0  0  0  0
  -25.8094  -30.8910   27.0231 H   0  0  0  0  0  0
  -26.2868  -29.6786   24.1171 H   0  0  0  0  0  0
  -27.4035  -29.7247   25.4620 H   0  0  0  0  0  0
  -27.8736  -30.4315   23.9336 H   0  0  0  0  0  0
  -27.2635  -33.3624   26.2050 H   0  0  0  0  0  0
  -28.3859  -32.6869   25.0323 H   0  0  0  0  0  0
  -28.0700  -31.8460   26.5423 H   0  0  0  0  0  0
  -28.2593  -38.0096   24.7497 H   0  0  0  0  0  0
  -28.1046  -36.2623   24.6302 H   0  0  0  0  0  0
  -27.2288  -37.1461   25.8871 H   0  0  0  0  0  0
  -20.9351  -29.8753   21.6901 H   0  0  0  0  0  0
  -26.0159  -38.2848   24.1407 H   0  0  0  0  0  0
  -29.6820  -22.1384   22.2518 H   0  0  0  0  0  0
  -31.3048  -20.9713   23.6424 H   0  0  0  0  0  0
  -31.8638  -15.3266   22.8318 H   0  0  0  0  0  0
  -30.3418  -25.1116   18.5811 H   0  0  0  0  0  0
  -30.4388  -24.9600   20.3252 H   0  0  0  0  0  0
  -30.5878  -22.6770   20.0085 H   0  0  0  0  0  0
  -29.9976  -22.7552   18.3569 H   0  0  0  0  0  0
  -26.7460  -23.8956   20.3962 H   0  0  0  0  0  0
  -28.1410  -23.9871   21.4701 H   0  0  0  0  0  0
  -27.9655  -25.1560   18.6258 H   0  0  0  0  0  0
  -29.3984  -17.4736   19.3112 H   0  0  0  0  0  0
  -28.4827  -18.8634   18.8966 H   0  0  0  0  0  0
  -27.8377  -17.7466   20.1043 H   0  0  0  0  0  0
  -33.6241  -15.7906   24.3601 H   0  0  0  0  0  0
  -32.8531  -16.7790   25.6019 H   0  0  0  0  0  0
  -34.1389  -17.4573   24.5973 H   0  0  0  0  0  0
  -27.2468  -21.3417   20.8814 H   0  0  0  0  0  0
  -27.8240  -20.7773   19.3664 H   0  0  0  0  0  0
  -29.0371  -15.6527   21.0757 H   0  0  0  0  0  0
  -27.9692  -22.6968   18.8967 H   0  0  0  0  0  0
  1 25  1  0  0  0
  1 30  2  0  0  0
  1 88  1  0  0  0
  2  3  1  0  0  0
  2 25  1  0  0  0
  2 90  1  0  0  0
  2 91  1  0  0  0
  3  4  1  0  0  0
  3 92  1  0  0  0
  3 93  1  0  0  0
  4  5  1  0  0  0
  4 94  1  0  0  0
  4 95  1  0  0  0
  5  6  1  0  0  0
  5 26  1  0  0  0
  5 96  1  0  0  0
  6 25  1  0  0  0
  6 97  1  0  0  0
  6 98  1  0  0  0
  7  8  2  0  0  0
  7 26  1  0  0  0
  7 29  1  0  0  0
  8  9  1  0  0  0
  8 22  1  0  0  0
  9 10  1  0  0  0
  9 27  2  0  0  0
 10 11  2  0  0  0
 10 15  1  0  0  0
 11 12  1  0  0  0
 11 99  1  0  0  0
 12 13  2  0  0  0
 12100  1  0  0  0
 13 14  1  0  0  0
 13 31  1  0  0  0
 14 15  2  0  0  0
 14101  1  0  0  0
 15102  1  0  0  0
 16 17  2  0  0  0
 16 21  1  0  0  0
 16 31  1  0  0  0
 17 18  1  0  0  0
 17103  1  0  0  0
 18 19  2  0  0  0
 18104  1  0  0  0
 19 20  1  0  0  0
 19 24  1  0  0  0
 20 21  2  0  0  0
 20105  1  0  0  0
 21 23  1  0  0  0
 22 28  1  0  0  0
 22 32  2  0  0  0
 26 27  1  0  0  0
 28106  1  0  0  0
 28107  1  0  0  0
 29108  1  0  0  0
 29109  1  0  0  0
 33 34  1  0  0  0
 33 66  1  0  0  0
 33 70  2  0  0  0
 34 36  1  0  0  0
 34 59  1  0  0  0
 34110  1  0  0  0
 35 44  2  0  0  0
 35 45  1  0  0  0
 35 68  1  0  0  0
 36 56  1  0  0  0
 36111  1  0  0  0
 37 39  1  0  0  0
 37 47  1  0  0  0
 37 66  1  0  0  0
 37112  1  0  0  0
 38 43  2  0  0  0
 38 46  1  0  0  0
 38 47  1  0  0  0
 39 64  1  0  0  0
 39 67  2  0  0  0
 40 52  1  0  0  0
 40 53  2  0  0  0
 40 58  1  0  0  0
 41113  1  0  0  0
 41114  1  0  0  0
 41115  1  0  0  0
 41 48  1  0  0  0
 42 43  1  0  0  0
 42 66  1  0  0  0
 42116  1  0  0  0
 42117  1  0  0  0
 43 44  1  0  0  0
 44118  1  0  0  0
 45 46  2  0  0  0
 45119  1  0  0  0
 46120  1  0  0  0
 47121  1  0  0  0
 47122  1  0  0  0
 48 56  1  0  0  0
 48 65  1  0  0  0
 48123  1  0  0  0
 49 50  1  0  0  0
 49 53  1  0  0  0
 49 64  1  0  0  0
 49124  1  0  0  0
 50 51  1  0  0  0
 50125  1  0  0  0
 50126  1  0  0  0
 51 52  1  0  0  0
 51127  1  0  0  0
 51128  1  0  0  0
 52129  1  0  0  0
 52130  1  0  0  0
 53 54  1  0  0  0
 54 55  2  0  0  0
 54131  1  0  0  0
 55 57  1  0  0  0
 55132  1  0  0  0
 56 69  2  0  0  0
 57 58  2  0  0  0
 57133  1  0  0  0
 58134  1  0  0  0
 59 60  1  0  0  0
 59 61  1  0  0  0
 59 62  1  0  0  0
 60135  1  0  0  0
 60136  1  0  0  0
 60137  1  0  0  0
 61138  1  0  0  0
 61139  1  0  0  0
 61140  1  0  0  0
 62141  1  0  0  0
 62142  1  0  0  0
 62143  1  0  0  0
 63 65  1  0  0  0
 63144  1  0  0  0
 63145  1  0  0  0
 63146  1  0  0  0
 64147  1  0  0  0
 65148  1  0  0  0
 68 83  1  0  0  0
 71 72  2  0  0  0
 71 75  1  0  0  0
 71149  1  0  0  0
 72 77  1  0  0  0
 72150  1  0  0  0
 73 78  2  0  0  0
 73 79  1  0  0  0
 73151  1  0  0  0
 74 76  1  0  0  0
 74 77  2  0  0  0
 74 78  1  0  0  0
 75 76  2  0  0  0
 75 86  1  0  0  0
 76 84  1  0  0  0
 77 87  1  0  0  0
 78 88  1  0  0  0
 79 85  1  0  0  0
 79 87  2  0  0  0
 80 81  1  0  0  0
 80 83  1  0  0  0
 80152  1  0  0  0
 80153  1  0  0  0
 81 89  1  0  0  0
 81154  1  0  0  0
 81155  1  0  0  0
 82 83  1  0  0  0
 82 89  1  0  0  0
 82156  1  0  0  0
 82157  1  0  0  0
 83158  1  0  0  0
 84159  1  0  0  0
 84160  1  0  0  0
 84161  1  0  0  0
 85162  1  0  0  0
 85163  1  0  0  0
 85164  1  0  0  0
 86165  1  0  0  0
 86166  1  0  0  0
 86 89  1  0  0  0
 88167  1  0  0  0
 89168  1  0  0  0
M  CHG  1  89   1
M  ISO  4   1 100  68 101  83 101  88 100
M  END
> <chiral flag>
0

> <version>
0

> <s_m_source_file>
/data/baiqing/PycharmProjects/Reinvent-master-3.2/result/LINK_invent/BTK/process_docking_weight1_custom_sum_contain_oxygen_bond_distance_aromatic_linkinvent_7_9_3/rearranged_h_0140.sdf

> <i_m_source_file_index>
36

> <r_mmod_Potential_Energy-OPLS-2005>
40.5238037109375

> <r_mmod_Stretch_Energy-OPLS-2005>
95.5927047729492

> <r_mmod_Bend_Energy-OPLS-2005>
224.92658996582

> <r_mmod_Torsional_Energy-OPLS-2005>
275.785308837891

> <r_mmod_Improper_Torsional_Energy-OPLS-2005>
4.62754678726196

> <r_mmod_Van_der_Waal_Energy-OPLS-2005>
164.994583129883

> <r_mmod_Electrostatic_Energy-OPLS-2005>
-307.626800537109

> <r_mmod_Solvation_Energy-OPLS-2005>
-458.361785888672

> <b_mmod_Minimization_Converged-OPLS-2005>
0

> <r_mmod_RMS_Derivative-OPLS-2005>
1.19770479202271

$$$$
36
                    3D
 Structure written by MMmdl.
165173  0  0  1  0            999 V2000
  -30.6822  -14.4761   20.5285 C   0  0  0  0  0  0
  -30.4192  -12.2944   19.4101 C   0  0  0  0  0  0
  -29.4924  -12.5141   18.1950 C   0  0  0  0  0  0
  -28.0111  -12.3724   18.5983 C   0  0  0  0  0  0
  -27.6625  -13.2012   19.8644 C   0  0  2  0  0  0
  -28.7069  -12.9802   20.9850 C   0  0  0  0  0  0
  -25.2658  -13.8119   20.5671 C   0  0  0  0  0  0
  -24.1903  -13.0401   20.9216 C   0  0  0  0  0  0
  -24.6463  -11.6876   20.8785 C   0  0  0  0  0  0
  -23.9134  -10.4254   21.0487 C   0  0  0  0  0  0
  -24.3666   -9.4135   21.9238 C   0  0  0  0  0  0
  -23.6301   -8.2186   22.0781 C   0  0  0  0  0  0
  -22.4277   -8.0284   21.3566 C   0  0  0  0  0  0
  -21.9951   -9.0279   20.4678 C   0  0  0  0  0  0
  -22.7333  -10.2133   20.3110 C   0  0  0  0  0  0
  -21.6813   -6.0767   22.5300 C   0  0  0  0  0  0
  -21.4001   -6.5667   23.8246 C   0  0  0  0  0  0
  -21.3653   -5.6817   24.9200 C   0  0  0  0  0  0
  -21.6031   -4.3077   24.7240 C   0  0  0  0  0  0
  -21.8810   -3.8178   23.4353 C   0  0  0  0  0  0
  -21.9178   -4.6998   22.3419 C   0  0  0  0  0  0
  -22.7934  -13.5236   21.1810 C   0  0  0  0  0  0
  -22.1640   -4.2198   21.0986 F   0  0  0  0  0  0
  -21.5622   -3.4558   25.7745 F   0  0  0  0  0  0
  -30.0389  -13.2809   20.4352 N   0  0  0  0  0  0
  -26.3057  -12.9263   20.3315 N   0  0  0  0  0  0
  -25.9372  -11.6432   20.5731 N   0  0  0  0  0  0
  -22.0553  -12.8260   22.0387 N   0  0  0  0  0  0
  -25.4412  -15.1795   20.4010 N   0  0  0  0  0  0
  -31.8263  -14.6683   20.1127 O   0  0  0  0  0  0
  -21.6592   -6.8914   21.4270 O   0  0  0  0  0  0
  -22.3623  -14.5513   20.6612 O   0  0  0  0  0  0
  -24.6154  -31.8672   23.2058 C   0  0  0  0  0  0
  -25.9046  -32.4809   23.8359 C   0  0  1  0  0  0
  -27.2268  -27.4123   20.0841 C   0  0  0  0  0  0
  -25.5881  -33.8607   24.2276 N   0  0  0  0  0  0
  -23.4042  -30.4914   21.5485 C   0  0  2  0  0  0
  -24.8472  -28.9585   20.1141 C   0  0  0  0  0  0
  -22.7411  -29.4670   22.4980 C   0  0  0  0  0  0
  -18.0277  -28.1376   22.8522 C   0  0  0  0  0  0
  -24.1486  -36.7308   23.2634 C   0  0  0  0  0  0
  -25.9361  -30.8257   21.3639 C   0  0  0  0  0  0
  -26.0088  -29.4581   20.7117 C   0  0  0  0  0  0
  -27.2001  -28.6934   20.6934 C   0  0  0  0  0  0
  -26.0324  -26.9267   19.5007 C   0  0  0  0  0  0
  -24.8543  -27.6937   19.5067 C   0  0  0  0  0  0
  -23.6135  -29.8286   20.1613 C   0  0  0  0  0  0
  -25.4113  -36.3090   24.0314 C   0  0  1  0  0  0
  -20.5866  -28.3691   23.1340 C   0  0  2  0  0  0
  -20.6782  -26.9388   22.5543 C   0  0  0  0  0  0
  -19.5768  -26.6258   21.5356 C   0  0  0  0  0  0
  -18.1939  -26.7874   22.1737 C   0  0  0  0  0  0
  -19.1515  -28.8867   23.2896 C   0  0  0  0  0  0
  -18.9437  -30.1492   23.8877 C   0  0  0  0  0  0
  -17.6430  -30.6598   24.0540 C   0  0  0  0  0  0
  -25.9044  -34.9461   23.5097 C   0  0  0  0  0  0
  -16.5335  -29.9072   23.6323 C   0  0  0  0  0  0
  -16.7258  -28.6484   23.0355 C   0  0  0  0  0  0
  -26.4486  -31.6586   25.0683 C   0  0  0  0  0  0
  -25.3762  -31.3677   26.1425 C   0  0  0  0  0  0
  -27.0303  -30.3027   24.6052 C   0  0  0  0  0  0
  -27.6071  -32.4296   25.7450 C   0  0  0  0  0  0
  -27.5581  -37.1800   24.8466 C   0  0  0  0  0  0
  -21.4147  -29.3022   22.3709 N   0  0  0  0  0  0
  -26.4296  -37.3778   23.9400 N   0  0  0  0  0  0
  -24.6708  -31.0775   22.0971 N   0  0  0  0  0  0
  -23.4182  -28.8234   23.3042 O   0  0  0  0  0  0
  -28.4184  -26.7024   20.0786 O   0  0  0  0  0  0
  -26.5640  -34.8923   22.4675 O   0  0  0  0  0  0
  -23.5337  -32.1439   23.7422 O   0  0  0  0  0  0
  -27.5121  -20.7985   20.4355 C   0  0  0  0  0  0
  -30.1303  -20.3818   21.0782 C   0  0  0  0  0  0
  -27.8718  -19.5164   20.9138 C   0  0  0  0  0  0
  -29.2494  -19.2825   21.1863 C   0  0  0  0  0  0
  -28.4792  -21.8086   20.3088 C   0  0  0  0  0  0
  -25.5023  -19.8248   22.8413 C   0  0  0  0  0  0
  -24.3510  -19.1114   20.6775 C   0  0  0  0  0  0
  -26.8056  -18.4160   21.0549 C   0  0  0  0  0  0
  -29.8082  -17.9111   21.6178 C   0  0  0  0  0  0
  -30.0230  -16.9114   20.4533 C   0  0  0  0  0  0
  -28.5268  -25.4079   19.4441 C   0  0  0  0  0  0
  -28.3443  -24.2159   20.4182 C   0  0  0  0  0  0
  -25.4425  -18.7826   21.7108 C   0  0  0  0  0  0
  -29.7684  -21.6176   20.6556 N   0  0  0  0  0  0
  -29.8858  -15.5042   20.8740 N   0  0  0  0  0  0
  -28.1507  -22.9987   19.6921 O   0  0  0  0  0  0
  -31.4671  -12.3798   19.1128 H   0  0  0  0  0  0
  -30.2951  -11.2816   19.7961 H   0  0  0  0  0  0
  -29.7279  -11.8065   17.3986 H   0  0  0  0  0  0
  -29.6686  -13.5104   17.7845 H   0  0  0  0  0  0
  -27.8132  -11.3136   18.7697 H   0  0  0  0  0  0
  -27.3667  -12.6715   17.7686 H   0  0  0  0  0  0
  -27.6974  -14.2494   19.5633 H   0  0  0  0  0  0
  -28.6817  -11.9443   21.3249 H   0  0  0  0  0  0
  -28.4718  -13.5821   21.8643 H   0  0  0  0  0  0
  -25.2833   -9.5513   22.4802 H   0  0  0  0  0  0
  -23.9980   -7.4540   22.7486 H   0  0  0  0  0  0
  -21.0878   -8.8850   19.8972 H   0  0  0  0  0  0
  -22.3875  -10.9684   19.6197 H   0  0  0  0  0  0
  -21.1998   -7.6179   23.9765 H   0  0  0  0  0  0
  -21.1480   -6.0546   25.9109 H   0  0  0  0  0  0
  -22.0596   -2.7644   23.2843 H   0  0  0  0  0  0
  -22.4150  -11.9902   22.4722 H   0  0  0  0  0  0
  -21.1194  -13.1332   22.2601 H   0  0  0  0  0  0
  -24.6667  -15.8283   20.4707 H   0  0  0  0  0  0
  -26.2793  -15.5908   20.0091 H   0  0  0  0  0  0
  -26.7124  -32.5512   23.1123 H   0  0  0  0  0  0
  -24.9966  -33.9786   25.0376 H   0  0  0  0  0  0
  -22.6936  -31.3072   21.4071 H   0  0  0  0  0  0
  -23.3729  -35.9662   23.3318 H   0  0  0  0  0  0
  -24.3571  -36.8916   22.2046 H   0  0  0  0  0  0
  -23.7268  -37.6520   23.6667 H   0  0  0  0  0  0
  -26.0490  -31.5889   20.5920 H   0  0  0  0  0  0
  -26.8248  -30.8801   21.9810 H   0  0  0  0  0  0
  -28.1014  -29.0865   21.1441 H   0  0  0  0  0  0
  -25.9681  -25.9582   19.0301 H   0  0  0  0  0  0
  -23.9601  -27.3043   19.0400 H   0  0  0  0  0  0
  -23.7250  -30.6038   19.3995 H   0  0  0  0  0  0
  -22.7410  -29.2446   19.8647 H   0  0  0  0  0  0
  -25.1299  -36.1938   25.0808 H   0  0  0  0  0  0
  -20.9945  -28.3297   24.1457 H   0  0  0  0  0  0
  -20.5673  -26.2319   23.3779 H   0  0  0  0  0  0
  -21.6670  -26.7375   22.1405 H   0  0  0  0  0  0
  -19.6958  -25.6100   21.1559 H   0  0  0  0  0  0
  -19.6712  -27.2944   20.6785 H   0  0  0  0  0  0
  -17.4219  -26.6550   21.4149 H   0  0  0  0  0  0
  -18.0323  -26.0093   22.9216 H   0  0  0  0  0  0
  -19.7916  -30.7341   24.2210 H   0  0  0  0  0  0
  -17.4957  -31.6308   24.5078 H   0  0  0  0  0  0
  -15.5333  -30.2955   23.7620 H   0  0  0  0  0  0
  -15.8667  -28.0784   22.7057 H   0  0  0  0  0  0
  -24.5955  -30.7020   25.7734 H   0  0  0  0  0  0
  -24.8942  -32.2826   26.4884 H   0  0  0  0  0  0
  -25.8121  -30.8825   27.0164 H   0  0  0  0  0  0
  -26.2824  -29.6786   24.1154 H   0  0  0  0  0  0
  -27.4122  -29.7269   25.4488 H   0  0  0  0  0  0
  -27.8646  -30.4322   23.9151 H   0  0  0  0  0  0
  -27.2710  -33.3583   26.2063 H   0  0  0  0  0  0
  -28.3875  -32.6863   25.0278 H   0  0  0  0  0  0
  -28.0758  -31.8392   26.5329 H   0  0  0  0  0  0
  -28.2599  -38.0091   24.7499 H   0  0  0  0  0  0
  -28.1068  -36.2622   24.6310 H   0  0  0  0  0  0
  -27.2301  -37.1481   25.8868 H   0  0  0  0  0  0
  -20.9266  -29.8697   21.6924 H   0  0  0  0  0  0
  -26.0168  -38.2843   24.1419 H   0  0  0  0  0  0
  -26.4922  -21.0231   20.1615 H   0  0  0  0  0  0
  -31.1733  -20.2591   21.3319 H   0  0  0  0  0  0
  -24.5685  -19.8303   23.4058 H   0  0  0  0  0  0
  -25.6557  -20.8355   22.4640 H   0  0  0  0  0  0
  -26.3057  -19.6059   23.5448 H   0  0  0  0  0  0
  -23.3751  -19.2051   21.1563 H   0  0  0  0  0  0
  -24.2691  -18.3191   19.9340 H   0  0  0  0  0  0
  -24.5492  -20.0394   20.1450 H   0  0  0  0  0  0
  -27.1980  -17.6019   21.6599 H   0  0  0  0  0  0
  -26.6404  -17.9683   20.0756 H   0  0  0  0  0  0
  -29.1696  -17.4870   22.3880 H   0  0  0  0  0  0
  -30.7662  -18.0486   22.1222 H   0  0  0  0  0  0
  -29.2613  -17.0673   19.6890 H   0  0  0  0  0  0
  -30.9740  -17.1146   19.9536 H   0  0  0  0  0  0
  -27.8754  -25.2904   18.5803 H   0  0  0  0  0  0
  -29.5261  -25.3571   19.0117 H   0  0  0  0  0  0
  -27.4404  -24.3711   21.0073 H   0  0  0  0  0  0
  -29.1854  -24.1647   21.1097 H   0  0  0  0  0  0
  -25.0949  -17.8601   22.1768 H   0  0  0  0  0  0
  -28.9668  -15.2283   21.1843 H   0  0  0  0  0  0
  1 25  1  0  0  0
  1 30  2  0  0  0
  1 85  1  0  0  0
  2  3  1  0  0  0
  2 25  1  0  0  0
  2 87  1  0  0  0
  2 88  1  0  0  0
  3  4  1  0  0  0
  3 89  1  0  0  0
  3 90  1  0  0  0
  4  5  1  0  0  0
  4 91  1  0  0  0
  4 92  1  0  0  0
  5  6  1  0  0  0
  5 26  1  0  0  0
  5 93  1  0  0  0
  6 25  1  0  0  0
  6 94  1  0  0  0
  6 95  1  0  0  0
  7  8  2  0  0  0
  7 26  1  0  0  0
  7 29  1  0  0  0
  8  9  1  0  0  0
  8 22  1  0  0  0
  9 10  1  0  0  0
  9 27  2  0  0  0
 10 11  2  0  0  0
 10 15  1  0  0  0
 11 12  1  0  0  0
 11 96  1  0  0  0
 12 13  2  0  0  0
 12 97  1  0  0  0
 13 14  1  0  0  0
 13 31  1  0  0  0
 14 15  2  0  0  0
 14 98  1  0  0  0
 15 99  1  0  0  0
 16 17  2  0  0  0
 16 21  1  0  0  0
 16 31  1  0  0  0
 17 18  1  0  0  0
 17100  1  0  0  0
 18 19  2  0  0  0
 18101  1  0  0  0
 19 20  1  0  0  0
 19 24  1  0  0  0
 20 21  2  0  0  0
 20102  1  0  0  0
 21 23  1  0  0  0
 22 28  1  0  0  0
 22 32  2  0  0  0
 26 27  1  0  0  0
 28103  1  0  0  0
 28104  1  0  0  0
 29105  1  0  0  0
 29106  1  0  0  0
 33 34  1  0  0  0
 33 66  1  0  0  0
 33 70  2  0  0  0
 34 36  1  0  0  0
 34 59  1  0  0  0
 34107  1  0  0  0
 35 44  2  0  0  0
 35 45  1  0  0  0
 35 68  1  0  0  0
 36 56  1  0  0  0
 36108  1  0  0  0
 37 39  1  0  0  0
 37 47  1  0  0  0
 37 66  1  0  0  0
 37109  1  0  0  0
 38 43  2  0  0  0
 38 46  1  0  0  0
 38 47  1  0  0  0
 39 64  1  0  0  0
 39 67  2  0  0  0
 40 52  1  0  0  0
 40 53  2  0  0  0
 40 58  1  0  0  0
 41110  1  0  0  0
 41111  1  0  0  0
 41112  1  0  0  0
 41 48  1  0  0  0
 42 43  1  0  0  0
 42 66  1  0  0  0
 42113  1  0  0  0
 42114  1  0  0  0
 43 44  1  0  0  0
 44115  1  0  0  0
 45 46  2  0  0  0
 45116  1  0  0  0
 46117  1  0  0  0
 47118  1  0  0  0
 47119  1  0  0  0
 48 56  1  0  0  0
 48 65  1  0  0  0
 48120  1  0  0  0
 49 50  1  0  0  0
 49 53  1  0  0  0
 49 64  1  0  0  0
 49121  1  0  0  0
 50 51  1  0  0  0
 50122  1  0  0  0
 50123  1  0  0  0
 51 52  1  0  0  0
 51124  1  0  0  0
 51125  1  0  0  0
 52126  1  0  0  0
 52127  1  0  0  0
 53 54  1  0  0  0
 54 55  2  0  0  0
 54128  1  0  0  0
 55 57  1  0  0  0
 55129  1  0  0  0
 56 69  2  0  0  0
 57 58  2  0  0  0
 57130  1  0  0  0
 58131  1  0  0  0
 59 60  1  0  0  0
 59 61  1  0  0  0
 59 62  1  0  0  0
 60132  1  0  0  0
 60133  1  0  0  0
 60134  1  0  0  0
 61135  1  0  0  0
 61136  1  0  0  0
 61137  1  0  0  0
 62138  1  0  0  0
 62139  1  0  0  0
 62140  1  0  0  0
 63 65  1  0  0  0
 63141  1  0  0  0
 63142  1  0  0  0
 63143  1  0  0  0
 64144  1  0  0  0
 65145  1  0  0  0
 68 81  1  0  0  0
 71 73  2  0  0  0
 71 75  1  0  0  0
 71146  1  0  0  0
 72 74  2  0  0  0
 72 84  1  0  0  0
 72147  1  0  0  0
 73 74  1  0  0  0
 73 78  1  0  0  0
 74 79  1  0  0  0
 75 84  2  0  0  0
 75 86  1  0  0  0
 76148  1  0  0  0
 76149  1  0  0  0
 76150  1  0  0  0
 76 83  1  0  0  0
 77 83  1  0  0  0
 77151  1  0  0  0
 77152  1  0  0  0
 77153  1  0  0  0
 78 83  1  0  0  0
 78154  1  0  0  0
 78155  1  0  0  0
 79 80  1  0  0  0
 79156  1  0  0  0
 79157  1  0  0  0
 80 85  1  0  0  0
 80158  1  0  0  0
 80159  1  0  0  0
 81 82  1  0  0  0
 81160  1  0  0  0
 81161  1  0  0  0
 82 86  1  0  0  0
 82162  1  0  0  0
 82163  1  0  0  0
 83164  1  0  0  0
 85165  1  0  0  0
M  ISO  4   1 100  68 101  81 101  85 100
M  END
> <chiral flag>
0

> <version>
0

> <s_m_source_file>
/data/baiqing/PycharmProjects/Reinvent-master-3.2/result/LINK_invent/BTK/process_docking_weight1_custom_sum_contain_oxygen_bond_distance_aromatic_linkinvent_7_9_3/rearranged_h_0140.sdf

> <i_m_source_file_index>
37

> <r_mmod_Potential_Energy-OPLS-2005>
-213.386123657227

> <r_mmod_Stretch_Energy-OPLS-2005>
41.8785820007324

> <r_mmod_Bend_Energy-OPLS-2005>
119.660530090332

> <r_mmod_Torsional_Energy-OPLS-2005>
231.050155639648

> <r_mmod_Improper_Torsional_Energy-OPLS-2005>
7.98877859115601

> <r_mmod_Van_der_Waal_Energy-OPLS-2005>
150.205917358398

> <r_mmod_Electrostatic_Energy-OPLS-2005>
-563.014831542969

> <r_mmod_Solvation_Energy-OPLS-2005>
-215.813232421875

> <b_mmod_Minimization_Converged-OPLS-2005>
0

> <r_mmod_RMS_Derivative-OPLS-2005>
4.91080617904663

$$$$
37
                    3D
 Structure written by MMmdl.
164173  0  0  1  0            999 V2000
  -30.7036  -14.4030   20.5806 C   0  0  0  0  0  0
  -30.4230  -12.2632   19.4174 C   0  0  0  0  0  0
  -29.4968  -12.5029   18.2066 C   0  0  0  0  0  0
  -28.0160  -12.3727   18.6150 C   0  0  0  0  0  0
  -27.6685  -13.1973   19.8832 C   0  0  2  0  0  0
  -28.7042  -12.9367   21.0016 C   0  0  0  0  0  0
  -25.2632  -13.8150   20.5686 C   0  0  0  0  0  0
  -24.1856  -13.0445   20.9160 C   0  0  0  0  0  0
  -24.6387  -11.6903   20.8720 C   0  0  0  0  0  0
  -23.9047  -10.4292   21.0399 C   0  0  0  0  0  0
  -24.3602   -9.4208   21.9177 C   0  0  0  0  0  0
  -23.6279   -8.2248   22.0751 C   0  0  0  0  0  0
  -22.4263   -8.0286   21.3546 C   0  0  0  0  0  0
  -21.9894   -9.0257   20.4649 C   0  0  0  0  0  0
  -22.7222  -10.2135   20.3053 C   0  0  0  0  0  0
  -21.6856   -6.0736   22.5276 C   0  0  0  0  0  0
  -21.4016   -6.5641   23.8211 C   0  0  0  0  0  0
  -21.3656   -5.6792   24.9172 C   0  0  0  0  0  0
  -21.6048   -4.3057   24.7221 C   0  0  0  0  0  0
  -21.8821   -3.8146   23.4344 C   0  0  0  0  0  0
  -21.9192   -4.6964   22.3399 C   0  0  0  0  0  0
  -22.7884  -13.5263   21.1830 C   0  0  0  0  0  0
  -22.1664   -4.2152   21.0974 F   0  0  0  0  0  0
  -21.5620   -3.4540   25.7734 F   0  0  0  0  0  0
  -30.0464  -13.2232   20.4635 N   0  0  0  0  0  0
  -26.3057  -12.9299   20.3381 N   0  0  0  0  0  0
  -25.9310  -11.6468   20.5755 N   0  0  0  0  0  0
  -22.0512  -12.8265   22.0387 N   0  0  0  0  0  0
  -25.4398  -15.1868   20.4136 N   0  0  0  0  0  0
  -31.8271  -14.6087   20.1102 O   0  0  0  0  0  0
  -21.6637   -6.8879   21.4240 O   0  0  0  0  0  0
  -22.3579  -14.5570   20.6681 O   0  0  0  0  0  0
  -24.6091  -31.8703   23.2141 C   0  0  0  0  0  0
  -25.9004  -32.4833   23.8417 C   0  0  1  0  0  0
  -27.2408  -27.4786   20.0820 C   0  0  0  0  0  0
  -25.5878  -33.8633   24.2343 N   0  0  0  0  0  0
  -23.3943  -30.4937   21.5538 C   0  0  2  0  0  0
  -24.8389  -28.9611   20.1182 C   0  0  0  0  0  0
  -22.7373  -29.4660   22.5018 C   0  0  0  0  0  0
  -18.0263  -28.1371   22.8494 C   0  0  0  0  0  0
  -24.1483  -36.7325   23.2635 C   0  0  0  0  0  0
  -25.9170  -30.8476   21.3600 C   0  0  0  0  0  0
  -25.9941  -29.4838   20.7102 C   0  0  0  0  0  0
  -27.1933  -28.7470   20.6924 C   0  0  0  0  0  0
  -26.0647  -26.9508   19.4982 C   0  0  0  0  0  0
  -24.8660  -27.6908   19.5146 C   0  0  0  0  0  0
  -23.6003  -29.8252   20.1674 C   0  0  0  0  0  0
  -25.4098  -36.3117   24.0338 C   0  0  1  0  0  0
  -20.5846  -28.3641   23.1341 C   0  0  2  0  0  0
  -20.6751  -26.9385   22.5424 C   0  0  0  0  0  0
  -19.5733  -26.6384   21.5211 C   0  0  0  0  0  0
  -18.1911  -26.7923   22.1619 C   0  0  0  0  0  0
  -19.1509  -28.8821   23.2919 C   0  0  0  0  0  0
  -18.9440  -30.1431   23.8926 C   0  0  0  0  0  0
  -17.6443  -30.6579   24.0570 C   0  0  0  0  0  0
  -25.9022  -34.9479   23.5136 C   0  0  0  0  0  0
  -16.5335  -29.9084   23.6320 C   0  0  0  0  0  0
  -16.7252  -28.6500   23.0340 C   0  0  0  0  0  0
  -26.4458  -31.6606   25.0727 C   0  0  0  0  0  0
  -25.3757  -31.3694   26.1501 C   0  0  0  0  0  0
  -27.0272  -30.3057   24.6058 C   0  0  0  0  0  0
  -27.6045  -32.4319   25.7475 C   0  0  0  0  0  0
  -27.5579  -37.1813   24.8458 C   0  0  0  0  0  0
  -21.4107  -29.3017   22.3756 N   0  0  0  0  0  0
  -26.4285  -37.3798   23.9412 N   0  0  0  0  0  0
  -24.6582  -31.0840   22.1021 N   0  0  0  0  0  0
  -23.4167  -28.8200   23.3038 O   0  0  0  0  0  0
  -28.4549  -26.8365   20.0778 O   0  0  0  0  0  0
  -26.5583  -34.8923   22.4698 O   0  0  0  0  0  0
  -23.5296  -32.1433   23.7566 O   0  0  0  0  0  0
  -28.8061  -18.9124   20.8481 C   0  0  0  0  0  0
  -30.2174  -17.0431   19.3108 C   0  0  0  0  0  0
  -29.2569  -19.2660   19.5596 C   0  0  0  0  0  0
  -29.0477  -17.6256   21.3721 C   0  0  0  0  0  0
  -29.9585  -18.3192   18.7790 C   0  0  0  0  0  0
  -29.7782  -16.6843   20.6100 C   0  0  0  0  0  0
  -30.0563  -22.5275   20.4233 C   0  0  0  0  0  0
  -30.3189  -22.8545   18.3878 C   0  0  0  0  0  0
  -30.2046  -21.5820   19.2273 C   0  0  2  0  0  0
  -28.5091  -17.2709   22.7480 C   0  0  0  0  0  0
  -30.4351  -18.6379   17.3693 C   0  0  0  0  0  0
  -28.9909  -20.6695   19.0428 C   0  0  0  0  0  0
  -29.9774  -25.0468   19.8762 C   0  0  0  0  0  0
  -28.5249  -25.4863   19.6601 C   0  0  0  0  0  0
  -30.1295  -23.6302   19.6144 N   0  0  0  0  0  0
  -29.9824  -15.3822   21.1448 N   0  0  0  0  0  0
  -29.8968  -22.4277   21.6220 O   0  0  0  0  0  0
  -31.4699  -12.3541   19.1211 H   0  0  0  0  0  0
  -30.3085  -11.2445   19.7913 H   0  0  0  0  0  0
  -29.7258  -11.7939   17.4104 H   0  0  0  0  0  0
  -29.6799  -13.4962   17.7923 H   0  0  0  0  0  0
  -27.8143  -11.3156   18.7956 H   0  0  0  0  0  0
  -27.3710  -12.6674   17.7866 H   0  0  0  0  0  0
  -27.7266  -14.2500   19.6047 H   0  0  0  0  0  0
  -28.6615  -11.8942   21.3195 H   0  0  0  0  0  0
  -28.4690  -13.5162   21.8958 H   0  0  0  0  0  0
  -25.2748   -9.5691   22.4752 H   0  0  0  0  0  0
  -23.9994   -7.4644   22.7472 H   0  0  0  0  0  0
  -21.0823   -8.8774   19.8960 H   0  0  0  0  0  0
  -22.3674  -10.9674   19.6165 H   0  0  0  0  0  0
  -21.2011   -7.6151   23.9716 H   0  0  0  0  0  0
  -21.1476   -6.0521   25.9075 H   0  0  0  0  0  0
  -22.0598   -2.7610   23.2842 H   0  0  0  0  0  0
  -22.4110  -11.9921   22.4785 H   0  0  0  0  0  0
  -21.1135  -13.1312   22.2587 H   0  0  0  0  0  0
  -24.6801  -15.8477   20.5320 H   0  0  0  0  0  0
  -26.3028  -15.6242   20.1159 H   0  0  0  0  0  0
  -26.7072  -32.5558   23.1186 H   0  0  0  0  0  0
  -25.0053  -33.9811   25.0503 H   0  0  0  0  0  0
  -22.6805  -31.3086   21.4171 H   0  0  0  0  0  0
  -23.3734  -35.9671   23.3312 H   0  0  0  0  0  0
  -24.3580  -36.8927   22.2048 H   0  0  0  0  0  0
  -23.7251  -37.6539   23.6642 H   0  0  0  0  0  0
  -26.0206  -31.6144   20.5912 H   0  0  0  0  0  0
  -26.8081  -30.9036   21.9732 H   0  0  0  0  0  0
  -28.0886  -29.1518   21.1437 H   0  0  0  0  0  0
  -26.0570  -25.9835   19.0178 H   0  0  0  0  0  0
  -23.9753  -27.2811   19.0582 H   0  0  0  0  0  0
  -23.7087  -30.6007   19.4081 H   0  0  0  0  0  0
  -22.7244  -29.2451   19.8714 H   0  0  0  0  0  0
  -25.1276  -36.1987   25.0830 H   0  0  0  0  0  0
  -20.9934  -28.3199   24.1462 H   0  0  0  0  0  0
  -20.5640  -26.2246   23.3599 H   0  0  0  0  0  0
  -21.6629  -26.7428   22.1227 H   0  0  0  0  0  0
  -19.6897  -25.6301   21.1223 H   0  0  0  0  0  0
  -19.6683  -27.3209   20.6754 H   0  0  0  0  0  0
  -17.4184  -26.6670   21.4021 H   0  0  0  0  0  0
  -18.0311  -26.0057   22.9004 H   0  0  0  0  0  0
  -19.7914  -30.7241   24.2310 H   0  0  0  0  0  0
  -17.4996  -31.6261   24.5169 H   0  0  0  0  0  0
  -15.5336  -30.2995   23.7628 H   0  0  0  0  0  0
  -15.8652  -28.0832   22.7036 H   0  0  0  0  0  0
  -24.5924  -30.7035   25.7865 H   0  0  0  0  0  0
  -24.8956  -32.2840   26.4989 H   0  0  0  0  0  0
  -25.8147  -30.8852   27.0234 H   0  0  0  0  0  0
  -26.2788  -29.6832   24.1136 H   0  0  0  0  0  0
  -27.4090  -29.7277   25.4484 H   0  0  0  0  0  0
  -27.8606  -30.4395   23.9156 H   0  0  0  0  0  0
  -27.2668  -33.3598   26.2103 H   0  0  0  0  0  0
  -28.3822  -32.6914   25.0279 H   0  0  0  0  0  0
  -28.0749  -31.8418   26.5350 H   0  0  0  0  0  0
  -28.2598  -38.0108   24.7508 H   0  0  0  0  0  0
  -28.1075  -36.2646   24.6274 H   0  0  0  0  0  0
  -27.2307  -37.1452   25.8863 H   0  0  0  0  0  0
  -20.9251  -29.8749   21.7000 H   0  0  0  0  0  0
  -26.0178  -38.2875   24.1425 H   0  0  0  0  0  0
  -28.2635  -19.6365   21.4401 H   0  0  0  0  0  0
  -30.7452  -16.3368   18.6862 H   0  0  0  0  0  0
  -29.5181  -22.9754   17.6563 H   0  0  0  0  0  0
  -31.2995  -22.9865   17.9253 H   0  0  0  0  0  0
  -31.1549  -21.0480   19.2117 H   0  0  0  0  0  0
  -28.0145  -18.1219   23.2168 H   0  0  0  0  0  0
  -29.3173  -16.9521   23.4064 H   0  0  0  0  0  0
  -27.7806  -16.4623   22.6758 H   0  0  0  0  0  0
  -31.0308  -17.8251   16.9531 H   0  0  0  0  0  0
  -31.0538  -19.5345   17.3508 H   0  0  0  0  0  0
  -29.5838  -18.7923   16.7059 H   0  0  0  0  0  0
  -28.1108  -21.0745   19.5456 H   0  0  0  0  0  0
  -28.7098  -20.6217   17.9910 H   0  0  0  0  0  0
  -30.2827  -25.2538   20.9032 H   0  0  0  0  0  0
  -30.6463  -25.6099   19.2246 H   0  0  0  0  0  0
  -27.8450  -24.8712   20.2527 H   0  0  0  0  0  0
  -28.2511  -25.3871   18.6083 H   0  0  0  0  0  0
  -29.2502  -15.0619   21.7587 H   0  0  0  0  0  0
  1 25  1  0  0  0
  1 30  2  0  0  0
  1 86  1  0  0  0
  2  3  1  0  0  0
  2 25  1  0  0  0
  2 88  1  0  0  0
  2 89  1  0  0  0
  3  4  1  0  0  0
  3 90  1  0  0  0
  3 91  1  0  0  0
  4  5  1  0  0  0
  4 92  1  0  0  0
  4 93  1  0  0  0
  5  6  1  0  0  0
  5 26  1  0  0  0
  5 94  1  0  0  0
  6 25  1  0  0  0
  6 95  1  0  0  0
  6 96  1  0  0  0
  7  8  2  0  0  0
  7 26  1  0  0  0
  7 29  1  0  0  0
  8  9  1  0  0  0
  8 22  1  0  0  0
  9 10  1  0  0  0
  9 27  2  0  0  0
 10 11  2  0  0  0
 10 15  1  0  0  0
 11 12  1  0  0  0
 11 97  1  0  0  0
 12 13  2  0  0  0
 12 98  1  0  0  0
 13 14  1  0  0  0
 13 31  1  0  0  0
 14 15  2  0  0  0
 14 99  1  0  0  0
 15100  1  0  0  0
 16 17  2  0  0  0
 16 21  1  0  0  0
 16 31  1  0  0  0
 17 18  1  0  0  0
 17101  1  0  0  0
 18 19  2  0  0  0
 18102  1  0  0  0
 19 20  1  0  0  0
 19 24  1  0  0  0
 20 21  2  0  0  0
 20103  1  0  0  0
 21 23  1  0  0  0
 22 28  1  0  0  0
 22 32  2  0  0  0
 26 27  1  0  0  0
 28104  1  0  0  0
 28105  1  0  0  0
 29106  1  0  0  0
 29107  1  0  0  0
 33 34  1  0  0  0
 33 66  1  0  0  0
 33 70  2  0  0  0
 34 36  1  0  0  0
 34 59  1  0  0  0
 34108  1  0  0  0
 35 44  2  0  0  0
 35 45  1  0  0  0
 35 68  1  0  0  0
 36 56  1  0  0  0
 36109  1  0  0  0
 37 39  1  0  0  0
 37 47  1  0  0  0
 37 66  1  0  0  0
 37110  1  0  0  0
 38 43  2  0  0  0
 38 46  1  0  0  0
 38 47  1  0  0  0
 39 64  1  0  0  0
 39 67  2  0  0  0
 40 52  1  0  0  0
 40 53  2  0  0  0
 40 58  1  0  0  0
 41111  1  0  0  0
 41112  1  0  0  0
 41113  1  0  0  0
 41 48  1  0  0  0
 42 43  1  0  0  0
 42 66  1  0  0  0
 42114  1  0  0  0
 42115  1  0  0  0
 43 44  1  0  0  0
 44116  1  0  0  0
 45 46  2  0  0  0
 45117  1  0  0  0
 46118  1  0  0  0
 47119  1  0  0  0
 47120  1  0  0  0
 48 56  1  0  0  0
 48 65  1  0  0  0
 48121  1  0  0  0
 49 50  1  0  0  0
 49 53  1  0  0  0
 49 64  1  0  0  0
 49122  1  0  0  0
 50 51  1  0  0  0
 50123  1  0  0  0
 50124  1  0  0  0
 51 52  1  0  0  0
 51125  1  0  0  0
 51126  1  0  0  0
 52127  1  0  0  0
 52128  1  0  0  0
 53 54  1  0  0  0
 54 55  2  0  0  0
 54129  1  0  0  0
 55 57  1  0  0  0
 55130  1  0  0  0
 56 69  2  0  0  0
 57 58  2  0  0  0
 57131  1  0  0  0
 58132  1  0  0  0
 59 60  1  0  0  0
 59 61  1  0  0  0
 59 62  1  0  0  0
 60133  1  0  0  0
 60134  1  0  0  0
 60135  1  0  0  0
 61136  1  0  0  0
 61137  1  0  0  0
 61138  1  0  0  0
 62139  1  0  0  0
 62140  1  0  0  0
 62141  1  0  0  0
 63 65  1  0  0  0
 63142  1  0  0  0
 63143  1  0  0  0
 63144  1  0  0  0
 64145  1  0  0  0
 65146  1  0  0  0
 68 84  1  0  0  0
 71 73  2  0  0  0
 71 74  1  0  0  0
 71147  1  0  0  0
 72 75  2  0  0  0
 72 76  1  0  0  0
 72148  1  0  0  0
 73 75  1  0  0  0
 73 82  1  0  0  0
 74 76  2  0  0  0
 74 80  1  0  0  0
 75 81  1  0  0  0
 76 86  1  0  0  0
 77 79  1  0  0  0
 77 85  1  0  0  0
 77 87  2  0  0  0
 78 79  1  0  0  0
 78 85  1  0  0  0
 78149  1  0  0  0
 78150  1  0  0  0
 79 82  1  0  0  0
 79151  1  0  0  0
 80152  1  0  0  0
 80153  1  0  0  0
 80154  1  0  0  0
 81155  1  0  0  0
 81156  1  0  0  0
 81157  1  0  0  0
 82158  1  0  0  0
 82159  1  0  0  0
 83 84  1  0  0  0
 83 85  1  0  0  0
 83160  1  0  0  0
 83161  1  0  0  0
 84162  1  0  0  0
 84163  1  0  0  0
 86164  1  0  0  0
M  ISO  4   1 100  68 101  84 101  86 100
M  END
> <chiral flag>
0

> <version>
0

> <s_m_source_file>
/data/baiqing/PycharmProjects/Reinvent-master-3.2/result/LINK_invent/BTK/process_docking_weight1_custom_sum_contain_oxygen_bond_distance_aromatic_linkinvent_7_9_3/rearranged_h_0140.sdf

> <i_m_source_file_index>
38

> <r_mmod_Potential_Energy-OPLS-2005>
-128.351425170898

> <r_mmod_Stretch_Energy-OPLS-2005>
31.1852836608887

> <r_mmod_Bend_Energy-OPLS-2005>
94.7424240112305

> <r_mmod_Torsional_Energy-OPLS-2005>
239.866241455078

> <r_mmod_Improper_Torsional_Energy-OPLS-2005>
4.93495464324951

> <r_mmod_Van_der_Waal_Energy-OPLS-2005>
153.715225219727

> <r_mmod_Electrostatic_Energy-OPLS-2005>
-433.120941162109

> <r_mmod_Solvation_Energy-OPLS-2005>
-229.785140991211

> <b_mmod_Minimization_Converged-OPLS-2005>
0

> <r_mmod_RMS_Derivative-OPLS-2005>
1.30758810043335

$$$$
38
                    3D
 Structure written by MMmdl.
165174  0  0  1  0            999 V2000
  -30.7104  -14.4684   20.5725 C   0  0  0  0  0  0
  -30.4145  -12.3058   19.4300 C   0  0  0  0  0  0
  -29.4921  -12.5102   18.2121 C   0  0  0  0  0  0
  -28.0132  -12.3768   18.6206 C   0  0  0  0  0  0
  -27.6600  -13.2143   19.8798 C   0  0  2  0  0  0
  -28.6999  -13.0037   21.0037 C   0  0  0  0  0  0
  -25.2538  -13.8163   20.5700 C   0  0  0  0  0  0
  -24.1820  -13.0437   20.9228 C   0  0  0  0  0  0
  -24.6391  -11.6900   20.8765 C   0  0  0  0  0  0
  -23.9044  -10.4290   21.0406 C   0  0  0  0  0  0
  -24.3584   -9.4197   21.9187 C   0  0  0  0  0  0
  -23.6274   -8.2231   22.0740 C   0  0  0  0  0  0
  -22.4254   -8.0270   21.3540 C   0  0  0  0  0  0
  -21.9890   -9.0240   20.4636 C   0  0  0  0  0  0
  -22.7211  -10.2136   20.3054 C   0  0  0  0  0  0
  -21.6844   -6.0723   22.5269 C   0  0  0  0  0  0
  -21.4008   -6.5622   23.8210 C   0  0  0  0  0  0
  -21.3678   -5.6780   24.9175 C   0  0  0  0  0  0
  -21.6060   -4.3043   24.7224 C   0  0  0  0  0  0
  -21.8815   -3.8135   23.4342 C   0  0  0  0  0  0
  -21.9191   -4.6950   22.3395 C   0  0  0  0  0  0
  -22.7834  -13.5209   21.1899 C   0  0  0  0  0  0
  -22.1654   -4.2133   21.0977 F   0  0  0  0  0  0
  -21.5647   -3.4523   25.7739 F   0  0  0  0  0  0
  -30.0335  -13.2960   20.4481 N   0  0  0  0  0  0
  -26.3005  -12.9370   20.3405 N   0  0  0  0  0  0
  -25.9324  -11.6517   20.5805 N   0  0  0  0  0  0
  -22.0493  -12.8173   22.0454 N   0  0  0  0  0  0
  -25.4182  -15.1876   20.3978 N   0  0  0  0  0  0
  -31.8288  -14.6613   20.0906 O   0  0  0  0  0  0
  -21.6630   -6.8867   21.4238 O   0  0  0  0  0  0
  -22.3505  -14.5529   20.6766 O   0  0  0  0  0  0
  -24.6174  -31.8694   23.2099 C   0  0  0  0  0  0
  -25.9073  -32.4820   23.8408 C   0  0  1  0  0  0
  -27.2328  -27.4368   20.1103 C   0  0  0  0  0  0
  -25.5948  -33.8608   24.2378 N   0  0  0  0  0  0
  -23.4042  -30.4937   21.5497 C   0  0  2  0  0  0
  -24.8526  -28.9542   20.1182 C   0  0  0  0  0  0
  -22.7406  -29.4700   22.4989 C   0  0  0  0  0  0
  -18.0270  -28.1367   22.8509 C   0  0  0  0  0  0
  -24.1493  -36.7308   23.2630 C   0  0  0  0  0  0
  -25.9312  -30.8389   21.3608 C   0  0  0  0  0  0
  -26.0123  -29.4711   20.7112 C   0  0  0  0  0  0
  -27.2092  -28.7192   20.7047 C   0  0  0  0  0  0
  -26.0621  -26.9334   19.5099 C   0  0  0  0  0  0
  -24.8722  -27.6835   19.5154 C   0  0  0  0  0  0
  -23.6151  -29.8224   20.1661 C   0  0  0  0  0  0
  -25.4103  -36.3104   24.0349 C   0  0  1  0  0  0
  -20.5867  -28.3700   23.1343 C   0  0  2  0  0  0
  -20.6783  -26.9431   22.5438 C   0  0  0  0  0  0
  -19.5754  -26.6375   21.5240 C   0  0  0  0  0  0
  -18.1922  -26.7921   22.1649 C   0  0  0  0  0  0
  -19.1511  -28.8830   23.2933 C   0  0  0  0  0  0
  -18.9434  -30.1439   23.8935 C   0  0  0  0  0  0
  -17.6430  -30.6574   24.0567 C   0  0  0  0  0  0
  -25.9022  -34.9459   23.5135 C   0  0  0  0  0  0
  -16.5326  -29.9084   23.6305 C   0  0  0  0  0  0
  -16.7251  -28.6500   23.0327 C   0  0  0  0  0  0
  -26.4505  -31.6593   25.0737 C   0  0  0  0  0  0
  -25.3791  -31.3707   26.1511 C   0  0  0  0  0  0
  -27.0330  -30.3036   24.6096 C   0  0  0  0  0  0
  -27.6080  -32.4327   25.7486 C   0  0  0  0  0  0
  -27.5581  -37.1813   24.8465 C   0  0  0  0  0  0
  -21.4126  -29.3112   22.3762 N   0  0  0  0  0  0
  -26.4282  -37.3791   23.9413 N   0  0  0  0  0  0
  -24.6688  -31.0795   22.0998 N   0  0  0  0  0  0
  -23.4177  -28.8198   23.2994 O   0  0  0  0  0  0
  -28.3697  -26.6638   20.1135 O   0  0  0  0  0  0
  -26.5555  -34.8892   22.4682 O   0  0  0  0  0  0
  -23.5373  -32.1436   23.7500 O   0  0  0  0  0  0
  -26.9115  -22.3194   21.4850 C   0  0  0  0  0  0
  -27.4213  -20.1076   22.4109 C   0  0  0  0  0  0
  -26.5766  -21.2558   22.3430 C   0  0  0  0  0  0
  -28.1117  -22.2766   20.7749 C   0  0  0  0  0  0
  -28.6211  -20.1552   21.6229 C   0  0  0  0  0  0
  -26.5967  -17.6100   22.9394 C   0  0  0  0  0  0
  -25.7010  -18.4937   23.7420 C   0  0  0  0  0  0
  -27.1063  -18.9721   23.3839 C   0  0  0  0  0  0
  -25.3379  -21.4488   23.2054 C   0  0  0  0  0  0
  -29.2254  -24.4044   20.6927 C   0  0  0  0  0  0
  -30.4163  -16.8998   21.0746 C   0  0  0  0  0  0
  -28.3301  -25.6063   21.0847 C   0  0  0  0  0  0
  -29.2990  -17.8144   21.6145 C   0  0  0  0  0  0
  -28.9540  -21.2318   20.8653 N   0  0  0  0  0  0
  -28.4989  -23.3559   19.9707 N   0  0  0  0  0  0
  -30.0198  -15.4812   21.1195 N   0  0  0  0  0  0
  -29.6295  -19.2019   21.5732 O   0  0  0  0  0  0
  -31.4619  -12.3936   19.1359 H   0  0  0  0  0  0
  -30.3014  -11.2976   19.8332 H   0  0  0  0  0  0
  -29.7333  -11.7881   17.4309 H   0  0  0  0  0  0
  -29.6626  -13.4987   17.7823 H   0  0  0  0  0  0
  -27.8174  -11.3205   18.8107 H   0  0  0  0  0  0
  -27.3655  -12.6641   17.7914 H   0  0  0  0  0  0
  -27.7058  -14.2627   19.5830 H   0  0  0  0  0  0
  -28.6679  -11.9764   21.3677 H   0  0  0  0  0  0
  -28.4618  -13.6240   21.8689 H   0  0  0  0  0  0
  -25.2721   -9.5686   22.4762 H   0  0  0  0  0  0
  -24.0012   -7.4610   22.7413 H   0  0  0  0  0  0
  -21.0842   -8.8738   19.8898 H   0  0  0  0  0  0
  -22.3664  -10.9673   19.6153 H   0  0  0  0  0  0
  -21.1984   -7.6132   23.9711 H   0  0  0  0  0  0
  -21.1526   -6.0508   25.9085 H   0  0  0  0  0  0
  -22.0584   -2.7589   23.2853 H   0  0  0  0  0  0
  -22.4104  -11.9804   22.4824 H   0  0  0  0  0  0
  -21.1103  -13.1176   22.2664 H   0  0  0  0  0  0
  -24.6375  -15.8283   20.4830 H   0  0  0  0  0  0
  -26.2410  -15.6144   19.9927 H   0  0  0  0  0  0
  -26.7151  -32.5561   23.1188 H   0  0  0  0  0  0
  -25.0176  -33.9757   25.0579 H   0  0  0  0  0  0
  -22.6959  -31.3131   21.4106 H   0  0  0  0  0  0
  -23.3725  -35.9672   23.3287 H   0  0  0  0  0  0
  -24.3587  -36.8901   22.2037 H   0  0  0  0  0  0
  -23.7244  -37.6517   23.6628 H   0  0  0  0  0  0
  -26.0369  -31.6032   20.5894 H   0  0  0  0  0  0
  -26.8173  -30.8942   21.9808 H   0  0  0  0  0  0
  -28.1043  -29.1098   21.1690 H   0  0  0  0  0  0
  -26.0710  -25.9553   19.0486 H   0  0  0  0  0  0
  -23.9798  -27.2793   19.0607 H   0  0  0  0  0  0
  -23.7284  -30.5966   19.4060 H   0  0  0  0  0  0
  -22.7378  -29.2454   19.8696 H   0  0  0  0  0  0
  -25.1272  -36.1954   25.0844 H   0  0  0  0  0  0
  -20.9976  -28.3225   24.1459 H   0  0  0  0  0  0
  -20.5702  -26.2306   23.3632 H   0  0  0  0  0  0
  -21.6663  -26.7482   22.1264 H   0  0  0  0  0  0
  -19.6665  -27.3167   20.6742 H   0  0  0  0  0  0
  -19.6896  -25.6281   21.1292 H   0  0  0  0  0  0
  -17.4194  -26.6721   21.4038 H   0  0  0  0  0  0
  -18.0287  -26.0040   22.9014 H   0  0  0  0  0  0
  -19.7907  -30.7248   24.2318 H   0  0  0  0  0  0
  -17.4972  -31.6238   24.5211 H   0  0  0  0  0  0
  -15.5327  -30.3001   23.7601 H   0  0  0  0  0  0
  -15.8639  -28.0847   22.7020 H   0  0  0  0  0  0
  -24.5955  -30.7060   25.7870 H   0  0  0  0  0  0
  -24.9016  -32.2870   26.5004 H   0  0  0  0  0  0
  -25.8174  -30.8862   27.0250 H   0  0  0  0  0  0
  -26.2863  -29.6780   24.1200 H   0  0  0  0  0  0
  -27.4134  -29.7293   25.4552 H   0  0  0  0  0  0
  -27.8690  -30.4338   23.9214 H   0  0  0  0  0  0
  -27.2703  -33.3608   26.2109 H   0  0  0  0  0  0
  -28.3863  -32.6928   25.0305 H   0  0  0  0  0  0
  -28.0790  -31.8442   26.5370 H   0  0  0  0  0  0
  -28.2623  -38.0096   24.7498 H   0  0  0  0  0  0
  -28.1053  -36.2617   24.6303 H   0  0  0  0  0  0
  -27.2300  -37.1473   25.8873 H   0  0  0  0  0  0
  -20.9264  -29.8925   21.7069 H   0  0  0  0  0  0
  -26.0160  -38.2867   24.1416 H   0  0  0  0  0  0
  -26.2614  -23.1816   21.4188 H   0  0  0  0  0  0
  -26.3307  -17.4732   21.8934 H   0  0  0  0  0  0
  -26.9925  -16.7271   23.4416 H   0  0  0  0  0  0
  -25.5143  -18.1944   24.7716 H   0  0  0  0  0  0
  -24.8248  -18.8205   23.1898 H   0  0  0  0  0  0
  -27.8295  -18.9836   24.1982 H   0  0  0  0  0  0
  -25.0755  -22.5046   23.2809 H   0  0  0  0  0  0
  -25.5010  -21.0970   24.2233 H   0  0  0  0  0  0
  -24.4750  -20.9392   22.7773 H   0  0  0  0  0  0
  -29.6528  -23.9745   21.6004 H   0  0  0  0  0  0
  -30.0752  -24.7462   20.1015 H   0  0  0  0  0  0
  -31.3302  -17.0364   21.6552 H   0  0  0  0  0  0
  -30.6508  -17.1859   20.0471 H   0  0  0  0  0  0
  -28.6976  -26.0282   22.0214 H   0  0  0  0  0  0
  -27.3160  -25.2687   21.3034 H   0  0  0  0  0  0
  -29.1281  -17.5274   22.6500 H   0  0  0  0  0  0
  -28.3995  -17.6425   21.0249 H   0  0  0  0  0  0
  -27.7022  -23.7760   19.5028 H   0  0  0  0  0  0
  -29.1093  -15.2614   21.4912 H   0  0  0  0  0  0
  1 25  1  0  0  0
  1 30  2  0  0  0
  1 86  1  0  0  0
  2  3  1  0  0  0
  2 25  1  0  0  0
  2 88  1  0  0  0
  2 89  1  0  0  0
  3  4  1  0  0  0
  3 90  1  0  0  0
  3 91  1  0  0  0
  4  5  1  0  0  0
  4 92  1  0  0  0
  4 93  1  0  0  0
  5  6  1  0  0  0
  5 26  1  0  0  0
  5 94  1  0  0  0
  6 25  1  0  0  0
  6 95  1  0  0  0
  6 96  1  0  0  0
  7  8  2  0  0  0
  7 26  1  0  0  0
  7 29  1  0  0  0
  8  9  1  0  0  0
  8 22  1  0  0  0
  9 10  1  0  0  0
  9 27  2  0  0  0
 10 11  2  0  0  0
 10 15  1  0  0  0
 11 12  1  0  0  0
 11 97  1  0  0  0
 12 13  2  0  0  0
 12 98  1  0  0  0
 13 14  1  0  0  0
 13 31  1  0  0  0
 14 15  2  0  0  0
 14 99  1  0  0  0
 15100  1  0  0  0
 16 17  2  0  0  0
 16 21  1  0  0  0
 16 31  1  0  0  0
 17 18  1  0  0  0
 17101  1  0  0  0
 18 19  2  0  0  0
 18102  1  0  0  0
 19 20  1  0  0  0
 19 24  1  0  0  0
 20 21  2  0  0  0
 20103  1  0  0  0
 21 23  1  0  0  0
 22 28  1  0  0  0
 22 32  2  0  0  0
 26 27  1  0  0  0
 28104  1  0  0  0
 28105  1  0  0  0
 29106  1  0  0  0
 29107  1  0  0  0
 33 34  1  0  0  0
 33 66  1  0  0  0
 33 70  2  0  0  0
 34 36  1  0  0  0
 34 59  1  0  0  0
 34108  1  0  0  0
 35 44  2  0  0  0
 35 45  1  0  0  0
 35 68  1  0  0  0
 36 56  1  0  0  0
 36109  1  0  0  0
 37 39  1  0  0  0
 37 47  1  0  0  0
 37 66  1  0  0  0
 37110  1  0  0  0
 38 43  2  0  0  0
 38 46  1  0  0  0
 38 47  1  0  0  0
 39 64  1  0  0  0
 39 67  2  0  0  0
 40 52  1  0  0  0
 40 53  2  0  0  0
 40 58  1  0  0  0
 41111  1  0  0  0
 41112  1  0  0  0
 41113  1  0  0  0
 41 48  1  0  0  0
 42 43  1  0  0  0
 42 66  1  0  0  0
 42114  1  0  0  0
 42115  1  0  0  0
 43 44  1  0  0  0
 44116  1  0  0  0
 45 46  2  0  0  0
 45117  1  0  0  0
 46118  1  0  0  0
 47119  1  0  0  0
 47120  1  0  0  0
 48 56  1  0  0  0
 48 65  1  0  0  0
 48121  1  0  0  0
 49 50  1  0  0  0
 49 53  1  0  0  0
 49 64  1  0  0  0
 49122  1  0  0  0
 50 51  1  0  0  0
 50123  1  0  0  0
 50124  1  0  0  0
 51 52  1  0  0  0
 51125  1  0  0  0
 51126  1  0  0  0
 52127  1  0  0  0
 52128  1  0  0  0
 53 54  1  0  0  0
 54 55  2  0  0  0
 54129  1  0  0  0
 55 57  1  0  0  0
 55130  1  0  0  0
 56 69  2  0  0  0
 57 58  2  0  0  0
 57131  1  0  0  0
 58132  1  0  0  0
 59 60  1  0  0  0
 59 61  1  0  0  0
 59 62  1  0  0  0
 60133  1  0  0  0
 60134  1  0  0  0
 60135  1  0  0  0
 61136  1  0  0  0
 61137  1  0  0  0
 61138  1  0  0  0
 62139  1  0  0  0
 62140  1  0  0  0
 62141  1  0  0  0
 63 65  1  0  0  0
 63142  1  0  0  0
 63143  1  0  0  0
 63144  1  0  0  0
 64145  1  0  0  0
 65146  1  0  0  0
 68 82  1  0  0  0
 71 73  2  0  0  0
 71 74  1  0  0  0
 71147  1  0  0  0
 72 73  1  0  0  0
 72 75  2  0  0  0
 72 78  1  0  0  0
 73 79  1  0  0  0
 74 84  2  0  0  0
 74 85  1  0  0  0
 75 84  1  0  0  0
 75 87  1  0  0  0
 76 77  1  0  0  0
 76 78  1  0  0  0
 76148  1  0  0  0
 76149  1  0  0  0
 77 78  1  0  0  0
 77150  1  0  0  0
 77151  1  0  0  0
 78152  1  0  0  0
 79153  1  0  0  0
 79154  1  0  0  0
 79155  1  0  0  0
 80 82  1  0  0  0
 80 85  1  0  0  0
 80156  1  0  0  0
 80157  1  0  0  0
 81 83  1  0  0  0
 81 86  1  0  0  0
 81158  1  0  0  0
 81159  1  0  0  0
 82160  1  0  0  0
 82161  1  0  0  0
 83 87  1  0  0  0
 83162  1  0  0  0
 83163  1  0  0  0
 85164  1  0  0  0
 86165  1  0  0  0
M  ISO  4   1 100  68 101  82 101  86 100
M  END
> <chiral flag>
0

> <version>
0

> <s_m_source_file>
/data/baiqing/PycharmProjects/Reinvent-master-3.2/result/LINK_invent/BTK/process_docking_weight1_custom_sum_contain_oxygen_bond_distance_aromatic_linkinvent_7_9_3/rearranged_h_0140.sdf

> <i_m_source_file_index>
39

> <r_mmod_Potential_Energy-OPLS-2005>
-257.728576660156

> <r_mmod_Stretch_Energy-OPLS-2005>
41.540397644043

> <r_mmod_Bend_Energy-OPLS-2005>
110.669555664062

> <r_mmod_Torsional_Energy-OPLS-2005>
292.880615234375

> <r_mmod_Improper_Torsional_Energy-OPLS-2005>
10.5696363449097

> <r_mmod_Van_der_Waal_Energy-OPLS-2005>
159.356292724609

> <r_mmod_Electrostatic_Energy-OPLS-2005>
-640.068420410156

> <r_mmod_Solvation_Energy-OPLS-2005>
-245.448989868164

> <b_mmod_Minimization_Converged-OPLS-2005>
0

> <r_mmod_RMS_Derivative-OPLS-2005>
3.25244116783142

$$$$
39
                    3D
 Structure written by MMmdl.
153162  0  0  1  0            999 V2000
  -30.4656  -15.1602   20.4090 C   0  0  0  0  0  0
  -30.4381  -12.7348   19.5144 C   0  0  0  0  0  0
  -29.5280  -12.5544   18.2744 C   0  0  0  0  0  0
  -28.0703  -12.3045   18.6988 C   0  0  0  0  0  0
  -27.6176  -13.2641   19.8288 C   0  0  2  0  0  0
  -28.6542  -13.3773   20.9665 C   0  0  0  0  0  0
  -25.2411  -13.8256   20.5740 C   0  0  0  0  0  0
  -24.1741  -13.0452   20.9258 C   0  0  0  0  0  0
  -24.6374  -11.6943   20.8754 C   0  0  0  0  0  0
  -23.9056  -10.4304   21.0405 C   0  0  0  0  0  0
  -24.3608   -9.4231   21.9187 C   0  0  0  0  0  0
  -23.6294   -8.2260   22.0760 C   0  0  0  0  0  0
  -22.4280   -8.0280   21.3548 C   0  0  0  0  0  0
  -21.9910   -9.0246   20.4644 C   0  0  0  0  0  0
  -22.7225  -10.2136   20.3056 C   0  0  0  0  0  0
  -21.6855   -6.0734   22.5282 C   0  0  0  0  0  0
  -21.4007   -6.5638   23.8214 C   0  0  0  0  0  0
  -21.3661   -5.6791   24.9177 C   0  0  0  0  0  0
  -21.6050   -4.3054   24.7229 C   0  0  0  0  0  0
  -21.8818   -3.8146   23.4349 C   0  0  0  0  0  0
  -21.9193   -4.6963   22.3406 C   0  0  0  0  0  0
  -22.7760  -13.5217   21.1922 C   0  0  0  0  0  0
  -22.1658   -4.2145   21.0984 F   0  0  0  0  0  0
  -21.5639   -3.4538   25.7745 F   0  0  0  0  0  0
  -29.8994  -13.8623   20.3552 N   0  0  0  0  0  0
  -26.2827  -12.9494   20.3219 N   0  0  0  0  0  0
  -25.9303  -11.6616   20.5723 N   0  0  0  0  0  0
  -22.0390  -12.8181   22.0456 N   0  0  0  0  0  0
  -25.4085  -15.1980   20.4187 N   0  0  0  0  0  0
  -31.6598  -15.1922   20.0782 O   0  0  0  0  0  0
  -21.6645   -6.8872   21.4241 O   0  0  0  0  0  0
  -22.3449  -14.5531   20.6787 O   0  0  0  0  0  0
  -24.6612  -31.8307   23.1757 C   0  0  0  0  0  0
  -25.9321  -32.4624   23.8201 C   0  0  1  0  0  0
  -27.1916  -26.9743   20.1612 C   0  0  0  0  0  0
  -25.6025  -33.8430   24.2136 N   0  0  0  0  0  0
  -23.4695  -30.4476   21.5253 C   0  0  2  0  0  0
  -24.9148  -28.8531   20.1060 C   0  0  0  0  0  0
  -22.7658  -29.4472   22.4805 C   0  0  0  0  0  0
  -18.0321  -28.1413   22.8474 C   0  0  0  0  0  0
  -24.1483  -36.7202   23.2634 C   0  0  0  0  0  0
  -26.0364  -30.6567   21.3908 C   0  0  0  0  0  0
  -26.1007  -29.2505   20.7366 C   0  0  0  0  0  0
  -27.2388  -28.3282   20.7436 C   0  0  0  0  0  0
  -25.9799  -26.7299   19.4751 C   0  0  0  0  0  0
  -24.8764  -27.6128   19.4572 C   0  0  0  0  0  0
  -23.7022  -29.7768   20.1459 C   0  0  0  0  0  0
  -25.4115  -36.2984   24.0312 C   0  0  1  0  0  0
  -20.5951  -28.3745   23.1210 C   0  0  2  0  0  0
  -20.6795  -26.9437   22.5404 C   0  0  0  0  0  0
  -19.5768  -26.6407   21.5208 C   0  0  0  0  0  0
  -18.1952  -26.7954   22.1623 C   0  0  0  0  0  0
  -19.1580  -28.8895   23.2840 C   0  0  0  0  0  0
  -18.9489  -30.1487   23.8879 C   0  0  0  0  0  0
  -17.6482  -30.6599   24.0564 C   0  0  0  0  0  0
  -25.9093  -34.9370   23.5032 C   0  0  0  0  0  0
  -16.5374  -29.9095   23.6339 C   0  0  0  0  0  0
  -16.7307  -28.6514   23.0364 C   0  0  0  0  0  0
  -26.4584  -31.6517   25.0683 C   0  0  0  0  0  0
  -25.3739  -31.3755   26.1362 C   0  0  0  0  0  0
  -27.0409  -30.2884   24.6309 C   0  0  0  0  0  0
  -27.6111  -32.4253   25.7507 C   0  0  0  0  0  0
  -27.5560  -37.1766   24.8474 C   0  0  0  0  0  0
  -21.4328  -29.3054   22.3572 N   0  0  0  0  0  0
  -26.4257  -37.3721   23.9430 N   0  0  0  0  0  0
  -24.7438  -31.0028   22.0859 N   0  0  0  0  0  0
  -23.4243  -28.8026   23.2998 O   0  0  0  0  0  0
  -28.1619  -25.8555   20.2499 O   0  0  0  0  0  0
  -26.5658  -34.8902   22.4602 O   0  0  0  0  0  0
  -23.5694  -32.1240   23.6905 O   0  0  0  0  0  0
  -27.6267  -21.6401   20.7775 C   0  0  0  0  0  0
  -29.5985  -22.0746   19.7096 C   0  0  0  0  0  0
  -28.4095  -22.7318   20.2224 C   0  0  0  0  0  0
  -27.9736  -20.2011   20.8206 C   0  0  0  0  0  0
  -29.2263  -19.6492   20.3293 C   0  0  0  0  0  0
  -30.0775  -17.9259   21.9568 C   0  0  0  0  0  0
  -29.2546  -16.6443   21.9889 C   0  0  0  0  0  0
  -29.9098  -18.0437   20.4294 C   0  0  2  0  0  0
  -26.9194  -19.2652   21.3966 C   0  0  0  0  0  0
  -27.7562  -24.3133   19.9443 C   0  0  0  0  0  0
  -29.9740  -20.7016   19.7936 N   0  0  0  0  0  0
  -29.7022  -16.4015   20.6222 N   0  0  0  0  0  0
  -31.4613  -12.9184   19.1835 H   0  0  0  0  0  0
  -30.4855  -11.8112   20.0927 H   0  0  0  0  0  0
  -29.8846  -11.7246   17.6615 H   0  0  0  0  0  0
  -29.5808  -13.4451   17.6469 H   0  0  0  0  0  0
  -28.0029  -11.2724   19.0452 H   0  0  0  0  0  0
  -27.4033  -12.3803   17.8381 H   0  0  0  0  0  0
  -27.5539  -14.2466   19.3597 H   0  0  0  0  0  0
  -28.7998  -12.4237   21.4760 H   0  0  0  0  0  0
  -28.3070  -14.0811   21.7233 H   0  0  0  0  0  0
  -25.2744   -9.5735   22.4765 H   0  0  0  0  0  0
  -24.0011   -7.4665   22.7485 H   0  0  0  0  0  0
  -21.0844   -8.8743   19.8946 H   0  0  0  0  0  0
  -22.3658  -10.9667   19.6164 H   0  0  0  0  0  0
  -21.1977   -7.6139   23.9713 H   0  0  0  0  0  0
  -21.1489   -6.0522   25.9084 H   0  0  0  0  0  0
  -22.0593   -2.7601   23.2851 H   0  0  0  0  0  0
  -22.3981  -11.9819   22.4817 H   0  0  0  0  0  0
  -21.1008  -13.1204   22.2659 H   0  0  0  0  0  0
  -24.6416  -15.8500   20.5408 H   0  0  0  0  0  0
  -26.2541  -15.6373   20.0791 H   0  0  0  0  0  0
  -26.7403  -32.5190   23.0933 H   0  0  0  0  0  0
  -25.0225  -33.9517   25.0325 H   0  0  0  0  0  0
  -22.7783  -31.2780   21.3652 H   0  0  0  0  0  0
  -23.3753  -35.9520   23.3273 H   0  0  0  0  0  0
  -24.3574  -36.8846   22.2051 H   0  0  0  0  0  0
  -23.7227  -37.6393   23.6673 H   0  0  0  0  0  0
  -26.1969  -31.3992   20.6077 H   0  0  0  0  0  0
  -26.9063  -30.7236   22.0317 H   0  0  0  0  0  0
  -28.1363  -28.6267   21.2655 H   0  0  0  0  0  0
  -25.8314  -25.7880   18.9690 H   0  0  0  0  0  0
  -23.9736  -27.3070   18.9440 H   0  0  0  0  0  0
  -23.8585  -30.5509   19.3939 H   0  0  0  0  0  0
  -22.8103  -29.2357   19.8253 H   0  0  0  0  0  0
  -25.1304  -36.1776   25.0796 H   0  0  0  0  0  0
  -21.0038  -28.3331   24.1336 H   0  0  0  0  0  0
  -20.5651  -26.2365   23.3635 H   0  0  0  0  0  0
  -21.6663  -26.7412   22.1222 H   0  0  0  0  0  0
  -19.6919  -25.6318   21.1238 H   0  0  0  0  0  0
  -19.6697  -27.3211   20.6730 H   0  0  0  0  0  0
  -17.4223  -26.6708   21.4027 H   0  0  0  0  0  0
  -18.0343  -26.0106   22.9025 H   0  0  0  0  0  0
  -19.7959  -30.7312   24.2244 H   0  0  0  0  0  0
  -17.5031  -31.6270   24.5179 H   0  0  0  0  0  0
  -15.5370  -30.2992   23.7662 H   0  0  0  0  0  0
  -15.8714  -28.0820   22.7094 H   0  0  0  0  0  0
  -24.6020  -30.6950   25.7755 H   0  0  0  0  0  0
  -24.8800  -32.2927   26.4571 H   0  0  0  0  0  0
  -25.8040  -30.9164   27.0271 H   0  0  0  0  0  0
  -26.3030  -29.6655   24.1234 H   0  0  0  0  0  0
  -27.3897  -29.7144   25.4904 H   0  0  0  0  0  0
  -27.9012  -30.4087   23.9718 H   0  0  0  0  0  0
  -27.2750  -33.3644   26.1911 H   0  0  0  0  0  0
  -28.4061  -32.6617   25.0423 H   0  0  0  0  0  0
  -28.0600  -31.8436   26.5571 H   0  0  0  0  0  0
  -28.2564  -38.0076   24.7530 H   0  0  0  0  0  0
  -28.1068  -36.2607   24.6277 H   0  0  0  0  0  0
  -27.2294  -37.1395   25.8884 H   0  0  0  0  0  0
  -20.9554  -29.8785   21.6761 H   0  0  0  0  0  0
  -26.0097  -38.2772   24.1454 H   0  0  0  0  0  0
  -26.6538  -21.9139   21.1619 H   0  0  0  0  0  0
  -30.2881  -22.6740   19.1348 H   0  0  0  0  0  0
  -31.1182  -17.7830   22.2527 H   0  0  0  0  0  0
  -29.6325  -18.7191   22.5604 H   0  0  0  0  0  0
  -28.1794  -16.7886   22.0789 H   0  0  0  0  0  0
  -29.6136  -15.9442   22.7472 H   0  0  0  0  0  0
  -28.9707  -17.9828   19.8780 H   0  0  0  0  0  0
  -25.9230  -19.7077   21.3373 H   0  0  0  0  0  0
  -27.1230  -19.0429   22.4443 H   0  0  0  0  0  0
  -26.8733  -18.3253   20.8463 H   0  0  0  0  0  0
  -26.7671  -24.2239   20.3951 H   0  0  0  0  0  0
  -27.5657  -24.3002   18.8706 H   0  0  0  0  0  0
  1 25  1  0  0  0
  1 30  2  0  0  0
  1 82  1  0  0  0
  2  3  1  0  0  0
  2 25  1  0  0  0
  2 83  1  0  0  0
  2 84  1  0  0  0
  3  4  1  0  0  0
  3 85  1  0  0  0
  3 86  1  0  0  0
  4  5  1  0  0  0
  4 87  1  0  0  0
  4 88  1  0  0  0
  5  6  1  0  0  0
  5 26  1  0  0  0
  5 89  1  0  0  0
  6 25  1  0  0  0
  6 90  1  0  0  0
  6 91  1  0  0  0
  7  8  2  0  0  0
  7 26  1  0  0  0
  7 29  1  0  0  0
  8  9  1  0  0  0
  8 22  1  0  0  0
  9 10  1  0  0  0
  9 27  2  0  0  0
 10 11  2  0  0  0
 10 15  1  0  0  0
 11 12  1  0  0  0
 11 92  1  0  0  0
 12 13  2  0  0  0
 12 93  1  0  0  0
 13 14  1  0  0  0
 13 31  1  0  0  0
 14 15  2  0  0  0
 14 94  1  0  0  0
 15 95  1  0  0  0
 16 17  2  0  0  0
 16 21  1  0  0  0
 16 31  1  0  0  0
 17 18  1  0  0  0
 17 96  1  0  0  0
 18 19  2  0  0  0
 18 97  1  0  0  0
 19 20  1  0  0  0
 19 24  1  0  0  0
 20 21  2  0  0  0
 20 98  1  0  0  0
 21 23  1  0  0  0
 22 28  1  0  0  0
 22 32  2  0  0  0
 26 27  1  0  0  0
 28 99  1  0  0  0
 28100  1  0  0  0
 29101  1  0  0  0
 29102  1  0  0  0
 33 34  1  0  0  0
 33 66  1  0  0  0
 33 70  2  0  0  0
 34 36  1  0  0  0
 34 59  1  0  0  0
 34103  1  0  0  0
 35 44  2  0  0  0
 35 45  1  0  0  0
 35 68  1  0  0  0
 36 56  1  0  0  0
 36104  1  0  0  0
 37 39  1  0  0  0
 37 47  1  0  0  0
 37 66  1  0  0  0
 37105  1  0  0  0
 38 43  2  0  0  0
 38 46  1  0  0  0
 38 47  1  0  0  0
 39 64  1  0  0  0
 39 67  2  0  0  0
 40 52  1  0  0  0
 40 53  2  0  0  0
 40 58  1  0  0  0
 41106  1  0  0  0
 41107  1  0  0  0
 41108  1  0  0  0
 41 48  1  0  0  0
 42 43  1  0  0  0
 42 66  1  0  0  0
 42109  1  0  0  0
 42110  1  0  0  0
 43 44  1  0  0  0
 44111  1  0  0  0
 45 46  2  0  0  0
 45112  1  0  0  0
 46113  1  0  0  0
 47114  1  0  0  0
 47115  1  0  0  0
 48 56  1  0  0  0
 48 65  1  0  0  0
 48116  1  0  0  0
 49 50  1  0  0  0
 49 53  1  0  0  0
 49 64  1  0  0  0
 49117  1  0  0  0
 50 51  1  0  0  0
 50118  1  0  0  0
 50119  1  0  0  0
 51 52  1  0  0  0
 51120  1  0  0  0
 51121  1  0  0  0
 52122  1  0  0  0
 52123  1  0  0  0
 53 54  1  0  0  0
 54 55  2  0  0  0
 54124  1  0  0  0
 55 57  1  0  0  0
 55125  1  0  0  0
 56 69  2  0  0  0
 57 58  2  0  0  0
 57126  1  0  0  0
 58127  1  0  0  0
 59 60  1  0  0  0
 59 61  1  0  0  0
 59 62  1  0  0  0
 60128  1  0  0  0
 60129  1  0  0  0
 60130  1  0  0  0
 61131  1  0  0  0
 61132  1  0  0  0
 61133  1  0  0  0
 62134  1  0  0  0
 62135  1  0  0  0
 62136  1  0  0  0
 63 65  1  0  0  0
 63137  1  0  0  0
 63138  1  0  0  0
 63139  1  0  0  0
 64140  1  0  0  0
 65141  1  0  0  0
 68 80  1  0  0  0
 71 73  2  0  0  0
 71 74  1  0  0  0
 71142  1  0  0  0
 72 73  1  0  0  0
 72 81  2  0  0  0
 72143  1  0  0  0
 73 80  1  0  0  0
 74 75  2  0  0  0
 74 79  1  0  0  0
 75 81  1  0  0  0
 75 78  1  0  0  0
 76 77  1  0  0  0
 76 78  1  0  0  0
 76144  1  0  0  0
 76145  1  0  0  0
 77 82  1  0  0  0
 77146  1  0  0  0
 77147  1  0  0  0
 78 82  1  0  0  0
 78148  1  0  0  0
 79149  1  0  0  0
 79150  1  0  0  0
 79151  1  0  0  0
 80152  1  0  0  0
 80153  1  0  0  0
M  ISO  4   1 100  68 101  80 101  82 100
M  END
> <chiral flag>
0

> <version>
0

> <s_m_source_file>
/data/baiqing/PycharmProjects/Reinvent-master-3.2/result/LINK_invent/BTK/process_docking_weight1_custom_sum_contain_oxygen_bond_distance_aromatic_linkinvent_7_9_3/rearranged_h_0140.sdf

> <i_m_source_file_index>
40

> <r_mmod_Potential_Energy-OPLS-2005>
1175.40295410156

> <r_mmod_Stretch_Energy-OPLS-2005>
459.445953369141

> <r_mmod_Bend_Energy-OPLS-2005>
643.615905761719

> <r_mmod_Torsional_Energy-OPLS-2005>
266.569915771484

> <r_mmod_Improper_Torsional_Energy-OPLS-2005>
13.8201446533203

> <r_mmod_Van_der_Waal_Energy-OPLS-2005>
135.676544189453

> <r_mmod_Electrostatic_Energy-OPLS-2005>
-494.327880859375

> <r_mmod_Solvation_Energy-OPLS-2005>
-224.328720092773

> <b_mmod_Minimization_Converged-OPLS-2005>
0

> <r_mmod_RMS_Derivative-OPLS-2005>
2.65422391891479

$$$$
40
                    3D
 Structure written by MMmdl.
176185  0  0  1  0            999 V2000
  -30.7486  -14.3919   20.7090 C   0  0  0  0  0  0
  -30.4027  -12.3212   19.4104 C   0  0  0  0  0  0
  -29.4754  -12.5353   18.2011 C   0  0  0  0  0  0
  -28.0066  -12.3795   18.6184 C   0  0  0  0  0  0
  -27.6530  -13.2094   19.8787 C   0  0  2  0  0  0
  -28.6845  -12.9595   21.0010 C   0  0  0  0  0  0
  -25.2525  -13.8170   20.5744 C   0  0  0  0  0  0
  -24.1803  -13.0458   20.9261 C   0  0  0  0  0  0
  -24.6360  -11.6883   20.8782 C   0  0  0  0  0  0
  -23.9057  -10.4253   21.0400 C   0  0  0  0  0  0
  -24.3586   -9.4149   21.9194 C   0  0  0  0  0  0
  -23.6247   -8.2174   22.0761 C   0  0  0  0  0  0
  -22.4254   -8.0199   21.3505 C   0  0  0  0  0  0
  -21.9878   -9.0194   20.4646 C   0  0  0  0  0  0
  -22.7202  -10.2080   20.3074 C   0  0  0  0  0  0
  -21.6822   -6.0727   22.5296 C   0  0  0  0  0  0
  -21.3956   -6.5629   23.8233 C   0  0  0  0  0  0
  -21.3673   -5.6776   24.9192 C   0  0  0  0  0  0
  -21.6059   -4.3048   24.7226 C   0  0  0  0  0  0
  -21.8819   -3.8143   23.4348 C   0  0  0  0  0  0
  -21.9147   -4.6957   22.3403 C   0  0  0  0  0  0
  -22.7807  -13.5189   21.1910 C   0  0  0  0  0  0
  -22.1633   -4.2127   21.0985 F   0  0  0  0  0  0
  -21.5674   -3.4552   25.7768 F   0  0  0  0  0  0
  -30.0246  -13.2642   20.4682 N   0  0  0  0  0  0
  -26.2956  -12.9348   20.3369 N   0  0  0  0  0  0
  -25.9256  -11.6514   20.5736 N   0  0  0  0  0  0
  -22.0464  -12.8190   22.0457 N   0  0  0  0  0  0
  -25.4364  -15.1893   20.4042 N   0  0  0  0  0  0
  -31.7990  -14.6620   20.1170 O   0  0  0  0  0  0
  -21.6581   -6.8826   21.4239 O   0  0  0  0  0  0
  -22.3477  -14.5495   20.6730 O   0  0  0  0  0  0
  -24.6075  -31.8725   23.2186 C   0  0  0  0  0  0
  -25.8977  -32.4855   23.8402 C   0  0  1  0  0  0
  -27.2356  -27.4778   20.0395 C   0  0  0  0  0  0
  -25.5855  -33.8653   24.2325 N   0  0  0  0  0  0
  -23.3829  -30.4968   21.5734 C   0  0  2  0  0  0
  -24.8201  -28.9574   20.1243 C   0  0  0  0  0  0
  -22.7336  -29.4693   22.5230 C   0  0  0  0  0  0
  -18.0213  -28.1454   22.8557 C   0  0  0  0  0  0
  -24.1465  -36.7353   23.2640 C   0  0  0  0  0  0
  -25.9071  -30.8361   21.3653 C   0  0  0  0  0  0
  -25.9766  -29.4688   20.7204 C   0  0  0  0  0  0
  -27.1754  -28.7267   20.6966 C   0  0  0  0  0  0
  -26.0545  -26.9769   19.4341 C   0  0  0  0  0  0
  -24.8526  -27.7068   19.4833 C   0  0  0  0  0  0
  -23.5725  -29.8144   20.1912 C   0  0  0  0  0  0
  -25.4088  -36.3132   24.0337 C   0  0  1  0  0  0
  -20.5748  -28.3719   23.1473 C   0  0  2  0  0  0
  -20.6822  -26.9571   22.5300 C   0  0  0  0  0  0
  -19.5671  -26.6372   21.5268 C   0  0  0  0  0  0
  -18.1842  -26.7976   22.1739 C   0  0  0  0  0  0
  -19.1411  -28.8901   23.2978 C   0  0  0  0  0  0
  -18.9349  -30.1534   23.8902 C   0  0  0  0  0  0
  -17.6340  -30.6647   24.0557 C   0  0  0  0  0  0
  -25.9037  -34.9513   23.5129 C   0  0  0  0  0  0
  -16.5238  -29.9079   23.6349 C   0  0  0  0  0  0
  -16.7198  -28.6531   23.0365 C   0  0  0  0  0  0
  -26.4409  -31.6632   25.0720 C   0  0  0  0  0  0
  -25.3697  -31.3735   26.1489 C   0  0  0  0  0  0
  -27.0214  -30.3089   24.6036 C   0  0  0  0  0  0
  -27.5969  -32.4374   25.7497 C   0  0  0  0  0  0
  -27.5557  -37.1817   24.8462 C   0  0  0  0  0  0
  -21.4026  -29.3250   22.4129 N   0  0  0  0  0  0
  -26.4263  -37.3809   23.9439 N   0  0  0  0  0  0
  -24.6530  -31.0801   22.1128 N   0  0  0  0  0  0
  -23.4191  -28.8138   23.3130 O   0  0  0  0  0  0
  -28.4560  -26.8303   19.9896 O   0  0  0  0  0  0
  -26.5641  -34.8954   22.4698 O   0  0  0  0  0  0
  -23.5322  -32.1513   23.7670 O   0  0  0  0  0  0
  -25.2660  -21.3865   20.8953 C   0  0  0  0  0  0
  -28.0425  -21.4662   21.0939 C   0  0  0  0  0  0
  -25.8882  -20.6557   21.9392 C   0  0  0  0  0  0
  -26.0115  -22.1077   19.9408 C   0  0  0  0  0  0
  -27.3119  -20.6050   21.9458 C   0  0  0  0  0  0
  -27.3988  -22.2574   20.1271 C   0  0  0  0  0  0
  -24.0957  -18.8501   22.7625 C   0  0  0  0  0  0
  -23.5458  -20.2137   23.1299 C   0  0  0  0  0  0
  -25.0413  -20.0032   23.0188 C   0  0  0  0  0  0
  -25.4375  -20.1606   17.7966 C   0  0  0  0  0  0
  -25.3248  -22.6231   18.6794 C   0  0  0  0  0  0
  -28.0989  -19.6178   22.8076 C   0  0  0  0  0  0
  -24.6151  -21.4674   17.9323 C   0  0  0  0  0  0
  -29.2522  -16.1756   21.4819 C   0  0  0  0  0  0
  -29.2406  -17.3739   22.4708 C   0  0  0  0  0  0
  -28.6003  -25.6149   19.2507 C   0  0  0  0  0  0
  -28.1063  -24.4361   20.1056 C   0  0  0  0  0  0
  -30.3147  -15.1812   21.7062 N   0  0  0  0  0  0
  -28.1035  -18.2807   22.1635 N   0  3  0  0  0  0
  -28.0961  -23.1906   19.4060 O   0  0  0  0  0  0
  -31.4422  -12.4435   19.1054 H   0  0  0  0  0  0
  -30.3176  -11.3026   19.7852 H   0  0  0  0  0  0
  -29.7151  -11.8227   17.4153 H   0  0  0  0  0  0
  -29.6349  -13.5271   17.7777 H   0  0  0  0  0  0
  -27.8302  -11.3229   18.8203 H   0  0  0  0  0  0
  -27.3454  -12.6430   17.7936 H   0  0  0  0  0  0
  -27.7022  -14.2612   19.5961 H   0  0  0  0  0  0
  -28.6478  -11.9183   21.3221 H   0  0  0  0  0  0
  -28.4289  -13.5369   21.8894 H   0  0  0  0  0  0
  -25.2744   -9.5564   22.4768 H   0  0  0  0  0  0
  -23.9962   -7.4521   22.7480 H   0  0  0  0  0  0
  -21.0826   -8.8697   19.8916 H   0  0  0  0  0  0
  -22.3692  -10.9608   19.6164 H   0  0  0  0  0  0
  -21.1936   -7.6135   23.9726 H   0  0  0  0  0  0
  -21.1513   -6.0519   25.9099 H   0  0  0  0  0  0
  -22.0584   -2.7601   23.2865 H   0  0  0  0  0  0
  -22.4080  -11.9806   22.4782 H   0  0  0  0  0  0
  -21.1084  -13.1171   22.2743 H   0  0  0  0  0  0
  -24.6296  -15.8007   20.3547 H   0  0  0  0  0  0
  -26.2294  -15.5373   19.8826 H   0  0  0  0  0  0
  -26.7035  -32.5567   23.1161 H   0  0  0  0  0  0
  -24.9857  -33.9818   25.0371 H   0  0  0  0  0  0
  -22.6706  -31.3177   21.4472 H   0  0  0  0  0  0
  -23.3700  -35.9699   23.3329 H   0  0  0  0  0  0
  -24.3518  -36.8970   22.2040 H   0  0  0  0  0  0
  -23.7239  -37.6574   23.6665 H   0  0  0  0  0  0
  -25.9906  -31.5900   20.5834 H   0  0  0  0  0  0
  -26.8078  -30.9085   21.9616 H   0  0  0  0  0  0
  -28.0672  -29.1193   21.1588 H   0  0  0  0  0  0
  -26.0403  -26.0400   18.8952 H   0  0  0  0  0  0
  -23.9621  -27.3213   19.0020 H   0  0  0  0  0  0
  -23.6289  -30.5799   19.4187 H   0  0  0  0  0  0
  -22.6992  -29.2083   19.9422 H   0  0  0  0  0  0
  -25.1251  -36.1989   25.0825 H   0  0  0  0  0  0
  -20.9727  -28.3095   24.1616 H   0  0  0  0  0  0
  -20.6244  -26.2292   23.3391 H   0  0  0  0  0  0
  -21.6602  -26.8037   22.0746 H   0  0  0  0  0  0
  -19.6802  -25.6163   21.1545 H   0  0  0  0  0  0
  -19.6449  -27.2997   20.6617 H   0  0  0  0  0  0
  -17.4052  -26.6766   21.4175 H   0  0  0  0  0  0
  -18.0172  -26.0173   22.9156 H   0  0  0  0  0  0
  -19.7828  -30.7364   24.2288 H   0  0  0  0  0  0
  -17.4872  -31.6316   24.5221 H   0  0  0  0  0  0
  -15.5265  -30.2982   23.7732 H   0  0  0  0  0  0
  -15.8560  -28.0892   22.7127 H   0  0  0  0  0  0
  -24.5839  -30.7102   25.7847 H   0  0  0  0  0  0
  -24.8899  -32.2908   26.4947 H   0  0  0  0  0  0
  -25.8036  -30.8895   27.0249 H   0  0  0  0  0  0
  -26.2730  -29.6921   24.1043 H   0  0  0  0  0  0
  -27.3983  -29.7225   25.4424 H   0  0  0  0  0  0
  -27.8560  -30.4454   23.9141 H   0  0  0  0  0  0
  -27.2533  -33.3660   26.2073 H   0  0  0  0  0  0
  -28.3758  -32.6984   25.0320 H   0  0  0  0  0  0
  -28.0654  -31.8518   26.5436 H   0  0  0  0  0  0
  -28.2587  -38.0092   24.7481 H   0  0  0  0  0  0
  -28.1031  -36.2639   24.6306 H   0  0  0  0  0  0
  -27.2293  -37.1489   25.8858 H   0  0  0  0  0  0
  -20.9024  -29.9416   21.7847 H   0  0  0  0  0  0
  -26.0167  -38.2883   24.1427 H   0  0  0  0  0  0
  -24.1991  -21.3695   20.7544 H   0  0  0  0  0  0
  -29.1179  -21.5327   21.1710 H   0  0  0  0  0  0
  -23.9100  -18.5190   21.7413 H   0  0  0  0  0  0
  -24.0819  -18.0581   23.5158 H   0  0  0  0  0  0
  -23.1512  -20.3721   24.1341 H   0  0  0  0  0  0
  -23.0297  -20.7692   22.3524 H   0  0  0  0  0  0
  -25.5343  -20.0632   23.9886 H   0  0  0  0  0  0
  -24.8684  -19.3909   17.2720 H   0  0  0  0  0  0
  -25.6943  -19.7372   18.7727 H   0  0  0  0  0  0
  -26.3651  -20.3159   17.2467 H   0  0  0  0  0  0
  -26.0612  -23.0788   18.0120 H   0  0  0  0  0  0
  -24.6103  -23.4106   18.9235 H   0  0  0  0  0  0
  -27.7012  -19.5748   23.8276 H   0  0  0  0  0  0
  -29.1286  -19.9705   22.8928 H   0  0  0  0  0  0
  -23.7121  -21.2204   18.4913 H   0  0  0  0  0  0
  -24.2733  -21.8159   16.9540 H   0  0  0  0  0  0
  -29.3724  -16.5533   20.4698 H   0  0  0  0  0  0
  -28.2870  -15.6771   21.4760 H   0  0  0  0  0  0
  -30.1751  -17.9332   22.4076 H   0  0  0  0  0  0
  -29.1623  -17.0288   23.5073 H   0  0  0  0  0  0
  -28.1157  -25.6715   18.2714 H   0  0  0  0  0  0
  -29.6609  -25.4783   19.0350 H   0  0  0  0  0  0
  -28.7550  -24.3565   20.9876 H   0  0  0  0  0  0
  -27.0997  -24.6619   20.4617 H   0  0  0  0  0  0
  -31.0887  -15.5816   22.2119 H   0  0  0  0  0  0
  -27.2402  -17.8032   22.3799 H   0  0  0  0  0  0
  -28.1146  -18.4614   21.1657 H   0  0  0  0  0  0
  1 25  1  0  0  0
  1 30  2  0  0  0
  1 88  1  0  0  0
  2  3  1  0  0  0
  2 25  1  0  0  0
  2 91  1  0  0  0
  2 92  1  0  0  0
  3  4  1  0  0  0
  3 93  1  0  0  0
  3 94  1  0  0  0
  4  5  1  0  0  0
  4 95  1  0  0  0
  4 96  1  0  0  0
  5  6  1  0  0  0
  5 26  1  0  0  0
  5 97  1  0  0  0
  6 25  1  0  0  0
  6 98  1  0  0  0
  6 99  1  0  0  0
  7  8  2  0  0  0
  7 26  1  0  0  0
  7 29  1  0  0  0
  8  9  1  0  0  0
  8 22  1  0  0  0
  9 10  1  0  0  0
  9 27  2  0  0  0
 10 11  2  0  0  0
 10 15  1  0  0  0
 11 12  1  0  0  0
 11100  1  0  0  0
 12 13  2  0  0  0
 12101  1  0  0  0
 13 14  1  0  0  0
 13 31  1  0  0  0
 14 15  2  0  0  0
 14102  1  0  0  0
 15103  1  0  0  0
 16 17  2  0  0  0
 16 21  1  0  0  0
 16 31  1  0  0  0
 17 18  1  0  0  0
 17104  1  0  0  0
 18 19  2  0  0  0
 18105  1  0  0  0
 19 20  1  0  0  0
 19 24  1  0  0  0
 20 21  2  0  0  0
 20106  1  0  0  0
 21 23  1  0  0  0
 22 28  1  0  0  0
 22 32  2  0  0  0
 26 27  1  0  0  0
 28107  1  0  0  0
 28108  1  0  0  0
 29109  1  0  0  0
 29110  1  0  0  0
 33 34  1  0  0  0
 33 66  1  0  0  0
 33 70  2  0  0  0
 34 36  1  0  0  0
 34 59  1  0  0  0
 34111  1  0  0  0
 35 44  2  0  0  0
 35 45  1  0  0  0
 35 68  1  0  0  0
 36 56  1  0  0  0
 36112  1  0  0  0
 37 39  1  0  0  0
 37 47  1  0  0  0
 37 66  1  0  0  0
 37113  1  0  0  0
 38 43  2  0  0  0
 38 46  1  0  0  0
 38 47  1  0  0  0
 39 64  1  0  0  0
 39 67  2  0  0  0
 40 52  1  0  0  0
 40 53  2  0  0  0
 40 58  1  0  0  0
 41114  1  0  0  0
 41115  1  0  0  0
 41116  1  0  0  0
 41 48  1  0  0  0
 42 43  1  0  0  0
 42 66  1  0  0  0
 42117  1  0  0  0
 42118  1  0  0  0
 43 44  1  0  0  0
 44119  1  0  0  0
 45 46  2  0  0  0
 45120  1  0  0  0
 46121  1  0  0  0
 47122  1  0  0  0
 47123  1  0  0  0
 48 56  1  0  0  0
 48 65  1  0  0  0
 48124  1  0  0  0
 49 50  1  0  0  0
 49 53  1  0  0  0
 49 64  1  0  0  0
 49125  1  0  0  0
 50 51  1  0  0  0
 50126  1  0  0  0
 50127  1  0  0  0
 51 52  1  0  0  0
 51128  1  0  0  0
 51129  1  0  0  0
 52130  1  0  0  0
 52131  1  0  0  0
 53 54  1  0  0  0
 54 55  2  0  0  0
 54132  1  0  0  0
 55 57  1  0  0  0
 55133  1  0  0  0
 56 69  2  0  0  0
 57 58  2  0  0  0
 57134  1  0  0  0
 58135  1  0  0  0
 59 60  1  0  0  0
 59 61  1  0  0  0
 59 62  1  0  0  0
 60136  1  0  0  0
 60137  1  0  0  0
 60138  1  0  0  0
 61139  1  0  0  0
 61140  1  0  0  0
 61141  1  0  0  0
 62142  1  0  0  0
 62143  1  0  0  0
 62144  1  0  0  0
 63 65  1  0  0  0
 63145  1  0  0  0
 63146  1  0  0  0
 63147  1  0  0  0
 64148  1  0  0  0
 65149  1  0  0  0
 68 86  1  0  0  0
 71 73  2  0  0  0
 71 74  1  0  0  0
 71150  1  0  0  0
 72 75  2  0  0  0
 72 76  1  0  0  0
 72151  1  0  0  0
 73 75  1  0  0  0
 73 79  1  0  0  0
 74 76  2  0  0  0
 74 81  1  0  0  0
 75 82  1  0  0  0
 76 90  1  0  0  0
 77 78  1  0  0  0
 77 79  1  0  0  0
 77152  1  0  0  0
 77153  1  0  0  0
 78 79  1  0  0  0
 78154  1  0  0  0
 78155  1  0  0  0
 79156  1  0  0  0
 80 83  1  0  0  0
 80157  1  0  0  0
 80158  1  0  0  0
 80159  1  0  0  0
 81 83  1  0  0  0
 81160  1  0  0  0
 81161  1  0  0  0
 82 89  1  0  0  0
 82162  1  0  0  0
 82163  1  0  0  0
 83164  1  0  0  0
 83165  1  0  0  0
 84 85  1  0  0  0
 84 88  1  0  0  0
 84166  1  0  0  0
 84167  1  0  0  0
 85 89  1  0  0  0
 85168  1  0  0  0
 85169  1  0  0  0
 86 87  1  0  0  0
 86170  1  0  0  0
 86171  1  0  0  0
 87 90  1  0  0  0
 87172  1  0  0  0
 87173  1  0  0  0
 88174  1  0  0  0
 89175  1  0  0  0
 89176  1  0  0  0
M  CHG  1  89   1
M  ISO  4   1 100  68 101  86 101  88 100
M  END
> <chiral flag>
0

> <version>
0

> <s_m_source_file>
/data/baiqing/PycharmProjects/Reinvent-master-3.2/result/LINK_invent/BTK/process_docking_weight1_custom_sum_contain_oxygen_bond_distance_aromatic_linkinvent_7_9_3/rearranged_h_0140.sdf

> <i_m_source_file_index>
41

> <r_mmod_Potential_Energy-OPLS-2005>
-188.405166625977

> <r_mmod_Stretch_Energy-OPLS-2005>
37.2802314758301

> <r_mmod_Bend_Energy-OPLS-2005>
111.496467590332

> <r_mmod_Torsional_Energy-OPLS-2005>
333.294525146484

> <r_mmod_Improper_Torsional_Energy-OPLS-2005>
9.23869228363037

> <r_mmod_Van_der_Waal_Energy-OPLS-2005>
153.965805053711

> <r_mmod_Electrostatic_Energy-OPLS-2005>
-372.332855224609

> <r_mmod_Solvation_Energy-OPLS-2005>
-472.580383300781

> <b_mmod_Minimization_Converged-OPLS-2005>
0

> <r_mmod_RMS_Derivative-OPLS-2005>
11.8758411407471

$$$$
41
                    3D
 Structure written by MMmdl.
153161  0  0  1  0            999 V2000
  -30.4336  -15.2489   20.3593 C   0  0  0  0  0  0
  -30.4395  -12.7903   19.5354 C   0  0  0  0  0  0
  -29.5381  -12.5743   18.2933 C   0  0  0  0  0  0
  -28.0837  -12.3053   18.7146 C   0  0  0  0  0  0
  -27.6145  -13.2741   19.8280 C   0  0  2  0  0  0
  -28.6461  -13.4345   20.9661 C   0  0  0  0  0  0
  -25.2391  -13.8251   20.5740 C   0  0  0  0  0  0
  -24.1743  -13.0442   20.9253 C   0  0  0  0  0  0
  -24.6397  -11.6935   20.8752 C   0  0  0  0  0  0
  -23.9083  -10.4295   21.0398 C   0  0  0  0  0  0
  -24.3626   -9.4208   21.9177 C   0  0  0  0  0  0
  -23.6294   -8.2246   22.0749 C   0  0  0  0  0  0
  -22.4272   -8.0284   21.3547 C   0  0  0  0  0  0
  -21.9912   -9.0261   20.4651 C   0  0  0  0  0  0
  -22.7245  -10.2136   20.3055 C   0  0  0  0  0  0
  -21.6861   -6.0728   22.5274 C   0  0  0  0  0  0
  -21.4023   -6.5634   23.8207 C   0  0  0  0  0  0
  -21.3659   -5.6784   24.9170 C   0  0  0  0  0  0
  -21.6042   -4.3045   24.7218 C   0  0  0  0  0  0
  -21.8818   -3.8140   23.4339 C   0  0  0  0  0  0
  -21.9200   -4.6961   22.3396 C   0  0  0  0  0  0
  -22.7761  -13.5196   21.1897 C   0  0  0  0  0  0
  -22.1663   -4.2145   21.0972 F   0  0  0  0  0  0
  -21.5626   -3.4528   25.7731 F   0  0  0  0  0  0
  -29.8855  -13.9346   20.3499 N   0  0  0  0  0  0
  -26.2822  -12.9524   20.3220 N   0  0  0  0  0  0
  -25.9334  -11.6630   20.5713 N   0  0  0  0  0  0
  -22.0411  -12.8185   22.0457 N   0  0  0  0  0  0
  -25.4031  -15.1984   20.4164 N   0  0  0  0  0  0
  -31.6423  -15.2667   20.0864 O   0  0  0  0  0  0
  -21.6641   -6.8876   21.4237 O   0  0  0  0  0  0
  -22.3437  -14.5496   20.6739 O   0  0  0  0  0  0
  -24.6630  -31.8216   23.1708 C   0  0  0  0  0  0
  -25.9317  -32.4573   23.8156 C   0  0  1  0  0  0
  -27.2230  -26.9275   20.1789 C   0  0  0  0  0  0
  -25.5988  -33.8387   24.2070 N   0  0  0  0  0  0
  -23.4774  -30.4340   21.5186 C   0  0  2  0  0  0
  -24.9318  -28.8206   20.1078 C   0  0  0  0  0  0
  -22.7660  -29.4431   22.4771 C   0  0  0  0  0  0
  -18.0317  -28.1412   22.8455 C   0  0  0  0  0  0
  -24.1495  -36.7193   23.2646 C   0  0  0  0  0  0
  -26.0457  -30.6276   21.4009 C   0  0  0  0  0  0
  -26.1132  -29.2179   20.7443 C   0  0  0  0  0  0
  -27.2489  -28.2907   20.7589 C   0  0  0  0  0  0
  -26.0149  -26.6854   19.4837 C   0  0  0  0  0  0
  -24.9084  -27.5745   19.4585 C   0  0  0  0  0  0
  -23.7171  -29.7484   20.1444 C   0  0  0  0  0  0
  -25.4135  -36.2958   24.0300 C   0  0  1  0  0  0
  -20.5943  -28.3751   23.1186 C   0  0  2  0  0  0
  -20.6798  -26.9428   22.5411 C   0  0  0  0  0  0
  -19.5780  -26.6379   21.5214 C   0  0  0  0  0  0
  -18.1955  -26.7944   22.1609 C   0  0  0  0  0  0
  -19.1582  -28.8904   23.2806 C   0  0  0  0  0  0
  -18.9493  -30.1489   23.8845 C   0  0  0  0  0  0
  -17.6483  -30.6598   24.0553 C   0  0  0  0  0  0
  -25.9098  -34.9340   23.5004 C   0  0  0  0  0  0
  -16.5375  -29.9084   23.6348 C   0  0  0  0  0  0
  -16.7303  -28.6506   23.0356 C   0  0  0  0  0  0
  -26.4571  -31.6524   25.0687 C   0  0  0  0  0  0
  -25.3705  -31.3789   26.1356 C   0  0  0  0  0  0
  -27.0455  -30.2881   24.6438 C   0  0  0  0  0  0
  -27.6071  -32.4328   25.7475 C   0  0  0  0  0  0
  -27.5573  -37.1749   24.8458 C   0  0  0  0  0  0
  -21.4333  -29.3028   22.3521 N   0  0  0  0  0  0
  -26.4275  -37.3702   23.9409 N   0  0  0  0  0  0
  -24.7498  -30.9882   22.0839 N   0  0  0  0  0  0
  -23.4203  -28.8008   23.3020 O   0  0  0  0  0  0
  -28.2331  -25.8339   20.3074 O   0  0  0  0  0  0
  -26.5702  -34.8880   22.4596 O   0  0  0  0  0  0
  -23.5703  -32.1179   23.6814 O   0  0  0  0  0  0
  -28.1696  -20.1401   19.2146 C   0  0  0  0  0  0
  -28.7069  -18.6301   18.9952 C   0  0  0  0  0  0
  -29.5812  -19.5836   20.9409 C   0  0  0  0  0  0
  -29.1361  -21.0064   20.0792 C   0  0  2  0  0  0
  -29.7537  -18.1238   20.0623 C   0  0  1  0  0  0
  -28.1919  -24.2312   19.8847 C   0  0  0  0  0  0
  -28.7250  -22.6834   20.6541 C   0  0  2  0  0  0
  -29.6503  -16.5041   20.4779 N   0  0  0  0  0  0
  -29.8708  -23.0697   21.5001 N   0  3  0  0  0  0
  -31.4619  -12.9849   19.2094 H   0  0  0  0  0  0
  -30.4955  -11.8798   20.1343 H   0  0  0  0  0  0
  -29.9119  -11.7466   17.6892 H   0  0  0  0  0  0
  -29.5765  -13.4603   17.6579 H   0  0  0  0  0  0
  -28.0304  -11.2790   19.0790 H   0  0  0  0  0  0
  -27.4192  -12.3587   17.8517 H   0  0  0  0  0  0
  -27.5357  -14.2438   19.3357 H   0  0  0  0  0  0
  -28.8052  -12.4952   21.4982 H   0  0  0  0  0  0
  -28.2883  -14.1531   21.7048 H   0  0  0  0  0  0
  -25.2766   -9.5693   22.4756 H   0  0  0  0  0  0
  -24.0008   -7.4640   22.7468 H   0  0  0  0  0  0
  -21.0842   -8.8783   19.8957 H   0  0  0  0  0  0
  -22.3694  -10.9680   19.6170 H   0  0  0  0  0  0
  -21.2019   -7.6142   23.9705 H   0  0  0  0  0  0
  -21.1478   -6.0514   25.9069 H   0  0  0  0  0  0
  -22.0600   -2.7607   23.2834 H   0  0  0  0  0  0
  -22.4036  -11.9863   22.4869 H   0  0  0  0  0  0
  -21.1029  -13.1218   22.2654 H   0  0  0  0  0  0
  -24.6311  -15.8465   20.5271 H   0  0  0  0  0  0
  -26.2336  -15.6362   20.0408 H   0  0  0  0  0  0
  -26.7384  -32.5113   23.0862 H   0  0  0  0  0  0
  -25.0097  -33.9453   25.0197 H   0  0  0  0  0  0
  -22.7913  -31.2663   21.3488 H   0  0  0  0  0  0
  -23.3775  -35.9504   23.3267 H   0  0  0  0  0  0
  -24.3581  -36.8875   22.2070 H   0  0  0  0  0  0
  -23.7237  -37.6365   23.6720 H   0  0  0  0  0  0
  -26.2277  -31.3706   20.6233 H   0  0  0  0  0  0
  -26.9050  -30.6827   22.0568 H   0  0  0  0  0  0
  -28.1391  -28.5902   21.2942 H   0  0  0  0  0  0
  -25.8823  -25.7381   18.9832 H   0  0  0  0  0  0
  -24.0098  -27.2667   18.9403 H   0  0  0  0  0  0
  -23.8718  -30.5169   19.3863 H   0  0  0  0  0  0
  -22.8263  -29.2031   19.8276 H   0  0  0  0  0  0
  -25.1338  -36.1743   25.0793 H   0  0  0  0  0  0
  -21.0027  -28.3372   24.1310 H   0  0  0  0  0  0
  -20.5677  -26.2363   23.3647 H   0  0  0  0  0  0
  -21.6664  -26.7400   22.1227 H   0  0  0  0  0  0
  -19.6936  -25.6279   21.1273 H   0  0  0  0  0  0
  -19.6740  -27.3161   20.6723 H   0  0  0  0  0  0
  -17.4230  -26.6681   21.4004 H   0  0  0  0  0  0
  -18.0343  -26.0102   22.9025 H   0  0  0  0  0  0
  -19.7968  -30.7319   24.2190 H   0  0  0  0  0  0
  -17.5038  -31.6275   24.5164 H   0  0  0  0  0  0
  -15.5370  -30.2964   23.7715 H   0  0  0  0  0  0
  -15.8698  -28.0814   22.7092 H   0  0  0  0  0  0
  -24.5893  -30.7125   25.7679 H   0  0  0  0  0  0
  -24.8892  -32.3000   26.4656 H   0  0  0  0  0  0
  -25.7953  -30.9046   27.0214 H   0  0  0  0  0  0
  -26.3120  -29.6558   24.1428 H   0  0  0  0  0  0
  -27.3944  -29.7253   25.5107 H   0  0  0  0  0  0
  -27.9085  -30.4035   23.9876 H   0  0  0  0  0  0
  -27.2644  -33.3664   26.1947 H   0  0  0  0  0  0
  -28.3932  -32.6835   25.0340 H   0  0  0  0  0  0
  -28.0686  -31.8528   26.5477 H   0  0  0  0  0  0
  -28.2565  -38.0070   24.7527 H   0  0  0  0  0  0
  -28.1096  -36.2601   24.6255 H   0  0  0  0  0  0
  -27.2293  -37.1359   25.8861 H   0  0  0  0  0  0
  -20.9584  -29.8687   21.6628 H   0  0  0  0  0  0
  -26.0118  -38.2751   24.1445 H   0  0  0  0  0  0
  -27.2086  -20.0900   19.7290 H   0  0  0  0  0  0
  -27.9688  -20.6196   18.2549 H   0  0  0  0  0  0
  -29.1656  -18.5589   18.0076 H   0  0  0  0  0  0
  -27.8513  -17.9543   18.9606 H   0  0  0  0  0  0
  -28.8198  -19.4153   21.7045 H   0  0  0  0  0  0
  -30.5000  -19.7693   21.4968 H   0  0  0  0  0  0
  -29.9935  -21.1891   19.4293 H   0  0  0  0  0  0
  -30.7371  -18.1939   19.5936 H   0  0  0  0  0  0
  -27.1653  -24.0394   19.5788 H   0  0  0  0  0  0
  -28.7351  -24.2458   18.9395 H   0  0  0  0  0  0
  -27.9216  -22.5003   21.3684 H   0  0  0  0  0  0
  -28.7109  -16.2727   20.7667 H   0  0  0  0  0  0
  -30.6861  -23.2596   20.9429 H   0  0  0  0  0  0
  -30.0958  -22.3402   22.1529 H   0  0  0  0  0  0
  -29.6551  -23.9004   22.0251 H   0  0  0  0  0  0
  1 25  1  0  0  0
  1 30  2  0  0  0
  1 78  1  0  0  0
  2  3  1  0  0  0
  2 25  1  0  0  0
  2 80  1  0  0  0
  2 81  1  0  0  0
  3  4  1  0  0  0
  3 82  1  0  0  0
  3 83  1  0  0  0
  4  5  1  0  0  0
  4 84  1  0  0  0
  4 85  1  0  0  0
  5  6  1  0  0  0
  5 26  1  0  0  0
  5 86  1  0  0  0
  6 25  1  0  0  0
  6 87  1  0  0  0
  6 88  1  0  0  0
  7  8  2  0  0  0
  7 26  1  0  0  0
  7 29  1  0  0  0
  8  9  1  0  0  0
  8 22  1  0  0  0
  9 10  1  0  0  0
  9 27  2  0  0  0
 10 11  2  0  0  0
 10 15  1  0  0  0
 11 12  1  0  0  0
 11 89  1  0  0  0
 12 13  2  0  0  0
 12 90  1  0  0  0
 13 14  1  0  0  0
 13 31  1  0  0  0
 14 15  2  0  0  0
 14 91  1  0  0  0
 15 92  1  0  0  0
 16 17  2  0  0  0
 16 21  1  0  0  0
 16 31  1  0  0  0
 17 18  1  0  0  0
 17 93  1  0  0  0
 18 19  2  0  0  0
 18 94  1  0  0  0
 19 20  1  0  0  0
 19 24  1  0  0  0
 20 21  2  0  0  0
 20 95  1  0  0  0
 21 23  1  0  0  0
 22 28  1  0  0  0
 22 32  2  0  0  0
 26 27  1  0  0  0
 28 96  1  0  0  0
 28 97  1  0  0  0
 29 98  1  0  0  0
 29 99  1  0  0  0
 33 34  1  0  0  0
 33 66  1  0  0  0
 33 70  2  0  0  0
 34 36  1  0  0  0
 34 59  1  0  0  0
 34100  1  0  0  0
 35 44  2  0  0  0
 35 45  1  0  0  0
 35 68  1  0  0  0
 36 56  1  0  0  0
 36101  1  0  0  0
 37 39  1  0  0  0
 37 47  1  0  0  0
 37 66  1  0  0  0
 37102  1  0  0  0
 38 43  2  0  0  0
 38 46  1  0  0  0
 38 47  1  0  0  0
 39 64  1  0  0  0
 39 67  2  0  0  0
 40 52  1  0  0  0
 40 53  2  0  0  0
 40 58  1  0  0  0
 41103  1  0  0  0
 41104  1  0  0  0
 41105  1  0  0  0
 41 48  1  0  0  0
 42 43  1  0  0  0
 42 66  1  0  0  0
 42106  1  0  0  0
 42107  1  0  0  0
 43 44  1  0  0  0
 44108  1  0  0  0
 45 46  2  0  0  0
 45109  1  0  0  0
 46110  1  0  0  0
 47111  1  0  0  0
 47112  1  0  0  0
 48 56  1  0  0  0
 48 65  1  0  0  0
 48113  1  0  0  0
 49 50  1  0  0  0
 49 53  1  0  0  0
 49 64  1  0  0  0
 49114  1  0  0  0
 50 51  1  0  0  0
 50115  1  0  0  0
 50116  1  0  0  0
 51 52  1  0  0  0
 51117  1  0  0  0
 51118  1  0  0  0
 52119  1  0  0  0
 52120  1  0  0  0
 53 54  1  0  0  0
 54 55  2  0  0  0
 54121  1  0  0  0
 55 57  1  0  0  0
 55122  1  0  0  0
 56 69  2  0  0  0
 57 58  2  0  0  0
 57123  1  0  0  0
 58124  1  0  0  0
 59 60  1  0  0  0
 59 61  1  0  0  0
 59 62  1  0  0  0
 60125  1  0  0  0
 60126  1  0  0  0
 60127  1  0  0  0
 61128  1  0  0  0
 61129  1  0  0  0
 61130  1  0  0  0
 62131  1  0  0  0
 62132  1  0  0  0
 62133  1  0  0  0
 63 65  1  0  0  0
 63134  1  0  0  0
 63135  1  0  0  0
 63136  1  0  0  0
 64137  1  0  0  0
 65138  1  0  0  0
 68 76  1  0  0  0
 71 72  1  0  0  0
 71139  1  0  0  0
 71140  1  0  0  0
 71 74  1  0  0  0
 72 75  1  0  0  0
 72141  1  0  0  0
 72142  1  0  0  0
 73 74  1  0  0  0
 73 75  1  0  0  0
 73143  1  0  0  0
 73144  1  0  0  0
 74 77  1  0  0  0
 74145  1  0  0  0
 75 78  1  0  0  0
 75146  1  0  0  0
 76 77  1  0  0  0
 76147  1  0  0  0
 76148  1  0  0  0
 77 79  1  0  0  0
 77149  1  0  0  0
 78150  1  0  0  0
 79151  1  0  0  0
 79152  1  0  0  0
 79153  1  0  0  0
M  CHG  1  79   1
M  ISO  4   1 100  68 101  76 101  78 100
M  END
> <chiral flag>
0

> <version>
0

> <s_m_source_file>
/data/baiqing/PycharmProjects/Reinvent-master-3.2/result/LINK_invent/BTK/process_docking_weight1_custom_sum_contain_oxygen_bond_distance_aromatic_linkinvent_7_9_3/rearranged_h_0140.sdf

> <i_m_source_file_index>
42

> <r_mmod_Potential_Energy-OPLS-2005>
1144.3701171875

> <r_mmod_Stretch_Energy-OPLS-2005>
586.853088378906

> <r_mmod_Bend_Energy-OPLS-2005>
503.716857910156

> <r_mmod_Torsional_Energy-OPLS-2005>
270.024139404297

> <r_mmod_Improper_Torsional_Energy-OPLS-2005>
4.50070571899414

> <r_mmod_Van_der_Waal_Energy-OPLS-2005>
105.090309143066

> <r_mmod_Electrostatic_Energy-OPLS-2005>
-288.740661621094

> <r_mmod_Solvation_Energy-OPLS-2005>
-485.884368896484

> <b_mmod_Minimization_Converged-OPLS-2005>
0

> <r_mmod_RMS_Derivative-OPLS-2005>
1.36808574199677

$$$$
42
                    3D
 Structure written by MMmdl.
176186  0  0  1  0            999 V2000
  -30.6455  -14.8618   20.4405 C   0  0  0  0  0  0
  -30.4106  -12.5408   19.4847 C   0  0  0  0  0  0
  -29.5050  -12.5213   18.2381 C   0  0  0  0  0  0
  -28.0380  -12.3167   18.6575 C   0  0  0  0  0  0
  -27.6227  -13.2380   19.8342 C   0  0  2  0  0  0
  -28.6714  -13.2845   20.9674 C   0  0  0  0  0  0
  -25.2439  -13.8155   20.5691 C   0  0  0  0  0  0
  -24.1758  -13.0414   20.9226 C   0  0  0  0  0  0
  -24.6361  -11.6898   20.8766 C   0  0  0  0  0  0
  -23.9042  -10.4293   21.0409 C   0  0  0  0  0  0
  -24.3606   -9.4212   21.9184 C   0  0  0  0  0  0
  -23.6291   -8.2236   22.0750 C   0  0  0  0  0  0
  -22.4284   -8.0265   21.3528 C   0  0  0  0  0  0
  -21.9906   -9.0230   20.4634 C   0  0  0  0  0  0
  -22.7220  -10.2117   20.3058 C   0  0  0  0  0  0
  -21.6864   -6.0743   22.5271 C   0  0  0  0  0  0
  -21.4015   -6.5637   23.8205 C   0  0  0  0  0  0
  -21.3670   -5.6790   24.9167 C   0  0  0  0  0  0
  -21.6054   -4.3050   24.7227 C   0  0  0  0  0  0
  -21.8818   -3.8150   23.4344 C   0  0  0  0  0  0
  -21.9195   -4.6965   22.3397 C   0  0  0  0  0  0
  -22.7788  -13.5198   21.1877 C   0  0  0  0  0  0
  -22.1654   -4.2151   21.0972 F   0  0  0  0  0  0
  -21.5643   -3.4534   25.7747 F   0  0  0  0  0  0
  -29.9506  -13.6595   20.3546 N   0  0  0  0  0  0
  -26.2865  -12.9375   20.3273 N   0  0  0  0  0  0
  -25.9302  -11.6519   20.5793 N   0  0  0  0  0  0
  -22.0410  -12.8224   22.0424 N   0  0  0  0  0  0
  -25.4118  -15.1881   20.3999 N   0  0  0  0  0  0
  -31.8593  -14.8060   20.2206 O   0  0  0  0  0  0
  -21.6636   -6.8877   21.4231 O   0  0  0  0  0  0
  -22.3516  -14.5536   20.6739 O   0  0  0  0  0  0
  -24.6353  -31.8509   23.1928 C   0  0  0  0  0  0
  -25.9151  -32.4739   23.8306 C   0  0  1  0  0  0
  -27.2132  -27.1936   20.1566 C   0  0  0  0  0  0
  -25.5934  -33.8549   24.2240 N   0  0  0  0  0  0
  -23.4360  -30.4677   21.5410 C   0  0  2  0  0  0
  -24.8831  -28.8986   20.1196 C   0  0  0  0  0  0
  -22.7529  -29.4558   22.4932 C   0  0  0  0  0  0
  -18.0298  -28.1377   22.8486 C   0  0  0  0  0  0
  -24.1494  -36.7261   23.2633 C   0  0  0  0  0  0
  -25.9857  -30.7462   21.3781 C   0  0  0  0  0  0
  -26.0593  -29.3584   20.7264 C   0  0  0  0  0  0
  -27.2312  -28.5227   20.7226 C   0  0  0  0  0  0
  -26.0126  -26.8119   19.5290 C   0  0  0  0  0  0
  -24.8679  -27.6355   19.5076 C   0  0  0  0  0  0
  -23.6577  -29.7947   20.1607 C   0  0  0  0  0  0
  -25.4118  -36.3065   24.0327 C   0  0  1  0  0  0
  -20.5899  -28.3689   23.1275 C   0  0  2  0  0  0
  -20.6792  -26.9410   22.5411 C   0  0  0  0  0  0
  -19.5770  -26.6373   21.5220 C   0  0  0  0  0  0
  -18.1945  -26.7923   22.1621 C   0  0  0  0  0  0
  -19.1549  -28.8854   23.2867 C   0  0  0  0  0  0
  -18.9463  -30.1456   23.8881 C   0  0  0  0  0  0
  -17.6463  -30.6583   24.0549 C   0  0  0  0  0  0
  -25.9066  -34.9439   23.5092 C   0  0  0  0  0  0
  -16.5358  -29.9069   23.6331 C   0  0  0  0  0  0
  -16.7282  -28.6481   23.0365 C   0  0  0  0  0  0
  -26.4507  -31.6568   25.0706 C   0  0  0  0  0  0
  -25.3715  -31.3711   26.1410 C   0  0  0  0  0  0
  -27.0346  -30.2982   24.6196 C   0  0  0  0  0  0
  -27.6073  -32.4297   25.7481 C   0  0  0  0  0  0
  -27.5601  -37.1754   24.8444 C   0  0  0  0  0  0
  -21.4231  -29.3021   22.3666 N   0  0  0  0  0  0
  -26.4277  -37.3781   23.9443 N   0  0  0  0  0  0
  -24.7056  -31.0410   22.0937 N   0  0  0  0  0  0
  -23.4200  -28.8118   23.3067 O   0  0  0  0  0  0
  -28.2965  -26.2680   20.1423 O   0  0  0  0  0  0
  -26.5661  -34.8919   22.4676 O   0  0  0  0  0  0
  -23.5490  -32.1365   23.7191 O   0  0  0  0  0  0
  -30.4880  -22.6501   20.7643 C   0  0  0  0  0  0
  -31.4355  -22.7357   19.7196 C   0  0  0  0  0  0
  -29.3981  -20.8795   19.6032 C   0  0  0  0  0  0
  -29.2328  -22.1207   20.4068 C   0  0  0  0  0  0
  -31.1754  -22.0977   18.4824 C   0  0  0  0  0  0
  -30.1013  -21.1670   18.3995 C   0  0  0  0  0  0
  -28.6457  -20.4465   14.8059 C   0  0  0  0  0  0
  -27.5726  -20.5571   15.8570 C   0  0  0  0  0  0
  -30.3784  -18.7905   21.2485 C   0  0  0  0  0  0
  -28.4455  -18.2336   19.8915 C   0  0  0  0  0  0
  -30.9373  -17.2935   21.1065 C   0  0  0  0  0  0
  -28.7749  -16.6530   20.0501 C   0  0  0  0  0  0
  -29.5970  -19.2876   20.0108 C   0  0  0  0  0  0
  -28.9677  -21.0728   16.1451 C   0  0  0  0  0  0
  -32.1023  -22.3581   17.3073 C   0  0  0  0  0  0
  -26.9818  -22.8941   19.4129 C   0  0  0  0  0  0
  -29.8734  -20.3500   17.1250 C   0  0  0  0  0  0
  -28.1637  -24.8365   20.6827 C   0  0  0  0  0  0
  -28.3627  -23.3988   19.8554 C   0  0  1  0  0  0
  -30.0568  -16.1447   20.6584 N   0  0  0  0  0  0
  -31.4554  -12.6427   19.1845 H   0  0  0  0  0  0
  -30.3536  -11.5909   20.0165 H   0  0  0  0  0  0
  -29.8104  -11.7251   17.5566 H   0  0  0  0  0  0
  -29.6074  -13.4584   17.6881 H   0  0  0  0  0  0
  -27.9188  -11.2714   18.9413 H   0  0  0  0  0  0
  -27.3752  -12.4747   17.8053 H   0  0  0  0  0  0
  -27.5730  -14.2311   19.3955 H   0  0  0  0  0  0
  -28.7426  -12.3223   21.4769 H   0  0  0  0  0  0
  -28.3912  -14.0148   21.7272 H   0  0  0  0  0  0
  -25.2735   -9.5709   22.4782 H   0  0  0  0  0  0
  -24.0004   -7.4632   22.7473 H   0  0  0  0  0  0
  -21.0847   -8.8747   19.8921 H   0  0  0  0  0  0
  -22.3667  -10.9663   19.6193 H   0  0  0  0  0  0
  -21.1981   -7.6144   23.9719 H   0  0  0  0  0  0
  -21.1506   -6.0508   25.9071 H   0  0  0  0  0  0
  -22.0596   -2.7611   23.2840 H   0  0  0  0  0  0
  -22.4008  -11.9887   22.4830 H   0  0  0  0  0  0
  -21.1014  -13.1260   22.2577 H   0  0  0  0  0  0
  -24.6469  -15.8463   20.4930 H   0  0  0  0  0  0
  -26.2616  -15.6174   20.0569 H   0  0  0  0  0  0
  -26.7220  -32.5379   23.1050 H   0  0  0  0  0  0
  -25.0059  -33.9692   25.0370 H   0  0  0  0  0  0
  -22.7332  -31.2894   21.3889 H   0  0  0  0  0  0
  -23.3808  -35.9530   23.3203 H   0  0  0  0  0  0
  -24.3606  -36.8985   22.2064 H   0  0  0  0  0  0
  -23.7159  -37.6394   23.6723 H   0  0  0  0  0  0
  -26.1249  -31.5012   20.6027 H   0  0  0  0  0  0
  -26.8629  -30.8051   22.0110 H   0  0  0  0  0  0
  -28.1377  -28.8775   21.1936 H   0  0  0  0  0  0
  -25.9515  -25.8452   19.0565 H   0  0  0  0  0  0
  -23.9668  -27.2761   19.0306 H   0  0  0  0  0  0
  -23.7883  -30.5692   19.4041 H   0  0  0  0  0  0
  -22.7746  -29.2309   19.8540 H   0  0  0  0  0  0
  -25.1288  -36.1903   25.0812 H   0  0  0  0  0  0
  -20.9978  -28.3265   24.1404 H   0  0  0  0  0  0
  -20.5719  -26.2292   23.3610 H   0  0  0  0  0  0
  -21.6654  -26.7451   22.1191 H   0  0  0  0  0  0
  -19.6940  -25.6281   21.1260 H   0  0  0  0  0  0
  -19.6718  -27.3176   20.6748 H   0  0  0  0  0  0
  -17.4226  -26.6678   21.4015 H   0  0  0  0  0  0
  -18.0336  -26.0057   22.9004 H   0  0  0  0  0  0
  -19.7934  -30.7276   24.2246 H   0  0  0  0  0  0
  -17.5009  -31.6267   24.5139 H   0  0  0  0  0  0
  -15.5355  -30.2963   23.7651 H   0  0  0  0  0  0
  -15.8684  -28.0782   22.7106 H   0  0  0  0  0  0
  -24.5916  -30.7046   25.7712 H   0  0  0  0  0  0
  -24.8876  -32.2870   26.4813 H   0  0  0  0  0  0
  -25.8012  -30.8892   27.0201 H   0  0  0  0  0  0
  -26.2920  -29.6729   24.1228 H   0  0  0  0  0  0
  -27.4032  -29.7248   25.4710 H   0  0  0  0  0  0
  -27.8805  -30.4255   23.9439 H   0  0  0  0  0  0
  -27.2719  -33.3633   26.2012 H   0  0  0  0  0  0
  -28.3909  -32.6785   25.0311 H   0  0  0  0  0  0
  -28.0709  -31.8433   26.5424 H   0  0  0  0  0  0
  -28.2519  -38.0155   24.7665 H   0  0  0  0  0  0
  -28.1209  -36.2700   24.6060 H   0  0  0  0  0  0
  -27.2352  -37.1135   25.8847 H   0  0  0  0  0  0
  -20.9443  -29.8693   21.6815 H   0  0  0  0  0  0
  -26.0155  -38.2833   24.1546 H   0  0  0  0  0  0
  -30.5870  -23.3686   21.5657 H   0  0  0  0  0  0
  -32.2999  -23.3766   19.8328 H   0  0  0  0  0  0
  -28.5659  -21.1045   13.9426 H   0  0  0  0  0  0
  -29.0454  -19.4562   14.5997 H   0  0  0  0  0  0
  -27.2559  -19.6347   16.3401 H   0  0  0  0  0  0
  -26.7847  -21.2897   15.6988 H   0  0  0  0  0  0
  -31.2324  -19.4516   21.4028 H   0  0  0  0  0  0
  -29.7613  -18.8902   22.1420 H   0  0  0  0  0  0
  -27.6862  -18.5029   20.6252 H   0  0  0  0  0  0
  -27.9551  -18.3685   18.9256 H   0  0  0  0  0  0
  -31.3857  -17.0071   22.0605 H   0  0  0  0  0  0
  -31.7718  -17.3410   20.4039 H   0  0  0  0  0  0
  -28.6817  -16.1955   19.0643 H   0  0  0  0  0  0
  -27.9772  -16.2181   20.6480 H   0  0  0  0  0  0
  -30.2947  -18.9453   19.2490 H   0  0  0  0  0  0
  -29.1167  -22.1508   16.1130 H   0  0  0  0  0  0
  -32.6736  -23.2774   17.4454 H   0  0  0  0  0  0
  -31.5462  -22.4613   16.3764 H   0  0  0  0  0  0
  -32.8073  -21.5341   17.1960 H   0  0  0  0  0  0
  -27.0669  -22.0768   18.6976 H   0  0  0  0  0  0
  -26.4020  -23.6819   18.9355 H   0  0  0  0  0  0
  -26.4130  -22.5306   20.2685 H   0  0  0  0  0  0
  -29.4198  -19.3852   17.3400 H   0  0  0  0  0  0
  -30.8264  -20.1275   16.6469 H   0  0  0  0  0  0
  -28.8733  -24.8226   21.5081 H   0  0  0  0  0  0
  -27.2031  -24.7791   21.1974 H   0  0  0  0  0  0
  -28.8724  -23.6956   18.9411 H   0  0  0  0  0  0
  1 25  1  0  0  0
  1 30  2  0  0  0
  1 90  1  0  0  0
  2  3  1  0  0  0
  2 25  1  0  0  0
  2 91  1  0  0  0
  2 92  1  0  0  0
  3  4  1  0  0  0
  3 93  1  0  0  0
  3 94  1  0  0  0
  4  5  1  0  0  0
  4 95  1  0  0  0
  4 96  1  0  0  0
  5  6  1  0  0  0
  5 26  1  0  0  0
  5 97  1  0  0  0
  6 25  1  0  0  0
  6 98  1  0  0  0
  6 99  1  0  0  0
  7  8  2  0  0  0
  7 26  1  0  0  0
  7 29  1  0  0  0
  8  9  1  0  0  0
  8 22  1  0  0  0
  9 10  1  0  0  0
  9 27  2  0  0  0
 10 11  2  0  0  0
 10 15  1  0  0  0
 11 12  1  0  0  0
 11100  1  0  0  0
 12 13  2  0  0  0
 12101  1  0  0  0
 13 14  1  0  0  0
 13 31  1  0  0  0
 14 15  2  0  0  0
 14102  1  0  0  0
 15103  1  0  0  0
 16 17  2  0  0  0
 16 21  1  0  0  0
 16 31  1  0  0  0
 17 18  1  0  0  0
 17104  1  0  0  0
 18 19  2  0  0  0
 18105  1  0  0  0
 19 20  1  0  0  0
 19 24  1  0  0  0
 20 21  2  0  0  0
 20106  1  0  0  0
 21 23  1  0  0  0
 22 28  1  0  0  0
 22 32  2  0  0  0
 26 27  1  0  0  0
 28107  1  0  0  0
 28108  1  0  0  0
 29109  1  0  0  0
 29110  1  0  0  0
 33 34  1  0  0  0
 33 66  1  0  0  0
 33 70  2  0  0  0
 34 36  1  0  0  0
 34 59  1  0  0  0
 34111  1  0  0  0
 35 44  2  0  0  0
 35 45  1  0  0  0
 35 68  1  0  0  0
 36 56  1  0  0  0
 36112  1  0  0  0
 37 39  1  0  0  0
 37 47  1  0  0  0
 37 66  1  0  0  0
 37113  1  0  0  0
 38 43  2  0  0  0
 38 46  1  0  0  0
 38 47  1  0  0  0
 39 64  1  0  0  0
 39 67  2  0  0  0
 40 52  1  0  0  0
 40 53  2  0  0  0
 40 58  1  0  0  0
 41114  1  0  0  0
 41115  1  0  0  0
 41116  1  0  0  0
 41 48  1  0  0  0
 42 43  1  0  0  0
 42 66  1  0  0  0
 42117  1  0  0  0
 42118  1  0  0  0
 43 44  1  0  0  0
 44119  1  0  0  0
 45 46  2  0  0  0
 45120  1  0  0  0
 46121  1  0  0  0
 47122  1  0  0  0
 47123  1  0  0  0
 48 56  1  0  0  0
 48 65  1  0  0  0
 48124  1  0  0  0
 49 50  1  0  0  0
 49 53  1  0  0  0
 49 64  1  0  0  0
 49125  1  0  0  0
 50 51  1  0  0  0
 50126  1  0  0  0
 50127  1  0  0  0
 51 52  1  0  0  0
 51128  1  0  0  0
 51129  1  0  0  0
 52130  1  0  0  0
 52131  1  0  0  0
 53 54  1  0  0  0
 54 55  2  0  0  0
 54132  1  0  0  0
 55 57  1  0  0  0
 55133  1  0  0  0
 56 69  2  0  0  0
 57 58  2  0  0  0
 57134  1  0  0  0
 58135  1  0  0  0
 59 60  1  0  0  0
 59 61  1  0  0  0
 59 62  1  0  0  0
 60136  1  0  0  0
 60137  1  0  0  0
 60138  1  0  0  0
 61139  1  0  0  0
 61140  1  0  0  0
 61141  1  0  0  0
 62142  1  0  0  0
 62143  1  0  0  0
 62144  1  0  0  0
 63 65  1  0  0  0
 63145  1  0  0  0
 63146  1  0  0  0
 63147  1  0  0  0
 64148  1  0  0  0
 65149  1  0  0  0
 68 88  1  0  0  0
 71 72  2  0  0  0
 71 74  1  0  0  0
 71150  1  0  0  0
 72 75  1  0  0  0
 72151  1  0  0  0
 73 74  2  0  0  0
 73 76  1  0  0  0
 73 83  1  0  0  0
 74 89  1  0  0  0
 75 76  2  0  0  0
 75 85  1  0  0  0
 76 87  1  0  0  0
 77 78  1  0  0  0
 77 84  1  0  0  0
 77152  1  0  0  0
 77153  1  0  0  0
 78 84  1  0  0  0
 78154  1  0  0  0
 78155  1  0  0  0
 79 81  1  0  0  0
 79 83  1  0  0  0
 79156  1  0  0  0
 79157  1  0  0  0
 80 82  1  0  0  0
 80 83  1  0  0  0
 80158  1  0  0  0
 80159  1  0  0  0
 81 90  1  0  0  0
 81160  1  0  0  0
 81161  1  0  0  0
 82 90  1  0  0  0
 82162  1  0  0  0
 82163  1  0  0  0
 83164  1  0  0  0
 84 87  1  0  0  0
 84165  1  0  0  0
 85166  1  0  0  0
 85167  1  0  0  0
 85168  1  0  0  0
 86169  1  0  0  0
 86170  1  0  0  0
 86171  1  0  0  0
 86 89  1  0  0  0
 87172  1  0  0  0
 87173  1  0  0  0
 88 89  1  0  0  0
 88174  1  0  0  0
 88175  1  0  0  0
 89176  1  0  0  0
M  ISO  4   1 100  68 101  88 101  90 100
M  END
> <chiral flag>
0

> <version>
0

> <s_m_source_file>
/data/baiqing/PycharmProjects/Reinvent-master-3.2/result/LINK_invent/BTK/process_docking_weight1_custom_sum_contain_oxygen_bond_distance_aromatic_linkinvent_7_9_3/rearranged_h_0140.sdf

> <i_m_source_file_index>
43

> <r_mmod_Potential_Energy-OPLS-2005>
986.783813476562

> <r_mmod_Stretch_Energy-OPLS-2005>
212.057891845703

> <r_mmod_Bend_Energy-OPLS-2005>
326.525054931641

> <r_mmod_Torsional_Energy-OPLS-2005>
618.126159667969

> <r_mmod_Improper_Torsional_Energy-OPLS-2005>
38.3016586303711

> <r_mmod_Van_der_Waal_Energy-OPLS-2005>
142.581893920898

> <r_mmod_Electrostatic_Energy-OPLS-2005>
-296.472534179688

> <r_mmod_Solvation_Energy-OPLS-2005>
-193.238464355469

> <b_mmod_Minimization_Converged-OPLS-2005>
0

> <r_mmod_RMS_Derivative-OPLS-2005>
3.44027662277222

$$$$
43
                    3D
 Structure written by MMmdl.
175184  0  0  1  0            999 V2000
  -30.6637  -14.5272   20.5454 C   0  0  0  0  0  0
  -30.4312  -12.3314   19.4350 C   0  0  0  0  0  0
  -29.5029  -12.5159   18.2145 C   0  0  0  0  0  0
  -28.0226  -12.3697   18.6214 C   0  0  0  0  0  0
  -27.6625  -13.2086   19.8761 C   0  0  2  0  0  0
  -28.7040  -12.9991   20.9995 C   0  0  0  0  0  0
  -25.2596  -13.8159   20.5657 C   0  0  0  0  0  0
  -24.1854  -13.0442   20.9182 C   0  0  0  0  0  0
  -24.6405  -11.6906   20.8737 C   0  0  0  0  0  0
  -23.9061  -10.4295   21.0405 C   0  0  0  0  0  0
  -24.3612   -9.4211   21.9187 C   0  0  0  0  0  0
  -23.6298   -8.2241   22.0752 C   0  0  0  0  0  0
  -22.4282   -8.0282   21.3537 C   0  0  0  0  0  0
  -21.9912   -9.0254   20.4638 C   0  0  0  0  0  0
  -22.7233  -10.2137   20.3052 C   0  0  0  0  0  0
  -21.6850   -6.0741   22.5278 C   0  0  0  0  0  0
  -21.4009   -6.5640   23.8213 C   0  0  0  0  0  0
  -21.3667   -5.6792   24.9177 C   0  0  0  0  0  0
  -21.6051   -4.3057   24.7223 C   0  0  0  0  0  0
  -21.8822   -3.8146   23.4345 C   0  0  0  0  0  0
  -21.9190   -4.6967   22.3404 C   0  0  0  0  0  0
  -22.7874  -13.5244   21.1849 C   0  0  0  0  0  0
  -22.1660   -4.2149   21.0986 F   0  0  0  0  0  0
  -21.5639   -3.4546   25.7739 F   0  0  0  0  0  0
  -30.0334  -13.3200   20.4518 N   0  0  0  0  0  0
  -26.3033  -12.9328   20.3358 N   0  0  0  0  0  0
  -25.9333  -11.6490   20.5764 N   0  0  0  0  0  0
  -22.0495  -12.8240   22.0396 N   0  0  0  0  0  0
  -25.4313  -15.1868   20.3992 N   0  0  0  0  0  0
  -31.7970  -14.7142   20.0941 O   0  0  0  0  0  0
  -21.6640   -6.8884   21.4240 O   0  0  0  0  0  0
  -22.3569  -14.5556   20.6703 O   0  0  0  0  0  0
  -24.6178  -31.8659   23.2086 C   0  0  0  0  0  0
  -25.9062  -32.4806   23.8395 C   0  0  1  0  0  0
  -27.2302  -27.3939   20.0950 C   0  0  0  0  0  0
  -25.5915  -33.8609   24.2314 N   0  0  0  0  0  0
  -23.4064  -30.4900   21.5512 C   0  0  2  0  0  0
  -24.8509  -28.9523   20.1143 C   0  0  0  0  0  0
  -22.7424  -29.4651   22.4995 C   0  0  0  0  0  0
  -18.0269  -28.1379   22.8495 C   0  0  0  0  0  0
  -24.1489  -36.7310   23.2639 C   0  0  0  0  0  0
  -25.9402  -30.8170   21.3693 C   0  0  0  0  0  0
  -26.0148  -29.4504   20.7117 C   0  0  0  0  0  0
  -27.2040  -28.6796   20.6975 C   0  0  0  0  0  0
  -26.0410  -26.9239   19.4881 C   0  0  0  0  0  0
  -24.8609  -27.6902   19.5005 C   0  0  0  0  0  0
  -23.6152  -29.8233   20.1659 C   0  0  0  0  0  0
  -25.4114  -36.3104   24.0333 C   0  0  1  0  0  0
  -20.5861  -28.3667   23.1315 C   0  0  2  0  0  0
  -20.6762  -26.9405   22.5419 C   0  0  0  0  0  0
  -19.5745  -26.6383   21.5213 C   0  0  0  0  0  0
  -18.1918  -26.7928   22.1619 C   0  0  0  0  0  0
  -19.1519  -28.8839   23.2896 C   0  0  0  0  0  0
  -18.9446  -30.1445   23.8906 C   0  0  0  0  0  0
  -17.6449  -30.6583   24.0565 C   0  0  0  0  0  0
  -25.9048  -34.9468   23.5119 C   0  0  0  0  0  0
  -16.5339  -29.9079   23.6334 C   0  0  0  0  0  0
  -16.7253  -28.6497   23.0355 C   0  0  0  0  0  0
  -26.4475  -31.6602   25.0737 C   0  0  0  0  0  0
  -25.3729  -31.3724   26.1479 C   0  0  0  0  0  0
  -27.0300  -30.3033   24.6152 C   0  0  0  0  0  0
  -27.6051  -32.4324   25.7500 C   0  0  0  0  0  0
  -27.5586  -37.1812   24.8458 C   0  0  0  0  0  0
  -21.4147  -29.3031   22.3727 N   0  0  0  0  0  0
  -26.4298  -37.3792   23.9401 N   0  0  0  0  0  0
  -24.6734  -31.0730   22.1005 N   0  0  0  0  0  0
  -23.4181  -28.8195   23.3048 O   0  0  0  0  0  0
  -28.4029  -26.6464   20.1264 O   0  0  0  0  0  0
  -26.5609  -34.8919   22.4679 O   0  0  0  0  0  0
  -23.5361  -32.1434   23.7461 O   0  0  0  0  0  0
  -28.4643  -18.9412   20.4580 C   0  0  0  0  0  0
  -28.6344  -17.6074   20.8958 C   0  0  0  0  0  0
  -30.9378  -17.6659   20.1749 C   0  0  0  0  0  0
  -29.5088  -19.6583   19.8265 C   0  0  0  0  0  0
  -30.7867  -19.0149   19.7413 C   0  0  0  0  0  0
  -29.8561  -16.9235   20.7101 C   0  0  0  0  0  0
  -29.8633  -24.7638   19.5503 C   0  0  0  0  0  0
  -27.7346  -24.2650   20.6468 C   0  0  0  0  0  0
  -29.9237  -23.3167   18.9899 C   0  0  0  0  0  0
  -27.7823  -22.8040   20.1036 C   0  0  0  0  0  0
  -28.4156  -25.2640   19.6819 C   0  0  1  0  0  0
  -35.2011  -20.9292   20.9024 C   0  0  0  0  0  0
  -33.9795  -22.1340   19.0449 C   0  0  0  0  0  0
  -29.1325  -20.9665   19.0693 C   0  0  0  0  0  0
  -32.0277  -19.6814   19.1450 C   0  0  0  0  0  0
  -34.2091  -20.7734   19.7363 C   0  0  0  0  0  0
  -29.9093  -15.5272   21.0656 N   0  0  0  0  0  0
  -29.1572  -22.2981   19.7809 N   0  3  1  0  0  0
  -32.9441  -20.1540   20.2068 N   0  3  0  0  0  0
  -31.4754  -12.4389   19.1361 H   0  0  0  0  0  0
  -30.3402  -11.3207   19.8368 H   0  0  0  0  0  0
  -29.7519  -11.7920   17.4376 H   0  0  0  0  0  0
  -29.6652  -13.5024   17.7760 H   0  0  0  0  0  0
  -27.8337  -11.3135   18.8161 H   0  0  0  0  0  0
  -27.3731  -12.6442   17.7895 H   0  0  0  0  0  0
  -27.7035  -14.2561   19.5776 H   0  0  0  0  0  0
  -28.6901  -11.9630   21.3402 H   0  0  0  0  0  0
  -28.4579  -13.5966   21.8788 H   0  0  0  0  0  0
  -25.2751   -9.5701   22.4766 H   0  0  0  0  0  0
  -24.0013   -7.4629   22.7473 H   0  0  0  0  0  0
  -21.0842   -8.8769   19.8943 H   0  0  0  0  0  0
  -22.3686  -10.9681   19.6167 H   0  0  0  0  0  0
  -21.1989   -7.6143   23.9727 H   0  0  0  0  0  0
  -21.1491   -6.0513   25.9086 H   0  0  0  0  0  0
  -22.0591   -2.7605   23.2841 H   0  0  0  0  0  0
  -22.4080  -11.9885   22.4784 H   0  0  0  0  0  0
  -21.1110  -13.1279   22.2582 H   0  0  0  0  0  0
  -24.6566  -15.8358   20.4788 H   0  0  0  0  0  0
  -26.2651  -15.6102   20.0128 H   0  0  0  0  0  0
  -26.7126  -32.5491   23.1147 H   0  0  0  0  0  0
  -25.0072  -33.9779   25.0461 H   0  0  0  0  0  0
  -22.6967  -31.3080   21.4117 H   0  0  0  0  0  0
  -23.3756  -35.9640   23.3294 H   0  0  0  0  0  0
  -24.3584  -36.8941   22.2054 H   0  0  0  0  0  0
  -23.7234  -37.6509   23.6658 H   0  0  0  0  0  0
  -26.0627  -31.5845   20.6040 H   0  0  0  0  0  0
  -26.8239  -30.8643   21.9938 H   0  0  0  0  0  0
  -28.1015  -29.0613   21.1641 H   0  0  0  0  0  0
  -25.9884  -25.9618   19.0031 H   0  0  0  0  0  0
  -23.9656  -27.3003   19.0362 H   0  0  0  0  0  0
  -23.7254  -30.5980   19.4063 H   0  0  0  0  0  0
  -22.7375  -29.2458   19.8701 H   0  0  0  0  0  0
  -25.1296  -36.1973   25.0824 H   0  0  0  0  0  0
  -20.9942  -28.3226   24.1439 H   0  0  0  0  0  0
  -20.5665  -26.2275   23.3604 H   0  0  0  0  0  0
  -21.6630  -26.7454   22.1202 H   0  0  0  0  0  0
  -19.6906  -25.6291   21.1243 H   0  0  0  0  0  0
  -19.6691  -27.3196   20.6747 H   0  0  0  0  0  0
  -17.4196  -26.6683   21.4008 H   0  0  0  0  0  0
  -18.0313  -26.0057   22.8999 H   0  0  0  0  0  0
  -19.7921  -30.7260   24.2277 H   0  0  0  0  0  0
  -17.5002  -31.6267   24.5163 H   0  0  0  0  0  0
  -15.5339  -30.2988   23.7656 H   0  0  0  0  0  0
  -15.8650  -28.0818   22.7075 H   0  0  0  0  0  0
  -24.5881  -30.7100   25.7804 H   0  0  0  0  0  0
  -24.8939  -32.2883   26.4953 H   0  0  0  0  0  0
  -25.8062  -30.8859   27.0225 H   0  0  0  0  0  0
  -26.2847  -29.6803   24.1184 H   0  0  0  0  0  0
  -27.4021  -29.7279   25.4641 H   0  0  0  0  0  0
  -27.8716  -30.4335   23.9340 H   0  0  0  0  0  0
  -27.2668  -33.3616   26.2100 H   0  0  0  0  0  0
  -28.3844  -32.6900   25.0313 H   0  0  0  0  0  0
  -28.0731  -31.8432   26.5394 H   0  0  0  0  0  0
  -28.2597  -38.0115   24.7517 H   0  0  0  0  0  0
  -28.1086  -36.2649   24.6268 H   0  0  0  0  0  0
  -27.2302  -37.1438   25.8860 H   0  0  0  0  0  0
  -20.9314  -29.8756   21.6946 H   0  0  0  0  0  0
  -26.0188  -38.2873   24.1401 H   0  0  0  0  0  0
  -27.4826  -19.3873   20.5438 H   0  0  0  0  0  0
  -27.7863  -17.0917   21.3250 H   0  0  0  0  0  0
  -31.9010  -17.1911   20.0543 H   0  0  0  0  0  0
  -30.4170  -25.4277   18.8852 H   0  0  0  0  0  0
  -30.3689  -24.8136   20.5154 H   0  0  0  0  0  0
  -28.2118  -24.3105   21.6266 H   0  0  0  0  0  0
  -26.6948  -24.5458   20.8128 H   0  0  0  0  0  0
  -30.9660  -23.0068   18.9162 H   0  0  0  0  0  0
  -29.5408  -23.3335   17.9675 H   0  0  0  0  0  0
  -27.1658  -22.7668   19.2036 H   0  0  0  0  0  0
  -27.3125  -22.1292   20.8212 H   0  0  0  0  0  0
  -27.9655  -25.2049   18.6903 H   0  0  0  0  0  0
  -36.1450  -21.3511   20.5551 H   0  0  0  0  0  0
  -35.4303  -19.9694   21.3660 H   0  0  0  0  0  0
  -34.8135  -21.5916   21.6777 H   0  0  0  0  0  0
  -34.9286  -22.5714   18.7319 H   0  0  0  0  0  0
  -33.4969  -22.8498   19.7112 H   0  0  0  0  0  0
  -33.3713  -22.0465   18.1450 H   0  0  0  0  0  0
  -28.1333  -20.8075   18.6616 H   0  0  0  0  0  0
  -29.7301  -21.0165   18.1615 H   0  0  0  0  0  0
  -31.7661  -20.5028   18.4846 H   0  0  0  0  0  0
  -32.5472  -18.9555   18.5170 H   0  0  0  0  0  0
  -34.6645  -20.0949   19.0126 H   0  0  0  0  0  0
  -29.0698  -15.1783   21.5012 H   0  0  0  0  0  0
  -29.6364  -22.1609   20.6582 H   0  0  0  0  0  0
  -33.1888  -19.3452   20.7546 H   0  0  0  0  0  0
  -32.4587  -20.7844   20.8225 H   0  0  0  0  0  0
  1 25  1  0  0  0
  1 30  2  0  0  0
  1 87  1  0  0  0
  2  3  1  0  0  0
  2 25  1  0  0  0
  2 90  1  0  0  0
  2 91  1  0  0  0
  3  4  1  0  0  0
  3 92  1  0  0  0
  3 93  1  0  0  0
  4  5  1  0  0  0
  4 94  1  0  0  0
  4 95  1  0  0  0
  5  6  1  0  0  0
  5 26  1  0  0  0
  5 96  1  0  0  0
  6 25  1  0  0  0
  6 97  1  0  0  0
  6 98  1  0  0  0
  7  8  2  0  0  0
  7 26  1  0  0  0
  7 29  1  0  0  0
  8  9  1  0  0  0
  8 22  1  0  0  0
  9 10  1  0  0  0
  9 27  2  0  0  0
 10 11  2  0  0  0
 10 15  1  0  0  0
 11 12  1  0  0  0
 11 99  1  0  0  0
 12 13  2  0  0  0
 12100  1  0  0  0
 13 14  1  0  0  0
 13 31  1  0  0  0
 14 15  2  0  0  0
 14101  1  0  0  0
 15102  1  0  0  0
 16 17  2  0  0  0
 16 21  1  0  0  0
 16 31  1  0  0  0
 17 18  1  0  0  0
 17103  1  0  0  0
 18 19  2  0  0  0
 18104  1  0  0  0
 19 20  1  0  0  0
 19 24  1  0  0  0
 20 21  2  0  0  0
 20105  1  0  0  0
 21 23  1  0  0  0
 22 28  1  0  0  0
 22 32  2  0  0  0
 26 27  1  0  0  0
 28106  1  0  0  0
 28107  1  0  0  0
 29108  1  0  0  0
 29109  1  0  0  0
 33 34  1  0  0  0
 33 66  1  0  0  0
 33 70  2  0  0  0
 34 36  1  0  0  0
 34 59  1  0  0  0
 34110  1  0  0  0
 35 44  2  0  0  0
 35 45  1  0  0  0
 35 68  1  0  0  0
 36 56  1  0  0  0
 36111  1  0  0  0
 37 39  1  0  0  0
 37 47  1  0  0  0
 37 66  1  0  0  0
 37112  1  0  0  0
 38 43  2  0  0  0
 38 46  1  0  0  0
 38 47  1  0  0  0
 39 64  1  0  0  0
 39 67  2  0  0  0
 40 52  1  0  0  0
 40 53  2  0  0  0
 40 58  1  0  0  0
 41113  1  0  0  0
 41114  1  0  0  0
 41115  1  0  0  0
 41 48  1  0  0  0
 42 43  1  0  0  0
 42 66  1  0  0  0
 42116  1  0  0  0
 42117  1  0  0  0
 43 44  1  0  0  0
 44118  1  0  0  0
 45 46  2  0  0  0
 45119  1  0  0  0
 46120  1  0  0  0
 47121  1  0  0  0
 47122  1  0  0  0
 48 56  1  0  0  0
 48 65  1  0  0  0
 48123  1  0  0  0
 49 50  1  0  0  0
 49 53  1  0  0  0
 49 64  1  0  0  0
 49124  1  0  0  0
 50 51  1  0  0  0
 50125  1  0  0  0
 50126  1  0  0  0
 51 52  1  0  0  0
 51127  1  0  0  0
 51128  1  0  0  0
 52129  1  0  0  0
 52130  1  0  0  0
 53 54  1  0  0  0
 54 55  2  0  0  0
 54131  1  0  0  0
 55 57  1  0  0  0
 55132  1  0  0  0
 56 69  2  0  0  0
 57 58  2  0  0  0
 57133  1  0  0  0
 58134  1  0  0  0
 59 60  1  0  0  0
 59 61  1  0  0  0
 59 62  1  0  0  0
 60135  1  0  0  0
 60136  1  0  0  0
 60137  1  0  0  0
 61138  1  0  0  0
 61139  1  0  0  0
 61140  1  0  0  0
 62141  1  0  0  0
 62142  1  0  0  0
 62143  1  0  0  0
 63 65  1  0  0  0
 63144  1  0  0  0
 63145  1  0  0  0
 63146  1  0  0  0
 64147  1  0  0  0
 65148  1  0  0  0
 68 81  1  0  0  0
 71 72  2  0  0  0
 71 74  1  0  0  0
 71149  1  0  0  0
 72 76  1  0  0  0
 72150  1  0  0  0
 73 75  1  0  0  0
 73 76  2  0  0  0
 73151  1  0  0  0
 74 75  2  0  0  0
 74 84  1  0  0  0
 75 85  1  0  0  0
 76 87  1  0  0  0
 77 79  1  0  0  0
 77 81  1  0  0  0
 77152  1  0  0  0
 77153  1  0  0  0
 78 80  1  0  0  0
 78 81  1  0  0  0
 78154  1  0  0  0
 78155  1  0  0  0
 79 88  1  0  0  0
 79156  1  0  0  0
 79157  1  0  0  0
 80 88  1  0  0  0
 80158  1  0  0  0
 80159  1  0  0  0
 81160  1  0  0  0
 82161  1  0  0  0
 82162  1  0  0  0
 82163  1  0  0  0
 82 86  1  0  0  0
 83 86  1  0  0  0
 83164  1  0  0  0
 83165  1  0  0  0
 83166  1  0  0  0
 84167  1  0  0  0
 84168  1  0  0  0
 84 88  1  0  0  0
 85 89  1  0  0  0
 85169  1  0  0  0
 85170  1  0  0  0
 86 89  1  0  0  0
 86171  1  0  0  0
 87172  1  0  0  0
 88173  1  0  0  0
 89174  1  0  0  0
 89175  1  0  0  0
M  CHG  2  88   1  89   1
M  ISO  4   1 100  68 101  81 101  87 100
M  END
> <chiral flag>
0

> <version>
0

> <s_m_source_file>
/data/baiqing/PycharmProjects/Reinvent-master-3.2/result/LINK_invent/BTK/process_docking_weight1_custom_sum_contain_oxygen_bond_distance_aromatic_linkinvent_7_9_3/rearranged_h_0140.sdf

> <i_m_source_file_index>
44

> <r_mmod_Potential_Energy-OPLS-2005>
-300.052368164062

> <r_mmod_Stretch_Energy-OPLS-2005>
54.3427734375

> <r_mmod_Bend_Energy-OPLS-2005>
133.390853881836

> <r_mmod_Torsional_Energy-OPLS-2005>
240.167785644531

> <r_mmod_Improper_Torsional_Energy-OPLS-2005>
6.00081729888916

> <r_mmod_Van_der_Waal_Energy-OPLS-2005>
150.885192871094

> <r_mmod_Electrostatic_Energy-OPLS-2005>
58.3838653564453

> <r_mmod_Solvation_Energy-OPLS-2005>
-962.821838378906

> <b_mmod_Minimization_Converged-OPLS-2005>
0

> <r_mmod_RMS_Derivative-OPLS-2005>
1.37702095508575

$$$$
44
                    3D
 Structure written by MMmdl.
171180  0  0  1  0            999 V2000
  -30.6964  -14.4838   20.5900 C   0  0  0  0  0  0
  -30.4259  -12.3239   19.4148 C   0  0  0  0  0  0
  -29.4912  -12.5083   18.2018 C   0  0  0  0  0  0
  -28.0140  -12.3633   18.6185 C   0  0  0  0  0  0
  -27.6602  -13.2065   19.8727 C   0  0  2  0  0  0
  -28.7031  -12.9886   20.9909 C   0  0  0  0  0  0
  -25.2587  -13.8161   20.5678 C   0  0  0  0  0  0
  -24.1837  -13.0437   20.9171 C   0  0  0  0  0  0
  -24.6392  -11.6904   20.8733 C   0  0  0  0  0  0
  -23.9059  -10.4293   21.0407 C   0  0  0  0  0  0
  -24.3612   -9.4209   21.9186 C   0  0  0  0  0  0
  -23.6289   -8.2242   22.0757 C   0  0  0  0  0  0
  -22.4271   -8.0280   21.3545 C   0  0  0  0  0  0
  -21.9906   -9.0253   20.4643 C   0  0  0  0  0  0
  -22.7233  -10.2134   20.3055 C   0  0  0  0  0  0
  -21.6851   -6.0735   22.5279 C   0  0  0  0  0  0
  -21.4012   -6.5639   23.8214 C   0  0  0  0  0  0
  -21.3657   -5.6790   24.9174 C   0  0  0  0  0  0
  -21.6045   -4.3056   24.7223 C   0  0  0  0  0  0
  -21.8820   -3.8147   23.4347 C   0  0  0  0  0  0
  -21.9192   -4.6962   22.3402 C   0  0  0  0  0  0
  -22.7861  -13.5234   21.1840 C   0  0  0  0  0  0
  -22.1660   -4.2150   21.0979 F   0  0  0  0  0  0
  -21.5628   -3.4540   25.7738 F   0  0  0  0  0  0
  -30.0300  -13.3061   20.4361 N   0  0  0  0  0  0
  -26.3020  -12.9326   20.3360 N   0  0  0  0  0  0
  -25.9319  -11.6490   20.5764 N   0  0  0  0  0  0
  -22.0506  -12.8223   22.0394 N   0  0  0  0  0  0
  -25.4322  -15.1877   20.4090 N   0  0  0  0  0  0
  -31.8203  -14.6836   20.1216 O   0  0  0  0  0  0
  -21.6637   -6.8879   21.4241 O   0  0  0  0  0  0
  -22.3548  -14.5549   20.6701 O   0  0  0  0  0  0
  -24.6160  -31.8656   23.2095 C   0  0  0  0  0  0
  -25.9049  -32.4809   23.8395 C   0  0  1  0  0  0
  -27.2348  -27.4252   20.1008 C   0  0  0  0  0  0
  -25.5902  -33.8612   24.2327 N   0  0  0  0  0  0
  -23.4059  -30.4880   21.5492 C   0  0  2  0  0  0
  -24.8546  -28.9512   20.1156 C   0  0  0  0  0  0
  -22.7415  -29.4648   22.4985 C   0  0  0  0  0  0
  -18.0267  -28.1386   22.8491 C   0  0  0  0  0  0
  -24.1484  -36.7304   23.2642 C   0  0  0  0  0  0
  -25.9354  -30.8289   21.3647 C   0  0  0  0  0  0
  -26.0149  -29.4618   20.7131 C   0  0  0  0  0  0
  -27.2119  -28.7056   20.7032 C   0  0  0  0  0  0
  -26.0623  -26.9296   19.4987 C   0  0  0  0  0  0
  -24.8731  -27.6842   19.5053 C   0  0  0  0  0  0
  -23.6159  -29.8181   20.1647 C   0  0  0  0  0  0
  -25.4108  -36.3104   24.0340 C   0  0  1  0  0  0
  -20.5859  -28.3672   23.1310 C   0  0  2  0  0  0
  -20.6764  -26.9405   22.5417 C   0  0  0  0  0  0
  -19.5742  -26.6388   21.5212 C   0  0  0  0  0  0
  -18.1913  -26.7936   22.1614 C   0  0  0  0  0  0
  -19.1520  -28.8847   23.2897 C   0  0  0  0  0  0
  -18.9450  -30.1453   23.8910 C   0  0  0  0  0  0
  -17.6453  -30.6589   24.0573 C   0  0  0  0  0  0
  -25.9035  -34.9467   23.5131 C   0  0  0  0  0  0
  -16.5344  -29.9092   23.6337 C   0  0  0  0  0  0
  -16.7258  -28.6511   23.0356 C   0  0  0  0  0  0
  -26.4485  -31.6595   25.0726 C   0  0  0  0  0  0
  -25.3748  -31.3673   26.1467 C   0  0  0  0  0  0
  -27.0337  -30.3045   24.6107 C   0  0  0  0  0  0
  -27.6051  -32.4329   25.7486 C   0  0  0  0  0  0
  -27.5579  -37.1804   24.8467 C   0  0  0  0  0  0
  -21.4141  -29.3033   22.3716 N   0  0  0  0  0  0
  -26.4292  -37.3788   23.9412 N   0  0  0  0  0  0
  -24.6705  -31.0753   22.0996 N   0  0  0  0  0  0
  -23.4171  -28.8192   23.3043 O   0  0  0  0  0  0
  -28.3693  -26.6431   20.0892 O   0  0  0  0  0  0
  -26.5592  -34.8917   22.4689 O   0  0  0  0  0  0
  -23.5350  -32.1415   23.7485 O   0  0  0  0  0  0
  -29.9672  -23.6573   20.7270 C   0  0  0  0  0  0
  -27.5975  -23.3658   20.3342 C   0  0  0  0  0  0
  -28.6691  -24.2105   20.6916 C   0  0  0  0  0  0
  -30.1943  -22.2920   20.4185 C   0  0  0  0  0  0
  -27.8060  -21.9977   20.0269 C   0  0  0  0  0  0
  -29.1143  -21.4392   20.0645 C   0  0  0  0  0  0
  -28.4410  -18.6152   16.2017 C   0  0  0  0  0  0
  -28.9105  -17.5297   17.1322 C   0  0  0  0  0  0
  -28.4833  -18.8714   17.6921 C   0  0  0  0  0  0
  -31.6161  -21.7578   20.4662 C   0  0  0  0  0  0
  -26.5967  -21.1586   19.6508 C   0  0  0  0  0  0
  -28.4121  -25.6593   21.1393 C   0  0  0  0  0  0
  -29.5017  -19.8541   18.2483 C   0  0  0  0  0  0
  -30.3955  -17.9008   20.4647 C   0  0  0  0  0  0
  -30.4890  -16.8114   21.5747 C   0  0  0  0  0  0
  -29.3174  -19.0064   20.6796 C   0  0  0  0  0  0
  -30.0055  -15.4667   21.2022 N   0  0  0  0  0  0
  -29.3636  -20.0956   19.6851 N   0  0  0  0  0  0
  -31.4681  -12.4356   19.1100 H   0  0  0  0  0  0
  -30.3408  -11.3126   19.8158 H   0  0  0  0  0  0
  -29.7319  -11.7799   17.4265 H   0  0  0  0  0  0
  -29.6519  -13.4927   17.7584 H   0  0  0  0  0  0
  -27.8295  -11.3070   18.8191 H   0  0  0  0  0  0
  -27.3600  -12.6321   17.7880 H   0  0  0  0  0  0
  -27.7036  -14.2539   19.5726 H   0  0  0  0  0  0
  -28.6872  -11.9504   21.3257 H   0  0  0  0  0  0
  -28.4594  -13.5801   21.8743 H   0  0  0  0  0  0
  -25.2757   -9.5685   22.4761 H   0  0  0  0  0  0
  -23.9997   -7.4637   22.7480 H   0  0  0  0  0  0
  -21.0839   -8.8770   19.8949 H   0  0  0  0  0  0
  -22.3694  -10.9674   19.6164 H   0  0  0  0  0  0
  -21.2004   -7.6146   23.9716 H   0  0  0  0  0  0
  -21.1476   -6.0521   25.9076 H   0  0  0  0  0  0
  -22.0601   -2.7609   23.2847 H   0  0  0  0  0  0
  -22.4121  -11.9873   22.4765 H   0  0  0  0  0  0
  -21.1132  -13.1256   22.2619 H   0  0  0  0  0  0
  -24.6670  -15.8447   20.5148 H   0  0  0  0  0  0
  -26.2859  -15.6244   20.0852 H   0  0  0  0  0  0
  -26.7122  -32.5524   23.1162 H   0  0  0  0  0  0
  -25.0095  -33.9779   25.0503 H   0  0  0  0  0  0
  -22.6953  -31.3047   21.4073 H   0  0  0  0  0  0
  -23.3747  -35.9635   23.3311 H   0  0  0  0  0  0
  -24.3573  -36.8916   22.2054 H   0  0  0  0  0  0
  -23.7236  -37.6508   23.6656 H   0  0  0  0  0  0
  -26.0488  -31.5949   20.5962 H   0  0  0  0  0  0
  -26.8220  -30.8828   21.9843 H   0  0  0  0  0  0
  -28.1092  -29.0936   21.1652 H   0  0  0  0  0  0
  -26.0701  -25.9553   19.0304 H   0  0  0  0  0  0
  -23.9817  -27.2845   19.0417 H   0  0  0  0  0  0
  -23.7228  -30.5916   19.4036 H   0  0  0  0  0  0
  -22.7407  -29.2363   19.8706 H   0  0  0  0  0  0
  -25.1289  -36.1967   25.0835 H   0  0  0  0  0  0
  -20.9951  -28.3247   24.1433 H   0  0  0  0  0  0
  -20.5670  -26.2285   23.3610 H   0  0  0  0  0  0
  -21.6637  -26.7439   22.1215 H   0  0  0  0  0  0
  -19.6906  -25.6300   21.1241 H   0  0  0  0  0  0
  -19.6693  -27.3204   20.6752 H   0  0  0  0  0  0
  -17.4193  -26.6704   21.4000 H   0  0  0  0  0  0
  -18.0287  -26.0062   22.8991 H   0  0  0  0  0  0
  -19.7926  -30.7265   24.2286 H   0  0  0  0  0  0
  -17.5006  -31.6272   24.5170 H   0  0  0  0  0  0
  -15.5345  -30.3000   23.7658 H   0  0  0  0  0  0
  -15.8658  -28.0836   22.7071 H   0  0  0  0  0  0
  -24.5985  -30.6942   25.7813 H   0  0  0  0  0  0
  -24.8860  -32.2801   26.4876 H   0  0  0  0  0  0
  -25.8122  -30.8903   27.0247 H   0  0  0  0  0  0
  -26.2892  -29.6776   24.1188 H   0  0  0  0  0  0
  -27.4145  -29.7309   25.4568 H   0  0  0  0  0  0
  -27.8699  -30.4377   23.9240 H   0  0  0  0  0  0
  -27.2671  -33.3629   26.2068 H   0  0  0  0  0  0
  -28.3852  -32.6892   25.0305 H   0  0  0  0  0  0
  -28.0727  -31.8454   26.5396 H   0  0  0  0  0  0
  -28.2600  -38.0098   24.7517 H   0  0  0  0  0  0
  -28.1072  -36.2631   24.6295 H   0  0  0  0  0  0
  -27.2293  -37.1460   25.8869 H   0  0  0  0  0  0
  -20.9309  -29.8748   21.6927 H   0  0  0  0  0  0
  -26.0178  -38.2863   24.1420 H   0  0  0  0  0  0
  -30.7976  -24.2880   21.0119 H   0  0  0  0  0  0
  -26.5963  -23.7730   20.3153 H   0  0  0  0  0  0
  -27.4639  -18.4931   15.7384 H   0  0  0  0  0  0
  -29.1907  -19.1038   15.5819 H   0  0  0  0  0  0
  -29.9728  -17.2920   17.1232 H   0  0  0  0  0  0
  -28.2477  -16.6829   17.3023 H   0  0  0  0  0  0
  -27.5081  -18.9072   18.1720 H   0  0  0  0  0  0
  -32.3256  -22.5245   20.7782 H   0  0  0  0  0  0
  -31.9187  -21.3990   19.4826 H   0  0  0  0  0  0
  -31.6861  -20.9281   21.1696 H   0  0  0  0  0  0
  -25.6680  -21.6388   19.9593 H   0  0  0  0  0  0
  -26.6318  -20.1804   20.1288 H   0  0  0  0  0  0
  -26.5587  -21.0192   18.5710 H   0  0  0  0  0  0
  -29.2025  -25.9534   21.8311 H   0  0  0  0  0  0
  -27.4959  -25.6673   21.7346 H   0  0  0  0  0  0
  -29.3927  -20.7956   17.7063 H   0  0  0  0  0  0
  -30.5104  -19.4973   18.0348 H   0  0  0  0  0  0
  -30.2662  -17.4177   19.4987 H   0  0  0  0  0  0
  -31.3660  -18.3959   20.4082 H   0  0  0  0  0  0
  -29.9464  -17.1371   22.4626 H   0  0  0  0  0  0
  -31.5290  -16.7215   21.8946 H   0  0  0  0  0  0
  -29.4380  -19.4366   21.6753 H   0  0  0  0  0  0
  -28.3251  -18.5531   20.6633 H   0  0  0  0  0  0
  -29.0772  -15.2184   21.5120 H   0  0  0  0  0  0
  1 25  1  0  0  0
  1 30  2  0  0  0
  1 87  1  0  0  0
  2  3  1  0  0  0
  2 25  1  0  0  0
  2 89  1  0  0  0
  2 90  1  0  0  0
  3  4  1  0  0  0
  3 91  1  0  0  0
  3 92  1  0  0  0
  4  5  1  0  0  0
  4 93  1  0  0  0
  4 94  1  0  0  0
  5  6  1  0  0  0
  5 26  1  0  0  0
  5 95  1  0  0  0
  6 25  1  0  0  0
  6 96  1  0  0  0
  6 97  1  0  0  0
  7  8  2  0  0  0
  7 26  1  0  0  0
  7 29  1  0  0  0
  8  9  1  0  0  0
  8 22  1  0  0  0
  9 10  1  0  0  0
  9 27  2  0  0  0
 10 11  2  0  0  0
 10 15  1  0  0  0
 11 12  1  0  0  0
 11 98  1  0  0  0
 12 13  2  0  0  0
 12 99  1  0  0  0
 13 14  1  0  0  0
 13 31  1  0  0  0
 14 15  2  0  0  0
 14100  1  0  0  0
 15101  1  0  0  0
 16 17  2  0  0  0
 16 21  1  0  0  0
 16 31  1  0  0  0
 17 18  1  0  0  0
 17102  1  0  0  0
 18 19  2  0  0  0
 18103  1  0  0  0
 19 20  1  0  0  0
 19 24  1  0  0  0
 20 21  2  0  0  0
 20104  1  0  0  0
 21 23  1  0  0  0
 22 28  1  0  0  0
 22 32  2  0  0  0
 26 27  1  0  0  0
 28105  1  0  0  0
 28106  1  0  0  0
 29107  1  0  0  0
 29108  1  0  0  0
 33 34  1  0  0  0
 33 66  1  0  0  0
 33 70  2  0  0  0
 34 36  1  0  0  0
 34 59  1  0  0  0
 34109  1  0  0  0
 35 44  2  0  0  0
 35 45  1  0  0  0
 35 68  1  0  0  0
 36 56  1  0  0  0
 36110  1  0  0  0
 37 39  1  0  0  0
 37 47  1  0  0  0
 37 66  1  0  0  0
 37111  1  0  0  0
 38 43  2  0  0  0
 38 46  1  0  0  0
 38 47  1  0  0  0
 39 64  1  0  0  0
 39 67  2  0  0  0
 40 52  1  0  0  0
 40 53  2  0  0  0
 40 58  1  0  0  0
 41112  1  0  0  0
 41113  1  0  0  0
 41114  1  0  0  0
 41 48  1  0  0  0
 42 43  1  0  0  0
 42 66  1  0  0  0
 42115  1  0  0  0
 42116  1  0  0  0
 43 44  1  0  0  0
 44117  1  0  0  0
 45 46  2  0  0  0
 45118  1  0  0  0
 46119  1  0  0  0
 47120  1  0  0  0
 47121  1  0  0  0
 48 56  1  0  0  0
 48 65  1  0  0  0
 48122  1  0  0  0
 49 50  1  0  0  0
 49 53  1  0  0  0
 49 64  1  0  0  0
 49123  1  0  0  0
 50 51  1  0  0  0
 50124  1  0  0  0
 50125  1  0  0  0
 51 52  1  0  0  0
 51126  1  0  0  0
 51127  1  0  0  0
 52128  1  0  0  0
 52129  1  0  0  0
 53 54  1  0  0  0
 54 55  2  0  0  0
 54130  1  0  0  0
 55 57  1  0  0  0
 55131  1  0  0  0
 56 69  2  0  0  0
 57 58  2  0  0  0
 57132  1  0  0  0
 58133  1  0  0  0
 59 60  1  0  0  0
 59 61  1  0  0  0
 59 62  1  0  0  0
 60134  1  0  0  0
 60135  1  0  0  0
 60136  1  0  0  0
 61137  1  0  0  0
 61138  1  0  0  0
 61139  1  0  0  0
 62140  1  0  0  0
 62141  1  0  0  0
 62142  1  0  0  0
 63 65  1  0  0  0
 63143  1  0  0  0
 63144  1  0  0  0
 63145  1  0  0  0
 64146  1  0  0  0
 65147  1  0  0  0
 68 82  1  0  0  0
 71 73  2  0  0  0
 71 74  1  0  0  0
 71148  1  0  0  0
 72 73  1  0  0  0
 72 75  2  0  0  0
 72149  1  0  0  0
 73 82  1  0  0  0
 74 76  2  0  0  0
 74 80  1  0  0  0
 75 76  1  0  0  0
 75 81  1  0  0  0
 76 88  1  0  0  0
 77 78  1  0  0  0
 77 79  1  0  0  0
 77150  1  0  0  0
 77151  1  0  0  0
 78 79  1  0  0  0
 78152  1  0  0  0
 78153  1  0  0  0
 79 83  1  0  0  0
 79154  1  0  0  0
 80155  1  0  0  0
 80156  1  0  0  0
 80157  1  0  0  0
 81158  1  0  0  0
 81159  1  0  0  0
 81160  1  0  0  0
 82161  1  0  0  0
 82162  1  0  0  0
 83 88  1  0  0  0
 83163  1  0  0  0
 83164  1  0  0  0
 84 85  1  0  0  0
 84 86  1  0  0  0
 84165  1  0  0  0
 84166  1  0  0  0
 85 87  1  0  0  0
 85167  1  0  0  0
 85168  1  0  0  0
 86 88  1  0  0  0
 86169  1  0  0  0
 86170  1  0  0  0
 87171  1  0  0  0
M  ISO  4   1 100  68 101  82 101  87 100
M  END
> <chiral flag>
0

> <version>
0

> <s_m_source_file>
/data/baiqing/PycharmProjects/Reinvent-master-3.2/result/LINK_invent/BTK/process_docking_weight1_custom_sum_contain_oxygen_bond_distance_aromatic_linkinvent_7_9_3/rearranged_h_0140.sdf

> <i_m_source_file_index>
45

> <r_mmod_Potential_Energy-OPLS-2005>
9.9006233215332

> <r_mmod_Stretch_Energy-OPLS-2005>
42.4310646057129

> <r_mmod_Bend_Energy-OPLS-2005>
107.146987915039

> <r_mmod_Torsional_Energy-OPLS-2005>
326.117736816406

> <r_mmod_Improper_Torsional_Energy-OPLS-2005>
3.04926586151123

> <r_mmod_Van_der_Waal_Energy-OPLS-2005>
134.878753662109

> <r_mmod_Electrostatic_Energy-OPLS-2005>
-414.160308837891

> <r_mmod_Solvation_Energy-OPLS-2005>
-203.533416748047

> <b_mmod_Minimization_Converged-OPLS-2005>
0

> <r_mmod_RMS_Derivative-OPLS-2005>
0.826801598072052

$$$$
45
                    3D
 Structure written by MMmdl.
167177  0  0  1  0            999 V2000
  -30.7211  -14.5187   20.6490 C   0  0  0  0  0  0
  -30.4218  -12.3466   19.4518 C   0  0  0  0  0  0
  -29.5134  -12.5330   18.2235 C   0  0  0  0  0  0
  -28.0257  -12.3974   18.6096 C   0  0  0  0  0  0
  -27.6594  -13.2298   19.8693 C   0  0  2  0  0  0
  -28.6929  -13.0379   21.0014 C   0  0  0  0  0  0
  -25.2545  -13.8236   20.5674 C   0  0  0  0  0  0
  -24.1823  -13.0456   20.9206 C   0  0  0  0  0  0
  -24.6428  -11.6964   20.8748 C   0  0  0  0  0  0
  -23.9120  -10.4311   21.0385 C   0  0  0  0  0  0
  -24.3648   -9.4225   21.9141 C   0  0  0  0  0  0
  -23.6323   -8.2273   22.0735 C   0  0  0  0  0  0
  -22.4292   -8.0301   21.3550 C   0  0  0  0  0  0
  -21.9956   -9.0262   20.4626 C   0  0  0  0  0  0
  -22.7310  -10.2136   20.3028 C   0  0  0  0  0  0
  -21.6887   -6.0767   22.5329 C   0  0  0  0  0  0
  -21.4025   -6.5644   23.8260 C   0  0  0  0  0  0
  -21.3652   -5.6792   24.9217 C   0  0  0  0  0  0
  -21.6028   -4.3049   24.7283 C   0  0  0  0  0  0
  -21.8809   -3.8171   23.4397 C   0  0  0  0  0  0
  -21.9180   -4.6982   22.3453 C   0  0  0  0  0  0
  -22.7814  -13.5242   21.1834 C   0  0  0  0  0  0
  -22.1644   -4.2188   21.1012 F   0  0  0  0  0  0
  -21.5626   -3.4486   25.7761 F   0  0  0  0  0  0
  -30.0349  -13.3417   20.4729 N   0  0  0  0  0  0
  -26.3011  -12.9442   20.3291 N   0  0  0  0  0  0
  -25.9353  -11.6585   20.5737 N   0  0  0  0  0  0
  -22.0421  -12.8204   22.0371 N   0  0  0  0  0  0
  -25.4156  -15.1970   20.4119 N   0  0  0  0  0  0
  -31.7344  -14.7891   19.9980 O   0  0  0  0  0  0
  -21.6675   -6.8894   21.4279 O   0  0  0  0  0  0
  -22.3501  -14.5541   20.6707 O   0  0  0  0  0  0
  -24.6263  -31.8592   23.2028 C   0  0  0  0  0  0
  -25.9113  -32.4785   23.8370 C   0  0  1  0  0  0
  -27.2395  -27.3441   20.1357 C   0  0  0  0  0  0
  -25.5915  -33.8571   24.2302 N   0  0  0  0  0  0
  -23.4204  -30.4824   21.5426 C   0  0  2  0  0  0
  -24.8739  -28.9267   20.1241 C   0  0  0  0  0  0
  -22.7462  -29.4636   22.4927 C   0  0  0  0  0  0
  -18.0250  -28.1431   22.8444 C   0  0  0  0  0  0
  -24.1478  -36.7305   23.2643 C   0  0  0  0  0  0
  -25.9569  -30.7995   21.3657 C   0  0  0  0  0  0
  -26.0371  -29.4212   20.7279 C   0  0  0  0  0  0
  -27.2260  -28.6395   20.7277 C   0  0  0  0  0  0
  -26.0628  -26.8865   19.5127 C   0  0  0  0  0  0
  -24.8853  -27.6615   19.5114 C   0  0  0  0  0  0
  -23.6418  -29.8080   20.1610 C   0  0  0  0  0  0
  -25.4093  -36.3097   24.0370 C   0  0  1  0  0  0
  -20.5860  -28.3743   23.1267 C   0  0  2  0  0  0
  -20.6764  -26.9462   22.5404 C   0  0  0  0  0  0
  -19.5756  -26.6429   21.5205 C   0  0  0  0  0  0
  -18.1923  -26.7967   22.1605 C   0  0  0  0  0  0
  -19.1506  -28.8899   23.2856 C   0  0  0  0  0  0
  -18.9433  -30.1477   23.8921 C   0  0  0  0  0  0
  -17.6453  -30.6625   24.0576 C   0  0  0  0  0  0
  -25.9058  -34.9453   23.5148 C   0  0  0  0  0  0
  -16.5339  -29.9140   23.6320 C   0  0  0  0  0  0
  -16.7253  -28.6552   23.0341 C   0  0  0  0  0  0
  -26.4495  -31.6554   25.0703 C   0  0  0  0  0  0
  -25.3754  -31.3604   26.1444 C   0  0  0  0  0  0
  -27.0355  -30.3004   24.6106 C   0  0  0  0  0  0
  -27.6124  -32.4239   25.7442 C   0  0  0  0  0  0
  -27.5581  -37.1774   24.8452 C   0  0  0  0  0  0
  -21.4182  -29.3097   22.3673 N   0  0  0  0  0  0
  -26.4244  -37.3807   23.9474 N   0  0  0  0  0  0
  -24.6857  -31.0643   22.0961 N   0  0  0  0  0  0
  -23.4170  -28.8177   23.3011 O   0  0  0  0  0  0
  -28.3878  -26.5626   20.0369 O   0  0  0  0  0  0
  -26.5618  -34.8907   22.4712 O   0  0  0  0  0  0
  -23.5424  -32.1369   23.7387 O   0  0  0  0  0  0
  -28.8675  -21.5969   21.0387 C   0  0  0  0  0  0
  -28.5816  -22.7264   20.2136 C   0  0  0  0  0  0
  -29.2911  -20.3798   20.4441 C   0  0  0  0  0  0
  -29.1177  -21.4035   18.3933 C   0  0  0  0  0  0
  -29.6009  -15.6982   23.8959 C   0  0  0  0  0  0
  -28.0835  -21.6654   15.9583 C   0  0  0  0  0  0
  -28.4776  -20.2281   16.1083 C   0  0  0  0  0  0
  -29.3773  -16.9922   23.1224 C   0  0  0  0  0  0
  -30.6051  -14.9529   23.0335 C   0  0  0  0  0  0
  -29.2376  -21.2970   16.8892 C   0  0  0  0  0  0
  -29.5627  -16.6571   21.6230 C   0  0  1  0  0  0
  -27.8570  -24.0231   20.7302 C   0  0  0  0  0  0
  -30.1507  -17.9135   20.8415 C   0  0  0  0  0  0
  -28.5929  -25.4155   20.9335 C   0  0  0  0  0  0
  -28.7353  -22.5920   18.8790 N   0  0  0  0  0  0
  -29.4227  -20.3122   19.1094 N   0  0  0  0  0  0
  -30.2988  -15.3416   21.6529 N   0  0  0  0  0  0
  -29.5055  -19.2080   21.2264 N   0  0  0  0  0  0
  -31.4744  -12.4299   19.1741 H   0  0  0  0  0  0
  -30.3056  -11.3367   19.8480 H   0  0  0  0  0  0
  -29.7685  -11.8083   17.4485 H   0  0  0  0  0  0
  -29.6898  -13.5198   17.7968 H   0  0  0  0  0  0
  -27.8200  -11.3413   18.7921 H   0  0  0  0  0  0
  -27.4023  -12.6904   17.7630 H   0  0  0  0  0  0
  -27.6927  -14.2798   19.5773 H   0  0  0  0  0  0
  -28.6772  -12.0154   21.3810 H   0  0  0  0  0  0
  -28.4109  -13.6598   21.8488 H   0  0  0  0  0  0
  -25.2775   -9.5746   22.4709 H   0  0  0  0  0  0
  -24.0046   -7.4703   22.7472 H   0  0  0  0  0  0
  -21.0879   -8.8795   19.8947 H   0  0  0  0  0  0
  -22.3734  -10.9671   19.6150 H   0  0  0  0  0  0
  -21.2016   -7.6132   23.9805 H   0  0  0  0  0  0
  -21.1475   -6.0504   25.9130 H   0  0  0  0  0  0
  -22.0577   -2.7639   23.2920 H   0  0  0  0  0  0
  -22.3943  -11.9869   22.4843 H   0  0  0  0  0  0
  -21.1027  -13.1253   22.2459 H   0  0  0  0  0  0
  -24.6486  -15.8486   20.5347 H   0  0  0  0  0  0
  -26.2653  -15.6543   20.1046 H   0  0  0  0  0  0
  -26.7180  -32.5504   23.1122 H   0  0  0  0  0  0
  -25.0076  -33.9706   25.0452 H   0  0  0  0  0  0
  -22.7164  -31.3054   21.3898 H   0  0  0  0  0  0
  -23.3772  -35.9598   23.3232 H   0  0  0  0  0  0
  -24.3580  -36.8982   22.2065 H   0  0  0  0  0  0
  -23.7151  -37.6459   23.6686 H   0  0  0  0  0  0
  -26.0685  -31.5504   20.5831 H   0  0  0  0  0  0
  -26.8454  -30.8688   21.9794 H   0  0  0  0  0  0
  -28.1302  -29.0248   21.1768 H   0  0  0  0  0  0
  -26.0642  -25.9301   19.0097 H   0  0  0  0  0  0
  -23.9942  -27.2825   19.0289 H   0  0  0  0  0  0
  -23.7762  -30.5805   19.4077 H   0  0  0  0  0  0
  -22.7589  -29.2444   19.8487 H   0  0  0  0  0  0
  -25.1213  -36.1959   25.0846 H   0  0  0  0  0  0
  -20.9900  -28.3363   24.1412 H   0  0  0  0  0  0
  -20.5673  -26.2383   23.3637 H   0  0  0  0  0  0
  -21.6639  -26.7538   22.1190 H   0  0  0  0  0  0
  -19.6964  -25.6340   21.1247 H   0  0  0  0  0  0
  -19.6694  -27.3234   20.6740 H   0  0  0  0  0  0
  -17.4175  -26.6672   21.4015 H   0  0  0  0  0  0
  -18.0329  -26.0125   22.9021 H   0  0  0  0  0  0
  -19.7924  -30.7238   24.2346 H   0  0  0  0  0  0
  -17.5030  -31.6298   24.5199 H   0  0  0  0  0  0
  -15.5348  -30.3079   23.7656 H   0  0  0  0  0  0
  -15.8641  -28.0920   22.7073 H   0  0  0  0  0  0
  -24.6014  -30.6859   25.7730 H   0  0  0  0  0  0
  -24.8864  -32.2722   26.4900 H   0  0  0  0  0  0
  -25.8145  -30.8770   27.0194 H   0  0  0  0  0  0
  -26.2909  -29.6701   24.1241 H   0  0  0  0  0  0
  -27.4181  -29.7276   25.4566 H   0  0  0  0  0  0
  -27.8702  -30.4297   23.9218 H   0  0  0  0  0  0
  -27.2845  -33.3572   26.2012 H   0  0  0  0  0  0
  -28.3934  -32.6712   25.0243 H   0  0  0  0  0  0
  -28.0790  -31.8338   26.5338 H   0  0  0  0  0  0
  -28.2503  -38.0159   24.7646 H   0  0  0  0  0  0
  -28.1160  -36.2712   24.6067 H   0  0  0  0  0  0
  -27.2337  -37.1139   25.8845 H   0  0  0  0  0  0
  -20.9418  -29.8841   21.6856 H   0  0  0  0  0  0
  -26.0150  -38.2867   24.1558 H   0  0  0  0  0  0
  -28.7066  -21.6481   22.1061 H   0  0  0  0  0  0
  -28.6793  -15.1173   23.9676 H   0  0  0  0  0  0
  -29.9671  -15.8679   24.9124 H   0  0  0  0  0  0
  -27.1321  -21.9621   16.3982 H   0  0  0  0  0  0
  -28.3199  -22.1299   15.0011 H   0  0  0  0  0  0
  -28.9484  -19.7734   15.2369 H   0  0  0  0  0  0
  -27.7858  -19.5836   16.6492 H   0  0  0  0  0  0
  -30.1370  -17.7092   23.4407 H   0  0  0  0  0  0
  -28.3976  -17.4279   23.3293 H   0  0  0  0  0  0
  -30.5426  -13.8766   23.2018 H   0  0  0  0  0  0
  -31.6235  -15.2654   23.2703 H   0  0  0  0  0  0
  -30.2492  -21.5497   16.5616 H   0  0  0  0  0  0
  -28.5787  -16.4268   21.2112 H   0  0  0  0  0  0
  -27.4723  -23.7478   21.7146 H   0  0  0  0  0  0
  -26.9630  -24.1773   20.1307 H   0  0  0  0  0  0
  -30.1006  -17.7549   19.7620 H   0  0  0  0  0  0
  -31.2097  -18.0059   21.0892 H   0  0  0  0  0  0
  -29.6663  -25.2314   20.9919 H   0  0  0  0  0  0
  -28.3421  -25.7735   21.9355 H   0  0  0  0  0  0
  -29.3423  -19.3194   22.2204 H   0  0  0  0  0  0
  1 25  1  0  0  0
  1 30  2  0  0  0
  1 87  1  0  0  0
  2  3  1  0  0  0
  2 25  1  0  0  0
  2 89  1  0  0  0
  2 90  1  0  0  0
  3  4  1  0  0  0
  3 91  1  0  0  0
  3 92  1  0  0  0
  4  5  1  0  0  0
  4 93  1  0  0  0
  4 94  1  0  0  0
  5  6  1  0  0  0
  5 26  1  0  0  0
  5 95  1  0  0  0
  6 25  1  0  0  0
  6 96  1  0  0  0
  6 97  1  0  0  0
  7  8  2  0  0  0
  7 26  1  0  0  0
  7 29  1  0  0  0
  8  9  1  0  0  0
  8 22  1  0  0  0
  9 10  1  0  0  0
  9 27  2  0  0  0
 10 11  2  0  0  0
 10 15  1  0  0  0
 11 12  1  0  0  0
 11 98  1  0  0  0
 12 13  2  0  0  0
 12 99  1  0  0  0
 13 14  1  0  0  0
 13 31  1  0  0  0
 14 15  2  0  0  0
 14100  1  0  0  0
 15101  1  0  0  0
 16 17  2  0  0  0
 16 21  1  0  0  0
 16 31  1  0  0  0
 17 18  1  0  0  0
 17102  1  0  0  0
 18 19  2  0  0  0
 18103  1  0  0  0
 19 20  1  0  0  0
 19 24  1  0  0  0
 20 21  2  0  0  0
 20104  1  0  0  0
 21 23  1  0  0  0
 22 28  1  0  0  0
 22 32  2  0  0  0
 26 27  1  0  0  0
 28105  1  0  0  0
 28106  1  0  0  0
 29107  1  0  0  0
 29108  1  0  0  0
 33 34  1  0  0  0
 33 66  1  0  0  0
 33 70  2  0  0  0
 34 36  1  0  0  0
 34 59  1  0  0  0
 34109  1  0  0  0
 35 44  2  0  0  0
 35 45  1  0  0  0
 35 68  1  0  0  0
 36 56  1  0  0  0
 36110  1  0  0  0
 37 39  1  0  0  0
 37 47  1  0  0  0
 37 66  1  0  0  0
 37111  1  0  0  0
 38 43  2  0  0  0
 38 46  1  0  0  0
 38 47  1  0  0  0
 39 64  1  0  0  0
 39 67  2  0  0  0
 40 52  1  0  0  0
 40 53  2  0  0  0
 40 58  1  0  0  0
 41112  1  0  0  0
 41113  1  0  0  0
 41114  1  0  0  0
 41 48  1  0  0  0
 42 43  1  0  0  0
 42 66  1  0  0  0
 42115  1  0  0  0
 42116  1  0  0  0
 43 44  1  0  0  0
 44117  1  0  0  0
 45 46  2  0  0  0
 45118  1  0  0  0
 46119  1  0  0  0
 47120  1  0  0  0
 47121  1  0  0  0
 48 56  1  0  0  0
 48 65  1  0  0  0
 48122  1  0  0  0
 49 50  1  0  0  0
 49 53  1  0  0  0
 49 64  1  0  0  0
 49123  1  0  0  0
 50 51  1  0  0  0
 50124  1  0  0  0
 50125  1  0  0  0
 51 52  1  0  0  0
 51126  1  0  0  0
 51127  1  0  0  0
 52128  1  0  0  0
 52129  1  0  0  0
 53 54  1  0  0  0
 54 55  2  0  0  0
 54130  1  0  0  0
 55 57  1  0  0  0
 55131  1  0  0  0
 56 69  2  0  0  0
 57 58  2  0  0  0
 57132  1  0  0  0
 58133  1  0  0  0
 59 60  1  0  0  0
 59 61  1  0  0  0
 59 62  1  0  0  0
 60134  1  0  0  0
 60135  1  0  0  0
 60136  1  0  0  0
 61137  1  0  0  0
 61138  1  0  0  0
 61139  1  0  0  0
 62140  1  0  0  0
 62141  1  0  0  0
 62142  1  0  0  0
 63 65  1  0  0  0
 63143  1  0  0  0
 63144  1  0  0  0
 63145  1  0  0  0
 64146  1  0  0  0
 65147  1  0  0  0
 68 84  1  0  0  0
 71 72  2  0  0  0
 71 73  1  0  0  0
 71148  1  0  0  0
 72 82  1  0  0  0
 72 85  1  0  0  0
 73 86  2  0  0  0
 73 88  1  0  0  0
 74 85  2  0  0  0
 74 86  1  0  0  0
 74 80  1  0  0  0
 75 78  1  0  0  0
 75 79  1  0  0  0
 75149  1  0  0  0
 75150  1  0  0  0
 76 77  1  0  0  0
 76 80  1  0  0  0
 76151  1  0  0  0
 76152  1  0  0  0
 77 80  1  0  0  0
 77153  1  0  0  0
 77154  1  0  0  0
 78 81  1  0  0  0
 78155  1  0  0  0
 78156  1  0  0  0
 79 87  1  0  0  0
 79157  1  0  0  0
 79158  1  0  0  0
 80159  1  0  0  0
 81 83  1  0  0  0
 81 87  1  0  0  0
 81160  1  0  0  0
 82 84  1  0  0  0
 82161  1  0  0  0
 82162  1  0  0  0
 83 88  1  0  0  0
 83163  1  0  0  0
 83164  1  0  0  0
 84165  1  0  0  0
 84166  1  0  0  0
 88167  1  0  0  0
M  ISO  4   1 100  68 101  84 101  87 100
M  END
> <chiral flag>
0

> <version>
0

> <s_m_source_file>
/data/baiqing/PycharmProjects/Reinvent-master-3.2/result/LINK_invent/BTK/process_docking_weight1_custom_sum_contain_oxygen_bond_distance_aromatic_linkinvent_7_9_3/rearranged_h_0140.sdf

> <i_m_source_file_index>
46

> <r_mmod_Potential_Energy-OPLS-2005>
-220.249404907227

> <r_mmod_Stretch_Energy-OPLS-2005>
72.8596725463867

> <r_mmod_Bend_Energy-OPLS-2005>
194.027526855469

> <r_mmod_Torsional_Energy-OPLS-2005>
391.734008789062

> <r_mmod_Improper_Torsional_Energy-OPLS-2005>
4.49452447891235

> <r_mmod_Van_der_Waal_Energy-OPLS-2005>
132.068756103516

> <r_mmod_Electrostatic_Energy-OPLS-2005>
-809.314453125

> <r_mmod_Solvation_Energy-OPLS-2005>
-231.210266113281

> <b_mmod_Minimization_Converged-OPLS-2005>
0

> <r_mmod_RMS_Derivative-OPLS-2005>
6.47628784179688

$$$$
46
                    3D
 Structure written by MMmdl.
157166  0  0  1  0            999 V2000
  -30.4601  -15.2799   20.3841 C   0  0  0  0  0  0
  -30.4310  -12.8277   19.5146 C   0  0  0  0  0  0
  -29.5276  -12.5767   18.2833 C   0  0  0  0  0  0
  -28.0833  -12.2908   18.7248 C   0  0  0  0  0  0
  -27.6081  -13.2767   19.8207 C   0  0  2  0  0  0
  -28.6436  -13.4783   20.9477 C   0  0  0  0  0  0
  -25.2385  -13.8251   20.5775 C   0  0  0  0  0  0
  -24.1736  -13.0439   20.9268 C   0  0  0  0  0  0
  -24.6392  -11.6936   20.8769 C   0  0  0  0  0  0
  -23.9088  -10.4293   21.0409 C   0  0  0  0  0  0
  -24.3633   -9.4207   21.9188 C   0  0  0  0  0  0
  -23.6301   -8.2246   22.0757 C   0  0  0  0  0  0
  -22.4284   -8.0282   21.3546 C   0  0  0  0  0  0
  -21.9923   -9.0257   20.4649 C   0  0  0  0  0  0
  -22.7258  -10.2133   20.3057 C   0  0  0  0  0  0
  -21.6857   -6.0734   22.5275 C   0  0  0  0  0  0
  -21.4019   -6.5640   23.8208 C   0  0  0  0  0  0
  -21.3657   -5.6793   24.9171 C   0  0  0  0  0  0
  -21.6041   -4.3055   24.7224 C   0  0  0  0  0  0
  -21.8820   -3.8146   23.4345 C   0  0  0  0  0  0
  -21.9196   -4.6962   22.3400 C   0  0  0  0  0  0
  -22.7753  -13.5190   21.1905 C   0  0  0  0  0  0
  -22.1664   -4.2146   21.0977 F   0  0  0  0  0  0
  -21.5625   -3.4538   25.7739 F   0  0  0  0  0  0
  -29.8657  -13.9868   20.3038 N   0  0  0  0  0  0
  -26.2809  -12.9527   20.3246 N   0  0  0  0  0  0
  -25.9332  -11.6631   20.5743 N   0  0  0  0  0  0
  -22.0409  -12.8170   22.0452 N   0  0  0  0  0  0
  -25.4028  -15.1987   20.4221 N   0  0  0  0  0  0
  -31.6829  -15.2297   20.1808 O   0  0  0  0  0  0
  -21.6645   -6.8880   21.4238 O   0  0  0  0  0  0
  -22.3436  -14.5492   20.6742 O   0  0  0  0  0  0
  -24.6632  -31.8223   23.1693 C   0  0  0  0  0  0
  -25.9311  -32.4579   23.8159 C   0  0  1  0  0  0
  -27.2159  -26.9194   20.1849 C   0  0  0  0  0  0
  -25.5973  -33.8393   24.2067 N   0  0  0  0  0  0
  -23.4776  -30.4327   21.5196 C   0  0  2  0  0  0
  -24.9303  -28.8173   20.1122 C   0  0  0  0  0  0
  -22.7665  -29.4425   22.4788 C   0  0  0  0  0  0
  -18.0319  -28.1396   22.8467 C   0  0  0  0  0  0
  -24.1496  -36.7204   23.2647 C   0  0  0  0  0  0
  -26.0472  -30.6259   21.4000 C   0  0  0  0  0  0
  -26.1150  -29.2149   20.7447 C   0  0  0  0  0  0
  -27.2526  -28.2880   20.7536 C   0  0  0  0  0  0
  -26.0024  -26.6743   19.5046 C   0  0  0  0  0  0
  -24.8999  -27.5679   19.4715 C   0  0  0  0  0  0
  -23.7172  -29.7469   20.1463 C   0  0  0  0  0  0
  -25.4138  -36.2964   24.0298 C   0  0  1  0  0  0
  -20.5944  -28.3742   23.1191 C   0  0  2  0  0  0
  -20.6796  -26.9423   22.5404 C   0  0  0  0  0  0
  -19.5773  -26.6372   21.5210 C   0  0  0  0  0  0
  -18.1953  -26.7931   22.1615 C   0  0  0  0  0  0
  -19.1581  -28.8891   23.2814 C   0  0  0  0  0  0
  -18.9491  -30.1479   23.8848 C   0  0  0  0  0  0
  -17.6485  -30.6589   24.0549 C   0  0  0  0  0  0
  -25.9101  -34.9343   23.5008 C   0  0  0  0  0  0
  -16.5374  -29.9075   23.6340 C   0  0  0  0  0  0
  -16.7302  -28.6492   23.0366 C   0  0  0  0  0  0
  -26.4565  -31.6525   25.0689 C   0  0  0  0  0  0
  -25.3687  -31.3767   26.1342 C   0  0  0  0  0  0
  -27.0472  -30.2891   24.6428 C   0  0  0  0  0  0
  -27.6053  -32.4343   25.7488 C   0  0  0  0  0  0
  -27.5576  -37.1756   24.8467 C   0  0  0  0  0  0
  -21.4335  -29.3031   22.3541 N   0  0  0  0  0  0
  -26.4285  -37.3699   23.9408 N   0  0  0  0  0  0
  -24.7508  -30.9877   22.0832 N   0  0  0  0  0  0
  -23.4211  -28.7992   23.3030 O   0  0  0  0  0  0
  -28.2195  -25.8142   20.2620 O   0  0  0  0  0  0
  -26.5719  -34.8882   22.4609 O   0  0  0  0  0  0
  -23.5702  -32.1200   23.6785 O   0  0  0  0  0  0
  -32.2576  -20.0446   21.5828 C   0  0  0  0  0  0
  -32.2228  -18.8173   22.2225 C   0  0  0  0  0  0
  -31.1369  -20.4496   20.8647 C   0  0  0  0  0  0
  -31.2007  -17.8962   21.9560 C   0  0  0  0  0  0
  -29.9848  -19.6553   20.6325 C   0  0  0  0  0  0
  -30.2241  -18.0913   20.9125 C   0  0  0  0  0  0
  -29.9661  -16.2262   23.6053 C   0  0  0  0  0  0
  -31.0178  -16.9606   24.3950 C   0  0  0  0  0  0
  -31.2190  -16.7244   22.9123 C   0  0  0  0  0  0
  -28.8166  -20.8771   20.2064 C   0  0  0  0  0  0
  -28.9877  -22.6966   20.3677 C   0  0  0  0  0  0
  -27.9748  -24.1801   20.1202 C   0  0  0  0  0  0
  -29.7587  -16.6041   20.4708 N   0  0  0  0  0  0
  -31.4471  -13.0275   19.1729 H   0  0  0  0  0  0
  -30.5042  -11.9318   20.1338 H   0  0  0  0  0  0
  -29.9120  -11.7462   17.6895 H   0  0  0  0  0  0
  -29.5450  -13.4537   17.6348 H   0  0  0  0  0  0
  -28.0568  -11.2732   19.1171 H   0  0  0  0  0  0
  -27.4078  -12.3074   17.8690 H   0  0  0  0  0  0
  -27.5150  -14.2352   19.3087 H   0  0  0  0  0  0
  -28.8233  -12.5565   21.5031 H   0  0  0  0  0  0
  -28.2809  -14.2125   21.6690 H   0  0  0  0  0  0
  -25.2771   -9.5683   22.4773 H   0  0  0  0  0  0
  -24.0002   -7.4639   22.7483 H   0  0  0  0  0  0
  -21.0853   -8.8783   19.8958 H   0  0  0  0  0  0
  -22.3713  -10.9676   19.6172 H   0  0  0  0  0  0
  -21.2015   -7.6151   23.9711 H   0  0  0  0  0  0
  -21.1475   -6.0524   25.9073 H   0  0  0  0  0  0
  -22.0601   -2.7609   23.2847 H   0  0  0  0  0  0
  -22.4037  -11.9832   22.4833 H   0  0  0  0  0  0
  -21.1025  -13.1184   22.2664 H   0  0  0  0  0  0
  -24.6354  -15.8508   20.5428 H   0  0  0  0  0  0
  -26.2490  -15.6416   20.0895 H   0  0  0  0  0  0
  -26.7376  -32.5113   23.0866 H   0  0  0  0  0  0
  -25.0061  -33.9466   25.0181 H   0  0  0  0  0  0
  -22.7907  -31.2643   21.3488 H   0  0  0  0  0  0
  -23.3769  -35.9522   23.3276 H   0  0  0  0  0  0
  -24.3572  -36.8888   22.2068 H   0  0  0  0  0  0
  -23.7245  -37.6379   23.6728 H   0  0  0  0  0  0
  -26.2291  -31.3659   20.6199 H   0  0  0  0  0  0
  -26.9060  -30.6822   22.0568 H   0  0  0  0  0  0
  -28.1500  -28.5912   21.2741 H   0  0  0  0  0  0
  -25.8730  -25.7192   19.0168 H   0  0  0  0  0  0
  -23.9994  -27.2582   18.9593 H   0  0  0  0  0  0
  -23.8735  -30.5150   19.3883 H   0  0  0  0  0  0
  -22.8263  -29.2024   19.8294 H   0  0  0  0  0  0
  -25.1335  -36.1757   25.0789 H   0  0  0  0  0  0
  -21.0029  -28.3344   24.1316 H   0  0  0  0  0  0
  -20.5674  -26.2353   23.3639 H   0  0  0  0  0  0
  -21.6659  -26.7399   22.1209 H   0  0  0  0  0  0
  -19.6933  -25.6274   21.1265 H   0  0  0  0  0  0
  -19.6714  -27.3158   20.6719 H   0  0  0  0  0  0
  -17.4226  -26.6677   21.4014 H   0  0  0  0  0  0
  -18.0343  -26.0075   22.9013 H   0  0  0  0  0  0
  -19.7967  -30.7307   24.2198 H   0  0  0  0  0  0
  -17.5036  -31.6265   24.5158 H   0  0  0  0  0  0
  -15.5373  -30.2959   23.7695 H   0  0  0  0  0  0
  -15.8701  -28.0794   22.7115 H   0  0  0  0  0  0
  -24.5892  -30.7096   25.7645 H   0  0  0  0  0  0
  -24.8849  -32.2960   26.4645 H   0  0  0  0  0  0
  -25.7912  -30.9014   27.0203 H   0  0  0  0  0  0
  -26.3146  -29.6548   24.1424 H   0  0  0  0  0  0
  -27.3997  -29.7270   25.5087 H   0  0  0  0  0  0
  -27.9085  -30.4075   23.9849 H   0  0  0  0  0  0
  -27.2624  -33.3697   26.1924 H   0  0  0  0  0  0
  -28.3928  -32.6820   25.0358 H   0  0  0  0  0  0
  -28.0648  -31.8564   26.5519 H   0  0  0  0  0  0
  -28.2566  -38.0076   24.7523 H   0  0  0  0  0  0
  -28.1099  -36.2601   24.6285 H   0  0  0  0  0  0
  -27.2290  -37.1389   25.8868 H   0  0  0  0  0  0
  -20.9588  -29.8720   21.6670 H   0  0  0  0  0  0
  -26.0131  -38.2756   24.1414 H   0  0  0  0  0  0
  -33.0716  -20.7342   21.7615 H   0  0  0  0  0  0
  -32.9953  -18.5795   22.9413 H   0  0  0  0  0  0
  -31.1728  -21.4769   20.5472 H   0  0  0  0  0  0
  -29.0323  -16.7481   23.4053 H   0  0  0  0  0  0
  -29.8744  -15.1564   23.7826 H   0  0  0  0  0  0
  -31.6097  -16.3698   25.0916 H   0  0  0  0  0  0
  -30.7766  -17.9694   24.7256 H   0  0  0  0  0  0
  -32.0039  -16.0141   22.6584 H   0  0  0  0  0  0
  -27.9192  -20.6038   20.7618 H   0  0  0  0  0  0
  -28.5612  -20.6779   19.1654 H   0  0  0  0  0  0
  -29.8513  -22.9285   19.7461 H   0  0  0  0  0  0
  -29.3448  -22.8216   21.3900 H   0  0  0  0  0  0
  -27.0956  -24.0098   20.7421 H   0  0  0  0  0  0
  -27.5984  -24.0747   19.1028 H   0  0  0  0  0  0
  -28.7674  -16.5260   20.2993 H   0  0  0  0  0  0
  1 25  1  0  0  0
  1 30  2  0  0  0
  1 83  1  0  0  0
  2  3  1  0  0  0
  2 25  1  0  0  0
  2 84  1  0  0  0
  2 85  1  0  0  0
  3  4  1  0  0  0
  3 86  1  0  0  0
  3 87  1  0  0  0
  4  5  1  0  0  0
  4 88  1  0  0  0
  4 89  1  0  0  0
  5  6  1  0  0  0
  5 26  1  0  0  0
  5 90  1  0  0  0
  6 25  1  0  0  0
  6 91  1  0  0  0
  6 92  1  0  0  0
  7  8  2  0  0  0
  7 26  1  0  0  0
  7 29  1  0  0  0
  8  9  1  0  0  0
  8 22  1  0  0  0
  9 10  1  0  0  0
  9 27  2  0  0  0
 10 11  2  0  0  0
 10 15  1  0  0  0
 11 12  1  0  0  0
 11 93  1  0  0  0
 12 13  2  0  0  0
 12 94  1  0  0  0
 13 14  1  0  0  0
 13 31  1  0  0  0
 14 15  2  0  0  0
 14 95  1  0  0  0
 15 96  1  0  0  0
 16 17  2  0  0  0
 16 21  1  0  0  0
 16 31  1  0  0  0
 17 18  1  0  0  0
 17 97  1  0  0  0
 18 19  2  0  0  0
 18 98  1  0  0  0
 19 20  1  0  0  0
 19 24  1  0  0  0
 20 21  2  0  0  0
 20 99  1  0  0  0
 21 23  1  0  0  0
 22 28  1  0  0  0
 22 32  2  0  0  0
 26 27  1  0  0  0
 28100  1  0  0  0
 28101  1  0  0  0
 29102  1  0  0  0
 29103  1  0  0  0
 33 34  1  0  0  0
 33 66  1  0  0  0
 33 70  2  0  0  0
 34 36  1  0  0  0
 34 59  1  0  0  0
 34104  1  0  0  0
 35 44  2  0  0  0
 35 45  1  0  0  0
 35 68  1  0  0  0
 36 56  1  0  0  0
 36105  1  0  0  0
 37 39  1  0  0  0
 37 47  1  0  0  0
 37 66  1  0  0  0
 37106  1  0  0  0
 38 43  2  0  0  0
 38 46  1  0  0  0
 38 47  1  0  0  0
 39 64  1  0  0  0
 39 67  2  0  0  0
 40 52  1  0  0  0
 40 53  2  0  0  0
 40 58  1  0  0  0
 41107  1  0  0  0
 41108  1  0  0  0
 41109  1  0  0  0
 41 48  1  0  0  0
 42 43  1  0  0  0
 42 66  1  0  0  0
 42110  1  0  0  0
 42111  1  0  0  0
 43 44  1  0  0  0
 44112  1  0  0  0
 45 46  2  0  0  0
 45113  1  0  0  0
 46114  1  0  0  0
 47115  1  0  0  0
 47116  1  0  0  0
 48 56  1  0  0  0
 48 65  1  0  0  0
 48117  1  0  0  0
 49 50  1  0  0  0
 49 53  1  0  0  0
 49 64  1  0  0  0
 49118  1  0  0  0
 50 51  1  0  0  0
 50119  1  0  0  0
 50120  1  0  0  0
 51 52  1  0  0  0
 51121  1  0  0  0
 51122  1  0  0  0
 52123  1  0  0  0
 52124  1  0  0  0
 53 54  1  0  0  0
 54 55  2  0  0  0
 54125  1  0  0  0
 55 57  1  0  0  0
 55126  1  0  0  0
 56 69  2  0  0  0
 57 58  2  0  0  0
 57127  1  0  0  0
 58128  1  0  0  0
 59 60  1  0  0  0
 59 61  1  0  0  0
 59 62  1  0  0  0
 60129  1  0  0  0
 60130  1  0  0  0
 60131  1  0  0  0
 61132  1  0  0  0
 61133  1  0  0  0
 61134  1  0  0  0
 62135  1  0  0  0
 62136  1  0  0  0
 62137  1  0  0  0
 63 65  1  0  0  0
 63138  1  0  0  0
 63139  1  0  0  0
 63140  1  0  0  0
 64141  1  0  0  0
 65142  1  0  0  0
 68 82  1  0  0  0
 71 72  2  0  0  0
 71 73  1  0  0  0
 71143  1  0  0  0
 72 74  1  0  0  0
 72144  1  0  0  0
 73 75  2  0  0  0
 73145  1  0  0  0
 74 76  2  0  0  0
 74 79  1  0  0  0
 75 76  1  0  0  0
 75 80  1  0  0  0
 76 83  1  0  0  0
 77 78  1  0  0  0
 77 79  1  0  0  0
 77146  1  0  0  0
 77147  1  0  0  0
 78 79  1  0  0  0
 78148  1  0  0  0
 78149  1  0  0  0
 79150  1  0  0  0
 80 81  1  0  0  0
 80151  1  0  0  0
 80152  1  0  0  0
 81 82  1  0  0  0
 81153  1  0  0  0
 81154  1  0  0  0
 82155  1  0  0  0
 82156  1  0  0  0
 83157  1  0  0  0
M  ISO  4   1 100  68 101  82 101  83 100
M  END
> <chiral flag>
0

> <version>
0

> <s_m_source_file>
/data/baiqing/PycharmProjects/Reinvent-master-3.2/result/LINK_invent/BTK/process_docking_weight1_custom_sum_contain_oxygen_bond_distance_aromatic_linkinvent_7_9_3/rearranged_h_0140.sdf

> <i_m_source_file_index>
47

> <r_mmod_Potential_Energy-OPLS-2005>
1579.23803710938

> <r_mmod_Stretch_Energy-OPLS-2005>
679.616333007812

> <r_mmod_Bend_Energy-OPLS-2005>
522.446411132812

> <r_mmod_Torsional_Energy-OPLS-2005>
334.313720703125

> <r_mmod_Improper_Torsional_Energy-OPLS-2005>
4.95330238342285

> <r_mmod_Van_der_Waal_Energy-OPLS-2005>
142.576171875

> <r_mmod_Electrostatic_Energy-OPLS-2005>
-367.201263427734

> <r_mmod_Solvation_Energy-OPLS-2005>
-207.438995361328

> <b_mmod_Minimization_Converged-OPLS-2005>
0

> <r_mmod_RMS_Derivative-OPLS-2005>
0.708007335662842

$$$$
47
                    3D
 Structure written by MMmdl.
177186  0  0  1  0            999 V2000
  -30.7732  -14.3320   20.7173 C   0  0  0  0  0  0
  -30.4203  -12.2850   19.3834 C   0  0  0  0  0  0
  -29.4839  -12.5322   18.1868 C   0  0  0  0  0  0
  -28.0083  -12.3838   18.6026 C   0  0  0  0  0  0
  -27.6679  -13.1990   19.8770 C   0  0  2  0  0  0
  -28.7019  -12.9211   20.9888 C   0  0  0  0  0  0
  -25.2608  -13.8155   20.5642 C   0  0  0  0  0  0
  -24.1858  -13.0444   20.9168 C   0  0  0  0  0  0
  -24.6397  -11.6908   20.8726 C   0  0  0  0  0  0
  -23.9057  -10.4299   21.0401 C   0  0  0  0  0  0
  -24.3612   -9.4215   21.9178 C   0  0  0  0  0  0
  -23.6293   -8.2247   22.0748 C   0  0  0  0  0  0
  -22.4276   -8.0280   21.3542 C   0  0  0  0  0  0
  -21.9907   -9.0251   20.4644 C   0  0  0  0  0  0
  -22.7229  -10.2134   20.3050 C   0  0  0  0  0  0
  -21.6858   -6.0736   22.5282 C   0  0  0  0  0  0
  -21.4014   -6.5640   23.8215 C   0  0  0  0  0  0
  -21.3660   -5.6788   24.9179 C   0  0  0  0  0  0
  -21.6044   -4.3052   24.7225 C   0  0  0  0  0  0
  -21.8820   -3.8147   23.4347 C   0  0  0  0  0  0
  -21.9196   -4.6964   22.3406 C   0  0  0  0  0  0
  -22.7884  -13.5244   21.1854 C   0  0  0  0  0  0
  -22.1664   -4.2150   21.0981 F   0  0  0  0  0  0
  -21.5630   -3.4534   25.7738 F   0  0  0  0  0  0
  -30.0538  -13.2096   20.4645 N   0  0  0  0  0  0
  -26.3044  -12.9311   20.3345 N   0  0  0  0  0  0
  -25.9314  -11.6478   20.5734 N   0  0  0  0  0  0
  -22.0534  -12.8219   22.0409 N   0  0  0  0  0  0
  -25.4317  -15.1862   20.3995 N   0  0  0  0  0  0
  -31.7568  -14.6708   20.0503 O   0  0  0  0  0  0
  -21.6642   -6.8875   21.4240 O   0  0  0  0  0  0
  -22.3562  -14.5552   20.6723 O   0  0  0  0  0  0
  -24.6109  -31.8707   23.2129 C   0  0  0  0  0  0
  -25.9025  -32.4840   23.8401 C   0  0  1  0  0  0
  -27.2367  -27.4815   20.0750 C   0  0  0  0  0  0
  -25.5901  -33.8634   24.2347 N   0  0  0  0  0  0
  -23.3949  -30.4950   21.5538 C   0  0  2  0  0  0
  -24.8375  -28.9601   20.1176 C   0  0  0  0  0  0
  -22.7383  -29.4686   22.5032 C   0  0  0  0  0  0
  -18.0270  -28.1385   22.8503 C   0  0  0  0  0  0
  -24.1487  -36.7307   23.2636 C   0  0  0  0  0  0
  -25.9175  -30.8507   21.3548 C   0  0  0  0  0  0
  -25.9963  -29.4877   20.7026 C   0  0  0  0  0  0
  -27.1982  -28.7561   20.6749 C   0  0  0  0  0  0
  -26.0619  -26.9505   19.4972 C   0  0  0  0  0  0
  -24.8633  -27.6893   19.5163 C   0  0  0  0  0  0
  -23.5980  -29.8224   20.1693 C   0  0  0  0  0  0
  -25.4116  -36.3127   24.0343 C   0  0  1  0  0  0
  -20.5857  -28.3659   23.1343 C   0  0  2  0  0  0
  -20.6777  -26.9406   22.5418 C   0  0  0  0  0  0
  -19.5761  -26.6395   21.5213 C   0  0  0  0  0  0
  -18.1935  -26.7940   22.1614 C   0  0  0  0  0  0
  -19.1519  -28.8835   23.2923 C   0  0  0  0  0  0
  -18.9449  -30.1443   23.8919 C   0  0  0  0  0  0
  -17.6461  -30.6588   24.0578 C   0  0  0  0  0  0
  -25.9022  -34.9485   23.5136 C   0  0  0  0  0  0
  -16.5350  -29.9103   23.6338 C   0  0  0  0  0  0
  -16.7262  -28.6525   23.0346 C   0  0  0  0  0  0
  -26.4472  -31.6599   25.0706 C   0  0  0  0  0  0
  -25.3747  -31.3705   26.1454 C   0  0  0  0  0  0
  -27.0293  -30.3056   24.6035 C   0  0  0  0  0  0
  -27.6053  -32.4307   25.7468 C   0  0  0  0  0  0
  -27.5591  -37.1816   24.8477 C   0  0  0  0  0  0
  -21.4116  -29.3030   22.3749 N   0  0  0  0  0  0
  -26.4308  -37.3803   23.9408 N   0  0  0  0  0  0
  -24.6594  -31.0855   22.1004 N   0  0  0  0  0  0
  -23.4183  -28.8234   23.3058 O   0  0  0  0  0  0
  -28.4356  -26.8192   20.0382 O   0  0  0  0  0  0
  -26.5574  -34.8937   22.4691 O   0  0  0  0  0  0
  -23.5321  -32.1445   23.7563 O   0  0  0  0  0  0
  -31.6831  -17.1065   21.8206 C   0  0  0  0  0  0
  -31.7866  -18.4378   22.2619 C   0  0  0  0  0  0
  -29.7574  -18.1595   23.5803 C   0  0  0  0  0  0
  -30.5919  -16.3078   22.2346 C   0  0  0  0  0  0
  -30.8151  -18.9703   23.1357 C   0  0  0  0  0  0
  -29.6236  -16.8295   23.1191 C   0  0  0  0  0  0
  -31.1864  -22.5967   23.3215 C   0  0  0  0  0  0
  -29.6151  -21.3635   21.8054 C   0  0  0  0  0  0
  -31.1614  -23.7788   22.3419 C   0  0  0  0  0  0
  -29.6152  -22.5698   20.8502 C   0  0  0  0  0  0
  -30.9370  -21.2740   22.5930 C   0  0  2  0  0  0
  -23.8987  -15.1683   24.8295 C   0  0  0  0  0  0
  -25.0888  -16.1294   24.8894 C   0  0  0  0  0  0
  -26.3412  -15.5582   24.2098 C   0  0  0  0  0  0
  -29.8281  -25.0403   20.7101 C   0  0  0  0  0  0
  -27.4817  -16.5763   24.1670 C   0  0  0  0  0  0
  -28.4068  -25.4184   20.2677 C   0  0  0  0  0  0
  -30.3864  -14.9679   21.8293 N   0  0  0  0  0  0
  -29.8846  -23.8379   21.5803 N   0  3  2  0  0  0
  -30.8579  -20.2630   23.5903 O   0  0  0  0  0  0
  -28.5792  -15.9995   23.4742 O   0  0  0  0  0  0
  -31.4623  -12.3965   19.0776 H   0  0  0  0  0  0
  -30.3259  -11.2569   19.7352 H   0  0  0  0  0  0
  -29.7170  -11.8372   17.3787 H   0  0  0  0  0  0
  -29.6538  -13.5332   17.7873 H   0  0  0  0  0  0
  -27.8142  -11.3246   18.7751 H   0  0  0  0  0  0
  -27.3558  -12.6810   17.7813 H   0  0  0  0  0  0
  -27.7314  -14.2551   19.6146 H   0  0  0  0  0  0
  -28.6561  -11.8736   21.2902 H   0  0  0  0  0  0
  -28.4336  -13.4852   21.8821 H   0  0  0  0  0  0
  -25.2763   -9.5697   22.4740 H   0  0  0  0  0  0
  -24.0018   -7.4636   22.7458 H   0  0  0  0  0  0
  -21.0842   -8.8762   19.8938 H   0  0  0  0  0  0
  -22.3691  -10.9668   19.6150 H   0  0  0  0  0  0
  -21.2000   -7.6147   23.9721 H   0  0  0  0  0  0
  -21.1480   -6.0517   25.9080 H   0  0  0  0  0  0
  -22.0597   -2.7606   23.2846 H   0  0  0  0  0  0
  -22.4149  -11.9864   22.4764 H   0  0  0  0  0  0
  -21.1141  -13.1220   22.2608 H   0  0  0  0  0  0
  -24.6652  -15.8411   20.5052 H   0  0  0  0  0  0
  -26.2904  -15.6256   20.0929 H   0  0  0  0  0  0
  -26.7093  -32.5552   23.1165 H   0  0  0  0  0  0
  -25.0121  -33.9806   25.0541 H   0  0  0  0  0  0
  -22.6830  -31.3109   21.4164 H   0  0  0  0  0  0
  -23.3751  -35.9633   23.3316 H   0  0  0  0  0  0
  -24.3593  -36.8888   22.2046 H   0  0  0  0  0  0
  -23.7236  -37.6524   23.6624 H   0  0  0  0  0  0
  -26.0214  -31.6188   20.5874 H   0  0  0  0  0  0
  -26.8091  -30.9049   21.9672 H   0  0  0  0  0  0
  -28.0980  -29.1704   21.1091 H   0  0  0  0  0  0
  -26.0663  -25.9858   19.0107 H   0  0  0  0  0  0
  -23.9714  -27.2796   19.0615 H   0  0  0  0  0  0
  -23.6985  -30.5943   19.4059 H   0  0  0  0  0  0
  -22.7231  -29.2361   19.8815 H   0  0  0  0  0  0
  -25.1296  -36.1989   25.0841 H   0  0  0  0  0  0
  -20.9940  -28.3195   24.1469 H   0  0  0  0  0  0
  -20.5726  -26.2247   23.3578 H   0  0  0  0  0  0
  -21.6646  -26.7494   22.1173 H   0  0  0  0  0  0
  -19.6941  -25.6317   21.1216 H   0  0  0  0  0  0
  -19.6717  -27.3229   20.6762 H   0  0  0  0  0  0
  -17.4221  -26.6690   21.3998 H   0  0  0  0  0  0
  -18.0324  -26.0081   22.8999 H   0  0  0  0  0  0
  -19.7928  -30.7255   24.2285 H   0  0  0  0  0  0
  -17.5026  -31.6276   24.5170 H   0  0  0  0  0  0
  -15.5358  -30.3021   23.7663 H   0  0  0  0  0  0
  -15.8651  -28.0864   22.7041 H   0  0  0  0  0  0
  -24.5910  -30.7072   25.7787 H   0  0  0  0  0  0
  -24.8949  -32.2858   26.4916 H   0  0  0  0  0  0
  -25.8093  -30.8860   27.0197 H   0  0  0  0  0  0
  -26.2821  -29.6825   24.1112 H   0  0  0  0  0  0
  -27.4124  -29.7294   25.4462 H   0  0  0  0  0  0
  -27.8620  -30.4415   23.9135 H   0  0  0  0  0  0
  -27.2680  -33.3598   26.2076 H   0  0  0  0  0  0
  -28.3839  -32.6870   25.0271 H   0  0  0  0  0  0
  -28.0734  -31.8405   26.5357 H   0  0  0  0  0  0
  -28.2604  -38.0112   24.7507 H   0  0  0  0  0  0
  -28.1076  -36.2639   24.6306 H   0  0  0  0  0  0
  -27.2299  -37.1461   25.8876 H   0  0  0  0  0  0
  -20.9275  -29.8722   21.6947 H   0  0  0  0  0  0
  -26.0194  -38.2883   24.1405 H   0  0  0  0  0  0
  -32.4512  -16.7230   21.1650 H   0  0  0  0  0  0
  -32.6285  -19.0325   21.9362 H   0  0  0  0  0  0
  -29.0437  -18.5964   24.2614 H   0  0  0  0  0  0
  -30.4370  -22.7453   24.0997 H   0  0  0  0  0  0
  -32.1505  -22.5613   23.8291 H   0  0  0  0  0  0
  -29.4511  -20.4515   21.2312 H   0  0  0  0  0  0
  -28.7756  -21.4441   22.4976 H   0  0  0  0  0  0
  -32.0012  -23.7016   21.6492 H   0  0  0  0  0  0
  -31.3033  -24.7024   22.9040 H   0  0  0  0  0  0
  -28.6529  -22.6231   20.3392 H   0  0  0  0  0  0
  -30.3705  -22.4257   20.0750 H   0  0  0  0  0  0
  -31.7662  -21.0928   21.9080 H   0  0  0  0  0  0
  -23.0252  -15.6036   25.3155 H   0  0  0  0  0  0
  -24.1253  -14.2263   25.3303 H   0  0  0  0  0  0
  -23.6268  -14.9452   23.7975 H   0  0  0  0  0  0
  -25.3128  -16.3700   25.9302 H   0  0  0  0  0  0
  -24.8110  -17.0706   24.4116 H   0  0  0  0  0  0
  -26.1012  -15.2555   23.1898 H   0  0  0  0  0  0
  -26.6728  -14.6585   24.7296 H   0  0  0  0  0  0
  -30.2210  -25.8813   21.2837 H   0  0  0  0  0  0
  -30.4843  -24.9323   19.8459 H   0  0  0  0  0  0
  -27.7791  -16.8537   25.1795 H   0  0  0  0  0  0
  -27.1357  -17.4758   23.6543 H   0  0  0  0  0  0
  -27.6834  -25.1861   21.0516 H   0  0  0  0  0  0
  -28.1205  -24.8790   19.3641 H   0  0  0  0  0  0
  -29.6282  -14.5120   22.3151 H   0  0  0  0  0  0
  -29.1525  -23.9487   22.2679 H   0  0  0  0  0  0
  1 25  1  0  0  0
  1 30  2  0  0  0
  1 88  1  0  0  0
  2  3  1  0  0  0
  2 25  1  0  0  0
  2 92  1  0  0  0
  2 93  1  0  0  0
  3  4  1  0  0  0
  3 94  1  0  0  0
  3 95  1  0  0  0
  4  5  1  0  0  0
  4 96  1  0  0  0
  4 97  1  0  0  0
  5  6  1  0  0  0
  5 26  1  0  0  0
  5 98  1  0  0  0
  6 25  1  0  0  0
  6 99  1  0  0  0
  6100  1  0  0  0
  7  8  2  0  0  0
  7 26  1  0  0  0
  7 29  1  0  0  0
  8  9  1  0  0  0
  8 22  1  0  0  0
  9 10  1  0  0  0
  9 27  2  0  0  0
 10 11  2  0  0  0
 10 15  1  0  0  0
 11 12  1  0  0  0
 11101  1  0  0  0
 12 13  2  0  0  0
 12102  1  0  0  0
 13 14  1  0  0  0
 13 31  1  0  0  0
 14 15  2  0  0  0
 14103  1  0  0  0
 15104  1  0  0  0
 16 17  2  0  0  0
 16 21  1  0  0  0
 16 31  1  0  0  0
 17 18  1  0  0  0
 17105  1  0  0  0
 18 19  2  0  0  0
 18106  1  0  0  0
 19 20  1  0  0  0
 19 24  1  0  0  0
 20 21  2  0  0  0
 20107  1  0  0  0
 21 23  1  0  0  0
 22 28  1  0  0  0
 22 32  2  0  0  0
 26 27  1  0  0  0
 28108  1  0  0  0
 28109  1  0  0  0
 29110  1  0  0  0
 29111  1  0  0  0
 33 34  1  0  0  0
 33 66  1  0  0  0
 33 70  2  0  0  0
 34 36  1  0  0  0
 34 59  1  0  0  0
 34112  1  0  0  0
 35 44  2  0  0  0
 35 45  1  0  0  0
 35 68  1  0  0  0
 36 56  1  0  0  0
 36113  1  0  0  0
 37 39  1  0  0  0
 37 47  1  0  0  0
 37 66  1  0  0  0
 37114  1  0  0  0
 38 43  2  0  0  0
 38 46  1  0  0  0
 38 47  1  0  0  0
 39 64  1  0  0  0
 39 67  2  0  0  0
 40 52  1  0  0  0
 40 53  2  0  0  0
 40 58  1  0  0  0
 41115  1  0  0  0
 41116  1  0  0  0
 41117  1  0  0  0
 41 48  1  0  0  0
 42 43  1  0  0  0
 42 66  1  0  0  0
 42118  1  0  0  0
 42119  1  0  0  0
 43 44  1  0  0  0
 44120  1  0  0  0
 45 46  2  0  0  0
 45121  1  0  0  0
 46122  1  0  0  0
 47123  1  0  0  0
 47124  1  0  0  0
 48 56  1  0  0  0
 48 65  1  0  0  0
 48125  1  0  0  0
 49 50  1  0  0  0
 49 53  1  0  0  0
 49 64  1  0  0  0
 49126  1  0  0  0
 50 51  1  0  0  0
 50127  1  0  0  0
 50128  1  0  0  0
 51 52  1  0  0  0
 51129  1  0  0  0
 51130  1  0  0  0
 52131  1  0  0  0
 52132  1  0  0  0
 53 54  1  0  0  0
 54 55  2  0  0  0
 54133  1  0  0  0
 55 57  1  0  0  0
 55134  1  0  0  0
 56 69  2  0  0  0
 57 58  2  0  0  0
 57135  1  0  0  0
 58136  1  0  0  0
 59 60  1  0  0  0
 59 61  1  0  0  0
 59 62  1  0  0  0
 60137  1  0  0  0
 60138  1  0  0  0
 60139  1  0  0  0
 61140  1  0  0  0
 61141  1  0  0  0
 61142  1  0  0  0
 62143  1  0  0  0
 62144  1  0  0  0
 62145  1  0  0  0
 63 65  1  0  0  0
 63146  1  0  0  0
 63147  1  0  0  0
 63148  1  0  0  0
 64149  1  0  0  0
 65150  1  0  0  0
 68 87  1  0  0  0
 71 72  2  0  0  0
 71 74  1  0  0  0
 71151  1  0  0  0
 72 75  1  0  0  0
 72152  1  0  0  0
 73 75  2  0  0  0
 73 76  1  0  0  0
 73153  1  0  0  0
 74 76  2  0  0  0
 74 88  1  0  0  0
 75 90  1  0  0  0
 76 91  1  0  0  0
 77 79  1  0  0  0
 77 81  1  0  0  0
 77154  1  0  0  0
 77155  1  0  0  0
 78 80  1  0  0  0
 78 81  1  0  0  0
 78156  1  0  0  0
 78157  1  0  0  0
 79 89  1  0  0  0
 79158  1  0  0  0
 79159  1  0  0  0
 80 89  1  0  0  0
 80160  1  0  0  0
 80161  1  0  0  0
 81 90  1  0  0  0
 81162  1  0  0  0
 82 83  1  0  0  0
 82163  1  0  0  0
 82164  1  0  0  0
 82165  1  0  0  0
 83 84  1  0  0  0
 83166  1  0  0  0
 83167  1  0  0  0
 84 86  1  0  0  0
 84168  1  0  0  0
 84169  1  0  0  0
 85 87  1  0  0  0
 85170  1  0  0  0
 85171  1  0  0  0
 85 89  1  0  0  0
 86 91  1  0  0  0
 86172  1  0  0  0
 86173  1  0  0  0
 87174  1  0  0  0
 87175  1  0  0  0
 88176  1  0  0  0
 89177  1  0  0  0
M  CHG  1  89   1
M  ISO  4   1 100  68 101  87 101  88 100
M  END
> <chiral flag>
0

> <version>
0

> <s_m_source_file>
/data/baiqing/PycharmProjects/Reinvent-master-3.2/result/LINK_invent/BTK/process_docking_weight1_custom_sum_contain_oxygen_bond_distance_aromatic_linkinvent_7_9_3/rearranged_h_0140.sdf

> <i_m_source_file_index>
48

> <r_mmod_Potential_Energy-OPLS-2005>
-159.813949584961

> <r_mmod_Stretch_Energy-OPLS-2005>
32.3807640075684

> <r_mmod_Bend_Energy-OPLS-2005>
109.417045593262

> <r_mmod_Torsional_Energy-OPLS-2005>
267.231719970703

> <r_mmod_Improper_Torsional_Energy-OPLS-2005>
3.53895926475525

> <r_mmod_Van_der_Waal_Energy-OPLS-2005>
161.636779785156

> <r_mmod_Electrostatic_Energy-OPLS-2005>
-315.664794921875

> <r_mmod_Solvation_Energy-OPLS-2005>
-426.029083251953

> <b_mmod_Minimization_Converged-OPLS-2005>
0

> <r_mmod_RMS_Derivative-OPLS-2005>
1.9609352350235

$$$$
48
                    3D
 Structure written by MMmdl.
159168  0  0  1  0            999 V2000
  -30.6013  -14.6944   20.5147 C   0  0  0  0  0  0
  -30.4369  -12.4234   19.4644 C   0  0  0  0  0  0
  -29.5097  -12.4966   18.2318 C   0  0  0  0  0  0
  -28.0375  -12.3183   18.6550 C   0  0  0  0  0  0
  -27.6493  -13.2194   19.8566 C   0  0  2  0  0  0
  -28.6900  -13.1192   20.9928 C   0  0  0  0  0  0
  -25.2579  -13.8177   20.5684 C   0  0  0  0  0  0
  -24.1860  -13.0479   20.9199 C   0  0  0  0  0  0
  -24.6399  -11.6934   20.8759 C   0  0  0  0  0  0
  -23.9109  -10.4316   21.0422 C   0  0  0  0  0  0
  -24.3665   -9.4216   21.9184 C   0  0  0  0  0  0
  -23.6320   -8.2276   22.0768 C   0  0  0  0  0  0
  -22.4301   -8.0317   21.3550 C   0  0  0  0  0  0
  -21.9948   -9.0305   20.4662 C   0  0  0  0  0  0
  -22.7293  -10.2166   20.3064 C   0  0  0  0  0  0
  -21.6835   -6.0792   22.5309 C   0  0  0  0  0  0
  -21.3983   -6.5682   23.8249 C   0  0  0  0  0  0
  -21.3654   -5.6820   24.9209 C   0  0  0  0  0  0
  -21.6049   -4.3087   24.7233 C   0  0  0  0  0  0
  -21.8801   -3.8194   23.4342 C   0  0  0  0  0  0
  -21.9178   -4.7027   22.3412 C   0  0  0  0  0  0
  -22.7882  -13.5266   21.1861 C   0  0  0  0  0  0
  -22.1656   -4.2209   21.0987 F   0  0  0  0  0  0
  -21.5636   -3.4560   25.7742 F   0  0  0  0  0  0
  -29.9947  -13.4665   20.4192 N   0  0  0  0  0  0
  -26.2994  -12.9379   20.3302 N   0  0  0  0  0  0
  -25.9319  -11.6542   20.5789 N   0  0  0  0  0  0
  -22.0538  -12.8269   22.0395 N   0  0  0  0  0  0
  -25.4303  -15.1925   20.4082 N   0  0  0  0  0  0
  -31.7764  -14.8454   20.1736 O   0  0  0  0  0  0
  -21.6632   -6.8927   21.4266 O   0  0  0  0  0  0
  -22.3558  -14.5570   20.6703 O   0  0  0  0  0  0
  -24.6301  -31.8571   23.1961 C   0  0  0  0  0  0
  -25.9127  -32.4775   23.8328 C   0  0  1  0  0  0
  -27.2227  -27.2876   20.1512 C   0  0  0  0  0  0
  -25.5935  -33.8589   24.2248 N   0  0  0  0  0  0
  -23.4258  -30.4773   21.5372 C   0  0  2  0  0  0
  -24.8777  -28.9178   20.1125 C   0  0  0  0  0  0
  -22.7491  -29.4617   22.4902 C   0  0  0  0  0  0
  -18.0300  -28.1375   22.8477 C   0  0  0  0  0  0
  -24.1488  -36.7294   23.2633 C   0  0  0  0  0  0
  -25.9678  -30.7754   21.3743 C   0  0  0  0  0  0
  -26.0431  -29.3961   20.7265 C   0  0  0  0  0  0
  -27.2192  -28.5883   20.7403 C   0  0  0  0  0  0
  -26.0440  -26.8623   19.5083 C   0  0  0  0  0  0
  -24.8770  -27.6534   19.4957 C   0  0  0  0  0  0
  -23.6463  -29.8003   20.1554 C   0  0  0  0  0  0
  -25.4117  -36.3101   24.0315 C   0  0  1  0  0  0
  -20.5897  -28.3699   23.1231 C   0  0  2  0  0  0
  -20.6782  -26.9409   22.5383 C   0  0  0  0  0  0
  -19.5763  -26.6382   21.5187 C   0  0  0  0  0  0
  -18.1943  -26.7911   22.1614 C   0  0  0  0  0  0
  -19.1547  -28.8858   23.2851 C   0  0  0  0  0  0
  -18.9483  -30.1449   23.8891 C   0  0  0  0  0  0
  -17.6480  -30.6582   24.0553 C   0  0  0  0  0  0
  -25.9073  -34.9466   23.5082 C   0  0  0  0  0  0
  -16.5373  -29.9077   23.6316 C   0  0  0  0  0  0
  -16.7283  -28.6482   23.0359 C   0  0  0  0  0  0
  -26.4506  -31.6615   25.0714 C   0  0  0  0  0  0
  -25.3747  -31.3744   26.1444 C   0  0  0  0  0  0
  -27.0345  -30.3039   24.6176 C   0  0  0  0  0  0
  -27.6050  -32.4370   25.7504 C   0  0  0  0  0  0
  -27.5576  -37.1798   24.8462 C   0  0  0  0  0  0
  -21.4204  -29.3055   22.3635 N   0  0  0  0  0  0
  -26.4304  -37.3782   23.9396 N   0  0  0  0  0  0
  -24.6929  -31.0532   22.0932 N   0  0  0  0  0  0
  -23.4177  -28.8174   23.3025 O   0  0  0  0  0  0
  -28.3121  -26.4069   20.1774 O   0  0  0  0  0  0
  -26.5644  -34.8944   22.4648 O   0  0  0  0  0  0
  -23.5444  -32.1413   23.7227 O   0  0  0  0  0  0
  -28.3777  -23.1741   19.8428 C   0  0  0  0  0  0
  -29.3777  -22.0228   22.0823 C   0  0  0  0  0  0
  -28.6475  -21.7566   19.8464 C   0  0  0  0  0  0
  -29.2227  -21.1146   21.0032 C   0  0  0  0  0  0
  -28.5647  -23.9691   20.9990 C   0  0  0  0  0  0
  -25.7194  -21.2194   19.6595 C   0  0  0  0  0  0
  -25.6288  -21.3871   18.1666 C   0  0  0  0  0  0
  -26.7354  -20.5321   18.7559 C   0  0  0  0  0  0
  -28.1822  -20.9950   18.6208 C   0  0  0  0  0  0
  -30.2191  -17.2187   21.1214 C   0  0  0  0  0  0
  -29.3732  -18.4920   20.5838 C   0  0  0  0  0  0
  -29.0490  -23.3526   22.1011 N   0  0  0  0  0  0
  -28.1534  -25.3353   21.1983 N   0  0  0  0  0  0
  -29.8062  -15.7764   20.8363 N   0  0  0  0  0  0
  -29.6820  -19.7793   21.2576 O   0  0  0  0  0  0
  -31.4771  -12.5473   19.1587 H   0  0  0  0  0  0
  -30.3802  -11.4341   19.9258 H   0  0  0  0  0  0
  -29.7841  -11.7306   17.5050 H   0  0  0  0  0  0
  -29.6402  -13.4570   17.7320 H   0  0  0  0  0  0
  -27.9021  -11.2686   18.9274 H   0  0  0  0  0  0
  -27.3704  -12.5025   17.8101 H   0  0  0  0  0  0
  -27.6539  -14.2447   19.4823 H   0  0  0  0  0  0
  -28.7173  -12.1190   21.4282 H   0  0  0  0  0  0
  -28.4277  -13.7898   21.8115 H   0  0  0  0  0  0
  -25.2826   -9.5710   22.4722 H   0  0  0  0  0  0
  -24.0052   -7.4675   22.7495 H   0  0  0  0  0  0
  -21.0884   -8.8850   19.8938 H   0  0  0  0  0  0
  -22.3795  -10.9733   19.6171 H   0  0  0  0  0  0
  -21.1942   -7.6176   23.9776 H   0  0  0  0  0  0
  -21.1493   -6.0542   25.9112 H   0  0  0  0  0  0
  -22.0562   -2.7652   23.2834 H   0  0  0  0  0  0
  -22.4137  -11.9912   22.4762 H   0  0  0  0  0  0
  -21.1149  -13.1297   22.2571 H   0  0  0  0  0  0
  -24.6626  -15.8450   20.5251 H   0  0  0  0  0  0
  -26.2750  -15.6392   20.0762 H   0  0  0  0  0  0
  -26.7195  -32.5449   23.1075 H   0  0  0  0  0  0
  -25.0056  -33.9718   25.0389 H   0  0  0  0  0  0
  -22.7213  -31.2981   21.3799 H   0  0  0  0  0  0
  -23.3757  -35.9629   23.3339 H   0  0  0  0  0  0
  -24.3544  -36.8880   22.2036 H   0  0  0  0  0  0
  -23.7256  -37.6501   23.6652 H   0  0  0  0  0  0
  -26.1019  -31.5245   20.5921 H   0  0  0  0  0  0
  -26.8449  -30.8305   22.0094 H   0  0  0  0  0  0
  -28.1127  -28.9362   21.2408 H   0  0  0  0  0  0
  -26.0206  -25.8855   19.0525 H   0  0  0  0  0  0
  -23.9813  -27.2649   19.0293 H   0  0  0  0  0  0
  -23.7692  -30.5677   19.3888 H   0  0  0  0  0  0
  -22.7667  -29.2260   19.8590 H   0  0  0  0  0  0
  -25.1316  -36.1927   25.0813 H   0  0  0  0  0  0
  -21.0007  -28.3291   24.1344 H   0  0  0  0  0  0
  -20.5641  -26.2333   23.3603 H   0  0  0  0  0  0
  -21.6651  -26.7411   22.1199 H   0  0  0  0  0  0
  -19.6908  -25.6293   21.1229 H   0  0  0  0  0  0
  -19.6669  -27.3185   20.6704 H   0  0  0  0  0  0
  -17.4192  -26.6643   21.4033 H   0  0  0  0  0  0
  -18.0344  -26.0058   22.9028 H   0  0  0  0  0  0
  -19.7974  -30.7247   24.2252 H   0  0  0  0  0  0
  -17.5051  -31.6254   24.5170 H   0  0  0  0  0  0
  -15.5372  -30.2982   23.7635 H   0  0  0  0  0  0
  -15.8688  -28.0789   22.7083 H   0  0  0  0  0  0
  -24.5853  -30.7182   25.7733 H   0  0  0  0  0  0
  -24.9039  -32.2931   26.4982 H   0  0  0  0  0  0
  -25.8077  -30.8796   27.0161 H   0  0  0  0  0  0
  -26.2905  -29.6781   24.1213 H   0  0  0  0  0  0
  -27.4045  -29.7294   25.4688 H   0  0  0  0  0  0
  -27.8809  -30.4310   23.9407 H   0  0  0  0  0  0
  -27.2611  -33.3619   26.2164 H   0  0  0  0  0  0
  -28.3839  -32.7021   25.0338 H   0  0  0  0  0  0
  -28.0785  -31.8471   26.5370 H   0  0  0  0  0  0
  -28.2616  -38.0072   24.7502 H   0  0  0  0  0  0
  -28.1049  -36.2602   24.6332 H   0  0  0  0  0  0
  -27.2278  -37.1508   25.8860 H   0  0  0  0  0  0
  -20.9368  -29.8794   21.6876 H   0  0  0  0  0  0
  -26.0183  -38.2859   24.1404 H   0  0  0  0  0  0
  -27.9276  -23.6328   18.9750 H   0  0  0  0  0  0
  -29.7549  -21.6300   23.0133 H   0  0  0  0  0  0
  -24.9656  -20.6021   20.1395 H   0  0  0  0  0  0
  -26.0142  -22.0901   20.2413 H   0  0  0  0  0  0
  -25.9036  -22.3601   17.7593 H   0  0  0  0  0  0
  -24.8046  -20.8872   17.6602 H   0  0  0  0  0  0
  -26.6205  -19.4514   18.6691 H   0  0  0  0  0  0
  -28.2549  -21.6328   17.7385 H   0  0  0  0  0  0
  -28.8373  -20.1641   18.3942 H   0  0  0  0  0  0
  -30.2595  -17.2855   22.2100 H   0  0  0  0  0  0
  -31.2495  -17.3486   20.7813 H   0  0  0  0  0  0
  -28.3125  -18.2807   20.7036 H   0  0  0  0  0  0
  -29.5674  -18.5821   19.5201 H   0  0  0  0  0  0
  -28.4818  -25.7062   22.0821 H   0  0  0  0  0  0
  -28.8448  -15.5256   21.0314 H   0  0  0  0  0  0
  1 25  1  0  0  0
  1 30  2  0  0  0
  1 84  1  0  0  0
  2  3  1  0  0  0
  2 25  1  0  0  0
  2 86  1  0  0  0
  2 87  1  0  0  0
  3  4  1  0  0  0
  3 88  1  0  0  0
  3 89  1  0  0  0
  4  5  1  0  0  0
  4 90  1  0  0  0
  4 91  1  0  0  0
  5  6  1  0  0  0
  5 26  1  0  0  0
  5 92  1  0  0  0
  6 25  1  0  0  0
  6 93  1  0  0  0
  6 94  1  0  0  0
  7  8  2  0  0  0
  7 26  1  0  0  0
  7 29  1  0  0  0
  8  9  1  0  0  0
  8 22  1  0  0  0
  9 10  1  0  0  0
  9 27  2  0  0  0
 10 11  2  0  0  0
 10 15  1  0  0  0
 11 12  1  0  0  0
 11 95  1  0  0  0
 12 13  2  0  0  0
 12 96  1  0  0  0
 13 14  1  0  0  0
 13 31  1  0  0  0
 14 15  2  0  0  0
 14 97  1  0  0  0
 15 98  1  0  0  0
 16 17  2  0  0  0
 16 21  1  0  0  0
 16 31  1  0  0  0
 17 18  1  0  0  0
 17 99  1  0  0  0
 18 19  2  0  0  0
 18100  1  0  0  0
 19 20  1  0  0  0
 19 24  1  0  0  0
 20 21  2  0  0  0
 20101  1  0  0  0
 21 23  1  0  0  0
 22 28  1  0  0  0
 22 32  2  0  0  0
 26 27  1  0  0  0
 28102  1  0  0  0
 28103  1  0  0  0
 29104  1  0  0  0
 29105  1  0  0  0
 33 34  1  0  0  0
 33 66  1  0  0  0
 33 70  2  0  0  0
 34 36  1  0  0  0
 34 59  1  0  0  0
 34106  1  0  0  0
 35 44  2  0  0  0
 35 45  1  0  0  0
 35 68  1  0  0  0
 36 56  1  0  0  0
 36107  1  0  0  0
 37 39  1  0  0  0
 37 47  1  0  0  0
 37 66  1  0  0  0
 37108  1  0  0  0
 38 43  2  0  0  0
 38 46  1  0  0  0
 38 47  1  0  0  0
 39 64  1  0  0  0
 39 67  2  0  0  0
 40 52  1  0  0  0
 40 53  2  0  0  0
 40 58  1  0  0  0
 41109  1  0  0  0
 41110  1  0  0  0
 41111  1  0  0  0
 41 48  1  0  0  0
 42 43  1  0  0  0
 42 66  1  0  0  0
 42112  1  0  0  0
 42113  1  0  0  0
 43 44  1  0  0  0
 44114  1  0  0  0
 45 46  2  0  0  0
 45115  1  0  0  0
 46116  1  0  0  0
 47117  1  0  0  0
 47118  1  0  0  0
 48 56  1  0  0  0
 48 65  1  0  0  0
 48119  1  0  0  0
 49 50  1  0  0  0
 49 53  1  0  0  0
 49 64  1  0  0  0
 49120  1  0  0  0
 50 51  1  0  0  0
 50121  1  0  0  0
 50122  1  0  0  0
 51 52  1  0  0  0
 51123  1  0  0  0
 51124  1  0  0  0
 52125  1  0  0  0
 52126  1  0  0  0
 53 54  1  0  0  0
 54 55  2  0  0  0
 54127  1  0  0  0
 55 57  1  0  0  0
 55128  1  0  0  0
 56 69  2  0  0  0
 57 58  2  0  0  0
 57129  1  0  0  0
 58130  1  0  0  0
 59 60  1  0  0  0
 59 61  1  0  0  0
 59 62  1  0  0  0
 60131  1  0  0  0
 60132  1  0  0  0
 60133  1  0  0  0
 61134  1  0  0  0
 61135  1  0  0  0
 61136  1  0  0  0
 62137  1  0  0  0
 62138  1  0  0  0
 62139  1  0  0  0
 63 65  1  0  0  0
 63140  1  0  0  0
 63141  1  0  0  0
 63142  1  0  0  0
 64143  1  0  0  0
 65144  1  0  0  0
 68 83  1  0  0  0
 71 73  2  0  0  0
 71 75  1  0  0  0
 71145  1  0  0  0
 72 74  2  0  0  0
 72 82  1  0  0  0
 72146  1  0  0  0
 73 74  1  0  0  0
 73 79  1  0  0  0
 74 85  1  0  0  0
 75 82  2  0  0  0
 75 83  1  0  0  0
 76 77  1  0  0  0
 76 78  1  0  0  0
 76147  1  0  0  0
 76148  1  0  0  0
 77 78  1  0  0  0
 77149  1  0  0  0
 77150  1  0  0  0
 78 79  1  0  0  0
 78151  1  0  0  0
 79152  1  0  0  0
 79153  1  0  0  0
 80 81  1  0  0  0
 80 84  1  0  0  0
 80154  1  0  0  0
 80155  1  0  0  0
 81 85  1  0  0  0
 81156  1  0  0  0
 81157  1  0  0  0
 83158  1  0  0  0
 84159  1  0  0  0
M  ISO  4   1 100  68 101  83 101  84 100
M  END
> <chiral flag>
0

> <version>
0

> <s_m_source_file>
/data/baiqing/PycharmProjects/Reinvent-master-3.2/result/LINK_invent/BTK/process_docking_weight1_custom_sum_contain_oxygen_bond_distance_aromatic_linkinvent_7_9_3/rearranged_h_0140.sdf

> <i_m_source_file_index>
49

> <r_mmod_Potential_Energy-OPLS-2005>
-11.7979345321655

> <r_mmod_Stretch_Energy-OPLS-2005>
99.6801376342773

> <r_mmod_Bend_Energy-OPLS-2005>
208.939407348633

> <r_mmod_Torsional_Energy-OPLS-2005>
241.25846862793

> <r_mmod_Improper_Torsional_Energy-OPLS-2005>
9.53875541687012

> <r_mmod_Van_der_Waal_Energy-OPLS-2005>
134.087814331055

> <r_mmod_Electrostatic_Energy-OPLS-2005>
-547.32470703125

> <r_mmod_Solvation_Energy-OPLS-2005>
-227.187927246094

> <b_mmod_Minimization_Converged-OPLS-2005>
0

> <r_mmod_RMS_Derivative-OPLS-2005>
6.1693377494812

$$$$
49
                    3D
 Structure written by MMmdl.
150159  0  0  1  0            999 V2000
  -30.3896  -15.3254   20.3560 C   0  0  0  0  0  0
  -30.4351  -12.8545   19.4951 C   0  0  0  0  0  0
  -29.5402  -12.5811   18.2592 C   0  0  0  0  0  0
  -28.0820  -12.3091   18.6799 C   0  0  0  0  0  0
  -27.5978  -13.2783   19.7885 C   0  0  2  0  0  0
  -28.6304  -13.4975   20.9085 C   0  0  0  0  0  0
  -25.2357  -13.8262   20.5678 C   0  0  0  0  0  0
  -24.1733  -13.0432   20.9282 C   0  0  0  0  0  0
  -24.6390  -11.6944   20.8726 C   0  0  0  0  0  0
  -23.9094  -10.4277   21.0402 C   0  0  0  0  0  0
  -24.3654   -9.4199   21.9185 C   0  0  0  0  0  0
  -23.6309   -8.2239   22.0761 C   0  0  0  0  0  0
  -22.4277   -8.0280   21.3565 C   0  0  0  0  0  0
  -21.9922   -9.0265   20.4679 C   0  0  0  0  0  0
  -22.7255  -10.2136   20.3066 C   0  0  0  0  0  0
  -21.6860   -6.0732   22.5289 C   0  0  0  0  0  0
  -21.4005   -6.5630   23.8222 C   0  0  0  0  0  0
  -21.3655   -5.6779   24.9190 C   0  0  0  0  0  0
  -21.6042   -4.3039   24.7229 C   0  0  0  0  0  0
  -21.8829   -3.8144   23.4342 C   0  0  0  0  0  0
  -21.9201   -4.6961   22.3402 C   0  0  0  0  0  0
  -22.7745  -13.5195   21.1936 C   0  0  0  0  0  0
  -22.1676   -4.2143   21.0985 F   0  0  0  0  0  0
  -21.5635   -3.4530   25.7750 F   0  0  0  0  0  0
  -29.8388  -14.0147   20.2486 N   0  0  0  0  0  0
  -26.2753  -12.9512   20.3031 N   0  0  0  0  0  0
  -25.9308  -11.6613   20.5571 N   0  0  0  0  0  0
  -22.0396  -12.8180   22.0517 N   0  0  0  0  0  0
  -25.3977  -15.1995   20.4109 N   0  0  0  0  0  0
  -31.6330  -15.3056   20.3350 O   0  0  0  0  0  0
  -21.6644   -6.8870   21.4243 O   0  0  0  0  0  0
  -22.3411  -14.5483   20.6775 O   0  0  0  0  0  0
  -24.6663  -31.8240   23.1692 C   0  0  0  0  0  0
  -25.9323  -32.4578   23.8198 C   0  0  1  0  0  0
  -27.1918  -26.8921   20.1869 C   0  0  0  0  0  0
  -25.5986  -33.8403   24.2093 N   0  0  0  0  0  0
  -23.4802  -30.4370   21.5216 C   0  0  2  0  0  0
  -24.9276  -28.8187   20.1124 C   0  0  0  0  0  0
  -22.7693  -29.4440   22.4787 C   0  0  0  0  0  0
  -18.0326  -28.1361   22.8507 C   0  0  0  0  0  0
  -24.1467  -36.7171   23.2657 C   0  0  0  0  0  0
  -26.0547  -30.6137   21.4085 C   0  0  0  0  0  0
  -26.1147  -29.2043   20.7457 C   0  0  0  0  0  0
  -27.2488  -28.2674   20.7464 C   0  0  0  0  0  0
  -25.9759  -26.6623   19.5112 C   0  0  0  0  0  0
  -24.8863  -27.5719   19.4683 C   0  0  0  0  0  0
  -23.7199  -29.7574   20.1472 C   0  0  0  0  0  0
  -25.4112  -36.2966   24.0322 C   0  0  1  0  0  0
  -20.5966  -28.3713   23.1189 C   0  0  2  0  0  0
  -20.6787  -26.9384   22.5396 C   0  0  0  0  0  0
  -19.5736  -26.6343   21.5221 C   0  0  0  0  0  0
  -18.1938  -26.7904   22.1646 C   0  0  0  0  0  0
  -19.1593  -28.8857   23.2836 C   0  0  0  0  0  0
  -18.9488  -30.1465   23.8855 C   0  0  0  0  0  0
  -17.6473  -30.6567   24.0550 C   0  0  0  0  0  0
  -25.9091  -34.9350   23.5026 C   0  0  0  0  0  0
  -16.5374  -29.9041   23.6345 C   0  0  0  0  0  0
  -16.7300  -28.6448   23.0396 C   0  0  0  0  0  0
  -26.4555  -31.6552   25.0766 C   0  0  0  0  0  0
  -25.3668  -31.3825   26.1420 C   0  0  0  0  0  0
  -27.0461  -30.2902   24.6575 C   0  0  0  0  0  0
  -27.6033  -32.4393   25.7541 C   0  0  0  0  0  0
  -27.5553  -37.1741   24.8469 C   0  0  0  0  0  0
  -21.4364  -29.3025   22.3560 N   0  0  0  0  0  0
  -26.4246  -37.3713   23.9435 N   0  0  0  0  0  0
  -24.7553  -30.9866   22.0856 N   0  0  0  0  0  0
  -23.4249  -28.8016   23.3026 O   0  0  0  0  0  0
  -28.1842  -25.7693   20.2112 O   0  0  0  0  0  0
  -26.5701  -34.8899   22.4622 O   0  0  0  0  0  0
  -23.5730  -32.1213   23.6773 O   0  0  0  0  0  0
  -29.1854  -19.4969   19.9650 C   0  0  0  0  0  0
  -28.9186  -19.3351   22.5867 C   0  0  0  0  0  0
  -28.8515  -20.8740   20.6163 C   0  0  0  0  0  0
  -28.7144  -20.6215   22.0119 C   0  0  0  0  0  0
  -29.4306  -18.1079   20.6265 C   0  0  0  0  0  0
  -27.6122  -23.2263   19.2952 C   0  0  0  0  0  0
  -28.7547  -22.5848   20.0863 C   0  0  1  0  0  0
  -27.9380  -24.1352   20.4785 C   0  0  1  0  0  0
  -28.3316  -21.7391   22.9737 C   0  0  0  0  0  0
  -29.2837  -18.1856   21.9637 N   0  0  0  0  0  0
  -29.6357  -16.5913   20.0799 N   0  0  0  0  0  0
  -31.4521  -13.0828   19.1733 H   0  0  0  0  0  0
  -30.5228  -11.9661   20.1232 H   0  0  0  0  0  0
  -29.9254  -11.7470   17.6684 H   0  0  0  0  0  0
  -29.5753  -13.4529   17.6037 H   0  0  0  0  0  0
  -28.0257  -11.2793   19.0327 H   0  0  0  0  0  0
  -27.4301  -12.3789   17.8073 H   0  0  0  0  0  0
  -27.4910  -14.2341   19.2756 H   0  0  0  0  0  0
  -28.8154  -12.5962   21.4930 H   0  0  0  0  0  0
  -28.2576  -14.2540   21.6003 H   0  0  0  0  0  0
  -25.2805   -9.5666   22.4750 H   0  0  0  0  0  0
  -24.0044   -7.4612   22.7451 H   0  0  0  0  0  0
  -21.0856   -8.8785   19.8969 H   0  0  0  0  0  0
  -22.3729  -10.9685   19.6173 H   0  0  0  0  0  0
  -21.1988   -7.6142   23.9721 H   0  0  0  0  0  0
  -21.1467   -6.0509   25.9092 H   0  0  0  0  0  0
  -22.0611   -2.7599   23.2857 H   0  0  0  0  0  0
  -22.4006  -11.9884   22.4962 H   0  0  0  0  0  0
  -21.1002  -13.1206   22.2671 H   0  0  0  0  0  0
  -24.6191  -15.8411   20.5071 H   0  0  0  0  0  0
  -26.2276  -15.6385   20.0321 H   0  0  0  0  0  0
  -26.7413  -32.5064   23.0939 H   0  0  0  0  0  0
  -25.0119  -33.9484   25.0226 H   0  0  0  0  0  0
  -22.7938  -31.2713   21.3582 H   0  0  0  0  0  0
  -23.3775  -35.9453   23.3303 H   0  0  0  0  0  0
  -24.3537  -36.8816   22.2069 H   0  0  0  0  0  0
  -23.7151  -37.6335   23.6703 H   0  0  0  0  0  0
  -26.2565  -31.3572   20.6373 H   0  0  0  0  0  0
  -26.9061  -30.6503   22.0771 H   0  0  0  0  0  0
  -28.1552  -28.5749   21.2447 H   0  0  0  0  0  0
  -25.8398  -25.7116   19.0162 H   0  0  0  0  0  0
  -23.9898  -27.2774   18.9398 H   0  0  0  0  0  0
  -23.8788  -30.5302   19.3943 H   0  0  0  0  0  0
  -22.8240  -29.2237   19.8276 H   0  0  0  0  0  0
  -25.1294  -36.1783   25.0812 H   0  0  0  0  0  0
  -21.0071  -28.3278   24.1299 H   0  0  0  0  0  0
  -20.5637  -26.2320   23.3640 H   0  0  0  0  0  0
  -21.6639  -26.7313   22.1200 H   0  0  0  0  0  0
  -19.6853  -25.6245   21.1247 H   0  0  0  0  0  0
  -19.6641  -27.3164   20.6769 H   0  0  0  0  0  0
  -17.4203  -26.6713   21.4050 H   0  0  0  0  0  0
  -18.0293  -26.0030   22.9019 H   0  0  0  0  0  0
  -19.7951  -30.7321   24.2200 H   0  0  0  0  0  0
  -17.4996  -31.6251   24.5141 H   0  0  0  0  0  0
  -15.5354  -30.2916   23.7652 H   0  0  0  0  0  0
  -15.8725  -28.0718   22.7154 H   0  0  0  0  0  0
  -24.5836  -30.7198   25.7737 H   0  0  0  0  0  0
  -24.8887  -32.3035   26.4758 H   0  0  0  0  0  0
  -25.7882  -30.9037   27.0266 H   0  0  0  0  0  0
  -26.3159  -29.6578   24.1537 H   0  0  0  0  0  0
  -27.3884  -29.7292   25.5282 H   0  0  0  0  0  0
  -27.9144  -30.4068   24.0095 H   0  0  0  0  0  0
  -27.2575  -33.3706   26.2049 H   0  0  0  0  0  0
  -28.3862  -32.6962   25.0391 H   0  0  0  0  0  0
  -28.0717  -31.8607   26.5521 H   0  0  0  0  0  0
  -28.2569  -38.0055   24.7574 H   0  0  0  0  0  0
  -28.1066  -36.2590   24.6226 H   0  0  0  0  0  0
  -27.2299  -37.1301   25.8885 H   0  0  0  0  0  0
  -20.9605  -29.8735   21.6715 H   0  0  0  0  0  0
  -26.0110  -38.2766   24.1495 H   0  0  0  0  0  0
  -29.2683  -19.5193   18.8856 H   0  0  0  0  0  0
  -28.7731  -19.2036   23.6491 H   0  0  0  0  0  0
  -27.8614  -23.5895   18.2990 H   0  0  0  0  0  0
  -26.6422  -22.7351   19.3411 H   0  0  0  0  0  0
  -29.7461  -22.7588   19.6789 H   0  0  0  0  0  0
  -27.2327  -24.0752   21.3080 H   0  0  0  0  0  0
  -27.3177  -22.0835   22.7694 H   0  0  0  0  0  0
  -29.0227  -22.5825   22.9152 H   0  0  0  0  0  0
  -28.3424  -21.3907   24.0101 H   0  0  0  0  0  0
  -28.8830  -16.3577   19.4471 H   0  0  0  0  0  0
  1 25  1  0  0  0
  1 30  2  0  0  0
  1 81  1  0  0  0
  2  3  1  0  0  0
  2 25  1  0  0  0
  2 82  1  0  0  0
  2 83  1  0  0  0
  3  4  1  0  0  0
  3 84  1  0  0  0
  3 85  1  0  0  0
  4  5  1  0  0  0
  4 86  1  0  0  0
  4 87  1  0  0  0
  5  6  1  0  0  0
  5 26  1  0  0  0
  5 88  1  0  0  0
  6 25  1  0  0  0
  6 89  1  0  0  0
  6 90  1  0  0  0
  7  8  2  0  0  0
  7 26  1  0  0  0
  7 29  1  0  0  0
  8  9  1  0  0  0
  8 22  1  0  0  0
  9 10  1  0  0  0
  9 27  2  0  0  0
 10 11  2  0  0  0
 10 15  1  0  0  0
 11 12  1  0  0  0
 11 91  1  0  0  0
 12 13  2  0  0  0
 12 92  1  0  0  0
 13 14  1  0  0  0
 13 31  1  0  0  0
 14 15  2  0  0  0
 14 93  1  0  0  0
 15 94  1  0  0  0
 16 17  2  0  0  0
 16 21  1  0  0  0
 16 31  1  0  0  0
 17 18  1  0  0  0
 17 95  1  0  0  0
 18 19  2  0  0  0
 18 96  1  0  0  0
 19 20  1  0  0  0
 19 24  1  0  0  0
 20 21  2  0  0  0
 20 97  1  0  0  0
 21 23  1  0  0  0
 22 28  1  0  0  0
 22 32  2  0  0  0
 26 27  1  0  0  0
 28 98  1  0  0  0
 28 99  1  0  0  0
 29100  1  0  0  0
 29101  1  0  0  0
 33 34  1  0  0  0
 33 66  1  0  0  0
 33 70  2  0  0  0
 34 36  1  0  0  0
 34 59  1  0  0  0
 34102  1  0  0  0
 35 44  2  0  0  0
 35 45  1  0  0  0
 35 68  1  0  0  0
 36 56  1  0  0  0
 36103  1  0  0  0
 37 39  1  0  0  0
 37 47  1  0  0  0
 37 66  1  0  0  0
 37104  1  0  0  0
 38 43  2  0  0  0
 38 46  1  0  0  0
 38 47  1  0  0  0
 39 64  1  0  0  0
 39 67  2  0  0  0
 40 52  1  0  0  0
 40 53  2  0  0  0
 40 58  1  0  0  0
 41105  1  0  0  0
 41106  1  0  0  0
 41107  1  0  0  0
 41 48  1  0  0  0
 42 43  1  0  0  0
 42 66  1  0  0  0
 42108  1  0  0  0
 42109  1  0  0  0
 43 44  1  0  0  0
 44110  1  0  0  0
 45 46  2  0  0  0
 45111  1  0  0  0
 46112  1  0  0  0
 47113  1  0  0  0
 47114  1  0  0  0
 48 56  1  0  0  0
 48 65  1  0  0  0
 48115  1  0  0  0
 49 50  1  0  0  0
 49 53  1  0  0  0
 49 64  1  0  0  0
 49116  1  0  0  0
 50 51  1  0  0  0
 50117  1  0  0  0
 50118  1  0  0  0
 51 52  1  0  0  0
 51119  1  0  0  0
 51120  1  0  0  0
 52121  1  0  0  0
 52122  1  0  0  0
 53 54  1  0  0  0
 54 55  2  0  0  0
 54123  1  0  0  0
 55 57  1  0  0  0
 55124  1  0  0  0
 56 69  2  0  0  0
 57 58  2  0  0  0
 57125  1  0  0  0
 58126  1  0  0  0
 59 60  1  0  0  0
 59 61  1  0  0  0
 59 62  1  0  0  0
 60127  1  0  0  0
 60128  1  0  0  0
 60129  1  0  0  0
 61130  1  0  0  0
 61131  1  0  0  0
 61132  1  0  0  0
 62133  1  0  0  0
 62134  1  0  0  0
 62135  1  0  0  0
 63 65  1  0  0  0
 63136  1  0  0  0
 63137  1  0  0  0
 63138  1  0  0  0
 64139  1  0  0  0
 65140  1  0  0  0
 68 78  1  0  0  0
 71 73  2  0  0  0
 71 75  1  0  0  0
 71141  1  0  0  0
 72 74  2  0  0  0
 72 80  1  0  0  0
 72142  1  0  0  0
 73 74  1  0  0  0
 73 77  1  0  0  0
 74 79  1  0  0  0
 75 80  2  0  0  0
 75 81  1  0  0  0
 76 77  1  0  0  0
 76 78  1  0  0  0
 76143  1  0  0  0
 76144  1  0  0  0
 77 78  1  0  0  0
 77145  1  0  0  0
 78146  1  0  0  0
 79147  1  0  0  0
 79148  1  0  0  0
 79149  1  0  0  0
 81150  1  0  0  0
M  ISO  4   1 100  68 101  78 101  81 100
M  END
> <chiral flag>
0

> <version>
0

> <s_m_source_file>
/data/baiqing/PycharmProjects/Reinvent-master-3.2/result/LINK_invent/BTK/process_docking_weight1_custom_sum_contain_oxygen_bond_distance_aromatic_linkinvent_7_9_3/rearranged_h_0140.sdf

> <i_m_source_file_index>
50

> <r_mmod_Potential_Energy-OPLS-2005>
1304.19738769531

> <r_mmod_Stretch_Energy-OPLS-2005>
641.786987304688

> <r_mmod_Bend_Energy-OPLS-2005>
435.343627929688

> <r_mmod_Torsional_Energy-OPLS-2005>
286.19482421875

> <r_mmod_Improper_Torsional_Energy-OPLS-2005>
14.3523349761963

> <r_mmod_Van_der_Waal_Energy-OPLS-2005>
123.737403869629

> <r_mmod_Electrostatic_Energy-OPLS-2005>
-495.930938720703

> <r_mmod_Solvation_Energy-OPLS-2005>
-231.709625244141

> <b_mmod_Minimization_Converged-OPLS-2005>
0

> <r_mmod_RMS_Derivative-OPLS-2005>
5.26170539855957

$$$$
50
                    3D
 Structure written by MMmdl.
157166  0  0  1  0            999 V2000
  -30.5874  -14.7085   20.4685 C   0  0  0  0  0  0
  -30.4339  -12.4271   19.4535 C   0  0  0  0  0  0
  -29.5003  -12.4965   18.2249 C   0  0  0  0  0  0
  -28.0274  -12.3149   18.6453 C   0  0  0  0  0  0
  -27.6379  -13.2140   19.8472 C   0  0  2  0  0  0
  -28.6841  -13.1311   20.9778 C   0  0  0  0  0  0
  -25.2476  -13.8160   20.5655 C   0  0  0  0  0  0
  -24.1769  -13.0416   20.9181 C   0  0  0  0  0  0
  -24.6348  -11.6881   20.8730 C   0  0  0  0  0  0
  -23.9022  -10.4270   21.0393 C   0  0  0  0  0  0
  -24.3580   -9.4194   21.9185 C   0  0  0  0  0  0
  -23.6266   -8.2224   22.0761 C   0  0  0  0  0  0
  -22.4256   -8.0261   21.3545 C   0  0  0  0  0  0
  -21.9876   -9.0225   20.4644 C   0  0  0  0  0  0
  -22.7184  -10.2119   20.3044 C   0  0  0  0  0  0
  -21.6859   -6.0705   22.5272 C   0  0  0  0  0  0
  -21.4019   -6.5617   23.8196 C   0  0  0  0  0  0
  -21.3664   -5.6778   24.9168 C   0  0  0  0  0  0
  -21.6051   -4.3036   24.7231 C   0  0  0  0  0  0
  -21.8812   -3.8123   23.4350 C   0  0  0  0  0  0
  -21.9184   -4.6932   22.3403 C   0  0  0  0  0  0
  -22.7787  -13.5209   21.1853 C   0  0  0  0  0  0
  -22.1650   -4.2100   21.0985 F   0  0  0  0  0  0
  -21.5637   -3.4539   25.7755 F   0  0  0  0  0  0
  -29.9835  -13.4783   20.3880 N   0  0  0  0  0  0
  -26.2896  -12.9332   20.3266 N   0  0  0  0  0  0
  -25.9271  -11.6489   20.5744 N   0  0  0  0  0  0
  -22.0440  -12.8211   22.0422 N   0  0  0  0  0  0
  -25.4144  -15.1895   20.4068 N   0  0  0  0  0  0
  -31.7951  -14.8308   20.2421 O   0  0  0  0  0  0
  -21.6633   -6.8856   21.4233 O   0  0  0  0  0  0
  -22.3459  -14.5516   20.6699 O   0  0  0  0  0  0
  -24.6350  -31.8607   23.1981 C   0  0  0  0  0  0
  -25.9190  -32.4778   23.8314 C   0  0  1  0  0  0
  -27.1976  -27.2658   20.1435 C   0  0  0  0  0  0
  -25.6002  -33.8577   24.2258 N   0  0  0  0  0  0
  -23.4282  -30.4847   21.5415 C   0  0  2  0  0  0
  -24.8684  -28.9304   20.1110 C   0  0  0  0  0  0
  -22.7538  -29.4650   22.4908 C   0  0  0  0  0  0
  -18.0327  -28.1382   22.8474 C   0  0  0  0  0  0
  -24.1506  -36.7274   23.2638 C   0  0  0  0  0  0
  -25.9731  -30.7758   21.3753 C   0  0  0  0  0  0
  -26.0417  -29.3981   20.7184 C   0  0  0  0  0  0
  -27.2148  -28.5793   20.7196 C   0  0  0  0  0  0
  -26.0077  -26.8609   19.5044 C   0  0  0  0  0  0
  -24.8551  -27.6712   19.4933 C   0  0  0  0  0  0
  -23.6458  -29.8269   20.1557 C   0  0  0  0  0  0
  -25.4133  -36.3086   24.0338 C   0  0  1  0  0  0
  -20.5930  -28.3723   23.1257 C   0  0  2  0  0  0
  -20.6825  -26.9440   22.5401 C   0  0  0  0  0  0
  -19.5792  -26.6383   21.5214 C   0  0  0  0  0  0
  -18.1966  -26.7918   22.1612 C   0  0  0  0  0  0
  -19.1584  -28.8866   23.2844 C   0  0  0  0  0  0
  -18.9503  -30.1457   23.8864 C   0  0  0  0  0  0
  -17.6503  -30.6575   24.0553 C   0  0  0  0  0  0
  -25.9092  -34.9460   23.5092 C   0  0  0  0  0  0
  -16.5390  -29.9068   23.6317 C   0  0  0  0  0  0
  -16.7313  -28.6497   23.0314 C   0  0  0  0  0  0
  -26.4531  -31.6622   25.0705 C   0  0  0  0  0  0
  -25.3697  -31.3797   26.1382 C   0  0  0  0  0  0
  -27.0422  -30.3060   24.6211 C   0  0  0  0  0  0
  -27.6096  -32.4367   25.7472 C   0  0  0  0  0  0
  -27.5605  -37.1793   24.8473 C   0  0  0  0  0  0
  -21.4256  -29.3066   22.3648 N   0  0  0  0  0  0
  -26.4309  -37.3776   23.9428 N   0  0  0  0  0  0
  -24.6961  -31.0591   22.0947 N   0  0  0  0  0  0
  -23.4245  -28.8196   23.2994 O   0  0  0  0  0  0
  -28.2769  -26.3611   20.1731 O   0  0  0  0  0  0
  -26.5619  -34.8945   22.4642 O   0  0  0  0  0  0
  -23.5508  -32.1460   23.7305 O   0  0  0  0  0  0
  -30.8098  -18.7746   22.5692 C   0  0  0  0  0  0
  -30.7354  -17.4756   22.0227 C   0  0  0  0  0  0
  -29.2905  -18.3553   20.2736 C   0  0  0  0  0  0
  -30.1382  -19.8742   21.9840 C   0  0  0  0  0  0
  -29.3981  -19.7114   20.7910 C   0  0  0  0  0  0
  -29.9502  -17.2104   20.8813 C   0  0  0  0  0  0
  -30.1674  -21.2312   22.6745 C   0  0  0  0  0  0
  -28.7720  -21.0080   20.1091 C   0  0  0  0  0  0
  -30.0346  -22.4257   21.7067 C   0  0  0  0  0  0
  -28.6295  -23.6502   20.0240 C   0  0  0  0  0  0
  -28.0414  -24.9827   20.7340 C   0  0  0  0  0  0
  -29.7455  -15.8074   20.4723 N   0  0  0  0  0  0
  -28.8177  -22.3540   20.8533 N   0  3  1  0  0  0
  -31.4719  -12.5659   19.1468 H   0  0  0  0  0  0
  -30.3863  -11.4436   19.9254 H   0  0  0  0  0  0
  -29.7759  -11.7398   17.4895 H   0  0  0  0  0  0
  -29.6226  -13.4613   17.7291 H   0  0  0  0  0  0
  -27.8838  -11.2657   18.9102 H   0  0  0  0  0  0
  -27.3666  -12.5030   17.7984 H   0  0  0  0  0  0
  -27.6344  -14.2342   19.4668 H   0  0  0  0  0  0
  -28.7111  -12.1279   21.4037 H   0  0  0  0  0  0
  -28.4282  -13.8062   21.7966 H   0  0  0  0  0  0
  -25.2719   -9.5676   22.4762 H   0  0  0  0  0  0
  -23.9958   -7.4622   22.7488 H   0  0  0  0  0  0
  -21.0802   -8.8728   19.8968 H   0  0  0  0  0  0
  -22.3615  -10.9649   19.6151 H   0  0  0  0  0  0
  -21.2017   -7.6122   23.9688 H   0  0  0  0  0  0
  -21.1506   -6.0519   25.9071 H   0  0  0  0  0  0
  -22.0591   -2.7576   23.2873 H   0  0  0  0  0  0
  -22.4060  -11.9868   22.4789 H   0  0  0  0  0  0
  -21.1085  -13.1284   22.2699 H   0  0  0  0  0  0
  -24.6395  -15.8342   20.5199 H   0  0  0  0  0  0
  -26.2581  -15.6451   20.0877 H   0  0  0  0  0  0
  -26.7264  -32.5425   23.1059 H   0  0  0  0  0  0
  -25.0194  -33.9698   25.0430 H   0  0  0  0  0  0
  -22.7240  -31.3076   21.3982 H   0  0  0  0  0  0
  -23.3787  -35.9584   23.3300 H   0  0  0  0  0  0
  -24.3610  -36.8891   22.2058 H   0  0  0  0  0  0
  -23.7248  -37.6470   23.6658 H   0  0  0  0  0  0
  -26.1169  -31.5433   20.6125 H   0  0  0  0  0  0
  -26.8497  -30.8163   22.0112 H   0  0  0  0  0  0
  -28.1145  -28.9304   21.2059 H   0  0  0  0  0  0
  -25.9545  -25.8940   19.0234 H   0  0  0  0  0  0
  -23.9567  -27.3091   19.0104 H   0  0  0  0  0  0
  -23.7872  -30.6089   19.4073 H   0  0  0  0  0  0
  -22.7597  -29.2750   19.8382 H   0  0  0  0  0  0
  -25.1319  -36.1915   25.0829 H   0  0  0  0  0  0
  -21.0003  -28.3293   24.1383 H   0  0  0  0  0  0
  -20.5780  -26.2324   23.3609 H   0  0  0  0  0  0
  -21.6685  -26.7484   22.1166 H   0  0  0  0  0  0
  -19.6956  -25.6288   21.1272 H   0  0  0  0  0  0
  -19.6710  -27.3163   20.6724 H   0  0  0  0  0  0
  -17.4241  -26.6697   21.3994 H   0  0  0  0  0  0
  -18.0329  -26.0021   22.8987 H   0  0  0  0  0  0
  -19.7986  -30.7265   24.2229 H   0  0  0  0  0  0
  -17.5065  -31.6251   24.5164 H   0  0  0  0  0  0
  -15.5391  -30.2950   23.7662 H   0  0  0  0  0  0
  -15.8719  -28.0824   22.7006 H   0  0  0  0  0  0
  -24.5847  -30.7213   25.7640 H   0  0  0  0  0  0
  -24.8897  -32.2987   26.4774 H   0  0  0  0  0  0
  -25.7906  -30.8942   27.0188 H   0  0  0  0  0  0
  -26.3041  -29.6741   24.1260 H   0  0  0  0  0  0
  -27.4164  -29.7395   25.4741 H   0  0  0  0  0  0
  -27.8869  -30.4385   23.9438 H   0  0  0  0  0  0
  -27.2762  -33.3692   26.2051 H   0  0  0  0  0  0
  -28.3898  -32.6922   25.0283 H   0  0  0  0  0  0
  -28.0784  -31.8494   26.5383 H   0  0  0  0  0  0
  -28.2601  -38.0107   24.7561 H   0  0  0  0  0  0
  -28.1124  -36.2651   24.6246 H   0  0  0  0  0  0
  -27.2329  -37.1367   25.8869 H   0  0  0  0  0  0
  -20.9464  -29.8768   21.6840 H   0  0  0  0  0  0
  -26.0188  -38.2857   24.1386 H   0  0  0  0  0  0
  -31.3793  -18.9142   23.4788 H   0  0  0  0  0  0
  -31.2465  -16.6724   22.5368 H   0  0  0  0  0  0
  -28.6936  -18.1889   19.3876 H   0  0  0  0  0  0
  -31.0949  -21.3306   23.2442 H   0  0  0  0  0  0
  -29.3618  -21.2561   23.4104 H   0  0  0  0  0  0
  -27.7345  -20.7970   19.8524 H   0  0  0  0  0  0
  -29.2845  -21.1374   19.1560 H   0  0  0  0  0  0
  -30.9181  -22.4699   21.0690 H   0  0  0  0  0  0
  -30.0276  -23.3463   22.2886 H   0  0  0  0  0  0
  -29.5892  -23.9037   19.5760 H   0  0  0  0  0  0
  -27.9760  -23.4251   19.1811 H   0  0  0  0  0  0
  -28.4444  -25.0276   21.7468 H   0  0  0  0  0  0
  -26.9731  -24.8158   20.8857 H   0  0  0  0  0  0
  -28.7885  -15.5698   20.2653 H   0  0  0  0  0  0
  -28.0328  -22.3046   21.4860 H   0  0  0  0  0  0
  1 25  1  0  0  0
  1 30  2  0  0  0
  1 82  1  0  0  0
  2  3  1  0  0  0
  2 25  1  0  0  0
  2 84  1  0  0  0
  2 85  1  0  0  0
  3  4  1  0  0  0
  3 86  1  0  0  0
  3 87  1  0  0  0
  4  5  1  0  0  0
  4 88  1  0  0  0
  4 89  1  0  0  0
  5  6  1  0  0  0
  5 26  1  0  0  0
  5 90  1  0  0  0
  6 25  1  0  0  0
  6 91  1  0  0  0
  6 92  1  0  0  0
  7  8  2  0  0  0
  7 26  1  0  0  0
  7 29  1  0  0  0
  8  9  1  0  0  0
  8 22  1  0  0  0
  9 10  1  0  0  0
  9 27  2  0  0  0
 10 11  2  0  0  0
 10 15  1  0  0  0
 11 12  1  0  0  0
 11 93  1  0  0  0
 12 13  2  0  0  0
 12 94  1  0  0  0
 13 14  1  0  0  0
 13 31  1  0  0  0
 14 15  2  0  0  0
 14 95  1  0  0  0
 15 96  1  0  0  0
 16 17  2  0  0  0
 16 21  1  0  0  0
 16 31  1  0  0  0
 17 18  1  0  0  0
 17 97  1  0  0  0
 18 19  2  0  0  0
 18 98  1  0  0  0
 19 20  1  0  0  0
 19 24  1  0  0  0
 20 21  2  0  0  0
 20 99  1  0  0  0
 21 23  1  0  0  0
 22 28  1  0  0  0
 22 32  2  0  0  0
 26 27  1  0  0  0
 28100  1  0  0  0
 28101  1  0  0  0
 29102  1  0  0  0
 29103  1  0  0  0
 33 34  1  0  0  0
 33 66  1  0  0  0
 33 70  2  0  0  0
 34 36  1  0  0  0
 34 59  1  0  0  0
 34104  1  0  0  0
 35 44  2  0  0  0
 35 45  1  0  0  0
 35 68  1  0  0  0
 36 56  1  0  0  0
 36105  1  0  0  0
 37 39  1  0  0  0
 37 47  1  0  0  0
 37 66  1  0  0  0
 37106  1  0  0  0
 38 43  2  0  0  0
 38 46  1  0  0  0
 38 47  1  0  0  0
 39 64  1  0  0  0
 39 67  2  0  0  0
 40 52  1  0  0  0
 40 53  2  0  0  0
 40 58  1  0  0  0
 41107  1  0  0  0
 41108  1  0  0  0
 41109  1  0  0  0
 41 48  1  0  0  0
 42 43  1  0  0  0
 42 66  1  0  0  0
 42110  1  0  0  0
 42111  1  0  0  0
 43 44  1  0  0  0
 44112  1  0  0  0
 45 46  2  0  0  0
 45113  1  0  0  0
 46114  1  0  0  0
 47115  1  0  0  0
 47116  1  0  0  0
 48 56  1  0  0  0
 48 65  1  0  0  0
 48117  1  0  0  0
 49 50  1  0  0  0
 49 53  1  0  0  0
 49 64  1  0  0  0
 49118  1  0  0  0
 50 51  1  0  0  0
 50119  1  0  0  0
 50120  1  0  0  0
 51 52  1  0  0  0
 51121  1  0  0  0
 51122  1  0  0  0
 52123  1  0  0  0
 52124  1  0  0  0
 53 54  1  0  0  0
 54 55  2  0  0  0
 54125  1  0  0  0
 55 57  1  0  0  0
 55126  1  0  0  0
 56 69  2  0  0  0
 57 58  2  0  0  0
 57127  1  0  0  0
 58128  1  0  0  0
 59 60  1  0  0  0
 59 61  1  0  0  0
 59 62  1  0  0  0
 60129  1  0  0  0
 60130  1  0  0  0
 60131  1  0  0  0
 61132  1  0  0  0
 61133  1  0  0  0
 61134  1  0  0  0
 62135  1  0  0  0
 62136  1  0  0  0
 62137  1  0  0  0
 63 65  1  0  0  0
 63138  1  0  0  0
 63139  1  0  0  0
 63140  1  0  0  0
 64141  1  0  0  0
 65142  1  0  0  0
 68 81  1  0  0  0
 71 72  2  0  0  0
 71 74  1  0  0  0
 71143  1  0  0  0
 72 76  1  0  0  0
 72144  1  0  0  0
 73 75  1  0  0  0
 73 76  2  0  0  0
 73145  1  0  0  0
 74 75  2  0  0  0
 74 77  1  0  0  0
 75 78  1  0  0  0
 76 82  1  0  0  0
 77 79  1  0  0  0
 77146  1  0  0  0
 77147  1  0  0  0
 78 83  1  0  0  0
 78148  1  0  0  0
 78149  1  0  0  0
 79 83  1  0  0  0
 79150  1  0  0  0
 79151  1  0  0  0
 80 81  1  0  0  0
 80152  1  0  0  0
 80153  1  0  0  0
 80 83  1  0  0  0
 81154  1  0  0  0
 81155  1  0  0  0
 82156  1  0  0  0
 83157  1  0  0  0
M  CHG  1  83   1
M  ISO  4   1 100  68 101  81 101  82 100
M  END
> <chiral flag>
0

> <version>
0

> <s_m_source_file>
/data/baiqing/PycharmProjects/Reinvent-master-3.2/result/LINK_invent/BTK/process_docking_weight1_custom_sum_contain_oxygen_bond_distance_aromatic_linkinvent_7_9_3/rearranged_h_0140.sdf

> <i_m_source_file_index>
51

> <r_mmod_Potential_Energy-OPLS-2005>
60.7951545715332

> <r_mmod_Stretch_Energy-OPLS-2005>
113.80054473877

> <r_mmod_Bend_Energy-OPLS-2005>
146.416793823242

> <r_mmod_Torsional_Energy-OPLS-2005>
274.822082519531

> <r_mmod_Improper_Torsional_Energy-OPLS-2005>
9.05875682830811

> <r_mmod_Van_der_Waal_Energy-OPLS-2005>
138.384063720703

> <r_mmod_Electrostatic_Energy-OPLS-2005>
-255.043670654297

> <r_mmod_Solvation_Energy-OPLS-2005>
-448.368804931641

> <b_mmod_Minimization_Converged-OPLS-2005>
0

> <r_mmod_RMS_Derivative-OPLS-2005>
3.59934759140015

$$$$
51
                    3D
 Structure written by MMmdl.
174183  0  0  1  0            999 V2000
  -30.7998  -14.5494   20.3951 C   0  0  0  0  0  0
  -30.3925  -12.3481   19.4130 C   0  0  0  0  0  0
  -29.4722  -12.4356   18.1879 C   0  0  0  0  0  0
  -28.0040  -12.2859   18.6300 C   0  0  0  0  0  0
  -27.6333  -13.1961   19.8310 C   0  0  2  0  0  0
  -28.7053  -13.1997   20.9399 C   0  0  0  0  0  0
  -25.2556  -13.8126   20.5786 C   0  0  0  0  0  0
  -24.1803  -13.0414   20.9269 C   0  0  0  0  0  0
  -24.6349  -11.6881   20.8801 C   0  0  0  0  0  0
  -23.9010  -10.4282   21.0420 C   0  0  0  0  0  0
  -24.3577   -9.4199   21.9182 C   0  0  0  0  0  0
  -23.6269   -8.2226   22.0738 C   0  0  0  0  0  0
  -22.4254   -8.0257   21.3526 C   0  0  0  0  0  0
  -21.9881   -9.0231   20.4632 C   0  0  0  0  0  0
  -22.7196  -10.2119   20.3056 C   0  0  0  0  0  0
  -21.6856   -6.0720   22.5276 C   0  0  0  0  0  0
  -21.4020   -6.5622   23.8212 C   0  0  0  0  0  0
  -21.3664   -5.6774   24.9174 C   0  0  0  0  0  0
  -21.6056   -4.3038   24.7228 C   0  0  0  0  0  0
  -21.8821   -3.8128   23.4348 C   0  0  0  0  0  0
  -21.9195   -4.6948   22.3403 C   0  0  0  0  0  0
  -22.7822  -13.5216   21.1887 C   0  0  0  0  0  0
  -22.1658   -4.2131   21.0983 F   0  0  0  0  0  0
  -21.5628   -3.4519   25.7737 F   0  0  0  0  0  0
  -29.9912  -13.4607   20.2859 N   0  0  0  0  0  0
  -26.2926  -12.9252   20.3337 N   0  0  0  0  0  0
  -25.9267  -11.6439   20.5837 N   0  0  0  0  0  0
  -22.0446  -12.8227   22.0445 N   0  0  0  0  0  0
  -25.4314  -15.1837   20.4249 N   0  0  0  0  0  0
  -32.0033  -14.3682   20.5082 O   0  0  0  0  0  0
  -21.6626   -6.8854   21.4232 O   0  0  0  0  0  0
  -22.3517  -14.5505   20.6695 O   0  0  0  0  0  0
  -24.6138  -31.8686   23.2103 C   0  0  0  0  0  0
  -25.9032  -32.4827   23.8391 C   0  0  1  0  0  0
  -27.2204  -27.4417   20.0986 C   0  0  0  0  0  0
  -25.5905  -33.8625   24.2332 N   0  0  0  0  0  0
  -23.4010  -30.4921   21.5522 C   0  0  2  0  0  0
  -24.8445  -28.9626   20.1111 C   0  0  0  0  0  0
  -22.7418  -29.4657   22.5009 C   0  0  0  0  0  0
  -18.0275  -28.1376   22.8506 C   0  0  0  0  0  0
  -24.1482  -36.7304   23.2642 C   0  0  0  0  0  0
  -25.9289  -30.8408   21.3583 C   0  0  0  0  0  0
  -26.0059  -29.4765   20.7040 C   0  0  0  0  0  0
  -27.2021  -28.7228   20.6920 C   0  0  0  0  0  0
  -26.0490  -26.9395   19.4976 C   0  0  0  0  0  0
  -24.8603  -27.6938   19.5044 C   0  0  0  0  0  0
  -23.6045  -29.8264   20.1656 C   0  0  0  0  0  0
  -25.4115  -36.3118   24.0333 C   0  0  1  0  0  0
  -20.5870  -28.3656   23.1340 C   0  0  2  0  0  0
  -20.6779  -26.9394   22.5445 C   0  0  0  0  0  0
  -19.5755  -26.6378   21.5245 C   0  0  0  0  0  0
  -18.1927  -26.7932   22.1632 C   0  0  0  0  0  0
  -19.1530  -28.8838   23.2912 C   0  0  0  0  0  0
  -18.9454  -30.1462   23.8896 C   0  0  0  0  0  0
  -17.6453  -30.6587   24.0575 C   0  0  0  0  0  0
  -25.9038  -34.9480   23.5128 C   0  0  0  0  0  0
  -16.5345  -29.9084   23.6348 C   0  0  0  0  0  0
  -16.7264  -28.6507   23.0356 C   0  0  0  0  0  0
  -26.4474  -31.6594   25.0711 C   0  0  0  0  0  0
  -25.3751  -31.3684   26.1467 C   0  0  0  0  0  0
  -27.0310  -30.3045   24.6075 C   0  0  0  0  0  0
  -27.6055  -32.4324   25.7466 C   0  0  0  0  0  0
  -27.5584  -37.1809   24.8474 C   0  0  0  0  0  0
  -21.4143  -29.3013   22.3739 N   0  0  0  0  0  0
  -26.4299  -37.3806   23.9407 N   0  0  0  0  0  0
  -24.6670  -31.0812   22.0982 N   0  0  0  0  0  0
  -23.4223  -28.8201   23.3032 O   0  0  0  0  0  0
  -28.3501  -26.6596   20.1404 O   0  0  0  0  0  0
  -26.5600  -34.8925   22.4696 O   0  0  0  0  0  0
  -23.5330  -32.1417   23.7501 O   0  0  0  0  0  0
  -29.6901  -18.8663   21.7409 C   0  0  0  0  0  0
  -27.7424  -18.3127   20.4171 C   0  0  0  0  0  0
  -30.3349  -17.6949   21.2850 C   0  0  0  0  0  0
  -28.3983  -19.1980   21.2956 C   0  0  0  0  0  0
  -29.6697  -16.7725   20.4334 C   0  0  0  0  0  0
  -28.3785  -17.1281   19.9535 C   0  0  0  0  0  0
  -31.8261  -17.5872   21.5139 C   0  0  0  0  0  0
  -31.3949  -16.2704   18.7713 C   0  0  2  0  0  0
  -32.7045  -16.9193   19.3728 C   0  0  1  0  0  0
  -30.7063  -17.1948   17.7398 C   0  0  0  0  0  0
  -33.6406  -17.5059   18.3063 C   0  0  0  0  0  0
  -26.9612  -17.0133   18.0227 C   0  0  0  0  0  0
  -27.7597  -20.5284   21.7096 C   0  0  0  0  0  0
  -28.2226  -24.1657   20.3813 C   0  0  0  0  0  0
  -27.8993  -23.0116   21.3723 C   0  0  0  0  0  0
  -28.2351  -25.5573   21.0589 C   0  0  0  0  0  0
  -30.4235  -15.7285   19.7845 N   0  0  0  0  0  0
  -28.1656  -21.6523   20.8259 N   0  3  0  0  0  0
  -32.5037  -17.9632   20.3214 O   0  0  0  0  0  0
  -27.8304  -16.3679   18.9475 O   0  0  0  0  0  0
  -31.4367  -12.4027   19.0977 H   0  0  0  0  0  0
  -30.2759  -11.3918   19.9266 H   0  0  0  0  0  0
  -29.7264  -11.6559   17.4692 H   0  0  0  0  0  0
  -29.6156  -13.3887   17.6761 H   0  0  0  0  0  0
  -27.8505  -11.2419   18.9006 H   0  0  0  0  0  0
  -27.3357  -12.4781   17.7894 H   0  0  0  0  0  0
  -27.6063  -14.1879   19.4121 H   0  0  0  0  0  0
  -28.7298  -12.2451   21.4687 H   0  0  0  0  0  0
  -28.4870  -13.9719   21.6797 H   0  0  0  0  0  0
  -25.2717   -9.5691   22.4757 H   0  0  0  0  0  0
  -23.9998   -7.4618   22.7438 H   0  0  0  0  0  0
  -21.0823   -8.8737   19.8924 H   0  0  0  0  0  0
  -22.3643  -10.9657   19.6173 H   0  0  0  0  0  0
  -21.2009   -7.6127   23.9715 H   0  0  0  0  0  0
  -21.1487   -6.0496   25.9081 H   0  0  0  0  0  0
  -22.0598   -2.7586   23.2852 H   0  0  0  0  0  0
  -22.4035  -11.9911   22.4903 H   0  0  0  0  0  0
  -21.1038  -13.1227   22.2576 H   0  0  0  0  0  0
  -24.6744  -15.8465   20.5466 H   0  0  0  0  0  0
  -26.2937  -15.6075   20.1006 H   0  0  0  0  0  0
  -26.7120  -32.5545   23.1174 H   0  0  0  0  0  0
  -25.0082  -33.9791   25.0498 H   0  0  0  0  0  0
  -22.6896  -31.3103   21.4179 H   0  0  0  0  0  0
  -23.3744  -35.9634   23.3321 H   0  0  0  0  0  0
  -24.3579  -36.8905   22.2054 H   0  0  0  0  0  0
  -23.7220  -37.6512   23.6638 H   0  0  0  0  0  0
  -26.0413  -31.6074   20.5900 H   0  0  0  0  0  0
  -26.8171  -30.8937   21.9769 H   0  0  0  0  0  0
  -28.0982  -29.1108   21.1559 H   0  0  0  0  0  0
  -26.0479  -25.9632   19.0353 H   0  0  0  0  0  0
  -23.9654  -27.2954   19.0504 H   0  0  0  0  0  0
  -23.7042  -30.6011   19.4042 H   0  0  0  0  0  0
  -22.7289  -29.2418   19.8758 H   0  0  0  0  0  0
  -25.1293  -36.1999   25.0824 H   0  0  0  0  0  0
  -20.9973  -28.3231   24.1454 H   0  0  0  0  0  0
  -20.5714  -26.2247   23.3622 H   0  0  0  0  0  0
  -21.6653  -26.7453   22.1228 H   0  0  0  0  0  0
  -19.6903  -25.6300   21.1254 H   0  0  0  0  0  0
  -19.6698  -27.3229   20.6800 H   0  0  0  0  0  0
  -17.4218  -26.6703   21.4008 H   0  0  0  0  0  0
  -18.0295  -26.0056   22.9003 H   0  0  0  0  0  0
  -19.7927  -30.7303   24.2231 H   0  0  0  0  0  0
  -17.4996  -31.6266   24.5176 H   0  0  0  0  0  0
  -15.5342  -30.2988   23.7653 H   0  0  0  0  0  0
  -15.8663  -28.0837   22.7049 H   0  0  0  0  0  0
  -24.5939  -30.7025   25.7806 H   0  0  0  0  0  0
  -24.8925  -32.2827   26.4918 H   0  0  0  0  0  0
  -25.8107  -30.8860   27.0222 H   0  0  0  0  0  0
  -26.2840  -29.6804   24.1165 H   0  0  0  0  0  0
  -27.4139  -29.7290   25.4511 H   0  0  0  0  0  0
  -27.8644  -30.4384   23.9178 H   0  0  0  0  0  0
  -27.2681  -33.3625   26.2051 H   0  0  0  0  0  0
  -28.3841  -32.6891   25.0272 H   0  0  0  0  0  0
  -28.0750  -31.8449   26.5367 H   0  0  0  0  0  0
  -28.2628  -38.0083   24.7536 H   0  0  0  0  0  0
  -28.1047  -36.2622   24.6293 H   0  0  0  0  0  0
  -27.2293  -37.1470   25.8873 H   0  0  0  0  0  0
  -20.9287  -29.8717   21.6954 H   0  0  0  0  0  0
  -26.0186  -38.2883   24.1409 H   0  0  0  0  0  0
  -30.2272  -19.5650   22.3682 H   0  0  0  0  0  0
  -26.7609  -18.5873   20.0597 H   0  0  0  0  0  0
  -32.1198  -16.6017   21.8724 H   0  0  0  0  0  0
  -32.1198  -18.2806   22.3024 H   0  0  0  0  0  0
  -31.7286  -15.4159   18.1770 H   0  0  0  0  0  0
  -33.3218  -16.1709   19.8648 H   0  0  0  0  0  0
  -30.4232  -18.1512   18.1794 H   0  0  0  0  0  0
  -29.8171  -16.7281   17.3174 H   0  0  0  0  0  0
  -31.3614  -17.4076   16.8959 H   0  0  0  0  0  0
  -33.2174  -18.3901   17.8305 H   0  0  0  0  0  0
  -33.8643  -16.7761   17.5280 H   0  0  0  0  0  0
  -34.5904  -17.8064   18.7512 H   0  0  0  0  0  0
  -26.7872  -16.3506   17.1754 H   0  0  0  0  0  0
  -27.4072  -17.9290   17.6312 H   0  0  0  0  0  0
  -25.9905  -17.2469   18.4634 H   0  0  0  0  0  0
  -28.0487  -20.7417   22.7393 H   0  0  0  0  0  0
  -26.6729  -20.4369   21.7064 H   0  0  0  0  0  0
  -27.4859  -24.1586   19.5772 H   0  0  0  0  0  0
  -29.1940  -24.0033   19.9156 H   0  0  0  0  0  0
  -26.8515  -23.0811   21.6708 H   0  0  0  0  0  0
  -28.4881  -23.1356   22.2818 H   0  0  0  0  0  0
  -29.0790  -25.6151   21.7474 H   0  0  0  0  0  0
  -27.3491  -25.6554   21.6907 H   0  0  0  0  0  0
  -27.6923  -21.5451   19.9445 H   0  0  0  0  0  0
  -29.1535  -21.5660   20.6562 H   0  0  0  0  0  0
  1 25  1  0  0  0
  1 30  2  0  0  0
  1 87  1  0  0  0
  2  3  1  0  0  0
  2 25  1  0  0  0
  2 91  1  0  0  0
  2 92  1  0  0  0
  3  4  1  0  0  0
  3 93  1  0  0  0
  3 94  1  0  0  0
  4  5  1  0  0  0
  4 95  1  0  0  0
  4 96  1  0  0  0
  5  6  1  0  0  0
  5 26  1  0  0  0
  5 97  1  0  0  0
  6 25  1  0  0  0
  6 98  1  0  0  0
  6 99  1  0  0  0
  7  8  2  0  0  0
  7 26  1  0  0  0
  7 29  1  0  0  0
  8  9  1  0  0  0
  8 22  1  0  0  0
  9 10  1  0  0  0
  9 27  2  0  0  0
 10 11  2  0  0  0
 10 15  1  0  0  0
 11 12  1  0  0  0
 11100  1  0  0  0
 12 13  2  0  0  0
 12101  1  0  0  0
 13 14  1  0  0  0
 13 31  1  0  0  0
 14 15  2  0  0  0
 14102  1  0  0  0
 15103  1  0  0  0
 16 17  2  0  0  0
 16 21  1  0  0  0
 16 31  1  0  0  0
 17 18  1  0  0  0
 17104  1  0  0  0
 18 19  2  0  0  0
 18105  1  0  0  0
 19 20  1  0  0  0
 19 24  1  0  0  0
 20 21  2  0  0  0
 20106  1  0  0  0
 21 23  1  0  0  0
 22 28  1  0  0  0
 22 32  2  0  0  0
 26 27  1  0  0  0
 28107  1  0  0  0
 28108  1  0  0  0
 29109  1  0  0  0
 29110  1  0  0  0
 33 34  1  0  0  0
 33 66  1  0  0  0
 33 70  2  0  0  0
 34 36  1  0  0  0
 34 59  1  0  0  0
 34111  1  0  0  0
 35 44  2  0  0  0
 35 45  1  0  0  0
 35 68  1  0  0  0
 36 56  1  0  0  0
 36112  1  0  0  0
 37 39  1  0  0  0
 37 47  1  0  0  0
 37 66  1  0  0  0
 37113  1  0  0  0
 38 43  2  0  0  0
 38 46  1  0  0  0
 38 47  1  0  0  0
 39 64  1  0  0  0
 39 67  2  0  0  0
 40 52  1  0  0  0
 40 53  2  0  0  0
 40 58  1  0  0  0
 41114  1  0  0  0
 41115  1  0  0  0
 41116  1  0  0  0
 41 48  1  0  0  0
 42 43  1  0  0  0
 42 66  1  0  0  0
 42117  1  0  0  0
 42118  1  0  0  0
 43 44  1  0  0  0
 44119  1  0  0  0
 45 46  2  0  0  0
 45120  1  0  0  0
 46121  1  0  0  0
 47122  1  0  0  0
 47123  1  0  0  0
 48 56  1  0  0  0
 48 65  1  0  0  0
 48124  1  0  0  0
 49 50  1  0  0  0
 49 53  1  0  0  0
 49 64  1  0  0  0
 49125  1  0  0  0
 50 51  1  0  0  0
 50126  1  0  0  0
 50127  1  0  0  0
 51 52  1  0  0  0
 51128  1  0  0  0
 51129  1  0  0  0
 52130  1  0  0  0
 52131  1  0  0  0
 53 54  1  0  0  0
 54 55  2  0  0  0
 54132  1  0  0  0
 55 57  1  0  0  0
 55133  1  0  0  0
 56 69  2  0  0  0
 57 58  2  0  0  0
 57134  1  0  0  0
 58135  1  0  0  0
 59 60  1  0  0  0
 59 61  1  0  0  0
 59 62  1  0  0  0
 60136  1  0  0  0
 60137  1  0  0  0
 60138  1  0  0  0
 61139  1  0  0  0
 61140  1  0  0  0
 61141  1  0  0  0
 62142  1  0  0  0
 62143  1  0  0  0
 62144  1  0  0  0
 63 65  1  0  0  0
 63145  1  0  0  0
 63146  1  0  0  0
 63147  1  0  0  0
 64148  1  0  0  0
 65149  1  0  0  0
 68 86  1  0  0  0
 71 73  2  0  0  0
 71 74  1  0  0  0
 71150  1  0  0  0
 72 74  2  0  0  0
 72 76  1  0  0  0
 72151  1  0  0  0
 73 75  1  0  0  0
 73 77  1  0  0  0
 74 83  1  0  0  0
 75 76  2  0  0  0
 75 87  1  0  0  0
 76 90  1  0  0  0
 77 89  1  0  0  0
 77152  1  0  0  0
 77153  1  0  0  0
 78 79  1  0  0  0
 78 80  1  0  0  0
 78 87  1  0  0  0
 78154  1  0  0  0
 79 81  1  0  0  0
 79 89  1  0  0  0
 79155  1  0  0  0
 80156  1  0  0  0
 80157  1  0  0  0
 80158  1  0  0  0
 81159  1  0  0  0
 81160  1  0  0  0
 81161  1  0  0  0
 82 90  1  0  0  0
 82162  1  0  0  0
 82163  1  0  0  0
 82164  1  0  0  0
 83 88  1  0  0  0
 83165  1  0  0  0
 83166  1  0  0  0
 84 85  1  0  0  0
 84 86  1  0  0  0
 84167  1  0  0  0
 84168  1  0  0  0
 85 88  1  0  0  0
 85169  1  0  0  0
 85170  1  0  0  0
 86171  1  0  0  0
 86172  1  0  0  0
 88173  1  0  0  0
 88174  1  0  0  0
M  CHG  1  88   1
M  ISO  4   1 100  68 101  86 101  87 100
M  END
> <chiral flag>
0

> <version>
0

> <s_m_source_file>
/data/baiqing/PycharmProjects/Reinvent-master-3.2/result/LINK_invent/BTK/process_docking_weight1_custom_sum_contain_oxygen_bond_distance_aromatic_linkinvent_7_9_3/rearranged_h_0140.sdf

> <i_m_source_file_index>
52

> <r_mmod_Potential_Energy-OPLS-2005>
49.972713470459

> <r_mmod_Stretch_Energy-OPLS-2005>
50.6660118103027

> <r_mmod_Bend_Energy-OPLS-2005>
134.127395629883

> <r_mmod_Torsional_Energy-OPLS-2005>
372.462188720703

> <r_mmod_Improper_Torsional_Energy-OPLS-2005>
29.9506721496582

> <r_mmod_Van_der_Waal_Energy-OPLS-2005>
161.534637451172

> <r_mmod_Electrostatic_Energy-OPLS-2005>
-309.955688476562

> <r_mmod_Solvation_Energy-OPLS-2005>
-464.063720703125

> <b_mmod_Minimization_Converged-OPLS-2005>
0

> <r_mmod_RMS_Derivative-OPLS-2005>
2.35381388664246

$$$$
52
                    3D
 Structure written by MMmdl.
150159  0  0  1  0            999 V2000
  -30.4166  -15.3209   20.3730 C   0  0  0  0  0  0
  -30.4364  -12.8505   19.5271 C   0  0  0  0  0  0
  -29.5378  -12.5903   18.2909 C   0  0  0  0  0  0
  -28.0870  -12.3048   18.7170 C   0  0  0  0  0  0
  -27.6080  -13.2803   19.8208 C   0  0  2  0  0  0
  -28.6404  -13.4742   20.9518 C   0  0  0  0  0  0
  -25.2371  -13.8246   20.5752 C   0  0  0  0  0  0
  -24.1725  -13.0435   20.9265 C   0  0  0  0  0  0
  -24.6386  -11.6933   20.8762 C   0  0  0  0  0  0
  -23.9083  -10.4294   21.0404 C   0  0  0  0  0  0
  -24.3631   -9.4209   21.9180 C   0  0  0  0  0  0
  -23.6304   -8.2247   22.0753 C   0  0  0  0  0  0
  -22.4284   -8.0284   21.3548 C   0  0  0  0  0  0
  -21.9922   -9.0254   20.4644 C   0  0  0  0  0  0
  -22.7253  -10.2133   20.3053 C   0  0  0  0  0  0
  -21.6857   -6.0735   22.5280 C   0  0  0  0  0  0
  -21.4019   -6.5637   23.8214 C   0  0  0  0  0  0
  -21.3664   -5.6789   24.9177 C   0  0  0  0  0  0
  -21.6047   -4.3052   24.7225 C   0  0  0  0  0  0
  -21.8821   -3.8146   23.4347 C   0  0  0  0  0  0
  -21.9195   -4.6963   22.3405 C   0  0  0  0  0  0
  -22.7745  -13.5196   21.1902 C   0  0  0  0  0  0
  -22.1656   -4.2150   21.0981 F   0  0  0  0  0  0
  -21.5630   -3.4532   25.7734 F   0  0  0  0  0  0
  -29.8609  -14.0038   20.3197 N   0  0  0  0  0  0
  -26.2798  -12.9529   20.3214 N   0  0  0  0  0  0
  -25.9325  -11.6629   20.5715 N   0  0  0  0  0  0
  -22.0395  -12.8187   22.0457 N   0  0  0  0  0  0
  -25.3994  -15.1982   20.4198 N   0  0  0  0  0  0
  -31.6424  -15.3103   20.1821 O   0  0  0  0  0  0
  -21.6650   -6.8879   21.4243 O   0  0  0  0  0  0
  -22.3434  -14.5499   20.6735 O   0  0  0  0  0  0
  -24.6671  -31.8210   23.1697 C   0  0  0  0  0  0
  -25.9337  -32.4573   23.8171 C   0  0  1  0  0  0
  -27.2037  -26.8720   20.2066 C   0  0  0  0  0  0
  -25.5992  -33.8392   24.2068 N   0  0  0  0  0  0
  -23.4843  -30.4327   21.5201 C   0  0  2  0  0  0
  -24.9382  -28.8137   20.1176 C   0  0  0  0  0  0
  -22.7687  -29.4436   22.4779 C   0  0  0  0  0  0
  -18.0327  -28.1417   22.8464 C   0  0  0  0  0  0
  -24.1494  -36.7194   23.2648 C   0  0  0  0  0  0
  -26.0573  -30.6067   21.4143 C   0  0  0  0  0  0
  -26.1218  -29.1897   20.7656 C   0  0  0  0  0  0
  -27.2499  -28.2413   20.7880 C   0  0  0  0  0  0
  -26.0100  -26.6887   19.4706 C   0  0  0  0  0  0
  -24.9103  -27.5832   19.4475 C   0  0  0  0  0  0
  -23.7282  -29.7480   20.1479 C   0  0  0  0  0  0
  -25.4138  -36.2955   24.0296 C   0  0  1  0  0  0
  -20.5954  -28.3764   23.1174 C   0  0  2  0  0  0
  -20.6796  -26.9441   22.5401 C   0  0  0  0  0  0
  -19.5769  -26.6380   21.5217 C   0  0  0  0  0  0
  -18.1954  -26.7948   22.1624 C   0  0  0  0  0  0
  -19.1591  -28.8914   23.2801 C   0  0  0  0  0  0
  -18.9498  -30.1502   23.8838 C   0  0  0  0  0  0
  -17.6489  -30.6603   24.0555 C   0  0  0  0  0  0
  -25.9110  -34.9339   23.5006 C   0  0  0  0  0  0
  -16.5380  -29.9086   23.6348 C   0  0  0  0  0  0
  -16.7308  -28.6508   23.0364 C   0  0  0  0  0  0
  -26.4566  -31.6533   25.0720 C   0  0  0  0  0  0
  -25.3673  -31.3808   26.1363 C   0  0  0  0  0  0
  -27.0477  -30.2889   24.6510 C   0  0  0  0  0  0
  -27.6048  -32.4353   25.7525 C   0  0  0  0  0  0
  -27.5568  -37.1762   24.8469 C   0  0  0  0  0  0
  -21.4354  -29.3047   22.3518 N   0  0  0  0  0  0
  -26.4280  -37.3694   23.9408 N   0  0  0  0  0  0
  -24.7579  -30.9822   22.0870 N   0  0  0  0  0  0
  -23.4212  -28.8011   23.3041 O   0  0  0  0  0  0
  -28.1778  -25.7176   20.1976 O   0  0  0  0  0  0
  -26.5717  -34.8876   22.4599 O   0  0  0  0  0  0
  -23.5730  -32.1208   23.6754 O   0  0  0  0  0  0
  -29.2593  -21.2793   20.5487 C   0  0  0  0  0  0
  -27.7087  -19.6558   19.7072 C   0  0  0  0  0  0
  -28.3267  -22.4887   20.2812 C   0  0  0  0  0  0
  -28.9980  -19.7681   20.2706 C   0  0  0  0  0  0
  -27.1118  -21.9724   19.8254 C   0  0  0  0  0  0
  -25.9907  -22.9681   19.9904 C   0  0  0  0  0  0
  -26.5110  -23.9542   21.0629 C   0  0  0  0  0  0
  -28.0253  -24.1569   20.8052 C   0  0  2  0  0  0
  -29.9420  -18.2777   20.4828 C   0  0  0  0  0  0
  -26.8207  -20.6761   19.5217 N   0  0  0  0  0  0
  -29.6509  -16.6080   20.4451 N   0  0  0  0  0  0
  -31.4528  -13.0636   19.1934 H   0  0  0  0  0  0
  -30.5158  -11.9529   20.1426 H   0  0  0  0  0  0
  -29.9284  -11.7594   17.7021 H   0  0  0  0  0  0
  -29.5599  -13.4655   17.6399 H   0  0  0  0  0  0
  -28.0473  -11.2808   19.0905 H   0  0  0  0  0  0
  -27.4199  -12.3412   17.8546 H   0  0  0  0  0  0
  -27.5148  -14.2426   19.3159 H   0  0  0  0  0  0
  -28.8237  -12.5427   21.4893 H   0  0  0  0  0  0
  -28.2695  -14.1891   21.6872 H   0  0  0  0  0  0
  -25.2769   -9.5688   22.4760 H   0  0  0  0  0  0
  -24.0007   -7.4644   22.7481 H   0  0  0  0  0  0
  -21.0847   -8.8777   19.8954 H   0  0  0  0  0  0
  -22.3704  -10.9672   19.6165 H   0  0  0  0  0  0
  -21.2006   -7.6145   23.9715 H   0  0  0  0  0  0
  -21.1485   -6.0519   25.9079 H   0  0  0  0  0  0
  -22.0595   -2.7608   23.2846 H   0  0  0  0  0  0
  -22.4019  -11.9867   22.4871 H   0  0  0  0  0  0
  -21.1006  -13.1204   22.2641 H   0  0  0  0  0  0
  -24.6282  -15.8465   20.5367 H   0  0  0  0  0  0
  -26.2335  -15.6393   20.0568 H   0  0  0  0  0  0
  -26.7412  -32.5088   23.0887 H   0  0  0  0  0  0
  -25.0082  -33.9468   25.0181 H   0  0  0  0  0  0
  -22.8002  -31.2657   21.3473 H   0  0  0  0  0  0
  -23.3766  -35.9515   23.3289 H   0  0  0  0  0  0
  -24.3568  -36.8865   22.2068 H   0  0  0  0  0  0
  -23.7248  -37.6373   23.6721 H   0  0  0  0  0  0
  -26.2462  -31.3417   20.6305 H   0  0  0  0  0  0
  -26.9141  -30.6657   22.0730 H   0  0  0  0  0  0
  -28.1439  -28.5317   21.3207 H   0  0  0  0  0  0
  -25.8918  -25.7636   18.9273 H   0  0  0  0  0  0
  -24.0221  -27.2958   18.9019 H   0  0  0  0  0  0
  -23.8895  -30.5156   19.3907 H   0  0  0  0  0  0
  -22.8367  -29.2071   19.8261 H   0  0  0  0  0  0
  -25.1341  -36.1745   25.0787 H   0  0  0  0  0  0
  -21.0039  -28.3371   24.1298 H   0  0  0  0  0  0
  -20.5676  -26.2387   23.3646 H   0  0  0  0  0  0
  -21.6658  -26.7409   22.1210 H   0  0  0  0  0  0
  -19.6926  -25.6278   21.1278 H   0  0  0  0  0  0
  -19.6702  -27.3159   20.6721 H   0  0  0  0  0  0
  -17.4221  -26.6694   21.4026 H   0  0  0  0  0  0
  -18.0344  -26.0103   22.9032 H   0  0  0  0  0  0
  -19.7976  -30.7339   24.2172 H   0  0  0  0  0  0
  -17.5042  -31.6275   24.5170 H   0  0  0  0  0  0
  -15.5376  -30.2968   23.7710 H   0  0  0  0  0  0
  -15.8710  -28.0809   22.7107 H   0  0  0  0  0  0
  -24.5868  -30.7145   25.7674 H   0  0  0  0  0  0
  -24.8845  -32.3017   26.4640 H   0  0  0  0  0  0
  -25.7880  -30.9073   27.0242 H   0  0  0  0  0  0
  -26.3167  -29.6545   24.1486 H   0  0  0  0  0  0
  -27.3946  -29.7280   25.5201 H   0  0  0  0  0  0
  -27.9133  -30.4056   23.9987 H   0  0  0  0  0  0
  -27.2612  -33.3705   26.1959 H   0  0  0  0  0  0
  -28.3930  -32.6835   25.0405 H   0  0  0  0  0  0
  -28.0634  -31.8577   26.5562 H   0  0  0  0  0  0
  -28.2571  -38.0066   24.7500 H   0  0  0  0  0  0
  -28.1072  -36.2594   24.6314 H   0  0  0  0  0  0
  -27.2280  -37.1423   25.8868 H   0  0  0  0  0  0
  -20.9623  -29.8737   21.6636 H   0  0  0  0  0  0
  -26.0121  -38.2753   24.1398 H   0  0  0  0  0  0
  -30.1937  -21.5095   21.0392 H   0  0  0  0  0  0
  -27.3421  -18.6782   19.4299 H   0  0  0  0  0  0
  -25.0619  -22.4891   20.3018 H   0  0  0  0  0  0
  -25.8140  -23.4670   19.0381 H   0  0  0  0  0  0
  -26.4233  -23.4364   22.0192 H   0  0  0  0  0  0
  -25.9026  -24.8433   21.1935 H   0  0  0  0  0  0
  -28.5218  -24.2303   21.7736 H   0  0  0  0  0  0
  -30.7607  -18.4002   19.7733 H   0  0  0  0  0  0
  -30.4208  -18.4219   21.4519 H   0  0  0  0  0  0
  -28.6669  -16.4058   20.5401 H   0  0  0  0  0  0
  1 25  1  0  0  0
  1 30  2  0  0  0
  1 81  1  0  0  0
  2  3  1  0  0  0
  2 25  1  0  0  0
  2 82  1  0  0  0
  2 83  1  0  0  0
  3  4  1  0  0  0
  3 84  1  0  0  0
  3 85  1  0  0  0
  4  5  1  0  0  0
  4 86  1  0  0  0
  4 87  1  0  0  0
  5  6  1  0  0  0
  5 26  1  0  0  0
  5 88  1  0  0  0
  6 25  1  0  0  0
  6 89  1  0  0  0
  6 90  1  0  0  0
  7  8  2  0  0  0
  7 26  1  0  0  0
  7 29  1  0  0  0
  8  9  1  0  0  0
  8 22  1  0  0  0
  9 10  1  0  0  0
  9 27  2  0  0  0
 10 11  2  0  0  0
 10 15  1  0  0  0
 11 12  1  0  0  0
 11 91  1  0  0  0
 12 13  2  0  0  0
 12 92  1  0  0  0
 13 14  1  0  0  0
 13 31  1  0  0  0
 14 15  2  0  0  0
 14 93  1  0  0  0
 15 94  1  0  0  0
 16 17  2  0  0  0
 16 21  1  0  0  0
 16 31  1  0  0  0
 17 18  1  0  0  0
 17 95  1  0  0  0
 18 19  2  0  0  0
 18 96  1  0  0  0
 19 20  1  0  0  0
 19 24  1  0  0  0
 20 21  2  0  0  0
 20 97  1  0  0  0
 21 23  1  0  0  0
 22 28  1  0  0  0
 22 32  2  0  0  0
 26 27  1  0  0  0
 28 98  1  0  0  0
 28 99  1  0  0  0
 29100  1  0  0  0
 29101  1  0  0  0
 33 34  1  0  0  0
 33 66  1  0  0  0
 33 70  2  0  0  0
 34 36  1  0  0  0
 34 59  1  0  0  0
 34102  1  0  0  0
 35 44  2  0  0  0
 35 45  1  0  0  0
 35 68  1  0  0  0
 36 56  1  0  0  0
 36103  1  0  0  0
 37 39  1  0  0  0
 37 47  1  0  0  0
 37 66  1  0  0  0
 37104  1  0  0  0
 38 43  2  0  0  0
 38 46  1  0  0  0
 38 47  1  0  0  0
 39 64  1  0  0  0
 39 67  2  0  0  0
 40 52  1  0  0  0
 40 53  2  0  0  0
 40 58  1  0  0  0
 41105  1  0  0  0
 41106  1  0  0  0
 41107  1  0  0  0
 41 48  1  0  0  0
 42 43  1  0  0  0
 42 66  1  0  0  0
 42108  1  0  0  0
 42109  1  0  0  0
 43 44  1  0  0  0
 44110  1  0  0  0
 45 46  2  0  0  0
 45111  1  0  0  0
 46112  1  0  0  0
 47113  1  0  0  0
 47114  1  0  0  0
 48 56  1  0  0  0
 48 65  1  0  0  0
 48115  1  0  0  0
 49 50  1  0  0  0
 49 53  1  0  0  0
 49 64  1  0  0  0
 49116  1  0  0  0
 50 51  1  0  0  0
 50117  1  0  0  0
 50118  1  0  0  0
 51 52  1  0  0  0
 51119  1  0  0  0
 51120  1  0  0  0
 52121  1  0  0  0
 52122  1  0  0  0
 53 54  1  0  0  0
 54 55  2  0  0  0
 54123  1  0  0  0
 55 57  1  0  0  0
 55124  1  0  0  0
 56 69  2  0  0  0
 57 58  2  0  0  0
 57125  1  0  0  0
 58126  1  0  0  0
 59 60  1  0  0  0
 59 61  1  0  0  0
 59 62  1  0  0  0
 60127  1  0  0  0
 60128  1  0  0  0
 60129  1  0  0  0
 61130  1  0  0  0
 61131  1  0  0  0
 61132  1  0  0  0
 62133  1  0  0  0
 62134  1  0  0  0
 62135  1  0  0  0
 63 65  1  0  0  0
 63136  1  0  0  0
 63137  1  0  0  0
 63138  1  0  0  0
 64139  1  0  0  0
 65140  1  0  0  0
 68 78  1  0  0  0
 71 73  2  0  0  0
 71 74  1  0  0  0
 71141  1  0  0  0
 72 74  2  0  0  0
 72 80  1  0  0  0
 72142  1  0  0  0
 73 75  1  0  0  0
 73 78  1  0  0  0
 74 79  1  0  0  0
 75 76  1  0  0  0
 75 80  2  0  0  0
 76 77  1  0  0  0
 76143  1  0  0  0
 76144  1  0  0  0
 77 78  1  0  0  0
 77145  1  0  0  0
 77146  1  0  0  0
 78147  1  0  0  0
 79 81  1  0  0  0
 79148  1  0  0  0
 79149  1  0  0  0
 81150  1  0  0  0
M  ISO  4   1 100  68 101  78 101  81 100
M  END
> <chiral flag>
0

> <version>
0

> <s_m_source_file>
/data/baiqing/PycharmProjects/Reinvent-master-3.2/result/LINK_invent/BTK/process_docking_weight1_custom_sum_contain_oxygen_bond_distance_aromatic_linkinvent_7_9_3/rearranged_h_0140.sdf

> <i_m_source_file_index>
53

> <r_mmod_Potential_Energy-OPLS-2005>
1415.23254394531

> <r_mmod_Stretch_Energy-OPLS-2005>
652.552856445312

> <r_mmod_Bend_Energy-OPLS-2005>
536.560119628906

> <r_mmod_Torsional_Energy-OPLS-2005>
261.805053710938

> <r_mmod_Improper_Torsional_Energy-OPLS-2005>
13.2725648880005

> <r_mmod_Van_der_Waal_Energy-OPLS-2005>
126.763671875

> <r_mmod_Electrostatic_Energy-OPLS-2005>
-476.824920654297

> <r_mmod_Solvation_Energy-OPLS-2005>
-228.138137817383

> <b_mmod_Minimization_Converged-OPLS-2005>
0

> <r_mmod_RMS_Derivative-OPLS-2005>
1.00411880016327

$$$$
53
                    3D
 Structure written by MMmdl.
159168  0  0  1  0            999 V2000
  -30.6193  -14.6382   20.5088 C   0  0  0  0  0  0
  -30.4399  -12.3936   19.4435 C   0  0  0  0  0  0
  -29.5001  -12.5059   18.2210 C   0  0  0  0  0  0
  -28.0281  -12.3288   18.6443 C   0  0  0  0  0  0
  -27.6541  -13.2079   19.8660 C   0  0  2  0  0  0
  -28.7015  -13.0577   20.9938 C   0  0  0  0  0  0
  -25.2574  -13.8157   20.5704 C   0  0  0  0  0  0
  -24.1830  -13.0430   20.9191 C   0  0  0  0  0  0
  -24.6389  -11.6896   20.8750 C   0  0  0  0  0  0
  -23.9066  -10.4287   21.0414 C   0  0  0  0  0  0
  -24.3618   -9.4200   21.9189 C   0  0  0  0  0  0
  -23.6288   -8.2238   22.0763 C   0  0  0  0  0  0
  -22.4275   -8.0278   21.3546 C   0  0  0  0  0  0
  -21.9910   -9.0250   20.4654 C   0  0  0  0  0  0
  -22.7240  -10.2128   20.3059 C   0  0  0  0  0  0
  -21.6846   -6.0734   22.5283 C   0  0  0  0  0  0
  -21.4010   -6.5642   23.8215 C   0  0  0  0  0  0
  -21.3660   -5.6793   24.9179 C   0  0  0  0  0  0
  -21.6043   -4.3054   24.7224 C   0  0  0  0  0  0
  -21.8817   -3.8147   23.4346 C   0  0  0  0  0  0
  -21.9191   -4.6965   22.3407 C   0  0  0  0  0  0
  -22.7854  -13.5233   21.1841 C   0  0  0  0  0  0
  -22.1657   -4.2149   21.0979 F   0  0  0  0  0  0
  -21.5634   -3.4539   25.7737 F   0  0  0  0  0  0
  -30.0168  -13.4078   20.4303 N   0  0  0  0  0  0
  -26.2996  -12.9317   20.3352 N   0  0  0  0  0  0
  -25.9316  -11.6487   20.5790 N   0  0  0  0  0  0
  -22.0491  -12.8222   22.0396 N   0  0  0  0  0  0
  -25.4292  -15.1886   20.4143 N   0  0  0  0  0  0
  -31.7787  -14.8036   20.1134 O   0  0  0  0  0  0
  -21.6637   -6.8877   21.4243 O   0  0  0  0  0  0
  -22.3552  -14.5551   20.6701 O   0  0  0  0  0  0
  -24.6263  -31.8592   23.2033 C   0  0  0  0  0  0
  -25.9112  -32.4770   23.8358 C   0  0  1  0  0  0
  -27.2254  -27.3248   20.1091 C   0  0  0  0  0  0
  -25.5923  -33.8570   24.2270 N   0  0  0  0  0  0
  -23.4196  -30.4851   21.5448 C   0  0  2  0  0  0
  -24.8651  -28.9434   20.1089 C   0  0  0  0  0  0
  -22.7481  -29.4620   22.4926 C   0  0  0  0  0  0
  -18.0283  -28.1378   22.8488 C   0  0  0  0  0  0
  -24.1488  -36.7292   23.2648 C   0  0  0  0  0  0
  -25.9623  -30.7910   21.3763 C   0  0  0  0  0  0
  -26.0344  -29.4214   20.7142 C   0  0  0  0  0  0
  -27.2153  -28.6231   20.7051 C   0  0  0  0  0  0
  -26.0331  -26.9043   19.4724 C   0  0  0  0  0  0
  -24.8672  -27.6899   19.4794 C   0  0  0  0  0  0
  -23.6341  -29.8222   20.1593 C   0  0  0  0  0  0
  -25.4104  -36.3073   24.0335 C   0  0  1  0  0  0
  -20.5890  -28.3677   23.1275 C   0  0  2  0  0  0
  -20.6764  -26.9402   22.5392 C   0  0  0  0  0  0
  -19.5730  -26.6375   21.5205 C   0  0  0  0  0  0
  -18.1916  -26.7925   22.1616 C   0  0  0  0  0  0
  -19.1539  -28.8841   23.2881 C   0  0  0  0  0  0
  -18.9477  -30.1450   23.8889 C   0  0  0  0  0  0
  -17.6480  -30.6578   24.0562 C   0  0  0  0  0  0
  -25.9048  -34.9452   23.5100 C   0  0  0  0  0  0
  -16.5369  -29.9077   23.6340 C   0  0  0  0  0  0
  -16.7273  -28.6505   23.0341 C   0  0  0  0  0  0
  -26.4489  -31.6595   25.0744 C   0  0  0  0  0  0
  -25.3732  -31.3724   26.1482 C   0  0  0  0  0  0
  -27.0375  -30.3030   24.6222 C   0  0  0  0  0  0
  -27.6035  -32.4359   25.7506 C   0  0  0  0  0  0
  -27.5568  -37.1801   24.8463 C   0  0  0  0  0  0
  -21.4193  -29.3050   22.3694 N   0  0  0  0  0  0
  -26.4274  -37.3775   23.9423 N   0  0  0  0  0  0
  -24.6874  -31.0626   22.0975 N   0  0  0  0  0  0
  -23.4218  -28.8143   23.2978 O   0  0  0  0  0  0
  -28.3486  -26.4841   20.1743 O   0  0  0  0  0  0
  -26.5625  -34.8927   22.4674 O   0  0  0  0  0  0
  -23.5424  -32.1374   23.7361 O   0  0  0  0  0  0
  -28.6624  -19.2148   21.4388 C   0  0  0  0  0  0
  -28.7307  -17.7959   21.3908 C   0  0  0  0  0  0
  -30.7892  -19.2506   20.3750 C   0  0  0  0  0  0
  -29.7220  -20.0069   20.9379 C   0  0  0  0  0  0
  -29.8516  -17.1165   20.8517 C   0  0  0  0  0  0
  -31.5815  -22.8402   22.6856 C   0  0  0  0  0  0
  -32.0367  -21.4079   22.5824 C   0  0  0  0  0  0
  -31.2192  -22.0200   21.4632 C   0  0  0  0  0  0
  -29.1955  -24.0310   20.6120 C   0  0  0  0  0  0
  -28.1882  -25.0334   19.9080 C   0  0  0  0  0  0
  -29.7821  -21.5676   21.2072 C   0  0  1  0  0  0
  -30.8528  -17.8797   20.3323 N   0  0  0  0  0  0
  -29.7976  -15.6589   20.9101 N   0  0  0  0  0  0
  -29.0661  -22.5408   20.2841 N   0  3  0  0  0  0
  -31.4782  -12.5244   19.1336 H   0  0  0  0  0  0
  -30.3827  -11.3946   19.8796 H   0  0  0  0  0  0
  -29.7630  -11.7583   17.4711 H   0  0  0  0  0  0
  -29.6271  -13.4778   17.7420 H   0  0  0  0  0  0
  -27.8847  -11.2759   18.8937 H   0  0  0  0  0  0
  -27.3604  -12.5335   17.8069 H   0  0  0  0  0  0
  -27.6735  -14.2412   19.5199 H   0  0  0  0  0  0
  -28.7173  -12.0328   21.3675 H   0  0  0  0  0  0
  -28.4447  -13.6764   21.8543 H   0  0  0  0  0  0
  -25.2765   -9.5671   22.4761 H   0  0  0  0  0  0
  -23.9995   -7.4634   22.7489 H   0  0  0  0  0  0
  -21.0840   -8.8774   19.8958 H   0  0  0  0  0  0
  -22.3709  -10.9667   19.6165 H   0  0  0  0  0  0
  -21.1998   -7.6146   23.9718 H   0  0  0  0  0  0
  -21.1485   -6.0524   25.9080 H   0  0  0  0  0  0
  -22.0594   -2.7607   23.2847 H   0  0  0  0  0  0
  -22.4091  -11.9867   22.4754 H   0  0  0  0  0  0
  -21.1116  -13.1262   22.2612 H   0  0  0  0  0  0
  -24.6561  -15.8357   20.5252 H   0  0  0  0  0  0
  -26.2726  -15.6367   20.0798 H   0  0  0  0  0  0
  -26.7200  -32.5433   23.1126 H   0  0  0  0  0  0
  -25.0079  -33.9710   25.0418 H   0  0  0  0  0  0
  -22.7141  -31.3064   21.4015 H   0  0  0  0  0  0
  -23.3754  -35.9622   23.3276 H   0  0  0  0  0  0
  -24.3592  -36.8925   22.2071 H   0  0  0  0  0  0
  -23.7237  -37.6485   23.6685 H   0  0  0  0  0  0
  -26.1023  -31.5574   20.6123 H   0  0  0  0  0  0
  -26.8416  -30.8310   22.0093 H   0  0  0  0  0  0
  -28.1121  -28.9845   21.1898 H   0  0  0  0  0  0
  -25.9662  -25.9526   18.9668 H   0  0  0  0  0  0
  -23.9739  -27.3167   18.9990 H   0  0  0  0  0  0
  -23.7541  -30.5999   19.4041 H   0  0  0  0  0  0
  -22.7545  -29.2535   19.8520 H   0  0  0  0  0  0
  -25.1281  -36.1916   25.0827 H   0  0  0  0  0  0
  -20.9988  -28.3237   24.1389 H   0  0  0  0  0  0
  -20.5649  -26.2297   23.3591 H   0  0  0  0  0  0
  -21.6627  -26.7410   22.1193 H   0  0  0  0  0  0
  -19.6887  -25.6289   21.1218 H   0  0  0  0  0  0
  -19.6653  -27.3205   20.6755 H   0  0  0  0  0  0
  -17.4184  -26.6702   21.4013 H   0  0  0  0  0  0
  -18.0288  -26.0045   22.8988 H   0  0  0  0  0  0
  -19.7963  -30.7272   24.2234 H   0  0  0  0  0  0
  -17.5040  -31.6257   24.5166 H   0  0  0  0  0  0
  -15.5372  -30.2978   23.7674 H   0  0  0  0  0  0
  -15.8669  -28.0839   22.7035 H   0  0  0  0  0  0
  -24.5907  -30.7056   25.7827 H   0  0  0  0  0  0
  -24.8936  -32.2888   26.4931 H   0  0  0  0  0  0
  -25.8067  -30.8900   27.0253 H   0  0  0  0  0  0
  -26.2983  -29.6741   24.1249 H   0  0  0  0  0  0
  -27.4087  -29.7307   25.4736 H   0  0  0  0  0  0
  -27.8817  -30.4328   23.9449 H   0  0  0  0  0  0
  -27.2635  -33.3668   26.2053 H   0  0  0  0  0  0
  -28.3846  -32.6908   25.0335 H   0  0  0  0  0  0
  -28.0709  -31.8526   26.5445 H   0  0  0  0  0  0
  -28.2564  -38.0124   24.7537 H   0  0  0  0  0  0
  -28.1083  -36.2653   24.6236 H   0  0  0  0  0  0
  -27.2304  -37.1378   25.8872 H   0  0  0  0  0  0
  -20.9368  -29.8832   21.6962 H   0  0  0  0  0  0
  -26.0137  -38.2842   24.1435 H   0  0  0  0  0  0
  -27.8096  -19.6866   21.9065 H   0  0  0  0  0  0
  -27.9071  -17.2329   21.8098 H   0  0  0  0  0  0
  -31.6625  -19.7546   19.9875 H   0  0  0  0  0  0
  -32.3227  -23.6264   22.5522 H   0  0  0  0  0  0
  -30.8025  -23.0584   23.4149 H   0  0  0  0  0  0
  -31.5501  -20.6813   23.2313 H   0  0  0  0  0  0
  -33.0940  -21.2299   22.3978 H   0  0  0  0  0  0
  -31.7829  -22.2247   20.5542 H   0  0  0  0  0  0
  -29.0772  -24.1560   21.6876 H   0  0  0  0  0  0
  -30.2110  -24.3475   20.3758 H   0  0  0  0  0  0
  -27.1977  -24.7078   20.2243 H   0  0  0  0  0  0
  -28.2353  -24.8895   18.8274 H   0  0  0  0  0  0
  -29.2633  -21.6839   22.1607 H   0  0  0  0  0  0
  -28.9158  -15.3070   21.2433 H   0  0  0  0  0  0
  -29.3920  -22.3938   19.3414 H   0  0  0  0  0  0
  -28.0890  -22.2938   20.2926 H   0  0  0  0  0  0
  1 25  1  0  0  0
  1 30  2  0  0  0
  1 83  1  0  0  0
  2  3  1  0  0  0
  2 25  1  0  0  0
  2 85  1  0  0  0
  2 86  1  0  0  0
  3  4  1  0  0  0
  3 87  1  0  0  0
  3 88  1  0  0  0
  4  5  1  0  0  0
  4 89  1  0  0  0
  4 90  1  0  0  0
  5  6  1  0  0  0
  5 26  1  0  0  0
  5 91  1  0  0  0
  6 25  1  0  0  0
  6 92  1  0  0  0
  6 93  1  0  0  0
  7  8  2  0  0  0
  7 26  1  0  0  0
  7 29  1  0  0  0
  8  9  1  0  0  0
  8 22  1  0  0  0
  9 10  1  0  0  0
  9 27  2  0  0  0
 10 11  2  0  0  0
 10 15  1  0  0  0
 11 12  1  0  0  0
 11 94  1  0  0  0
 12 13  2  0  0  0
 12 95  1  0  0  0
 13 14  1  0  0  0
 13 31  1  0  0  0
 14 15  2  0  0  0
 14 96  1  0  0  0
 15 97  1  0  0  0
 16 17  2  0  0  0
 16 21  1  0  0  0
 16 31  1  0  0  0
 17 18  1  0  0  0
 17 98  1  0  0  0
 18 19  2  0  0  0
 18 99  1  0  0  0
 19 20  1  0  0  0
 19 24  1  0  0  0
 20 21  2  0  0  0
 20100  1  0  0  0
 21 23  1  0  0  0
 22 28  1  0  0  0
 22 32  2  0  0  0
 26 27  1  0  0  0
 28101  1  0  0  0
 28102  1  0  0  0
 29103  1  0  0  0
 29104  1  0  0  0
 33 34  1  0  0  0
 33 66  1  0  0  0
 33 70  2  0  0  0
 34 36  1  0  0  0
 34 59  1  0  0  0
 34105  1  0  0  0
 35 44  2  0  0  0
 35 45  1  0  0  0
 35 68  1  0  0  0
 36 56  1  0  0  0
 36106  1  0  0  0
 37 39  1  0  0  0
 37 47  1  0  0  0
 37 66  1  0  0  0
 37107  1  0  0  0
 38 43  2  0  0  0
 38 46  1  0  0  0
 38 47  1  0  0  0
 39 64  1  0  0  0
 39 67  2  0  0  0
 40 52  1  0  0  0
 40 53  2  0  0  0
 40 58  1  0  0  0
 41108  1  0  0  0
 41109  1  0  0  0
 41110  1  0  0  0
 41 48  1  0  0  0
 42 43  1  0  0  0
 42 66  1  0  0  0
 42111  1  0  0  0
 42112  1  0  0  0
 43 44  1  0  0  0
 44113  1  0  0  0
 45 46  2  0  0  0
 45114  1  0  0  0
 46115  1  0  0  0
 47116  1  0  0  0
 47117  1  0  0  0
 48 56  1  0  0  0
 48 65  1  0  0  0
 48118  1  0  0  0
 49 50  1  0  0  0
 49 53  1  0  0  0
 49 64  1  0  0  0
 49119  1  0  0  0
 50 51  1  0  0  0
 50120  1  0  0  0
 50121  1  0  0  0
 51 52  1  0  0  0
 51122  1  0  0  0
 51123  1  0  0  0
 52124  1  0  0  0
 52125  1  0  0  0
 53 54  1  0  0  0
 54 55  2  0  0  0
 54126  1  0  0  0
 55 57  1  0  0  0
 55127  1  0  0  0
 56 69  2  0  0  0
 57 58  2  0  0  0
 57128  1  0  0  0
 58129  1  0  0  0
 59 60  1  0  0  0
 59 61  1  0  0  0
 59 62  1  0  0  0
 60130  1  0  0  0
 60131  1  0  0  0
 60132  1  0  0  0
 61133  1  0  0  0
 61134  1  0  0  0
 61135  1  0  0  0
 62136  1  0  0  0
 62137  1  0  0  0
 62138  1  0  0  0
 63 65  1  0  0  0
 63139  1  0  0  0
 63140  1  0  0  0
 63141  1  0  0  0
 64142  1  0  0  0
 65143  1  0  0  0
 68 80  1  0  0  0
 71 72  2  0  0  0
 71 74  1  0  0  0
 71144  1  0  0  0
 72 75  1  0  0  0
 72145  1  0  0  0
 73 74  2  0  0  0
 73 82  1  0  0  0
 73146  1  0  0  0
 74 81  1  0  0  0
 75 82  2  0  0  0
 75 83  1  0  0  0
 76 77  1  0  0  0
 76147  1  0  0  0
 76148  1  0  0  0
 76 78  1  0  0  0
 77 78  1  0  0  0
 77149  1  0  0  0
 77150  1  0  0  0
 78 81  1  0  0  0
 78151  1  0  0  0
 79 80  1  0  0  0
 79 84  1  0  0  0
 79152  1  0  0  0
 79153  1  0  0  0
 80154  1  0  0  0
 80155  1  0  0  0
 81 84  1  0  0  0
 81156  1  0  0  0
 83157  1  0  0  0
 84158  1  0  0  0
 84159  1  0  0  0
M  CHG  1  84   1
M  ISO  4   1 100  68 101  80 101  83 100
M  END
> <chiral flag>
0

> <version>
0

> <s_m_source_file>
/data/baiqing/PycharmProjects/Reinvent-master-3.2/result/LINK_invent/BTK/process_docking_weight1_custom_sum_contain_oxygen_bond_distance_aromatic_linkinvent_7_9_3/rearranged_h_0140.sdf

> <i_m_source_file_index>
54

> <r_mmod_Potential_Energy-OPLS-2005>
-197.835479736328

> <r_mmod_Stretch_Energy-OPLS-2005>
79.3306655883789

> <r_mmod_Bend_Energy-OPLS-2005>
146.811386108398

> <r_mmod_Torsional_Energy-OPLS-2005>
238.409576416016

> <r_mmod_Improper_Torsional_Energy-OPLS-2005>
4.57562589645386

> <r_mmod_Van_der_Waal_Energy-OPLS-2005>
146.036819458008

> <r_mmod_Electrostatic_Energy-OPLS-2005>
-371.373077392578

> <r_mmod_Solvation_Energy-OPLS-2005>
-488.641479492188

> <b_mmod_Minimization_Converged-OPLS-2005>
0

> <r_mmod_RMS_Derivative-OPLS-2005>
1.84373354911804

$$$$
54
                    3D
 Structure written by MMmdl.
165173  0  0  1  0            999 V2000
  -30.6384  -14.8099   20.3767 C   0  0  0  0  0  0
  -30.4257  -12.4965   19.4474 C   0  0  0  0  0  0
  -29.4966  -12.4772   18.2184 C   0  0  0  0  0  0
  -28.0338  -12.2840   18.6580 C   0  0  0  0  0  0
  -27.6283  -13.2288   19.8201 C   0  0  2  0  0  0
  -28.6862  -13.2634   20.9425 C   0  0  0  0  0  0
  -25.2480  -13.8148   20.5767 C   0  0  0  0  0  0
  -24.1779  -13.0373   20.9241 C   0  0  0  0  0  0
  -24.6392  -11.6874   20.8755 C   0  0  0  0  0  0
  -23.9079  -10.4251   21.0399 C   0  0  0  0  0  0
  -24.3631   -9.4167   21.9174 C   0  0  0  0  0  0
  -23.6297   -8.2212   22.0742 C   0  0  0  0  0  0
  -22.4273   -8.0263   21.3538 C   0  0  0  0  0  0
  -21.9908   -9.0240   20.4636 C   0  0  0  0  0  0
  -22.7253  -10.2109   20.3039 C   0  0  0  0  0  0
  -21.6845   -6.0735   22.5280 C   0  0  0  0  0  0
  -21.4011   -6.5643   23.8215 C   0  0  0  0  0  0
  -21.3650   -5.6794   24.9178 C   0  0  0  0  0  0
  -21.6038   -4.3056   24.7230 C   0  0  0  0  0  0
  -21.8822   -3.8151   23.4352 C   0  0  0  0  0  0
  -21.9195   -4.6965   22.3407 C   0  0  0  0  0  0
  -22.7806  -13.5167   21.1896 C   0  0  0  0  0  0
  -22.1663   -4.2148   21.0983 F   0  0  0  0  0  0
  -21.5619   -3.4537   25.7742 F   0  0  0  0  0  0
  -29.9606  -13.6095   20.3060 N   0  0  0  0  0  0
  -26.2895  -12.9368   20.3235 N   0  0  0  0  0  0
  -25.9317  -11.6509   20.5740 N   0  0  0  0  0  0
  -22.0466  -12.8154   22.0453 N   0  0  0  0  0  0
  -25.4138  -15.1861   20.4330 N   0  0  0  0  0  0
  -31.8630  -14.7884   20.2666 O   0  0  0  0  0  0
  -21.6625   -6.8872   21.4241 O   0  0  0  0  0  0
  -22.3483  -14.5469   20.6735 O   0  0  0  0  0  0
  -24.6332  -31.8522   23.1954 C   0  0  0  0  0  0
  -25.9133  -32.4753   23.8331 C   0  0  1  0  0  0
  -27.2046  -27.2187   20.1443 C   0  0  0  0  0  0
  -25.5938  -33.8560   24.2262 N   0  0  0  0  0  0
  -23.4337  -30.4722   21.5387 C   0  0  2  0  0  0
  -24.8805  -28.9105   20.1140 C   0  0  0  0  0  0
  -22.7536  -29.4559   22.4897 C   0  0  0  0  0  0
  -18.0285  -28.1382   22.8476 C   0  0  0  0  0  0
  -24.1485  -36.7263   23.2646 C   0  0  0  0  0  0
  -25.9836  -30.7503   21.3835 C   0  0  0  0  0  0
  -26.0554  -29.3673   20.7275 C   0  0  0  0  0  0
  -27.2249  -28.5358   20.7268 C   0  0  0  0  0  0
  -26.0115  -26.8368   19.4997 C   0  0  0  0  0  0
  -24.8651  -27.6544   19.4884 C   0  0  0  0  0  0
  -23.6574  -29.8085   20.1560 C   0  0  0  0  0  0
  -25.4115  -36.3082   24.0351 C   0  0  1  0  0  0
  -20.5894  -28.3693   23.1262 C   0  0  2  0  0  0
  -20.6771  -26.9404   22.5400 C   0  0  0  0  0  0
  -19.5753  -26.6370   21.5201 C   0  0  0  0  0  0
  -18.1925  -26.7926   22.1607 C   0  0  0  0  0  0
  -19.1542  -28.8852   23.2865 C   0  0  0  0  0  0
  -18.9485  -30.1447   23.8884 C   0  0  0  0  0  0
  -17.6492  -30.6592   24.0551 C   0  0  0  0  0  0
  -25.9067  -34.9449   23.5113 C   0  0  0  0  0  0
  -16.5368  -29.9096   23.6336 C   0  0  0  0  0  0
  -16.7276  -28.6506   23.0368 C   0  0  0  0  0  0
  -26.4492  -31.6585   25.0732 C   0  0  0  0  0  0
  -25.3706  -31.3716   26.1450 C   0  0  0  0  0  0
  -27.0346  -30.3012   24.6208 C   0  0  0  0  0  0
  -27.6073  -32.4325   25.7483 C   0  0  0  0  0  0
  -27.5578  -37.1773   24.8478 C   0  0  0  0  0  0
  -21.4231  -29.3039   22.3658 N   0  0  0  0  0  0
  -26.4286  -37.3779   23.9430 N   0  0  0  0  0  0
  -24.7034  -31.0448   22.0949 N   0  0  0  0  0  0
  -23.4229  -28.8100   23.3006 O   0  0  0  0  0  0
  -28.2577  -26.2738   20.1764 O   0  0  0  0  0  0
  -26.5623  -34.8929   22.4668 O   0  0  0  0  0  0
  -23.5480  -32.1387   23.7219 O   0  0  0  0  0  0
  -30.6141  -23.6658   19.9456 C   0  0  0  0  0  0
  -29.5989  -22.7061   20.0930 C   0  0  0  0  0  0
  -30.0526  -21.2992   20.0832 C   0  0  0  0  0  0
  -32.2107  -22.0872   19.7288 C   0  0  0  0  0  0
  -34.6852  -22.4582   20.1908 C   0  0  0  0  0  0
  -33.8222  -22.0885   17.7986 C   0  0  0  0  0  0
  -28.0437  -17.3308   19.4633 C   0  0  0  0  0  0
  -28.1830  -23.4022   20.1704 C   0  0  0  0  0  0
  -30.0947  -18.6646   20.1693 C   0  0  0  0  0  0
  -27.9750  -24.9177   20.7909 C   0  0  0  0  0  0
  -33.6374  -21.7725   19.2941 C   0  0  0  0  0  0
  -29.3258  -17.2258   20.3044 C   0  0  2  0  0  0
  -31.8967  -23.3657   19.7603 N   0  0  0  0  0  0
  -31.3673  -21.0757   19.8900 N   0  0  0  0  0  0
  -29.3634  -20.0238   20.2260 N   0  0  0  0  0  0
  -30.0486  -15.9505   19.8311 N   0  0  0  0  0  0
  -31.4600  -12.6236   19.1213 H   0  0  0  0  0  0
  -30.3893  -11.5479   19.9841 H   0  0  0  0  0  0
  -29.7904  -11.6773   17.5378 H   0  0  0  0  0  0
  -29.5996  -13.4122   17.6645 H   0  0  0  0  0  0
  -27.9310  -11.2480   18.9824 H   0  0  0  0  0  0
  -27.3616  -12.4077   17.8079 H   0  0  0  0  0  0
  -27.5936  -14.2213   19.3778 H   0  0  0  0  0  0
  -28.7516  -12.3046   21.4575 H   0  0  0  0  0  0
  -28.4235  -14.0120   21.6911 H   0  0  0  0  0  0
  -25.2776   -9.5630   22.4753 H   0  0  0  0  0  0
  -23.9993   -7.4594   22.7455 H   0  0  0  0  0  0
  -21.0834   -8.8779   19.8945 H   0  0  0  0  0  0
  -22.3727  -10.9659   19.6149 H   0  0  0  0  0  0
  -21.2007   -7.6150   23.9722 H   0  0  0  0  0  0
  -21.1461   -6.0523   25.9081 H   0  0  0  0  0  0
  -22.0611   -2.7611   23.2861 H   0  0  0  0  0  0
  -22.4109  -11.9815   22.4829 H   0  0  0  0  0  0
  -21.1080  -13.1161   22.2672 H   0  0  0  0  0  0
  -24.6561  -15.8473   20.5589 H   0  0  0  0  0  0
  -26.2893  -15.6247   20.1822 H   0  0  0  0  0  0
  -26.7175  -32.5387   23.1056 H   0  0  0  0  0  0
  -25.0157  -33.9709   25.0462 H   0  0  0  0  0  0
  -22.7309  -31.2951   21.3889 H   0  0  0  0  0  0
  -23.3789  -35.9551   23.3334 H   0  0  0  0  0  0
  -24.3567  -36.8849   22.2052 H   0  0  0  0  0  0
  -23.7184  -37.6455   23.6642 H   0  0  0  0  0  0
  -26.1250  -31.5060   20.6105 H   0  0  0  0  0  0
  -26.8601  -30.8015   22.0163 H   0  0  0  0  0  0
  -28.1275  -28.8726   21.2199 H   0  0  0  0  0  0
  -25.9555  -25.8686   19.0227 H   0  0  0  0  0  0
  -23.9669  -27.2978   19.0041 H   0  0  0  0  0  0
  -23.7959  -30.5890   19.4076 H   0  0  0  0  0  0
  -22.7728  -29.2516   19.8399 H   0  0  0  0  0  0
  -25.1274  -36.1948   25.0839 H   0  0  0  0  0  0
  -20.9963  -28.3243   24.1399 H   0  0  0  0  0  0
  -20.5656  -26.2287   23.3596 H   0  0  0  0  0  0
  -21.6646  -26.7409   22.1195 H   0  0  0  0  0  0
  -19.6921  -25.6275   21.1249 H   0  0  0  0  0  0
  -19.6709  -27.3175   20.6730 H   0  0  0  0  0  0
  -17.4191  -26.6680   21.4007 H   0  0  0  0  0  0
  -18.0319  -26.0052   22.8994 H   0  0  0  0  0  0
  -19.7971  -30.7248   24.2256 H   0  0  0  0  0  0
  -17.5063  -31.6282   24.5153 H   0  0  0  0  0  0
  -15.5381  -30.3005   23.7686 H   0  0  0  0  0  0
  -15.8665  -28.0830   22.7110 H   0  0  0  0  0  0
  -24.5927  -30.7013   25.7769 H   0  0  0  0  0  0
  -24.8843  -32.2867   26.4849 H   0  0  0  0  0  0
  -25.8026  -30.8926   27.0250 H   0  0  0  0  0  0
  -26.2924  -29.6764   24.1224 H   0  0  0  0  0  0
  -27.4054  -29.7265   25.4698 H   0  0  0  0  0  0
  -27.8795  -30.4325   23.9443 H   0  0  0  0  0  0
  -27.2726  -33.3682   26.1981 H   0  0  0  0  0  0
  -28.3891  -32.6791   25.0285 H   0  0  0  0  0  0
  -28.0726  -31.8491   26.5439 H   0  0  0  0  0  0
  -28.2584  -38.0082   24.7537 H   0  0  0  0  0  0
  -28.1082  -36.2605   24.6288 H   0  0  0  0  0  0
  -27.2291  -37.1398   25.8881 H   0  0  0  0  0  0
  -20.9417  -29.8812   21.6895 H   0  0  0  0  0  0
  -26.0195  -38.2860   24.1467 H   0  0  0  0  0  0
  -30.3962  -24.7218   19.9238 H   0  0  0  0  0  0
  -34.5651  -22.1533   21.2290 H   0  0  0  0  0  0
  -34.5991  -23.5438   20.1520 H   0  0  0  0  0  0
  -35.6971  -22.1967   19.8819 H   0  0  0  0  0  0
  -34.8443  -21.9066   17.4671 H   0  0  0  0  0  0
  -33.5794  -23.1296   17.5788 H   0  0  0  0  0  0
  -33.1563  -21.4696   17.1971 H   0  0  0  0  0  0
  -27.3631  -18.0817   19.8632 H   0  0  0  0  0  0
  -27.5037  -16.3935   19.4331 H   0  0  0  0  0  0
  -28.2624  -17.5998   18.4296 H   0  0  0  0  0  0
  -27.5639  -22.7264   20.7630 H   0  0  0  0  0  0
  -27.7568  -23.3775   19.1661 H   0  0  0  0  0  0
  -30.6350  -18.6537   19.2212 H   0  0  0  0  0  0
  -30.8710  -18.6739   20.9372 H   0  0  0  0  0  0
  -28.4845  -24.9317   21.7540 H   0  0  0  0  0  0
  -26.9251  -24.9351   21.0865 H   0  0  0  0  0  0
  -33.7931  -20.6982   19.4072 H   0  0  0  0  0  0
  -29.0378  -17.0700   21.3448 H   0  0  0  0  0  0
  -28.3521  -20.0286   20.2974 H   0  0  0  0  0  0
  -30.6330  -16.2054   19.0477 H   0  0  0  0  0  0
  1 25  1  0  0  0
  1 30  2  0  0  0
  1 86  1  0  0  0
  2  3  1  0  0  0
  2 25  1  0  0  0
  2 87  1  0  0  0
  2 88  1  0  0  0
  3  4  1  0  0  0
  3 89  1  0  0  0
  3 90  1  0  0  0
  4  5  1  0  0  0
  4 91  1  0  0  0
  4 92  1  0  0  0
  5  6  1  0  0  0
  5 26  1  0  0  0
  5 93  1  0  0  0
  6 25  1  0  0  0
  6 94  1  0  0  0
  6 95  1  0  0  0
  7  8  2  0  0  0
  7 26  1  0  0  0
  7 29  1  0  0  0
  8  9  1  0  0  0
  8 22  1  0  0  0
  9 10  1  0  0  0
  9 27  2  0  0  0
 10 11  2  0  0  0
 10 15  1  0  0  0
 11 12  1  0  0  0
 11 96  1  0  0  0
 12 13  2  0  0  0
 12 97  1  0  0  0
 13 14  1  0  0  0
 13 31  1  0  0  0
 14 15  2  0  0  0
 14 98  1  0  0  0
 15 99  1  0  0  0
 16 17  2  0  0  0
 16 21  1  0  0  0
 16 31  1  0  0  0
 17 18  1  0  0  0
 17100  1  0  0  0
 18 19  2  0  0  0
 18101  1  0  0  0
 19 20  1  0  0  0
 19 24  1  0  0  0
 20 21  2  0  0  0
 20102  1  0  0  0
 21 23  1  0  0  0
 22 28  1  0  0  0
 22 32  2  0  0  0
 26 27  1  0  0  0
 28103  1  0  0  0
 28104  1  0  0  0
 29105  1  0  0  0
 29106  1  0  0  0
 33 34  1  0  0  0
 33 66  1  0  0  0
 33 70  2  0  0  0
 34 36  1  0  0  0
 34 59  1  0  0  0
 34107  1  0  0  0
 35 44  2  0  0  0
 35 45  1  0  0  0
 35 68  1  0  0  0
 36 56  1  0  0  0
 36108  1  0  0  0
 37 39  1  0  0  0
 37 47  1  0  0  0
 37 66  1  0  0  0
 37109  1  0  0  0
 38 43  2  0  0  0
 38 46  1  0  0  0
 38 47  1  0  0  0
 39 64  1  0  0  0
 39 67  2  0  0  0
 40 52  1  0  0  0
 40 53  2  0  0  0
 40 58  1  0  0  0
 41110  1  0  0  0
 41111  1  0  0  0
 41112  1  0  0  0
 41 48  1  0  0  0
 42 43  1  0  0  0
 42 66  1  0  0  0
 42113  1  0  0  0
 42114  1  0  0  0
 43 44  1  0  0  0
 44115  1  0  0  0
 45 46  2  0  0  0
 45116  1  0  0  0
 46117  1  0  0  0
 47118  1  0  0  0
 47119  1  0  0  0
 48 56  1  0  0  0
 48 65  1  0  0  0
 48120  1  0  0  0
 49 50  1  0  0  0
 49 53  1  0  0  0
 49 64  1  0  0  0
 49121  1  0  0  0
 50 51  1  0  0  0
 50122  1  0  0  0
 50123  1  0  0  0
 51 52  1  0  0  0
 51124  1  0  0  0
 51125  1  0  0  0
 52126  1  0  0  0
 52127  1  0  0  0
 53 54  1  0  0  0
 54 55  2  0  0  0
 54128  1  0  0  0
 55 57  1  0  0  0
 55129  1  0  0  0
 56 69  2  0  0  0
 57 58  2  0  0  0
 57130  1  0  0  0
 58131  1  0  0  0
 59 60  1  0  0  0
 59 61  1  0  0  0
 59 62  1  0  0  0
 60132  1  0  0  0
 60133  1  0  0  0
 60134  1  0  0  0
 61135  1  0  0  0
 61136  1  0  0  0
 61137  1  0  0  0
 62138  1  0  0  0
 62139  1  0  0  0
 62140  1  0  0  0
 63 65  1  0  0  0
 63141  1  0  0  0
 63142  1  0  0  0
 63143  1  0  0  0
 64144  1  0  0  0
 65145  1  0  0  0
 68 80  1  0  0  0
 71 72  2  0  0  0
 71 83  1  0  0  0
 71146  1  0  0  0
 72 73  1  0  0  0
 72 78  1  0  0  0
 73 84  2  0  0  0
 73 85  1  0  0  0
 74 81  1  0  0  0
 74 83  2  0  0  0
 74 84  1  0  0  0
 75147  1  0  0  0
 75148  1  0  0  0
 75149  1  0  0  0
 75 81  1  0  0  0
 76 81  1  0  0  0
 76150  1  0  0  0
 76151  1  0  0  0
 76152  1  0  0  0
 77153  1  0  0  0
 77154  1  0  0  0
 77155  1  0  0  0
 77 82  1  0  0  0
 78 80  1  0  0  0
 78156  1  0  0  0
 78157  1  0  0  0
 79 82  1  0  0  0
 79 85  1  0  0  0
 79158  1  0  0  0
 79159  1  0  0  0
 80160  1  0  0  0
 80161  1  0  0  0
 81162  1  0  0  0
 82 86  1  0  0  0
 82163  1  0  0  0
 85164  1  0  0  0
 86165  1  0  0  0
M  ISO  4   1 100  68 101  80 101  86 100
M  END
> <chiral flag>
0

> <version>
0

> <s_m_source_file>
/data/baiqing/PycharmProjects/Reinvent-master-3.2/result/LINK_invent/BTK/process_docking_weight1_custom_sum_contain_oxygen_bond_distance_aromatic_linkinvent_7_9_3/rearranged_h_0140.sdf

> <i_m_source_file_index>
55

> <r_mmod_Potential_Energy-OPLS-2005>
-221.767623901367

> <r_mmod_Stretch_Energy-OPLS-2005>
151.098999023438

> <r_mmod_Bend_Energy-OPLS-2005>
284.052764892578

> <r_mmod_Torsional_Energy-OPLS-2005>
273.681243896484

> <r_mmod_Improper_Torsional_Energy-OPLS-2005>
33.0733642578125

> <r_mmod_Van_der_Waal_Energy-OPLS-2005>
148.670196533203

> <r_mmod_Electrostatic_Energy-OPLS-2005>
-1016.37359619141

> <r_mmod_Solvation_Energy-OPLS-2005>
-225.898010253906

> <b_mmod_Minimization_Converged-OPLS-2005>
0

> <r_mmod_RMS_Derivative-OPLS-2005>
3.51914381980896

$$$$
55
                    3D
 Structure written by MMmdl.
166175  0  0  1  0            999 V2000
  -30.6626  -14.5407   20.5481 C   0  0  0  0  0  0
  -30.4352  -12.3382   19.4405 C   0  0  0  0  0  0
  -29.5069  -12.5071   18.2180 C   0  0  0  0  0  0
  -28.0256  -12.3663   18.6236 C   0  0  0  0  0  0
  -27.6624  -13.2095   19.8754 C   0  0  2  0  0  0
  -28.7049  -13.0067   20.9991 C   0  0  0  0  0  0
  -25.2582  -13.8150   20.5660 C   0  0  0  0  0  0
  -24.1848  -13.0430   20.9193 C   0  0  0  0  0  0
  -24.6408  -11.6901   20.8745 C   0  0  0  0  0  0
  -23.9070  -10.4287   21.0410 C   0  0  0  0  0  0
  -24.3619   -9.4203   21.9184 C   0  0  0  0  0  0
  -23.6288   -8.2241   22.0755 C   0  0  0  0  0  0
  -22.4270   -8.0286   21.3542 C   0  0  0  0  0  0
  -21.9904   -9.0261   20.4646 C   0  0  0  0  0  0
  -22.7239  -10.2136   20.3057 C   0  0  0  0  0  0
  -21.6858   -6.0738   22.5275 C   0  0  0  0  0  0
  -21.4024   -6.5644   23.8211 C   0  0  0  0  0  0
  -21.3653   -5.6787   24.9172 C   0  0  0  0  0  0
  -21.6038   -4.3052   24.7217 C   0  0  0  0  0  0
  -21.8822   -3.8147   23.4340 C   0  0  0  0  0  0
  -21.9195   -4.6964   22.3393 C   0  0  0  0  0  0
  -22.7869  -13.5234   21.1841 C   0  0  0  0  0  0
  -22.1665   -4.2155   21.0970 F   0  0  0  0  0  0
  -21.5613   -3.4533   25.7725 F   0  0  0  0  0  0
  -30.0328  -13.3326   20.4497 N   0  0  0  0  0  0
  -26.3030  -12.9331   20.3351 N   0  0  0  0  0  0
  -25.9340  -11.6493   20.5782 N   0  0  0  0  0  0
  -22.0500  -12.8240   22.0395 N   0  0  0  0  0  0
  -25.4253  -15.1860   20.3983 N   0  0  0  0  0  0
  -31.7992  -14.7319   20.1060 O   0  0  0  0  0  0
  -21.6636   -6.8881   21.4240 O   0  0  0  0  0  0
  -22.3556  -14.5534   20.6671 O   0  0  0  0  0  0
  -24.6179  -31.8644   23.2060 C   0  0  0  0  0  0
  -25.9059  -32.4797   23.8373 C   0  0  1  0  0  0
  -27.2410  -27.3895   20.1059 C   0  0  0  0  0  0
  -25.5910  -33.8595   24.2309 N   0  0  0  0  0  0
  -23.4089  -30.4862   21.5457 C   0  0  2  0  0  0
  -24.8566  -28.9437   20.1124 C   0  0  0  0  0  0
  -22.7424  -29.4641   22.4950 C   0  0  0  0  0  0
  -18.0284  -28.1379   22.8481 C   0  0  0  0  0  0
  -24.1485  -36.7296   23.2637 C   0  0  0  0  0  0
  -25.9412  -30.8152   21.3665 C   0  0  0  0  0  0
  -26.0169  -29.4460   20.7130 C   0  0  0  0  0  0
  -27.2069  -28.6761   20.7054 C   0  0  0  0  0  0
  -26.0579  -26.9117   19.4957 C   0  0  0  0  0  0
  -24.8744  -27.6779   19.5009 C   0  0  0  0  0  0
  -23.6203  -29.8162   20.1610 C   0  0  0  0  0  0
  -25.4108  -36.3092   24.0333 C   0  0  1  0  0  0
  -20.5873  -28.3675   23.1291 C   0  0  2  0  0  0
  -20.6771  -26.9407   22.5409 C   0  0  0  0  0  0
  -19.5753  -26.6385   21.5202 C   0  0  0  0  0  0
  -18.1932  -26.7927   22.1612 C   0  0  0  0  0  0
  -19.1531  -28.8845   23.2887 C   0  0  0  0  0  0
  -18.9461  -30.1442   23.8909 C   0  0  0  0  0  0
  -17.6463  -30.6579   24.0568 C   0  0  0  0  0  0
  -25.9040  -34.9461   23.5118 C   0  0  0  0  0  0
  -16.5353  -29.9082   23.6325 C   0  0  0  0  0  0
  -16.7272  -28.6502   23.0345 C   0  0  0  0  0  0
  -26.4480  -31.6585   25.0715 C   0  0  0  0  0  0
  -25.3746  -31.3710   26.1466 C   0  0  0  0  0  0
  -27.0309  -30.3019   24.6114 C   0  0  0  0  0  0
  -27.6059  -32.4308   25.7469 C   0  0  0  0  0  0
  -27.5578  -37.1805   24.8463 C   0  0  0  0  0  0
  -21.4152  -29.3033   22.3685 N   0  0  0  0  0  0
  -26.4295  -37.3780   23.9400 N   0  0  0  0  0  0
  -24.6740  -31.0708   22.0974 N   0  0  0  0  0  0
  -23.4174  -28.8199   23.3022 O   0  0  0  0  0  0
  -28.4231  -26.6579   20.1500 O   0  0  0  0  0  0
  -26.5604  -34.8918   22.4681 O   0  0  0  0  0  0
  -23.5361  -32.1418   23.7426 O   0  0  0  0  0  0
  -30.9960  -17.7808   20.6666 C   0  0  0  0  0  0
  -28.6325  -17.4912   20.2916 C   0  0  0  0  0  0
  -30.8955  -19.1411   20.2558 C   0  0  0  0  0  0
  -28.5172  -18.8307   19.8413 C   0  0  0  0  0  0
  -29.6566  -19.6860   19.7945 C   0  0  0  0  0  0
  -29.8703  -16.9267   20.6601 C   0  0  0  0  0  0
  -29.9867  -24.8838   19.6101 C   0  0  0  0  0  0
  -27.8643  -24.2234   20.6124 C   0  0  0  0  0  0
  -30.1845  -23.4493   19.0532 C   0  0  0  0  0  0
  -28.0495  -22.7642   20.0793 C   0  0  0  0  0  0
  -28.5036  -25.2839   19.6846 C   0  0  1  0  0  0
  -32.1668  -19.9764   20.2725 C   0  0  0  0  0  0
  -27.1527  -19.2830   19.3430 C   0  0  0  0  0  0
  -29.6037  -21.0587   19.0495 C   0  0  0  0  0  0
  -29.9006  -15.5407   21.0531 N   0  0  0  0  0  0
  -29.4670  -22.3650   19.7992 N   0  3  1  0  0  0
  -31.4790  -12.4511   19.1414 H   0  0  0  0  0  0
  -30.3520  -11.3315   19.8529 H   0  0  0  0  0  0
  -29.7551  -11.7715   17.4514 H   0  0  0  0  0  0
  -29.6717  -13.4867   17.7666 H   0  0  0  0  0  0
  -27.8340  -11.3107   18.8203 H   0  0  0  0  0  0
  -27.3815  -12.6396   17.7876 H   0  0  0  0  0  0
  -27.7000  -14.2556   19.5717 H   0  0  0  0  0  0
  -28.6942  -11.9718   21.3437 H   0  0  0  0  0  0
  -28.4588  -13.6054   21.8776 H   0  0  0  0  0  0
  -25.2775   -9.5670   22.4755 H   0  0  0  0  0  0
  -23.9994   -7.4634   22.7471 H   0  0  0  0  0  0
  -21.0832   -8.8782   19.8955 H   0  0  0  0  0  0
  -22.3703  -10.9676   19.6161 H   0  0  0  0  0  0
  -21.2035   -7.6150   23.9719 H   0  0  0  0  0  0
  -21.1462   -6.0516   25.9071 H   0  0  0  0  0  0
  -22.0608   -2.7608   23.2837 H   0  0  0  0  0  0
  -22.4107  -11.9901   22.4794 H   0  0  0  0  0  0
  -21.1118  -13.1278   22.2592 H   0  0  0  0  0  0
  -24.6455  -15.8301   20.4765 H   0  0  0  0  0  0
  -26.2426  -15.6022   19.9750 H   0  0  0  0  0  0
  -26.7128  -32.5495   23.1130 H   0  0  0  0  0  0
  -25.0072  -33.9754   25.0464 H   0  0  0  0  0  0
  -22.6994  -31.3040   21.4036 H   0  0  0  0  0  0
  -23.3742  -35.9635   23.3315 H   0  0  0  0  0  0
  -24.3576  -36.8894   22.2049 H   0  0  0  0  0  0
  -23.7242  -37.6506   23.6644 H   0  0  0  0  0  0
  -26.0629  -31.5798   20.5977 H   0  0  0  0  0  0
  -26.8253  -30.8662   21.9906 H   0  0  0  0  0  0
  -28.1010  -29.0607   21.1763 H   0  0  0  0  0  0
  -26.0245  -25.9446   19.0169 H   0  0  0  0  0  0
  -23.9814  -27.2856   19.0332 H   0  0  0  0  0  0
  -23.7311  -30.5916   19.4018 H   0  0  0  0  0  0
  -22.7429  -29.2388   19.8643 H   0  0  0  0  0  0
  -25.1283  -36.1959   25.0826 H   0  0  0  0  0  0
  -20.9971  -28.3258   24.1408 H   0  0  0  0  0  0
  -20.5657  -26.2290   23.3602 H   0  0  0  0  0  0
  -21.6644  -26.7433   22.1214 H   0  0  0  0  0  0
  -19.6918  -25.6299   21.1220 H   0  0  0  0  0  0
  -19.6693  -27.3200   20.6736 H   0  0  0  0  0  0
  -17.4200  -26.6668   21.4017 H   0  0  0  0  0  0
  -18.0339  -26.0064   22.9002 H   0  0  0  0  0  0
  -19.7938  -30.7255   24.2278 H   0  0  0  0  0  0
  -17.5019  -31.6255   24.5173 H   0  0  0  0  0  0
  -15.5355  -30.2993   23.7634 H   0  0  0  0  0  0
  -15.8672  -28.0820   22.7057 H   0  0  0  0  0  0
  -24.5899  -30.7078   25.7807 H   0  0  0  0  0  0
  -24.8967  -32.2876   26.4934 H   0  0  0  0  0  0
  -25.8094  -30.8861   27.0213 H   0  0  0  0  0  0
  -26.2857  -29.6776   24.1172 H   0  0  0  0  0  0
  -27.4069  -29.7261   25.4579 H   0  0  0  0  0  0
  -27.8696  -30.4324   23.9273 H   0  0  0  0  0  0
  -27.2687  -33.3605   26.2061 H   0  0  0  0  0  0
  -28.3856  -32.6868   25.0284 H   0  0  0  0  0  0
  -28.0740  -31.8424   26.5368 H   0  0  0  0  0  0
  -28.2606  -38.0094   24.7494 H   0  0  0  0  0  0
  -28.1063  -36.2620   24.6304 H   0  0  0  0  0  0
  -27.2293  -37.1475   25.8868 H   0  0  0  0  0  0
  -20.9318  -29.8754   21.6904 H   0  0  0  0  0  0
  -26.0176  -38.2854   24.1405 H   0  0  0  0  0  0
  -31.9541  -17.3863   20.9771 H   0  0  0  0  0  0
  -27.7528  -16.8654   20.3027 H   0  0  0  0  0  0
  -30.5223  -25.5901   18.9746 H   0  0  0  0  0  0
  -30.4457  -24.9640   20.5966 H   0  0  0  0  0  0
  -28.2954  -24.3021   21.6112 H   0  0  0  0  0  0
  -26.8007  -24.4251   20.7343 H   0  0  0  0  0  0
  -31.2516  -23.2238   19.0359 H   0  0  0  0  0  0
  -29.8530  -23.4397   18.0131 H   0  0  0  0  0  0
  -27.4619  -22.6604   19.1657 H   0  0  0  0  0  0
  -27.6274  -22.0683   20.8040 H   0  0  0  0  0  0
  -28.0828  -25.2160   18.6803 H   0  0  0  0  0  0
  -32.9251  -19.5216   20.9114 H   0  0  0  0  0  0
  -31.9823  -20.9765   20.6641 H   0  0  0  0  0  0
  -32.5887  -20.0636   19.2705 H   0  0  0  0  0  0
  -26.3810  -18.5459   19.5694 H   0  0  0  0  0  0
  -27.1618  -19.4209   18.2615 H   0  0  0  0  0  0
  -26.8441  -20.2133   19.8117 H   0  0  0  0  0  0
  -28.8457  -21.0246   18.2676 H   0  0  0  0  0  0
  -30.5281  -21.0938   18.4727 H   0  0  0  0  0  0
  -29.0288  -15.1934   21.4228 H   0  0  0  0  0  0
  -29.9363  -22.2486   20.6852 H   0  0  0  0  0  0
  1 25  1  0  0  0
  1 30  2  0  0  0
  1 85  1  0  0  0
  2  3  1  0  0  0
  2 25  1  0  0  0
  2 87  1  0  0  0
  2 88  1  0  0  0
  3  4  1  0  0  0
  3 89  1  0  0  0
  3 90  1  0  0  0
  4  5  1  0  0  0
  4 91  1  0  0  0
  4 92  1  0  0  0
  5  6  1  0  0  0
  5 26  1  0  0  0
  5 93  1  0  0  0
  6 25  1  0  0  0
  6 94  1  0  0  0
  6 95  1  0  0  0
  7  8  2  0  0  0
  7 26  1  0  0  0
  7 29  1  0  0  0
  8  9  1  0  0  0
  8 22  1  0  0  0
  9 10  1  0  0  0
  9 27  2  0  0  0
 10 11  2  0  0  0
 10 15  1  0  0  0
 11 12  1  0  0  0
 11 96  1  0  0  0
 12 13  2  0  0  0
 12 97  1  0  0  0
 13 14  1  0  0  0
 13 31  1  0  0  0
 14 15  2  0  0  0
 14 98  1  0  0  0
 15 99  1  0  0  0
 16 17  2  0  0  0
 16 21  1  0  0  0
 16 31  1  0  0  0
 17 18  1  0  0  0
 17100  1  0  0  0
 18 19  2  0  0  0
 18101  1  0  0  0
 19 20  1  0  0  0
 19 24  1  0  0  0
 20 21  2  0  0  0
 20102  1  0  0  0
 21 23  1  0  0  0
 22 28  1  0  0  0
 22 32  2  0  0  0
 26 27  1  0  0  0
 28103  1  0  0  0
 28104  1  0  0  0
 29105  1  0  0  0
 29106  1  0  0  0
 33 34  1  0  0  0
 33 66  1  0  0  0
 33 70  2  0  0  0
 34 36  1  0  0  0
 34 59  1  0  0  0
 34107  1  0  0  0
 35 44  2  0  0  0
 35 45  1  0  0  0
 35 68  1  0  0  0
 36 56  1  0  0  0
 36108  1  0  0  0
 37 39  1  0  0  0
 37 47  1  0  0  0
 37 66  1  0  0  0
 37109  1  0  0  0
 38 43  2  0  0  0
 38 46  1  0  0  0
 38 47  1  0  0  0
 39 64  1  0  0  0
 39 67  2  0  0  0
 40 52  1  0  0  0
 40 53  2  0  0  0
 40 58  1  0  0  0
 41110  1  0  0  0
 41111  1  0  0  0
 41112  1  0  0  0
 41 48  1  0  0  0
 42 43  1  0  0  0
 42 66  1  0  0  0
 42113  1  0  0  0
 42114  1  0  0  0
 43 44  1  0  0  0
 44115  1  0  0  0
 45 46  2  0  0  0
 45116  1  0  0  0
 46117  1  0  0  0
 47118  1  0  0  0
 47119  1  0  0  0
 48 56  1  0  0  0
 48 65  1  0  0  0
 48120  1  0  0  0
 49 50  1  0  0  0
 49 53  1  0  0  0
 49 64  1  0  0  0
 49121  1  0  0  0
 50 51  1  0  0  0
 50122  1  0  0  0
 50123  1  0  0  0
 51 52  1  0  0  0
 51124  1  0  0  0
 51125  1  0  0  0
 52126  1  0  0  0
 52127  1  0  0  0
 53 54  1  0  0  0
 54 55  2  0  0  0
 54128  1  0  0  0
 55 57  1  0  0  0
 55129  1  0  0  0
 56 69  2  0  0  0
 57 58  2  0  0  0
 57130  1  0  0  0
 58131  1  0  0  0
 59 60  1  0  0  0
 59 61  1  0  0  0
 59 62  1  0  0  0
 60132  1  0  0  0
 60133  1  0  0  0
 60134  1  0  0  0
 61135  1  0  0  0
 61136  1  0  0  0
 61137  1  0  0  0
 62138  1  0  0  0
 62139  1  0  0  0
 62140  1  0  0  0
 63 65  1  0  0  0
 63141  1  0  0  0
 63142  1  0  0  0
 63143  1  0  0  0
 64144  1  0  0  0
 65145  1  0  0  0
 68 81  1  0  0  0
 71 73  2  0  0  0
 71 76  1  0  0  0
 71146  1  0  0  0
 72 74  1  0  0  0
 72 76  2  0  0  0
 72147  1  0  0  0
 73 75  1  0  0  0
 73 82  1  0  0  0
 74 75  2  0  0  0
 74 83  1  0  0  0
 75 84  1  0  0  0
 76 85  1  0  0  0
 77 79  1  0  0  0
 77 81  1  0  0  0
 77148  1  0  0  0
 77149  1  0  0  0
 78 80  1  0  0  0
 78 81  1  0  0  0
 78150  1  0  0  0
 78151  1  0  0  0
 79 86  1  0  0  0
 79152  1  0  0  0
 79153  1  0  0  0
 80 86  1  0  0  0
 80154  1  0  0  0
 80155  1  0  0  0
 81156  1  0  0  0
 82157  1  0  0  0
 82158  1  0  0  0
 82159  1  0  0  0
 83160  1  0  0  0
 83161  1  0  0  0
 83162  1  0  0  0
 84163  1  0  0  0
 84164  1  0  0  0
 84 86  1  0  0  0
 85165  1  0  0  0
 86166  1  0  0  0
M  CHG  1  86   1
M  ISO  4   1 100  68 101  81 101  85 100
M  END
> <chiral flag>
0

> <version>
0

> <s_m_source_file>
/data/baiqing/PycharmProjects/Reinvent-master-3.2/result/LINK_invent/BTK/process_docking_weight1_custom_sum_contain_oxygen_bond_distance_aromatic_linkinvent_7_9_3/rearranged_h_0140.sdf

> <i_m_source_file_index>
56

> <r_mmod_Potential_Energy-OPLS-2005>
-104.782859802246

> <r_mmod_Stretch_Energy-OPLS-2005>
54.9197769165039

> <r_mmod_Bend_Energy-OPLS-2005>
132.860885620117

> <r_mmod_Torsional_Energy-OPLS-2005>
246.164855957031

> <r_mmod_Improper_Torsional_Energy-OPLS-2005>
6.78984022140503

> <r_mmod_Van_der_Waal_Energy-OPLS-2005>
148.326187133789

> <r_mmod_Electrostatic_Energy-OPLS-2005>
-272.454040527344

> <r_mmod_Solvation_Energy-OPLS-2005>
-442.904205322266

> <b_mmod_Minimization_Converged-OPLS-2005>
0

> <r_mmod_RMS_Derivative-OPLS-2005>
1.43103468418121

$$$$
56
                    3D
 Structure written by MMmdl.
171180  0  0  1  0            999 V2000
  -30.7343  -14.3948   20.6156 C   0  0  0  0  0  0
  -30.4144  -12.2724   19.4110 C   0  0  0  0  0  0
  -29.4892  -12.5077   18.2001 C   0  0  0  0  0  0
  -28.0091  -12.3780   18.6105 C   0  0  0  0  0  0
  -27.6644  -13.2022   19.8800 C   0  0  2  0  0  0
  -28.7006  -12.9461   20.9955 C   0  0  0  0  0  0
  -25.2599  -13.8158   20.5683 C   0  0  0  0  0  0
  -24.1841  -13.0437   20.9168 C   0  0  0  0  0  0
  -24.6388  -11.6904   20.8728 C   0  0  0  0  0  0
  -23.9054  -10.4293   21.0400 C   0  0  0  0  0  0
  -24.3608   -9.4212   21.9180 C   0  0  0  0  0  0
  -23.6287   -8.2246   22.0751 C   0  0  0  0  0  0
  -22.4271   -8.0280   21.3542 C   0  0  0  0  0  0
  -21.9904   -9.0253   20.4644 C   0  0  0  0  0  0
  -22.7227  -10.2134   20.3051 C   0  0  0  0  0  0
  -21.6853   -6.0734   22.5279 C   0  0  0  0  0  0
  -21.4015   -6.5639   23.8213 C   0  0  0  0  0  0
  -21.3659   -5.6792   24.9175 C   0  0  0  0  0  0
  -21.6045   -4.3054   24.7227 C   0  0  0  0  0  0
  -21.8819   -3.8146   23.4348 C   0  0  0  0  0  0
  -21.9194   -4.6963   22.3404 C   0  0  0  0  0  0
  -22.7866  -13.5239   21.1842 C   0  0  0  0  0  0
  -22.1662   -4.2147   21.0980 F   0  0  0  0  0  0
  -21.5630   -3.4539   25.7741 F   0  0  0  0  0  0
  -30.0389  -13.2383   20.4528 N   0  0  0  0  0  0
  -26.3032  -12.9321   20.3383 N   0  0  0  0  0  0
  -25.9311  -11.6482   20.5758 N   0  0  0  0  0  0
  -22.0508  -12.8229   22.0399 N   0  0  0  0  0  0
  -25.4337  -15.1868   20.4096 N   0  0  0  0  0  0
  -31.8331  -14.5984   20.0853 O   0  0  0  0  0  0
  -21.6638   -6.8877   21.4240 O   0  0  0  0  0  0
  -22.3552  -14.5549   20.6700 O   0  0  0  0  0  0
  -24.6081  -31.8715   23.2123 C   0  0  0  0  0  0
  -25.8997  -32.4844   23.8406 C   0  0  1  0  0  0
  -27.2513  -27.4853   20.1034 C   0  0  0  0  0  0
  -25.5878  -33.8638   24.2350 N   0  0  0  0  0  0
  -23.3933  -30.4926   21.5508 C   0  0  2  0  0  0
  -24.8444  -28.9623   20.1160 C   0  0  0  0  0  0
  -22.7377  -29.4669   22.5014 C   0  0  0  0  0  0
  -18.0262  -28.1370   22.8498 C   0  0  0  0  0  0
  -24.1487  -36.7327   23.2638 C   0  0  0  0  0  0
  -25.9120  -30.8585   21.3513 C   0  0  0  0  0  0
  -25.9961  -29.4923   20.7094 C   0  0  0  0  0  0
  -27.2012  -28.7654   20.7005 C   0  0  0  0  0  0
  -26.0904  -26.9672   19.4942 C   0  0  0  0  0  0
  -24.8837  -27.6955   19.5049 C   0  0  0  0  0  0
  -23.5998  -29.8191   20.1662 C   0  0  0  0  0  0
  -25.4103  -36.3128   24.0343 C   0  0  1  0  0  0
  -20.5849  -28.3647   23.1334 C   0  0  2  0  0  0
  -20.6751  -26.9389   22.5422 C   0  0  0  0  0  0
  -19.5732  -26.6386   21.5209 C   0  0  0  0  0  0
  -18.1908  -26.7921   22.1620 C   0  0  0  0  0  0
  -19.1511  -28.8825   23.2912 C   0  0  0  0  0  0
  -18.9448  -30.1436   23.8916 C   0  0  0  0  0  0
  -17.6454  -30.6585   24.0567 C   0  0  0  0  0  0
  -25.9021  -34.9487   23.5143 C   0  0  0  0  0  0
  -16.5344  -29.9088   23.6328 C   0  0  0  0  0  0
  -16.7253  -28.6502   23.0349 C   0  0  0  0  0  0
  -26.4456  -31.6593   25.0697 C   0  0  0  0  0  0
  -25.3756  -31.3653   26.1466 C   0  0  0  0  0  0
  -27.0280  -30.3058   24.5989 C   0  0  0  0  0  0
  -27.6050  -32.4287   25.7459 C   0  0  0  0  0  0
  -27.5581  -37.1818   24.8468 C   0  0  0  0  0  0
  -21.4114  -29.3020   22.3754 N   0  0  0  0  0  0
  -26.4298  -37.3804   23.9406 N   0  0  0  0  0  0
  -24.6559  -31.0871   22.0986 N   0  0  0  0  0  0
  -23.4180  -28.8219   23.3038 O   0  0  0  0  0  0
  -28.3921  -26.7174   20.0708 O   0  0  0  0  0  0
  -26.5585  -34.8933   22.4704 O   0  0  0  0  0  0
  -23.5295  -32.1438   23.7562 O   0  0  0  0  0  0
  -28.8261  -17.5506   20.8123 C   0  0  0  0  0  0
  -28.8657  -16.4676   23.0725 C   0  0  0  0  0  0
  -25.7362  -22.6237   22.9731 C   0  0  0  0  0  0
  -30.0304  -16.6877   20.4127 C   0  0  0  0  0  0
  -30.0604  -15.6087   22.6106 C   0  0  0  0  0  0
  -25.6536  -21.0933   22.9364 C   0  0  0  0  0  0
  -28.8403  -17.8147   22.3279 C   0  0  0  0  0  0
  -27.0707  -22.4340   22.2369 C   0  0  1  0  0  0
  -27.6965  -18.7334   22.7960 C   0  0  0  0  0  0
  -28.3114  -23.2777   22.5379 C   0  0  0  0  0  0
  -27.7392  -20.1091   22.1062 C   0  0  0  0  0  0
  -29.4645  -25.3167   21.6971 C   0  0  0  0  0  0
  -29.2347  -26.7579   21.2272 C   0  0  0  0  0  0
  -30.0377  -15.4183   21.1530 N   0  0  0  0  0  0
  -27.1108  -21.1432   22.9226 N   0  0  0  0  0  0
  -28.1794  -24.6294   21.9647 N   0  3  0  0  0  0
  -31.4606  -12.3593   19.1118 H   0  0  0  0  0  0
  -30.2992  -11.2551   19.7883 H   0  0  0  0  0  0
  -29.7191  -11.7954   17.4065 H   0  0  0  0  0  0
  -29.6700  -13.4998   17.7831 H   0  0  0  0  0  0
  -27.8068  -11.3214   18.7895 H   0  0  0  0  0  0
  -27.3619  -12.6742   17.7843 H   0  0  0  0  0  0
  -27.7221  -14.2562   19.6071 H   0  0  0  0  0  0
  -28.6601  -11.9052   21.3197 H   0  0  0  0  0  0
  -28.4554  -13.5330   21.8795 H   0  0  0  0  0  0
  -25.2753   -9.5694   22.4752 H   0  0  0  0  0  0
  -24.0001   -7.4640   22.7470 H   0  0  0  0  0  0
  -21.0836   -8.8768   19.8948 H   0  0  0  0  0  0
  -22.3683  -10.9673   19.6161 H   0  0  0  0  0  0
  -21.2005   -7.6148   23.9716 H   0  0  0  0  0  0
  -21.1481   -6.0522   25.9079 H   0  0  0  0  0  0
  -22.0598   -2.7608   23.2850 H   0  0  0  0  0  0
  -22.4118  -11.9882   22.4775 H   0  0  0  0  0  0
  -21.1127  -13.1259   22.2606 H   0  0  0  0  0  0
  -24.6745  -15.8478   20.5292 H   0  0  0  0  0  0
  -26.3001  -15.6223   20.1208 H   0  0  0  0  0  0
  -26.7078  -32.5594   23.1191 H   0  0  0  0  0  0
  -25.0046  -33.9808   25.0508 H   0  0  0  0  0  0
  -22.6789  -31.3067   21.4114 H   0  0  0  0  0  0
  -23.3744  -35.9666   23.3318 H   0  0  0  0  0  0
  -24.3594  -36.8920   22.2053 H   0  0  0  0  0  0
  -23.7242  -37.6537   23.6641 H   0  0  0  0  0  0
  -26.0027  -31.6215   20.5766 H   0  0  0  0  0  0
  -26.8069  -30.9282   21.9568 H   0  0  0  0  0  0
  -28.0851  -29.2056   21.1414 H   0  0  0  0  0  0
  -26.1194  -25.9974   19.0176 H   0  0  0  0  0  0
  -24.0005  -27.2814   19.0377 H   0  0  0  0  0  0
  -23.6974  -30.5910   19.4020 H   0  0  0  0  0  0
  -22.7284  -29.2290   19.8772 H   0  0  0  0  0  0
  -25.1275  -36.2008   25.0837 H   0  0  0  0  0  0
  -20.9938  -28.3213   24.1454 H   0  0  0  0  0  0
  -20.5649  -26.2255   23.3604 H   0  0  0  0  0  0
  -21.6622  -26.7438   22.1214 H   0  0  0  0  0  0
  -19.6897  -25.6303   21.1220 H   0  0  0  0  0  0
  -19.6674  -27.3213   20.6752 H   0  0  0  0  0  0
  -17.4178  -26.6679   21.4020 H   0  0  0  0  0  0
  -18.0301  -26.0053   22.9003 H   0  0  0  0  0  0
  -19.7927  -30.7236   24.2301 H   0  0  0  0  0  0
  -17.5013  -31.6268   24.5165 H   0  0  0  0  0  0
  -15.5343  -30.2996   23.7645 H   0  0  0  0  0  0
  -15.8650  -28.0832   22.7055 H   0  0  0  0  0  0
  -24.5932  -30.6994   25.7805 H   0  0  0  0  0  0
  -24.8942  -32.2791   26.4959 H   0  0  0  0  0  0
  -25.8143  -30.8797   27.0193 H   0  0  0  0  0  0
  -26.2778  -29.6808   24.1123 H   0  0  0  0  0  0
  -27.4185  -29.7289   25.4386 H   0  0  0  0  0  0
  -27.8558  -30.4410   23.9017 H   0  0  0  0  0  0
  -27.2679  -33.3567   26.2087 H   0  0  0  0  0  0
  -28.3843  -32.6869   25.0274 H   0  0  0  0  0  0
  -28.0736  -31.8369   26.5334 H   0  0  0  0  0  0
  -28.2607  -38.0108   24.7514 H   0  0  0  0  0  0
  -28.1067  -36.2641   24.6294 H   0  0  0  0  0  0
  -27.2303  -37.1472   25.8872 H   0  0  0  0  0  0
  -20.9267  -29.8738   21.6978 H   0  0  0  0  0  0
  -26.0198  -38.2887   24.1404 H   0  0  0  0  0  0
  -27.8981  -17.0545   20.5245 H   0  0  0  0  0  0
  -28.8637  -18.4846   20.2514 H   0  0  0  0  0  0
  -28.9297  -16.6338   24.1491 H   0  0  0  0  0  0
  -27.9326  -15.9290   22.8983 H   0  0  0  0  0  0
  -25.8349  -23.0310   23.9820 H   0  0  0  0  0  0
  -24.9636  -23.1365   22.3984 H   0  0  0  0  0  0
  -30.9626  -17.2248   20.5971 H   0  0  0  0  0  0
  -29.9879  -16.5015   19.3369 H   0  0  0  0  0  0
  -30.0464  -14.6501   23.1327 H   0  0  0  0  0  0
  -30.9983  -16.0911   22.8910 H   0  0  0  0  0  0
  -25.2551  -20.6843   22.0044 H   0  0  0  0  0  0
  -25.2765  -20.6011   23.8340 H   0  0  0  0  0  0
  -29.7736  -18.3290   22.5645 H   0  0  0  0  0  0
  -26.9011  -22.2764   21.1677 H   0  0  0  0  0  0
  -27.7861  -18.8633   23.8757 H   0  0  0  0  0  0
  -26.7280  -18.2613   22.6250 H   0  0  0  0  0  0
  -29.1925  -22.7912   22.1166 H   0  0  0  0  0  0
  -28.4880  -23.3623   23.6115 H   0  0  0  0  0  0
  -27.2880  -20.0513   21.1135 H   0  0  0  0  0  0
  -28.7804  -20.3984   21.9558 H   0  0  0  0  0  0
  -30.0771  -25.3225   22.6000 H   0  0  0  0  0  0
  -30.0206  -24.7668   20.9369 H   0  0  0  0  0  0
  -30.1808  -27.2343   20.9682 H   0  0  0  0  0  0
  -28.8140  -27.3191   22.0624 H   0  0  0  0  0  0
  -27.6103  -25.1830   22.5870 H   0  0  0  0  0  0
  -27.6861  -24.5557   21.0882 H   0  0  0  0  0  0
  1 25  1  0  0  0
  1 30  2  0  0  0
  1 84  1  0  0  0
  2  3  1  0  0  0
  2 25  1  0  0  0
  2 87  1  0  0  0
  2 88  1  0  0  0
  3  4  1  0  0  0
  3 89  1  0  0  0
  3 90  1  0  0  0
  4  5  1  0  0  0
  4 91  1  0  0  0
  4 92  1  0  0  0
  5  6  1  0  0  0
  5 26  1  0  0  0
  5 93  1  0  0  0
  6 25  1  0  0  0
  6 94  1  0  0  0
  6 95  1  0  0  0
  7  8  2  0  0  0
  7 26  1  0  0  0
  7 29  1  0  0  0
  8  9  1  0  0  0
  8 22  1  0  0  0
  9 10  1  0  0  0
  9 27  2  0  0  0
 10 11  2  0  0  0
 10 15  1  0  0  0
 11 12  1  0  0  0
 11 96  1  0  0  0
 12 13  2  0  0  0
 12 97  1  0  0  0
 13 14  1  0  0  0
 13 31  1  0  0  0
 14 15  2  0  0  0
 14 98  1  0  0  0
 15 99  1  0  0  0
 16 17  2  0  0  0
 16 21  1  0  0  0
 16 31  1  0  0  0
 17 18  1  0  0  0
 17100  1  0  0  0
 18 19  2  0  0  0
 18101  1  0  0  0
 19 20  1  0  0  0
 19 24  1  0  0  0
 20 21  2  0  0  0
 20102  1  0  0  0
 21 23  1  0  0  0
 22 28  1  0  0  0
 22 32  2  0  0  0
 26 27  1  0  0  0
 28103  1  0  0  0
 28104  1  0  0  0
 29105  1  0  0  0
 29106  1  0  0  0
 33 34  1  0  0  0
 33 66  1  0  0  0
 33 70  2  0  0  0
 34 36  1  0  0  0
 34 59  1  0  0  0
 34107  1  0  0  0
 35 44  2  0  0  0
 35 45  1  0  0  0
 35 68  1  0  0  0
 36 56  1  0  0  0
 36108  1  0  0  0
 37 39  1  0  0  0
 37 47  1  0  0  0
 37 66  1  0  0  0
 37109  1  0  0  0
 38 43  2  0  0  0
 38 46  1  0  0  0
 38 47  1  0  0  0
 39 64  1  0  0  0
 39 67  2  0  0  0
 40 52  1  0  0  0
 40 53  2  0  0  0
 40 58  1  0  0  0
 41110  1  0  0  0
 41111  1  0  0  0
 41112  1  0  0  0
 41 48  1  0  0  0
 42 43  1  0  0  0
 42 66  1  0  0  0
 42113  1  0  0  0
 42114  1  0  0  0
 43 44  1  0  0  0
 44115  1  0  0  0
 45 46  2  0  0  0
 45116  1  0  0  0
 46117  1  0  0  0
 47118  1  0  0  0
 47119  1  0  0  0
 48 56  1  0  0  0
 48 65  1  0  0  0
 48120  1  0  0  0
 49 50  1  0  0  0
 49 53  1  0  0  0
 49 64  1  0  0  0
 49121  1  0  0  0
 50 51  1  0  0  0
 50122  1  0  0  0
 50123  1  0  0  0
 51 52  1  0  0  0
 51124  1  0  0  0
 51125  1  0  0  0
 52126  1  0  0  0
 52127  1  0  0  0
 53 54  1  0  0  0
 54 55  2  0  0  0
 54128  1  0  0  0
 55 57  1  0  0  0
 55129  1  0  0  0
 56 69  2  0  0  0
 57 58  2  0  0  0
 57130  1  0  0  0
 58131  1  0  0  0
 59 60  1  0  0  0
 59 61  1  0  0  0
 59 62  1  0  0  0
 60132  1  0  0  0
 60133  1  0  0  0
 60134  1  0  0  0
 61135  1  0  0  0
 61136  1  0  0  0
 61137  1  0  0  0
 62138  1  0  0  0
 62139  1  0  0  0
 62140  1  0  0  0
 63 65  1  0  0  0
 63141  1  0  0  0
 63142  1  0  0  0
 63143  1  0  0  0
 64144  1  0  0  0
 65145  1  0  0  0
 68 83  1  0  0  0
 71 74  1  0  0  0
 71 77  1  0  0  0
 71146  1  0  0  0
 71147  1  0  0  0
 72 75  1  0  0  0
 72 77  1  0  0  0
 72148  1  0  0  0
 72149  1  0  0  0
 73 76  1  0  0  0
 73 78  1  0  0  0
 73150  1  0  0  0
 73151  1  0  0  0
 74 84  1  0  0  0
 74152  1  0  0  0
 74153  1  0  0  0
 75 84  1  0  0  0
 75154  1  0  0  0
 75155  1  0  0  0
 76 85  1  0  0  0
 76156  1  0  0  0
 76157  1  0  0  0
 77 79  1  0  0  0
 77158  1  0  0  0
 78 80  1  0  0  0
 78 85  1  0  0  0
 78159  1  0  0  0
 79 81  1  0  0  0
 79160  1  0  0  0
 79161  1  0  0  0
 80 86  1  0  0  0
 80162  1  0  0  0
 80163  1  0  0  0
 81 85  1  0  0  0
 81164  1  0  0  0
 81165  1  0  0  0
 82 83  1  0  0  0
 82 86  1  0  0  0
 82166  1  0  0  0
 82167  1  0  0  0
 83168  1  0  0  0
 83169  1  0  0  0
 86170  1  0  0  0
 86171  1  0  0  0
M  CHG  1  86   1
M  ISO  4   1 100  68 101  83 101  84 100
M  END
> <chiral flag>
0

> <version>
0

> <s_m_source_file>
/data/baiqing/PycharmProjects/Reinvent-master-3.2/result/LINK_invent/BTK/process_docking_weight1_custom_sum_contain_oxygen_bond_distance_aromatic_linkinvent_7_9_3/rearranged_h_0140.sdf

> <i_m_source_file_index>
57

> <r_mmod_Potential_Energy-OPLS-2005>
65.517219543457

> <r_mmod_Stretch_Energy-OPLS-2005>
32.4919586181641

> <r_mmod_Bend_Energy-OPLS-2005>
119.41739654541

> <r_mmod_Torsional_Energy-OPLS-2005>
356.950592041016

> <r_mmod_Improper_Torsional_Energy-OPLS-2005>
9.5806827545166

> <r_mmod_Van_der_Waal_Energy-OPLS-2005>
140.187347412109

> <r_mmod_Electrostatic_Energy-OPLS-2005>
-192.790390014648

> <r_mmod_Solvation_Energy-OPLS-2005>
-407.369262695312

> <b_mmod_Minimization_Converged-OPLS-2005>
0

> <r_mmod_RMS_Derivative-OPLS-2005>
0.773388922214508

$$$$
57
                    3D
 Structure written by MMmdl.
168177  0  0  1  0            999 V2000
  -30.6925  -14.4958   20.5675 C   0  0  0  0  0  0
  -30.4251  -12.3253   19.4206 C   0  0  0  0  0  0
  -29.4902  -12.4996   18.2055 C   0  0  0  0  0  0
  -28.0136  -12.3550   18.6240 C   0  0  0  0  0  0
  -27.6581  -13.2046   19.8733 C   0  0  2  0  0  0
  -28.7023  -13.0031   20.9935 C   0  0  0  0  0  0
  -25.2583  -13.8143   20.5704 C   0  0  0  0  0  0
  -24.1805  -13.0424   20.9095 C   0  0  0  0  0  0
  -24.6365  -11.6890   20.8686 C   0  0  0  0  0  0
  -23.9035  -10.4284   21.0375 C   0  0  0  0  0  0
  -24.3598   -9.4214   21.9161 C   0  0  0  0  0  0
  -23.6283   -8.2244   22.0746 C   0  0  0  0  0  0
  -22.4261   -8.0275   21.3539 C   0  0  0  0  0  0
  -21.9887   -9.0237   20.4639 C   0  0  0  0  0  0
  -22.7205  -10.2119   20.3035 C   0  0  0  0  0  0
  -21.6852   -6.0729   22.5278 C   0  0  0  0  0  0
  -21.4014   -6.5635   23.8208 C   0  0  0  0  0  0
  -21.3658   -5.6793   24.9172 C   0  0  0  0  0  0
  -21.6045   -4.3055   24.7231 C   0  0  0  0  0  0
  -21.8822   -3.8143   23.4352 C   0  0  0  0  0  0
  -21.9194   -4.6957   22.3401 C   0  0  0  0  0  0
  -22.7841  -13.5229   21.1806 C   0  0  0  0  0  0
  -22.1664   -4.2141   21.0980 F   0  0  0  0  0  0
  -21.5626   -3.4540   25.7745 F   0  0  0  0  0  0
  -30.0279  -13.3156   20.4339 N   0  0  0  0  0  0
  -26.3008  -12.9308   20.3399 N   0  0  0  0  0  0
  -25.9298  -11.6475   20.5764 N   0  0  0  0  0  0
  -22.0509  -12.8208   22.0374 N   0  0  0  0  0  0
  -25.4442  -15.1870   20.4318 N   0  0  0  0  0  0
  -31.8208  -14.6852   20.1091 O   0  0  0  0  0  0
  -21.6633   -6.8868   21.4238 O   0  0  0  0  0  0
  -22.3545  -14.5572   20.6724 O   0  0  0  0  0  0
  -24.6171  -31.8649   23.2077 C   0  0  0  0  0  0
  -25.9054  -32.4803   23.8379 C   0  0  1  0  0  0
  -27.2345  -27.4167   20.1007 C   0  0  0  0  0  0
  -25.5909  -33.8602   24.2311 N   0  0  0  0  0  0
  -23.4068  -30.4869   21.5488 C   0  0  2  0  0  0
  -24.8560  -28.9528   20.1123 C   0  0  0  0  0  0
  -22.7426  -29.4630   22.4982 C   0  0  0  0  0  0
  -18.0273  -28.1363   22.8471 C   0  0  0  0  0  0
  -24.1487  -36.7309   23.2637 C   0  0  0  0  0  0
  -25.9380  -30.8273   21.3627 C   0  0  0  0  0  0
  -26.0184  -29.4613   20.7073 C   0  0  0  0  0  0
  -27.2153  -28.7028   20.6932 C   0  0  0  0  0  0
  -26.0584  -26.9325   19.4902 C   0  0  0  0  0  0
  -24.8718  -27.6888   19.4978 C   0  0  0  0  0  0
  -23.6165  -29.8185   20.1636 C   0  0  0  0  0  0
  -25.4110  -36.3098   24.0334 C   0  0  1  0  0  0
  -20.5864  -28.3658   23.1305 C   0  0  2  0  0  0
  -20.6761  -26.9388   22.5418 C   0  0  0  0  0  0
  -19.5752  -26.6379   21.5199 C   0  0  0  0  0  0
  -18.1922  -26.7912   22.1596 C   0  0  0  0  0  0
  -19.1523  -28.8827   23.2877 C   0  0  0  0  0  0
  -18.9451  -30.1429   23.8896 C   0  0  0  0  0  0
  -17.6456  -30.6569   24.0555 C   0  0  0  0  0  0
  -25.9040  -34.9462   23.5118 C   0  0  0  0  0  0
  -16.5346  -29.9071   23.6324 C   0  0  0  0  0  0
  -16.7262  -28.6488   23.0341 C   0  0  0  0  0  0
  -26.4483  -31.6586   25.0709 C   0  0  0  0  0  0
  -25.3747  -31.3688   26.1455 C   0  0  0  0  0  0
  -27.0320  -30.3026   24.6092 C   0  0  0  0  0  0
  -27.6054  -32.4313   25.7475 C   0  0  0  0  0  0
  -27.5583  -37.1803   24.8460 C   0  0  0  0  0  0
  -21.4152  -29.3022   22.3718 N   0  0  0  0  0  0
  -26.4293  -37.3786   23.9408 N   0  0  0  0  0  0
  -24.6723  -31.0734   22.0984 N   0  0  0  0  0  0
  -23.4183  -28.8170   23.3032 O   0  0  0  0  0  0
  -28.3698  -26.6295   20.1111 O   0  0  0  0  0  0
  -26.5601  -34.8914   22.4677 O   0  0  0  0  0  0
  -23.5359  -32.1408   23.7460 O   0  0  0  0  0  0
  -27.3341  -21.7893   18.3493 C   0  0  0  0  0  0
  -28.9068  -21.1848   20.0904 C   0  0  0  0  0  0
  -26.8816  -20.4573   18.2568 C   0  0  0  0  0  0
  -27.4642  -19.4618   19.0881 C   0  0  0  0  0  0
  -28.3125  -22.1880   19.2750 C   0  0  0  0  0  0
  -28.5084  -19.8208   19.9895 C   0  0  0  0  0  0
  -24.6266  -21.0967   17.0510 C   0  0  0  0  0  0
  -24.3981  -19.7512   17.6914 C   0  0  0  0  0  0
  -25.7923  -20.1528   17.2607 C   0  0  0  0  0  0
  -26.9190  -18.0291   19.0495 C   0  0  0  0  0  0
  -30.4579  -16.8916   21.3379 C   0  0  0  0  0  0
  -29.9951  -17.9398   20.2818 C   0  0  0  0  0  0
  -28.2176  -25.3898   20.8415 C   0  0  0  0  0  0
  -29.1415  -24.2172   20.4073 C   0  0  0  0  0  0
  -29.9867  -15.5085   21.1088 N   0  0  0  0  0  0
  -27.2627  -17.3226   17.8042 N   0  3  0  0  0  0
  -28.6178  -23.5426   19.2563 O   0  0  0  0  0  0
  -29.0717  -18.8874   20.8459 O   0  0  0  0  0  0
  -31.4663  -12.4369   19.1131 H   0  0  0  0  0  0
  -30.3424  -11.3177   19.8309 H   0  0  0  0  0  0
  -29.7325  -11.7631   17.4376 H   0  0  0  0  0  0
  -29.6506  -13.4785   17.7509 H   0  0  0  0  0  0
  -27.8318  -11.3000   18.8327 H   0  0  0  0  0  0
  -27.3580  -12.6144   17.7917 H   0  0  0  0  0  0
  -27.6959  -14.2488   19.5631 H   0  0  0  0  0  0
  -28.6873  -11.9702   21.3441 H   0  0  0  0  0  0
  -28.4625  -13.6109   21.8669 H   0  0  0  0  0  0
  -25.2745   -9.5702   22.4728 H   0  0  0  0  0  0
  -24.0001   -7.4642   22.7468 H   0  0  0  0  0  0
  -21.0815   -8.8744   19.8949 H   0  0  0  0  0  0
  -22.3651  -10.9649   19.6141 H   0  0  0  0  0  0
  -21.2011   -7.6146   23.9707 H   0  0  0  0  0  0
  -21.1473   -6.0526   25.9074 H   0  0  0  0  0  0
  -22.0604   -2.7606   23.2856 H   0  0  0  0  0  0
  -22.4128  -11.9846   22.4713 H   0  0  0  0  0  0
  -21.1133  -13.1230   22.2627 H   0  0  0  0  0  0
  -24.6920  -15.7731   20.7774 H   0  0  0  0  0  0
  -26.3513  -15.5359   20.7066 H   0  0  0  0  0  0
  -26.7128  -32.5510   23.1145 H   0  0  0  0  0  0
  -25.0081  -33.9763   25.0471 H   0  0  0  0  0  0
  -22.6954  -31.3029   21.4066 H   0  0  0  0  0  0
  -23.3744  -35.9645   23.3307 H   0  0  0  0  0  0
  -24.3586  -36.8926   22.2051 H   0  0  0  0  0  0
  -23.7249  -37.6515   23.6656 H   0  0  0  0  0  0
  -26.0521  -31.5947   20.5959 H   0  0  0  0  0  0
  -26.8244  -30.8812   21.9826 H   0  0  0  0  0  0
  -28.1134  -29.0896   21.1536 H   0  0  0  0  0  0
  -26.0572  -25.9622   19.0129 H   0  0  0  0  0  0
  -23.9816  -27.2921   19.0301 H   0  0  0  0  0  0
  -23.7204  -30.5915   19.4014 H   0  0  0  0  0  0
  -22.7419  -29.2350   19.8694 H   0  0  0  0  0  0
  -25.1284  -36.1966   25.0828 H   0  0  0  0  0  0
  -20.9941  -28.3227   24.1430 H   0  0  0  0  0  0
  -20.5649  -26.2263   23.3607 H   0  0  0  0  0  0
  -21.6641  -26.7414   22.1232 H   0  0  0  0  0  0
  -19.6920  -25.6292   21.1227 H   0  0  0  0  0  0
  -19.6707  -27.3192   20.6724 H   0  0  0  0  0  0
  -17.4199  -26.6661   21.3982 H   0  0  0  0  0  0
  -18.0305  -26.0038   22.8975 H   0  0  0  0  0  0
  -19.7929  -30.7232   24.2282 H   0  0  0  0  0  0
  -17.5014  -31.6254   24.5148 H   0  0  0  0  0  0
  -15.5348  -30.2974   23.7649 H   0  0  0  0  0  0
  -15.8657  -28.0817   22.7055 H   0  0  0  0  0  0
  -24.5970  -30.6964   25.7812 H   0  0  0  0  0  0
  -24.8869  -32.2828   26.4843 H   0  0  0  0  0  0
  -25.8111  -30.8935   27.0245 H   0  0  0  0  0  0
  -26.2854  -29.6783   24.1165 H   0  0  0  0  0  0
  -27.4112  -29.7269   25.4542 H   0  0  0  0  0  0
  -27.8678  -30.4346   23.9216 H   0  0  0  0  0  0
  -27.2673  -33.3613   26.2055 H   0  0  0  0  0  0
  -28.3858  -32.6879   25.0299 H   0  0  0  0  0  0
  -28.0724  -31.8435   26.5391 H   0  0  0  0  0  0
  -28.2595  -38.0102   24.7514 H   0  0  0  0  0  0
  -28.1083  -36.2637   24.6275 H   0  0  0  0  0  0
  -27.2303  -37.1450   25.8862 H   0  0  0  0  0  0
  -20.9320  -29.8759   21.6948 H   0  0  0  0  0  0
  -26.0181  -38.2862   24.1417 H   0  0  0  0  0  0
  -26.8987  -22.5413   17.7057 H   0  0  0  0  0  0
  -29.6841  -21.4420   20.7944 H   0  0  0  0  0  0
  -24.5300  -21.9661   17.6984 H   0  0  0  0  0  0
  -24.2583  -21.2279   16.0354 H   0  0  0  0  0  0
  -23.8714  -19.0080   17.0955 H   0  0  0  0  0  0
  -24.1688  -19.7453   18.7552 H   0  0  0  0  0  0
  -26.2053  -19.6961   16.3631 H   0  0  0  0  0  0
  -25.8368  -18.0416   19.1687 H   0  0  0  0  0  0
  -27.2805  -17.4530   19.9001 H   0  0  0  0  0  0
  -30.1302  -17.2051   22.3299 H   0  0  0  0  0  0
  -31.5486  -16.9009   21.3860 H   0  0  0  0  0  0
  -29.5928  -17.4434   19.4009 H   0  0  0  0  0  0
  -30.8650  -18.4989   19.9328 H   0  0  0  0  0  0
  -28.4562  -25.6314   21.8781 H   0  0  0  0  0  0
  -27.1890  -25.0277   20.8666 H   0  0  0  0  0  0
  -29.2324  -23.5403   21.2555 H   0  0  0  0  0  0
  -30.1463  -24.5824   20.1938 H   0  0  0  0  0  0
  -29.0625  -15.2788   21.4416 H   0  0  0  0  0  0
  -26.8746  -17.8038   17.0141 H   0  0  0  0  0  0
  -26.8742  -16.3955   17.8221 H   0  0  0  0  0  0
  -28.2564  -17.2598   17.6812 H   0  0  0  0  0  0
  1 25  1  0  0  0
  1 30  2  0  0  0
  1 85  1  0  0  0
  2  3  1  0  0  0
  2 25  1  0  0  0
  2 89  1  0  0  0
  2 90  1  0  0  0
  3  4  1  0  0  0
  3 91  1  0  0  0
  3 92  1  0  0  0
  4  5  1  0  0  0
  4 93  1  0  0  0
  4 94  1  0  0  0
  5  6  1  0  0  0
  5 26  1  0  0  0
  5 95  1  0  0  0
  6 25  1  0  0  0
  6 96  1  0  0  0
  6 97  1  0  0  0
  7  8  2  0  0  0
  7 26  1  0  0  0
  7 29  1  0  0  0
  8  9  1  0  0  0
  8 22  1  0  0  0
  9 10  1  0  0  0
  9 27  2  0  0  0
 10 11  2  0  0  0
 10 15  1  0  0  0
 11 12  1  0  0  0
 11 98  1  0  0  0
 12 13  2  0  0  0
 12 99  1  0  0  0
 13 14  1  0  0  0
 13 31  1  0  0  0
 14 15  2  0  0  0
 14100  1  0  0  0
 15101  1  0  0  0
 16 17  2  0  0  0
 16 21  1  0  0  0
 16 31  1  0  0  0
 17 18  1  0  0  0
 17102  1  0  0  0
 18 19  2  0  0  0
 18103  1  0  0  0
 19 20  1  0  0  0
 19 24  1  0  0  0
 20 21  2  0  0  0
 20104  1  0  0  0
 21 23  1  0  0  0
 22 28  1  0  0  0
 22 32  2  0  0  0
 26 27  1  0  0  0
 28105  1  0  0  0
 28106  1  0  0  0
 29107  1  0  0  0
 29108  1  0  0  0
 33 34  1  0  0  0
 33 66  1  0  0  0
 33 70  2  0  0  0
 34 36  1  0  0  0
 34 59  1  0  0  0
 34109  1  0  0  0
 35 44  2  0  0  0
 35 45  1  0  0  0
 35 68  1  0  0  0
 36 56  1  0  0  0
 36110  1  0  0  0
 37 39  1  0  0  0
 37 47  1  0  0  0
 37 66  1  0  0  0
 37111  1  0  0  0
 38 43  2  0  0  0
 38 46  1  0  0  0
 38 47  1  0  0  0
 39 64  1  0  0  0
 39 67  2  0  0  0
 40 52  1  0  0  0
 40 53  2  0  0  0
 40 58  1  0  0  0
 41112  1  0  0  0
 41113  1  0  0  0
 41114  1  0  0  0
 41 48  1  0  0  0
 42 43  1  0  0  0
 42 66  1  0  0  0
 42115  1  0  0  0
 42116  1  0  0  0
 43 44  1  0  0  0
 44117  1  0  0  0
 45 46  2  0  0  0
 45118  1  0  0  0
 46119  1  0  0  0
 47120  1  0  0  0
 47121  1  0  0  0
 48 56  1  0  0  0
 48 65  1  0  0  0
 48122  1  0  0  0
 49 50  1  0  0  0
 49 53  1  0  0  0
 49 64  1  0  0  0
 49123  1  0  0  0
 50 51  1  0  0  0
 50124  1  0  0  0
 50125  1  0  0  0
 51 52  1  0  0  0
 51126  1  0  0  0
 51127  1  0  0  0
 52128  1  0  0  0
 52129  1  0  0  0
 53 54  1  0  0  0
 54 55  2  0  0  0
 54130  1  0  0  0
 55 57  1  0  0  0
 55131  1  0  0  0
 56 69  2  0  0  0
 57 58  2  0  0  0
 57132  1  0  0  0
 58133  1  0  0  0
 59 60  1  0  0  0
 59 61  1  0  0  0
 59 62  1  0  0  0
 60134  1  0  0  0
 60135  1  0  0  0
 60136  1  0  0  0
 61137  1  0  0  0
 61138  1  0  0  0
 61139  1  0  0  0
 62140  1  0  0  0
 62141  1  0  0  0
 62142  1  0  0  0
 63 65  1  0  0  0
 63143  1  0  0  0
 63144  1  0  0  0
 63145  1  0  0  0
 64146  1  0  0  0
 65147  1  0  0  0
 68 83  1  0  0  0
 71 73  2  0  0  0
 71 75  1  0  0  0
 71148  1  0  0  0
 72 75  2  0  0  0
 72 76  1  0  0  0
 72149  1  0  0  0
 73 74  1  0  0  0
 73 79  1  0  0  0
 74 76  2  0  0  0
 74 80  1  0  0  0
 75 87  1  0  0  0
 76 88  1  0  0  0
 77 78  1  0  0  0
 77 79  1  0  0  0
 77150  1  0  0  0
 77151  1  0  0  0
 78 79  1  0  0  0
 78152  1  0  0  0
 78153  1  0  0  0
 79154  1  0  0  0
 80 86  1  0  0  0
 80155  1  0  0  0
 80156  1  0  0  0
 81 82  1  0  0  0
 81 85  1  0  0  0
 81157  1  0  0  0
 81158  1  0  0  0
 82 88  1  0  0  0
 82159  1  0  0  0
 82160  1  0  0  0
 83 84  1  0  0  0
 83161  1  0  0  0
 83162  1  0  0  0
 84 87  1  0  0  0
 84163  1  0  0  0
 84164  1  0  0  0
 85165  1  0  0  0
 86166  1  0  0  0
 86167  1  0  0  0
 86168  1  0  0  0
M  CHG  1  86   1
M  ISO  4   1 100  68 101  83 101  85 100
M  END
> <chiral flag>
0

> <version>
0

> <s_m_source_file>
/data/baiqing/PycharmProjects/Reinvent-master-3.2/result/LINK_invent/BTK/process_docking_weight1_custom_sum_contain_oxygen_bond_distance_aromatic_linkinvent_7_9_3/rearranged_h_0140.sdf

> <i_m_source_file_index>
58

> <r_mmod_Potential_Energy-OPLS-2005>
-294.302947998047

> <r_mmod_Stretch_Energy-OPLS-2005>
45.1434631347656

> <r_mmod_Bend_Energy-OPLS-2005>
112.146011352539

> <r_mmod_Torsional_Energy-OPLS-2005>
291.107727050781

> <r_mmod_Improper_Torsional_Energy-OPLS-2005>
7.63638496398926

> <r_mmod_Van_der_Waal_Energy-OPLS-2005>
142.376251220703

> <r_mmod_Electrostatic_Energy-OPLS-2005>
-408.553466796875

> <r_mmod_Solvation_Energy-OPLS-2005>
-500.539337158203

> <b_mmod_Minimization_Converged-OPLS-2005>
0

> <r_mmod_RMS_Derivative-OPLS-2005>
1.29797852039337

$$$$
58
                    3D
 Structure written by MMmdl.
168177  0  0  1  0            999 V2000
  -30.6804  -14.4843   20.5707 C   0  0  0  0  0  0
  -30.4279  -12.3104   19.4225 C   0  0  0  0  0  0
  -29.4960  -12.5095   18.2075 C   0  0  0  0  0  0
  -28.0155  -12.3693   18.6171 C   0  0  0  0  0  0
  -27.6621  -13.2031   19.8785 C   0  0  2  0  0  0
  -28.7044  -12.9712   20.9967 C   0  0  0  0  0  0
  -25.2582  -13.8142   20.5690 C   0  0  0  0  0  0
  -24.1832  -13.0430   20.9214 C   0  0  0  0  0  0
  -24.6376  -11.6893   20.8730 C   0  0  0  0  0  0
  -23.9027  -10.4287   21.0385 C   0  0  0  0  0  0
  -24.3588   -9.4212   21.9172 C   0  0  0  0  0  0
  -23.6278   -8.2244   22.0743 C   0  0  0  0  0  0
  -22.4259   -8.0279   21.3534 C   0  0  0  0  0  0
  -21.9885   -9.0246   20.4632 C   0  0  0  0  0  0
  -22.7200  -10.2132   20.3037 C   0  0  0  0  0  0
  -21.6854   -6.0734   22.5272 C   0  0  0  0  0  0
  -21.4004   -6.5631   23.8204 C   0  0  0  0  0  0
  -21.3667   -5.6784   24.9166 C   0  0  0  0  0  0
  -21.6055   -4.3047   24.7223 C   0  0  0  0  0  0
  -21.8808   -3.8143   23.4342 C   0  0  0  0  0  0
  -21.9188   -4.6961   22.3402 C   0  0  0  0  0  0
  -22.7854  -13.5231   21.1869 C   0  0  0  0  0  0
  -22.1642   -4.2143   21.0981 F   0  0  0  0  0  0
  -21.5662   -3.4533   25.7741 F   0  0  0  0  0  0
  -30.0375  -13.2883   20.4513 N   0  0  0  0  0  0
  -26.3016  -12.9303   20.3366 N   0  0  0  0  0  0
  -25.9299  -11.6461   20.5747 N   0  0  0  0  0  0
  -22.0487  -12.8217   22.0421 N   0  0  0  0  0  0
  -25.4287  -15.1859   20.4046 N   0  0  0  0  0  0
  -31.8081  -14.6757   20.1022 O   0  0  0  0  0  0
  -21.6634   -6.8870   21.4227 O   0  0  0  0  0  0
  -22.3544  -14.5533   20.6712 O   0  0  0  0  0  0
  -24.6160  -31.8680   23.2118 C   0  0  0  0  0  0
  -25.9062  -32.4826   23.8413 C   0  0  1  0  0  0
  -27.2381  -27.4234   20.0928 C   0  0  0  0  0  0
  -25.5933  -33.8629   24.2345 N   0  0  0  0  0  0
  -23.4048  -30.4926   21.5506 C   0  0  2  0  0  0
  -24.8515  -28.9587   20.1173 C   0  0  0  0  0  0
  -22.7411  -29.4668   22.4984 C   0  0  0  0  0  0
  -18.0275  -28.1392   22.8499 C   0  0  0  0  0  0
  -24.1493  -36.7300   23.2633 C   0  0  0  0  0  0
  -25.9351  -30.8295   21.3685 C   0  0  0  0  0  0
  -26.0116  -29.4620   20.7170 C   0  0  0  0  0  0
  -27.2034  -28.6997   20.7072 C   0  0  0  0  0  0
  -26.0542  -26.9418   19.4856 C   0  0  0  0  0  0
  -24.8677  -27.6969   19.5020 C   0  0  0  0  0  0
  -23.6135  -29.8241   20.1659 C   0  0  0  0  0  0
  -25.4122  -36.3120   24.0332 C   0  0  1  0  0  0
  -20.5867  -28.3683   23.1317 C   0  0  2  0  0  0
  -20.6774  -26.9415   22.5423 C   0  0  0  0  0  0
  -19.5743  -26.6394   21.5228 C   0  0  0  0  0  0
  -18.1922  -26.7938   22.1636 C   0  0  0  0  0  0
  -19.1528  -28.8854   23.2902 C   0  0  0  0  0  0
  -18.9446  -30.1459   23.8918 C   0  0  0  0  0  0
  -17.6450  -30.6592   24.0584 C   0  0  0  0  0  0
  -25.9051  -34.9477   23.5128 C   0  0  0  0  0  0
  -16.5340  -29.9096   23.6340 C   0  0  0  0  0  0
  -16.7265  -28.6508   23.0364 C   0  0  0  0  0  0
  -26.4497  -31.6605   25.0737 C   0  0  0  0  0  0
  -25.3751  -31.3688   26.1468 C   0  0  0  0  0  0
  -27.0339  -30.3052   24.6128 C   0  0  0  0  0  0
  -27.6094  -32.4319   25.7473 C   0  0  0  0  0  0
  -27.5593  -37.1806   24.8462 C   0  0  0  0  0  0
  -21.4137  -29.3044   22.3707 N   0  0  0  0  0  0
  -26.4307  -37.3808   23.9403 N   0  0  0  0  0  0
  -24.6695  -31.0777   22.1019 N   0  0  0  0  0  0
  -23.4173  -28.8208   23.3036 O   0  0  0  0  0  0
  -28.4179  -26.6947   20.1169 O   0  0  0  0  0  0
  -26.5595  -34.8919   22.4678 O   0  0  0  0  0  0
  -23.5353  -32.1447   23.7498 O   0  0  0  0  0  0
  -28.6181  -17.4024   20.6875 C   0  0  0  0  0  0
  -28.4560  -18.7464   20.2949 C   0  0  0  0  0  0
  -29.6068  -19.5485   20.0788 C   0  0  0  0  0  0
  -30.8669  -18.9392   20.3370 C   0  0  0  0  0  0
  -29.9019  -16.8442   20.8266 C   0  0  0  0  0  0
  -27.7797  -24.2314   20.2109 C   0  0  0  0  0  0
  -29.7279  -24.5800   19.7338 C   0  0  0  0  0  0
  -28.4542  -25.4046   19.4776 C   0  0  2  0  0  0
  -27.0475  -19.2711   20.0679 C   0  0  0  0  0  0
  -33.0309  -19.1298   19.0348 C   0  0  0  0  0  0
  -32.9846  -19.6778   21.5313 C   0  0  0  0  0  0
  -29.4593  -20.9633   19.4654 C   0  0  0  0  0  0
  -29.2356  -22.1613   20.4341 C   0  0  0  0  0  0
  -32.2013  -19.6794   20.2066 C   0  0  0  0  0  0
  -30.9919  -17.6315   20.6859 N   0  0  0  0  0  0
  -29.9394  -15.4548   21.1445 N   0  0  0  0  0  0
  -28.8619  -23.3952   19.6772 N   0  3  1  0  0  0
  -31.4714  -12.4169   19.1206 H   0  0  0  0  0  0
  -30.3380  -11.2968   19.8166 H   0  0  0  0  0  0
  -29.7372  -11.7885   17.4247 H   0  0  0  0  0  0
  -29.6629  -13.4959   17.7724 H   0  0  0  0  0  0
  -27.8227  -11.3131   18.8046 H   0  0  0  0  0  0
  -27.3664  -12.6509   17.7866 H   0  0  0  0  0  0
  -27.7074  -14.2527   19.5881 H   0  0  0  0  0  0
  -28.6856  -11.9289   21.3180 H   0  0  0  0  0  0
  -28.4598  -13.5477   21.8900 H   0  0  0  0  0  0
  -25.2735   -9.5696   22.4737 H   0  0  0  0  0  0
  -24.0007   -7.4621   22.7442 H   0  0  0  0  0  0
  -21.0827   -8.8729   19.8930 H   0  0  0  0  0  0
  -22.3650  -10.9657   19.6137 H   0  0  0  0  0  0
  -21.1961   -7.6129   23.9708 H   0  0  0  0  0  0
  -21.1515   -6.0512   25.9072 H   0  0  0  0  0  0
  -22.0584   -2.7609   23.2838 H   0  0  0  0  0  0
  -22.4096  -11.9870   22.4802 H   0  0  0  0  0  0
  -21.1096  -13.1206   22.2621 H   0  0  0  0  0  0
  -24.6579  -15.8356   20.5092 H   0  0  0  0  0  0
  -26.2531  -15.6090   20.0011 H   0  0  0  0  0  0
  -26.7127  -32.5540   23.1175 H   0  0  0  0  0  0
  -25.0168  -33.9795   25.0550 H   0  0  0  0  0  0
  -22.6954  -31.3108   21.4103 H   0  0  0  0  0  0
  -23.3780  -35.9611   23.3302 H   0  0  0  0  0  0
  -24.3582  -36.8918   22.2049 H   0  0  0  0  0  0
  -23.7213  -37.6489   23.6643 H   0  0  0  0  0  0
  -26.0498  -31.5957   20.6003 H   0  0  0  0  0  0
  -26.8219  -30.8815   21.9884 H   0  0  0  0  0  0
  -28.0974  -29.0865   21.1747 H   0  0  0  0  0  0
  -26.0154  -25.9829   18.9937 H   0  0  0  0  0  0
  -23.9765  -27.3017   19.0355 H   0  0  0  0  0  0
  -23.7202  -30.5981   19.4044 H   0  0  0  0  0  0
  -22.7384  -29.2412   19.8721 H   0  0  0  0  0  0
  -25.1306  -36.2005   25.0832 H   0  0  0  0  0  0
  -20.9978  -28.3265   24.1437 H   0  0  0  0  0  0
  -20.5727  -26.2288   23.3615 H   0  0  0  0  0  0
  -21.6630  -26.7474   22.1183 H   0  0  0  0  0  0
  -19.6904  -25.6307   21.1248 H   0  0  0  0  0  0
  -19.6685  -27.3231   20.6773 H   0  0  0  0  0  0
  -17.4202  -26.6725   21.4028 H   0  0  0  0  0  0
  -18.0288  -26.0067   22.9012 H   0  0  0  0  0  0
  -19.7917  -30.7277   24.2294 H   0  0  0  0  0  0
  -17.4994  -31.6272   24.5184 H   0  0  0  0  0  0
  -15.5345  -30.3014   23.7624 H   0  0  0  0  0  0
  -15.8663  -28.0826   22.7085 H   0  0  0  0  0  0
  -24.5937  -30.7041   25.7768 H   0  0  0  0  0  0
  -24.8927  -32.2823   26.4950 H   0  0  0  0  0  0
  -25.8098  -30.8814   27.0199 H   0  0  0  0  0  0
  -26.2888  -29.6781   24.1219 H   0  0  0  0  0  0
  -27.4142  -29.7330   25.4600 H   0  0  0  0  0  0
  -27.8707  -30.4383   23.9268 H   0  0  0  0  0  0
  -27.2769  -33.3626   26.2081 H   0  0  0  0  0  0
  -28.3878  -32.6870   25.0266 H   0  0  0  0  0  0
  -28.0795  -31.8414   26.5348 H   0  0  0  0  0  0
  -28.2609  -38.0110   24.7555 H   0  0  0  0  0  0
  -28.1094  -36.2640   24.6262 H   0  0  0  0  0  0
  -27.2283  -37.1425   25.8857 H   0  0  0  0  0  0
  -20.9303  -29.8745   21.6904 H   0  0  0  0  0  0
  -26.0197  -38.2877   24.1455 H   0  0  0  0  0  0
  -27.7438  -16.7848   20.8353 H   0  0  0  0  0  0
  -26.7917  -23.9513   19.8431 H   0  0  0  0  0  0
  -27.7958  -24.3235   21.2992 H   0  0  0  0  0  0
  -30.1697  -24.7561   20.7161 H   0  0  0  0  0  0
  -30.4724  -24.6232   18.9394 H   0  0  0  0  0  0
  -28.2160  -25.4534   18.4114 H   0  0  0  0  0  0
  -26.3018  -18.5876   20.4734 H   0  0  0  0  0  0
  -26.8490  -19.3779   19.0013 H   0  0  0  0  0  0
  -26.8957  -20.2361   20.5493 H   0  0  0  0  0  0
  -32.4784  -19.2062   18.0982 H   0  0  0  0  0  0
  -33.2806  -18.0791   19.1851 H   0  0  0  0  0  0
  -33.9649  -19.6785   18.9149 H   0  0  0  0  0  0
  -32.3969  -20.1346   22.3283 H   0  0  0  0  0  0
  -33.9156  -20.2384   21.4390 H   0  0  0  0  0  0
  -33.2383  -18.6652   21.8470 H   0  0  0  0  0  0
  -28.6266  -20.9284   18.7629 H   0  0  0  0  0  0
  -30.3094  -21.1724   18.8163 H   0  0  0  0  0  0
  -30.1183  -22.3355   21.0489 H   0  0  0  0  0  0
  -28.4276  -21.9198   21.1238 H   0  0  0  0  0  0
  -32.0165  -20.7292   19.9931 H   0  0  0  0  0  0
  -29.0815  -15.0973   21.5310 H   0  0  0  0  0  0
  -28.6594  -23.1703   18.7151 H   0  0  0  0  0  0
  1 25  1  0  0  0
  1 30  2  0  0  0
  1 86  1  0  0  0
  2  3  1  0  0  0
  2 25  1  0  0  0
  2 88  1  0  0  0
  2 89  1  0  0  0
  3  4  1  0  0  0
  3 90  1  0  0  0
  3 91  1  0  0  0
  4  5  1  0  0  0
  4 92  1  0  0  0
  4 93  1  0  0  0
  5  6  1  0  0  0
  5 26  1  0  0  0
  5 94  1  0  0  0
  6 25  1  0  0  0
  6 95  1  0  0  0
  6 96  1  0  0  0
  7  8  2  0  0  0
  7 26  1  0  0  0
  7 29  1  0  0  0
  8  9  1  0  0  0
  8 22  1  0  0  0
  9 10  1  0  0  0
  9 27  2  0  0  0
 10 11  2  0  0  0
 10 15  1  0  0  0
 11 12  1  0  0  0
 11 97  1  0  0  0
 12 13  2  0  0  0
 12 98  1  0  0  0
 13 14  1  0  0  0
 13 31  1  0  0  0
 14 15  2  0  0  0
 14 99  1  0  0  0
 15100  1  0  0  0
 16 17  2  0  0  0
 16 21  1  0  0  0
 16 31  1  0  0  0
 17 18  1  0  0  0
 17101  1  0  0  0
 18 19  2  0  0  0
 18102  1  0  0  0
 19 20  1  0  0  0
 19 24  1  0  0  0
 20 21  2  0  0  0
 20103  1  0  0  0
 21 23  1  0  0  0
 22 28  1  0  0  0
 22 32  2  0  0  0
 26 27  1  0  0  0
 28104  1  0  0  0
 28105  1  0  0  0
 29106  1  0  0  0
 29107  1  0  0  0
 33 34  1  0  0  0
 33 66  1  0  0  0
 33 70  2  0  0  0
 34 36  1  0  0  0
 34 59  1  0  0  0
 34108  1  0  0  0
 35 44  2  0  0  0
 35 45  1  0  0  0
 35 68  1  0  0  0
 36 56  1  0  0  0
 36109  1  0  0  0
 37 39  1  0  0  0
 37 47  1  0  0  0
 37 66  1  0  0  0
 37110  1  0  0  0
 38 43  2  0  0  0
 38 46  1  0  0  0
 38 47  1  0  0  0
 39 64  1  0  0  0
 39 67  2  0  0  0
 40 52  1  0  0  0
 40 53  2  0  0  0
 40 58  1  0  0  0
 41111  1  0  0  0
 41112  1  0  0  0
 41113  1  0  0  0
 41 48  1  0  0  0
 42 43  1  0  0  0
 42 66  1  0  0  0
 42114  1  0  0  0
 42115  1  0  0  0
 43 44  1  0  0  0
 44116  1  0  0  0
 45 46  2  0  0  0
 45117  1  0  0  0
 46118  1  0  0  0
 47119  1  0  0  0
 47120  1  0  0  0
 48 56  1  0  0  0
 48 65  1  0  0  0
 48121  1  0  0  0
 49 50  1  0  0  0
 49 53  1  0  0  0
 49 64  1  0  0  0
 49122  1  0  0  0
 50 51  1  0  0  0
 50123  1  0  0  0
 50124  1  0  0  0
 51 52  1  0  0  0
 51125  1  0  0  0
 51126  1  0  0  0
 52127  1  0  0  0
 52128  1  0  0  0
 53 54  1  0  0  0
 54 55  2  0  0  0
 54129  1  0  0  0
 55 57  1  0  0  0
 55130  1  0  0  0
 56 69  2  0  0  0
 57 58  2  0  0  0
 57131  1  0  0  0
 58132  1  0  0  0
 59 60  1  0  0  0
 59 61  1  0  0  0
 59 62  1  0  0  0
 60133  1  0  0  0
 60134  1  0  0  0
 60135  1  0  0  0
 61136  1  0  0  0
 61137  1  0  0  0
 61138  1  0  0  0
 62139  1  0  0  0
 62140  1  0  0  0
 62141  1  0  0  0
 63 65  1  0  0  0
 63142  1  0  0  0
 63143  1  0  0  0
 63144  1  0  0  0
 64145  1  0  0  0
 65146  1  0  0  0
 68 78  1  0  0  0
 71 72  2  0  0  0
 71 75  1  0  0  0
 71147  1  0  0  0
 72 73  1  0  0  0
 72 79  1  0  0  0
 73 74  2  0  0  0
 73 82  1  0  0  0
 74 84  1  0  0  0
 74 85  1  0  0  0
 75 85  2  0  0  0
 75 86  1  0  0  0
 76 78  1  0  0  0
 76 87  1  0  0  0
 76148  1  0  0  0
 76149  1  0  0  0
 77 78  1  0  0  0
 77 87  1  0  0  0
 77150  1  0  0  0
 77151  1  0  0  0
 78152  1  0  0  0
 79153  1  0  0  0
 79154  1  0  0  0
 79155  1  0  0  0
 80156  1  0  0  0
 80157  1  0  0  0
 80158  1  0  0  0
 80 84  1  0  0  0
 81 84  1  0  0  0
 81159  1  0  0  0
 81160  1  0  0  0
 81161  1  0  0  0
 82 83  1  0  0  0
 82162  1  0  0  0
 82163  1  0  0  0
 83164  1  0  0  0
 83165  1  0  0  0
 83 87  1  0  0  0
 84166  1  0  0  0
 86167  1  0  0  0
 87168  1  0  0  0
M  CHG  1  87   1
M  ISO  4   1 100  68 101  78 101  86 100
M  END
> <chiral flag>
0

> <version>
0

> <s_m_source_file>
/data/baiqing/PycharmProjects/Reinvent-master-3.2/result/LINK_invent/BTK/process_docking_weight1_custom_sum_contain_oxygen_bond_distance_aromatic_linkinvent_7_9_3/rearranged_h_0140.sdf

> <i_m_source_file_index>
59

> <r_mmod_Potential_Energy-OPLS-2005>
-386.841613769531

> <r_mmod_Stretch_Energy-OPLS-2005>
42.9106483459473

> <r_mmod_Bend_Energy-OPLS-2005>
136.508224487305

> <r_mmod_Torsional_Energy-OPLS-2005>
218.080795288086

> <r_mmod_Improper_Torsional_Energy-OPLS-2005>
5.36417102813721

> <r_mmod_Van_der_Waal_Energy-OPLS-2005>
154.103805541992

> <r_mmod_Electrostatic_Energy-OPLS-2005>
-454.816772460938

> <r_mmod_Solvation_Energy-OPLS-2005>
-502.655120849609

> <b_mmod_Minimization_Converged-OPLS-2005>
0

> <r_mmod_RMS_Derivative-OPLS-2005>
1.95431685447693

$$$$
59
                    3D
 Structure written by MMmdl.
166175  0  0  1  0            999 V2000
  -30.6124  -14.7144   20.4501 C   0  0  0  0  0  0
  -30.4349  -12.4301   19.4815 C   0  0  0  0  0  0
  -29.5140  -12.5098   18.2433 C   0  0  0  0  0  0
  -28.0392  -12.3359   18.6542 C   0  0  0  0  0  0
  -27.6484  -13.2281   19.8621 C   0  0  2  0  0  0
  -28.6920  -13.1410   20.9998 C   0  0  0  0  0  0
  -25.2527  -13.8183   20.5701 C   0  0  0  0  0  0
  -24.1810  -13.0434   20.9192 C   0  0  0  0  0  0
  -24.6393  -11.6908   20.8742 C   0  0  0  0  0  0
  -23.9065  -10.4287   21.0402 C   0  0  0  0  0  0
  -24.3611   -9.4204   21.9182 C   0  0  0  0  0  0
  -23.6283   -8.2241   22.0757 C   0  0  0  0  0  0
  -22.4266   -8.0278   21.3543 C   0  0  0  0  0  0
  -21.9902   -9.0252   20.4646 C   0  0  0  0  0  0
  -22.7233  -10.2131   20.3054 C   0  0  0  0  0  0
  -21.6851   -6.0725   22.5271 C   0  0  0  0  0  0
  -21.4017   -6.5631   23.8203 C   0  0  0  0  0  0
  -21.3662   -5.6788   24.9166 C   0  0  0  0  0  0
  -21.6046   -4.3050   24.7221 C   0  0  0  0  0  0
  -21.8820   -3.8136   23.4342 C   0  0  0  0  0  0
  -21.9192   -4.6952   22.3395 C   0  0  0  0  0  0
  -22.7829  -13.5219   21.1846 C   0  0  0  0  0  0
  -22.1658   -4.2135   21.0975 F   0  0  0  0  0  0
  -21.5630   -3.4535   25.7734 F   0  0  0  0  0  0
  -30.0030  -13.4813   20.4300 N   0  0  0  0  0  0
  -26.2965  -12.9389   20.3324 N   0  0  0  0  0  0
  -25.9333  -11.6537   20.5769 N   0  0  0  0  0  0
  -22.0477  -12.8224   22.0411 N   0  0  0  0  0  0
  -25.4207  -15.1911   20.4109 N   0  0  0  0  0  0
  -31.7805  -14.8344   20.0726 O   0  0  0  0  0  0
  -21.6636   -6.8871   21.4233 O   0  0  0  0  0  0
  -22.3513  -14.5528   20.6686 O   0  0  0  0  0  0
  -24.6301  -31.8572   23.2017 C   0  0  0  0  0  0
  -25.9134  -32.4766   23.8354 C   0  0  1  0  0  0
  -27.2222  -27.2730   20.1225 C   0  0  0  0  0  0
  -25.5918  -33.8566   24.2271 N   0  0  0  0  0  0
  -23.4262  -30.4803   21.5451 C   0  0  2  0  0  0
  -24.8751  -28.9325   20.1096 C   0  0  0  0  0  0
  -22.7500  -29.4609   22.4927 C   0  0  0  0  0  0
  -18.0289  -28.1369   22.8481 C   0  0  0  0  0  0
  -24.1493  -36.7291   23.2641 C   0  0  0  0  0  0
  -25.9725  -30.7708   21.3847 C   0  0  0  0  0  0
  -26.0448  -29.3955   20.7240 C   0  0  0  0  0  0
  -27.2190  -28.5766   20.7241 C   0  0  0  0  0  0
  -26.0314  -26.8867   19.4638 C   0  0  0  0  0  0
  -24.8726  -27.6859   19.4689 C   0  0  0  0  0  0
  -23.6448  -29.8170   20.1603 C   0  0  0  0  0  0
  -25.4117  -36.3077   24.0329 C   0  0  1  0  0  0
  -20.5896  -28.3688   23.1270 C   0  0  2  0  0  0
  -20.6783  -26.9407   22.5404 C   0  0  0  0  0  0
  -19.5757  -26.6370   21.5204 C   0  0  0  0  0  0
  -18.1933  -26.7916   22.1613 C   0  0  0  0  0  0
  -19.1543  -28.8844   23.2874 C   0  0  0  0  0  0
  -18.9467  -30.1444   23.8893 C   0  0  0  0  0  0
  -17.6469  -30.6581   24.0550 C   0  0  0  0  0  0
  -25.9052  -34.9446   23.5105 C   0  0  0  0  0  0
  -16.5357  -29.9076   23.6327 C   0  0  0  0  0  0
  -16.7276  -28.6485   23.0360 C   0  0  0  0  0  0
  -26.4502  -31.6595   25.0748 C   0  0  0  0  0  0
  -25.3723  -31.3735   26.1464 C   0  0  0  0  0  0
  -27.0367  -30.3011   24.6255 C   0  0  0  0  0  0
  -27.6052  -32.4346   25.7518 C   0  0  0  0  0  0
  -27.5584  -37.1799   24.8461 C   0  0  0  0  0  0
  -21.4208  -29.3043   22.3670 N   0  0  0  0  0  0
  -26.4294  -37.3769   23.9414 N   0  0  0  0  0  0
  -24.6947  -31.0536   22.0999 N   0  0  0  0  0  0
  -23.4207  -28.8145   23.3019 O   0  0  0  0  0  0
  -28.3166  -26.3785   20.2015 O   0  0  0  0  0  0
  -26.5623  -34.8913   22.4671 O   0  0  0  0  0  0
  -23.5449  -32.1393   23.7317 O   0  0  0  0  0  0
  -30.3997  -19.9178   22.6849 C   0  0  0  0  0  0
  -29.8923  -21.0595   22.0349 C   0  0  0  0  0  0
  -30.3893  -18.6494   22.0477 C   0  0  0  0  0  0
  -29.3691  -20.9516   20.7376 C   0  0  0  0  0  0
  -29.8275  -18.5546   20.7521 C   0  0  0  0  0  0
  -33.8562  -17.2035   24.1509 C   0  0  0  0  0  0
  -32.6012  -16.3532   23.9328 C   0  0  0  0  0  0
  -33.1571  -18.3243   23.3747 C   0  0  0  0  0  0
  -31.8171  -17.6537   23.7168 C   0  0  0  0  0  0
  -28.8065  -17.1479   18.8488 C   0  0  0  0  0  0
  -28.7312  -22.2202   20.0218 C   0  0  0  0  0  0
  -29.0284  -23.7419   20.4982 C   0  0  0  0  0  0
  -28.1007  -24.9212   19.9079 C   0  0  0  0  0  0
  -29.8904  -17.1775   19.9445 C   0  0  2  0  0  0
  -29.3537  -19.7070   20.1248 N   0  0  0  0  0  0
  -29.8103  -15.8193   20.6357 N   0  0  0  0  0  0
  -30.9287  -17.5152   22.6161 O   0  0  0  0  0  0
  -31.4784  -12.5450   19.1835 H   0  0  0  0  0  0
  -30.3674  -11.4480   19.9517 H   0  0  0  0  0  0
  -29.7926  -11.7466   17.5158 H   0  0  0  0  0  0
  -29.6464  -13.4720   17.7452 H   0  0  0  0  0  0
  -27.8933  -11.2858   18.9108 H   0  0  0  0  0  0
  -27.3834  -12.5359   17.8059 H   0  0  0  0  0  0
  -27.6483  -14.2528   19.4918 H   0  0  0  0  0  0
  -28.7146  -12.1387   21.4293 H   0  0  0  0  0  0
  -28.4325  -13.8162   21.8166 H   0  0  0  0  0  0
  -25.2757   -9.5677   22.4759 H   0  0  0  0  0  0
  -23.9980   -7.4638   22.7494 H   0  0  0  0  0  0
  -21.0825   -8.8776   19.8960 H   0  0  0  0  0  0
  -22.3688  -10.9669   19.6164 H   0  0  0  0  0  0
  -21.2015   -7.6139   23.9698 H   0  0  0  0  0  0
  -21.1485   -6.0521   25.9071 H   0  0  0  0  0  0
  -22.0601   -2.7597   23.2846 H   0  0  0  0  0  0
  -22.4085  -11.9881   22.4800 H   0  0  0  0  0  0
  -21.1100  -13.1265   22.2625 H   0  0  0  0  0  0
  -24.6494  -15.8415   20.5144 H   0  0  0  0  0  0
  -26.2647  -15.6309   20.0690 H   0  0  0  0  0  0
  -26.7210  -32.5423   23.1106 H   0  0  0  0  0  0
  -25.0048  -33.9711   25.0407 H   0  0  0  0  0  0
  -22.7202  -31.3006   21.4020 H   0  0  0  0  0  0
  -23.3754  -35.9619   23.3291 H   0  0  0  0  0  0
  -24.3564  -36.8916   22.2052 H   0  0  0  0  0  0
  -23.7244  -37.6485   23.6678 H   0  0  0  0  0  0
  -26.1133  -31.5353   20.6194 H   0  0  0  0  0  0
  -26.8486  -30.8160   22.0203 H   0  0  0  0  0  0
  -28.1108  -28.9239   21.2271 H   0  0  0  0  0  0
  -25.9589  -25.9432   18.9454 H   0  0  0  0  0  0
  -23.9801  -27.3291   18.9741 H   0  0  0  0  0  0
  -23.7685  -30.5954   19.4061 H   0  0  0  0  0  0
  -22.7640  -29.2496   19.8547 H   0  0  0  0  0  0
  -25.1302  -36.1919   25.0816 H   0  0  0  0  0  0
  -20.9979  -28.3267   24.1395 H   0  0  0  0  0  0
  -20.5666  -26.2301   23.3609 H   0  0  0  0  0  0
  -21.6657  -26.7426   22.1206 H   0  0  0  0  0  0
  -19.6909  -25.6277   21.1241 H   0  0  0  0  0  0
  -19.6691  -27.3177   20.6729 H   0  0  0  0  0  0
  -17.4206  -26.6665   21.4016 H   0  0  0  0  0  0
  -18.0334  -26.0054   22.9003 H   0  0  0  0  0  0
  -19.7952  -30.7253   24.2270 H   0  0  0  0  0  0
  -17.5031  -31.6265   24.5149 H   0  0  0  0  0  0
  -15.5359  -30.2973   23.7664 H   0  0  0  0  0  0
  -15.8676  -28.0796   22.7092 H   0  0  0  0  0  0
  -24.5909  -30.7068   25.7792 H   0  0  0  0  0  0
  -24.8901  -32.2903   26.4879 H   0  0  0  0  0  0
  -25.8044  -30.8923   27.0249 H   0  0  0  0  0  0
  -26.2969  -29.6731   24.1274 H   0  0  0  0  0  0
  -27.4034  -29.7291   25.4789 H   0  0  0  0  0  0
  -27.8853  -30.4274   23.9523 H   0  0  0  0  0  0
  -27.2661  -33.3664   26.2057 H   0  0  0  0  0  0
  -28.3886  -32.6866   25.0361 H   0  0  0  0  0  0
  -28.0705  -31.8494   26.5463 H   0  0  0  0  0  0
  -28.2595  -38.0109   24.7515 H   0  0  0  0  0  0
  -28.1089  -36.2631   24.6286 H   0  0  0  0  0  0
  -27.2289  -37.1432   25.8860 H   0  0  0  0  0  0
  -20.9393  -29.8770   21.6880 H   0  0  0  0  0  0
  -26.0170  -38.2838   24.1411 H   0  0  0  0  0  0
  -30.8021  -20.0387   23.6796 H   0  0  0  0  0  0
  -29.9063  -22.0087   22.5502 H   0  0  0  0  0  0
  -34.7599  -16.8145   23.6794 H   0  0  0  0  0  0
  -34.0217  -17.4521   25.2008 H   0  0  0  0  0  0
  -32.2889  -15.7686   24.7986 H   0  0  0  0  0  0
  -32.6641  -15.7386   23.0328 H   0  0  0  0  0  0
  -33.3838  -18.3083   22.3073 H   0  0  0  0  0  0
  -33.2898  -19.3202   23.7989 H   0  0  0  0  0  0
  -31.3590  -18.0151   24.6403 H   0  0  0  0  0  0
  -28.9283  -17.9723   18.1461 H   0  0  0  0  0  0
  -27.8081  -17.2282   19.2809 H   0  0  0  0  0  0
  -28.8466  -16.2286   18.2637 H   0  0  0  0  0  0
  -27.6529  -22.0690   20.0714 H   0  0  0  0  0  0
  -28.9771  -22.1517   18.9625 H   0  0  0  0  0  0
  -30.0728  -23.9708   20.2853 H   0  0  0  0  0  0
  -28.9339  -23.7871   21.5829 H   0  0  0  0  0  0
  -27.0970  -24.6520   20.2361 H   0  0  0  0  0  0
  -28.0988  -24.8233   18.8219 H   0  0  0  0  0  0
  -30.8572  -17.2100   19.4397 H   0  0  0  0  0  0
  -28.9172  -15.6255   21.0588 H   0  0  0  0  0  0
  1 25  1  0  0  0
  1 30  2  0  0  0
  1 86  1  0  0  0
  2  3  1  0  0  0
  2 25  1  0  0  0
  2 88  1  0  0  0
  2 89  1  0  0  0
  3  4  1  0  0  0
  3 90  1  0  0  0
  3 91  1  0  0  0
  4  5  1  0  0  0
  4 92  1  0  0  0
  4 93  1  0  0  0
  5  6  1  0  0  0
  5 26  1  0  0  0
  5 94  1  0  0  0
  6 25  1  0  0  0
  6 95  1  0  0  0
  6 96  1  0  0  0
  7  8  2  0  0  0
  7 26  1  0  0  0
  7 29  1  0  0  0
  8  9  1  0  0  0
  8 22  1  0  0  0
  9 10  1  0  0  0
  9 27  2  0  0  0
 10 11  2  0  0  0
 10 15  1  0  0  0
 11 12  1  0  0  0
 11 97  1  0  0  0
 12 13  2  0  0  0
 12 98  1  0  0  0
 13 14  1  0  0  0
 13 31  1  0  0  0
 14 15  2  0  0  0
 14 99  1  0  0  0
 15100  1  0  0  0
 16 17  2  0  0  0
 16 21  1  0  0  0
 16 31  1  0  0  0
 17 18  1  0  0  0
 17101  1  0  0  0
 18 19  2  0  0  0
 18102  1  0  0  0
 19 20  1  0  0  0
 19 24  1  0  0  0
 20 21  2  0  0  0
 20103  1  0  0  0
 21 23  1  0  0  0
 22 28  1  0  0  0
 22 32  2  0  0  0
 26 27  1  0  0  0
 28104  1  0  0  0
 28105  1  0  0  0
 29106  1  0  0  0
 29107  1  0  0  0
 33 34  1  0  0  0
 33 66  1  0  0  0
 33 70  2  0  0  0
 34 36  1  0  0  0
 34 59  1  0  0  0
 34108  1  0  0  0
 35 44  2  0  0  0
 35 45  1  0  0  0
 35 68  1  0  0  0
 36 56  1  0  0  0
 36109  1  0  0  0
 37 39  1  0  0  0
 37 47  1  0  0  0
 37 66  1  0  0  0
 37110  1  0  0  0
 38 43  2  0  0  0
 38 46  1  0  0  0
 38 47  1  0  0  0
 39 64  1  0  0  0
 39 67  2  0  0  0
 40 52  1  0  0  0
 40 53  2  0  0  0
 40 58  1  0  0  0
 41111  1  0  0  0
 41112  1  0  0  0
 41113  1  0  0  0
 41 48  1  0  0  0
 42 43  1  0  0  0
 42 66  1  0  0  0
 42114  1  0  0  0
 42115  1  0  0  0
 43 44  1  0  0  0
 44116  1  0  0  0
 45 46  2  0  0  0
 45117  1  0  0  0
 46118  1  0  0  0
 47119  1  0  0  0
 47120  1  0  0  0
 48 56  1  0  0  0
 48 65  1  0  0  0
 48121  1  0  0  0
 49 50  1  0  0  0
 49 53  1  0  0  0
 49 64  1  0  0  0
 49122  1  0  0  0
 50 51  1  0  0  0
 50123  1  0  0  0
 50124  1  0  0  0
 51 52  1  0  0  0
 51125  1  0  0  0
 51126  1  0  0  0
 52127  1  0  0  0
 52128  1  0  0  0
 53 54  1  0  0  0
 54 55  2  0  0  0
 54129  1  0  0  0
 55 57  1  0  0  0
 55130  1  0  0  0
 56 69  2  0  0  0
 57 58  2  0  0  0
 57131  1  0  0  0
 58132  1  0  0  0
 59 60  1  0  0  0
 59 61  1  0  0  0
 59 62  1  0  0  0
 60133  1  0  0  0
 60134  1  0  0  0
 60135  1  0  0  0
 61136  1  0  0  0
 61137  1  0  0  0
 61138  1  0  0  0
 62139  1  0  0  0
 62140  1  0  0  0
 62141  1  0  0  0
 63 65  1  0  0  0
 63142  1  0  0  0
 63143  1  0  0  0
 63144  1  0  0  0
 64145  1  0  0  0
 65146  1  0  0  0
 68 83  1  0  0  0
 71 72  2  0  0  0
 71 73  1  0  0  0
 71147  1  0  0  0
 72 74  1  0  0  0
 72148  1  0  0  0
 73 75  2  0  0  0
 73 87  1  0  0  0
 74 81  1  0  0  0
 74 85  2  0  0  0
 75 84  1  0  0  0
 75 85  1  0  0  0
 76 77  1  0  0  0
 76 78  1  0  0  0
 76149  1  0  0  0
 76150  1  0  0  0
 77 79  1  0  0  0
 77151  1  0  0  0
 77152  1  0  0  0
 78 79  1  0  0  0
 78153  1  0  0  0
 78154  1  0  0  0
 79 87  1  0  0  0
 79155  1  0  0  0
 80156  1  0  0  0
 80157  1  0  0  0
 80158  1  0  0  0
 80 84  1  0  0  0
 81 82  1  0  0  0
 81159  1  0  0  0
 81160  1  0  0  0
 82 83  1  0  0  0
 82161  1  0  0  0
 82162  1  0  0  0
 83163  1  0  0  0
 83164  1  0  0  0
 84 86  1  0  0  0
 84165  1  0  0  0
 86166  1  0  0  0
M  ISO  4   1 100  68 101  83 101  86 100
M  END
> <chiral flag>
0

> <version>
0

> <s_m_source_file>
/data/baiqing/PycharmProjects/Reinvent-master-3.2/result/LINK_invent/BTK/process_docking_weight1_custom_sum_contain_oxygen_bond_distance_aromatic_linkinvent_7_9_3/rearranged_h_0140.sdf

> <i_m_source_file_index>
60

> <r_mmod_Potential_Energy-OPLS-2005>
-51.948543548584

> <r_mmod_Stretch_Energy-OPLS-2005>
115.327629089355

> <r_mmod_Bend_Energy-OPLS-2005>
180.457733154297

> <r_mmod_Torsional_Energy-OPLS-2005>
236.816650390625

> <r_mmod_Improper_Torsional_Energy-OPLS-2005>
8.25833320617676

> <r_mmod_Van_der_Waal_Energy-OPLS-2005>
143.178512573242

> <r_mmod_Electrostatic_Energy-OPLS-2005>
-592.431518554688

> <r_mmod_Solvation_Energy-OPLS-2005>
-220.057769775391

> <b_mmod_Minimization_Converged-OPLS-2005>
0

> <r_mmod_RMS_Derivative-OPLS-2005>
1.36733782291412

$$$$
60
                    3D
 Structure written by MMmdl.
164174  0  0  1  0            999 V2000
  -30.7210  -14.3968   20.6299 C   0  0  0  0  0  0
  -30.4258  -12.2807   19.4062 C   0  0  0  0  0  0
  -29.4982  -12.5244   18.1995 C   0  0  0  0  0  0
  -28.0178  -12.3845   18.6082 C   0  0  0  0  0  0
  -27.6719  -13.1975   19.8865 C   0  0  2  0  0  0
  -28.7079  -12.9237   20.9988 C   0  0  0  0  0  0
  -25.2656  -13.8142   20.5657 C   0  0  0  0  0  0
  -24.1877  -13.0449   20.9154 C   0  0  0  0  0  0
  -24.6404  -11.6899   20.8710 C   0  0  0  0  0  0
  -23.9061  -10.4301   21.0390 C   0  0  0  0  0  0
  -24.3611   -9.4222   21.9179 C   0  0  0  0  0  0
  -23.6283   -8.2263   22.0751 C   0  0  0  0  0  0
  -22.4271   -8.0299   21.3540 C   0  0  0  0  0  0
  -21.9911   -9.0263   20.4636 C   0  0  0  0  0  0
  -22.7234  -10.2141   20.3040 C   0  0  0  0  0  0
  -21.6849   -6.0741   22.5282 C   0  0  0  0  0  0
  -21.4001   -6.5634   23.8219 C   0  0  0  0  0  0
  -21.3667   -5.6789   24.9189 C   0  0  0  0  0  0
  -21.6050   -4.3056   24.7237 C   0  0  0  0  0  0
  -21.8820   -3.8151   23.4359 C   0  0  0  0  0  0
  -21.9198   -4.6968   22.3407 C   0  0  0  0  0  0
  -22.7914  -13.5275   21.1831 C   0  0  0  0  0  0
  -22.1663   -4.2155   21.0980 F   0  0  0  0  0  0
  -21.5644   -3.4537   25.7745 F   0  0  0  0  0  0
  -30.0466  -13.2312   20.4620 N   0  0  0  0  0  0
  -26.3082  -12.9280   20.3399 N   0  0  0  0  0  0
  -25.9331  -11.6444   20.5749 N   0  0  0  0  0  0
  -22.0541  -12.8257   22.0373 N   0  0  0  0  0  0
  -25.4505  -15.1841   20.4046 N   0  0  0  0  0  0
  -31.7931  -14.6456   20.0652 O   0  0  0  0  0  0
  -21.6643   -6.8888   21.4236 O   0  0  0  0  0  0
  -22.3611  -14.5607   20.6721 O   0  0  0  0  0  0
  -24.6145  -31.8672   23.2112 C   0  0  0  0  0  0
  -25.9046  -32.4800   23.8397 C   0  0  1  0  0  0
  -27.2274  -27.4361   20.0779 C   0  0  0  0  0  0
  -25.5917  -33.8604   24.2314 N   0  0  0  0  0  0
  -23.3993  -30.4933   21.5514 C   0  0  2  0  0  0
  -24.8399  -28.9589   20.1138 C   0  0  0  0  0  0
  -22.7379  -29.4681   22.5000 C   0  0  0  0  0  0
  -18.0267  -28.1353   22.8491 C   0  0  0  0  0  0
  -24.1488  -36.7313   23.2639 C   0  0  0  0  0  0
  -25.9282  -30.8311   21.3649 C   0  0  0  0  0  0
  -26.0014  -29.4668   20.7090 C   0  0  0  0  0  0
  -27.1952  -28.7103   20.6915 C   0  0  0  0  0  0
  -26.0429  -26.9427   19.4799 C   0  0  0  0  0  0
  -24.8548  -27.6936   19.5019 C   0  0  0  0  0  0
  -23.6029  -29.8246   20.1662 C   0  0  0  0  0  0
  -25.4115  -36.3099   24.0330 C   0  0  1  0  0  0
  -20.5858  -28.3656   23.1297 C   0  0  2  0  0  0
  -20.6746  -26.9393   22.5407 C   0  0  0  0  0  0
  -19.5739  -26.6368   21.5195 C   0  0  0  0  0  0
  -18.1917  -26.7906   22.1613 C   0  0  0  0  0  0
  -19.1510  -28.8827   23.2897 C   0  0  0  0  0  0
  -18.9447  -30.1431   23.8905 C   0  0  0  0  0  0
  -17.6454  -30.6570   24.0551 C   0  0  0  0  0  0
  -25.9040  -34.9462   23.5117 C   0  0  0  0  0  0
  -16.5337  -29.9080   23.6325 C   0  0  0  0  0  0
  -16.7255  -28.6483   23.0371 C   0  0  0  0  0  0
  -26.4484  -31.6588   25.0724 C   0  0  0  0  0  0
  -25.3774  -31.3678   26.1473 C   0  0  0  0  0  0
  -27.0304  -30.3025   24.6101 C   0  0  0  0  0  0
  -27.6044  -32.4313   25.7506 C   0  0  0  0  0  0
  -27.5587  -37.1803   24.8456 C   0  0  0  0  0  0
  -21.4112  -29.3047   22.3728 N   0  0  0  0  0  0
  -26.4301  -37.3790   23.9408 N   0  0  0  0  0  0
  -24.6652  -31.0785   22.1002 N   0  0  0  0  0  0
  -23.4161  -28.8213   23.3034 O   0  0  0  0  0  0
  -28.4127  -26.7243   20.0655 O   0  0  0  0  0  0
  -26.5605  -34.8922   22.4675 O   0  0  0  0  0  0
  -23.5347  -32.1438   23.7514 O   0  0  0  0  0  0
  -28.9984  -25.0944   18.3850 C   0  0  0  0  0  0
  -28.4687  -22.7419   18.8107 C   0  0  0  0  0  0
  -29.0121  -23.7513   17.9630 C   0  0  0  0  0  0
  -27.9420  -23.1815   20.0606 C   0  0  0  0  0  0
  -28.4505  -25.4153   19.6311 C   0  0  0  0  0  0
  -28.4045  -20.1399   18.9635 C   0  0  0  0  0  0
  -28.5082  -21.3265   18.3331 C   0  0  0  0  0  0
  -28.3350  -18.6788   18.7459 C   0  0  0  0  0  0
  -30.4048  -17.3616   22.8241 C   0  0  0  0  0  0
  -28.2170  -19.3035   20.1805 C   0  0  1  0  0  0
  -29.3648  -17.7124   21.7877 C   0  0  2  0  0  0
  -30.4561  -16.6977   21.4706 C   0  0  2  0  0  0
  -29.6052  -23.4438   16.5943 C   0  0  0  0  0  0
  -27.2622  -22.2617   21.0558 C   0  0  0  0  0  0
  -29.3489  -19.1078   21.1784 C   0  0  0  0  0  0
  -27.9474  -24.4763   20.4583 N   0  0  0  0  0  0
  -30.0979  -15.3138   21.3843 N   0  0  0  0  0  0
  -31.4715  -12.3802   19.1091 H   0  0  0  0  0  0
  -30.3172  -11.2567   19.7653 H   0  0  0  0  0  0
  -29.7312  -11.8281   17.3941 H   0  0  0  0  0  0
  -29.6770  -13.5233   17.7986 H   0  0  0  0  0  0
  -27.8191  -11.3250   18.7718 H   0  0  0  0  0  0
  -27.3735  -12.6881   17.7827 H   0  0  0  0  0  0
  -27.7353  -14.2553   19.6302 H   0  0  0  0  0  0
  -28.6718  -11.8714   21.2835 H   0  0  0  0  0  0
  -28.4670  -13.4729   21.9097 H   0  0  0  0  0  0
  -25.2751   -9.5697   22.4762 H   0  0  0  0  0  0
  -23.9992   -7.4650   22.7458 H   0  0  0  0  0  0
  -21.0857   -8.8765   19.8928 H   0  0  0  0  0  0
  -22.3685  -10.9681   19.6145 H   0  0  0  0  0  0
  -21.1960   -7.6135   23.9709 H   0  0  0  0  0  0
  -21.1489   -6.0529   25.9081 H   0  0  0  0  0  0
  -22.0589   -2.7618   23.2860 H   0  0  0  0  0  0
  -22.4118  -11.9874   22.4705 H   0  0  0  0  0  0
  -21.1167  -13.1301   22.2558 H   0  0  0  0  0  0
  -24.7024  -15.8607   20.5079 H   0  0  0  0  0  0
  -26.3207  -15.6009   20.0966 H   0  0  0  0  0  0
  -26.7097  -32.5491   23.1139 H   0  0  0  0  0  0
  -25.0104  -33.9759   25.0474 H   0  0  0  0  0  0
  -22.6910  -31.3126   21.4129 H   0  0  0  0  0  0
  -23.3756  -35.9640   23.3276 H   0  0  0  0  0  0
  -24.3593  -36.8960   22.2057 H   0  0  0  0  0  0
  -23.7234  -37.6509   23.6663 H   0  0  0  0  0  0
  -26.0482  -31.6026   20.6027 H   0  0  0  0  0  0
  -26.8129  -30.8738   21.9884 H   0  0  0  0  0  0
  -28.0932  -29.1012   21.1486 H   0  0  0  0  0  0
  -26.0201  -25.9767   18.9960 H   0  0  0  0  0  0
  -23.9594  -27.2946   19.0446 H   0  0  0  0  0  0
  -23.7043  -30.5978   19.4041 H   0  0  0  0  0  0
  -22.7261  -29.2424   19.8771 H   0  0  0  0  0  0
  -25.1309  -36.1961   25.0823 H   0  0  0  0  0  0
  -20.9944  -28.3197   24.1417 H   0  0  0  0  0  0
  -20.5626  -26.2263   23.3595 H   0  0  0  0  0  0
  -21.6624  -26.7415   22.1212 H   0  0  0  0  0  0
  -19.6900  -25.6288   21.1224 H   0  0  0  0  0  0
  -19.6671  -27.3182   20.6732 H   0  0  0  0  0  0
  -17.4185  -26.6666   21.4004 H   0  0  0  0  0  0
  -18.0307  -26.0024   22.8982 H   0  0  0  0  0  0
  -19.7935  -30.7235   24.2270 H   0  0  0  0  0  0
  -17.5021  -31.6274   24.5133 H   0  0  0  0  0  0
  -15.5348  -30.3001   23.7629 H   0  0  0  0  0  0
  -15.8646  -28.0790   22.7125 H   0  0  0  0  0  0
  -24.5972  -30.6973   25.7844 H   0  0  0  0  0  0
  -24.8931  -32.2807   26.4940 H   0  0  0  0  0  0
  -25.8160  -30.8872   27.0222 H   0  0  0  0  0  0
  -26.2831  -29.6780   24.1175 H   0  0  0  0  0  0
  -27.4083  -29.7262   25.4561 H   0  0  0  0  0  0
  -27.8668  -30.4336   23.9232 H   0  0  0  0  0  0
  -27.2656  -33.3618   26.2077 H   0  0  0  0  0  0
  -28.3883  -32.6859   25.0359 H   0  0  0  0  0  0
  -28.0669  -31.8437   26.5443 H   0  0  0  0  0  0
  -28.2575  -38.0127   24.7553 H   0  0  0  0  0  0
  -28.1108  -36.2658   24.6229 H   0  0  0  0  0  0
  -27.2288  -37.1404   25.8851 H   0  0  0  0  0  0
  -20.9252  -29.8801   21.6985 H   0  0  0  0  0  0
  -26.0173  -38.2857   24.1440 H   0  0  0  0  0  0
  -29.3998  -25.8804   17.7622 H   0  0  0  0  0  0
  -28.5889  -21.2148   17.2621 H   0  0  0  0  0  0
  -29.2423  -18.1215   18.5230 H   0  0  0  0  0  0
  -27.4318  -18.2419   18.3236 H   0  0  0  0  0  0
  -30.0862  -16.7607   23.6743 H   0  0  0  0  0  0
  -31.1822  -18.0914   23.0429 H   0  0  0  0  0  0
  -27.2284  -19.2116   20.6244 H   0  0  0  0  0  0
  -28.3699  -17.3241   21.9987 H   0  0  0  0  0  0
  -31.2548  -17.0402   20.8141 H   0  0  0  0  0  0
  -29.9504  -24.3526   16.1012 H   0  0  0  0  0  0
  -28.8663  -22.9884   15.9340 H   0  0  0  0  0  0
  -30.4611  -22.7726   16.6798 H   0  0  0  0  0  0
  -28.0025  -21.7742   21.6878 H   0  0  0  0  0  0
  -26.6496  -21.5126   20.5580 H   0  0  0  0  0  0
  -26.5943  -22.8210   21.7109 H   0  0  0  0  0  0
  -29.2311  -19.8317   21.9829 H   0  0  0  0  0  0
  -30.3081  -19.3160   20.7034 H   0  0  0  0  0  0
  -29.2445  -15.0147   21.8347 H   0  0  0  0  0  0
  1 25  1  0  0  0
  1 30  2  0  0  0
  1 87  1  0  0  0
  2  3  1  0  0  0
  2 25  1  0  0  0
  2 88  1  0  0  0
  2 89  1  0  0  0
  3  4  1  0  0  0
  3 90  1  0  0  0
  3 91  1  0  0  0
  4  5  1  0  0  0
  4 92  1  0  0  0
  4 93  1  0  0  0
  5  6  1  0  0  0
  5 26  1  0  0  0
  5 94  1  0  0  0
  6 25  1  0  0  0
  6 95  1  0  0  0
  6 96  1  0  0  0
  7  8  2  0  0  0
  7 26  1  0  0  0
  7 29  1  0  0  0
  8  9  1  0  0  0
  8 22  1  0  0  0
  9 10  1  0  0  0
  9 27  2  0  0  0
 10 11  2  0  0  0
 10 15  1  0  0  0
 11 12  1  0  0  0
 11 97  1  0  0  0
 12 13  2  0  0  0
 12 98  1  0  0  0
 13 14  1  0  0  0
 13 31  1  0  0  0
 14 15  2  0  0  0
 14 99  1  0  0  0
 15100  1  0  0  0
 16 17  2  0  0  0
 16 21  1  0  0  0
 16 31  1  0  0  0
 17 18  1  0  0  0
 17101  1  0  0  0
 18 19  2  0  0  0
 18102  1  0  0  0
 19 20  1  0  0  0
 19 24  1  0  0  0
 20 21  2  0  0  0
 20103  1  0  0  0
 21 23  1  0  0  0
 22 28  1  0  0  0
 22 32  2  0  0  0
 26 27  1  0  0  0
 28104  1  0  0  0
 28105  1  0  0  0
 29106  1  0  0  0
 29107  1  0  0  0
 33 34  1  0  0  0
 33 66  1  0  0  0
 33 70  2  0  0  0
 34 36  1  0  0  0
 34 59  1  0  0  0
 34108  1  0  0  0
 35 44  2  0  0  0
 35 45  1  0  0  0
 35 68  1  0  0  0
 36 56  1  0  0  0
 36109  1  0  0  0
 37 39  1  0  0  0
 37 47  1  0  0  0
 37 66  1  0  0  0
 37110  1  0  0  0
 38 43  2  0  0  0
 38 46  1  0  0  0
 38 47  1  0  0  0
 39 64  1  0  0  0
 39 67  2  0  0  0
 40 52  1  0  0  0
 40 53  2  0  0  0
 40 58  1  0  0  0
 41111  1  0  0  0
 41112  1  0  0  0
 41113  1  0  0  0
 41 48  1  0  0  0
 42 43  1  0  0  0
 42 66  1  0  0  0
 42114  1  0  0  0
 42115  1  0  0  0
 43 44  1  0  0  0
 44116  1  0  0  0
 45 46  2  0  0  0
 45117  1  0  0  0
 46118  1  0  0  0
 47119  1  0  0  0
 47120  1  0  0  0
 48 56  1  0  0  0
 48 65  1  0  0  0
 48121  1  0  0  0
 49 50  1  0  0  0
 49 53  1  0  0  0
 49 64  1  0  0  0
 49122  1  0  0  0
 50 51  1  0  0  0
 50123  1  0  0  0
 50124  1  0  0  0
 51 52  1  0  0  0
 51125  1  0  0  0
 51126  1  0  0  0
 52127  1  0  0  0
 52128  1  0  0  0
 53 54  1  0  0  0
 54 55  2  0  0  0
 54129  1  0  0  0
 55 57  1  0  0  0
 55130  1  0  0  0
 56 69  2  0  0  0
 57 58  2  0  0  0
 57131  1  0  0  0
 58132  1  0  0  0
 59 60  1  0  0  0
 59 61  1  0  0  0
 59 62  1  0  0  0
 60133  1  0  0  0
 60134  1  0  0  0
 60135  1  0  0  0
 61136  1  0  0  0
 61137  1  0  0  0
 61138  1  0  0  0
 62139  1  0  0  0
 62140  1  0  0  0
 62141  1  0  0  0
 63 65  1  0  0  0
 63142  1  0  0  0
 63143  1  0  0  0
 63144  1  0  0  0
 64145  1  0  0  0
 65146  1  0  0  0
 68 75  1  0  0  0
 71 73  2  0  0  0
 71 75  1  0  0  0
 71147  1  0  0  0
 72 73  1  0  0  0
 72 74  2  0  0  0
 72 77  1  0  0  0
 73 83  1  0  0  0
 74 84  1  0  0  0
 74 86  1  0  0  0
 75 86  2  0  0  0
 76 77  2  0  0  0
 76 78  1  0  0  0
 76 80  1  0  0  0
 77148  1  0  0  0
 78 80  1  0  0  0
 78149  1  0  0  0
 78150  1  0  0  0
 79 81  1  0  0  0
 79 82  1  0  0  0
 79151  1  0  0  0
 79152  1  0  0  0
 80 85  1  0  0  0
 80153  1  0  0  0
 81 82  1  0  0  0
 81 85  1  0  0  0
 81154  1  0  0  0
 82 87  1  0  0  0
 82155  1  0  0  0
 83156  1  0  0  0
 83157  1  0  0  0
 83158  1  0  0  0
 84159  1  0  0  0
 84160  1  0  0  0
 84161  1  0  0  0
 85162  1  0  0  0
 85163  1  0  0  0
 87164  1  0  0  0
M  ISO  4   1 100  68 101  75 101  87 100
M  END
> <chiral flag>
0

> <version>
0

> <s_m_source_file>
/data/baiqing/PycharmProjects/Reinvent-master-3.2/result/LINK_invent/BTK/process_docking_weight1_custom_sum_contain_oxygen_bond_distance_aromatic_linkinvent_7_9_3/rearranged_h_0140.sdf

> <i_m_source_file_index>
61

> <r_mmod_Potential_Energy-OPLS-2005>
-19.0423049926758

> <r_mmod_Stretch_Energy-OPLS-2005>
41.4961853027344

> <r_mmod_Bend_Energy-OPLS-2005>
181.477081298828

> <r_mmod_Torsional_Energy-OPLS-2005>
302.560241699219

> <r_mmod_Improper_Torsional_Energy-OPLS-2005>
2.7183735370636

> <r_mmod_Van_der_Waal_Energy-OPLS-2005>
154.291763305664

> <r_mmod_Electrostatic_Energy-OPLS-2005>
-501.744598388672

> <r_mmod_Solvation_Energy-OPLS-2005>
-208.476608276367

> <b_mmod_Minimization_Converged-OPLS-2005>
0

> <r_mmod_RMS_Derivative-OPLS-2005>
2.97668719291687

$$$$
61
                    3D
 Structure written by MMmdl.
167176  0  0  1  0            999 V2000
  -30.7431  -14.4277   20.6233 C   0  0  0  0  0  0
  -30.4254  -12.2948   19.4237 C   0  0  0  0  0  0
  -29.4968  -12.4950   18.2102 C   0  0  0  0  0  0
  -28.0213  -12.3517   18.6260 C   0  0  0  0  0  0
  -27.6670  -13.2027   19.8744 C   0  0  2  0  0  0
  -28.7043  -12.9841   20.9993 C   0  0  0  0  0  0
  -25.2626  -13.8150   20.5661 C   0  0  0  0  0  0
  -24.1853  -13.0428   20.9155 C   0  0  0  0  0  0
  -24.6395  -11.6895   20.8702 C   0  0  0  0  0  0
  -23.9043  -10.4280   21.0385 C   0  0  0  0  0  0
  -24.3600   -9.4207   21.9169 C   0  0  0  0  0  0
  -23.6276   -8.2249   22.0756 C   0  0  0  0  0  0
  -22.4262   -8.0278   21.3549 C   0  0  0  0  0  0
  -21.9892   -9.0239   20.4643 C   0  0  0  0  0  0
  -22.7216  -10.2121   20.3037 C   0  0  0  0  0  0
  -21.6850   -6.0723   22.5267 C   0  0  0  0  0  0
  -21.4021   -6.5634   23.8199 C   0  0  0  0  0  0
  -21.3654   -5.6791   24.9166 C   0  0  0  0  0  0
  -21.6044   -4.3054   24.7220 C   0  0  0  0  0  0
  -21.8821   -3.8133   23.4343 C   0  0  0  0  0  0
  -21.9201   -4.6948   22.3396 C   0  0  0  0  0  0
  -22.7877  -13.5244   21.1806 C   0  0  0  0  0  0
  -22.1667   -4.2134   21.0974 F   0  0  0  0  0  0
  -21.5627   -3.4535   25.7733 F   0  0  0  0  0  0
  -30.0468  -13.2717   20.4568 N   0  0  0  0  0  0
  -26.3054  -12.9310   20.3336 N   0  0  0  0  0  0
  -25.9330  -11.6470   20.5741 N   0  0  0  0  0  0
  -22.0511  -12.8236   22.0365 N   0  0  0  0  0  0
  -25.4386  -15.1859   20.4133 N   0  0  0  0  0  0
  -31.8233  -14.6547   20.0729 O   0  0  0  0  0  0
  -21.6643   -6.8867   21.4231 O   0  0  0  0  0  0
  -22.3565  -14.5545   20.6656 O   0  0  0  0  0  0
  -24.6121  -31.8728   23.2136 C   0  0  0  0  0  0
  -25.9029  -32.4846   23.8438 C   0  0  1  0  0  0
  -27.2312  -27.4558   20.0937 C   0  0  0  0  0  0
  -25.5903  -33.8640   24.2378 N   0  0  0  0  0  0
  -23.3994  -30.4949   21.5565 C   0  0  2  0  0  0
  -24.8429  -28.9650   20.1184 C   0  0  0  0  0  0
  -22.7408  -29.4685   22.5058 C   0  0  0  0  0  0
  -18.0259  -28.1365   22.8498 C   0  0  0  0  0  0
  -24.1484  -36.7319   23.2645 C   0  0  0  0  0  0
  -25.9253  -30.8448   21.3606 C   0  0  0  0  0  0
  -26.0041  -29.4801   20.7079 C   0  0  0  0  0  0
  -27.2044  -28.7345   20.6897 C   0  0  0  0  0  0
  -26.0542  -26.9532   19.4959 C   0  0  0  0  0  0
  -24.8603  -27.6999   19.5080 C   0  0  0  0  0  0
  -23.6037  -29.8296   20.1724 C   0  0  0  0  0  0
  -25.4100  -36.3127   24.0352 C   0  0  1  0  0  0
  -20.5863  -28.3664   23.1331 C   0  0  2  0  0  0
  -20.6771  -26.9409   22.5422 C   0  0  0  0  0  0
  -19.5752  -26.6385   21.5222 C   0  0  0  0  0  0
  -18.1915  -26.7912   22.1625 C   0  0  0  0  0  0
  -19.1511  -28.8829   23.2900 C   0  0  0  0  0  0
  -18.9449  -30.1428   23.8917 C   0  0  0  0  0  0
  -17.6465  -30.6576   24.0564 C   0  0  0  0  0  0
  -25.9029  -34.9483   23.5152 C   0  0  0  0  0  0
  -16.5348  -29.9084   23.6333 C   0  0  0  0  0  0
  -16.7243  -28.6491   23.0367 C   0  0  0  0  0  0
  -26.4473  -31.6597   25.0735 C   0  0  0  0  0  0
  -25.3754  -31.3629   26.1494 C   0  0  0  0  0  0
  -27.0311  -30.3050   24.6040 C   0  0  0  0  0  0
  -27.6071  -32.4309   25.7469 C   0  0  0  0  0  0
  -27.5583  -37.1788   24.8457 C   0  0  0  0  0  0
  -21.4152  -29.3031   22.3746 N   0  0  0  0  0  0
  -26.4283  -37.3807   23.9417 N   0  0  0  0  0  0
  -24.6642  -31.0836   22.1033 N   0  0  0  0  0  0
  -23.4190  -28.8248   23.3100 O   0  0  0  0  0  0
  -28.3916  -26.7179   20.0823 O   0  0  0  0  0  0
  -26.5603  -34.8925   22.4720 O   0  0  0  0  0  0
  -23.5315  -32.1473   23.7529 O   0  0  0  0  0  0
  -28.8601  -20.7972   19.0201 C   0  0  0  0  0  0
  -30.2622  -19.8246   21.2296 C   0  0  0  0  0  0
  -29.0031  -21.6261   20.1501 C   0  0  0  0  0  0
  -29.7247  -21.1315   21.2636 C   0  0  0  0  0  0
  -30.0628  -18.9769   20.1136 C   0  0  0  0  0  0
  -29.3598  -19.4731   18.9843 C   0  0  0  0  0  0
  -28.1087  -23.7503   18.8850 C   0  0  0  0  0  0
  -28.2654  -22.9429   20.1547 C   0  0  2  0  0  0
  -28.8973  -24.3225   20.0393 C   0  0  2  0  0  0
  -29.8883  -21.9518   22.5327 C   0  0  0  0  0  0
  -28.1210  -17.9964   15.8014 C   0  0  0  0  0  0
  -30.5743  -17.5286   20.1209 C   0  0  0  0  0  0
  -28.3313  -25.4951   20.8276 C   0  0  0  0  0  0
  -30.5000  -16.7844   21.4819 C   0  0  0  0  0  0
  -28.3910  -19.1268   16.7975 C   0  0  0  0  0  0
  -30.1280  -15.3684   21.3546 N   0  0  0  0  0  0
  -29.1553  -18.6359   17.9004 O   0  0  0  0  0  0
  -31.4695  -12.3886   19.1199 H   0  0  0  0  0  0
  -30.3244  -11.2830   19.8180 H   0  0  0  0  0  0
  -29.7353  -11.7678   17.4332 H   0  0  0  0  0  0
  -29.6637  -13.4797   17.7685 H   0  0  0  0  0  0
  -27.8466  -11.2966   18.8398 H   0  0  0  0  0  0
  -27.3645  -12.6027   17.7930 H   0  0  0  0  0  0
  -27.7148  -14.2487   19.5692 H   0  0  0  0  0  0
  -28.6702  -11.9539   21.3578 H   0  0  0  0  0  0
  -28.4524  -13.5953   21.8662 H   0  0  0  0  0  0
  -25.2744   -9.5696   22.4743 H   0  0  0  0  0  0
  -23.9980   -7.4656   22.7490 H   0  0  0  0  0  0
  -21.0824   -8.8745   19.8951 H   0  0  0  0  0  0
  -22.3657  -10.9656   19.6144 H   0  0  0  0  0  0
  -21.2014   -7.6144   23.9694 H   0  0  0  0  0  0
  -21.1476   -6.0526   25.9070 H   0  0  0  0  0  0
  -22.0608   -2.7593   23.2844 H   0  0  0  0  0  0
  -22.4143  -11.9906   22.4752 H   0  0  0  0  0  0
  -21.1124  -13.1248   22.2541 H   0  0  0  0  0  0
  -24.6781  -15.8467   20.5336 H   0  0  0  0  0  0
  -26.3057  -15.6243   20.1273 H   0  0  0  0  0  0
  -26.7108  -32.5577   23.1221 H   0  0  0  0  0  0
  -25.0040  -33.9795   25.0513 H   0  0  0  0  0  0
  -22.6831  -31.3094   21.4227 H   0  0  0  0  0  0
  -23.3761  -35.9642   23.3299 H   0  0  0  0  0  0
  -24.3543  -36.8930   22.2050 H   0  0  0  0  0  0
  -23.7243  -37.6526   23.6652 H   0  0  0  0  0  0
  -26.0204  -31.6116   20.5909 H   0  0  0  0  0  0
  -26.8212  -30.9079   21.9666 H   0  0  0  0  0  0
  -28.1051  -29.1305   21.1395 H   0  0  0  0  0  0
  -26.0530  -25.9900   19.0126 H   0  0  0  0  0  0
  -23.9641  -27.2989   19.0492 H   0  0  0  0  0  0
  -23.7074  -30.6062   19.4138 H   0  0  0  0  0  0
  -22.7271  -29.2475   19.8831 H   0  0  0  0  0  0
  -25.1263  -36.2005   25.0839 H   0  0  0  0  0  0
  -20.9910  -28.3244   24.1465 H   0  0  0  0  0  0
  -20.5703  -26.2263   23.3602 H   0  0  0  0  0  0
  -21.6633  -26.7483   22.1196 H   0  0  0  0  0  0
  -19.6932  -25.6310   21.1211 H   0  0  0  0  0  0
  -19.6699  -27.3231   20.6784 H   0  0  0  0  0  0
  -17.4205  -26.6679   21.3994 H   0  0  0  0  0  0
  -18.0276  -26.0024   22.8972 H   0  0  0  0  0  0
  -19.7937  -30.7199   24.2311 H   0  0  0  0  0  0
  -17.5043  -31.6260   24.5164 H   0  0  0  0  0  0
  -15.5349  -30.3024   23.7637 H   0  0  0  0  0  0
  -15.8629  -28.0820   22.7108 H   0  0  0  0  0  0
  -24.6076  -30.6771   25.7897 H   0  0  0  0  0  0
  -24.8742  -32.2710   26.4853 H   0  0  0  0  0  0
  -25.8183  -30.8984   27.0318 H   0  0  0  0  0  0
  -26.2833  -29.6756   24.1179 H   0  0  0  0  0  0
  -27.4242  -29.7310   25.4448 H   0  0  0  0  0  0
  -27.8594  -30.4406   23.9074 H   0  0  0  0  0  0
  -27.2771  -33.3683   26.1956 H   0  0  0  0  0  0
  -28.3924  -32.6707   25.0291 H   0  0  0  0  0  0
  -28.0684  -31.8469   26.5443 H   0  0  0  0  0  0
  -28.2591  -38.0099   24.7557 H   0  0  0  0  0  0
  -28.1110  -36.2621   24.6262 H   0  0  0  0  0  0
  -27.2267  -37.1405   25.8854 H   0  0  0  0  0  0
  -20.9328  -29.8733   21.6948 H   0  0  0  0  0  0
  -26.0188  -38.2881   24.1481 H   0  0  0  0  0  0
  -28.3046  -21.1978   18.1869 H   0  0  0  0  0  0
  -30.8006  -19.4614   22.0943 H   0  0  0  0  0  0
  -27.1129  -24.1358   18.6835 H   0  0  0  0  0  0
  -28.6874  -23.4844   18.0035 H   0  0  0  0  0  0
  -27.3904  -22.8562   20.7972 H   0  0  0  0  0  0
  -29.9766  -24.3534   19.9034 H   0  0  0  0  0  0
  -30.8940  -21.8318   22.9402 H   0  0  0  0  0  0
  -29.1732  -21.6199   23.2853 H   0  0  0  0  0  0
  -29.7297  -23.0172   22.3694 H   0  0  0  0  0  0
  -27.5537  -18.3639   14.9453 H   0  0  0  0  0  0
  -27.5329  -17.2044   16.2642 H   0  0  0  0  0  0
  -29.0477  -17.5635   15.4239 H   0  0  0  0  0  0
  -31.6065  -17.5307   19.7660 H   0  0  0  0  0  0
  -30.0144  -16.9588   19.3815 H   0  0  0  0  0  0
  -28.9104  -25.6117   21.7448 H   0  0  0  0  0  0
  -27.3130  -25.2507   21.1391 H   0  0  0  0  0  0
  -29.7368  -17.2399   22.1128 H   0  0  0  0  0  0
  -31.4432  -16.8809   22.0225 H   0  0  0  0  0  0
  -27.4279  -19.5160   17.1300 H   0  0  0  0  0  0
  -28.9294  -19.9390   16.3037 H   0  0  0  0  0  0
  -29.2674  -15.0871   21.8023 H   0  0  0  0  0  0
  1 25  1  0  0  0
  1 30  2  0  0  0
  1 86  1  0  0  0
  2  3  1  0  0  0
  2 25  1  0  0  0
  2 88  1  0  0  0
  2 89  1  0  0  0
  3  4  1  0  0  0
  3 90  1  0  0  0
  3 91  1  0  0  0
  4  5  1  0  0  0
  4 92  1  0  0  0
  4 93  1  0  0  0
  5  6  1  0  0  0
  5 26  1  0  0  0
  5 94  1  0  0  0
  6 25  1  0  0  0
  6 95  1  0  0  0
  6 96  1  0  0  0
  7  8  2  0  0  0
  7 26  1  0  0  0
  7 29  1  0  0  0
  8  9  1  0  0  0
  8 22  1  0  0  0
  9 10  1  0  0  0
  9 27  2  0  0  0
 10 11  2  0  0  0
 10 15  1  0  0  0
 11 12  1  0  0  0
 11 97  1  0  0  0
 12 13  2  0  0  0
 12 98  1  0  0  0
 13 14  1  0  0  0
 13 31  1  0  0  0
 14 15  2  0  0  0
 14 99  1  0  0  0
 15100  1  0  0  0
 16 17  2  0  0  0
 16 21  1  0  0  0
 16 31  1  0  0  0
 17 18  1  0  0  0
 17101  1  0  0  0
 18 19  2  0  0  0
 18102  1  0  0  0
 19 20  1  0  0  0
 19 24  1  0  0  0
 20 21  2  0  0  0
 20103  1  0  0  0
 21 23  1  0  0  0
 22 28  1  0  0  0
 22 32  2  0  0  0
 26 27  1  0  0  0
 28104  1  0  0  0
 28105  1  0  0  0
 29106  1  0  0  0
 29107  1  0  0  0
 33 34  1  0  0  0
 33 66  1  0  0  0
 33 70  2  0  0  0
 34 36  1  0  0  0
 34 59  1  0  0  0
 34108  1  0  0  0
 35 44  2  0  0  0
 35 45  1  0  0  0
 35 68  1  0  0  0
 36 56  1  0  0  0
 36109  1  0  0  0
 37 39  1  0  0  0
 37 47  1  0  0  0
 37 66  1  0  0  0
 37110  1  0  0  0
 38 43  2  0  0  0
 38 46  1  0  0  0
 38 47  1  0  0  0
 39 64  1  0  0  0
 39 67  2  0  0  0
 40 52  1  0  0  0
 40 53  2  0  0  0
 40 58  1  0  0  0
 41111  1  0  0  0
 41112  1  0  0  0
 41113  1  0  0  0
 41 48  1  0  0  0
 42 43  1  0  0  0
 42 66  1  0  0  0
 42114  1  0  0  0
 42115  1  0  0  0
 43 44  1  0  0  0
 44116  1  0  0  0
 45 46  2  0  0  0
 45117  1  0  0  0
 46118  1  0  0  0
 47119  1  0  0  0
 47120  1  0  0  0
 48 56  1  0  0  0
 48 65  1  0  0  0
 48121  1  0  0  0
 49 50  1  0  0  0
 49 53  1  0  0  0
 49 64  1  0  0  0
 49122  1  0  0  0
 50 51  1  0  0  0
 50123  1  0  0  0
 50124  1  0  0  0
 51 52  1  0  0  0
 51125  1  0  0  0
 51126  1  0  0  0
 52127  1  0  0  0
 52128  1  0  0  0
 53 54  1  0  0  0
 54 55  2  0  0  0
 54129  1  0  0  0
 55 57  1  0  0  0
 55130  1  0  0  0
 56 69  2  0  0  0
 57 58  2  0  0  0
 57131  1  0  0  0
 58132  1  0  0  0
 59 60  1  0  0  0
 59 61  1  0  0  0
 59 62  1  0  0  0
 60133  1  0  0  0
 60134  1  0  0  0
 60135  1  0  0  0
 61136  1  0  0  0
 61137  1  0  0  0
 61138  1  0  0  0
 62139  1  0  0  0
 62140  1  0  0  0
 62141  1  0  0  0
 63 65  1  0  0  0
 63142  1  0  0  0
 63143  1  0  0  0
 63144  1  0  0  0
 64145  1  0  0  0
 65146  1  0  0  0
 68 83  1  0  0  0
 71 73  2  0  0  0
 71 76  1  0  0  0
 71147  1  0  0  0
 72 74  2  0  0  0
 72 75  1  0  0  0
 72148  1  0  0  0
 73 74  1  0  0  0
 73 78  1  0  0  0
 74 80  1  0  0  0
 75 76  2  0  0  0
 75 82  1  0  0  0
 76 87  1  0  0  0
 77 78  1  0  0  0
 77 79  1  0  0  0
 77149  1  0  0  0
 77150  1  0  0  0
 78 79  1  0  0  0
 78151  1  0  0  0
 79 83  1  0  0  0
 79152  1  0  0  0
 80153  1  0  0  0
 80154  1  0  0  0
 80155  1  0  0  0
 81 85  1  0  0  0
 81156  1  0  0  0
 81157  1  0  0  0
 81158  1  0  0  0
 82 84  1  0  0  0
 82159  1  0  0  0
 82160  1  0  0  0
 83161  1  0  0  0
 83162  1  0  0  0
 84 86  1  0  0  0
 84163  1  0  0  0
 84164  1  0  0  0
 85 87  1  0  0  0
 85165  1  0  0  0
 85166  1  0  0  0
 86167  1  0  0  0
M  ISO  4   1 100  68 101  83 101  86 100
M  END
> <chiral flag>
0

> <version>
0

> <s_m_source_file>
/data/baiqing/PycharmProjects/Reinvent-master-3.2/result/LINK_invent/BTK/process_docking_weight1_custom_sum_contain_oxygen_bond_distance_aromatic_linkinvent_7_9_3/rearranged_h_0140.sdf

> <i_m_source_file_index>
62

> <r_mmod_Potential_Energy-OPLS-2005>
-55.1679649353027

> <r_mmod_Stretch_Energy-OPLS-2005>
37.0689659118652

> <r_mmod_Bend_Energy-OPLS-2005>
98.8514633178711

> <r_mmod_Torsional_Energy-OPLS-2005>
262.855285644531

> <r_mmod_Improper_Torsional_Energy-OPLS-2005>
2.96706128120422

> <r_mmod_Van_der_Waal_Energy-OPLS-2005>
159.258743286133

> <r_mmod_Electrostatic_Energy-OPLS-2005>
-416.751434326172

> <r_mmod_Solvation_Energy-OPLS-2005>
-208.493225097656

> <b_mmod_Minimization_Converged-OPLS-2005>
0

> <r_mmod_RMS_Derivative-OPLS-2005>
4.04596757888794

$$$$
62
                    3D
 Structure written by MMmdl.
173182  0  0  1  0            999 V2000
  -30.6191  -14.8091   20.4757 C   0  0  0  0  0  0
  -30.4307  -12.4973   19.5096 C   0  0  0  0  0  0
  -29.5218  -12.5236   18.2602 C   0  0  0  0  0  0
  -28.0489  -12.3414   18.6645 C   0  0  0  0  0  0
  -27.6407  -13.2466   19.8568 C   0  0  2  0  0  0
  -28.6793  -13.2182   21.0019 C   0  0  0  0  0  0
  -25.2392  -13.8099   20.5522 C   0  0  0  0  0  0
  -24.1759  -13.0373   20.9200 C   0  0  0  0  0  0
  -24.6404  -11.6881   20.8782 C   0  0  0  0  0  0
  -23.9089  -10.4270   21.0431 C   0  0  0  0  0  0
  -24.3636   -9.4189   21.9200 C   0  0  0  0  0  0
  -23.6297   -8.2232   22.0760 C   0  0  0  0  0  0
  -22.4289   -8.0275   21.3542 C   0  0  0  0  0  0
  -21.9927   -9.0255   20.4649 C   0  0  0  0  0  0
  -22.7266  -10.2121   20.3065 C   0  0  0  0  0  0
  -21.6852   -6.0731   22.5281 C   0  0  0  0  0  0
  -21.4006   -6.5626   23.8220 C   0  0  0  0  0  0
  -21.3661   -5.6771   24.9176 C   0  0  0  0  0  0
  -21.6052   -4.3043   24.7209 C   0  0  0  0  0  0
  -21.8826   -3.8134   23.4330 C   0  0  0  0  0  0
  -21.9188   -4.6955   22.3392 C   0  0  0  0  0  0
  -22.7781  -13.5166   21.1841 C   0  0  0  0  0  0
  -22.1669   -4.2148   21.0970 F   0  0  0  0  0  0
  -21.5638   -3.4523   25.7721 F   0  0  0  0  0  0
  -29.9824  -13.5797   20.4289 N   0  0  0  0  0  0
  -26.2925  -12.9415   20.3286 N   0  0  0  0  0  0
  -25.9365  -11.6547   20.5816 N   0  0  0  0  0  0
  -22.0412  -12.8222   22.0433 N   0  0  0  0  0  0
  -25.3807  -15.1749   20.3546 N   0  0  0  0  0  0
  -31.7916  -14.8515   20.0987 O   0  0  0  0  0  0
  -21.6644   -6.8882   21.4248 O   0  0  0  0  0  0
  -22.3482  -14.5473   20.6668 O   0  0  0  0  0  0
  -24.6325  -31.8503   23.1982 C   0  0  0  0  0  0
  -25.9133  -32.4742   23.8330 C   0  0  1  0  0  0
  -27.2262  -27.2451   20.1489 C   0  0  0  0  0  0
  -25.5905  -33.8548   24.2232 N   0  0  0  0  0  0
  -23.4326  -30.4688   21.5407 C   0  0  2  0  0  0
  -24.8797  -28.9047   20.1187 C   0  0  0  0  0  0
  -22.7515  -29.4537   22.4920 C   0  0  0  0  0  0
  -18.0295  -28.1395   22.8502 C   0  0  0  0  0  0
  -24.1478  -36.7284   23.2646 C   0  0  0  0  0  0
  -25.9773  -30.7621   21.3734 C   0  0  0  0  0  0
  -26.0510  -29.3799   20.7222 C   0  0  0  0  0  0
  -27.2298  -28.5678   20.7126 C   0  0  0  0  0  0
  -26.0306  -26.8298   19.5280 C   0  0  0  0  0  0
  -24.8738  -27.6397   19.5080 C   0  0  0  0  0  0
  -23.6512  -29.7943   20.1599 C   0  0  0  0  0  0
  -25.4109  -36.3076   24.0321 C   0  0  1  0  0  0
  -20.5888  -28.3682   23.1274 C   0  0  2  0  0  0
  -20.6758  -26.9393   22.5424 C   0  0  0  0  0  0
  -19.5733  -26.6385   21.5212 C   0  0  0  0  0  0
  -18.1926  -26.7942   22.1625 C   0  0  0  0  0  0
  -19.1546  -28.8865   23.2883 C   0  0  0  0  0  0
  -18.9475  -30.1474   23.8885 C   0  0  0  0  0  0
  -17.6469  -30.6597   24.0567 C   0  0  0  0  0  0
  -25.9042  -34.9432   23.5093 C   0  0  0  0  0  0
  -16.5366  -29.9096   23.6346 C   0  0  0  0  0  0
  -16.7276  -28.6511   23.0382 C   0  0  0  0  0  0
  -26.4501  -31.6581   25.0727 C   0  0  0  0  0  0
  -25.3719  -31.3695   26.1437 C   0  0  0  0  0  0
  -27.0337  -30.2998   24.6219 C   0  0  0  0  0  0
  -27.6053  -32.4319   25.7491 C   0  0  0  0  0  0
  -27.5571  -37.1794   24.8466 C   0  0  0  0  0  0
  -21.4213  -29.3017   22.3679 N   0  0  0  0  0  0
  -26.4287  -37.3781   23.9409 N   0  0  0  0  0  0
  -24.7009  -31.0464   22.0946 N   0  0  0  0  0  0
  -23.4207  -28.8064   23.3024 O   0  0  0  0  0  0
  -28.3452  -26.3810   20.1252 O   0  0  0  0  0  0
  -26.5652  -34.8911   22.4672 O   0  0  0  0  0  0
  -23.5473  -32.1308   23.7277 O   0  0  0  0  0  0
  -26.0732  -19.0496   19.5154 C   0  0  0  0  0  0
  -27.1474  -21.1194   18.9010 C   0  0  0  0  0  0
  -28.2627  -19.6225   20.4933 C   0  0  0  0  0  0
  -26.1623  -20.1477   18.6581 C   0  0  0  0  0  0
  -27.0871  -18.8189   20.4555 C   0  0  0  0  0  0
  -28.1179  -21.0010   19.9367 C   0  0  0  0  0  0
  -31.9397  -18.7866   21.0368 C   0  0  0  0  0  0
  -31.4710  -17.9034   19.8879 C   0  0  0  0  0  0
  -29.5053  -18.7993   21.0964 C   0  0  2  0  0  0
  -30.7477  -19.6873   21.3633 C   0  0  1  0  0  0
  -30.0316  -17.4689   20.2505 C   0  0  2  0  0  0
  -25.1417  -20.3341   17.5495 C   0  0  0  0  0  0
  -26.8496  -17.7089   21.4719 C   0  0  0  0  0  0
  -29.7501  -21.2312   23.1959 C   0  0  0  0  0  0
  -30.8583  -20.2447   22.8028 C   0  0  0  0  0  0
  -28.3043  -24.9857   20.7097 C   0  0  0  0  0  0
  -28.2337  -23.5994   19.8545 C   0  0  0  0  0  0
  -29.8975  -15.9847   20.7436 N   0  0  0  0  0  0
  -28.7327  -22.2362   20.3467 O   0  0  0  0  0  0
  -31.4743  -12.6078   19.2121 H   0  0  0  0  0  0
  -30.3763  -11.5303   20.0095 H   0  0  0  0  0  0
  -29.8183  -11.7422   17.5608 H   0  0  0  0  0  0
  -29.6452  -13.4715   17.7365 H   0  0  0  0  0  0
  -27.9122  -11.2951   18.9358 H   0  0  0  0  0  0
  -27.3977  -12.5227   17.8091 H   0  0  0  0  0  0
  -27.6269  -14.2662   19.4690 H   0  0  0  0  0  0
  -28.7280  -12.2307   21.4607 H   0  0  0  0  0  0
  -28.3991  -13.9104   21.7973 H   0  0  0  0  0  0
  -25.2783   -9.5664   22.4779 H   0  0  0  0  0  0
  -23.9999   -7.4617   22.7481 H   0  0  0  0  0  0
  -21.0855   -8.8778   19.8954 H   0  0  0  0  0  0
  -22.3743  -10.9663   19.6175 H   0  0  0  0  0  0
  -21.2012   -7.6139   23.9725 H   0  0  0  0  0  0
  -21.1483   -6.0499   25.9081 H   0  0  0  0  0  0
  -22.0610   -2.7593   23.2820 H   0  0  0  0  0  0
  -22.3993  -11.9944   22.4956 H   0  0  0  0  0  0
  -21.1022  -13.1294   22.2548 H   0  0  0  0  0  0
  -24.5705  -15.7826   20.3951 H   0  0  0  0  0  0
  -26.1876  -15.6102   19.9278 H   0  0  0  0  0  0
  -26.7174  -32.5402   23.1054 H   0  0  0  0  0  0
  -25.0017  -33.9680   25.0359 H   0  0  0  0  0  0
  -22.7326  -31.2937   21.3914 H   0  0  0  0  0  0
  -23.3747  -35.9609   23.3316 H   0  0  0  0  0  0
  -24.3575  -36.8933   22.2066 H   0  0  0  0  0  0
  -23.7212  -37.6476   23.6676 H   0  0  0  0  0  0
  -26.1119  -31.5201   20.6005 H   0  0  0  0  0  0
  -26.8555  -30.8199   22.0038 H   0  0  0  0  0  0
  -28.1345  -28.9400   21.1709 H   0  0  0  0  0  0
  -25.9856  -25.8603   19.0531 H   0  0  0  0  0  0
  -23.9761  -27.2764   19.0245 H   0  0  0  0  0  0
  -23.7770  -30.5667   19.4002 H   0  0  0  0  0  0
  -22.7684  -29.2267   19.8561 H   0  0  0  0  0  0
  -25.1287  -36.1941   25.0816 H   0  0  0  0  0  0
  -20.9968  -28.3317   24.1407 H   0  0  0  0  0  0
  -20.5617  -26.2273   23.3622 H   0  0  0  0  0  0
  -21.6606  -26.7349   22.1229 H   0  0  0  0  0  0
  -19.6890  -25.6282   21.1269 H   0  0  0  0  0  0
  -19.6688  -27.3183   20.6729 H   0  0  0  0  0  0
  -17.4190  -26.6688   21.4025 H   0  0  0  0  0  0
  -18.0302  -26.0076   22.8992 H   0  0  0  0  0  0
  -19.7942  -30.7301   24.2261 H   0  0  0  0  0  0
  -17.5029  -31.6279   24.5166 H   0  0  0  0  0  0
  -15.5379  -30.3012   23.7680 H   0  0  0  0  0  0
  -15.8659  -28.0852   22.7114 H   0  0  0  0  0  0
  -24.5905  -30.7051   25.7736 H   0  0  0  0  0  0
  -24.8899  -32.2859   26.4853 H   0  0  0  0  0  0
  -25.8035  -30.8866   27.0214 H   0  0  0  0  0  0
  -26.2913  -29.6768   24.1234 H   0  0  0  0  0  0
  -27.3996  -29.7254   25.4741 H   0  0  0  0  0  0
  -27.8805  -30.4282   23.9474 H   0  0  0  0  0  0
  -27.2659  -33.3624   26.2036 H   0  0  0  0  0  0
  -28.3862  -32.6870   25.0315 H   0  0  0  0  0  0
  -28.0712  -31.8475   26.5439 H   0  0  0  0  0  0
  -28.2583  -38.0095   24.7519 H   0  0  0  0  0  0
  -28.1073  -36.2630   24.6281 H   0  0  0  0  0  0
  -27.2299  -37.1432   25.8873 H   0  0  0  0  0  0
  -20.9397  -29.8785   21.6928 H   0  0  0  0  0  0
  -26.0170  -38.2854   24.1430 H   0  0  0  0  0  0
  -25.2334  -18.3717   19.4424 H   0  0  0  0  0  0
  -27.0961  -21.9950   18.2752 H   0  0  0  0  0  0
  -32.8352  -19.3592   20.7843 H   0  0  0  0  0  0
  -32.1854  -18.1573   21.8926 H   0  0  0  0  0  0
  -32.1848  -17.1150   19.6772 H   0  0  0  0  0  0
  -31.4381  -18.5165   18.9852 H   0  0  0  0  0  0
  -29.2215  -18.4240   22.0766 H   0  0  0  0  0  0
  -30.7702  -20.5090   20.6485 H   0  0  0  0  0  0
  -29.4779  -17.4573   19.3113 H   0  0  0  0  0  0
  -24.3031  -19.6442   17.6560 H   0  0  0  0  0  0
  -25.6034  -20.1583   16.5780 H   0  0  0  0  0  0
  -24.7420  -21.3478   17.5530 H   0  0  0  0  0  0
  -25.7865  -17.4803   21.5562 H   0  0  0  0  0  0
  -27.1508  -18.0266   22.4714 H   0  0  0  0  0  0
  -27.3813  -16.7958   21.2178 H   0  0  0  0  0  0
  -29.8390  -21.5134   24.2449 H   0  0  0  0  0  0
  -28.7574  -20.8001   23.0611 H   0  0  0  0  0  0
  -29.8087  -22.1472   22.6078 H   0  0  0  0  0  0
  -31.8205  -20.7449   22.9200 H   0  0  0  0  0  0
  -30.8670  -19.4224   23.5205 H   0  0  0  0  0  0
  -29.2333  -24.9228   21.2744 H   0  0  0  0  0  0
  -27.5256  -24.9636   21.4741 H   0  0  0  0  0  0
  -27.1776  -23.5457   19.5995 H   0  0  0  0  0  0
  -28.7622  -23.7801   18.9172 H   0  0  0  0  0  0
  -28.9918  -15.7873   21.1430 H   0  0  0  0  0  0
  1 25  1  0  0  0
  1 30  2  0  0  0
  1 88  1  0  0  0
  2  3  1  0  0  0
  2 25  1  0  0  0
  2 90  1  0  0  0
  2 91  1  0  0  0
  3  4  1  0  0  0
  3 92  1  0  0  0
  3 93  1  0  0  0
  4  5  1  0  0  0
  4 94  1  0  0  0
  4 95  1  0  0  0
  5  6  1  0  0  0
  5 26  1  0  0  0
  5 96  1  0  0  0
  6 25  1  0  0  0
  6 97  1  0  0  0
  6 98  1  0  0  0
  7  8  2  0  0  0
  7 26  1  0  0  0
  7 29  1  0  0  0
  8  9  1  0  0  0
  8 22  1  0  0  0
  9 10  1  0  0  0
  9 27  2  0  0  0
 10 11  2  0  0  0
 10 15  1  0  0  0
 11 12  1  0  0  0
 11 99  1  0  0  0
 12 13  2  0  0  0
 12100  1  0  0  0
 13 14  1  0  0  0
 13 31  1  0  0  0
 14 15  2  0  0  0
 14101  1  0  0  0
 15102  1  0  0  0
 16 17  2  0  0  0
 16 21  1  0  0  0
 16 31  1  0  0  0
 17 18  1  0  0  0
 17103  1  0  0  0
 18 19  2  0  0  0
 18104  1  0  0  0
 19 20  1  0  0  0
 19 24  1  0  0  0
 20 21  2  0  0  0
 20105  1  0  0  0
 21 23  1  0  0  0
 22 28  1  0  0  0
 22 32  2  0  0  0
 26 27  1  0  0  0
 28106  1  0  0  0
 28107  1  0  0  0
 29108  1  0  0  0
 29109  1  0  0  0
 33 34  1  0  0  0
 33 66  1  0  0  0
 33 70  2  0  0  0
 34 36  1  0  0  0
 34 59  1  0  0  0
 34110  1  0  0  0
 35 44  2  0  0  0
 35 45  1  0  0  0
 35 68  1  0  0  0
 36 56  1  0  0  0
 36111  1  0  0  0
 37 39  1  0  0  0
 37 47  1  0  0  0
 37 66  1  0  0  0
 37112  1  0  0  0
 38 43  2  0  0  0
 38 46  1  0  0  0
 38 47  1  0  0  0
 39 64  1  0  0  0
 39 67  2  0  0  0
 40 52  1  0  0  0
 40 53  2  0  0  0
 40 58  1  0  0  0
 41113  1  0  0  0
 41114  1  0  0  0
 41115  1  0  0  0
 41 48  1  0  0  0
 42 43  1  0  0  0
 42 66  1  0  0  0
 42116  1  0  0  0
 42117  1  0  0  0
 43 44  1  0  0  0
 44118  1  0  0  0
 45 46  2  0  0  0
 45119  1  0  0  0
 46120  1  0  0  0
 47121  1  0  0  0
 47122  1  0  0  0
 48 56  1  0  0  0
 48 65  1  0  0  0
 48123  1  0  0  0
 49 50  1  0  0  0
 49 53  1  0  0  0
 49 64  1  0  0  0
 49124  1  0  0  0
 50 51  1  0  0  0
 50125  1  0  0  0
 50126  1  0  0  0
 51 52  1  0  0  0
 51127  1  0  0  0
 51128  1  0  0  0
 52129  1  0  0  0
 52130  1  0  0  0
 53 54  1  0  0  0
 54 55  2  0  0  0
 54131  1  0  0  0
 55 57  1  0  0  0
 55132  1  0  0  0
 56 69  2  0  0  0
 57 58  2  0  0  0
 57133  1  0  0  0
 58134  1  0  0  0
 59 60  1  0  0  0
 59 61  1  0  0  0
 59 62  1  0  0  0
 60135  1  0  0  0
 60136  1  0  0  0
 60137  1  0  0  0
 61138  1  0  0  0
 61139  1  0  0  0
 61140  1  0  0  0
 62141  1  0  0  0
 62142  1  0  0  0
 62143  1  0  0  0
 63 65  1  0  0  0
 63144  1  0  0  0
 63145  1  0  0  0
 63146  1  0  0  0
 64147  1  0  0  0
 65148  1  0  0  0
 68 86  1  0  0  0
 71 74  2  0  0  0
 71 75  1  0  0  0
 71149  1  0  0  0
 72 74  1  0  0  0
 72 76  2  0  0  0
 72150  1  0  0  0
 73 75  2  0  0  0
 73 76  1  0  0  0
 73 79  1  0  0  0
 74 82  1  0  0  0
 75 83  1  0  0  0
 76 89  1  0  0  0
 77 78  1  0  0  0
 77 80  1  0  0  0
 77151  1  0  0  0
 77152  1  0  0  0
 78 81  1  0  0  0
 78153  1  0  0  0
 78154  1  0  0  0
 79 80  1  0  0  0
 79 81  1  0  0  0
 79155  1  0  0  0
 80 85  1  0  0  0
 80156  1  0  0  0
 81 88  1  0  0  0
 81157  1  0  0  0
 82158  1  0  0  0
 82159  1  0  0  0
 82160  1  0  0  0
 83161  1  0  0  0
 83162  1  0  0  0
 83163  1  0  0  0
 84 85  1  0  0  0
 84164  1  0  0  0
 84165  1  0  0  0
 84166  1  0  0  0
 85167  1  0  0  0
 85168  1  0  0  0
 86 87  1  0  0  0
 86169  1  0  0  0
 86170  1  0  0  0
 87 89  1  0  0  0
 87171  1  0  0  0
 87172  1  0  0  0
 88173  1  0  0  0
M  ISO  4   1 100  68 101  86 101  88 100
M  END
> <chiral flag>
0

> <version>
0

> <s_m_source_file>
/data/baiqing/PycharmProjects/Reinvent-master-3.2/result/LINK_invent/BTK/process_docking_weight1_custom_sum_contain_oxygen_bond_distance_aromatic_linkinvent_7_9_3/rearranged_h_0140.sdf

> <i_m_source_file_index>
63

> <r_mmod_Potential_Energy-OPLS-2005>
486.458404541016

> <r_mmod_Stretch_Energy-OPLS-2005>
186.959289550781

> <r_mmod_Bend_Energy-OPLS-2005>
275.45751953125

> <r_mmod_Torsional_Energy-OPLS-2005>
350.612091064453

> <r_mmod_Improper_Torsional_Energy-OPLS-2005>
6.58856344223022

> <r_mmod_Van_der_Waal_Energy-OPLS-2005>
143.263305664062

> <r_mmod_Electrostatic_Energy-OPLS-2005>
-376.231597900391

> <r_mmod_Solvation_Energy-OPLS-2005>
-199.751922607422

> <b_mmod_Minimization_Converged-OPLS-2005>
0

> <r_mmod_RMS_Derivative-OPLS-2005>
3.55110430717468

$$$$
63
                    3D
 Structure written by MMmdl.
155163  0  0  1  0            999 V2000
  -30.4386  -15.2216   20.3757 C   0  0  0  0  0  0
  -30.4393  -12.7773   19.5242 C   0  0  0  0  0  0
  -29.5352  -12.5703   18.2835 C   0  0  0  0  0  0
  -28.0796  -12.3038   18.7076 C   0  0  0  0  0  0
  -27.6134  -13.2708   19.8254 C   0  0  2  0  0  0
  -28.6469  -13.4190   20.9612 C   0  0  0  0  0  0
  -25.2393  -13.8245   20.5739 C   0  0  0  0  0  0
  -24.1742  -13.0438   20.9256 C   0  0  0  0  0  0
  -24.6394  -11.6933   20.8761 C   0  0  0  0  0  0
  -23.9095  -10.4293   21.0409 C   0  0  0  0  0  0
  -24.3639   -9.4206   21.9187 C   0  0  0  0  0  0
  -23.6306   -8.2246   22.0755 C   0  0  0  0  0  0
  -22.4286   -8.0288   21.3547 C   0  0  0  0  0  0
  -21.9927   -9.0263   20.4650 C   0  0  0  0  0  0
  -22.7266  -10.2135   20.3060 C   0  0  0  0  0  0
  -21.6856   -6.0742   22.5282 C   0  0  0  0  0  0
  -21.4018   -6.5644   23.8217 C   0  0  0  0  0  0
  -21.3658   -5.6794   24.9178 C   0  0  0  0  0  0
  -21.6042   -4.3056   24.7225 C   0  0  0  0  0  0
  -21.8819   -3.8152   23.4346 C   0  0  0  0  0  0
  -21.9190   -4.6970   22.3402 C   0  0  0  0  0  0
  -22.7760  -13.5194   21.1901 C   0  0  0  0  0  0
  -22.1660   -4.2157   21.0979 F   0  0  0  0  0  0
  -21.5625   -3.4538   25.7737 F   0  0  0  0  0  0
  -29.8833  -13.9161   20.3392 N   0  0  0  0  0  0
  -26.2818  -12.9512   20.3216 N   0  0  0  0  0  0
  -25.9329  -11.6622   20.5722 N   0  0  0  0  0  0
  -22.0413  -12.8174   22.0450 N   0  0  0  0  0  0
  -25.4021  -15.1982   20.4161 N   0  0  0  0  0  0
  -31.6571  -15.2412   20.1531 O   0  0  0  0  0  0
  -21.6644   -6.8889   21.4248 O   0  0  0  0  0  0
  -22.3440  -14.5495   20.6742 O   0  0  0  0  0  0
  -24.6584  -31.8259   23.1717 C   0  0  0  0  0  0
  -25.9281  -32.4597   23.8173 C   0  0  1  0  0  0
  -27.2208  -26.9534   20.1910 C   0  0  0  0  0  0
  -25.5964  -33.8411   24.2083 N   0  0  0  0  0  0
  -23.4712  -30.4361   21.5204 C   0  0  2  0  0  0
  -24.9231  -28.8197   20.1174 C   0  0  0  0  0  0
  -22.7638  -29.4451   22.4803 C   0  0  0  0  0  0
  -18.0315  -28.1405   22.8468 C   0  0  0  0  0  0
  -24.1495  -36.7215   23.2648 C   0  0  0  0  0  0
  -26.0363  -30.6400   21.3977 C   0  0  0  0  0  0
  -26.1027  -29.2291   20.7504 C   0  0  0  0  0  0
  -27.2437  -28.3156   20.7633 C   0  0  0  0  0  0
  -26.0137  -26.6846   19.5096 C   0  0  0  0  0  0
  -24.9010  -27.5666   19.4797 C   0  0  0  0  0  0
  -23.7091  -29.7463   20.1480 C   0  0  0  0  0  0
  -25.4134  -36.2974   24.0301 C   0  0  1  0  0  0
  -20.5935  -28.3744   23.1203 C   0  0  2  0  0  0
  -20.6793  -26.9430   22.5407 C   0  0  0  0  0  0
  -19.5769  -26.6378   21.5214 C   0  0  0  0  0  0
  -18.1950  -26.7939   22.1620 C   0  0  0  0  0  0
  -19.1575  -28.8895   23.2823 C   0  0  0  0  0  0
  -18.9487  -30.1487   23.8857 C   0  0  0  0  0  0
  -17.6481  -30.6595   24.0557 C   0  0  0  0  0  0
  -25.9094  -34.9355   23.5015 C   0  0  0  0  0  0
  -16.5371  -29.9083   23.6342 C   0  0  0  0  0  0
  -16.7297  -28.6503   23.0359 C   0  0  0  0  0  0
  -26.4547  -31.6536   25.0693 C   0  0  0  0  0  0
  -25.3681  -31.3783   26.1356 C   0  0  0  0  0  0
  -27.0444  -30.2907   24.6411 C   0  0  0  0  0  0
  -27.6040  -32.4345   25.7496 C   0  0  0  0  0  0
  -27.5571  -37.1764   24.8463 C   0  0  0  0  0  0
  -21.4313  -29.3036   22.3555 N   0  0  0  0  0  0
  -26.4281  -37.3707   23.9405 N   0  0  0  0  0  0
  -24.7429  -30.9948   22.0837 N   0  0  0  0  0  0
  -23.4200  -28.8028   23.3039 O   0  0  0  0  0  0
  -28.2907  -25.9270   20.2080 O   0  0  0  0  0  0
  -26.5705  -34.8884   22.4612 O   0  0  0  0  0  0
  -23.5664  -32.1221   23.6833 O   0  0  0  0  0  0
  -29.3388  -23.6161   19.4314 C   0  0  0  0  0  0
  -27.8374  -22.1031   21.0194 C   0  0  0  0  0  0
  -29.5443  -22.1456   19.4784 C   0  0  0  0  0  0
  -28.7879  -21.2301   20.3177 C   0  0  0  0  0  0
  -28.3576  -24.3935   20.1656 C   0  0  0  0  0  0
  -32.0108  -22.0872   18.9037 C   0  0  0  0  0  0
  -30.2620  -21.7617   17.0836 C   0  0  0  0  0  0
  -28.7635  -19.4779   20.3848 C   0  0  0  0  0  0
  -29.9171  -18.1140   20.3539 C   0  0  0  0  0  0
  -30.6110  -21.5538   18.5648 C   0  0  0  0  0  0
  -27.6379  -23.5180   20.9708 N   0  0  0  0  0  0
  -29.6561  -16.4723   20.4616 N   0  0  0  0  0  0
  -31.4611  -12.9778   19.1985 H   0  0  0  0  0  0
  -30.4956  -11.8649   20.1201 H   0  0  0  0  0  0
  -29.9077  -11.7465   17.6732 H   0  0  0  0  0  0
  -29.5749  -13.4609   17.6541 H   0  0  0  0  0  0
  -28.0248  -11.2757   19.0677 H   0  0  0  0  0  0
  -27.4133  -12.3612   17.8464 H   0  0  0  0  0  0
  -27.5370  -14.2448   19.3404 H   0  0  0  0  0  0
  -28.8031  -12.4752   21.4861 H   0  0  0  0  0  0
  -28.2952  -14.1345   21.7057 H   0  0  0  0  0  0
  -25.2782   -9.5679   22.4764 H   0  0  0  0  0  0
  -24.0014   -7.4636   22.7471 H   0  0  0  0  0  0
  -21.0859   -8.8793   19.8951 H   0  0  0  0  0  0
  -22.3737  -10.9678   19.6170 H   0  0  0  0  0  0
  -21.2020   -7.6152   23.9722 H   0  0  0  0  0  0
  -21.1477   -6.0523   25.9080 H   0  0  0  0  0  0
  -22.0597   -2.7614   23.2839 H   0  0  0  0  0  0
  -22.4039  -11.9853   22.4863 H   0  0  0  0  0  0
  -21.1025  -13.1186   22.2645 H   0  0  0  0  0  0
  -24.6286  -15.8449   20.5284 H   0  0  0  0  0  0
  -26.2343  -15.6393   20.0484 H   0  0  0  0  0  0
  -26.7348  -32.5146   23.0887 H   0  0  0  0  0  0
  -25.0053  -33.9495   25.0193 H   0  0  0  0  0  0
  -22.7828  -31.2663   21.3493 H   0  0  0  0  0  0
  -23.3764  -35.9539   23.3278 H   0  0  0  0  0  0
  -24.3573  -36.8892   22.2069 H   0  0  0  0  0  0
  -23.7246  -37.6393   23.6722 H   0  0  0  0  0  0
  -26.2109  -31.3791   20.6147 H   0  0  0  0  0  0
  -26.8992  -30.7004   22.0493 H   0  0  0  0  0  0
  -28.1449  -28.6330   21.2692 H   0  0  0  0  0  0
  -25.9106  -25.7281   19.0163 H   0  0  0  0  0  0
  -24.0041  -27.2490   18.9660 H   0  0  0  0  0  0
  -23.8622  -30.5116   19.3863 H   0  0  0  0  0  0
  -22.8195  -29.1975   19.8343 H   0  0  0  0  0  0
  -25.1332  -36.1773   25.0792 H   0  0  0  0  0  0
  -21.0021  -28.3348   24.1328 H   0  0  0  0  0  0
  -20.5673  -26.2360   23.3641 H   0  0  0  0  0  0
  -21.6658  -26.7412   22.1215 H   0  0  0  0  0  0
  -19.6930  -25.6279   21.1270 H   0  0  0  0  0  0
  -19.6709  -27.3168   20.6727 H   0  0  0  0  0  0
  -17.4219  -26.6682   21.4022 H   0  0  0  0  0  0
  -18.0344  -26.0092   22.9028 H   0  0  0  0  0  0
  -19.7963  -30.7317   24.2204 H   0  0  0  0  0  0
  -17.5031  -31.6270   24.5169 H   0  0  0  0  0  0
  -15.5368  -30.2970   23.7692 H   0  0  0  0  0  0
  -15.8699  -28.0810   22.7095 H   0  0  0  0  0  0
  -24.5871  -30.7125   25.7667 H   0  0  0  0  0  0
  -24.8862  -32.2985   26.4667 H   0  0  0  0  0  0
  -25.7917  -30.9024   27.0209 H   0  0  0  0  0  0
  -26.3108  -29.6580   24.1404 H   0  0  0  0  0  0
  -27.3970  -29.7272   25.5059 H   0  0  0  0  0  0
  -27.9047  -30.4092   23.9823 H   0  0  0  0  0  0
  -27.2604  -33.3683   26.1959 H   0  0  0  0  0  0
  -28.3911  -32.6846   25.0369 H   0  0  0  0  0  0
  -28.0643  -31.8548   26.5508 H   0  0  0  0  0  0
  -28.2567  -38.0079   24.7509 H   0  0  0  0  0  0
  -28.1089  -36.2604   24.6289 H   0  0  0  0  0  0
  -27.2287  -37.1407   25.8865 H   0  0  0  0  0  0
  -20.9563  -29.8712   21.6676 H   0  0  0  0  0  0
  -26.0130  -38.2767   24.1406 H   0  0  0  0  0  0
  -29.9883  -24.1894   18.7854 H   0  0  0  0  0  0
  -27.1369  -21.6150   21.6807 H   0  0  0  0  0  0
  -32.2591  -21.8880   19.9464 H   0  0  0  0  0  0
  -32.0886  -23.1623   18.7431 H   0  0  0  0  0  0
  -32.7715  -21.6064   18.2884 H   0  0  0  0  0  0
  -29.2890  -21.3279   16.8503 H   0  0  0  0  0  0
  -30.9975  -21.2830   16.4366 H   0  0  0  0  0  0
  -30.2277  -22.8186   16.8189 H   0  0  0  0  0  0
  -28.0674  -19.2385   19.5808 H   0  0  0  0  0  0
  -28.1785  -19.2936   21.2864 H   0  0  0  0  0  0
  -30.6386  -18.3202   21.1446 H   0  0  0  0  0  0
  -30.4910  -18.2268   19.4340 H   0  0  0  0  0  0
  -30.6403  -20.4782   18.7315 H   0  0  0  0  0  0
  -28.6803  -16.2622   20.6110 H   0  0  0  0  0  0
  1 25  1  0  0  0
  1 30  2  0  0  0
  1 82  1  0  0  0
  2  3  1  0  0  0
  2 25  1  0  0  0
  2 83  1  0  0  0
  2 84  1  0  0  0
  3  4  1  0  0  0
  3 85  1  0  0  0
  3 86  1  0  0  0
  4  5  1  0  0  0
  4 87  1  0  0  0
  4 88  1  0  0  0
  5  6  1  0  0  0
  5 26  1  0  0  0
  5 89  1  0  0  0
  6 25  1  0  0  0
  6 90  1  0  0  0
  6 91  1  0  0  0
  7  8  2  0  0  0
  7 26  1  0  0  0
  7 29  1  0  0  0
  8  9  1  0  0  0
  8 22  1  0  0  0
  9 10  1  0  0  0
  9 27  2  0  0  0
 10 11  2  0  0  0
 10 15  1  0  0  0
 11 12  1  0  0  0
 11 92  1  0  0  0
 12 13  2  0  0  0
 12 93  1  0  0  0
 13 14  1  0  0  0
 13 31  1  0  0  0
 14 15  2  0  0  0
 14 94  1  0  0  0
 15 95  1  0  0  0
 16 17  2  0  0  0
 16 21  1  0  0  0
 16 31  1  0  0  0
 17 18  1  0  0  0
 17 96  1  0  0  0
 18 19  2  0  0  0
 18 97  1  0  0  0
 19 20  1  0  0  0
 19 24  1  0  0  0
 20 21  2  0  0  0
 20 98  1  0  0  0
 21 23  1  0  0  0
 22 28  1  0  0  0
 22 32  2  0  0  0
 26 27  1  0  0  0
 28 99  1  0  0  0
 28100  1  0  0  0
 29101  1  0  0  0
 29102  1  0  0  0
 33 34  1  0  0  0
 33 66  1  0  0  0
 33 70  2  0  0  0
 34 36  1  0  0  0
 34 59  1  0  0  0
 34103  1  0  0  0
 35 44  2  0  0  0
 35 45  1  0  0  0
 35 68  1  0  0  0
 36 56  1  0  0  0
 36104  1  0  0  0
 37 39  1  0  0  0
 37 47  1  0  0  0
 37 66  1  0  0  0
 37105  1  0  0  0
 38 43  2  0  0  0
 38 46  1  0  0  0
 38 47  1  0  0  0
 39 64  1  0  0  0
 39 67  2  0  0  0
 40 52  1  0  0  0
 40 53  2  0  0  0
 40 58  1  0  0  0
 41106  1  0  0  0
 41107  1  0  0  0
 41108  1  0  0  0
 41 48  1  0  0  0
 42 43  1  0  0  0
 42 66  1  0  0  0
 42109  1  0  0  0
 42110  1  0  0  0
 43 44  1  0  0  0
 44111  1  0  0  0
 45 46  2  0  0  0
 45112  1  0  0  0
 46113  1  0  0  0
 47114  1  0  0  0
 47115  1  0  0  0
 48 56  1  0  0  0
 48 65  1  0  0  0
 48116  1  0  0  0
 49 50  1  0  0  0
 49 53  1  0  0  0
 49 64  1  0  0  0
 49117  1  0  0  0
 50 51  1  0  0  0
 50118  1  0  0  0
 50119  1  0  0  0
 51 52  1  0  0  0
 51120  1  0  0  0
 51121  1  0  0  0
 52122  1  0  0  0
 52123  1  0  0  0
 53 54  1  0  0  0
 54 55  2  0  0  0
 54124  1  0  0  0
 55 57  1  0  0  0
 55125  1  0  0  0
 56 69  2  0  0  0
 57 58  2  0  0  0
 57126  1  0  0  0
 58127  1  0  0  0
 59 60  1  0  0  0
 59 61  1  0  0  0
 59 62  1  0  0  0
 60128  1  0  0  0
 60129  1  0  0  0
 60130  1  0  0  0
 61131  1  0  0  0
 61132  1  0  0  0
 61133  1  0  0  0
 62134  1  0  0  0
 62135  1  0  0  0
 62136  1  0  0  0
 63 65  1  0  0  0
 63137  1  0  0  0
 63138  1  0  0  0
 63139  1  0  0  0
 64140  1  0  0  0
 65141  1  0  0  0
 68 75  1  0  0  0
 71 73  2  0  0  0
 71 75  1  0  0  0
 71142  1  0  0  0
 72 74  2  0  0  0
 72 81  1  0  0  0
 72143  1  0  0  0
 73 74  1  0  0  0
 73 80  1  0  0  0
 74 78  1  0  0  0
 75 81  2  0  0  0
 76144  1  0  0  0
 76145  1  0  0  0
 76146  1  0  0  0
 76 80  1  0  0  0
 77 80  1  0  0  0
 77147  1  0  0  0
 77148  1  0  0  0
 77149  1  0  0  0
 78 79  1  0  0  0
 78150  1  0  0  0
 78151  1  0  0  0
 79 82  1  0  0  0
 79152  1  0  0  0
 79153  1  0  0  0
 80154  1  0  0  0
 82155  1  0  0  0
M  ISO  4   1 100  68 101  75 101  82 100
M  END
> <chiral flag>
0

> <version>
0

> <s_m_source_file>
/data/baiqing/PycharmProjects/Reinvent-master-3.2/result/LINK_invent/BTK/process_docking_weight1_custom_sum_contain_oxygen_bond_distance_aromatic_linkinvent_7_9_3/rearranged_h_0140.sdf

> <i_m_source_file_index>
64

> <r_mmod_Potential_Energy-OPLS-2005>
869.274291992188

> <r_mmod_Stretch_Energy-OPLS-2005>
473.881805419922

> <r_mmod_Bend_Energy-OPLS-2005>
420.732482910156

> <r_mmod_Torsional_Energy-OPLS-2005>
210.743270874023

> <r_mmod_Improper_Torsional_Energy-OPLS-2005>
5.82170867919922

> <r_mmod_Van_der_Waal_Energy-OPLS-2005>
128.228927612305

> <r_mmod_Electrostatic_Energy-OPLS-2005>
-550.1923828125

> <r_mmod_Solvation_Energy-OPLS-2005>
-223.782745361328

> <b_mmod_Minimization_Converged-OPLS-2005>
0

> <r_mmod_RMS_Derivative-OPLS-2005>
0.755478024482727

$$$$
64
                    3D
 Structure written by MMmdl.
172182  0  0  1  0            999 V2000
  -30.4436  -15.4310   20.3183 C   0  0  0  0  0  0
  -30.4270  -12.9327   19.5147 C   0  0  0  0  0  0
  -29.5410  -12.5430   18.3047 C   0  0  0  0  0  0
  -28.0995  -12.2589   18.7498 C   0  0  0  0  0  0
  -27.5937  -13.2905   19.7883 C   0  0  2  0  0  0
  -28.6221  -13.5983   20.8962 C   0  0  0  0  0  0
  -25.2344  -13.8285   20.5756 C   0  0  0  0  0  0
  -24.1714  -13.0448   20.9265 C   0  0  0  0  0  0
  -24.6401  -11.6950   20.8776 C   0  0  0  0  0  0
  -23.9095  -10.4300   21.0400 C   0  0  0  0  0  0
  -24.3646   -9.4207   21.9170 C   0  0  0  0  0  0
  -23.6313   -8.2241   22.0740 C   0  0  0  0  0  0
  -22.4287   -8.0279   21.3531 C   0  0  0  0  0  0
  -21.9926   -9.0263   20.4635 C   0  0  0  0  0  0
  -22.7263  -10.2141   20.3040 C   0  0  0  0  0  0
  -21.6856   -6.0724   22.5267 C   0  0  0  0  0  0
  -21.4030   -6.5634   23.8201 C   0  0  0  0  0  0
  -21.3670   -5.6782   24.9166 C   0  0  0  0  0  0
  -21.6042   -4.3048   24.7210 C   0  0  0  0  0  0
  -21.8821   -3.8134   23.4331 C   0  0  0  0  0  0
  -21.9190   -4.6949   22.3391 C   0  0  0  0  0  0
  -22.7725  -13.5193   21.1879 C   0  0  0  0  0  0
  -22.1646   -4.2142   21.0968 F   0  0  0  0  0  0
  -21.5631   -3.4527   25.7720 F   0  0  0  0  0  0
  -29.8245  -14.1330   20.2287 N   0  0  0  0  0  0
  -26.2762  -12.9592   20.3144 N   0  0  0  0  0  0
  -25.9331  -11.6691   20.5695 N   0  0  0  0  0  0
  -22.0381  -12.8190   22.0441 N   0  0  0  0  0  0
  -25.4000  -15.2020   20.4240 N   0  0  0  0  0  0
  -31.6723  -15.2437   20.3592 O   0  0  0  0  0  0
  -21.6644   -6.8872   21.4232 O   0  0  0  0  0  0
  -22.3422  -14.5490   20.6696 O   0  0  0  0  0  0
  -24.6756  -31.8106   23.1581 C   0  0  0  0  0  0
  -25.9388  -32.4515   23.8075 C   0  0  1  0  0  0
  -27.2096  -26.7977   20.2077 C   0  0  0  0  0  0
  -25.6009  -33.8331   24.1998 N   0  0  0  0  0  0
  -23.4926  -30.4167   21.5114 C   0  0  2  0  0  0
  -24.9421  -28.7724   20.1170 C   0  0  0  0  0  0
  -22.7720  -29.4379   22.4761 C   0  0  0  0  0  0
  -18.0341  -28.1413   22.8464 C   0  0  0  0  0  0
  -24.1496  -36.7178   23.2645 C   0  0  0  0  0  0
  -26.0667  -30.5775   21.3999 C   0  0  0  0  0  0
  -26.1302  -29.1505   20.7546 C   0  0  0  0  0  0
  -27.2556  -28.1884   20.7624 C   0  0  0  0  0  0
  -25.9884  -26.5970   19.5242 C   0  0  0  0  0  0
  -24.9044  -27.5207   19.4783 C   0  0  0  0  0  0
  -23.7373  -29.7202   20.1433 C   0  0  0  0  0  0
  -25.4141  -36.2928   24.0291 C   0  0  1  0  0  0
  -20.5968  -28.3762   23.1181 C   0  0  2  0  0  0
  -20.6809  -26.9433   22.5415 C   0  0  0  0  0  0
  -19.5784  -26.6373   21.5225 C   0  0  0  0  0  0
  -18.1969  -26.7946   22.1630 C   0  0  0  0  0  0
  -19.1601  -28.8913   23.2803 C   0  0  0  0  0  0
  -18.9507  -30.1502   23.8834 C   0  0  0  0  0  0
  -17.6501  -30.6598   24.0562 C   0  0  0  0  0  0
  -25.9107  -34.9319   23.4966 C   0  0  0  0  0  0
  -16.5393  -29.9079   23.6347 C   0  0  0  0  0  0
  -16.7322  -28.6506   23.0346 C   0  0  0  0  0  0
  -26.4610  -31.6478   25.0629 C   0  0  0  0  0  0
  -25.3721  -31.3748   26.1270 C   0  0  0  0  0  0
  -27.0506  -30.2832   24.6394 C   0  0  0  0  0  0
  -27.6088  -32.4302   25.7441 C   0  0  0  0  0  0
  -27.5570  -37.1738   24.8475 C   0  0  0  0  0  0
  -21.4376  -29.3033   22.3513 N   0  0  0  0  0  0
  -26.4275  -37.3685   23.9412 N   0  0  0  0  0  0
  -24.7679  -30.9659   22.0775 N   0  0  0  0  0  0
  -23.4211  -28.7965   23.3055 O   0  0  0  0  0  0
  -28.2319  -25.6660   20.2155 O   0  0  0  0  0  0
  -26.5739  -34.8892   22.4575 O   0  0  0  0  0  0
  -23.5799  -32.1134   23.6620 O   0  0  0  0  0  0
  -30.6448  -18.4824   21.5854 C   0  0  0  0  0  0
  -29.9342  -17.0504   19.8957 C   0  0  0  0  0  0
  -29.6153  -18.4257   20.6352 C   0  0  0  0  0  0
  -30.9774  -17.5410   19.0589 C   0  0  0  0  0  0
  -32.0804  -18.1050   19.7754 C   0  0  0  0  0  0
  -29.7866  -21.4465   21.0714 C   0  0  0  0  0  0
  -27.8431  -20.9822   19.9622 C   0  0  0  0  0  0
  -29.6083  -23.1085   20.7284 C   0  0  0  0  0  0
  -27.6983  -22.6568   19.5507 C   0  0  0  0  0  0
  -34.8630  -19.7516   19.0705 C   0  0  0  0  0  0
  -34.5045  -18.6011   20.0134 C   0  0  0  0  0  0
  -33.3956  -19.7604   18.6434 C   0  0  0  0  0  0
  -29.2707  -20.1520   20.1639 C   0  0  2  0  0  0
  -28.2081  -23.9644   20.4664 C   0  0  1  0  0  0
  -30.1109  -18.2320   16.7838 C   0  0  0  0  0  0
  -30.7342  -15.8269   17.1345 C   0  0  0  0  0  0
  -31.0370  -17.2729   17.5447 C   0  0  0  0  0  0
  -31.9063  -18.4116   21.0938 N   0  0  0  0  0  0
  -33.3296  -18.4009   19.1627 N   0  0  0  0  0  0
  -31.4339  -13.1439   19.1511 H   0  0  0  0  0  0
  -30.5454  -12.0904   20.1983 H   0  0  0  0  0  0
  -29.9564  -11.6665   17.8046 H   0  0  0  0  0  0
  -29.5404  -13.3372   17.5630 H   0  0  0  0  0  0
  -28.0972  -11.2666   19.2031 H   0  0  0  0  0  0
  -27.4313  -12.2078   17.8901 H   0  0  0  0  0  0
  -27.4678  -14.2125   19.2176 H   0  0  0  0  0  0
  -28.8376  -12.7185   21.5049 H   0  0  0  0  0  0
  -28.2309  -14.3588   21.5743 H   0  0  0  0  0  0
  -25.2779   -9.5682   22.4751 H   0  0  0  0  0  0
  -24.0007   -7.4640   22.7475 H   0  0  0  0  0  0
  -21.0825   -8.8790   19.8971 H   0  0  0  0  0  0
  -22.3695  -10.9685   19.6160 H   0  0  0  0  0  0
  -21.2040   -7.6145   23.9708 H   0  0  0  0  0  0
  -21.1495   -6.0507   25.9070 H   0  0  0  0  0  0
  -22.0597   -2.7590   23.2820 H   0  0  0  0  0  0
  -22.4009  -11.9900   22.4905 H   0  0  0  0  0  0
  -21.0981  -13.1213   22.2606 H   0  0  0  0  0  0
  -24.6345  -15.8534   20.5514 H   0  0  0  0  0  0
  -26.2531  -15.6508   20.1148 H   0  0  0  0  0  0
  -26.7452  -32.5032   23.0773 H   0  0  0  0  0  0
  -25.0104  -33.9371   25.0115 H   0  0  0  0  0  0
  -22.8136  -31.2533   21.3333 H   0  0  0  0  0  0
  -23.3771  -35.9494   23.3268 H   0  0  0  0  0  0
  -24.3576  -36.8864   22.2068 H   0  0  0  0  0  0
  -23.7241  -37.6346   23.6729 H   0  0  0  0  0  0
  -26.2519  -31.3051   20.6081 H   0  0  0  0  0  0
  -26.9267  -30.6483   22.0531 H   0  0  0  0  0  0
  -28.1621  -28.4868   21.2689 H   0  0  0  0  0  0
  -25.8460  -25.6510   19.0221 H   0  0  0  0  0  0
  -24.0062  -27.2309   18.9499 H   0  0  0  0  0  0
  -23.9083  -30.4833   19.3842 H   0  0  0  0  0  0
  -22.8407  -29.1884   19.8218 H   0  0  0  0  0  0
  -25.1345  -36.1697   25.0781 H   0  0  0  0  0  0
  -21.0064  -28.3371   24.1304 H   0  0  0  0  0  0
  -20.5694  -26.2381   23.3653 H   0  0  0  0  0  0
  -21.6661  -26.7398   22.1213 H   0  0  0  0  0  0
  -19.6932  -25.6271   21.1269 H   0  0  0  0  0  0
  -19.6706  -27.3178   20.6738 H   0  0  0  0  0  0
  -17.4235  -26.6702   21.4033 H   0  0  0  0  0  0
  -18.0342  -26.0104   22.9035 H   0  0  0  0  0  0
  -19.7977  -30.7344   24.2149 H   0  0  0  0  0  0
  -17.5042  -31.6263   24.5191 H   0  0  0  0  0  0
  -15.5380  -30.2958   23.7694 H   0  0  0  0  0  0
  -15.8727  -28.0812   22.7058 H   0  0  0  0  0  0
  -24.5946  -30.7050   25.7580 H   0  0  0  0  0  0
  -24.8863  -32.2942   26.4532 H   0  0  0  0  0  0
  -25.7942  -30.9025   27.0144 H   0  0  0  0  0  0
  -26.3163  -29.6486   24.1406 H   0  0  0  0  0  0
  -27.4034  -29.7228   25.5061 H   0  0  0  0  0  0
  -27.9119  -30.4005   23.9815 H   0  0  0  0  0  0
  -27.2650  -33.3673   26.1838 H   0  0  0  0  0  0
  -28.3979  -32.6729   25.0311 H   0  0  0  0  0  0
  -28.0655  -31.8524   26.5485 H   0  0  0  0  0  0
  -28.2564  -38.0056   24.7519 H   0  0  0  0  0  0
  -28.1079  -36.2575   24.6294 H   0  0  0  0  0  0
  -27.2286  -37.1383   25.8879 H   0  0  0  0  0  0
  -20.9657  -29.8706   21.6612 H   0  0  0  0  0  0
  -26.0107  -38.2730   24.1431 H   0  0  0  0  0  0
  -30.5954  -19.1650   22.4181 H   0  0  0  0  0  0
  -29.3635  -21.3064   22.0668 H   0  0  0  0  0  0
  -30.8584  -21.2989   21.2153 H   0  0  0  0  0  0
  -27.2722  -20.4349   19.2107 H   0  0  0  0  0  0
  -27.2712  -20.8418   20.8801 H   0  0  0  0  0  0
  -30.2465  -23.3029   19.8655 H   0  0  0  0  0  0
  -30.1140  -23.6255   21.5439 H   0  0  0  0  0  0
  -26.6366  -22.8198   19.3630 H   0  0  0  0  0  0
  -28.1644  -22.7581   18.5693 H   0  0  0  0  0  0
  -35.5468  -19.4656   18.2665 H   0  0  0  0  0  0
  -35.1764  -20.6663   19.5744 H   0  0  0  0  0  0
  -34.3030  -18.9409   21.0313 H   0  0  0  0  0  0
  -35.2134  -17.7724   19.9969 H   0  0  0  0  0  0
  -33.2345  -19.8356   17.5674 H   0  0  0  0  0  0
  -32.7853  -20.4700   19.2077 H   0  0  0  0  0  0
  -29.7953  -20.2314   19.2108 H   0  0  0  0  0  0
  -27.6300  -23.8879   21.3880 H   0  0  0  0  0  0
  -30.3555  -19.2726   16.9956 H   0  0  0  0  0  0
  -29.0666  -18.0680   17.0526 H   0  0  0  0  0  0
  -30.2011  -18.0886   15.7067 H   0  0  0  0  0  0
  -31.4346  -15.1245   17.5848 H   0  0  0  0  0  0
  -30.8207  -15.7011   16.0531 H   0  0  0  0  0  0
  -29.7203  -15.5476   17.4120 H   0  0  0  0  0  0
  -32.0479  -17.4728   17.1903 H   0  0  0  0  0  0
  1 25  1  0  0  0
  1 30  2  0  0  0
  1 72  1  0  0  0
  2  3  1  0  0  0
  2 25  1  0  0  0
  2 90  1  0  0  0
  2 91  1  0  0  0
  3  4  1  0  0  0
  3 92  1  0  0  0
  3 93  1  0  0  0
  4  5  1  0  0  0
  4 94  1  0  0  0
  4 95  1  0  0  0
  5  6  1  0  0  0
  5 26  1  0  0  0
  5 96  1  0  0  0
  6 25  1  0  0  0
  6 97  1  0  0  0
  6 98  1  0  0  0
  7  8  2  0  0  0
  7 26  1  0  0  0
  7 29  1  0  0  0
  8  9  1  0  0  0
  8 22  1  0  0  0
  9 10  1  0  0  0
  9 27  2  0  0  0
 10 11  2  0  0  0
 10 15  1  0  0  0
 11 12  1  0  0  0
 11 99  1  0  0  0
 12 13  2  0  0  0
 12100  1  0  0  0
 13 14  1  0  0  0
 13 31  1  0  0  0
 14 15  2  0  0  0
 14101  1  0  0  0
 15102  1  0  0  0
 16 17  2  0  0  0
 16 21  1  0  0  0
 16 31  1  0  0  0
 17 18  1  0  0  0
 17103  1  0  0  0
 18 19  2  0  0  0
 18104  1  0  0  0
 19 20  1  0  0  0
 19 24  1  0  0  0
 20 21  2  0  0  0
 20105  1  0  0  0
 21 23  1  0  0  0
 22 28  1  0  0  0
 22 32  2  0  0  0
 26 27  1  0  0  0
 28106  1  0  0  0
 28107  1  0  0  0
 29108  1  0  0  0
 29109  1  0  0  0
 33 34  1  0  0  0
 33 66  1  0  0  0
 33 70  2  0  0  0
 34 36  1  0  0  0
 34 59  1  0  0  0
 34110  1  0  0  0
 35 44  2  0  0  0
 35 45  1  0  0  0
 35 68  1  0  0  0
 36 56  1  0  0  0
 36111  1  0  0  0
 37 39  1  0  0  0
 37 47  1  0  0  0
 37 66  1  0  0  0
 37112  1  0  0  0
 38 43  2  0  0  0
 38 46  1  0  0  0
 38 47  1  0  0  0
 39 64  1  0  0  0
 39 67  2  0  0  0
 40 52  1  0  0  0
 40 53  2  0  0  0
 40 58  1  0  0  0
 41113  1  0  0  0
 41114  1  0  0  0
 41115  1  0  0  0
 41 48  1  0  0  0
 42 43  1  0  0  0
 42 66  1  0  0  0
 42116  1  0  0  0
 42117  1  0  0  0
 43 44  1  0  0  0
 44118  1  0  0  0
 45 46  2  0  0  0
 45119  1  0  0  0
 46120  1  0  0  0
 47121  1  0  0  0
 47122  1  0  0  0
 48 56  1  0  0  0
 48 65  1  0  0  0
 48123  1  0  0  0
 49 50  1  0  0  0
 49 53  1  0  0  0
 49 64  1  0  0  0
 49124  1  0  0  0
 50 51  1  0  0  0
 50125  1  0  0  0
 50126  1  0  0  0
 51 52  1  0  0  0
 51127  1  0  0  0
 51128  1  0  0  0
 52129  1  0  0  0
 52130  1  0  0  0
 53 54  1  0  0  0
 54 55  2  0  0  0
 54131  1  0  0  0
 55 57  1  0  0  0
 55132  1  0  0  0
 56 69  2  0  0  0
 57 58  2  0  0  0
 57133  1  0  0  0
 58134  1  0  0  0
 59 60  1  0  0  0
 59 61  1  0  0  0
 59 62  1  0  0  0
 60135  1  0  0  0
 60136  1  0  0  0
 60137  1  0  0  0
 61138  1  0  0  0
 61139  1  0  0  0
 61140  1  0  0  0
 62141  1  0  0  0
 62142  1  0  0  0
 62143  1  0  0  0
 63 65  1  0  0  0
 63144  1  0  0  0
 63145  1  0  0  0
 63146  1  0  0  0
 64147  1  0  0  0
 65148  1  0  0  0
 68 84  1  0  0  0
 71 73  2  0  0  0
 71 88  1  0  0  0
 71149  1  0  0  0
 72 73  1  0  0  0
 72 74  2  0  0  0
 73 83  1  0  0  0
 74 75  1  0  0  0
 74 87  1  0  0  0
 75 88  2  0  0  0
 75 89  1  0  0  0
 76 78  1  0  0  0
 76 83  1  0  0  0
 76150  1  0  0  0
 76151  1  0  0  0
 77 79  1  0  0  0
 77 83  1  0  0  0
 77152  1  0  0  0
 77153  1  0  0  0
 78 84  1  0  0  0
 78154  1  0  0  0
 78155  1  0  0  0
 79 84  1  0  0  0
 79156  1  0  0  0
 79157  1  0  0  0
 80 81  1  0  0  0
 80 82  1  0  0  0
 80158  1  0  0  0
 80159  1  0  0  0
 81 89  1  0  0  0
 81160  1  0  0  0
 81161  1  0  0  0
 82 89  1  0  0  0
 82162  1  0  0  0
 82163  1  0  0  0
 83164  1  0  0  0
 84165  1  0  0  0
 85166  1  0  0  0
 85167  1  0  0  0
 85168  1  0  0  0
 85 87  1  0  0  0
 86 87  1  0  0  0
 86169  1  0  0  0
 86170  1  0  0  0
 86171  1  0  0  0
 87172  1  0  0  0
M  ISO  4   1 100  68 101  72 100  84 101
M  END
> <chiral flag>
0

> <version>
0

> <s_m_source_file>
/data/baiqing/PycharmProjects/Reinvent-master-3.2/result/LINK_invent/BTK/process_docking_weight1_custom_sum_contain_oxygen_bond_distance_aromatic_linkinvent_7_9_3/rearranged_h_0140.sdf

> <i_m_source_file_index>
65

> <r_mmod_Potential_Energy-OPLS-2005>
2192.02368164062

> <r_mmod_Stretch_Energy-OPLS-2005>
769.013366699219

> <r_mmod_Bend_Energy-OPLS-2005>
763.360046386719

> <r_mmod_Torsional_Energy-OPLS-2005>
546.84814453125

> <r_mmod_Improper_Torsional_Energy-OPLS-2005>
60.9676856994629

> <r_mmod_Van_der_Waal_Energy-OPLS-2005>
160.1220703125

> <r_mmod_Electrostatic_Energy-OPLS-2005>
-540.848022460938

> <r_mmod_Solvation_Energy-OPLS-2005>
-217.116760253906

> <b_mmod_Minimization_Converged-OPLS-2005>
0

> <r_mmod_RMS_Derivative-OPLS-2005>
3.64886379241943

$$$$
65
                    3D
 Structure written by MMmdl.
167176  0  0  1  0            999 V2000
  -30.6323  -14.5329   20.5600 C   0  0  0  0  0  0
  -30.4391  -12.3468   19.4111 C   0  0  0  0  0  0
  -29.4924  -12.4948   18.2003 C   0  0  0  0  0  0
  -28.0188  -12.3283   18.6221 C   0  0  0  0  0  0
  -27.6527  -13.1882   19.8592 C   0  0  2  0  0  0
  -28.6958  -12.9916   20.9784 C   0  0  0  0  0  0
  -25.2577  -13.8039   20.5577 C   0  0  0  0  0  0
  -24.1836  -13.0385   20.9187 C   0  0  0  0  0  0
  -24.6372  -11.6830   20.8742 C   0  0  0  0  0  0
  -23.9039  -10.4241   21.0435 C   0  0  0  0  0  0
  -24.3589   -9.4147   21.9212 C   0  0  0  0  0  0
  -23.6261   -8.2197   22.0767 C   0  0  0  0  0  0
  -22.4254   -8.0258   21.3542 C   0  0  0  0  0  0
  -21.9889   -9.0242   20.4654 C   0  0  0  0  0  0
  -22.7218  -10.2118   20.3073 C   0  0  0  0  0  0
  -21.6822   -6.0726   22.5276 C   0  0  0  0  0  0
  -21.3991   -6.5631   23.8214 C   0  0  0  0  0  0
  -21.3653   -5.6795   24.9179 C   0  0  0  0  0  0
  -21.6042   -4.3060   24.7235 C   0  0  0  0  0  0
  -21.8810   -3.8147   23.4349 C   0  0  0  0  0  0
  -21.9171   -4.6962   22.3398 C   0  0  0  0  0  0
  -22.7881  -13.5239   21.1853 C   0  0  0  0  0  0
  -22.1650   -4.2140   21.0986 F   0  0  0  0  0  0
  -21.5628   -3.4547   25.7746 F   0  0  0  0  0  0
  -30.0148  -13.3281   20.4153 N   0  0  0  0  0  0
  -26.2975  -12.9180   20.3285 N   0  0  0  0  0  0
  -25.9285  -11.6364   20.5741 N   0  0  0  0  0  0
  -22.0502  -12.8232   22.0393 N   0  0  0  0  0  0
  -25.4351  -15.1704   20.3772 N   0  0  0  0  0  0
  -31.8030  -14.7405   20.2287 O   0  0  0  0  0  0
  -21.6608   -6.8862   21.4235 O   0  0  0  0  0  0
  -22.3584  -14.5579   20.6730 O   0  0  0  0  0  0
  -24.6173  -31.8660   23.2076 C   0  0  0  0  0  0
  -25.9050  -32.4809   23.8375 C   0  0  1  0  0  0
  -27.2283  -27.3957   20.1150 C   0  0  0  0  0  0
  -25.5893  -33.8610   24.2291 N   0  0  0  0  0  0
  -23.4055  -30.4895   21.5478 C   0  0  2  0  0  0
  -24.8538  -28.9495   20.1196 C   0  0  0  0  0  0
  -22.7402  -29.4661   22.4977 C   0  0  0  0  0  0
  -18.0297  -28.1358   22.8572 C   0  0  0  0  0  0
  -24.1494  -36.7303   23.2638 C   0  0  0  0  0  0
  -25.9394  -30.8214   21.3683 C   0  0  0  0  0  0
  -26.0171  -29.4536   20.7139 C   0  0  0  0  0  0
  -27.2102  -28.6882   20.7027 C   0  0  0  0  0  0
  -26.0452  -26.9122   19.5184 C   0  0  0  0  0  0
  -24.8652  -27.6814   19.5145 C   0  0  0  0  0  0
  -23.6165  -29.8195   20.1642 C   0  0  0  0  0  0
  -25.4120  -36.3086   24.0330 C   0  0  1  0  0  0
  -20.5886  -28.3691   23.1308 C   0  0  2  0  0  0
  -20.6775  -26.9411   22.5421 C   0  0  0  0  0  0
  -19.5711  -26.6429   21.5240 C   0  0  0  0  0  0
  -18.1945  -26.7865   22.1784 C   0  0  0  0  0  0
  -19.1547  -28.8856   23.2927 C   0  0  0  0  0  0
  -18.9462  -30.1468   23.8906 C   0  0  0  0  0  0
  -17.6467  -30.6613   24.0568 C   0  0  0  0  0  0
  -25.9052  -34.9465   23.5107 C   0  0  0  0  0  0
  -16.5363  -29.9076   23.6358 C   0  0  0  0  0  0
  -16.7299  -28.6484   23.0424 C   0  0  0  0  0  0
  -26.4481  -31.6589   25.0723 C   0  0  0  0  0  0
  -25.3727  -31.3743   26.1467 C   0  0  0  0  0  0
  -27.0305  -30.3003   24.6143 C   0  0  0  0  0  0
  -27.6034  -32.4337   25.7511 C   0  0  0  0  0  0
  -27.5582  -37.1800   24.8458 C   0  0  0  0  0  0
  -21.4144  -29.3053   22.3695 N   0  0  0  0  0  0
  -26.4293  -37.3773   23.9408 N   0  0  0  0  0  0
  -24.6716  -31.0737   22.0991 N   0  0  0  0  0  0
  -23.4163  -28.8217   23.3057 O   0  0  0  0  0  0
  -28.3905  -26.6460   20.0553 O   0  0  0  0  0  0
  -26.5615  -34.8910   22.4685 O   0  0  0  0  0  0
  -23.5358  -32.1425   23.7459 O   0  0  0  0  0  0
  -29.5260  -21.4302   23.2756 C   0  0  0  0  0  0
  -29.6705  -20.0829   22.8999 C   0  0  0  0  0  0
  -29.2158  -22.4108   22.3165 C   0  0  0  0  0  0
  -29.2074  -20.6828   20.5915 C   0  0  0  0  0  0
  -29.4774  -19.6666   21.5564 C   0  0  0  0  0  0
  -29.0694  -22.0583   20.9563 C   0  0  0  0  0  0
  -28.9537  -16.7596   22.8149 C   0  0  0  0  0  0
  -29.4664  -18.1441   21.1844 C   0  0  1  0  0  0
  -28.1308  -17.6084   21.8458 C   0  0  2  0  0  0
  -30.0395  -16.7376   21.7470 C   0  0  2  0  0  0
  -24.5659  -18.7029   23.1264 C   0  0  0  0  0  0
  -27.0171  -18.5036   22.4333 C   0  0  0  0  0  0
  -25.6341  -17.8330   22.4501 C   0  0  0  0  0  0
  -27.9108  -24.1037   20.2249 C   0  0  0  0  0  0
  -28.4607  -25.4317   20.8461 C   0  0  0  0  0  0
  -29.7929  -15.5180   20.9439 N   0  0  0  0  0  0
  -28.8429  -23.0208   19.9806 O   0  0  0  0  0  0
  -31.4743  -12.5058   19.1036 H   0  0  0  0  0  0
  -30.3907  -11.3368   19.8226 H   0  0  0  0  0  0
  -29.7436  -11.7606   17.4341 H   0  0  0  0  0  0
  -29.6263  -13.4763   17.7433 H   0  0  0  0  0  0
  -27.8503  -11.2735   18.8375 H   0  0  0  0  0  0
  -27.3606  -12.5688   17.7881 H   0  0  0  0  0  0
  -27.6832  -14.2285   19.5318 H   0  0  0  0  0  0
  -28.6934  -11.9581   21.3274 H   0  0  0  0  0  0
  -28.4492  -13.5936   21.8551 H   0  0  0  0  0  0
  -25.2737   -9.5602   22.4784 H   0  0  0  0  0  0
  -23.9925   -7.4583   22.7491 H   0  0  0  0  0  0
  -21.0816   -8.8807   19.8958 H   0  0  0  0  0  0
  -22.3722  -10.9676   19.6188 H   0  0  0  0  0  0
  -21.1977   -7.6141   23.9722 H   0  0  0  0  0  0
  -21.1488   -6.0521   25.9090 H   0  0  0  0  0  0
  -22.0585   -2.7606   23.2855 H   0  0  0  0  0  0
  -22.4103  -11.9884   22.4752 H   0  0  0  0  0  0
  -21.1141  -13.1300   22.2661 H   0  0  0  0  0  0
  -24.6776  -15.8310   20.4975 H   0  0  0  0  0  0
  -26.2706  -15.5897   19.9920 H   0  0  0  0  0  0
  -26.7130  -32.5495   23.1143 H   0  0  0  0  0  0
  -25.0024  -33.9765   25.0416 H   0  0  0  0  0  0
  -22.6940  -31.3074   21.4058 H   0  0  0  0  0  0
  -23.3736  -35.9646   23.3309 H   0  0  0  0  0  0
  -24.3577  -36.8927   22.2042 H   0  0  0  0  0  0
  -23.7263  -37.6520   23.6663 H   0  0  0  0  0  0
  -26.0697  -31.5884   20.6039 H   0  0  0  0  0  0
  -26.8227  -30.8667   21.9938 H   0  0  0  0  0  0
  -28.1141  -29.0809   21.1486 H   0  0  0  0  0  0
  -26.0304  -25.9460   19.0382 H   0  0  0  0  0  0
  -23.9723  -27.2907   19.0486 H   0  0  0  0  0  0
  -23.7233  -30.5934   19.4046 H   0  0  0  0  0  0
  -22.7390  -29.2414   19.8685 H   0  0  0  0  0  0
  -25.1297  -36.1950   25.0816 H   0  0  0  0  0  0
  -20.9986  -28.3229   24.1409 H   0  0  0  0  0  0
  -20.5731  -26.2288   23.3626 H   0  0  0  0  0  0
  -21.6644  -26.7404   22.1216 H   0  0  0  0  0  0
  -19.6520  -27.3348   20.6859 H   0  0  0  0  0  0
  -19.6858  -25.6369   21.1186 H   0  0  0  0  0  0
  -17.4129  -26.6412   21.4323 H   0  0  0  0  0  0
  -18.0517  -26.0096   22.9310 H   0  0  0  0  0  0
  -19.7951  -30.7299   24.2225 H   0  0  0  0  0  0
  -17.5005  -31.6320   24.5110 H   0  0  0  0  0  0
  -15.5367  -30.2986   23.7620 H   0  0  0  0  0  0
  -15.8710  -28.0772   22.7184 H   0  0  0  0  0  0
  -24.5889  -30.7107   25.7819 H   0  0  0  0  0  0
  -24.8940  -32.2918   26.4886 H   0  0  0  0  0  0
  -25.8053  -30.8931   27.0242 H   0  0  0  0  0  0
  -26.2850  -29.6800   24.1151 H   0  0  0  0  0  0
  -27.3987  -29.7234   25.4638 H   0  0  0  0  0  0
  -27.8738  -30.4293   23.9358 H   0  0  0  0  0  0
  -27.2605  -33.3628   26.2088 H   0  0  0  0  0  0
  -28.3847  -32.6928   25.0353 H   0  0  0  0  0  0
  -28.0693  -31.8470   26.5440 H   0  0  0  0  0  0
  -28.2592  -38.0099   24.7496 H   0  0  0  0  0  0
  -28.1081  -36.2629   24.6295 H   0  0  0  0  0  0
  -27.2292  -37.1465   25.8856 H   0  0  0  0  0  0
  -20.9299  -29.8713   21.6844 H   0  0  0  0  0  0
  -26.0176  -38.2855   24.1394 H   0  0  0  0  0  0
  -29.6433  -21.7067   24.3132 H   0  0  0  0  0  0
  -29.8872  -19.3589   23.6711 H   0  0  0  0  0  0
  -29.1270  -23.4380   22.6373 H   0  0  0  0  0  0
  -29.0768  -20.4002   19.5560 H   0  0  0  0  0  0
  -28.5036  -15.7981   23.0750 H   0  0  0  0  0  0
  -29.2513  -17.2971   23.7147 H   0  0  0  0  0  0
  -30.4685  -18.3768   21.5372 H   0  0  0  0  0  0
  -27.6713  -16.9669   21.0907 H   0  0  0  0  0  0
  -31.0386  -16.7204   22.2051 H   0  0  0  0  0  0
  -23.6072  -18.1847   23.1755 H   0  0  0  0  0  0
  -24.4133  -19.6337   22.5787 H   0  0  0  0  0  0
  -24.8537  -18.9610   24.1460 H   0  0  0  0  0  0
  -26.9174  -19.4315   21.8691 H   0  0  0  0  0  0
  -27.2707  -18.7910   23.4551 H   0  0  0  0  0  0
  -25.3211  -17.6465   21.4243 H   0  0  0  0  0  0
  -25.6932  -16.8602   22.9425 H   0  0  0  0  0  0
  -27.4912  -24.3306   19.2477 H   0  0  0  0  0  0
  -27.0684  -23.7393   20.8162 H   0  0  0  0  0  0
  -29.5146  -25.2853   21.0825 H   0  0  0  0  0  0
  -27.9694  -25.6060   21.8054 H   0  0  0  0  0  0
  -28.8375  -15.2014   20.9835 H   0  0  0  0  0  0
  1 25  1  0  0  0
  1 30  2  0  0  0
  1 86  1  0  0  0
  2  3  1  0  0  0
  2 25  1  0  0  0
  2 88  1  0  0  0
  2 89  1  0  0  0
  3  4  1  0  0  0
  3 90  1  0  0  0
  3 91  1  0  0  0
  4  5  1  0  0  0
  4 92  1  0  0  0
  4 93  1  0  0  0
  5  6  1  0  0  0
  5 26  1  0  0  0
  5 94  1  0  0  0
  6 25  1  0  0  0
  6 95  1  0  0  0
  6 96  1  0  0  0
  7  8  2  0  0  0
  7 26  1  0  0  0
  7 29  1  0  0  0
  8  9  1  0  0  0
  8 22  1  0  0  0
  9 10  1  0  0  0
  9 27  2  0  0  0
 10 11  2  0  0  0
 10 15  1  0  0  0
 11 12  1  0  0  0
 11 97  1  0  0  0
 12 13  2  0  0  0
 12 98  1  0  0  0
 13 14  1  0  0  0
 13 31  1  0  0  0
 14 15  2  0  0  0
 14 99  1  0  0  0
 15100  1  0  0  0
 16 17  2  0  0  0
 16 21  1  0  0  0
 16 31  1  0  0  0
 17 18  1  0  0  0
 17101  1  0  0  0
 18 19  2  0  0  0
 18102  1  0  0  0
 19 20  1  0  0  0
 19 24  1  0  0  0
 20 21  2  0  0  0
 20103  1  0  0  0
 21 23  1  0  0  0
 22 28  1  0  0  0
 22 32  2  0  0  0
 26 27  1  0  0  0
 28104  1  0  0  0
 28105  1  0  0  0
 29106  1  0  0  0
 29107  1  0  0  0
 33 34  1  0  0  0
 33 66  1  0  0  0
 33 70  2  0  0  0
 34 36  1  0  0  0
 34 59  1  0  0  0
 34108  1  0  0  0
 35 44  2  0  0  0
 35 45  1  0  0  0
 35 68  1  0  0  0
 36 56  1  0  0  0
 36109  1  0  0  0
 37 39  1  0  0  0
 37 47  1  0  0  0
 37 66  1  0  0  0
 37110  1  0  0  0
 38 43  2  0  0  0
 38 46  1  0  0  0
 38 47  1  0  0  0
 39 64  1  0  0  0
 39 67  2  0  0  0
 40 52  1  0  0  0
 40 53  2  0  0  0
 40 58  1  0  0  0
 41111  1  0  0  0
 41112  1  0  0  0
 41113  1  0  0  0
 41 48  1  0  0  0
 42 43  1  0  0  0
 42 66  1  0  0  0
 42114  1  0  0  0
 42115  1  0  0  0
 43 44  1  0  0  0
 44116  1  0  0  0
 45 46  2  0  0  0
 45117  1  0  0  0
 46118  1  0  0  0
 47119  1  0  0  0
 47120  1  0  0  0
 48 56  1  0  0  0
 48 65  1  0  0  0
 48121  1  0  0  0
 49 50  1  0  0  0
 49 53  1  0  0  0
 49 64  1  0  0  0
 49122  1  0  0  0
 50 51  1  0  0  0
 50123  1  0  0  0
 50124  1  0  0  0
 51 52  1  0  0  0
 51125  1  0  0  0
 51126  1  0  0  0
 52127  1  0  0  0
 52128  1  0  0  0
 53 54  1  0  0  0
 54 55  2  0  0  0
 54129  1  0  0  0
 55 57  1  0  0  0
 55130  1  0  0  0
 56 69  2  0  0  0
 57 58  2  0  0  0
 57131  1  0  0  0
 58132  1  0  0  0
 59 60  1  0  0  0
 59 61  1  0  0  0
 59 62  1  0  0  0
 60133  1  0  0  0
 60134  1  0  0  0
 60135  1  0  0  0
 61136  1  0  0  0
 61137  1  0  0  0
 61138  1  0  0  0
 62139  1  0  0  0
 62140  1  0  0  0
 62141  1  0  0  0
 63 65  1  0  0  0
 63142  1  0  0  0
 63143  1  0  0  0
 63144  1  0  0  0
 64145  1  0  0  0
 65146  1  0  0  0
 68 85  1  0  0  0
 71 72  2  0  0  0
 71 73  1  0  0  0
 71147  1  0  0  0
 72 75  1  0  0  0
 72148  1  0  0  0
 73 76  2  0  0  0
 73149  1  0  0  0
 74 75  2  0  0  0
 74 76  1  0  0  0
 74150  1  0  0  0
 75 78  1  0  0  0
 76 87  1  0  0  0
 77 79  1  0  0  0
 77 80  1  0  0  0
 77151  1  0  0  0
 77152  1  0  0  0
 78 79  1  0  0  0
 78 80  1  0  0  0
 78153  1  0  0  0
 79 82  1  0  0  0
 79154  1  0  0  0
 80 86  1  0  0  0
 80155  1  0  0  0
 81 83  1  0  0  0
 81156  1  0  0  0
 81157  1  0  0  0
 81158  1  0  0  0
 82 83  1  0  0  0
 82159  1  0  0  0
 82160  1  0  0  0
 83161  1  0  0  0
 83162  1  0  0  0
 84 85  1  0  0  0
 84 87  1  0  0  0
 84163  1  0  0  0
 84164  1  0  0  0
 85165  1  0  0  0
 85166  1  0  0  0
 86167  1  0  0  0
M  ISO  4   1 100  68 101  85 101  86 100
M  END
> <chiral flag>
0

> <version>
0

> <s_m_source_file>
/data/baiqing/PycharmProjects/Reinvent-master-3.2/result/LINK_invent/BTK/process_docking_weight1_custom_sum_contain_oxygen_bond_distance_aromatic_linkinvent_7_9_3/rearranged_h_0140.sdf

> <i_m_source_file_index>
66

> <r_mmod_Potential_Energy-OPLS-2005>
305.326263427734

> <r_mmod_Stretch_Energy-OPLS-2005>
61.6107597351074

> <r_mmod_Bend_Energy-OPLS-2005>
334.162872314453

> <r_mmod_Torsional_Energy-OPLS-2005>
286.120635986328

> <r_mmod_Improper_Torsional_Energy-OPLS-2005>
5.47960424423218

> <r_mmod_Van_der_Waal_Energy-OPLS-2005>
162.630233764648

> <r_mmod_Electrostatic_Energy-OPLS-2005>
-367.436981201172

> <r_mmod_Solvation_Energy-OPLS-2005>
-200.352569580078

> <b_mmod_Minimization_Converged-OPLS-2005>
0

> <r_mmod_RMS_Derivative-OPLS-2005>
4.16126585006714

$$$$
66
                    3D
 Structure written by MMmdl.
168177  0  0  1  0            999 V2000
  -30.6569  -14.6733   20.4371 C   0  0  0  0  0  0
  -30.4304  -12.4131   19.4468 C   0  0  0  0  0  0
  -29.4948  -12.4904   18.2188 C   0  0  0  0  0  0
  -28.0232  -12.3398   18.6502 C   0  0  0  0  0  0
  -27.6510  -13.2260   19.8697 C   0  0  2  0  0  0
  -28.7104  -13.1483   20.9959 C   0  0  0  0  0  0
  -25.2506  -13.8142   20.5692 C   0  0  0  0  0  0
  -24.1812  -13.0424   20.9239 C   0  0  0  0  0  0
  -24.6412  -11.6900   20.8836 C   0  0  0  0  0  0
  -23.9073  -10.4290   21.0474 C   0  0  0  0  0  0
  -24.3625   -9.4189   21.9232 C   0  0  0  0  0  0
  -23.6316   -8.2217   22.0763 C   0  0  0  0  0  0
  -22.4312   -8.0254   21.3541 C   0  0  0  0  0  0
  -21.9947   -9.0228   20.4650 C   0  0  0  0  0  0
  -22.7257  -10.2113   20.3097 C   0  0  0  0  0  0
  -21.6849   -6.0725   22.5255 C   0  0  0  0  0  0
  -21.4006   -6.5629   23.8181 C   0  0  0  0  0  0
  -21.3669   -5.6795   24.9148 C   0  0  0  0  0  0
  -21.6032   -4.3055   24.7213 C   0  0  0  0  0  0
  -21.8828   -3.8143   23.4337 C   0  0  0  0  0  0
  -21.9201   -4.6951   22.3390 C   0  0  0  0  0  0
  -22.7810  -13.5174   21.1871 C   0  0  0  0  0  0
  -22.1661   -4.2123   21.0969 F   0  0  0  0  0  0
  -21.5638   -3.4564   25.7743 F   0  0  0  0  0  0
  -30.0127  -13.4646   20.3965 N   0  0  0  0  0  0
  -26.2993  -12.9375   20.3457 N   0  0  0  0  0  0
  -25.9356  -11.6518   20.5898 N   0  0  0  0  0  0
  -22.0501  -12.8156   22.0431 N   0  0  0  0  0  0
  -25.4106  -15.1855   20.3879 N   0  0  0  0  0  0
  -31.8451  -14.7662   20.1276 O   0  0  0  0  0  0
  -21.6636   -6.8882   21.4234 O   0  0  0  0  0  0
  -22.3471  -14.5485   20.6697 O   0  0  0  0  0  0
  -24.6234  -31.8624   23.1996 C   0  0  0  0  0  0
  -25.9095  -32.4787   23.8338 C   0  0  1  0  0  0
  -27.2334  -27.3464   20.1427 C   0  0  0  0  0  0
  -25.5919  -33.8583   24.2266 N   0  0  0  0  0  0
  -23.4174  -30.4845   21.5393 C   0  0  2  0  0  0
  -24.8715  -28.9380   20.1128 C   0  0  0  0  0  0
  -22.7423  -29.4666   22.4886 C   0  0  0  0  0  0
  -18.0272  -28.1335   22.8488 C   0  0  0  0  0  0
  -24.1494  -36.7300   23.2638 C   0  0  0  0  0  0
  -25.9538  -30.8037   21.3681 C   0  0  0  0  0  0
  -26.0356  -29.4296   20.7193 C   0  0  0  0  0  0
  -27.2248  -28.6452   20.7295 C   0  0  0  0  0  0
  -26.0571  -26.8934   19.5145 C   0  0  0  0  0  0
  -24.8825  -27.6720   19.5018 C   0  0  0  0  0  0
  -23.6371  -29.8149   20.1557 C   0  0  0  0  0  0
  -25.4120  -36.3089   24.0326 C   0  0  1  0  0  0
  -20.5838  -28.3731   23.1225 C   0  0  2  0  0  0
  -20.6815  -26.9469   22.5253 C   0  0  0  0  0  0
  -19.5742  -26.6373   21.5117 C   0  0  0  0  0  0
  -18.1907  -26.7921   22.1538 C   0  0  0  0  0  0
  -19.1487  -28.8845   23.2864 C   0  0  0  0  0  0
  -18.9372  -30.1466   23.8856 C   0  0  0  0  0  0
  -17.6344  -30.6569   24.0490 C   0  0  0  0  0  0
  -25.9061  -34.9460   23.5093 C   0  0  0  0  0  0
  -16.5280  -29.9002   23.6277 C   0  0  0  0  0  0
  -16.7244  -28.6402   23.0368 C   0  0  0  0  0  0
  -26.4503  -31.6582   25.0680 C   0  0  0  0  0  0
  -25.3717  -31.3723   26.1370 C   0  0  0  0  0  0
  -27.0348  -30.3011   24.6116 C   0  0  0  0  0  0
  -27.6069  -32.4312   25.7452 C   0  0  0  0  0  0
  -27.5577  -37.1803   24.8473 C   0  0  0  0  0  0
  -21.4124  -29.3167   22.3706 N   0  0  0  0  0  0
  -26.4290  -37.3779   23.9417 N   0  0  0  0  0  0
  -24.6822  -31.0659   22.0954 N   0  0  0  0  0  0
  -23.4155  -28.8127   23.2888 O   0  0  0  0  0  0
  -28.3302  -26.4879   20.1609 O   0  0  0  0  0  0
  -26.5627  -34.8940   22.4672 O   0  0  0  0  0  0
  -23.5403  -32.1401   23.7360 O   0  0  0  0  0  0
  -29.6952  -23.2325   21.3766 C   0  0  0  0  0  0
  -27.9476  -23.1576   19.7431 C   0  0  0  0  0  0
  -28.6572  -23.9207   20.6982 C   0  0  0  0  0  0
  -30.0181  -21.8672   21.1078 C   0  0  0  0  0  0
  -28.2631  -21.7907   19.4555 C   0  0  0  0  0  0
  -29.2973  -21.0855   20.1585 C   0  0  0  0  0  0
  -27.9106  -18.0801   19.5442 C   0  0  0  0  0  0
  -28.1423  -17.6250   18.0772 C   0  0  0  0  0  0
  -30.5319  -17.1024   18.4571 C   0  0  0  0  0  0
  -29.2258  -18.4178   20.2784 C   0  0  1  0  0  0
  -30.2374  -17.1897   19.9898 C   0  0  1  0  0  0
  -31.2112  -21.2630   21.8260 C   0  0  0  0  0  0
  -27.4962  -21.1700   18.3050 C   0  0  0  0  0  0
  -28.2248  -25.3737   21.1115 C   0  0  0  0  0  0
  -29.7779  -19.7583   19.8479 N   0  0  0  0  0  0
  -29.8823  -15.8082   20.5068 N   0  0  0  0  0  0
  -29.5424  -17.8553   17.6533 N   0  3  0  0  0  0
  -31.4701  -12.5288   19.1245 H   0  0  0  0  0  0
  -30.3741  -11.4328   19.9205 H   0  0  0  0  0  0
  -29.7512  -11.7082   17.5005 H   0  0  0  0  0  0
  -29.6305  -13.4398   17.6968 H   0  0  0  0  0  0
  -27.8652  -11.2892   18.8995 H   0  0  0  0  0  0
  -27.3572  -12.5624   17.8134 H   0  0  0  0  0  0
  -27.6511  -14.2518   19.5022 H   0  0  0  0  0  0
  -28.7393  -12.1558   21.4538 H   0  0  0  0  0  0
  -28.4752  -13.8543   21.7972 H   0  0  0  0  0  0
  -25.2778   -9.5631   22.4799 H   0  0  0  0  0  0
  -24.0004   -7.4606   22.7474 H   0  0  0  0  0  0
  -21.0894   -8.8733   19.8972 H   0  0  0  0  0  0
  -22.3730  -10.9636   19.6195 H   0  0  0  0  0  0
  -21.1966   -7.6135   23.9653 H   0  0  0  0  0  0
  -21.1503   -6.0549   25.9042 H   0  0  0  0  0  0
  -22.0624   -2.7606   23.2843 H   0  0  0  0  0  0
  -22.4188  -11.9829   22.4818 H   0  0  0  0  0  0
  -21.1083  -13.1073   22.2640 H   0  0  0  0  0  0
  -24.6101  -15.8082   20.4171 H   0  0  0  0  0  0
  -26.2104  -15.5897   19.9234 H   0  0  0  0  0  0
  -26.7166  -32.5514   23.1093 H   0  0  0  0  0  0
  -25.0021  -33.9732   25.0372 H   0  0  0  0  0  0
  -22.7108  -31.3042   21.3919 H   0  0  0  0  0  0
  -23.3745  -35.9642   23.3317 H   0  0  0  0  0  0
  -24.3579  -36.8899   22.2048 H   0  0  0  0  0  0
  -23.7261  -37.6513   23.6655 H   0  0  0  0  0  0
  -26.0750  -31.5637   20.5957 H   0  0  0  0  0  0
  -26.8367  -30.8631   21.9937 H   0  0  0  0  0  0
  -28.1185  -29.0129   21.2151 H   0  0  0  0  0  0
  -26.0494  -25.9163   19.0511 H   0  0  0  0  0  0
  -23.9924  -27.2848   19.0256 H   0  0  0  0  0  0
  -23.7623  -30.5881   19.3960 H   0  0  0  0  0  0
  -22.7593  -29.2409   19.8526 H   0  0  0  0  0  0
  -25.1307  -36.1915   25.0809 H   0  0  0  0  0  0
  -20.9900  -28.3250   24.1355 H   0  0  0  0  0  0
  -20.5916  -26.2264   23.3400 H   0  0  0  0  0  0
  -21.6670  -26.7659   22.0929 H   0  0  0  0  0  0
  -19.6909  -25.6275   21.1133 H   0  0  0  0  0  0
  -19.6695  -27.3159   20.6650 H   0  0  0  0  0  0
  -18.0189  -25.9919   22.8785 H   0  0  0  0  0  0
  -17.4185  -26.6837   21.3912 H   0  0  0  0  0  0
  -19.7815  -30.7351   24.2206 H   0  0  0  0  0  0
  -17.4800  -31.6271   24.4977 H   0  0  0  0  0  0
  -15.5247  -30.2862   23.7474 H   0  0  0  0  0  0
  -15.8679  -28.0681   22.7037 H   0  0  0  0  0  0
  -24.5880  -30.7108   25.7652 H   0  0  0  0  0  0
  -24.8918  -32.2897   26.4801 H   0  0  0  0  0  0
  -25.7993  -30.8856   27.0135 H   0  0  0  0  0  0
  -26.2931  -29.6720   24.1174 H   0  0  0  0  0  0
  -27.4089  -29.7303   25.4627 H   0  0  0  0  0  0
  -27.8780  -30.4301   23.9321 H   0  0  0  0  0  0
  -27.2699  -33.3601   26.2064 H   0  0  0  0  0  0
  -28.3870  -32.6871   25.0270 H   0  0  0  0  0  0
  -28.0748  -31.8394   26.5318 H   0  0  0  0  0  0
  -28.2597  -38.0085   24.7490 H   0  0  0  0  0  0
  -28.1054  -36.2617   24.6338 H   0  0  0  0  0  0
  -27.2290  -37.1511   25.8866 H   0  0  0  0  0  0
  -20.9301  -29.9102   21.7088 H   0  0  0  0  0  0
  -26.0167  -38.2850   24.1409 H   0  0  0  0  0  0
  -30.2570  -23.7649   22.1332 H   0  0  0  0  0  0
  -27.1363  -23.6384   19.2146 H   0  0  0  0  0  0
  -27.3964  -17.2757   20.0698 H   0  0  0  0  0  0
  -27.2094  -18.9094   19.6037 H   0  0  0  0  0  0
  -27.4726  -18.1467   17.3973 H   0  0  0  0  0  0
  -27.9168  -16.5653   17.9699 H   0  0  0  0  0  0
  -30.5862  -16.0761   18.0892 H   0  0  0  0  0  0
  -31.5084  -17.5472   18.2529 H   0  0  0  0  0  0
  -29.0346  -18.4869   21.3497 H   0  0  0  0  0  0
  -31.1816  -17.4260   20.4854 H   0  0  0  0  0  0
  -30.9123  -20.3808   22.3903 H   0  0  0  0  0  0
  -31.9665  -20.9752   21.0948 H   0  0  0  0  0  0
  -31.6779  -21.9648   22.5168 H   0  0  0  0  0  0
  -26.5462  -20.7511   18.6373 H   0  0  0  0  0  0
  -28.0860  -20.4054   17.8107 H   0  0  0  0  0  0
  -27.2675  -21.9176   17.5438 H   0  0  0  0  0  0
  -28.8286  -25.6597   21.9731 H   0  0  0  0  0  0
  -27.2062  -25.2948   21.5052 H   0  0  0  0  0  0
  -30.7601  -19.7564   20.1035 H   0  0  0  0  0  0
  -28.9238  -15.6669   20.7835 H   0  0  0  0  0  0
  -29.7276  -18.8346   17.8222 H   0  0  0  0  0  0
  -29.6535  -17.6647   16.6688 H   0  0  0  0  0  0
  1 25  1  0  0  0
  1 30  2  0  0  0
  1 86  1  0  0  0
  2  3  1  0  0  0
  2 25  1  0  0  0
  2 88  1  0  0  0
  2 89  1  0  0  0
  3  4  1  0  0  0
  3 90  1  0  0  0
  3 91  1  0  0  0
  4  5  1  0  0  0
  4 92  1  0  0  0
  4 93  1  0  0  0
  5  6  1  0  0  0
  5 26  1  0  0  0
  5 94  1  0  0  0
  6 25  1  0  0  0
  6 95  1  0  0  0
  6 96  1  0  0  0
  7  8  2  0  0  0
  7 26  1  0  0  0
  7 29  1  0  0  0
  8  9  1  0  0  0
  8 22  1  0  0  0
  9 10  1  0  0  0
  9 27  2  0  0  0
 10 11  2  0  0  0
 10 15  1  0  0  0
 11 12  1  0  0  0
 11 97  1  0  0  0
 12 13  2  0  0  0
 12 98  1  0  0  0
 13 14  1  0  0  0
 13 31  1  0  0  0
 14 15  2  0  0  0
 14 99  1  0  0  0
 15100  1  0  0  0
 16 17  2  0  0  0
 16 21  1  0  0  0
 16 31  1  0  0  0
 17 18  1  0  0  0
 17101  1  0  0  0
 18 19  2  0  0  0
 18102  1  0  0  0
 19 20  1  0  0  0
 19 24  1  0  0  0
 20 21  2  0  0  0
 20103  1  0  0  0
 21 23  1  0  0  0
 22 28  1  0  0  0
 22 32  2  0  0  0
 26 27  1  0  0  0
 28104  1  0  0  0
 28105  1  0  0  0
 29106  1  0  0  0
 29107  1  0  0  0
 33 34  1  0  0  0
 33 66  1  0  0  0
 33 70  2  0  0  0
 34 36  1  0  0  0
 34 59  1  0  0  0
 34108  1  0  0  0
 35 44  2  0  0  0
 35 45  1  0  0  0
 35 68  1  0  0  0
 36 56  1  0  0  0
 36109  1  0  0  0
 37 39  1  0  0  0
 37 47  1  0  0  0
 37 66  1  0  0  0
 37110  1  0  0  0
 38 43  2  0  0  0
 38 46  1  0  0  0
 38 47  1  0  0  0
 39 64  1  0  0  0
 39 67  2  0  0  0
 40 52  1  0  0  0
 40 53  2  0  0  0
 40 58  1  0  0  0
 41111  1  0  0  0
 41112  1  0  0  0
 41113  1  0  0  0
 41 48  1  0  0  0
 42 43  1  0  0  0
 42 66  1  0  0  0
 42114  1  0  0  0
 42115  1  0  0  0
 43 44  1  0  0  0
 44116  1  0  0  0
 45 46  2  0  0  0
 45117  1  0  0  0
 46118  1  0  0  0
 47119  1  0  0  0
 47120  1  0  0  0
 48 56  1  0  0  0
 48 65  1  0  0  0
 48121  1  0  0  0
 49 50  1  0  0  0
 49 53  1  0  0  0
 49 64  1  0  0  0
 49122  1  0  0  0
 50 51  1  0  0  0
 50123  1  0  0  0
 50124  1  0  0  0
 51 52  1  0  0  0
 51125  1  0  0  0
 51126  1  0  0  0
 52127  1  0  0  0
 52128  1  0  0  0
 53 54  1  0  0  0
 54 55  2  0  0  0
 54129  1  0  0  0
 55 57  1  0  0  0
 55130  1  0  0  0
 56 69  2  0  0  0
 57 58  2  0  0  0
 57131  1  0  0  0
 58132  1  0  0  0
 59 60  1  0  0  0
 59 61  1  0  0  0
 59 62  1  0  0  0
 60133  1  0  0  0
 60134  1  0  0  0
 60135  1  0  0  0
 61136  1  0  0  0
 61137  1  0  0  0
 61138  1  0  0  0
 62139  1  0  0  0
 62140  1  0  0  0
 62141  1  0  0  0
 63 65  1  0  0  0
 63142  1  0  0  0
 63143  1  0  0  0
 63144  1  0  0  0
 64145  1  0  0  0
 65146  1  0  0  0
 68 84  1  0  0  0
 71 73  2  0  0  0
 71 74  1  0  0  0
 71147  1  0  0  0
 72 73  1  0  0  0
 72 75  2  0  0  0
 72148  1  0  0  0
 73 84  1  0  0  0
 74 76  2  0  0  0
 74 82  1  0  0  0
 75 76  1  0  0  0
 75 83  1  0  0  0
 76 85  1  0  0  0
 77 78  1  0  0  0
 77 80  1  0  0  0
 77149  1  0  0  0
 77150  1  0  0  0
 78 87  1  0  0  0
 78151  1  0  0  0
 78152  1  0  0  0
 79 81  1  0  0  0
 79 87  1  0  0  0
 79153  1  0  0  0
 79154  1  0  0  0
 80 81  1  0  0  0
 80 85  1  0  0  0
 80155  1  0  0  0
 81 86  1  0  0  0
 81156  1  0  0  0
 82157  1  0  0  0
 82158  1  0  0  0
 82159  1  0  0  0
 83160  1  0  0  0
 83161  1  0  0  0
 83162  1  0  0  0
 84163  1  0  0  0
 84164  1  0  0  0
 85165  1  0  0  0
 86166  1  0  0  0
 87167  1  0  0  0
 87168  1  0  0  0
M  CHG  1  87   1
M  ISO  4   1 100  68 101  84 101  86 100
M  END
> <chiral flag>
0

> <version>
0

> <s_m_source_file>
/data/baiqing/PycharmProjects/Reinvent-master-3.2/result/LINK_invent/BTK/process_docking_weight1_custom_sum_contain_oxygen_bond_distance_aromatic_linkinvent_7_9_3/rearranged_h_0140.sdf

> <i_m_source_file_index>
67

> <r_mmod_Potential_Energy-OPLS-2005>
-98.8519973754883

> <r_mmod_Stretch_Energy-OPLS-2005>
86.229621887207

> <r_mmod_Bend_Energy-OPLS-2005>
154.389129638672

> <r_mmod_Torsional_Energy-OPLS-2005>
358.507995605469

> <r_mmod_Improper_Torsional_Energy-OPLS-2005>
16.622989654541

> <r_mmod_Van_der_Waal_Energy-OPLS-2005>
151.351715087891

> <r_mmod_Electrostatic_Energy-OPLS-2005>
-468.48974609375

> <r_mmod_Solvation_Energy-OPLS-2005>
-451.527587890625

> <b_mmod_Minimization_Converged-OPLS-2005>
0

> <r_mmod_RMS_Derivative-OPLS-2005>
5.382652759552

$$$$
67
                    3D
 Structure written by MMmdl.
165174  0  0  1  0            999 V2000
  -30.6545  -14.6055   20.5215 C   0  0  0  0  0  0
  -30.4260  -12.3738   19.4508 C   0  0  0  0  0  0
  -29.5018  -12.5060   18.2207 C   0  0  0  0  0  0
  -28.0250  -12.3470   18.6321 C   0  0  0  0  0  0
  -27.6530  -13.2155   19.8631 C   0  0  2  0  0  0
  -28.6951  -13.0605   20.9907 C   0  0  0  0  0  0
  -25.2573  -13.8175   20.5668 C   0  0  0  0  0  0
  -24.1834  -13.0443   20.9170 C   0  0  0  0  0  0
  -24.6395  -11.6910   20.8730 C   0  0  0  0  0  0
  -23.9057  -10.4302   21.0404 C   0  0  0  0  0  0
  -24.3614   -9.4218   21.9178 C   0  0  0  0  0  0
  -23.6293   -8.2245   22.0752 C   0  0  0  0  0  0
  -22.4274   -8.0276   21.3547 C   0  0  0  0  0  0
  -21.9905   -9.0255   20.4643 C   0  0  0  0  0  0
  -22.7232  -10.2137   20.3054 C   0  0  0  0  0  0
  -21.6855   -6.0734   22.5279 C   0  0  0  0  0  0
  -21.4014   -6.5635   23.8209 C   0  0  0  0  0  0
  -21.3660   -5.6794   24.9170 C   0  0  0  0  0  0
  -21.6045   -4.3058   24.7226 C   0  0  0  0  0  0
  -21.8818   -3.8145   23.4348 C   0  0  0  0  0  0
  -21.9192   -4.6960   22.3405 C   0  0  0  0  0  0
  -22.7856  -13.5237   21.1849 C   0  0  0  0  0  0
  -22.1662   -4.2143   21.0982 F   0  0  0  0  0  0
  -21.5633   -3.4541   25.7740 F   0  0  0  0  0  0
  -30.0108  -13.3971   20.4310 N   0  0  0  0  0  0
  -26.2995  -12.9348   20.3324 N   0  0  0  0  0  0
  -25.9324  -11.6512   20.5754 N   0  0  0  0  0  0
  -22.0507  -12.8226   22.0406 N   0  0  0  0  0  0
  -25.4314  -15.1886   20.4079 N   0  0  0  0  0  0
  -31.8010  -14.7421   20.0802 O   0  0  0  0  0  0
  -21.6639   -6.8879   21.4242 O   0  0  0  0  0  0
  -22.3537  -14.5546   20.6698 O   0  0  0  0  0  0
  -24.6255  -31.8615   23.2022 C   0  0  0  0  0  0
  -25.9114  -32.4771   23.8335 C   0  0  1  0  0  0
  -27.2204  -27.3345   20.1048 C   0  0  0  0  0  0
  -25.5938  -33.8575   24.2267 N   0  0  0  0  0  0
  -23.4171  -30.4841   21.5469 C   0  0  2  0  0  0
  -24.8624  -28.9444   20.1112 C   0  0  0  0  0  0
  -22.7471  -29.4617   22.4947 C   0  0  0  0  0  0
  -18.0267  -28.1385   22.8461 C   0  0  0  0  0  0
  -24.1494  -36.7290   23.2641 C   0  0  0  0  0  0
  -25.9576  -30.7961   21.3730 C   0  0  0  0  0  0
  -26.0321  -29.4265   20.7113 C   0  0  0  0  0  0
  -27.2163  -28.6334   20.6991 C   0  0  0  0  0  0
  -26.0249  -26.8990   19.4897 C   0  0  0  0  0  0
  -24.8589  -27.6849   19.4959 C   0  0  0  0  0  0
  -23.6322  -29.8255   20.1607 C   0  0  0  0  0  0
  -25.4117  -36.3073   24.0327 C   0  0  1  0  0  0
  -20.5865  -28.3683   23.1277 C   0  0  2  0  0  0
  -20.6769  -26.9406   22.5411 C   0  0  0  0  0  0
  -19.5755  -26.6382   21.5207 C   0  0  0  0  0  0
  -18.1917  -26.7915   22.1611 C   0  0  0  0  0  0
  -19.1526  -28.8848   23.2855 C   0  0  0  0  0  0
  -18.9465  -30.1449   23.8868 C   0  0  0  0  0  0
  -17.6473  -30.6589   24.0551 C   0  0  0  0  0  0
  -25.9070  -34.9450   23.5102 C   0  0  0  0  0  0
  -16.5355  -29.9097   23.6326 C   0  0  0  0  0  0
  -16.7257  -28.6523   23.0329 C   0  0  0  0  0  0
  -26.4496  -31.6583   25.0705 C   0  0  0  0  0  0
  -25.3733  -31.3749   26.1445 C   0  0  0  0  0  0
  -27.0326  -30.2995   24.6156 C   0  0  0  0  0  0
  -27.6037  -32.4341   25.7493 C   0  0  0  0  0  0
  -27.5580  -37.1792   24.8456 C   0  0  0  0  0  0
  -21.4182  -29.3041   22.3690 N   0  0  0  0  0  0
  -26.4283  -37.3774   23.9426 N   0  0  0  0  0  0
  -24.6847  -31.0631   22.0981 N   0  0  0  0  0  0
  -23.4203  -28.8156   23.3018 O   0  0  0  0  0  0
  -28.3443  -26.4994   20.1406 O   0  0  0  0  0  0
  -26.5626  -34.8927   22.4661 O   0  0  0  0  0  0
  -23.5430  -32.1427   23.7347 O   0  0  0  0  0  0
  -28.0853  -21.8742   20.9212 C   0  0  0  0  0  0
  -30.2989  -21.7247   20.0113 C   0  0  0  0  0  0
  -29.1720  -19.6237   20.7162 C   0  0  0  0  0  0
  -29.2089  -22.5482   20.3949 C   0  0  0  0  0  0
  -28.0567  -20.4546   21.0741 C   0  0  0  0  0  0
  -30.3115  -20.3006   20.1924 C   0  0  0  0  0  0
  -29.7306  -17.6472   22.3400 C   0  0  0  0  0  0
  -29.7857  -16.1051   22.2803 C   0  0  0  0  0  0
  -29.1370  -18.0614   21.0009 C   0  0  2  0  0  0
  -29.7887  -16.9735   20.0703 C   0  0  1  0  0  0
  -26.8039  -19.8584   21.6979 C   0  0  0  0  0  0
  -32.6558  -20.1922   19.6282 C   0  0  0  0  0  0
  -29.3517  -24.1143   20.3669 C   0  0  0  0  0  0
  -28.1273  -25.0433   20.0165 C   0  0  0  0  0  0
  -29.9045  -15.7070   20.8683 N   0  0  0  0  0  0
  -28.9989  -16.7866   18.9073 O   0  0  0  0  0  0
  -31.4255  -19.5358   19.9206 O   0  0  0  0  0  0
  -31.4703  -12.4755   19.1523 H   0  0  0  0  0  0
  -30.3398  -11.3772   19.8877 H   0  0  0  0  0  0
  -29.7635  -11.7611   17.4677 H   0  0  0  0  0  0
  -29.6460  -13.4805   17.7513 H   0  0  0  0  0  0
  -27.8613  -11.2936   18.8615 H   0  0  0  0  0  0
  -27.3686  -12.5798   17.7928 H   0  0  0  0  0  0
  -27.6774  -14.2523   19.5300 H   0  0  0  0  0  0
  -28.6998  -12.0381   21.3705 H   0  0  0  0  0  0
  -28.4379  -13.6848   21.8431 H   0  0  0  0  0  0
  -25.2761   -9.5688   22.4749 H   0  0  0  0  0  0
  -24.0002   -7.4637   22.7474 H   0  0  0  0  0  0
  -21.0832   -8.8764   19.8955 H   0  0  0  0  0  0
  -22.3681  -10.9669   19.6160 H   0  0  0  0  0  0
  -21.2001   -7.6141   23.9708 H   0  0  0  0  0  0
  -21.1489   -6.0524   25.9073 H   0  0  0  0  0  0
  -22.0598   -2.7606   23.2848 H   0  0  0  0  0  0
  -22.4143  -11.9891   22.4783 H   0  0  0  0  0  0
  -21.1126  -13.1260   22.2638 H   0  0  0  0  0  0
  -24.6659  -15.8473   20.4962 H   0  0  0  0  0  0
  -26.2911  -15.6168   20.0823 H   0  0  0  0  0  0
  -26.7188  -32.5436   23.1090 H   0  0  0  0  0  0
  -25.0041  -33.9709   25.0382 H   0  0  0  0  0  0
  -22.7102  -31.3040   21.4050 H   0  0  0  0  0  0
  -23.3747  -35.9629   23.3288 H   0  0  0  0  0  0
  -24.3583  -36.8928   22.2060 H   0  0  0  0  0  0
  -23.7284  -37.6499   23.6673 H   0  0  0  0  0  0
  -26.0941  -31.5611   20.6071 H   0  0  0  0  0  0
  -26.8377  -30.8381   22.0028 H   0  0  0  0  0  0
  -28.1144  -28.9992   21.1777 H   0  0  0  0  0  0
  -25.9562  -25.9350   19.0047 H   0  0  0  0  0  0
  -23.9611  -27.3044   19.0286 H   0  0  0  0  0  0
  -23.7578  -30.6073   19.4109 H   0  0  0  0  0  0
  -22.7508  -29.2615   19.8508 H   0  0  0  0  0  0
  -25.1292  -36.1894   25.0814 H   0  0  0  0  0  0
  -20.9919  -28.3259   24.1417 H   0  0  0  0  0  0
  -20.5673  -26.2286   23.3603 H   0  0  0  0  0  0
  -21.6632  -26.7451   22.1205 H   0  0  0  0  0  0
  -19.6929  -25.6298   21.1232 H   0  0  0  0  0  0
  -19.6708  -27.3186   20.6722 H   0  0  0  0  0  0
  -17.4196  -26.6624   21.4015 H   0  0  0  0  0  0
  -18.0331  -26.0064   22.9019 H   0  0  0  0  0  0
  -19.7959  -30.7239   24.2234 H   0  0  0  0  0  0
  -17.5058  -31.6265   24.5167 H   0  0  0  0  0  0
  -15.5368  -30.3012   23.7685 H   0  0  0  0  0  0
  -15.8638  -28.0868   22.7042 H   0  0  0  0  0  0
  -24.5872  -30.7118   25.7817 H   0  0  0  0  0  0
  -24.8955  -32.2927   26.4871 H   0  0  0  0  0  0
  -25.8058  -30.8944   27.0229 H   0  0  0  0  0  0
  -26.2883  -29.6759   24.1173 H   0  0  0  0  0  0
  -27.4022  -29.7231   25.4651 H   0  0  0  0  0  0
  -27.8756  -30.4274   23.9361 H   0  0  0  0  0  0
  -27.2583  -33.3629   26.2057 H   0  0  0  0  0  0
  -28.3835  -32.6951   25.0324 H   0  0  0  0  0  0
  -28.0700  -31.8485   26.5431 H   0  0  0  0  0  0
  -28.2561  -38.0123   24.7516 H   0  0  0  0  0  0
  -28.1105  -36.2648   24.6230 H   0  0  0  0  0  0
  -27.2284  -37.1363   25.8854 H   0  0  0  0  0  0
  -20.9354  -29.8806   21.6941 H   0  0  0  0  0  0
  -26.0137  -38.2831   24.1460 H   0  0  0  0  0  0
  -27.2393  -22.4614   21.2533 H   0  0  0  0  0  0
  -31.1644  -22.2297   19.6103 H   0  0  0  0  0  0
  -30.7401  -18.0518   22.4353 H   0  0  0  0  0  0
  -29.1498  -18.0088   23.1883 H   0  0  0  0  0  0
  -28.8603  -15.6925   22.6843 H   0  0  0  0  0  0
  -30.6062  -15.7195   22.8890 H   0  0  0  0  0  0
  -28.0885  -17.7714   21.0435 H   0  0  0  0  0  0
  -30.7970  -17.2512   19.7671 H   0  0  0  0  0  0
  -26.0694  -20.6254   21.9500 H   0  0  0  0  0  0
  -27.0456  -19.3278   22.6191 H   0  0  0  0  0  0
  -26.3205  -19.1654   21.0105 H   0  0  0  0  0  0
  -33.4750  -19.4801   19.7274 H   0  0  0  0  0  0
  -32.8751  -21.0124   20.3147 H   0  0  0  0  0  0
  -32.6606  -20.5737   18.6057 H   0  0  0  0  0  0
  -30.1563  -24.3598   19.6742 H   0  0  0  0  0  0
  -29.7223  -24.4081   21.3493 H   0  0  0  0  0  0
  -27.8255  -24.8164   18.9921 H   0  0  0  0  0  0
  -27.2966  -24.7660   20.6661 H   0  0  0  0  0  0
  -29.0728  -17.5812   18.3858 H   0  0  0  0  0  0
  1 25  1  0  0  0
  1 30  2  0  0  0
  1 85  1  0  0  0
  2  3  1  0  0  0
  2 25  1  0  0  0
  2 88  1  0  0  0
  2 89  1  0  0  0
  3  4  1  0  0  0
  3 90  1  0  0  0
  3 91  1  0  0  0
  4  5  1  0  0  0
  4 92  1  0  0  0
  4 93  1  0  0  0
  5  6  1  0  0  0
  5 26  1  0  0  0
  5 94  1  0  0  0
  6 25  1  0  0  0
  6 95  1  0  0  0
  6 96  1  0  0  0
  7  8  2  0  0  0
  7 26  1  0  0  0
  7 29  1  0  0  0
  8  9  1  0  0  0
  8 22  1  0  0  0
  9 10  1  0  0  0
  9 27  2  0  0  0
 10 11  2  0  0  0
 10 15  1  0  0  0
 11 12  1  0  0  0
 11 97  1  0  0  0
 12 13  2  0  0  0
 12 98  1  0  0  0
 13 14  1  0  0  0
 13 31  1  0  0  0
 14 15  2  0  0  0
 14 99  1  0  0  0
 15100  1  0  0  0
 16 17  2  0  0  0
 16 21  1  0  0  0
 16 31  1  0  0  0
 17 18  1  0  0  0
 17101  1  0  0  0
 18 19  2  0  0  0
 18102  1  0  0  0
 19 20  1  0  0  0
 19 24  1  0  0  0
 20 21  2  0  0  0
 20103  1  0  0  0
 21 23  1  0  0  0
 22 28  1  0  0  0
 22 32  2  0  0  0
 26 27  1  0  0  0
 28104  1  0  0  0
 28105  1  0  0  0
 29106  1  0  0  0
 29107  1  0  0  0
 33 34  1  0  0  0
 33 66  1  0  0  0
 33 70  2  0  0  0
 34 36  1  0  0  0
 34 59  1  0  0  0
 34108  1  0  0  0
 35 44  2  0  0  0
 35 45  1  0  0  0
 35 68  1  0  0  0
 36 56  1  0  0  0
 36109  1  0  0  0
 37 39  1  0  0  0
 37 47  1  0  0  0
 37 66  1  0  0  0
 37110  1  0  0  0
 38 43  2  0  0  0
 38 46  1  0  0  0
 38 47  1  0  0  0
 39 64  1  0  0  0
 39 67  2  0  0  0
 40 52  1  0  0  0
 40 53  2  0  0  0
 40 58  1  0  0  0
 41111  1  0  0  0
 41112  1  0  0  0
 41113  1  0  0  0
 41 48  1  0  0  0
 42 43  1  0  0  0
 42 66  1  0  0  0
 42114  1  0  0  0
 42115  1  0  0  0
 43 44  1  0  0  0
 44116  1  0  0  0
 45 46  2  0  0  0
 45117  1  0  0  0
 46118  1  0  0  0
 47119  1  0  0  0
 47120  1  0  0  0
 48 56  1  0  0  0
 48 65  1  0  0  0
 48121  1  0  0  0
 49 50  1  0  0  0
 49 53  1  0  0  0
 49 64  1  0  0  0
 49122  1  0  0  0
 50 51  1  0  0  0
 50123  1  0  0  0
 50124  1  0  0  0
 51 52  1  0  0  0
 51125  1  0  0  0
 51126  1  0  0  0
 52127  1  0  0  0
 52128  1  0  0  0
 53 54  1  0  0  0
 54 55  2  0  0  0
 54129  1  0  0  0
 55 57  1  0  0  0
 55130  1  0  0  0
 56 69  2  0  0  0
 57 58  2  0  0  0
 57131  1  0  0  0
 58132  1  0  0  0
 59 60  1  0  0  0
 59 61  1  0  0  0
 59 62  1  0  0  0
 60133  1  0  0  0
 60134  1  0  0  0
 60135  1  0  0  0
 61136  1  0  0  0
 61137  1  0  0  0
 61138  1  0  0  0
 62139  1  0  0  0
 62140  1  0  0  0
 62141  1  0  0  0
 63 65  1  0  0  0
 63142  1  0  0  0
 63143  1  0  0  0
 63144  1  0  0  0
 64145  1  0  0  0
 65146  1  0  0  0
 68 84  1  0  0  0
 71 74  2  0  0  0
 71 75  1  0  0  0
 71147  1  0  0  0
 72 74  1  0  0  0
 72 76  2  0  0  0
 72148  1  0  0  0
 73 75  2  0  0  0
 73 76  1  0  0  0
 73 79  1  0  0  0
 74 83  1  0  0  0
 75 81  1  0  0  0
 76 87  1  0  0  0
 77 78  1  0  0  0
 77 79  1  0  0  0
 77149  1  0  0  0
 77150  1  0  0  0
 78 85  1  0  0  0
 78151  1  0  0  0
 78152  1  0  0  0
 79 80  1  0  0  0
 79153  1  0  0  0
 80 85  1  0  0  0
 80 86  1  0  0  0
 80154  1  0  0  0
 81155  1  0  0  0
 81156  1  0  0  0
 81157  1  0  0  0
 82 87  1  0  0  0
 82158  1  0  0  0
 82159  1  0  0  0
 82160  1  0  0  0
 83 84  1  0  0  0
 83161  1  0  0  0
 83162  1  0  0  0
 84163  1  0  0  0
 84164  1  0  0  0
 86165  1  0  0  0
M  ISO  4   1 100  68 101  84 101  85 100
M  END
> <chiral flag>
0

> <version>
0

> <s_m_source_file>
/data/baiqing/PycharmProjects/Reinvent-master-3.2/result/LINK_invent/BTK/process_docking_weight1_custom_sum_contain_oxygen_bond_distance_aromatic_linkinvent_7_9_3/rearranged_h_0140.sdf

> <i_m_source_file_index>
68

> <r_mmod_Potential_Energy-OPLS-2005>
239.310668945312

> <r_mmod_Stretch_Energy-OPLS-2005>
78.6450347900391

> <r_mmod_Bend_Energy-OPLS-2005>
165.604644775391

> <r_mmod_Torsional_Energy-OPLS-2005>
286.789947509766

> <r_mmod_Improper_Torsional_Energy-OPLS-2005>
9.80122661590576

> <r_mmod_Van_der_Waal_Energy-OPLS-2005>
146.227340698242

> <r_mmod_Electrostatic_Energy-OPLS-2005>
-283.222839355469

> <r_mmod_Solvation_Energy-OPLS-2005>
-203.531356811523

> <b_mmod_Minimization_Converged-OPLS-2005>
0

> <r_mmod_RMS_Derivative-OPLS-2005>
2.39239406585693

$$$$
68
                    3D
 Structure written by MMmdl.
162170  0  0  1  0            999 V2000
  -30.5781  -14.7195   20.5202 C   0  0  0  0  0  0
  -30.4552  -12.4518   19.4590 C   0  0  0  0  0  0
  -29.5153  -12.5404   18.2331 C   0  0  0  0  0  0
  -28.0409  -12.3589   18.6467 C   0  0  0  0  0  0
  -27.6610  -13.2156   19.8836 C   0  0  2  0  0  0
  -28.7113  -13.0611   21.0055 C   0  0  0  0  0  0
  -25.2686  -13.8316   20.6042 C   0  0  0  0  0  0
  -24.1882  -13.0465   20.9283 C   0  0  0  0  0  0
  -24.6413  -11.6937   20.8742 C   0  0  0  0  0  0
  -23.9059  -10.4314   21.0414 C   0  0  0  0  0  0
  -24.3581   -9.4208   21.9184 C   0  0  0  0  0  0
  -23.6283   -8.2204   22.0751 C   0  0  0  0  0  0
  -22.4272   -8.0245   21.3558 C   0  0  0  0  0  0
  -21.9895   -9.0210   20.4644 C   0  0  0  0  0  0
  -22.7205  -10.2104   20.3086 C   0  0  0  0  0  0
  -21.6816   -6.0724   22.5292 C   0  0  0  0  0  0
  -21.3964   -6.5630   23.8213 C   0  0  0  0  0  0
  -21.3662   -5.6793   24.9184 C   0  0  0  0  0  0
  -21.6064   -4.3066   24.7241 C   0  0  0  0  0  0
  -21.8810   -3.8149   23.4363 C   0  0  0  0  0  0
  -21.9175   -4.6963   22.3417 C   0  0  0  0  0  0
  -22.7903  -13.5255   21.1910 C   0  0  0  0  0  0
  -22.1660   -4.2152   21.0996 F   0  0  0  0  0  0
  -21.5643   -3.4548   25.7746 F   0  0  0  0  0  0
  -30.0132  -13.4594   20.4488 N   0  0  0  0  0  0
  -26.3060  -12.9389   20.3531 N   0  0  0  0  0  0
  -25.9322  -11.6547   20.5744 N   0  0  0  0  0  0
  -22.0533  -12.8229   22.0441 N   0  0  0  0  0  0
  -25.4531  -15.2084   20.4760 N   0  0  0  0  0  0
  -31.6998  -14.9420   20.0624 O   0  0  0  0  0  0
  -21.6620   -6.8855   21.4262 O   0  0  0  0  0  0
  -22.3593  -14.5552   20.6755 O   0  0  0  0  0  0
  -24.6228  -31.8538   23.2005 C   0  0  0  0  0  0
  -25.9104  -32.4757   23.8336 C   0  0  1  0  0  0
  -27.2570  -27.2947   20.1875 C   0  0  0  0  0  0
  -25.5950  -33.8565   24.2294 N   0  0  0  0  0  0
  -23.4292  -30.4653   21.5384 C   0  0  2  0  0  0
  -24.8933  -28.9169   20.1213 C   0  0  0  0  0  0
  -22.7495  -29.4535   22.4894 C   0  0  0  0  0  0
  -18.0250  -28.1329   22.8417 C   0  0  0  0  0  0
  -24.1496  -36.7251   23.2642 C   0  0  0  0  0  0
  -25.9709  -30.7837   21.3757 C   0  0  0  0  0  0
  -26.0544  -29.4109   20.7258 C   0  0  0  0  0  0
  -27.2376  -28.6108   20.7517 C   0  0  0  0  0  0
  -26.0780  -26.8657   19.5411 C   0  0  0  0  0  0
  -24.9111  -27.6563   19.5139 C   0  0  0  0  0  0
  -23.6569  -29.7920   20.1578 C   0  0  0  0  0  0
  -25.4133  -36.3071   24.0341 C   0  0  1  0  0  0
  -20.5876  -28.3630   23.1280 C   0  0  2  0  0  0
  -20.6769  -26.9343   22.5408 C   0  0  0  0  0  0
  -19.5765  -26.6312   21.5211 C   0  0  0  0  0  0
  -18.1923  -26.7839   22.1595 C   0  0  0  0  0  0
  -19.1516  -28.8798   23.2805 C   0  0  0  0  0  0
  -18.9462  -30.1395   23.8850 C   0  0  0  0  0  0
  -17.6474  -30.6562   24.0540 C   0  0  0  0  0  0
  -25.9080  -34.9438   23.5131 C   0  0  0  0  0  0
  -16.5345  -29.9050   23.6337 C   0  0  0  0  0  0
  -16.7245  -28.6458   23.0345 C   0  0  0  0  0  0
  -26.4511  -31.6596   25.0717 C   0  0  0  0  0  0
  -25.3757  -31.3741   26.1454 C   0  0  0  0  0  0
  -27.0360  -30.3049   24.6162 C   0  0  0  0  0  0
  -27.6057  -32.4364   25.7502 C   0  0  0  0  0  0
  -27.5601  -37.1776   24.8460 C   0  0  0  0  0  0
  -21.4191  -29.2992   22.3688 N   0  0  0  0  0  0
  -26.4298  -37.3787   23.9439 N   0  0  0  0  0  0
  -24.6934  -31.0547   22.0948 N   0  0  0  0  0  0
  -23.4221  -28.8061   23.2927 O   0  0  0  0  0  0
  -28.3846  -26.4536   20.2730 O   0  0  0  0  0  0
  -26.5627  -34.8901   22.4663 O   0  0  0  0  0  0
  -23.5413  -32.1306   23.7357 O   0  0  0  0  0  0
  -28.7612  -19.2617   22.0419 C   0  0  0  0  0  0
  -30.3152  -18.0973   20.1502 C   0  0  0  0  0  0
  -28.8610  -17.8417   22.0451 C   0  0  0  0  0  0
  -29.6949  -17.1969   21.0717 C   0  0  0  0  0  0
  -29.4113  -20.0741   21.1035 C   0  0  0  0  0  0
  -30.3626  -16.5913   24.3948 C   0  0  0  0  0  0
  -26.6744  -17.5619   23.3787 C   0  0  0  0  0  0
  -28.9189  -17.1280   24.4865 C   0  0  0  0  0  0
  -29.5163  -24.0625   20.5245 C   0  0  0  0  0  0
  -28.2084  -24.9737   20.4547 C   0  0  0  0  0  0
  -29.5462  -22.4830   20.1825 C   0  0  0  0  0  0
  -28.1228  -17.0776   23.1660 C   0  0  2  0  0  0
  -30.1841  -19.4737   20.1564 N   0  0  0  0  0  0
  -29.7846  -15.7096   21.0647 N   0  0  0  0  0  0
  -29.2705  -21.4859   21.2262 O   0  0  0  0  0  0
  -27.9493  -15.7875   22.8765 F   0  0  0  0  0  0
  -31.4903  -12.6057   19.1458 H   0  0  0  0  0  0
  -30.4241  -11.4486   19.8892 H   0  0  0  0  0  0
  -29.7899  -11.7913   17.4907 H   0  0  0  0  0  0
  -29.6378  -13.5124   17.7428 H   0  0  0  0  0  0
  -27.8911  -11.2990   18.8701 H   0  0  0  0  0  0
  -27.3813  -12.5882   17.8143 H   0  0  0  0  0  0
  -27.6836  -14.2575   19.5597 H   0  0  0  0  0  0
  -28.7555  -12.0294   21.3585 H   0  0  0  0  0  0
  -28.4471  -13.6463   21.8807 H   0  0  0  0  0  0
  -25.2699   -9.5638   22.4792 H   0  0  0  0  0  0
  -23.9984   -7.4574   22.7446 H   0  0  0  0  0  0
  -21.0836   -8.8712   19.8930 H   0  0  0  0  0  0
  -22.3655  -10.9657   19.6224 H   0  0  0  0  0  0
  -21.1922   -7.6122   23.9736 H   0  0  0  0  0  0
  -21.1510   -6.0509   25.9090 H   0  0  0  0  0  0
  -22.0593   -2.7617   23.2861 H   0  0  0  0  0  0
  -22.4056  -11.9789   22.4722 H   0  0  0  0  0  0
  -21.1175  -13.1270   22.2782 H   0  0  0  0  0  0
  -24.7106  -15.8871   20.6020 H   0  0  0  0  0  0
  -26.3366  -15.6557   20.2688 H   0  0  0  0  0  0
  -26.7158  -32.5513   23.1074 H   0  0  0  0  0  0
  -25.0149  -33.9678   25.0495 H   0  0  0  0  0  0
  -22.7237  -31.2854   21.3773 H   0  0  0  0  0  0
  -23.3784  -35.9554   23.3285 H   0  0  0  0  0  0
  -24.3589  -36.8892   22.2051 H   0  0  0  0  0  0
  -23.7219  -37.6435   23.6664 H   0  0  0  0  0  0
  -26.1154  -31.5389   20.6057 H   0  0  0  0  0  0
  -26.8474  -30.8419   22.0129 H   0  0  0  0  0  0
  -28.1209  -28.9820   21.2529 H   0  0  0  0  0  0
  -26.0400  -25.9031   19.0631 H   0  0  0  0  0  0
  -24.0312  -27.2599   19.0367 H   0  0  0  0  0  0
  -23.7857  -30.5603   19.3899 H   0  0  0  0  0  0
  -22.7861  -29.2031   19.8513 H   0  0  0  0  0  0
  -25.1299  -36.1933   25.0846 H   0  0  0  0  0  0
  -20.9922  -28.3164   24.1421 H   0  0  0  0  0  0
  -20.5724  -26.2171   23.3571 H   0  0  0  0  0  0
  -21.6619  -26.7361   22.1224 H   0  0  0  0  0  0
  -19.6973  -25.6241   21.1228 H   0  0  0  0  0  0
  -19.6800  -27.3091   20.6748 H   0  0  0  0  0  0
  -17.4221  -26.6538   21.3950 H   0  0  0  0  0  0
  -18.0325  -25.9972   22.8982 H   0  0  0  0  0  0
  -19.7929  -30.7155   24.2213 H   0  0  0  0  0  0
  -17.5051  -31.6242   24.5085 H   0  0  0  0  0  0
  -15.5370  -30.2991   23.7676 H   0  0  0  0  0  0
  -15.8591  -28.0819   22.7118 H   0  0  0  0  0  0
  -24.5931  -30.7102   25.7752 H   0  0  0  0  0  0
  -24.8910  -32.2883   26.4873 H   0  0  0  0  0  0
  -25.8046  -30.8902   27.0237 H   0  0  0  0  0  0
  -26.2885  -29.6840   24.1212 H   0  0  0  0  0  0
  -27.4099  -29.7298   25.4629 H   0  0  0  0  0  0
  -27.8736  -30.4350   23.9328 H   0  0  0  0  0  0
  -27.2657  -33.3694   26.2040 H   0  0  0  0  0  0
  -28.3883  -32.6954   25.0340 H   0  0  0  0  0  0
  -28.0739  -31.8553   26.5466 H   0  0  0  0  0  0
  -28.2556  -38.0130   24.7615 H   0  0  0  0  0  0
  -28.1164  -36.2676   24.6160 H   0  0  0  0  0  0
  -27.2319  -37.1270   25.8854 H   0  0  0  0  0  0
  -20.9368  -29.8709   21.6919 H   0  0  0  0  0  0
  -26.0180  -38.2841   24.1511 H   0  0  0  0  0  0
  -28.1716  -19.7571   22.7988 H   0  0  0  0  0  0
  -30.9403  -17.7026   19.3663 H   0  0  0  0  0  0
  -30.8443  -16.6114   25.3731 H   0  0  0  0  0  0
  -30.9622  -17.2023   23.7207 H   0  0  0  0  0  0
  -30.3741  -15.5607   24.0305 H   0  0  0  0  0  0
  -26.6244  -18.5821   23.7591 H   0  0  0  0  0  0
  -26.1704  -16.9344   24.1159 H   0  0  0  0  0  0
  -26.0945  -17.5053   22.4575 H   0  0  0  0  0  0
  -28.9567  -18.1572   24.8428 H   0  0  0  0  0  0
  -28.3837  -16.5651   25.2502 H   0  0  0  0  0  0
  -30.0396  -24.2493   21.4570 H   0  0  0  0  0  0
  -30.1832  -24.5272   19.8024 H   0  0  0  0  0  0
  -27.6705  -24.8078   21.3813 H   0  0  0  0  0  0
  -27.5809  -24.5930   19.6488 H   0  0  0  0  0  0
  -30.5526  -22.2803   19.8205 H   0  0  0  0  0  0
  -28.8614  -22.3006   19.3571 H   0  0  0  0  0  0
  -29.0349  -15.2851   21.5982 H   0  0  0  0  0  0
  1 25  1  0  0  0
  1 30  2  0  0  0
  1 84  1  0  0  0
  2  3  1  0  0  0
  2 25  1  0  0  0
  2 87  1  0  0  0
  2 88  1  0  0  0
  3  4  1  0  0  0
  3 89  1  0  0  0
  3 90  1  0  0  0
  4  5  1  0  0  0
  4 91  1  0  0  0
  4 92  1  0  0  0
  5  6  1  0  0  0
  5 26  1  0  0  0
  5 93  1  0  0  0
  6 25  1  0  0  0
  6 94  1  0  0  0
  6 95  1  0  0  0
  7  8  2  0  0  0
  7 26  1  0  0  0
  7 29  1  0  0  0
  8  9  1  0  0  0
  8 22  1  0  0  0
  9 10  1  0  0  0
  9 27  2  0  0  0
 10 11  2  0  0  0
 10 15  1  0  0  0
 11 12  1  0  0  0
 11 96  1  0  0  0
 12 13  2  0  0  0
 12 97  1  0  0  0
 13 14  1  0  0  0
 13 31  1  0  0  0
 14 15  2  0  0  0
 14 98  1  0  0  0
 15 99  1  0  0  0
 16 17  2  0  0  0
 16 21  1  0  0  0
 16 31  1  0  0  0
 17 18  1  0  0  0
 17100  1  0  0  0
 18 19  2  0  0  0
 18101  1  0  0  0
 19 20  1  0  0  0
 19 24  1  0  0  0
 20 21  2  0  0  0
 20102  1  0  0  0
 21 23  1  0  0  0
 22 28  1  0  0  0
 22 32  2  0  0  0
 26 27  1  0  0  0
 28103  1  0  0  0
 28104  1  0  0  0
 29105  1  0  0  0
 29106  1  0  0  0
 33 34  1  0  0  0
 33 66  1  0  0  0
 33 70  2  0  0  0
 34 36  1  0  0  0
 34 59  1  0  0  0
 34107  1  0  0  0
 35 44  2  0  0  0
 35 45  1  0  0  0
 35 68  1  0  0  0
 36 56  1  0  0  0
 36108  1  0  0  0
 37 39  1  0  0  0
 37 47  1  0  0  0
 37 66  1  0  0  0
 37109  1  0  0  0
 38 43  2  0  0  0
 38 46  1  0  0  0
 38 47  1  0  0  0
 39 64  1  0  0  0
 39 67  2  0  0  0
 40 52  1  0  0  0
 40 53  2  0  0  0
 40 58  1  0  0  0
 41110  1  0  0  0
 41111  1  0  0  0
 41112  1  0  0  0
 41 48  1  0  0  0
 42 43  1  0  0  0
 42 66  1  0  0  0
 42113  1  0  0  0
 42114  1  0  0  0
 43 44  1  0  0  0
 44115  1  0  0  0
 45 46  2  0  0  0
 45116  1  0  0  0
 46117  1  0  0  0
 47118  1  0  0  0
 47119  1  0  0  0
 48 56  1  0  0  0
 48 65  1  0  0  0
 48120  1  0  0  0
 49 50  1  0  0  0
 49 53  1  0  0  0
 49 64  1  0  0  0
 49121  1  0  0  0
 50 51  1  0  0  0
 50122  1  0  0  0
 50123  1  0  0  0
 51 52  1  0  0  0
 51124  1  0  0  0
 51125  1  0  0  0
 52126  1  0  0  0
 52127  1  0  0  0
 53 54  1  0  0  0
 54 55  2  0  0  0
 54128  1  0  0  0
 55 57  1  0  0  0
 55129  1  0  0  0
 56 69  2  0  0  0
 57 58  2  0  0  0
 57130  1  0  0  0
 58131  1  0  0  0
 59 60  1  0  0  0
 59 61  1  0  0  0
 59 62  1  0  0  0
 60132  1  0  0  0
 60133  1  0  0  0
 60134  1  0  0  0
 61135  1  0  0  0
 61136  1  0  0  0
 61137  1  0  0  0
 62138  1  0  0  0
 62139  1  0  0  0
 62140  1  0  0  0
 63 65  1  0  0  0
 63141  1  0  0  0
 63142  1  0  0  0
 63143  1  0  0  0
 64144  1  0  0  0
 65145  1  0  0  0
 68 80  1  0  0  0
 71 73  2  0  0  0
 71 75  1  0  0  0
 71146  1  0  0  0
 72 74  2  0  0  0
 72 83  1  0  0  0
 72147  1  0  0  0
 73 74  1  0  0  0
 73 82  1  0  0  0
 74 84  1  0  0  0
 75 83  2  0  0  0
 75 85  1  0  0  0
 76 78  1  0  0  0
 76148  1  0  0  0
 76149  1  0  0  0
 76150  1  0  0  0
 77151  1  0  0  0
 77152  1  0  0  0
 77153  1  0  0  0
 77 82  1  0  0  0
 78 82  1  0  0  0
 78154  1  0  0  0
 78155  1  0  0  0
 79 80  1  0  0  0
 79 81  1  0  0  0
 79156  1  0  0  0
 79157  1  0  0  0
 80158  1  0  0  0
 80159  1  0  0  0
 81 85  1  0  0  0
 81160  1  0  0  0
 81161  1  0  0  0
 82 86  1  0  0  0
 84162  1  0  0  0
M  ISO  4   1 100  68 101  80 101  84 100
M  END
> <chiral flag>
0

> <version>
0

> <s_m_source_file>
/data/baiqing/PycharmProjects/Reinvent-master-3.2/result/LINK_invent/BTK/process_docking_weight1_custom_sum_contain_oxygen_bond_distance_aromatic_linkinvent_7_9_3/rearranged_h_0140.sdf

> <i_m_source_file_index>
69

> <r_mmod_Potential_Energy-OPLS-2005>
-48.1354789733887

> <r_mmod_Stretch_Energy-OPLS-2005>
107.014923095703

> <r_mmod_Bend_Energy-OPLS-2005>
205.361953735352

> <r_mmod_Torsional_Energy-OPLS-2005>
219.933700561523

> <r_mmod_Improper_Torsional_Energy-OPLS-2005>
2.57177519798279

> <r_mmod_Van_der_Waal_Energy-OPLS-2005>
143.231994628906

> <r_mmod_Electrostatic_Energy-OPLS-2005>
-592.665954589844

> <r_mmod_Solvation_Energy-OPLS-2005>
-207.250122070312

> <b_mmod_Minimization_Converged-OPLS-2005>
0

> <r_mmod_RMS_Derivative-OPLS-2005>
11.7791604995728

$$$$
69
                    3D
 Structure written by MMmdl.
167175  0  0  1  0            999 V2000
  -30.6951  -14.4522   20.5902 C   0  0  0  0  0  0
  -30.4262  -12.2967   19.4141 C   0  0  0  0  0  0
  -29.4972  -12.5168   18.2021 C   0  0  0  0  0  0
  -28.0148  -12.3856   18.6082 C   0  0  0  0  0  0
  -27.6667  -13.2036   19.8811 C   0  0  2  0  0  0
  -28.7070  -12.9468   20.9950 C   0  0  0  0  0  0
  -25.2614  -13.8153   20.5681 C   0  0  0  0  0  0
  -24.1855  -13.0433   20.9163 C   0  0  0  0  0  0
  -24.6400  -11.6899   20.8713 C   0  0  0  0  0  0
  -23.9057  -10.4292   21.0402 C   0  0  0  0  0  0
  -24.3617   -9.4210   21.9180 C   0  0  0  0  0  0
  -23.6294   -8.2243   22.0753 C   0  0  0  0  0  0
  -22.4277   -8.0276   21.3544 C   0  0  0  0  0  0
  -21.9912   -9.0245   20.4640 C   0  0  0  0  0  0
  -22.7237  -10.2127   20.3048 C   0  0  0  0  0  0
  -21.6853   -6.0736   22.5284 C   0  0  0  0  0  0
  -21.4013   -6.5641   23.8219 C   0  0  0  0  0  0
  -21.3664   -5.6792   24.9182 C   0  0  0  0  0  0
  -21.6051   -4.3053   24.7231 C   0  0  0  0  0  0
  -21.8822   -3.8145   23.4349 C   0  0  0  0  0  0
  -21.9197   -4.6962   22.3409 C   0  0  0  0  0  0
  -22.7884  -13.5231   21.1842 C   0  0  0  0  0  0
  -22.1663   -4.2149   21.0986 F   0  0  0  0  0  0
  -21.5632   -3.4536   25.7740 F   0  0  0  0  0  0
  -30.0439  -13.2629   20.4556 N   0  0  0  0  0  0
  -26.3049  -12.9316   20.3371 N   0  0  0  0  0  0
  -25.9330  -11.6476   20.5750 N   0  0  0  0  0  0
  -22.0528  -12.8207   22.0385 N   0  0  0  0  0  0
  -25.4345  -15.1876   20.4113 N   0  0  0  0  0  0
  -31.8057  -14.6591   20.0862 O   0  0  0  0  0  0
  -21.6642   -6.8875   21.4243 O   0  0  0  0  0  0
  -22.3566  -14.5547   20.6715 O   0  0  0  0  0  0
  -24.6129  -31.8694   23.2121 C   0  0  0  0  0  0
  -25.9028  -32.4833   23.8415 C   0  0  1  0  0  0
  -27.2411  -27.4581   20.0719 C   0  0  0  0  0  0
  -25.5889  -33.8629   24.2343 N   0  0  0  0  0  0
  -23.4012  -30.4937   21.5516 C   0  0  2  0  0  0
  -24.8482  -28.9631   20.1139 C   0  0  0  0  0  0
  -22.7407  -29.4665   22.4989 C   0  0  0  0  0  0
  -18.0269  -28.1370   22.8493 C   0  0  0  0  0  0
  -24.1487  -36.7317   23.2641 C   0  0  0  0  0  0
  -25.9298  -30.8375   21.3669 C   0  0  0  0  0  0
  -26.0073  -29.4743   20.7118 C   0  0  0  0  0  0
  -27.2041  -28.7233   20.6989 C   0  0  0  0  0  0
  -26.0585  -26.9474   19.4941 C   0  0  0  0  0  0
  -24.8673  -27.6960   19.5071 C   0  0  0  0  0  0
  -23.6099  -29.8293   20.1649 C   0  0  0  0  0  0
  -25.4109  -36.3120   24.0344 C   0  0  1  0  0  0
  -20.5860  -28.3660   23.1315 C   0  0  2  0  0  0
  -20.6760  -26.9396   22.5416 C   0  0  0  0  0  0
  -19.5741  -26.6379   21.5209 C   0  0  0  0  0  0
  -18.1919  -26.7919   22.1621 C   0  0  0  0  0  0
  -19.1519  -28.8830   23.2903 C   0  0  0  0  0  0
  -18.9449  -30.1436   23.8914 C   0  0  0  0  0  0
  -17.6454  -30.6580   24.0564 C   0  0  0  0  0  0
  -25.9035  -34.9483   23.5140 C   0  0  0  0  0  0
  -16.5343  -29.9085   23.6322 C   0  0  0  0  0  0
  -16.7261  -28.6498   23.0350 C   0  0  0  0  0  0
  -26.4459  -31.6601   25.0738 C   0  0  0  0  0  0
  -25.3727  -31.3682   26.1482 C   0  0  0  0  0  0
  -27.0304  -30.3056   24.6103 C   0  0  0  0  0  0
  -27.6030  -32.4316   25.7514 C   0  0  0  0  0  0
  -27.5581  -37.1825   24.8466 C   0  0  0  0  0  0
  -21.4139  -29.3032   22.3727 N   0  0  0  0  0  0
  -26.4298  -37.3805   23.9406 N   0  0  0  0  0  0
  -24.6660  -31.0811   22.1013 N   0  0  0  0  0  0
  -23.4185  -28.8200   23.3028 O   0  0  0  0  0  0
  -28.4033  -26.7196   20.0738 O   0  0  0  0  0  0
  -26.5597  -34.8926   22.4705 O   0  0  0  0  0  0
  -23.5326  -32.1433   23.7513 O   0  0  0  0  0  0
  -28.7394  -17.4269   21.3276 C   0  0  0  0  0  0
  -28.5846  -18.8141   21.1350 C   0  0  0  0  0  0
  -29.6964  -19.5696   20.6907 C   0  0  0  0  0  0
  -30.9074  -18.8702   20.4687 C   0  0  0  0  0  0
  -29.9712  -16.7989   21.0576 C   0  0  0  0  0  0
  -27.2316  -19.4541   21.3994 C   0  0  0  0  0  0
  -32.1671  -19.5742   19.9991 C   0  0  0  0  0  0
  -29.2496  -25.1388   16.6989 C   0  0  0  0  0  0
  -29.5826  -21.0878   20.4626 C   0  0  0  0  0  0
  -29.2605  -21.4537   18.9967 C   0  0  0  0  0  0
  -28.4686  -22.7646   18.7698 C   0  0  0  0  0  0
  -29.0430  -26.5342   18.8085 C   0  0  0  0  0  0
  -28.7210  -25.1694   18.1479 C   0  0  2  0  0  0
  -31.0317  -17.5342   20.6464 N   0  0  0  0  0  0
  -29.9914  -15.3903   21.2522 N   0  0  0  0  0  0
  -29.2529  -24.0177   18.9328 N   0  3  0  0  0  0
  -31.4705  -12.3963   19.1132 H   0  0  0  0  0  0
  -30.3238  -11.2783   19.7924 H   0  0  0  0  0  0
  -29.7311  -11.8025   17.4114 H   0  0  0  0  0  0
  -29.6734  -13.5073   17.7792 H   0  0  0  0  0  0
  -27.8100  -11.3277   18.7793 H   0  0  0  0  0  0
  -27.3722  -12.6886   17.7806 H   0  0  0  0  0  0
  -27.7208  -14.2572   19.6078 H   0  0  0  0  0  0
  -28.6776  -11.8985   21.2971 H   0  0  0  0  0  0
  -28.4623  -13.5058   21.8980 H   0  0  0  0  0  0
  -25.2773   -9.5681   22.4734 H   0  0  0  0  0  0
  -24.0013   -7.4636   22.7474 H   0  0  0  0  0  0
  -21.0850   -8.8763   19.8939 H   0  0  0  0  0  0
  -22.3715  -10.9656   19.6141 H   0  0  0  0  0  0
  -21.2002   -7.6149   23.9720 H   0  0  0  0  0  0
  -21.1485   -6.0525   25.9086 H   0  0  0  0  0  0
  -22.0600   -2.7605   23.2857 H   0  0  0  0  0  0
  -22.4150  -11.9856   22.4744 H   0  0  0  0  0  0
  -21.1141  -13.1215   22.2592 H   0  0  0  0  0  0
  -24.6650  -15.8394   20.5164 H   0  0  0  0  0  0
  -26.2819  -15.6268   20.0743 H   0  0  0  0  0  0
  -26.7110  -32.5555   23.1189 H   0  0  0  0  0  0
  -25.0047  -33.9799   25.0492 H   0  0  0  0  0  0
  -22.6899  -31.3102   21.4150 H   0  0  0  0  0  0
  -23.3748  -35.9649   23.3316 H   0  0  0  0  0  0
  -24.3578  -36.8916   22.2051 H   0  0  0  0  0  0
  -23.7230  -37.6526   23.6642 H   0  0  0  0  0  0
  -26.0473  -31.6075   20.6029 H   0  0  0  0  0  0
  -26.8152  -30.8845   21.9893 H   0  0  0  0  0  0
  -28.0995  -29.1148   21.1620 H   0  0  0  0  0  0
  -26.0293  -25.9673   19.0487 H   0  0  0  0  0  0
  -23.9724  -27.2897   19.0561 H   0  0  0  0  0  0
  -23.7182  -30.6064   19.4073 H   0  0  0  0  0  0
  -22.7337  -29.2506   19.8678 H   0  0  0  0  0  0
  -25.1282  -36.2004   25.0839 H   0  0  0  0  0  0
  -20.9953  -28.3220   24.1435 H   0  0  0  0  0  0
  -20.5657  -26.2270   23.3603 H   0  0  0  0  0  0
  -21.6636  -26.7433   22.1218 H   0  0  0  0  0  0
  -19.6908  -25.6293   21.1230 H   0  0  0  0  0  0
  -19.6678  -27.3198   20.6745 H   0  0  0  0  0  0
  -17.4190  -26.6663   21.4021 H   0  0  0  0  0  0
  -18.0318  -26.0052   22.9009 H   0  0  0  0  0  0
  -19.7927  -30.7238   24.2302 H   0  0  0  0  0  0
  -17.5012  -31.6260   24.5156 H   0  0  0  0  0  0
  -15.5349  -30.2998   23.7622 H   0  0  0  0  0  0
  -15.8662  -28.0819   22.7066 H   0  0  0  0  0  0
  -24.5887  -30.7058   25.7800 H   0  0  0  0  0  0
  -24.8941  -32.2832   26.4986 H   0  0  0  0  0  0
  -25.8082  -30.8798   27.0210 H   0  0  0  0  0  0
  -26.2869  -29.6831   24.1118 H   0  0  0  0  0  0
  -27.4047  -29.7271   25.4559 H   0  0  0  0  0  0
  -27.8708  -30.4398   23.9286 H   0  0  0  0  0  0
  -27.2641  -33.3590   26.2144 H   0  0  0  0  0  0
  -28.3824  -32.6914   25.0338 H   0  0  0  0  0  0
  -28.0718  -31.8408   26.5393 H   0  0  0  0  0  0
  -28.2602  -38.0118   24.7512 H   0  0  0  0  0  0
  -28.1072  -36.2649   24.6300 H   0  0  0  0  0  0
  -27.2294  -37.1490   25.8867 H   0  0  0  0  0  0
  -20.9289  -29.8777   21.6971 H   0  0  0  0  0  0
  -26.0190  -38.2889   24.1391 H   0  0  0  0  0  0
  -27.8948  -16.8405   21.6652 H   0  0  0  0  0  0
  -26.4593  -18.7037   21.5697 H   0  0  0  0  0  0
  -26.9169  -20.0596   20.5492 H   0  0  0  0  0  0
  -27.2746  -20.0916   22.2829 H   0  0  0  0  0  0
  -32.0001  -20.0547   19.0359 H   0  0  0  0  0  0
  -32.9965  -18.8768   19.8795 H   0  0  0  0  0  0
  -32.4784  -20.3315   20.7182 H   0  0  0  0  0  0
  -28.7953  -25.9327   16.1051 H   0  0  0  0  0  0
  -29.0203  -24.2001   16.1940 H   0  0  0  0  0  0
  -30.3297  -25.2848   16.6584 H   0  0  0  0  0  0
  -30.5012  -21.5857   20.7728 H   0  0  0  0  0  0
  -28.8197  -21.4979   21.1239 H   0  0  0  0  0  0
  -28.6265  -20.6614   18.5969 H   0  0  0  0  0  0
  -30.1621  -21.4303   18.3838 H   0  0  0  0  0  0
  -27.5880  -22.8004   19.4119 H   0  0  0  0  0  0
  -28.0833  -22.7274   17.7501 H   0  0  0  0  0  0
  -28.7727  -27.3502   18.1347 H   0  0  0  0  0  0
  -30.1192  -26.6262   18.9580 H   0  0  0  0  0  0
  -27.6417  -25.0672   18.0882 H   0  0  0  0  0  0
  -29.1649  -15.0203   21.6917 H   0  0  0  0  0  0
  -30.2143  -23.8581   18.6758 H   0  0  0  0  0  0
  -29.2410  -24.2682   19.9116 H   0  0  0  0  0  0
  1 25  1  0  0  0
  1 30  2  0  0  0
  1 85  1  0  0  0
  2  3  1  0  0  0
  2 25  1  0  0  0
  2 87  1  0  0  0
  2 88  1  0  0  0
  3  4  1  0  0  0
  3 89  1  0  0  0
  3 90  1  0  0  0
  4  5  1  0  0  0
  4 91  1  0  0  0
  4 92  1  0  0  0
  5  6  1  0  0  0
  5 26  1  0  0  0
  5 93  1  0  0  0
  6 25  1  0  0  0
  6 94  1  0  0  0
  6 95  1  0  0  0
  7  8  2  0  0  0
  7 26  1  0  0  0
  7 29  1  0  0  0
  8  9  1  0  0  0
  8 22  1  0  0  0
  9 10  1  0  0  0
  9 27  2  0  0  0
 10 11  2  0  0  0
 10 15  1  0  0  0
 11 12  1  0  0  0
 11 96  1  0  0  0
 12 13  2  0  0  0
 12 97  1  0  0  0
 13 14  1  0  0  0
 13 31  1  0  0  0
 14 15  2  0  0  0
 14 98  1  0  0  0
 15 99  1  0  0  0
 16 17  2  0  0  0
 16 21  1  0  0  0
 16 31  1  0  0  0
 17 18  1  0  0  0
 17100  1  0  0  0
 18 19  2  0  0  0
 18101  1  0  0  0
 19 20  1  0  0  0
 19 24  1  0  0  0
 20 21  2  0  0  0
 20102  1  0  0  0
 21 23  1  0  0  0
 22 28  1  0  0  0
 22 32  2  0  0  0
 26 27  1  0  0  0
 28103  1  0  0  0
 28104  1  0  0  0
 29105  1  0  0  0
 29106  1  0  0  0
 33 34  1  0  0  0
 33 66  1  0  0  0
 33 70  2  0  0  0
 34 36  1  0  0  0
 34 59  1  0  0  0
 34107  1  0  0  0
 35 44  2  0  0  0
 35 45  1  0  0  0
 35 68  1  0  0  0
 36 56  1  0  0  0
 36108  1  0  0  0
 37 39  1  0  0  0
 37 47  1  0  0  0
 37 66  1  0  0  0
 37109  1  0  0  0
 38 43  2  0  0  0
 38 46  1  0  0  0
 38 47  1  0  0  0
 39 64  1  0  0  0
 39 67  2  0  0  0
 40 52  1  0  0  0
 40 53  2  0  0  0
 40 58  1  0  0  0
 41110  1  0  0  0
 41111  1  0  0  0
 41112  1  0  0  0
 41 48  1  0  0  0
 42 43  1  0  0  0
 42 66  1  0  0  0
 42113  1  0  0  0
 42114  1  0  0  0
 43 44  1  0  0  0
 44115  1  0  0  0
 45 46  2  0  0  0
 45116  1  0  0  0
 46117  1  0  0  0
 47118  1  0  0  0
 47119  1  0  0  0
 48 56  1  0  0  0
 48 65  1  0  0  0
 48120  1  0  0  0
 49 50  1  0  0  0
 49 53  1  0  0  0
 49 64  1  0  0  0
 49121  1  0  0  0
 50 51  1  0  0  0
 50122  1  0  0  0
 50123  1  0  0  0
 51 52  1  0  0  0
 51124  1  0  0  0
 51125  1  0  0  0
 52126  1  0  0  0
 52127  1  0  0  0
 53 54  1  0  0  0
 54 55  2  0  0  0
 54128  1  0  0  0
 55 57  1  0  0  0
 55129  1  0  0  0
 56 69  2  0  0  0
 57 58  2  0  0  0
 57130  1  0  0  0
 58131  1  0  0  0
 59 60  1  0  0  0
 59 61  1  0  0  0
 59 62  1  0  0  0
 60132  1  0  0  0
 60133  1  0  0  0
 60134  1  0  0  0
 61135  1  0  0  0
 61136  1  0  0  0
 61137  1  0  0  0
 62138  1  0  0  0
 62139  1  0  0  0
 62140  1  0  0  0
 63 65  1  0  0  0
 63141  1  0  0  0
 63142  1  0  0  0
 63143  1  0  0  0
 64144  1  0  0  0
 65145  1  0  0  0
 68 82  1  0  0  0
 71 72  2  0  0  0
 71 75  1  0  0  0
 71146  1  0  0  0
 72 73  1  0  0  0
 72 76  1  0  0  0
 73 74  2  0  0  0
 73 79  1  0  0  0
 74 77  1  0  0  0
 74 84  1  0  0  0
 75 84  2  0  0  0
 75 85  1  0  0  0
 76147  1  0  0  0
 76148  1  0  0  0
 76149  1  0  0  0
 77150  1  0  0  0
 77151  1  0  0  0
 77152  1  0  0  0
 78153  1  0  0  0
 78154  1  0  0  0
 78155  1  0  0  0
 78 83  1  0  0  0
 79 80  1  0  0  0
 79156  1  0  0  0
 79157  1  0  0  0
 80 81  1  0  0  0
 80158  1  0  0  0
 80159  1  0  0  0
 81 86  1  0  0  0
 81160  1  0  0  0
 81161  1  0  0  0
 82 83  1  0  0  0
 82162  1  0  0  0
 82163  1  0  0  0
 83 86  1  0  0  0
 83164  1  0  0  0
 85165  1  0  0  0
 86166  1  0  0  0
 86167  1  0  0  0
M  CHG  1  86   1
M  ISO  4   1 100  68 101  82 101  85 100
M  END
> <chiral flag>
0

> <version>
0

> <s_m_source_file>
/data/baiqing/PycharmProjects/Reinvent-master-3.2/result/LINK_invent/BTK/process_docking_weight1_custom_sum_contain_oxygen_bond_distance_aromatic_linkinvent_7_9_3/rearranged_h_0140.sdf

> <i_m_source_file_index>
70

> <r_mmod_Potential_Energy-OPLS-2005>
-287.066589355469

> <r_mmod_Stretch_Energy-OPLS-2005>
37.0932350158691

> <r_mmod_Bend_Energy-OPLS-2005>
102.840354919434

> <r_mmod_Torsional_Energy-OPLS-2005>
252.332534790039

> <r_mmod_Improper_Torsional_Energy-OPLS-2005>
3.80915069580078

> <r_mmod_Van_der_Waal_Energy-OPLS-2005>
150.962524414062

> <r_mmod_Electrostatic_Energy-OPLS-2005>
-370.008361816406

> <r_mmod_Solvation_Energy-OPLS-2005>
-473.758605957031

> <b_mmod_Minimization_Converged-OPLS-2005>
0

> <r_mmod_RMS_Derivative-OPLS-2005>
1.37291777133942

$$$$
70
                    3D
 Structure written by MMmdl.
158167  0  0  1  0            999 V2000
  -30.5233  -14.9925   20.4236 C   0  0  0  0  0  0
  -30.4378  -12.6098   19.5295 C   0  0  0  0  0  0
  -29.5293  -12.5371   18.2780 C   0  0  0  0  0  0
  -28.0597  -12.3226   18.6855 C   0  0  0  0  0  0
  -27.6299  -13.2569   19.8461 C   0  0  2  0  0  0
  -28.6650  -13.2937   20.9910 C   0  0  0  0  0  0
  -25.2419  -13.8241   20.5688 C   0  0  0  0  0  0
  -24.1749  -13.0454   20.9210 C   0  0  0  0  0  0
  -24.6381  -11.6935   20.8737 C   0  0  0  0  0  0
  -23.9064  -10.4305   21.0392 C   0  0  0  0  0  0
  -24.3609   -9.4234   21.9189 C   0  0  0  0  0  0
  -23.6286   -8.2264   22.0753 C   0  0  0  0  0  0
  -22.4269   -8.0292   21.3546 C   0  0  0  0  0  0
  -21.9898   -9.0271   20.4650 C   0  0  0  0  0  0
  -22.7222  -10.2152   20.3057 C   0  0  0  0  0  0
  -21.6851   -6.0738   22.5294 C   0  0  0  0  0  0
  -21.4022   -6.5638   23.8237 C   0  0  0  0  0  0
  -21.3654   -5.6789   24.9197 C   0  0  0  0  0  0
  -21.6046   -4.3050   24.7246 C   0  0  0  0  0  0
  -21.8807   -3.8142   23.4362 C   0  0  0  0  0  0
  -21.9181   -4.6961   22.3417 C   0  0  0  0  0  0
  -22.7772  -13.5202   21.1891 C   0  0  0  0  0  0
  -22.1631   -4.2148   21.0994 F   0  0  0  0  0  0
  -21.5631   -3.4527   25.7752 F   0  0  0  0  0  0
  -29.9436  -13.7178   20.4046 N   0  0  0  0  0  0
  -26.2868  -12.9498   20.3262 N   0  0  0  0  0  0
  -25.9322  -11.6608   20.5740 N   0  0  0  0  0  0
  -22.0447  -12.8204   22.0463 N   0  0  0  0  0  0
  -25.4061  -15.1973   20.4064 N   0  0  0  0  0  0
  -31.7106  -15.0615   20.0858 O   0  0  0  0  0  0
  -21.6636   -6.8882   21.4257 O   0  0  0  0  0  0
  -22.3440  -14.5506   20.6739 O   0  0  0  0  0  0
  -24.6481  -31.8386   23.1831 C   0  0  0  0  0  0
  -25.9235  -32.4661   23.8233 C   0  0  1  0  0  0
  -27.2222  -27.0876   20.1749 C   0  0  0  0  0  0
  -25.5949  -33.8466   24.2159 N   0  0  0  0  0  0
  -23.4565  -30.4561   21.5285 C   0  0  2  0  0  0
  -24.9120  -28.8731   20.1168 C   0  0  0  0  0  0
  -22.7586  -29.4531   22.4823 C   0  0  0  0  0  0
  -18.0316  -28.1389   22.8476 C   0  0  0  0  0  0
  -24.1495  -36.7268   23.2647 C   0  0  0  0  0  0
  -26.0169  -30.6981   21.3932 C   0  0  0  0  0  0
  -26.0917  -29.3031   20.7390 C   0  0  0  0  0  0
  -27.2508  -28.4283   20.7484 C   0  0  0  0  0  0
  -26.0219  -26.7791   19.5017 C   0  0  0  0  0  0
  -24.8918  -27.6239   19.4814 C   0  0  0  0  0  0
  -23.6895  -29.7787   20.1524 C   0  0  0  0  0  0
  -25.4119  -36.3007   24.0313 C   0  0  1  0  0  0
  -20.5937  -28.3738   23.1203 C   0  0  2  0  0  0
  -20.6790  -26.9426   22.5395 C   0  0  0  0  0  0
  -19.5762  -26.6377   21.5199 C   0  0  0  0  0  0
  -18.1957  -26.7927   22.1627 C   0  0  0  0  0  0
  -19.1575  -28.8874   23.2840 C   0  0  0  0  0  0
  -18.9485  -30.1468   23.8870 C   0  0  0  0  0  0
  -17.6477  -30.6590   24.0546 C   0  0  0  0  0  0
  -25.9065  -34.9385   23.5052 C   0  0  0  0  0  0
  -16.5371  -29.9074   23.6334 C   0  0  0  0  0  0
  -16.7295  -28.6490   23.0364 C   0  0  0  0  0  0
  -26.4542  -31.6544   25.0693 C   0  0  0  0  0  0
  -25.3725  -31.3718   26.1381 C   0  0  0  0  0  0
  -27.0452  -30.2928   24.6360 C   0  0  0  0  0  0
  -27.6063  -32.4338   25.7467 C   0  0  0  0  0  0
  -27.5576  -37.1787   24.8454 C   0  0  0  0  0  0
  -21.4278  -29.3056   22.3559 N   0  0  0  0  0  0
  -26.4277  -37.3731   23.9396 N   0  0  0  0  0  0
  -24.7268  -31.0186   22.0898 N   0  0  0  0  0  0
  -23.4198  -28.8084   23.2997 O   0  0  0  0  0  0
  -28.2373  -26.0473   20.1930 O   0  0  0  0  0  0
  -26.5671  -34.8895   22.4640 O   0  0  0  0  0  0
  -23.5583  -32.1279   23.7023 O   0  0  0  0  0  0
  -28.9422  -21.9878   21.1593 C   0  0  0  0  0  0
  -29.0816  -20.6757   20.4404 C   0  0  0  0  0  0
  -28.7692  -21.1407   19.1841 C   0  0  0  0  0  0
  -28.5174  -23.1324   20.4078 C   0  0  0  0  0  0
  -28.5833  -20.5692   17.8295 C   0  0  0  0  0  0
  -28.3041  -21.8032   16.9432 C   0  0  0  0  0  0
  -27.8715  -22.9395   17.9041 C   0  0  1  0  0  0
  -26.3381  -23.0368   17.9730 C   0  0  0  0  0  0
  -29.3534  -19.0968   20.9771 C   0  0  0  0  0  0
  -27.9049  -24.6390   20.8063 C   0  0  0  0  0  0
  -29.9021  -17.7102   20.1512 C   0  0  0  0  0  0
  -28.4008  -22.4926   19.1704 N   0  0  0  0  0  0
  -29.7469  -16.1823   20.6131 N   0  0  0  0  0  0
  -31.4730  -12.7649   19.2241 H   0  0  0  0  0  0
  -30.4315  -11.6622   20.0716 H   0  0  0  0  0  0
  -29.8591  -11.7366   17.6135 H   0  0  0  0  0  0
  -29.6184  -13.4642   17.7093 H   0  0  0  0  0  0
  -27.9520  -11.2808   18.9911 H   0  0  0  0  0  0
  -27.4021  -12.4599   17.8266 H   0  0  0  0  0  0
  -27.5961  -14.2588   19.4164 H   0  0  0  0  0  0
  -28.7555  -12.3176   21.4692 H   0  0  0  0  0  0
  -28.3556  -13.9907   21.7712 H   0  0  0  0  0  0
  -25.2745   -9.5739   22.4776 H   0  0  0  0  0  0
  -24.0009   -7.4661   22.7456 H   0  0  0  0  0  0
  -21.0821   -8.8816   19.8960 H   0  0  0  0  0  0
  -22.3670  -10.9713   19.6183 H   0  0  0  0  0  0
  -21.2007   -7.6153   23.9725 H   0  0  0  0  0  0
  -21.1467   -6.0520   25.9101 H   0  0  0  0  0  0
  -22.0565   -2.7596   23.2860 H   0  0  0  0  0  0
  -22.4028  -11.9819   22.4796 H   0  0  0  0  0  0
  -21.1099  -13.1291   22.2730 H   0  0  0  0  0  0
  -24.6205  -15.8362   20.4741 H   0  0  0  0  0  0
  -26.2424  -15.6354   20.0425 H   0  0  0  0  0  0
  -26.7305  -32.5268   23.0969 H   0  0  0  0  0  0
  -24.9978  -33.9566   25.0222 H   0  0  0  0  0  0
  -22.7623  -31.2839   21.3647 H   0  0  0  0  0  0
  -23.3737  -35.9619   23.3277 H   0  0  0  0  0  0
  -24.3572  -36.8931   22.2068 H   0  0  0  0  0  0
  -23.7287  -37.6465   23.6710 H   0  0  0  0  0  0
  -26.1844  -31.4503   20.6217 H   0  0  0  0  0  0
  -26.8828  -30.7467   22.0417 H   0  0  0  0  0  0
  -28.1516  -28.7557   21.2498 H   0  0  0  0  0  0
  -25.9388  -25.8312   18.9963 H   0  0  0  0  0  0
  -23.9969  -27.2873   18.9769 H   0  0  0  0  0  0
  -23.8297  -30.5465   19.3914 H   0  0  0  0  0  0
  -22.8046  -29.2216   19.8399 H   0  0  0  0  0  0
  -25.1315  -36.1818   25.0805 H   0  0  0  0  0  0
  -21.0051  -28.3337   24.1315 H   0  0  0  0  0  0
  -20.5661  -26.2344   23.3623 H   0  0  0  0  0  0
  -21.6655  -26.7408   22.1192 H   0  0  0  0  0  0
  -19.6915  -25.6277   21.1245 H   0  0  0  0  0  0
  -19.6679  -27.3167   20.6711 H   0  0  0  0  0  0
  -17.4205  -26.6656   21.4053 H   0  0  0  0  0  0
  -18.0375  -26.0073   22.9037 H   0  0  0  0  0  0
  -19.7958  -30.7296   24.2221 H   0  0  0  0  0  0
  -17.5027  -31.6264   24.5156 H   0  0  0  0  0  0
  -15.5370  -30.2958   23.7664 H   0  0  0  0  0  0
  -15.8707  -28.0786   22.7105 H   0  0  0  0  0  0
  -24.5881  -30.7119   25.7642 H   0  0  0  0  0  0
  -24.8958  -32.2895   26.4828 H   0  0  0  0  0  0
  -25.7992  -30.8815   27.0141 H   0  0  0  0  0  0
  -26.3109  -29.6591   24.1373 H   0  0  0  0  0  0
  -27.4022  -29.7290   25.4982 H   0  0  0  0  0  0
  -27.9015  -30.4105   23.9724 H   0  0  0  0  0  0
  -27.2620  -33.3609   26.2058 H   0  0  0  0  0  0
  -28.3830  -32.6984   25.0277 H   0  0  0  0  0  0
  -28.0798  -31.8491   26.5357 H   0  0  0  0  0  0
  -28.2569  -38.0109   24.7487 H   0  0  0  0  0  0
  -28.1103  -36.2636   24.6283 H   0  0  0  0  0  0
  -27.2290  -37.1426   25.8857 H   0  0  0  0  0  0
  -20.9493  -29.8761   21.6733 H   0  0  0  0  0  0
  -26.0136  -38.2787   24.1400 H   0  0  0  0  0  0
  -29.0530  -22.0659   22.2328 H   0  0  0  0  0  0
  -27.7263  -19.8931   17.8347 H   0  0  0  0  0  0
  -29.4568  -20.0090   17.4933 H   0  0  0  0  0  0
  -27.5842  -21.5992   16.1499 H   0  0  0  0  0  0
  -29.2331  -22.1006   16.4564 H   0  0  0  0  0  0
  -28.3167  -23.8964   17.6307 H   0  0  0  0  0  0
  -26.0120  -23.6796   18.7848 H   0  0  0  0  0  0
  -25.8867  -22.0586   18.1465 H   0  0  0  0  0  0
  -25.9260  -23.4369   17.0462 H   0  0  0  0  0  0
  -28.4047  -18.8078   21.4282 H   0  0  0  0  0  0
  -30.0276  -19.2119   21.8267 H   0  0  0  0  0  0
  -28.1244  -24.7709   21.8658 H   0  0  0  0  0  0
  -26.8205  -24.5365   20.7991 H   0  0  0  0  0  0
  -30.9534  -17.8659   19.9082 H   0  0  0  0  0  0
  -29.3931  -17.7337   19.1876 H   0  0  0  0  0  0
  -28.8153  -15.9703   20.9401 H   0  0  0  0  0  0
  1 25  1  0  0  0
  1 30  2  0  0  0
  1 83  1  0  0  0
  2  3  1  0  0  0
  2 25  1  0  0  0
  2 84  1  0  0  0
  2 85  1  0  0  0
  3  4  1  0  0  0
  3 86  1  0  0  0
  3 87  1  0  0  0
  4  5  1  0  0  0
  4 88  1  0  0  0
  4 89  1  0  0  0
  5  6  1  0  0  0
  5 26  1  0  0  0
  5 90  1  0  0  0
  6 25  1  0  0  0
  6 91  1  0  0  0
  6 92  1  0  0  0
  7  8  2  0  0  0
  7 26  1  0  0  0
  7 29  1  0  0  0
  8  9  1  0  0  0
  8 22  1  0  0  0
  9 10  1  0  0  0
  9 27  2  0  0  0
 10 11  2  0  0  0
 10 15  1  0  0  0
 11 12  1  0  0  0
 11 93  1  0  0  0
 12 13  2  0  0  0
 12 94  1  0  0  0
 13 14  1  0  0  0
 13 31  1  0  0  0
 14 15  2  0  0  0
 14 95  1  0  0  0
 15 96  1  0  0  0
 16 17  2  0  0  0
 16 21  1  0  0  0
 16 31  1  0  0  0
 17 18  1  0  0  0
 17 97  1  0  0  0
 18 19  2  0  0  0
 18 98  1  0  0  0
 19 20  1  0  0  0
 19 24  1  0  0  0
 20 21  2  0  0  0
 20 99  1  0  0  0
 21 23  1  0  0  0
 22 28  1  0  0  0
 22 32  2  0  0  0
 26 27  1  0  0  0
 28100  1  0  0  0
 28101  1  0  0  0
 29102  1  0  0  0
 29103  1  0  0  0
 33 34  1  0  0  0
 33 66  1  0  0  0
 33 70  2  0  0  0
 34 36  1  0  0  0
 34 59  1  0  0  0
 34104  1  0  0  0
 35 44  2  0  0  0
 35 45  1  0  0  0
 35 68  1  0  0  0
 36 56  1  0  0  0
 36105  1  0  0  0
 37 39  1  0  0  0
 37 47  1  0  0  0
 37 66  1  0  0  0
 37106  1  0  0  0
 38 43  2  0  0  0
 38 46  1  0  0  0
 38 47  1  0  0  0
 39 64  1  0  0  0
 39 67  2  0  0  0
 40 52  1  0  0  0
 40 53  2  0  0  0
 40 58  1  0  0  0
 41107  1  0  0  0
 41108  1  0  0  0
 41109  1  0  0  0
 41 48  1  0  0  0
 42 43  1  0  0  0
 42 66  1  0  0  0
 42110  1  0  0  0
 42111  1  0  0  0
 43 44  1  0  0  0
 44112  1  0  0  0
 45 46  2  0  0  0
 45113  1  0  0  0
 46114  1  0  0  0
 47115  1  0  0  0
 47116  1  0  0  0
 48 56  1  0  0  0
 48 65  1  0  0  0
 48117  1  0  0  0
 49 50  1  0  0  0
 49 53  1  0  0  0
 49 64  1  0  0  0
 49118  1  0  0  0
 50 51  1  0  0  0
 50119  1  0  0  0
 50120  1  0  0  0
 51 52  1  0  0  0
 51121  1  0  0  0
 51122  1  0  0  0
 52123  1  0  0  0
 52124  1  0  0  0
 53 54  1  0  0  0
 54 55  2  0  0  0
 54125  1  0  0  0
 55 57  1  0  0  0
 55126  1  0  0  0
 56 69  2  0  0  0
 57 58  2  0  0  0
 57127  1  0  0  0
 58128  1  0  0  0
 59 60  1  0  0  0
 59 61  1  0  0  0
 59 62  1  0  0  0
 60129  1  0  0  0
 60130  1  0  0  0
 60131  1  0  0  0
 61132  1  0  0  0
 61133  1  0  0  0
 61134  1  0  0  0
 62135  1  0  0  0
 62136  1  0  0  0
 62137  1  0  0  0
 63 65  1  0  0  0
 63138  1  0  0  0
 63139  1  0  0  0
 63140  1  0  0  0
 64141  1  0  0  0
 65142  1  0  0  0
 68 80  1  0  0  0
 71 72  1  0  0  0
 71 74  2  0  0  0
 71143  1  0  0  0
 72 73  2  0  0  0
 72 79  1  0  0  0
 73 75  1  0  0  0
 73 82  1  0  0  0
 74 80  1  0  0  0
 74 82  1  0  0  0
 75 76  1  0  0  0
 75144  1  0  0  0
 75145  1  0  0  0
 76 77  1  0  0  0
 76146  1  0  0  0
 76147  1  0  0  0
 77 78  1  0  0  0
 77 82  1  0  0  0
 77148  1  0  0  0
 78149  1  0  0  0
 78150  1  0  0  0
 78151  1  0  0  0
 79 81  1  0  0  0
 79152  1  0  0  0
 79153  1  0  0  0
 80154  1  0  0  0
 80155  1  0  0  0
 81 83  1  0  0  0
 81156  1  0  0  0
 81157  1  0  0  0
 83158  1  0  0  0
M  ISO  4   1 100  68 101  80 101  83 100
M  END
> <chiral flag>
0

> <version>
0

> <s_m_source_file>
/data/baiqing/PycharmProjects/Reinvent-master-3.2/result/LINK_invent/BTK/process_docking_weight1_custom_sum_contain_oxygen_bond_distance_aromatic_linkinvent_7_9_3/rearranged_h_0140.sdf

> <i_m_source_file_index>
71

> <r_mmod_Potential_Energy-OPLS-2005>
678.819885253906

> <r_mmod_Stretch_Energy-OPLS-2005>
302.9521484375

> <r_mmod_Bend_Energy-OPLS-2005>
361.423553466797

> <r_mmod_Torsional_Energy-OPLS-2005>
281.416656494141

> <r_mmod_Improper_Torsional_Energy-OPLS-2005>
8.64697265625

> <r_mmod_Van_der_Waal_Energy-OPLS-2005>
100.061721801758

> <r_mmod_Electrostatic_Energy-OPLS-2005>
-390.969787597656

> <r_mmod_Solvation_Energy-OPLS-2005>
-217.701614379883

> <b_mmod_Minimization_Converged-OPLS-2005>
0

> <r_mmod_RMS_Derivative-OPLS-2005>
2.77826642990112

$$$$
71
                    3D
 Structure written by MMmdl.
169177  0  0  1  0            999 V2000
  -30.6134  -14.7780   20.4557 C   0  0  0  0  0  0
  -30.4419  -12.4628   19.5241 C   0  0  0  0  0  0
  -29.5385  -12.4700   18.2697 C   0  0  0  0  0  0
  -28.0561  -12.3015   18.6556 C   0  0  0  0  0  0
  -27.6360  -13.2317   19.8253 C   0  0  2  0  0  0
  -28.6622  -13.2266   20.9764 C   0  0  0  0  0  0
  -25.2474  -13.8217   20.5640 C   0  0  0  0  0  0
  -24.1759  -13.0457   20.9186 C   0  0  0  0  0  0
  -24.6368  -11.6953   20.8705 C   0  0  0  0  0  0
  -23.9041  -10.4292   21.0379 C   0  0  0  0  0  0
  -24.3593   -9.4225   21.9171 C   0  0  0  0  0  0
  -23.6272   -8.2265   22.0768 C   0  0  0  0  0  0
  -22.4240   -8.0297   21.3572 C   0  0  0  0  0  0
  -21.9880   -9.0257   20.4653 C   0  0  0  0  0  0
  -22.7214  -10.2135   20.3033 C   0  0  0  0  0  0
  -21.6863   -6.0708   22.5295 C   0  0  0  0  0  0
  -21.4014   -6.5618   23.8218 C   0  0  0  0  0  0
  -21.3645   -5.6773   24.9170 C   0  0  0  0  0  0
  -21.6061   -4.3045   24.7219 C   0  0  0  0  0  0
  -21.8820   -3.8130   23.4339 C   0  0  0  0  0  0
  -21.9206   -4.6942   22.3398 C   0  0  0  0  0  0
  -22.7802  -13.5274   21.1861 C   0  0  0  0  0  0
  -22.1669   -4.2145   21.0960 F   0  0  0  0  0  0
  -21.5645   -3.4520   25.7714 F   0  0  0  0  0  0
  -29.9793  -13.5557   20.4115 N   0  0  0  0  0  0
  -26.2859  -12.9424   20.3072 N   0  0  0  0  0  0
  -25.9267  -11.6573   20.5628 N   0  0  0  0  0  0
  -22.0389  -12.8260   22.0388 N   0  0  0  0  0  0
  -25.4221  -15.1934   20.4170 N   0  0  0  0  0  0
  -31.8045  -14.8555   20.1401 O   0  0  0  0  0  0
  -21.6641   -6.8861   21.4266 O   0  0  0  0  0  0
  -22.3511  -14.5561   20.6685 O   0  0  0  0  0  0
  -24.6327  -31.8490   23.1858 C   0  0  0  0  0  0
  -25.9106  -32.4732   23.8246 C   0  0  1  0  0  0
  -27.2417  -27.2448   20.1474 C   0  0  0  0  0  0
  -25.5903  -33.8523   24.2190 N   0  0  0  0  0  0
  -23.4335  -30.4646   21.5272 C   0  0  2  0  0  0
  -24.8814  -28.8918   20.1056 C   0  0  0  0  0  0
  -22.7511  -29.4585   22.4862 C   0  0  0  0  0  0
  -18.0305  -28.1435   22.8503 C   0  0  0  0  0  0
  -24.1443  -36.7257   23.2651 C   0  0  0  0  0  0
  -25.9699  -30.7610   21.3538 C   0  0  0  0  0  0
  -26.0432  -29.3736   20.7122 C   0  0  0  0  0  0
  -27.2146  -28.5620   20.7277 C   0  0  0  0  0  0
  -26.0642  -26.8243   19.4924 C   0  0  0  0  0  0
  -24.8927  -27.6240   19.4878 C   0  0  0  0  0  0
  -23.6502  -29.7782   20.1482 C   0  0  0  0  0  0
  -25.4066  -36.3049   24.0340 C   0  0  1  0  0  0
  -20.5912  -28.3702   23.1268 C   0  0  2  0  0  0
  -20.6758  -26.9418   22.5410 C   0  0  0  0  0  0
  -19.5718  -26.6414   21.5215 C   0  0  0  0  0  0
  -18.1916  -26.7979   22.1644 C   0  0  0  0  0  0
  -19.1575  -28.8882   23.2888 C   0  0  0  0  0  0
  -18.9501  -30.1493   23.8895 C   0  0  0  0  0  0
  -17.6490  -30.6615   24.0588 C   0  0  0  0  0  0
  -25.9041  -34.9422   23.5076 C   0  0  0  0  0  0
  -16.5387  -29.9134   23.6360 C   0  0  0  0  0  0
  -16.7300  -28.6551   23.0360 C   0  0  0  0  0  0
  -26.4456  -31.6596   25.0658 C   0  0  0  0  0  0
  -25.3737  -31.3764   26.1419 C   0  0  0  0  0  0
  -27.0262  -30.3030   24.6113 C   0  0  0  0  0  0
  -27.6015  -32.4318   25.7462 C   0  0  0  0  0  0
  -27.5536  -37.1770   24.8481 C   0  0  0  0  0  0
  -21.4221  -29.3048   22.3645 N   0  0  0  0  0  0
  -26.4224  -37.3766   23.9452 N   0  0  0  0  0  0
  -24.6985  -31.0419   22.0834 N   0  0  0  0  0  0
  -23.4213  -28.8175   23.2990 O   0  0  0  0  0  0
  -28.3536  -26.3920   20.3569 O   0  0  0  0  0  0
  -26.5632  -34.8939   22.4674 O   0  0  0  0  0  0
  -23.5448  -32.1316   23.7148 O   0  0  0  0  0  0
  -29.7255  -25.1586   18.8479 C   0  0  0  0  0  0
  -30.6672  -24.1143   18.7516 C   0  0  0  0  0  0
  -30.6122  -23.0525   19.6965 C   0  0  0  0  0  0
  -29.3432  -22.8019   20.2780 C   0  0  0  0  0  0
  -28.7192  -25.1152   19.8187 C   0  0  0  0  0  0
  -31.9573  -22.9399   16.8559 C   0  0  0  0  0  0
  -34.1642  -23.2546   19.7260 C   0  0  0  0  0  0
  -33.8015  -21.4629   21.4204 C   0  0  0  0  0  0
  -31.6962  -24.2373   17.6361 C   0  0  0  0  0  0
  -31.8075  -22.8263   20.6635 C   0  0  0  0  0  0
  -29.4650  -18.7021   20.8981 C   0  0  0  0  0  0
  -29.8127  -20.2041   20.3353 C   0  0  0  0  0  0
  -30.2004  -17.3888   20.2453 C   0  0  0  0  0  0
  -33.1596  -22.2004   20.2306 C   0  0  0  0  0  0
  -28.4791  -23.8892   20.4590 N   0  0  0  0  0  0
  -29.0290  -21.4571   20.7428 N   0  0  0  0  0  0
  -29.8511  -15.9332   20.6282 N   0  0  0  0  0  0
  -31.4841  -12.5912   19.2311 H   0  0  0  0  0  0
  -30.4044  -11.5095   20.0537 H   0  0  0  0  0  0
  -29.8473  -11.6726   17.5882 H   0  0  0  0  0  0
  -29.6646  -13.4085   17.7298 H   0  0  0  0  0  0
  -27.9086  -11.2597   18.9372 H   0  0  0  0  0  0
  -27.4187  -12.4704   17.7872 H   0  0  0  0  0  0
  -27.6114  -14.2378   19.4042 H   0  0  0  0  0  0
  -28.6759  -12.2557   21.4687 H   0  0  0  0  0  0
  -28.3634  -13.9495   21.7415 H   0  0  0  0  0  0
  -25.2736   -9.5721   22.4733 H   0  0  0  0  0  0
  -24.0016   -7.4636   22.7473 H   0  0  0  0  0  0
  -21.0811   -8.8709   19.8923 H   0  0  0  0  0  0
  -22.3647  -10.9643   19.6102 H   0  0  0  0  0  0
  -21.1985   -7.6134   23.9720 H   0  0  0  0  0  0
  -21.1488   -6.0486   25.9078 H   0  0  0  0  0  0
  -22.0613   -2.7605   23.2807 H   0  0  0  0  0  0
  -22.3935  -11.9912   22.4797 H   0  0  0  0  0  0
  -21.1006  -13.1331   22.2496 H   0  0  0  0  0  0
  -24.6735  -15.8607   20.5663 H   0  0  0  0  0  0
  -26.2844  -15.6336   20.1261 H   0  0  0  0  0  0
  -26.7205  -32.5366   23.1013 H   0  0  0  0  0  0
  -25.0027  -33.9650   25.0323 H   0  0  0  0  0  0
  -22.7328  -31.2897   21.3677 H   0  0  0  0  0  0
  -23.3713  -35.9595   23.3318 H   0  0  0  0  0  0
  -24.3544  -36.8881   22.2079 H   0  0  0  0  0  0
  -23.7212  -37.6469   23.6663 H   0  0  0  0  0  0
  -26.0833  -31.5015   20.5592 H   0  0  0  0  0  0
  -26.8593  -30.8393   21.9671 H   0  0  0  0  0  0
  -28.0917  -28.9224   21.2456 H   0  0  0  0  0  0
  -26.0237  -25.8422   19.0410 H   0  0  0  0  0  0
  -23.9956  -27.2414   19.0196 H   0  0  0  0  0  0
  -23.7830  -30.5449   19.3825 H   0  0  0  0  0  0
  -22.7701  -29.2103   19.8443 H   0  0  0  0  0  0
  -25.1256  -36.1868   25.0837 H   0  0  0  0  0  0
  -21.0015  -28.3260   24.1372 H   0  0  0  0  0  0
  -20.5606  -26.2321   23.3619 H   0  0  0  0  0  0
  -21.6629  -26.7399   22.1223 H   0  0  0  0  0  0
  -19.6848  -25.6327   21.1231 H   0  0  0  0  0  0
  -19.6644  -27.3243   20.6768 H   0  0  0  0  0  0
  -17.4175  -26.6765   21.4054 H   0  0  0  0  0  0
  -18.0290  -26.0135   22.9053 H   0  0  0  0  0  0
  -19.7988  -30.7331   24.2215 H   0  0  0  0  0  0
  -17.5072  -31.6291   24.5223 H   0  0  0  0  0  0
  -15.5392  -30.3049   23.7657 H   0  0  0  0  0  0
  -15.8710  -28.0891   22.7032 H   0  0  0  0  0  0
  -24.5933  -30.7041   25.7823 H   0  0  0  0  0  0
  -24.8873  -32.2922   26.4777 H   0  0  0  0  0  0
  -25.8105  -30.9066   27.0241 H   0  0  0  0  0  0
  -26.2806  -29.6843   24.1092 H   0  0  0  0  0  0
  -27.3952  -29.7210   25.4568 H   0  0  0  0  0  0
  -27.8679  -30.4334   23.9315 H   0  0  0  0  0  0
  -27.2639  -33.3646   26.1974 H   0  0  0  0  0  0
  -28.3878  -32.6824   25.0341 H   0  0  0  0  0  0
  -28.0611  -31.8489   26.5452 H   0  0  0  0  0  0
  -28.2572  -38.0042   24.7502 H   0  0  0  0  0  0
  -28.0993  -36.2585   24.6284 H   0  0  0  0  0  0
  -27.2267  -37.1407   25.8886 H   0  0  0  0  0  0
  -20.9389  -29.8794   21.6888 H   0  0  0  0  0  0
  -26.0079  -38.2826   24.1515 H   0  0  0  0  0  0
  -29.8865  -26.0707   18.2907 H   0  0  0  0  0  0
  -32.6505  -23.1325   16.0388 H   0  0  0  0  0  0
  -31.0436  -22.5476   16.4018 H   0  0  0  0  0  0
  -32.4055  -22.1596   17.4696 H   0  0  0  0  0  0
  -35.1726  -23.0718   20.1038 H   0  0  0  0  0  0
  -33.9040  -24.2604   20.0489 H   0  0  0  0  0  0
  -34.2201  -23.2508   18.6392 H   0  0  0  0  0  0
  -34.7553  -21.0180   21.1346 H   0  0  0  0  0  0
  -33.1666  -20.6558   21.7850 H   0  0  0  0  0  0
  -33.9872  -22.1398   22.2559 H   0  0  0  0  0  0
  -32.6086  -24.6987   18.0095 H   0  0  0  0  0  0
  -31.2839  -24.9366   16.9025 H   0  0  0  0  0  0
  -31.4404  -22.2443   21.5049 H   0  0  0  0  0  0
  -32.0036  -23.7906   21.1347 H   0  0  0  0  0  0
  -28.3896  -18.5536   20.8426 H   0  0  0  0  0  0
  -29.7058  -18.6874   21.9609 H   0  0  0  0  0  0
  -29.7818  -20.1606   19.2498 H   0  0  0  0  0  0
  -30.8547  -20.3835   20.5899 H   0  0  0  0  0  0
  -30.0351  -17.4472   19.1676 H   0  0  0  0  0  0
  -31.2761  -17.5085   20.3591 H   0  0  0  0  0  0
  -32.9960  -21.4266   19.4838 H   0  0  0  0  0  0
  -28.0769  -21.3101   21.0578 H   0  0  0  0  0  0
  -28.8842  -15.7489   20.8445 H   0  0  0  0  0  0
  1 25  1  0  0  0
  1 30  2  0  0  0
  1 87  1  0  0  0
  2  3  1  0  0  0
  2 25  1  0  0  0
  2 88  1  0  0  0
  2 89  1  0  0  0
  3  4  1  0  0  0
  3 90  1  0  0  0
  3 91  1  0  0  0
  4  5  1  0  0  0
  4 92  1  0  0  0
  4 93  1  0  0  0
  5  6  1  0  0  0
  5 26  1  0  0  0
  5 94  1  0  0  0
  6 25  1  0  0  0
  6 95  1  0  0  0
  6 96  1  0  0  0
  7  8  2  0  0  0
  7 26  1  0  0  0
  7 29  1  0  0  0
  8  9  1  0  0  0
  8 22  1  0  0  0
  9 10  1  0  0  0
  9 27  2  0  0  0
 10 11  2  0  0  0
 10 15  1  0  0  0
 11 12  1  0  0  0
 11 97  1  0  0  0
 12 13  2  0  0  0
 12 98  1  0  0  0
 13 14  1  0  0  0
 13 31  1  0  0  0
 14 15  2  0  0  0
 14 99  1  0  0  0
 15100  1  0  0  0
 16 17  2  0  0  0
 16 21  1  0  0  0
 16 31  1  0  0  0
 17 18  1  0  0  0
 17101  1  0  0  0
 18 19  2  0  0  0
 18102  1  0  0  0
 19 20  1  0  0  0
 19 24  1  0  0  0
 20 21  2  0  0  0
 20103  1  0  0  0
 21 23  1  0  0  0
 22 28  1  0  0  0
 22 32  2  0  0  0
 26 27  1  0  0  0
 28104  1  0  0  0
 28105  1  0  0  0
 29106  1  0  0  0
 29107  1  0  0  0
 33 34  1  0  0  0
 33 66  1  0  0  0
 33 70  2  0  0  0
 34 36  1  0  0  0
 34 59  1  0  0  0
 34108  1  0  0  0
 35 44  2  0  0  0
 35 45  1  0  0  0
 35 68  1  0  0  0
 36 56  1  0  0  0
 36109  1  0  0  0
 37 39  1  0  0  0
 37 47  1  0  0  0
 37 66  1  0  0  0
 37110  1  0  0  0
 38 43  2  0  0  0
 38 46  1  0  0  0
 38 47  1  0  0  0
 39 64  1  0  0  0
 39 67  2  0  0  0
 40 52  1  0  0  0
 40 53  2  0  0  0
 40 58  1  0  0  0
 41111  1  0  0  0
 41112  1  0  0  0
 41113  1  0  0  0
 41 48  1  0  0  0
 42 43  1  0  0  0
 42 66  1  0  0  0
 42114  1  0  0  0
 42115  1  0  0  0
 43 44  1  0  0  0
 44116  1  0  0  0
 45 46  2  0  0  0
 45117  1  0  0  0
 46118  1  0  0  0
 47119  1  0  0  0
 47120  1  0  0  0
 48 56  1  0  0  0
 48 65  1  0  0  0
 48121  1  0  0  0
 49 50  1  0  0  0
 49 53  1  0  0  0
 49 64  1  0  0  0
 49122  1  0  0  0
 50 51  1  0  0  0
 50123  1  0  0  0
 50124  1  0  0  0
 51 52  1  0  0  0
 51125  1  0  0  0
 51126  1  0  0  0
 52127  1  0  0  0
 52128  1  0  0  0
 53 54  1  0  0  0
 54 55  2  0  0  0
 54129  1  0  0  0
 55 57  1  0  0  0
 55130  1  0  0  0
 56 69  2  0  0  0
 57 58  2  0  0  0
 57131  1  0  0  0
 58132  1  0  0  0
 59 60  1  0  0  0
 59 61  1  0  0  0
 59 62  1  0  0  0
 60133  1  0  0  0
 60134  1  0  0  0
 60135  1  0  0  0
 61136  1  0  0  0
 61137  1  0  0  0
 61138  1  0  0  0
 62139  1  0  0  0
 62140  1  0  0  0
 62141  1  0  0  0
 63 65  1  0  0  0
 63142  1  0  0  0
 63143  1  0  0  0
 63144  1  0  0  0
 64145  1  0  0  0
 65146  1  0  0  0
 68 75  1  0  0  0
 71 72  2  0  0  0
 71 75  1  0  0  0
 71147  1  0  0  0
 72 73  1  0  0  0
 72 79  1  0  0  0
 73 74  2  0  0  0
 73 80  1  0  0  0
 74 85  1  0  0  0
 74 86  1  0  0  0
 75 85  2  0  0  0
 76 79  1  0  0  0
 76148  1  0  0  0
 76149  1  0  0  0
 76150  1  0  0  0
 77151  1  0  0  0
 77152  1  0  0  0
 77153  1  0  0  0
 77 84  1  0  0  0
 78 84  1  0  0  0
 78154  1  0  0  0
 78155  1  0  0  0
 78156  1  0  0  0
 79157  1  0  0  0
 79158  1  0  0  0
 80 84  1  0  0  0
 80159  1  0  0  0
 80160  1  0  0  0
 81 82  1  0  0  0
 81 83  1  0  0  0
 81161  1  0  0  0
 81162  1  0  0  0
 82 86  1  0  0  0
 82163  1  0  0  0
 82164  1  0  0  0
 83 87  1  0  0  0
 83165  1  0  0  0
 83166  1  0  0  0
 84167  1  0  0  0
 86168  1  0  0  0
 87169  1  0  0  0
M  ISO  4   1 100  68 101  75 101  87 100
M  END
> <chiral flag>
0

> <version>
0

> <s_m_source_file>
/data/baiqing/PycharmProjects/Reinvent-master-3.2/result/LINK_invent/BTK/process_docking_weight1_custom_sum_contain_oxygen_bond_distance_aromatic_linkinvent_7_9_3/rearranged_h_0140.sdf

> <i_m_source_file_index>
72

> <r_mmod_Potential_Energy-OPLS-2005>
209.123962402344

> <r_mmod_Stretch_Energy-OPLS-2005>
143.447967529297

> <r_mmod_Bend_Energy-OPLS-2005>
237.785888671875

> <r_mmod_Torsional_Energy-OPLS-2005>
377.665496826172

> <r_mmod_Improper_Torsional_Energy-OPLS-2005>
24.0169372558594

> <r_mmod_Van_der_Waal_Energy-OPLS-2005>
136.673294067383

> <r_mmod_Electrostatic_Energy-OPLS-2005>
-588.339721679688

> <r_mmod_Solvation_Energy-OPLS-2005>
-230.462463378906

> <b_mmod_Minimization_Converged-OPLS-2005>
0

> <r_mmod_RMS_Derivative-OPLS-2005>
7.80148649215698

$$$$
72
                    3D
 Structure written by MMmdl.
167176  0  0  1  0            999 V2000
  -30.6734  -14.6383   20.4797 C   0  0  0  0  0  0
  -30.4180  -12.3912   19.4638 C   0  0  0  0  0  0
  -29.5016  -12.4934   18.2266 C   0  0  0  0  0  0
  -28.0262  -12.3363   18.6400 C   0  0  0  0  0  0
  -27.6445  -13.2273   19.8531 C   0  0  2  0  0  0
  -28.6885  -13.1368   20.9890 C   0  0  0  0  0  0
  -25.2517  -13.8161   20.5691 C   0  0  0  0  0  0
  -24.1806  -13.0429   20.9212 C   0  0  0  0  0  0
  -24.6394  -11.6904   20.8756 C   0  0  0  0  0  0
  -23.9072  -10.4285   21.0409 C   0  0  0  0  0  0
  -24.3621   -9.4197   21.9187 C   0  0  0  0  0  0
  -23.6294   -8.2234   22.0747 C   0  0  0  0  0  0
  -22.4270   -8.0279   21.3543 C   0  0  0  0  0  0
  -21.9914   -9.0252   20.4642 C   0  0  0  0  0  0
  -22.7245  -10.2131   20.3054 C   0  0  0  0  0  0
  -21.6848   -6.0737   22.5286 C   0  0  0  0  0  0
  -21.4011   -6.5642   23.8221 C   0  0  0  0  0  0
  -21.3653   -5.6797   24.9185 C   0  0  0  0  0  0
  -21.6042   -4.3060   24.7236 C   0  0  0  0  0  0
  -21.8819   -3.8150   23.4360 C   0  0  0  0  0  0
  -21.9187   -4.6963   22.3413 C   0  0  0  0  0  0
  -22.7831  -13.5219   21.1872 C   0  0  0  0  0  0
  -22.1651   -4.2148   21.0992 F   0  0  0  0  0  0
  -21.5630   -3.4538   25.7745 F   0  0  0  0  0  0
  -30.0003  -13.4469   20.4104 N   0  0  0  0  0  0
  -26.2950  -12.9379   20.3289 N   0  0  0  0  0  0
  -25.9321  -11.6523   20.5756 N   0  0  0  0  0  0
  -22.0469  -12.8210   22.0426 N   0  0  0  0  0  0
  -25.4215  -15.1866   20.4102 N   0  0  0  0  0  0
  -31.8549  -14.7093   20.1347 O   0  0  0  0  0  0
  -21.6636   -6.8875   21.4243 O   0  0  0  0  0  0
  -22.3520  -14.5526   20.6723 O   0  0  0  0  0  0
  -24.6242  -31.8602   23.2030 C   0  0  0  0  0  0
  -25.9100  -32.4780   23.8353 C   0  0  1  0  0  0
  -27.2231  -27.3358   20.1322 C   0  0  0  0  0  0
  -25.5923  -33.8576   24.2287 N   0  0  0  0  0  0
  -23.4172  -30.4819   21.5442 C   0  0  2  0  0  0
  -24.8652  -28.9335   20.1146 C   0  0  0  0  0  0
  -22.7462  -29.4620   22.4945 C   0  0  0  0  0  0
  -18.0280  -28.1383   22.8488 C   0  0  0  0  0  0
  -24.1489  -36.7289   23.2639 C   0  0  0  0  0  0
  -25.9547  -30.7994   21.3671 C   0  0  0  0  0  0
  -26.0318  -29.4255   20.7157 C   0  0  0  0  0  0
  -27.2187  -28.6386   20.7107 C   0  0  0  0  0  0
  -26.0398  -26.8834   19.5148 C   0  0  0  0  0  0
  -24.8694  -27.6677   19.5041 C   0  0  0  0  0  0
  -23.6319  -29.8117   20.1603 C   0  0  0  0  0  0
  -25.4111  -36.3078   24.0332 C   0  0  1  0  0  0
  -20.5878  -28.3675   23.1298 C   0  0  2  0  0  0
  -20.6764  -26.9403   22.5411 C   0  0  0  0  0  0
  -19.5744  -26.6385   21.5210 C   0  0  0  0  0  0
  -18.1925  -26.7929   22.1620 C   0  0  0  0  0  0
  -19.1534  -28.8846   23.2884 C   0  0  0  0  0  0
  -18.9458  -30.1451   23.8893 C   0  0  0  0  0  0
  -17.6458  -30.6585   24.0560 C   0  0  0  0  0  0
  -25.9044  -34.9450   23.5109 C   0  0  0  0  0  0
  -16.5349  -29.9079   23.6336 C   0  0  0  0  0  0
  -16.7268  -28.6501   23.0352 C   0  0  0  0  0  0
  -26.4502  -31.6580   25.0707 C   0  0  0  0  0  0
  -25.3753  -31.3699   26.1441 C   0  0  0  0  0  0
  -27.0342  -30.3014   24.6127 C   0  0  0  0  0  0
  -27.6063  -32.4307   25.7480 C   0  0  0  0  0  0
  -27.5578  -37.1799   24.8468 C   0  0  0  0  0  0
  -21.4177  -29.3034   22.3696 N   0  0  0  0  0  0
  -26.4290  -37.3774   23.9413 N   0  0  0  0  0  0
  -24.6841  -31.0637   22.0957 N   0  0  0  0  0  0
  -23.4198  -28.8161   23.3017 O   0  0  0  0  0  0
  -28.3375  -26.4964   20.1386 O   0  0  0  0  0  0
  -26.5603  -34.8922   22.4669 O   0  0  0  0  0  0
  -23.5409  -32.1379   23.7377 O   0  0  0  0  0  0
  -28.7920  -20.6239   19.7597 C   0  0  0  0  0  0
  -30.1189  -19.3258   21.8080 C   0  0  0  0  0  0
  -29.8537  -18.5532   20.6476 C   0  0  0  0  0  0
  -29.1311  -19.2351   19.6181 C   0  0  0  0  0  0
  -29.1225  -21.3534   20.9294 C   0  0  0  0  0  0
  -26.5861  -17.9574   17.2579 C   0  0  0  0  0  0
  -27.6134  -18.9732   17.6926 C   0  0  1  0  0  0
  -26.2170  -18.9975   18.2941 C   0  0  0  0  0  0
  -25.9582  -18.5538   19.7248 C   0  0  0  0  0  0
  -25.2752  -20.1223   17.9116 C   0  0  0  0  0  0
  -30.5769  -17.1605   20.4539 C   0  0  0  0  0  0
  -28.6328  -23.8381   20.2104 C   0  0  0  0  0  0
  -28.2120  -25.2249   20.8756 C   0  0  0  0  0  0
  -29.7508  -20.6395   21.9026 N   0  3  0  0  0  0
  -28.7642  -18.5220   18.4630 N   0  0  0  0  0  0
  -28.8280  -22.7317   21.1921 N   0  0  0  0  0  0
  -29.9722  -15.7985   20.7059 N   0  0  0  0  0  0
  -31.4632  -12.4826   19.1634 H   0  0  0  0  0  0
  -30.3290  -11.4088   19.9300 H   0  0  0  0  0  0
  -29.7669  -11.7292   17.4949 H   0  0  0  0  0  0
  -29.6483  -13.4549   17.7319 H   0  0  0  0  0  0
  -27.8677  -11.2864   18.8884 H   0  0  0  0  0  0
  -27.3713  -12.5487   17.7939 H   0  0  0  0  0  0
  -27.6482  -14.2539   19.4850 H   0  0  0  0  0  0
  -28.6973  -12.1400   21.4318 H   0  0  0  0  0  0
  -28.4416  -13.8277   21.7966 H   0  0  0  0  0  0
  -25.2761   -9.5672   22.4766 H   0  0  0  0  0  0
  -24.0004   -7.4621   22.7458 H   0  0  0  0  0  0
  -21.0849   -8.8779   19.8940 H   0  0  0  0  0  0
  -22.3711  -10.9676   19.6165 H   0  0  0  0  0  0
  -21.2005   -7.6153   23.9725 H   0  0  0  0  0  0
  -21.1468   -6.0527   25.9085 H   0  0  0  0  0  0
  -22.0600   -2.7607   23.2867 H   0  0  0  0  0  0
  -22.4073  -11.9862   22.4805 H   0  0  0  0  0  0
  -21.1077  -13.1226   22.2610 H   0  0  0  0  0  0
  -24.6519  -15.8372   20.5147 H   0  0  0  0  0  0
  -26.2640  -15.6214   20.0614 H   0  0  0  0  0  0
  -26.7164  -32.5465   23.1102 H   0  0  0  0  0  0
  -25.0106  -33.9721   25.0455 H   0  0  0  0  0  0
  -22.7104  -31.3013   21.3990 H   0  0  0  0  0  0
  -23.3754  -35.9620   23.3304 H   0  0  0  0  0  0
  -24.3585  -36.8899   22.2054 H   0  0  0  0  0  0
  -23.7239  -37.6493   23.6656 H   0  0  0  0  0  0
  -26.0769  -31.5616   20.5961 H   0  0  0  0  0  0
  -26.8385  -30.8547   21.9906 H   0  0  0  0  0  0
  -28.1184  -29.0122   21.1791 H   0  0  0  0  0  0
  -26.0186  -25.9085   19.0483 H   0  0  0  0  0  0
  -23.9741  -27.2857   19.0329 H   0  0  0  0  0  0
  -23.7484  -30.5847   19.3997 H   0  0  0  0  0  0
  -22.7541  -29.2360   19.8607 H   0  0  0  0  0  0
  -25.1293  -36.1929   25.0826 H   0  0  0  0  0  0
  -20.9973  -28.3235   24.1418 H   0  0  0  0  0  0
  -20.5666  -26.2278   23.3599 H   0  0  0  0  0  0
  -21.6634  -26.7430   22.1206 H   0  0  0  0  0  0
  -19.6902  -25.6297   21.1233 H   0  0  0  0  0  0
  -19.6693  -27.3198   20.6746 H   0  0  0  0  0  0
  -17.4200  -26.6685   21.4017 H   0  0  0  0  0  0
  -18.0321  -26.0066   22.9011 H   0  0  0  0  0  0
  -19.7935  -30.7270   24.2257 H   0  0  0  0  0  0
  -17.5014  -31.6268   24.5156 H   0  0  0  0  0  0
  -15.5349  -30.2976   23.7668 H   0  0  0  0  0  0
  -15.8669  -28.0819   22.7064 H   0  0  0  0  0  0
  -24.5937  -30.7033   25.7779 H   0  0  0  0  0  0
  -24.8934  -32.2853   26.4880 H   0  0  0  0  0  0
  -25.8095  -30.8878   27.0207 H   0  0  0  0  0  0
  -26.2894  -29.6759   24.1188 H   0  0  0  0  0  0
  -27.4103  -29.7269   25.4604 H   0  0  0  0  0  0
  -27.8739  -30.4321   23.9296 H   0  0  0  0  0  0
  -27.2682  -33.3614   26.2050 H   0  0  0  0  0  0
  -28.3886  -32.6847   25.0314 H   0  0  0  0  0  0
  -28.0720  -31.8431   26.5404 H   0  0  0  0  0  0
  -28.2590  -38.0099   24.7515 H   0  0  0  0  0  0
  -28.1072  -36.2630   24.6290 H   0  0  0  0  0  0
  -27.2297  -37.1438   25.8869 H   0  0  0  0  0  0
  -20.9351  -29.8757   21.6909 H   0  0  0  0  0  0
  -26.0171  -38.2848   24.1414 H   0  0  0  0  0  0
  -28.2668  -21.1361   18.9702 H   0  0  0  0  0  0
  -30.6809  -18.9365   22.6484 H   0  0  0  0  0  0
  -26.7020  -16.9294   17.5959 H   0  0  0  0  0  0
  -26.1599  -18.0682   16.2622 H   0  0  0  0  0  0
  -27.8866  -19.7433   16.9719 H   0  0  0  0  0  0
  -26.6207  -17.7365   20.0087 H   0  0  0  0  0  0
  -24.9291  -18.2103   19.8345 H   0  0  0  0  0  0
  -26.1187  -19.3801   20.4180 H   0  0  0  0  0  0
  -25.4552  -20.4461   16.8859 H   0  0  0  0  0  0
  -25.4186  -20.9801   18.5700 H   0  0  0  0  0  0
  -24.2375  -19.7953   17.9874 H   0  0  0  0  0  0
  -31.4817  -17.2079   21.0629 H   0  0  0  0  0  0
  -30.9539  -17.1563   19.4292 H   0  0  0  0  0  0
  -29.5711  -23.9710   19.6727 H   0  0  0  0  0  0
  -27.8879  -23.5438   19.4710 H   0  0  0  0  0  0
  -28.8417  -25.3646   21.7549 H   0  0  0  0  0  0
  -27.2034  -25.1170   21.2782 H   0  0  0  0  0  0
  -30.0051  -21.1260   22.7679 H   0  0  0  0  0  0
  -28.9645  -17.5297   18.4537 H   0  0  0  0  0  0
  -29.0279  -23.0572   22.1257 H   0  0  0  0  0  0
  -28.9963  -15.7330   20.9519 H   0  0  0  0  0  0
  1 25  1  0  0  0
  1 30  2  0  0  0
  1 87  1  0  0  0
  2  3  1  0  0  0
  2 25  1  0  0  0
  2 88  1  0  0  0
  2 89  1  0  0  0
  3  4  1  0  0  0
  3 90  1  0  0  0
  3 91  1  0  0  0
  4  5  1  0  0  0
  4 92  1  0  0  0
  4 93  1  0  0  0
  5  6  1  0  0  0
  5 26  1  0  0  0
  5 94  1  0  0  0
  6 25  1  0  0  0
  6 95  1  0  0  0
  6 96  1  0  0  0
  7  8  2  0  0  0
  7 26  1  0  0  0
  7 29  1  0  0  0
  8  9  1  0  0  0
  8 22  1  0  0  0
  9 10  1  0  0  0
  9 27  2  0  0  0
 10 11  2  0  0  0
 10 15  1  0  0  0
 11 12  1  0  0  0
 11 97  1  0  0  0
 12 13  2  0  0  0
 12 98  1  0  0  0
 13 14  1  0  0  0
 13 31  1  0  0  0
 14 15  2  0  0  0
 14 99  1  0  0  0
 15100  1  0  0  0
 16 17  2  0  0  0
 16 21  1  0  0  0
 16 31  1  0  0  0
 17 18  1  0  0  0
 17101  1  0  0  0
 18 19  2  0  0  0
 18102  1  0  0  0
 19 20  1  0  0  0
 19 24  1  0  0  0
 20 21  2  0  0  0
 20103  1  0  0  0
 21 23  1  0  0  0
 22 28  1  0  0  0
 22 32  2  0  0  0
 26 27  1  0  0  0
 28104  1  0  0  0
 28105  1  0  0  0
 29106  1  0  0  0
 29107  1  0  0  0
 33 34  1  0  0  0
 33 66  1  0  0  0
 33 70  2  0  0  0
 34 36  1  0  0  0
 34 59  1  0  0  0
 34108  1  0  0  0
 35 44  2  0  0  0
 35 45  1  0  0  0
 35 68  1  0  0  0
 36 56  1  0  0  0
 36109  1  0  0  0
 37 39  1  0  0  0
 37 47  1  0  0  0
 37 66  1  0  0  0
 37110  1  0  0  0
 38 43  2  0  0  0
 38 46  1  0  0  0
 38 47  1  0  0  0
 39 64  1  0  0  0
 39 67  2  0  0  0
 40 52  1  0  0  0
 40 53  2  0  0  0
 40 58  1  0  0  0
 41111  1  0  0  0
 41112  1  0  0  0
 41113  1  0  0  0
 41 48  1  0  0  0
 42 43  1  0  0  0
 42 66  1  0  0  0
 42114  1  0  0  0
 42115  1  0  0  0
 43 44  1  0  0  0
 44116  1  0  0  0
 45 46  2  0  0  0
 45117  1  0  0  0
 46118  1  0  0  0
 47119  1  0  0  0
 47120  1  0  0  0
 48 56  1  0  0  0
 48 65  1  0  0  0
 48121  1  0  0  0
 49 50  1  0  0  0
 49 53  1  0  0  0
 49 64  1  0  0  0
 49122  1  0  0  0
 50 51  1  0  0  0
 50123  1  0  0  0
 50124  1  0  0  0
 51 52  1  0  0  0
 51125  1  0  0  0
 51126  1  0  0  0
 52127  1  0  0  0
 52128  1  0  0  0
 53 54  1  0  0  0
 54 55  2  0  0  0
 54129  1  0  0  0
 55 57  1  0  0  0
 55130  1  0  0  0
 56 69  2  0  0  0
 57 58  2  0  0  0
 57131  1  0  0  0
 58132  1  0  0  0
 59 60  1  0  0  0
 59 61  1  0  0  0
 59 62  1  0  0  0
 60133  1  0  0  0
 60134  1  0  0  0
 60135  1  0  0  0
 61136  1  0  0  0
 61137  1  0  0  0
 61138  1  0  0  0
 62139  1  0  0  0
 62140  1  0  0  0
 62141  1  0  0  0
 63 65  1  0  0  0
 63142  1  0  0  0
 63143  1  0  0  0
 63144  1  0  0  0
 64145  1  0  0  0
 65146  1  0  0  0
 68 83  1  0  0  0
 71 74  2  0  0  0
 71 75  1  0  0  0
 71147  1  0  0  0
 72 73  2  0  0  0
 72 84  1  0  0  0
 72148  1  0  0  0
 73 74  1  0  0  0
 73 81  1  0  0  0
 74 85  1  0  0  0
 75 84  2  0  0  0
 75 86  1  0  0  0
 76 77  1  0  0  0
 76 78  1  0  0  0
 76149  1  0  0  0
 76150  1  0  0  0
 77 78  1  0  0  0
 77 85  1  0  0  0
 77151  1  0  0  0
 78 79  1  0  0  0
 78 80  1  0  0  0
 79152  1  0  0  0
 79153  1  0  0  0
 79154  1  0  0  0
 80155  1  0  0  0
 80156  1  0  0  0
 80157  1  0  0  0
 81 87  1  0  0  0
 81158  1  0  0  0
 81159  1  0  0  0
 82 83  1  0  0  0
 82 86  1  0  0  0
 82160  1  0  0  0
 82161  1  0  0  0
 83162  1  0  0  0
 83163  1  0  0  0
 84164  1  0  0  0
 85165  1  0  0  0
 86166  1  0  0  0
 87167  1  0  0  0
M  CHG  1  84   1
M  ISO  4   1 100  68 101  83 101  87 100
M  END
> <chiral flag>
0

> <version>
0

> <s_m_source_file>
/data/baiqing/PycharmProjects/Reinvent-master-3.2/result/LINK_invent/BTK/process_docking_weight1_custom_sum_contain_oxygen_bond_distance_aromatic_linkinvent_7_9_3/rearranged_h_0140.sdf

> <i_m_source_file_index>
73

> <r_mmod_Potential_Energy-OPLS-2005>
0.102856501936913

> <r_mmod_Stretch_Energy-OPLS-2005>
75.936164855957

> <r_mmod_Bend_Energy-OPLS-2005>
166.22380065918

> <r_mmod_Torsional_Energy-OPLS-2005>
298.412750244141

> <r_mmod_Improper_Torsional_Energy-OPLS-2005>
9.99406051635742

> <r_mmod_Van_der_Waal_Energy-OPLS-2005>
134.514022827148

> <r_mmod_Electrostatic_Energy-OPLS-2005>
-308.764862060547

> <r_mmod_Solvation_Energy-OPLS-2005>
-423.779144287109

> <b_mmod_Minimization_Converged-OPLS-2005>
0

> <r_mmod_RMS_Derivative-OPLS-2005>
1.05835628509521

$$$$
73
                    3D
 Structure written by MMmdl.
174184  0  0  1  0            999 V2000
  -31.0672  -14.5710   19.7173 C   0  0  0  0  0  0
  -30.6066  -12.2280   19.5600 C   0  0  0  0  0  0
  -29.6227  -12.1911   18.4128 C   0  0  0  0  0  0
  -28.3239  -12.7119   19.0215 C   0  0  0  0  0  0
  -28.2407  -14.2742   19.9487 C   0  0  2  0  0  0
  -29.2272  -13.7610   21.0251 C   0  0  0  0  0  0
  -24.9111  -15.0963   20.7733 C   0  0  0  0  0  0
  -23.9031  -13.8957   20.9200 C   0  0  0  0  0  0
  -24.3393  -12.6651   20.3481 C   0  0  0  0  0  0
  -23.7861  -11.1218   20.8535 C   0  0  0  0  0  0
  -24.3031  -10.0933   21.7820 C   0  0  0  0  0  0
  -23.7094   -8.7652   22.0297 C   0  0  0  0  0  0
  -22.5481   -8.3082   21.3419 C   0  0  0  0  0  0
  -22.0700   -9.2324   20.3947 C   0  0  0  0  0  0
  -22.6611  -10.5311   20.1819 C   0  0  0  0  0  0
  -21.8124   -6.1976   22.5133 C   0  0  0  0  0  0
  -21.5026   -6.6492   23.8147 C   0  0  0  0  0  0
  -21.3949   -5.7372   24.8934 C   0  0  0  0  0  0
  -21.5964   -4.3593   24.6902 C   0  0  0  0  0  0
  -21.8767   -3.8877   23.3955 C   0  0  0  0  0  0
  -21.9621   -4.7944   22.3155 C   0  0  0  0  0  0
  -22.4073  -13.9719   21.2785 C   0  0  0  0  0  0
  -22.1868   -4.2956   21.0746 F   0  0  0  0  0  0
  -21.5403   -3.4920   25.7319 F   0  0  0  0  0  0
  -30.4152  -13.5154   20.2208 N   0  0  0  0  0  0
  -26.3392  -15.1430   20.5920 N   0  0  0  0  0  0
  -24.7403  -14.1202   20.5390 N   0  0  0  0  0  0
  -21.8565  -12.9700   21.9382 N   0  0  0  0  0  0
  -26.5235  -15.5125   20.6425 N   0  0  0  0  0  0
  -32.0834  -14.9591   20.2583 O   0  0  0  0  0  0
  -21.8803   -7.0653   21.4261 O   0  0  0  0  0  0
  -21.8217  -14.9596   20.9182 O   0  0  0  0  0  0
  -24.7948  -31.6077   23.0586 C   0  0  0  0  0  0
  -25.9919  -32.3509   23.7456 C   0  0  1  0  0  0
  -26.3779  -25.0364   20.4342 C   0  0  0  0  0  0
  -25.5944  -33.7499   24.1109 N   0  0  0  0  0  0
  -23.6291  -30.2012   21.4475 C   0  0  2  0  0  0
  -24.9209  -28.2036   20.1306 C   0  0  0  0  0  0
  -22.7947  -29.3385   22.4383 C   0  0  0  0  0  0
  -18.0333  -28.1475   22.8406 C   0  0  0  0  0  0
  -24.1484  -36.6761   23.2694 C   0  0  0  0  0  0
  -26.1706  -29.7278   21.5906 C   0  0  0  0  0  0
  -26.0319  -28.1368   20.9548 C   0  0  0  0  0  0
  -26.7264  -26.6341   21.0369 C   0  0  0  0  0  0
  -25.4772  -25.7175   19.4721 C   0  0  0  0  0  0
  -24.8004  -27.0342   19.3506 C   0  0  0  0  0  0
  -23.9084  -29.4187   20.1118 C   0  0  0  0  0  0
  -25.4169  -36.2381   24.0189 C   0  0  1  0  0  0
  -20.5959  -28.3783   23.1027 C   0  0  2  0  0  0
  -20.6702  -26.9353   22.5491 C   0  0  0  0  0  0
  -19.5729  -26.6289   21.5255 C   0  0  0  0  0  0
  -18.1892  -26.7993   22.1600 C   0  0  0  0  0  0
  -19.1625  -28.8996   23.2650 C   0  0  0  0  0  0
  -18.9536  -30.1567   23.8717 C   0  0  0  0  0  0
  -17.6523  -30.6631   24.0523 C   0  0  0  0  0  0
  -25.9222  -34.8784   23.4607 C   0  0  0  0  0  0
  -16.5398  -29.9094   23.6380 C   0  0  0  0  0  0
  -16.7301  -28.6540   23.0339 C   0  0  0  0  0  0
  -26.4818  -31.6346   25.0668 C   0  0  0  0  0  0
  -25.3590  -31.4025   26.1066 C   0  0  0  0  0  0
  -27.0979  -30.2615   24.7552 C   0  0  0  0  0  0
  -27.5989  -32.4628   25.7449 C   0  0  0  0  0  0
  -27.5500  -37.1498   24.8443 C   0  0  0  0  0  0
  -21.4557  -29.2758   22.3161 N   0  0  0  0  0  0
  -26.4146  -37.3296   23.9441 N   0  0  0  0  0  0
  -24.9226  -30.5981   22.0714 N   0  0  0  0  0  0
  -23.3891  -28.7161   23.3167 O   0  0  0  0  0  0
  -26.6526  -23.0603   20.5256 O   0  0  0  0  0  0
  -26.6108  -34.8669   22.4409 O   0  0  0  0  0  0
  -23.6790  -31.9931   23.4739 O   0  0  0  0  0  0
  -26.6253  -13.0500   20.9535 C   0  0  0  0  0  0
  -25.8041  -16.5418   18.8172 C   0  0  0  0  0  0
  -26.3796  -14.4260   22.6738 C   0  0  0  0  0  0
  -25.9590  -16.6577   22.4337 C   0  0  0  0  0  0
  -25.9219  -17.8686   20.6076 C   0  0  0  0  0  0
  -26.1946  -14.2673   18.6663 C   0  0  0  0  0  0
  -26.1832  -14.7590   24.1301 C   0  0  0  0  0  0
  -20.7618  -13.4084   26.9776 C   0  0  0  0  0  0
  -20.6673  -12.9711   25.5429 C   0  0  0  0  0  0
  -25.5992  -16.3633   23.9629 C   0  0  2  0  0  0
  -21.9076  -13.6976   26.0111 C   0  0  0  0  0  0
  -23.7940  -17.6145   25.3261 C   0  0  0  0  0  0
  -25.9655  -20.5705   20.5173 C   0  0  0  0  0  0
  -22.2337  -15.1175   25.5626 C   0  0  0  0  0  0
  -29.7068  -15.0740   17.2998 C   0  0  0  0  0  0
  -28.0508  -15.0548   17.1613 C   0  0  0  0  0  0
  -24.0658  -16.4757   24.3249 C   0  0  2  0  0  0
  -30.6329  -15.2023   18.5455 N   0  0  0  0  0  0
  -23.5060  -15.1684   24.8036 N   0  3  0  0  0  0
  -26.8724  -14.1396   17.4357 O   0  0  0  0  0  0
  -31.6298  -12.0905   19.2075 H   0  0  0  0  0  0
  -30.3978  -11.4377   20.2782 H   0  0  0  0  0  0
  -29.4807  -11.1664   18.0681 H   0  0  0  0  0  0
  -29.9868  -12.6769   17.5322 H   0  0  0  0  0  0
  -28.2057  -11.8737   19.7038 H   0  0  0  0  0  0
  -27.5357  -12.3438   18.3766 H   0  0  0  0  0  0
  -28.6814  -15.1642   19.6033 H   0  0  0  0  0  0
  -28.9865  -12.8452   21.5609 H   0  0  0  0  0  0
  -29.3976  -14.5249   21.7781 H   0  0  0  0  0  0
  -25.2057  -10.3579   22.3218 H   0  0  0  0  0  0
  -24.1750   -8.1155   22.7426 H   0  0  0  0  0  0
  -21.2311   -8.9454   19.7585 H   0  0  0  0  0  0
  -22.2145  -11.1376   19.4059 H   0  0  0  0  0  0
  -21.3544   -7.7032   24.0008 H   0  0  0  0  0  0
  -21.1543   -6.0946   25.8816 H   0  0  0  0  0  0
  -22.0056   -2.8316   23.2182 H   0  0  0  0  0  0
  -20.8808  -13.0515   22.1638 H   0  0  0  0  0  0
  -22.4053  -12.1496   22.1523 H   0  0  0  0  0  0
  -26.9657  -15.1111   21.4810 H   0  0  0  0  0  0
  -26.5531  -16.5217   20.7625 H   0  0  0  0  0  0
  -26.8071  -32.3793   23.0217 H   0  0  0  0  0  0
  -24.9740  -33.8272   24.9026 H   0  0  0  0  0  0
  -23.0411  -31.0861   21.1894 H   0  0  0  0  0  0
  -23.3800  -35.9017   23.3098 H   0  0  0  0  0  0
  -24.3522  -36.8791   22.2162 H   0  0  0  0  0  0
  -23.7180  -37.5769   23.7073 H   0  0  0  0  0  0
  -26.6325  -30.3230   20.8017 H   0  0  0  0  0  0
  -26.9471  -29.6898   22.3334 H   0  0  0  0  0  0
  -27.5135  -26.6120   21.7722 H   0  0  0  0  0  0
  -25.0765  -25.0149   18.7567 H   0  0  0  0  0  0
  -24.0346  -27.0733   18.5865 H   0  0  0  0  0  0
  -24.2773  -30.1187   19.3628 H   0  0  0  0  0  0
  -22.9644  -29.0543   19.7011 H   0  0  0  0  0  0
  -25.1449  -36.0888   25.0645 H   0  0  0  0  0  0
  -20.9998  -28.3516   24.1172 H   0  0  0  0  0  0
  -20.5454  -26.2392   23.3797 H   0  0  0  0  0  0
  -21.6535  -26.7101   22.1356 H   0  0  0  0  0  0
  -19.6807  -25.6136   21.1371 H   0  0  0  0  0  0
  -19.6768  -27.3026   20.6727 H   0  0  0  0  0  0
  -17.4166  -26.6757   21.3964 H   0  0  0  0  0  0
  -18.0212  -26.0192   22.9042 H   0  0  0  0  0  0
  -19.8019  -30.7411   24.1991 H   0  0  0  0  0  0
  -17.5075  -31.6307   24.5176 H   0  0  0  0  0  0
  -15.5386  -30.2950   23.7837 H   0  0  0  0  0  0
  -15.8678  -28.0828   22.7121 H   0  0  0  0  0  0
  -24.5780  -30.7407   25.7300 H   0  0  0  0  0  0
  -24.8805  -32.3379   26.3957 H   0  0  0  0  0  0
  -25.7488  -30.9455   27.0162 H   0  0  0  0  0  0
  -26.3587  -29.5518   24.3827 H   0  0  0  0  0  0
  -27.5041  -29.8064   25.6597 H   0  0  0  0  0  0
  -27.9363  -30.3419   24.0639 H   0  0  0  0  0  0
  -27.2298  -33.4125   26.1314 H   0  0  0  0  0  0
  -28.4087  -32.6868   25.0500 H   0  0  0  0  0  0
  -28.0327  -31.9310   26.5913 H   0  0  0  0  0  0
  -28.2320  -37.9968   24.7593 H   0  0  0  0  0  0
  -28.1192  -36.2479   24.6135 H   0  0  0  0  0  0
  -27.2248  -37.0933   25.8844 H   0  0  0  0  0  0
  -21.0115  -29.8240   21.5950 H   0  0  0  0  0  0
  -25.9838  -38.2242   24.1565 H   0  0  0  0  0  0
  -26.8150  -11.9794   21.1095 H   0  0  0  0  0  0
  -25.7714  -17.0365   17.8655 H   0  0  0  0  0  0
  -27.1618  -14.7492   24.6151 H   0  0  0  0  0  0
  -25.5703  -13.9875   24.6027 H   0  0  0  0  0  0
  -20.8602  -12.5979   27.7037 H   0  0  0  0  0  0
  -20.0769  -14.2017   27.2692 H   0  0  0  0  0  0
  -19.9549  -13.4956   24.9158 H   0  0  0  0  0  0
  -20.7643  -11.9069   25.3409 H   0  0  0  0  0  0
  -26.2054  -17.0141   24.5762 H   0  0  0  0  0  0
  -22.7814  -13.0716   26.1692 H   0  0  0  0  0  0
  -24.1727  -18.5349   24.8954 H   0  0  0  0  0  0
  -24.2749  -17.4691   26.2936 H   0  0  0  0  0  0
  -22.7353  -17.8051   25.4817 H   0  0  0  0  0  0
  -25.2764  -20.6586   21.3540 H   0  0  0  0  0  0
  -25.3063  -20.6326   19.6539 H   0  0  0  0  0  0
  -22.3727  -15.7008   26.4618 H   0  0  0  0  0  0
  -21.4165  -15.5545   25.0049 H   0  0  0  0  0  0
  -29.9493  -16.0276   16.8346 H   0  0  0  0  0  0
  -30.1933  -14.4350   16.5785 H   0  0  0  0  0  0
  -28.3306  -14.0232   17.1226 H   0  0  0  0  0  0
  -27.8959  -15.7708   17.9504 H   0  0  0  0  0  0
  -23.4779  -16.7077   23.4397 H   0  0  0  0  0  0
  -31.2101  -16.0185   18.4164 H   0  0  0  0  0  0
  -23.4520  -14.5457   24.0169 H   0  0  0  0  0  0
  -24.1839  -14.7644   25.4245 H   0  0  0  0  0  0
  1 25  1  0  0  0
  1 30  2  0  0  0
  1 88  1  0  0  0
  2  3  1  0  0  0
  2 25  1  0  0  0
  2 91  1  0  0  0
  2 92  1  0  0  0
  3  4  1  0  0  0
  3 93  1  0  0  0
  3 94  1  0  0  0
  4  5  1  0  0  0
  4 95  1  0  0  0
  4 96  1  0  0  0
  5  6  1  0  0  0
  5 26  1  0  0  0
  5 97  1  0  0  0
  6 25  1  0  0  0
  6 98  1  0  0  0
  6 99  1  0  0  0
  7  8  2  0  0  0
  7 26  1  0  0  0
  7 29  1  0  0  0
  8  9  1  0  0  0
  8 22  1  0  0  0
  9 10  1  0  0  0
  9 27  2  0  0  0
 10 11  2  0  0  0
 10 15  1  0  0  0
 11 12  1  0  0  0
 11100  1  0  0  0
 12 13  2  0  0  0
 12101  1  0  0  0
 13 14  1  0  0  0
 13 31  1  0  0  0
 14 15  2  0  0  0
 14102  1  0  0  0
 15103  1  0  0  0
 16 17  2  0  0  0
 16 21  1  0  0  0
 16 31  1  0  0  0
 17 18  1  0  0  0
 17104  1  0  0  0
 18 19  2  0  0  0
 18105  1  0  0  0
 19 20  1  0  0  0
 19 24  1  0  0  0
 20 21  2  0  0  0
 20106  1  0  0  0
 21 23  1  0  0  0
 22 28  1  0  0  0
 22 32  2  0  0  0
 26 27  1  0  0  0
 28107  1  0  0  0
 28108  1  0  0  0
 29109  1  0  0  0
 29110  1  0  0  0
 33 34  1  0  0  0
 33 66  1  0  0  0
 33 70  2  0  0  0
 34 36  1  0  0  0
 34 59  1  0  0  0
 34111  1  0  0  0
 35 44  2  0  0  0
 35 45  1  0  0  0
 35 68  1  0  0  0
 36 56  1  0  0  0
 36112  1  0  0  0
 37 39  1  0  0  0
 37 47  1  0  0  0
 37 66  1  0  0  0
 37113  1  0  0  0
 38 43  2  0  0  0
 38 46  1  0  0  0
 38 47  1  0  0  0
 39 64  1  0  0  0
 39 67  2  0  0  0
 40 52  1  0  0  0
 40 53  2  0  0  0
 40 58  1  0  0  0
 41114  1  0  0  0
 41115  1  0  0  0
 41116  1  0  0  0
 41 48  1  0  0  0
 42 43  1  0  0  0
 42 66  1  0  0  0
 42117  1  0  0  0
 42118  1  0  0  0
 43 44  1  0  0  0
 44119  1  0  0  0
 45 46  2  0  0  0
 45120  1  0  0  0
 46121  1  0  0  0
 47122  1  0  0  0
 47123  1  0  0  0
 48 56  1  0  0  0
 48 65  1  0  0  0
 48124  1  0  0  0
 49 50  1  0  0  0
 49 53  1  0  0  0
 49 64  1  0  0  0
 49125  1  0  0  0
 50 51  1  0  0  0
 50126  1  0  0  0
 50127  1  0  0  0
 51 52  1  0  0  0
 51128  1  0  0  0
 51129  1  0  0  0
 52130  1  0  0  0
 52131  1  0  0  0
 53 54  1  0  0  0
 54 55  2  0  0  0
 54132  1  0  0  0
 55 57  1  0  0  0
 55133  1  0  0  0
 56 69  2  0  0  0
 57 58  2  0  0  0
 57134  1  0  0  0
 58135  1  0  0  0
 59 60  1  0  0  0
 59 61  1  0  0  0
 59 62  1  0  0  0
 60136  1  0  0  0
 60137  1  0  0  0
 60138  1  0  0  0
 61139  1  0  0  0
 61140  1  0  0  0
 61141  1  0  0  0
 62142  1  0  0  0
 62143  1  0  0  0
 62144  1  0  0  0
 63 65  1  0  0  0
 63145  1  0  0  0
 63146  1  0  0  0
 63147  1  0  0  0
 64148  1  0  0  0
 65149  1  0  0  0
 68 83  1  0  0  0
 71 73  2  0  0  0
 71 76  1  0  0  0
 71150  1  0  0  0
 72 75  1  0  0  0
 72 76  2  0  0  0
 72151  1  0  0  0
 73 74  1  0  0  0
 73 77  1  0  0  0
 74 75  2  0  0  0
 74 80  1  0  0  0
 75 83  1  0  0  0
 76 90  1  0  0  0
 77152  1  0  0  0
 77153  1  0  0  0
 77 80  1  0  0  0
 78 79  1  0  0  0
 78 81  1  0  0  0
 78154  1  0  0  0
 78155  1  0  0  0
 79 81  1  0  0  0
 79156  1  0  0  0
 79157  1  0  0  0
 80 87  1  0  0  0
 80158  1  0  0  0
 81 84  1  0  0  0
 81159  1  0  0  0
 82160  1  0  0  0
 82161  1  0  0  0
 82162  1  0  0  0
 82 87  1  0  0  0
 83163  1  0  0  0
 83164  1  0  0  0
 84 89  1  0  0  0
 84165  1  0  0  0
 84166  1  0  0  0
 85 86  1  0  0  0
 85 88  1  0  0  0
 85167  1  0  0  0
 85168  1  0  0  0
 86 90  1  0  0  0
 86169  1  0  0  0
 86170  1  0  0  0
 87 89  1  0  0  0
 87171  1  0  0  0
 88172  1  0  0  0
 89173  1  0  0  0
 89174  1  0  0  0
M  CHG  1  89   1
M  ISO  4   1 100  68 101  83 101  88 100
M  END
> <chiral flag>
0

> <version>
0

> <s_m_source_file>
/data/baiqing/PycharmProjects/Reinvent-master-3.2/result/LINK_invent/BTK/process_docking_weight1_custom_sum_contain_oxygen_bond_distance_aromatic_linkinvent_7_9_3/rearranged_h_0140.sdf

> <i_m_source_file_index>
74

> <r_mmod_Potential_Energy-OPLS-2005>
31602.345703125

> <r_mmod_Stretch_Energy-OPLS-2005>
16513.689453125

> <r_mmod_Bend_Energy-OPLS-2005>
4570.69091796875

> <r_mmod_Torsional_Energy-OPLS-2005>
654.904541015625

> <r_mmod_Improper_Torsional_Energy-OPLS-2005>
53.5121116638184

> <r_mmod_Van_der_Waal_Energy-OPLS-2005>
4481.794921875

> <r_mmod_Electrostatic_Energy-OPLS-2005>
-307.460296630859

> <r_mmod_Solvation_Energy-OPLS-2005>
-482.197448730469

> <b_mmod_Minimization_Converged-OPLS-2005>
0

> <r_mmod_RMS_Derivative-OPLS-2005>
31.5562267303467

$$$$
74
                    3D
 Structure written by MMmdl.
148157  0  0  1  0            999 V2000
  -30.4705  -15.1298   20.3868 C   0  0  0  0  0  0
  -30.4479  -12.7094   19.5142 C   0  0  0  0  0  0
  -29.5329  -12.5552   18.2740 C   0  0  0  0  0  0
  -28.0737  -12.3056   18.6971 C   0  0  0  0  0  0
  -27.6227  -13.2609   19.8309 C   0  0  2  0  0  0
  -28.6628  -13.3636   20.9674 C   0  0  0  0  0  0
  -25.2437  -13.8227   20.5721 C   0  0  0  0  0  0
  -24.1771  -13.0439   20.9247 C   0  0  0  0  0  0
  -24.6404  -11.6928   20.8761 C   0  0  0  0  0  0
  -23.9090  -10.4294   21.0410 C   0  0  0  0  0  0
  -24.3633   -9.4207   21.9186 C   0  0  0  0  0  0
  -23.6298   -8.2246   22.0756 C   0  0  0  0  0  0
  -22.4279   -8.0288   21.3549 C   0  0  0  0  0  0
  -21.9921   -9.0265   20.4653 C   0  0  0  0  0  0
  -22.7259  -10.2139   20.3062 C   0  0  0  0  0  0
  -21.6857   -6.0740   22.5280 C   0  0  0  0  0  0
  -21.4019   -6.5643   23.8215 C   0  0  0  0  0  0
  -21.3658   -5.6795   24.9177 C   0  0  0  0  0  0
  -21.6042   -4.3058   24.7226 C   0  0  0  0  0  0
  -21.8817   -3.8150   23.4347 C   0  0  0  0  0  0
  -21.9192   -4.6967   22.3403 C   0  0  0  0  0  0
  -22.7788  -13.5205   21.1893 C   0  0  0  0  0  0
  -22.1660   -4.2152   21.0980 F   0  0  0  0  0  0
  -21.5623   -3.4542   25.7738 F   0  0  0  0  0  0
  -29.9159  -13.8321   20.3559 N   0  0  0  0  0  0
  -26.2864  -12.9479   20.3227 N   0  0  0  0  0  0
  -25.9341  -11.6598   20.5735 N   0  0  0  0  0  0
  -22.0439  -12.8196   22.0450 N   0  0  0  0  0  0
  -25.4073  -15.1958   20.4124 N   0  0  0  0  0  0
  -31.6845  -15.1796   20.1448 O   0  0  0  0  0  0
  -21.6641   -6.8886   21.4242 O   0  0  0  0  0  0
  -22.3472  -14.5503   20.6723 O   0  0  0  0  0  0
  -24.6563  -31.8319   23.1788 C   0  0  0  0  0  0
  -25.9281  -32.4628   23.8220 C   0  0  1  0  0  0
  -27.2159  -27.0072   20.1640 C   0  0  0  0  0  0
  -25.5977  -33.8438   24.2129 N   0  0  0  0  0  0
  -23.4664  -30.4488   21.5268 C   0  0  2  0  0  0
  -24.9190  -28.8568   20.1101 C   0  0  0  0  0  0
  -22.7633  -29.4487   22.4808 C   0  0  0  0  0  0
  -18.0317  -28.1398   22.8467 C   0  0  0  0  0  0
  -24.1495  -36.7229   23.2645 C   0  0  0  0  0  0
  -26.0328  -30.6636   21.3989 C   0  0  0  0  0  0
  -26.1023  -29.2630   20.7400 C   0  0  0  0  0  0
  -27.2483  -28.3576   20.7474 C   0  0  0  0  0  0
  -26.0042  -26.7436   19.4827 C   0  0  0  0  0  0
  -24.8912  -27.6144   19.4631 C   0  0  0  0  0  0
  -23.7013  -29.7736   20.1495 C   0  0  0  0  0  0
  -25.4130  -36.2990   24.0307 C   0  0  1  0  0  0
  -20.5937  -28.3740   23.1198 C   0  0  2  0  0  0
  -20.6793  -26.9427   22.5399 C   0  0  0  0  0  0
  -19.5768  -26.6373   21.5207 C   0  0  0  0  0  0
  -18.1952  -26.7932   22.1620 C   0  0  0  0  0  0
  -19.1576  -28.8888   23.2821 C   0  0  0  0  0  0
  -18.9489  -30.1479   23.8856 C   0  0  0  0  0  0
  -17.6483  -30.6590   24.0552 C   0  0  0  0  0  0
  -25.9091  -34.9369   23.5034 C   0  0  0  0  0  0
  -16.5373  -29.9078   23.6336 C   0  0  0  0  0  0
  -16.7299  -28.6496   23.0359 C   0  0  0  0  0  0
  -26.4551  -31.6541   25.0717 C   0  0  0  0  0  0
  -25.3700  -31.3771   26.1389 C   0  0  0  0  0  0
  -27.0435  -30.2915   24.6402 C   0  0  0  0  0  0
  -27.6057  -32.4333   25.7511 C   0  0  0  0  0  0
  -27.5573  -37.1769   24.8462 C   0  0  0  0  0  0
  -21.4310  -29.3046   22.3557 N   0  0  0  0  0  0
  -26.4282  -37.3718   23.9408 N   0  0  0  0  0  0
  -24.7393  -31.0057   22.0887 N   0  0  0  0  0  0
  -23.4215  -28.8042   23.3013 O   0  0  0  0  0  0
  -28.2121  -25.9188   20.2462 O   0  0  0  0  0  0
  -26.5687  -34.8888   22.4621 O   0  0  0  0  0  0
  -23.5651  -32.1255   23.6927 O   0  0  0  0  0  0
  -27.8857  -21.5349   20.3926 C   0  0  0  0  0  0
  -29.8994  -22.3781   20.1248 C   0  0  0  0  0  0
  -28.5743  -22.8491   20.2183 C   0  0  0  0  0  0
  -28.7406  -20.3793   20.3768 C   0  0  0  0  0  0
  -28.6581  -18.8630   20.4695 C   0  0  0  0  0  0
  -30.9835  -18.6315   20.2198 C   0  0  0  0  0  0
  -31.0905  -20.0416   20.1350 C   0  0  0  0  0  0
  -29.7514  -17.9095   20.3962 C   0  0  0  0  0  0
  -27.8092  -24.3770   20.0230 C   0  0  0  0  0  0
  -30.0215  -20.9283   20.2047 N   0  0  0  0  0  0
  -29.6428  -16.3276   20.4944 N   0  0  0  0  0  0
  -31.4725  -12.9002   19.1915 H   0  0  0  0  0  0
  -30.4869  -11.7812   20.0863 H   0  0  0  0  0  0
  -29.8844  -11.7401   17.6400 H   0  0  0  0  0  0
  -29.5879  -13.4609   17.6681 H   0  0  0  0  0  0
  -28.0038  -11.2722   19.0396 H   0  0  0  0  0  0
  -27.4070  -12.3891   17.8380 H   0  0  0  0  0  0
  -27.5608  -14.2451   19.3650 H   0  0  0  0  0  0
  -28.7953  -12.4063   21.4734 H   0  0  0  0  0  0
  -28.3295  -14.0724   21.7272 H   0  0  0  0  0  0
  -25.2774   -9.5676   22.4768 H   0  0  0  0  0  0
  -24.0003   -7.4635   22.7474 H   0  0  0  0  0  0
  -21.0850   -8.8790   19.8961 H   0  0  0  0  0  0
  -22.3714  -10.9681   19.6176 H   0  0  0  0  0  0
  -21.2017   -7.6151   23.9718 H   0  0  0  0  0  0
  -21.1479   -6.0526   25.9078 H   0  0  0  0  0  0
  -22.0596   -2.7612   23.2848 H   0  0  0  0  0  0
  -22.4062  -11.9869   22.4854 H   0  0  0  0  0  0
  -21.1055  -13.1222   22.2651 H   0  0  0  0  0  0
  -24.6295  -15.8394   20.5114 H   0  0  0  0  0  0
  -26.2336  -15.6339   20.0278 H   0  0  0  0  0  0
  -26.7348  -32.5191   23.0939 H   0  0  0  0  0  0
  -25.0075  -33.9526   25.0245 H   0  0  0  0  0  0
  -22.7759  -31.2790   21.3640 H   0  0  0  0  0  0
  -23.3761  -35.9556   23.3280 H   0  0  0  0  0  0
  -24.3576  -36.8896   22.2065 H   0  0  0  0  0  0
  -23.7249  -37.6413   23.6710 H   0  0  0  0  0  0
  -26.2062  -31.4112   20.6235 H   0  0  0  0  0  0
  -26.8956  -30.7154   22.0511 H   0  0  0  0  0  0
  -28.1424  -28.6638   21.2722 H   0  0  0  0  0  0
  -25.8655  -25.8015   18.9761 H   0  0  0  0  0  0
  -23.9924  -27.2979   18.9519 H   0  0  0  0  0  0
  -23.8496  -30.5462   19.3942 H   0  0  0  0  0  0
  -22.8125  -29.2247   19.8327 H   0  0  0  0  0  0
  -25.1323  -36.1797   25.0798 H   0  0  0  0  0  0
  -21.0026  -28.3341   24.1320 H   0  0  0  0  0  0
  -20.5664  -26.2360   23.3634 H   0  0  0  0  0  0
  -21.6660  -26.7402   22.1214 H   0  0  0  0  0  0
  -19.6928  -25.6272   21.1265 H   0  0  0  0  0  0
  -19.6704  -27.3156   20.6715 H   0  0  0  0  0  0
  -17.4216  -26.6664   21.4031 H   0  0  0  0  0  0
  -18.0358  -26.0084   22.9027 H   0  0  0  0  0  0
  -19.7964  -30.7304   24.2209 H   0  0  0  0  0  0
  -17.5034  -31.6265   24.5161 H   0  0  0  0  0  0
  -15.5372  -30.2965   23.7682 H   0  0  0  0  0  0
  -15.8700  -28.0797   22.7103 H   0  0  0  0  0  0
  -24.5890  -30.7107   25.7709 H   0  0  0  0  0  0
  -24.8880  -32.2965   26.4724 H   0  0  0  0  0  0
  -25.7955  -30.9003   27.0229 H   0  0  0  0  0  0
  -26.3087  -29.6606   24.1388 H   0  0  0  0  0  0
  -27.3964  -29.7257   25.5035 H   0  0  0  0  0  0
  -27.9031  -30.4107   23.9805 H   0  0  0  0  0  0
  -27.2633  -33.3666   26.1995 H   0  0  0  0  0  0
  -28.3918  -32.6841   25.0376 H   0  0  0  0  0  0
  -28.0670  -31.8522   26.5507 H   0  0  0  0  0  0
  -28.2571  -38.0083   24.7512 H   0  0  0  0  0  0
  -28.1088  -36.2610   24.6281 H   0  0  0  0  0  0
  -27.2292  -37.1404   25.8865 H   0  0  0  0  0  0
  -20.9547  -29.8759   21.6717 H   0  0  0  0  0  0
  -26.0136  -38.2780   24.1413 H   0  0  0  0  0  0
  -26.8090  -21.4568   20.4856 H   0  0  0  0  0  0
  -30.8124  -22.9370   19.9632 H   0  0  0  0  0  0
  -27.6564  -18.4659   20.5990 H   0  0  0  0  0  0
  -31.9049  -18.0589   20.1457 H   0  0  0  0  0  0
  -32.0566  -20.5163   19.9996 H   0  0  0  0  0  0
  -26.8776  -24.2928   20.5832 H   0  0  0  0  0  0
  -27.4890  -24.3697   18.9816 H   0  0  0  0  0  0
  -28.6914  -16.0329   20.6511 H   0  0  0  0  0  0
  1 25  1  0  0  0
  1 30  2  0  0  0
  1 81  1  0  0  0
  2  3  1  0  0  0
  2 25  1  0  0  0
  2 82  1  0  0  0
  2 83  1  0  0  0
  3  4  1  0  0  0
  3 84  1  0  0  0
  3 85  1  0  0  0
  4  5  1  0  0  0
  4 86  1  0  0  0
  4 87  1  0  0  0
  5  6  1  0  0  0
  5 26  1  0  0  0
  5 88  1  0  0  0
  6 25  1  0  0  0
  6 89  1  0  0  0
  6 90  1  0  0  0
  7  8  2  0  0  0
  7 26  1  0  0  0
  7 29  1  0  0  0
  8  9  1  0  0  0
  8 22  1  0  0  0
  9 10  1  0  0  0
  9 27  2  0  0  0
 10 11  2  0  0  0
 10 15  1  0  0  0
 11 12  1  0  0  0
 11 91  1  0  0  0
 12 13  2  0  0  0
 12 92  1  0  0  0
 13 14  1  0  0  0
 13 31  1  0  0  0
 14 15  2  0  0  0
 14 93  1  0  0  0
 15 94  1  0  0  0
 16 17  2  0  0  0
 16 21  1  0  0  0
 16 31  1  0  0  0
 17 18  1  0  0  0
 17 95  1  0  0  0
 18 19  2  0  0  0
 18 96  1  0  0  0
 19 20  1  0  0  0
 19 24  1  0  0  0
 20 21  2  0  0  0
 20 97  1  0  0  0
 21 23  1  0  0  0
 22 28  1  0  0  0
 22 32  2  0  0  0
 26 27  1  0  0  0
 28 98  1  0  0  0
 28 99  1  0  0  0
 29100  1  0  0  0
 29101  1  0  0  0
 33 34  1  0  0  0
 33 66  1  0  0  0
 33 70  2  0  0  0
 34 36  1  0  0  0
 34 59  1  0  0  0
 34102  1  0  0  0
 35 44  2  0  0  0
 35 45  1  0  0  0
 35 68  1  0  0  0
 36 56  1  0  0  0
 36103  1  0  0  0
 37 39  1  0  0  0
 37 47  1  0  0  0
 37 66  1  0  0  0
 37104  1  0  0  0
 38 43  2  0  0  0
 38 46  1  0  0  0
 38 47  1  0  0  0
 39 64  1  0  0  0
 39 67  2  0  0  0
 40 52  1  0  0  0
 40 53  2  0  0  0
 40 58  1  0  0  0
 41105  1  0  0  0
 41106  1  0  0  0
 41107  1  0  0  0
 41 48  1  0  0  0
 42 43  1  0  0  0
 42 66  1  0  0  0
 42108  1  0  0  0
 42109  1  0  0  0
 43 44  1  0  0  0
 44110  1  0  0  0
 45 46  2  0  0  0
 45111  1  0  0  0
 46112  1  0  0  0
 47113  1  0  0  0
 47114  1  0  0  0
 48 56  1  0  0  0
 48 65  1  0  0  0
 48115  1  0  0  0
 49 50  1  0  0  0
 49 53  1  0  0  0
 49 64  1  0  0  0
 49116  1  0  0  0
 50 51  1  0  0  0
 50117  1  0  0  0
 50118  1  0  0  0
 51 52  1  0  0  0
 51119  1  0  0  0
 51120  1  0  0  0
 52121  1  0  0  0
 52122  1  0  0  0
 53 54  1  0  0  0
 54 55  2  0  0  0
 54123  1  0  0  0
 55 57  1  0  0  0
 55124  1  0  0  0
 56 69  2  0  0  0
 57 58  2  0  0  0
 57125  1  0  0  0
 58126  1  0  0  0
 59 60  1  0  0  0
 59 61  1  0  0  0
 59 62  1  0  0  0
 60127  1  0  0  0
 60128  1  0  0  0
 60129  1  0  0  0
 61130  1  0  0  0
 61131  1  0  0  0
 61132  1  0  0  0
 62133  1  0  0  0
 62134  1  0  0  0
 62135  1  0  0  0
 63 65  1  0  0  0
 63136  1  0  0  0
 63137  1  0  0  0
 63138  1  0  0  0
 64139  1  0  0  0
 65140  1  0  0  0
 68 79  1  0  0  0
 71 73  1  0  0  0
 71 74  2  0  0  0
 71141  1  0  0  0
 72 73  2  0  0  0
 72 80  1  0  0  0
 72142  1  0  0  0
 73 79  1  0  0  0
 74 75  1  0  0  0
 74 80  1  0  0  0
 75 78  2  0  0  0
 75143  1  0  0  0
 76 77  2  0  0  0
 76 78  1  0  0  0
 76144  1  0  0  0
 77 80  1  0  0  0
 77145  1  0  0  0
 78 81  1  0  0  0
 79146  1  0  0  0
 79147  1  0  0  0
 81148  1  0  0  0
M  ISO  4   1 100  68 101  79 101  81 100
M  END
> <chiral flag>
0

> <version>
0

> <s_m_source_file>
/data/baiqing/PycharmProjects/Reinvent-master-3.2/result/LINK_invent/BTK/process_docking_weight1_custom_sum_contain_oxygen_bond_distance_aromatic_linkinvent_7_9_3/rearranged_h_0140.sdf

> <i_m_source_file_index>
75

> <r_mmod_Potential_Energy-OPLS-2005>
821.630493164062

> <r_mmod_Stretch_Energy-OPLS-2005>
368.700531005859

> <r_mmod_Bend_Energy-OPLS-2005>
333.325408935547

> <r_mmod_Torsional_Energy-OPLS-2005>
218.175582885742

> <r_mmod_Improper_Torsional_Energy-OPLS-2005>
5.02248239517212

> <r_mmod_Van_der_Waal_Energy-OPLS-2005>
127.102722167969

> <r_mmod_Electrostatic_Energy-OPLS-2005>
-349.700469970703

> <r_mmod_Solvation_Energy-OPLS-2005>
-221.164688110352

> <b_mmod_Minimization_Converged-OPLS-2005>
0

> <r_mmod_RMS_Derivative-OPLS-2005>
0.592207610607147

$$$$
75
                    3D
 Structure written by MMmdl.
164174  0  0  1  0            999 V2000
  -30.4741  -15.1581   20.3566 C   0  0  0  0  0  0
  -30.4405  -12.7292   19.5115 C   0  0  0  0  0  0
  -29.5305  -12.5350   18.2745 C   0  0  0  0  0  0
  -28.0706  -12.2947   18.6997 C   0  0  0  0  0  0
  -27.6142  -13.2620   19.8218 C   0  0  2  0  0  0
  -28.6536  -13.3998   20.9523 C   0  0  0  0  0  0
  -25.2424  -13.8236   20.5745 C   0  0  0  0  0  0
  -24.1753  -13.0439   20.9228 C   0  0  0  0  0  0
  -24.6388  -11.6926   20.8756 C   0  0  0  0  0  0
  -23.9080  -10.4289   21.0403 C   0  0  0  0  0  0
  -24.3630   -9.4203   21.9179 C   0  0  0  0  0  0
  -23.6299   -8.2242   22.0754 C   0  0  0  0  0  0
  -22.4280   -8.0278   21.3542 C   0  0  0  0  0  0
  -21.9916   -9.0256   20.4645 C   0  0  0  0  0  0
  -22.7252  -10.2130   20.3052 C   0  0  0  0  0  0
  -21.6850   -6.0733   22.5276 C   0  0  0  0  0  0
  -21.4011   -6.5637   23.8210 C   0  0  0  0  0  0
  -21.3656   -5.6790   24.9171 C   0  0  0  0  0  0
  -21.6043   -4.3052   24.7221 C   0  0  0  0  0  0
  -21.8824   -3.8146   23.4343 C   0  0  0  0  0  0
  -21.9198   -4.6962   22.3400 C   0  0  0  0  0  0
  -22.7772  -13.5198   21.1886 C   0  0  0  0  0  0
  -22.1665   -4.2148   21.0977 F   0  0  0  0  0  0
  -21.5629   -3.4536   25.7735 F   0  0  0  0  0  0
  -29.8953  -13.8690   20.3222 N   0  0  0  0  0  0
  -26.2828  -12.9474   20.3220 N   0  0  0  0  0  0
  -25.9321  -11.6594   20.5729 N   0  0  0  0  0  0
  -22.0438  -12.8183   22.0446 N   0  0  0  0  0  0
  -25.4129  -15.1969   20.4245 N   0  0  0  0  0  0
  -31.7071  -15.1567   20.2354 O   0  0  0  0  0  0
  -21.6639   -6.8877   21.4239 O   0  0  0  0  0  0
  -22.3453  -14.5504   20.6735 O   0  0  0  0  0  0
  -24.6572  -31.8305   23.1776 C   0  0  0  0  0  0
  -25.9288  -32.4623   23.8214 C   0  0  1  0  0  0
  -27.2113  -26.9878   20.1698 C   0  0  0  0  0  0
  -25.5972  -33.8433   24.2114 N   0  0  0  0  0  0
  -23.4688  -30.4465   21.5259 C   0  0  2  0  0  0
  -24.9214  -28.8529   20.1107 C   0  0  0  0  0  0
  -22.7644  -29.4472   22.4798 C   0  0  0  0  0  0
  -18.0313  -28.1404   22.8471 C   0  0  0  0  0  0
  -24.1470  -36.7201   23.2651 C   0  0  0  0  0  0
  -26.0366  -30.6553   21.4027 C   0  0  0  0  0  0
  -26.1054  -29.2536   20.7436 C   0  0  0  0  0  0
  -27.2485  -28.3413   20.7525 C   0  0  0  0  0  0
  -25.9998  -26.7370   19.4829 C   0  0  0  0  0  0
  -24.8916  -27.6131   19.4603 C   0  0  0  0  0  0
  -23.7051  -29.7720   20.1491 C   0  0  0  0  0  0
  -25.4113  -36.2977   24.0303 C   0  0  1  0  0  0
  -20.5937  -28.3741   23.1190 C   0  0  2  0  0  0
  -20.6786  -26.9426   22.5395 C   0  0  0  0  0  0
  -19.5757  -26.6375   21.5210 C   0  0  0  0  0  0
  -18.1939  -26.7941   22.1626 C   0  0  0  0  0  0
  -19.1578  -28.8894   23.2814 C   0  0  0  0  0  0
  -18.9499  -30.1488   23.8845 C   0  0  0  0  0  0
  -17.6496  -30.6603   24.0556 C   0  0  0  0  0  0
  -25.9087  -34.9364   23.5022 C   0  0  0  0  0  0
  -16.5379  -29.9095   23.6352 C   0  0  0  0  0  0
  -16.7298  -28.6510   23.0374 C   0  0  0  0  0  0
  -26.4559  -31.6558   25.0724 C   0  0  0  0  0  0
  -25.3698  -31.3796   26.1388 C   0  0  0  0  0  0
  -27.0463  -30.2930   24.6436 C   0  0  0  0  0  0
  -27.6040  -32.4380   25.7525 C   0  0  0  0  0  0
  -27.5548  -37.1751   24.8475 C   0  0  0  0  0  0
  -21.4319  -29.3045   22.3551 N   0  0  0  0  0  0
  -26.4256  -37.3713   23.9423 N   0  0  0  0  0  0
  -24.7414  -31.0025   22.0887 N   0  0  0  0  0  0
  -23.4214  -28.8020   23.3007 O   0  0  0  0  0  0
  -28.1990  -25.8854   20.2433 O   0  0  0  0  0  0
  -26.5696  -34.8894   22.4616 O   0  0  0  0  0  0
  -23.5655  -32.1249   23.6906 O   0  0  0  0  0  0
  -27.7630  -21.6076   19.6704 C   0  0  0  0  0  0
  -29.6530  -22.2057   20.8116 C   0  0  0  0  0  0
  -28.1412  -20.1744   19.6550 C   0  0  0  0  0  0
  -29.3657  -19.6165   20.2378 C   0  0  0  0  0  0
  -28.4677  -22.7612   20.1965 C   0  0  0  0  0  0
  -30.0692  -20.7733   20.8294 C   0  0  0  0  0  0
  -27.2391  -18.9439   17.5012 C   0  0  0  0  0  0
  -26.0579  -19.7063   18.0284 C   0  0  0  0  0  0
  -30.1492  -17.6360   18.5953 C   0  0  0  0  0  0
  -29.1177  -16.5382   18.8932 C   0  0  0  0  0  0
  -27.1532  -19.2504   18.9846 C   0  0  0  0  0  0
  -30.0781  -18.0211   20.0634 C   0  0  2  0  0  0
  -31.1894  -19.7503   22.8726 C   0  0  0  0  0  0
  -31.3854  -20.5106   21.5526 C   0  0  0  0  0  0
  -27.7522  -24.3347   20.1361 C   0  0  0  0  0  0
  -29.7062  -16.4130   20.2291 N   0  0  0  0  0  0
  -31.4621  -12.9241   19.1824 H   0  0  0  0  0  0
  -30.4900  -11.8164   20.1076 H   0  0  0  0  0  0
  -29.8862  -11.6989   17.6711 H   0  0  0  0  0  0
  -29.5866  -13.4158   17.6345 H   0  0  0  0  0  0
  -28.0005  -11.2666   19.0563 H   0  0  0  0  0  0
  -27.4050  -12.3643   17.8380 H   0  0  0  0  0  0
  -27.5366  -14.2360   19.3398 H   0  0  0  0  0  0
  -28.7970  -12.4558   21.4804 H   0  0  0  0  0  0
  -28.3174  -14.1280   21.6917 H   0  0  0  0  0  0
  -25.2773   -9.5677   22.4754 H   0  0  0  0  0  0
  -24.0004   -7.4632   22.7474 H   0  0  0  0  0  0
  -21.0845   -8.8782   19.8950 H   0  0  0  0  0  0
  -22.3712  -10.9674   19.6164 H   0  0  0  0  0  0
  -21.1997   -7.6144   23.9710 H   0  0  0  0  0  0
  -21.1469   -6.0518   25.9073 H   0  0  0  0  0  0
  -22.0607   -2.7607   23.2845 H   0  0  0  0  0  0
  -22.4076  -11.9854   22.4836 H   0  0  0  0  0  0
  -21.1056  -13.1196   22.2660 H   0  0  0  0  0  0
  -24.6544  -15.8559   20.5592 H   0  0  0  0  0  0
  -26.2826  -15.6395   20.1609 H   0  0  0  0  0  0
  -26.7352  -32.5179   23.0928 H   0  0  0  0  0  0
  -25.0064  -33.9522   25.0224 H   0  0  0  0  0  0
  -22.7783  -31.2759   21.3616 H   0  0  0  0  0  0
  -23.3747  -35.9517   23.3311 H   0  0  0  0  0  0
  -24.3532  -36.8856   22.2066 H   0  0  0  0  0  0
  -23.7220  -37.6381   23.6716 H   0  0  0  0  0  0
  -26.2134  -31.4021   20.6274 H   0  0  0  0  0  0
  -26.8980  -30.7066   22.0568 H   0  0  0  0  0  0
  -28.1429  -28.6422   21.2799 H   0  0  0  0  0  0
  -25.8566  -25.8005   18.9674 H   0  0  0  0  0  0
  -23.9938  -27.3035   18.9425 H   0  0  0  0  0  0
  -23.8543  -30.5444   19.3937 H   0  0  0  0  0  0
  -22.8168  -29.2219   19.8330 H   0  0  0  0  0  0
  -25.1306  -36.1768   25.0792 H   0  0  0  0  0  0
  -21.0017  -28.3350   24.1318 H   0  0  0  0  0  0
  -20.5665  -26.2363   23.3636 H   0  0  0  0  0  0
  -21.6649  -26.7407   22.1201 H   0  0  0  0  0  0
  -19.6915  -25.6274   21.1271 H   0  0  0  0  0  0
  -19.6694  -27.3158   20.6718 H   0  0  0  0  0  0
  -17.4203  -26.6682   21.4035 H   0  0  0  0  0  0
  -18.0336  -26.0093   22.9032 H   0  0  0  0  0  0
  -19.7980  -30.7308   24.2195 H   0  0  0  0  0  0
  -17.5060  -31.6285   24.5160 H   0  0  0  0  0  0
  -15.5382  -30.2985   23.7720 H   0  0  0  0  0  0
  -15.8692  -28.0817   22.7132 H   0  0  0  0  0  0
  -24.5876  -30.7151   25.7705 H   0  0  0  0  0  0
  -24.8890  -32.2997   26.4721 H   0  0  0  0  0  0
  -25.7932  -30.9025   27.0236 H   0  0  0  0  0  0
  -26.3142  -29.6608   24.1398 H   0  0  0  0  0  0
  -27.3967  -29.7286   25.5091 H   0  0  0  0  0  0
  -27.9089  -30.4128   23.9874 H   0  0  0  0  0  0
  -27.2595  -33.3723   26.1970 H   0  0  0  0  0  0
  -28.3913  -32.6883   25.0403 H   0  0  0  0  0  0
  -28.0641  -31.8608   26.5556 H   0  0  0  0  0  0
  -28.2559  -38.0051   24.7509 H   0  0  0  0  0  0
  -28.1044  -36.2575   24.6311 H   0  0  0  0  0  0
  -27.2263  -37.1411   25.8878 H   0  0  0  0  0  0
  -20.9563  -29.8752   21.6700 H   0  0  0  0  0  0
  -26.0101  -38.2760   24.1472 H   0  0  0  0  0  0
  -26.8091  -21.8673   19.2400 H   0  0  0  0  0  0
  -30.2904  -22.9213   21.3132 H   0  0  0  0  0  0
  -27.9544  -19.5060   16.9038 H   0  0  0  0  0  0
  -27.0441  -17.9290   17.1622 H   0  0  0  0  0  0
  -25.1121  -19.1685   18.0520 H   0  0  0  0  0  0
  -25.9896  -20.7313   17.6734 H   0  0  0  0  0  0
  -29.8275  -18.4026   17.8931 H   0  0  0  0  0  0
  -31.1213  -17.2347   18.2992 H   0  0  0  0  0  0
  -29.2273  -15.6837   18.2232 H   0  0  0  0  0  0
  -28.0754  -16.8339   18.9216 H   0  0  0  0  0  0
  -26.8496  -18.4698   19.6788 H   0  0  0  0  0  0
  -31.1014  -18.1386   20.4086 H   0  0  0  0  0  0
  -32.1458  -19.5822   23.3681 H   0  0  0  0  0  0
  -30.7246  -18.7770   22.7178 H   0  0  0  0  0  0
  -30.5559  -20.3143   23.5582 H   0  0  0  0  0  0
  -31.8866  -21.4544   21.7722 H   0  0  0  0  0  0
  -32.0751  -19.9839   20.8941 H   0  0  0  0  0  0
  -26.9279  -24.2571   20.8462 H   0  0  0  0  0  0
  -27.2828  -24.2831   19.1560 H   0  0  0  0  0  0
  1 25  1  0  0  0
  1 30  2  0  0  0
  1 86  1  0  0  0
  2  3  1  0  0  0
  2 25  1  0  0  0
  2 87  1  0  0  0
  2 88  1  0  0  0
  3  4  1  0  0  0
  3 89  1  0  0  0
  3 90  1  0  0  0
  4  5  1  0  0  0
  4 91  1  0  0  0
  4 92  1  0  0  0
  5  6  1  0  0  0
  5 26  1  0  0  0
  5 93  1  0  0  0
  6 25  1  0  0  0
  6 94  1  0  0  0
  6 95  1  0  0  0
  7  8  2  0  0  0
  7 26  1  0  0  0
  7 29  1  0  0  0
  8  9  1  0  0  0
  8 22  1  0  0  0
  9 10  1  0  0  0
  9 27  2  0  0  0
 10 11  2  0  0  0
 10 15  1  0  0  0
 11 12  1  0  0  0
 11 96  1  0  0  0
 12 13  2  0  0  0
 12 97  1  0  0  0
 13 14  1  0  0  0
 13 31  1  0  0  0
 14 15  2  0  0  0
 14 98  1  0  0  0
 15 99  1  0  0  0
 16 17  2  0  0  0
 16 21  1  0  0  0
 16 31  1  0  0  0
 17 18  1  0  0  0
 17100  1  0  0  0
 18 19  2  0  0  0
 18101  1  0  0  0
 19 20  1  0  0  0
 19 24  1  0  0  0
 20 21  2  0  0  0
 20102  1  0  0  0
 21 23  1  0  0  0
 22 28  1  0  0  0
 22 32  2  0  0  0
 26 27  1  0  0  0
 28103  1  0  0  0
 28104  1  0  0  0
 29105  1  0  0  0
 29106  1  0  0  0
 33 34  1  0  0  0
 33 66  1  0  0  0
 33 70  2  0  0  0
 34 36  1  0  0  0
 34 59  1  0  0  0
 34107  1  0  0  0
 35 44  2  0  0  0
 35 45  1  0  0  0
 35 68  1  0  0  0
 36 56  1  0  0  0
 36108  1  0  0  0
 37 39  1  0  0  0
 37 47  1  0  0  0
 37 66  1  0  0  0
 37109  1  0  0  0
 38 43  2  0  0  0
 38 46  1  0  0  0
 38 47  1  0  0  0
 39 64  1  0  0  0
 39 67  2  0  0  0
 40 52  1  0  0  0
 40 53  2  0  0  0
 40 58  1  0  0  0
 41110  1  0  0  0
 41111  1  0  0  0
 41112  1  0  0  0
 41 48  1  0  0  0
 42 43  1  0  0  0
 42 66  1  0  0  0
 42113  1  0  0  0
 42114  1  0  0  0
 43 44  1  0  0  0
 44115  1  0  0  0
 45 46  2  0  0  0
 45116  1  0  0  0
 46117  1  0  0  0
 47118  1  0  0  0
 47119  1  0  0  0
 48 56  1  0  0  0
 48 65  1  0  0  0
 48120  1  0  0  0
 49 50  1  0  0  0
 49 53  1  0  0  0
 49 64  1  0  0  0
 49121  1  0  0  0
 50 51  1  0  0  0
 50122  1  0  0  0
 50123  1  0  0  0
 51 52  1  0  0  0
 51124  1  0  0  0
 51125  1  0  0  0
 52126  1  0  0  0
 52127  1  0  0  0
 53 54  1  0  0  0
 54 55  2  0  0  0
 54128  1  0  0  0
 55 57  1  0  0  0
 55129  1  0  0  0
 56 69  2  0  0  0
 57 58  2  0  0  0
 57130  1  0  0  0
 58131  1  0  0  0
 59 60  1  0  0  0
 59 61  1  0  0  0
 59 62  1  0  0  0
 60132  1  0  0  0
 60133  1  0  0  0
 60134  1  0  0  0
 61135  1  0  0  0
 61136  1  0  0  0
 61137  1  0  0  0
 62138  1  0  0  0
 62139  1  0  0  0
 62140  1  0  0  0
 63 65  1  0  0  0
 63141  1  0  0  0
 63142  1  0  0  0
 63143  1  0  0  0
 64144  1  0  0  0
 65145  1  0  0  0
 68 85  1  0  0  0
 71 73  2  0  0  0
 71 75  1  0  0  0
 71146  1  0  0  0
 72 75  2  0  0  0
 72 76  1  0  0  0
 72147  1  0  0  0
 73 74  1  0  0  0
 73 81  1  0  0  0
 74 76  2  0  0  0
 74 82  1  0  0  0
 75 85  1  0  0  0
 76 84  1  0  0  0
 77 78  1  0  0  0
 77 81  1  0  0  0
 77148  1  0  0  0
 77149  1  0  0  0
 78 81  1  0  0  0
 78150  1  0  0  0
 78151  1  0  0  0
 79 80  1  0  0  0
 79 82  1  0  0  0
 79152  1  0  0  0
 79153  1  0  0  0
 80 86  1  0  0  0
 80154  1  0  0  0
 80155  1  0  0  0
 81156  1  0  0  0
 82 86  1  0  0  0
 82157  1  0  0  0
 83 84  1  0  0  0
 83158  1  0  0  0
 83159  1  0  0  0
 83160  1  0  0  0
 84161  1  0  0  0
 84162  1  0  0  0
 85163  1  0  0  0
 85164  1  0  0  0
M  ISO  4   1 100  68 101  85 101  86 100
M  END
> <chiral flag>
0

> <version>
0

> <s_m_source_file>
/data/baiqing/PycharmProjects/Reinvent-master-3.2/result/LINK_invent/BTK/process_docking_weight1_custom_sum_contain_oxygen_bond_distance_aromatic_linkinvent_7_9_3/rearranged_h_0140.sdf

> <i_m_source_file_index>
76

> <r_mmod_Potential_Energy-OPLS-2005>
1234.02551269531

> <r_mmod_Stretch_Energy-OPLS-2005>
461.163696289062

> <r_mmod_Bend_Energy-OPLS-2005>
462.2001953125

> <r_mmod_Torsional_Energy-OPLS-2005>
319.055572509766

> <r_mmod_Improper_Torsional_Energy-OPLS-2005>
16.8936100006104

> <r_mmod_Van_der_Waal_Energy-OPLS-2005>
140.899230957031

> <r_mmod_Electrostatic_Energy-OPLS-2005>
-337.921997070312

> <r_mmod_Solvation_Energy-OPLS-2005>
-197.233047485352

> <b_mmod_Minimization_Converged-OPLS-2005>
0

> <r_mmod_RMS_Derivative-OPLS-2005>
1.06028342247009

$$$$
76
                    3D
 Structure written by MMmdl.
173182  0  0  1  0            999 V2000
  -30.6745  -14.4104   20.6325 C   0  0  0  0  0  0
  -30.4226  -12.2862   19.3991 C   0  0  0  0  0  0
  -29.4890  -12.5236   18.1922 C   0  0  0  0  0  0
  -28.0028  -12.3957   18.5888 C   0  0  0  0  0  0
  -27.6641  -13.1889   19.8792 C   0  0  2  0  0  0
  -28.7002  -12.8604   20.9737 C   0  0  0  0  0  0
  -25.2545  -13.8130   20.5538 C   0  0  0  0  0  0
  -24.1809  -13.0428   20.9098 C   0  0  0  0  0  0
  -24.6370  -11.6903   20.8710 C   0  0  0  0  0  0
  -23.9051  -10.4304   21.0377 C   0  0  0  0  0  0
  -24.3617   -9.4231   21.9148 C   0  0  0  0  0  0
  -23.6356   -8.2214   22.0688 C   0  0  0  0  0  0
  -22.4304   -8.0296   21.3541 C   0  0  0  0  0  0
  -21.9901   -9.0268   20.4674 C   0  0  0  0  0  0
  -22.7223  -10.2134   20.3011 C   0  0  0  0  0  0
  -21.6927   -6.0715   22.5255 C   0  0  0  0  0  0
  -21.4060   -6.5639   23.8175 C   0  0  0  0  0  0
  -21.3671   -5.6820   24.9142 C   0  0  0  0  0  0
  -21.6050   -4.3074   24.7219 C   0  0  0  0  0  0
  -21.8850   -3.8141   23.4349 C   0  0  0  0  0  0
  -21.9225   -4.6938   22.3392 C   0  0  0  0  0  0
  -22.7829  -13.5228   21.1736 C   0  0  0  0  0  0
  -22.1705   -4.2089   21.0972 F   0  0  0  0  0  0
  -21.5628   -3.4569   25.7746 F   0  0  0  0  0  0
  -30.0300  -13.2229   20.4632 N   0  0  0  0  0  0
  -26.3013  -12.9273   20.3343 N   0  0  0  0  0  0
  -25.9266  -11.6446   20.5710 N   0  0  0  0  0  0
  -22.0529  -12.8212   22.0355 N   0  0  0  0  0  0
  -25.4170  -15.1846   20.3802 N   0  0  0  0  0  0
  -31.7541  -14.6644   20.0906 O   0  0  0  0  0  0
  -21.6727   -6.8850   21.4221 O   0  0  0  0  0  0
  -22.3445  -14.5440   20.6472 O   0  0  0  0  0  0
  -24.6102  -31.8685   23.2102 C   0  0  0  0  0  0
  -25.9014  -32.4821   23.8392 C   0  0  1  0  0  0
  -27.2489  -27.4632   20.0952 C   0  0  0  0  0  0
  -25.5878  -33.8620   24.2335 N   0  0  0  0  0  0
  -23.3985  -30.4889   21.5523 C   0  0  2  0  0  0
  -24.8487  -28.9489   20.1277 C   0  0  0  0  0  0
  -22.7366  -29.4666   22.5010 C   0  0  0  0  0  0
  -18.0253  -28.1382   22.8514 C   0  0  0  0  0  0
  -24.1497  -36.7299   23.2630 C   0  0  0  0  0  0
  -25.9215  -30.8418   21.3608 C   0  0  0  0  0  0
  -26.0046  -29.4745   20.7178 C   0  0  0  0  0  0
  -27.2085  -28.7381   20.7022 C   0  0  0  0  0  0
  -26.0794  -26.9436   19.5030 C   0  0  0  0  0  0
  -24.8787  -27.6807   19.5179 C   0  0  0  0  0  0
  -23.6089  -29.8123   20.1725 C   0  0  0  0  0  0
  -25.4109  -36.3080   24.0319 C   0  0  1  0  0  0
  -20.5841  -28.3661   23.1325 C   0  0  2  0  0  0
  -20.6758  -26.9418   22.5417 C   0  0  0  0  0  0
  -19.5745  -26.6382   21.5215 C   0  0  0  0  0  0
  -18.1905  -26.7942   22.1625 C   0  0  0  0  0  0
  -19.1508  -28.8839   23.2937 C   0  0  0  0  0  0
  -18.9454  -30.1446   23.8945 C   0  0  0  0  0  0
  -17.6454  -30.6601   24.0561 C   0  0  0  0  0  0
  -25.9011  -34.9452   23.5121 C   0  0  0  0  0  0
  -16.5338  -29.9100   23.6316 C   0  0  0  0  0  0
  -16.7246  -28.6516   23.0341 C   0  0  0  0  0  0
  -26.4477  -31.6579   25.0676 C   0  0  0  0  0  0
  -25.3797  -31.3717   26.1473 C   0  0  0  0  0  0
  -27.0270  -30.3005   24.6025 C   0  0  0  0  0  0
  -27.6046  -32.4307   25.7465 C   0  0  0  0  0  0
  -27.5581  -37.1784   24.8453 C   0  0  0  0  0  0
  -21.4100  -29.3008   22.3713 N   0  0  0  0  0  0
  -26.4285  -37.3748   23.9405 N   0  0  0  0  0  0
  -24.6628  -31.0783   22.1018 N   0  0  0  0  0  0
  -23.4131  -28.8229   23.3071 O   0  0  0  0  0  0
  -28.4429  -26.7876   20.0108 O   0  0  0  0  0  0
  -26.5559  -34.8910   22.4669 O   0  0  0  0  0  0
  -23.5292  -32.1459   23.7476 O   0  0  0  0  0  0
  -26.3059  -20.1393   22.1897 C   0  0  0  0  0  0
  -26.7358  -21.9757   20.6439 C   0  0  0  0  0  0
  -28.3776  -21.4025   22.3394 C   0  0  0  0  0  0
  -25.8987  -20.9432   21.1090 C   0  0  0  0  0  0
  -27.5572  -20.3512   22.8071 C   0  0  0  0  0  0
  -27.9764  -22.2371   21.2730 C   0  0  0  0  0  0
  -29.9787  -18.0047   23.2419 C   0  0  0  0  0  0
  -27.6650  -17.2532   22.7524 C   0  0  0  0  0  0
  -30.4945  -16.5480   23.3164 C   0  0  0  0  0  0
  -28.0828  -15.7783   22.8083 C   0  0  0  0  0  0
  -28.5149  -18.0874   23.7192 C   0  0  2  0  0  0
  -29.5982  -15.5155   22.5954 C   0  0  1  0  0  0
  -24.5465  -20.7159   20.4602 C   0  0  0  0  0  0
  -26.8910  -19.4996   25.1007 C   0  0  0  0  0  0
  -28.5945  -25.6570   20.8658 C   0  0  0  0  0  0
  -28.3918  -24.3402   20.1017 C   0  0  0  0  0  0
  -27.9946  -19.5245   24.0219 C   0  0  2  0  0  0
  -29.9550  -15.4078   21.1779 N   0  0  0  0  0  0
  -28.8460  -23.2445   20.9045 O   0  0  0  0  0  0
  -31.4658  -12.4005   19.1033 H   0  0  0  0  0  0
  -30.3408  -11.2564   19.7441 H   0  0  0  0  0  0
  -29.7118  -11.8168   17.3916 H   0  0  0  0  0  0
  -29.6766  -13.5164   17.7830 H   0  0  0  0  0  0
  -27.7862  -11.3379   18.7378 H   0  0  0  0  0  0
  -27.3705  -12.7198   17.7591 H   0  0  0  0  0  0
  -27.7352  -14.2475   19.6347 H   0  0  0  0  0  0
  -28.6788  -11.7903   21.1915 H   0  0  0  0  0  0
  -28.4407  -13.3090   21.9234 H   0  0  0  0  0  0
  -25.2762   -9.5766   22.4710 H   0  0  0  0  0  0
  -24.0169   -7.4499   22.7207 H   0  0  0  0  0  0
  -21.0833   -8.8851   19.8958 H   0  0  0  0  0  0
  -22.3711  -10.9671   19.6132 H   0  0  0  0  0  0
  -21.2061   -7.6153   23.9648 H   0  0  0  0  0  0
  -21.1498   -6.0570   25.9031 H   0  0  0  0  0  0
  -22.0617   -2.7603   23.2901 H   0  0  0  0  0  0
  -22.4313  -11.9935   22.4719 H   0  0  0  0  0  0
  -21.1087  -13.1076   22.2549 H   0  0  0  0  0  0
  -24.6438  -15.8322   20.4785 H   0  0  0  0  0  0
  -26.2727  -15.6365   20.0840 H   0  0  0  0  0  0
  -26.7053  -32.5584   23.1127 H   0  0  0  0  0  0
  -25.0072  -33.9767   25.0523 H   0  0  0  0  0  0
  -22.6920  -31.3082   21.4068 H   0  0  0  0  0  0
  -23.3713  -35.9668   23.3283 H   0  0  0  0  0  0
  -24.3598  -36.8920   22.2043 H   0  0  0  0  0  0
  -23.7281  -37.6515   23.6663 H   0  0  0  0  0  0
  -26.0141  -31.6092   20.5922 H   0  0  0  0  0  0
  -26.8167  -30.9070   21.9697 H   0  0  0  0  0  0
  -28.1120  -29.1455   21.1362 H   0  0  0  0  0  0
  -26.0985  -25.9817   19.0097 H   0  0  0  0  0  0
  -23.9876  -27.2708   19.0567 H   0  0  0  0  0  0
  -23.7185  -30.5878   19.4146 H   0  0  0  0  0  0
  -22.7339  -29.2311   19.8774 H   0  0  0  0  0  0
  -25.1266  -36.1922   25.0788 H   0  0  0  0  0  0
  -20.9952  -28.3258   24.1434 H   0  0  0  0  0  0
  -20.5652  -26.2290   23.3595 H   0  0  0  0  0  0
  -21.6632  -26.7460   22.1220 H   0  0  0  0  0  0
  -19.6930  -25.6289   21.1243 H   0  0  0  0  0  0
  -19.6693  -27.3223   20.6768 H   0  0  0  0  0  0
  -17.4173  -26.6675   21.4014 H   0  0  0  0  0  0
  -18.0324  -26.0090   22.9038 H   0  0  0  0  0  0
  -19.7934  -30.7249   24.2336 H   0  0  0  0  0  0
  -17.5005  -31.6293   24.5154 H   0  0  0  0  0  0
  -15.5345  -30.2995   23.7621 H   0  0  0  0  0  0
  -15.8655  -28.0821   22.7028 H   0  0  0  0  0  0
  -24.5893  -30.7127   25.7852 H   0  0  0  0  0  0
  -24.9075  -32.2901   26.4978 H   0  0  0  0  0  0
  -25.8165  -30.8855   27.0209 H   0  0  0  0  0  0
  -26.2795  -29.6786   24.1056 H   0  0  0  0  0  0
  -27.4010  -29.7191   25.4462 H   0  0  0  0  0  0
  -27.8652  -30.4259   23.9163 H   0  0  0  0  0  0
  -27.2630  -33.3565   26.2128 H   0  0  0  0  0  0
  -28.3851  -32.6955   25.0311 H   0  0  0  0  0  0
  -28.0747  -31.8398   26.5349 H   0  0  0  0  0  0
  -28.2549  -38.0122   24.7479 H   0  0  0  0  0  0
  -28.1120  -36.2626   24.6281 H   0  0  0  0  0  0
  -27.2300  -37.1457   25.8860 H   0  0  0  0  0  0
  -20.9247  -29.8732   21.6945 H   0  0  0  0  0  0
  -26.0151  -38.2799   24.1450 H   0  0  0  0  0  0
  -25.6509  -19.3549   22.5435 H   0  0  0  0  0  0
  -26.3968  -22.5347   19.7863 H   0  0  0  0  0  0
  -29.3233  -21.5931   22.8248 H   0  0  0  0  0  0
  -30.0743  -18.3871   22.2247 H   0  0  0  0  0  0
  -30.6121  -18.6417   23.8614 H   0  0  0  0  0  0
  -26.6114  -17.3244   23.0192 H   0  0  0  0  0  0
  -27.7530  -17.6363   21.7351 H   0  0  0  0  0  0
  -30.5592  -16.2641   24.3670 H   0  0  0  0  0  0
  -31.5160  -16.4812   22.9376 H   0  0  0  0  0  0
  -27.4745  -15.2140   22.1057 H   0  0  0  0  0  0
  -27.8113  -15.3963   23.7921 H   0  0  0  0  0  0
  -28.5028  -17.5767   24.6841 H   0  0  0  0  0  0
  -29.8254  -14.5571   23.0603 H   0  0  0  0  0  0
  -24.2762  -19.6599   20.4679 H   0  0  0  0  0  0
  -24.5435  -21.0544   19.4237 H   0  0  0  0  0  0
  -23.7739  -21.2644   21.0007 H   0  0  0  0  0  0
  -26.6018  -20.5091   25.3927 H   0  0  0  0  0  0
  -27.2356  -18.9985   26.0059 H   0  0  0  0  0  0
  -25.9949  -18.9718   24.7663 H   0  0  0  0  0  0
  -29.6150  -25.6849   21.2511 H   0  0  0  0  0  0
  -27.9323  -25.7016   21.7317 H   0  0  0  0  0  0
  -28.9937  -24.3442   19.1941 H   0  0  0  0  0  0
  -27.3581  -24.2984   19.7803 H   0  0  0  0  0  0
  -28.8209  -20.0555   24.4945 H   0  0  0  0  0  0
  -30.2093  -16.3047   20.7906 H   0  0  0  0  0  0
  1 25  1  0  0  0
  1 30  2  0  0  0
  1 88  1  0  0  0
  2  3  1  0  0  0
  2 25  1  0  0  0
  2 90  1  0  0  0
  2 91  1  0  0  0
  3  4  1  0  0  0
  3 92  1  0  0  0
  3 93  1  0  0  0
  4  5  1  0  0  0
  4 94  1  0  0  0
  4 95  1  0  0  0
  5  6  1  0  0  0
  5 26  1  0  0  0
  5 96  1  0  0  0
  6 25  1  0  0  0
  6 97  1  0  0  0
  6 98  1  0  0  0
  7  8  2  0  0  0
  7 26  1  0  0  0
  7 29  1  0  0  0
  8  9  1  0  0  0
  8 22  1  0  0  0
  9 10  1  0  0  0
  9 27  2  0  0  0
 10 11  2  0  0  0
 10 15  1  0  0  0
 11 12  1  0  0  0
 11 99  1  0  0  0
 12 13  2  0  0  0
 12100  1  0  0  0
 13 14  1  0  0  0
 13 31  1  0  0  0
 14 15  2  0  0  0
 14101  1  0  0  0
 15102  1  0  0  0
 16 17  2  0  0  0
 16 21  1  0  0  0
 16 31  1  0  0  0
 17 18  1  0  0  0
 17103  1  0  0  0
 18 19  2  0  0  0
 18104  1  0  0  0
 19 20  1  0  0  0
 19 24  1  0  0  0
 20 21  2  0  0  0
 20105  1  0  0  0
 21 23  1  0  0  0
 22 28  1  0  0  0
 22 32  2  0  0  0
 26 27  1  0  0  0
 28106  1  0  0  0
 28107  1  0  0  0
 29108  1  0  0  0
 29109  1  0  0  0
 33 34  1  0  0  0
 33 66  1  0  0  0
 33 70  2  0  0  0
 34 36  1  0  0  0
 34 59  1  0  0  0
 34110  1  0  0  0
 35 44  2  0  0  0
 35 45  1  0  0  0
 35 68  1  0  0  0
 36 56  1  0  0  0
 36111  1  0  0  0
 37 39  1  0  0  0
 37 47  1  0  0  0
 37 66  1  0  0  0
 37112  1  0  0  0
 38 43  2  0  0  0
 38 46  1  0  0  0
 38 47  1  0  0  0
 39 64  1  0  0  0
 39 67  2  0  0  0
 40 52  1  0  0  0
 40 53  2  0  0  0
 40 58  1  0  0  0
 41113  1  0  0  0
 41114  1  0  0  0
 41115  1  0  0  0
 41 48  1  0  0  0
 42 43  1  0  0  0
 42 66  1  0  0  0
 42116  1  0  0  0
 42117  1  0  0  0
 43 44  1  0  0  0
 44118  1  0  0  0
 45 46  2  0  0  0
 45119  1  0  0  0
 46120  1  0  0  0
 47121  1  0  0  0
 47122  1  0  0  0
 48 56  1  0  0  0
 48 65  1  0  0  0
 48123  1  0  0  0
 49 50  1  0  0  0
 49 53  1  0  0  0
 49 64  1  0  0  0
 49124  1  0  0  0
 50 51  1  0  0  0
 50125  1  0  0  0
 50126  1  0  0  0
 51 52  1  0  0  0
 51127  1  0  0  0
 51128  1  0  0  0
 52129  1  0  0  0
 52130  1  0  0  0
 53 54  1  0  0  0
 54 55  2  0  0  0
 54131  1  0  0  0
 55 57  1  0  0  0
 55132  1  0  0  0
 56 69  2  0  0  0
 57 58  2  0  0  0
 57133  1  0  0  0
 58134  1  0  0  0
 59 60  1  0  0  0
 59 61  1  0  0  0
 59 62  1  0  0  0
 60135  1  0  0  0
 60136  1  0  0  0
 60137  1  0  0  0
 61138  1  0  0  0
 61139  1  0  0  0
 61140  1  0  0  0
 62141  1  0  0  0
 62142  1  0  0  0
 62143  1  0  0  0
 63 65  1  0  0  0
 63144  1  0  0  0
 63145  1  0  0  0
 63146  1  0  0  0
 64147  1  0  0  0
 65148  1  0  0  0
 68 85  1  0  0  0
 71 74  2  0  0  0
 71 75  1  0  0  0
 71149  1  0  0  0
 72 74  1  0  0  0
 72 76  2  0  0  0
 72150  1  0  0  0
 73 75  2  0  0  0
 73 76  1  0  0  0
 73151  1  0  0  0
 74 83  1  0  0  0
 75 87  1  0  0  0
 76 89  1  0  0  0
 77 79  1  0  0  0
 77152  1  0  0  0
 77153  1  0  0  0
 77 81  1  0  0  0
 78 80  1  0  0  0
 78 81  1  0  0  0
 78154  1  0  0  0
 78155  1  0  0  0
 79 82  1  0  0  0
 79156  1  0  0  0
 79157  1  0  0  0
 80 82  1  0  0  0
 80158  1  0  0  0
 80159  1  0  0  0
 81 87  1  0  0  0
 81160  1  0  0  0
 82 88  1  0  0  0
 82161  1  0  0  0
 83162  1  0  0  0
 83163  1  0  0  0
 83164  1  0  0  0
 84165  1  0  0  0
 84166  1  0  0  0
 84167  1  0  0  0
 84 87  1  0  0  0
 85 86  1  0  0  0
 85168  1  0  0  0
 85169  1  0  0  0
 86 89  1  0  0  0
 86170  1  0  0  0
 86171  1  0  0  0
 87172  1  0  0  0
 88173  1  0  0  0
M  ISO  4   1 100  68 101  85 101  88 100
M  END
> <chiral flag>
0

> <version>
0

> <s_m_source_file>
/data/baiqing/PycharmProjects/Reinvent-master-3.2/result/LINK_invent/BTK/process_docking_weight1_custom_sum_contain_oxygen_bond_distance_aromatic_linkinvent_7_9_3/rearranged_h_0140.sdf

> <i_m_source_file_index>
77

> <r_mmod_Potential_Energy-OPLS-2005>
49.4386291503906

> <r_mmod_Stretch_Energy-OPLS-2005>
35.4093780517578

> <r_mmod_Bend_Energy-OPLS-2005>
126.376197814941

> <r_mmod_Torsional_Energy-OPLS-2005>
303.629211425781

> <r_mmod_Improper_Torsional_Energy-OPLS-2005>
10.8324594497681

> <r_mmod_Van_der_Waal_Energy-OPLS-2005>
156.255294799805

> <r_mmod_Electrostatic_Energy-OPLS-2005>
-401.016906738281

> <r_mmod_Solvation_Energy-OPLS-2005>
-191.441436767578

> <b_mmod_Minimization_Converged-OPLS-2005>
0

> <r_mmod_RMS_Derivative-OPLS-2005>
5.65111351013184

$$$$
77
                    3D
 Structure written by MMmdl.
157166  0  0  1  0            999 V2000
  -30.5762  -14.7618   20.4701 C   0  0  0  0  0  0
  -30.4437  -12.4639   19.4582 C   0  0  0  0  0  0
  -29.5112  -12.4964   18.2271 C   0  0  0  0  0  0
  -28.0376  -12.3108   18.6479 C   0  0  0  0  0  0
  -27.6377  -13.2170   19.8419 C   0  0  2  0  0  0
  -28.6866  -13.1512   20.9725 C   0  0  0  0  0  0
  -25.2496  -13.8154   20.5699 C   0  0  0  0  0  0
  -24.1767  -13.0417   20.9212 C   0  0  0  0  0  0
  -24.6332  -11.6885   20.8728 C   0  0  0  0  0  0
  -23.8987  -10.4276   21.0383 C   0  0  0  0  0  0
  -24.3551   -9.4206   21.9159 C   0  0  0  0  0  0
  -23.6253   -8.2227   22.0748 C   0  0  0  0  0  0
  -22.4239   -8.0235   21.3538 C   0  0  0  0  0  0
  -21.9852   -9.0199   20.4634 C   0  0  0  0  0  0
  -22.7152  -10.2098   20.3035 C   0  0  0  0  0  0
  -21.6848   -6.0685   22.5259 C   0  0  0  0  0  0
  -21.4004   -6.5606   23.8186 C   0  0  0  0  0  0
  -21.3681   -5.6768   24.9161 C   0  0  0  0  0  0
  -21.6054   -4.3030   24.7229 C   0  0  0  0  0  0
  -21.8823   -3.8107   23.4352 C   0  0  0  0  0  0
  -21.9195   -4.6910   22.3395 C   0  0  0  0  0  0
  -22.7788  -13.5196   21.1869 C   0  0  0  0  0  0
  -22.1657   -4.2100   21.0971 F   0  0  0  0  0  0
  -21.5659   -3.4521   25.7749 F   0  0  0  0  0  0
  -29.9801  -13.5215   20.3837 N   0  0  0  0  0  0
  -26.2897  -12.9329   20.3238 N   0  0  0  0  0  0
  -25.9256  -11.6486   20.5726 N   0  0  0  0  0  0
  -22.0437  -12.8198   22.0444 N   0  0  0  0  0  0
  -25.4186  -15.1897   20.4136 N   0  0  0  0  0  0
  -31.7834  -14.8814   20.2386 O   0  0  0  0  0  0
  -21.6635   -6.8814   21.4208 O   0  0  0  0  0  0
  -22.3465  -14.5488   20.6707 O   0  0  0  0  0  0
  -24.6382  -31.8542   23.1982 C   0  0  0  0  0  0
  -25.9154  -32.4810   23.8319 C   0  0  1  0  0  0
  -27.2033  -27.2254   20.1399 C   0  0  0  0  0  0
  -25.5922  -33.8608   24.2238 N   0  0  0  0  0  0
  -23.4373  -30.4868   21.5378 C   0  0  2  0  0  0
  -24.8801  -28.9281   20.1127 C   0  0  0  0  0  0
  -22.7547  -29.4644   22.4809 C   0  0  0  0  0  0
  -18.0312  -28.1443   22.8494 C   0  0  0  0  0  0
  -24.1460  -36.7316   23.2633 C   0  0  0  0  0  0
  -25.9872  -30.7621   21.3799 C   0  0  0  0  0  0
  -26.0563  -29.3781   20.7262 C   0  0  0  0  0  0
  -27.2218  -28.5398   20.7294 C   0  0  0  0  0  0
  -26.0010  -26.8589   19.4911 C   0  0  0  0  0  0
  -24.8578  -27.6778   19.4845 C   0  0  0  0  0  0
  -23.6642  -29.8323   20.1509 C   0  0  0  0  0  0
  -25.4080  -36.3102   24.0333 C   0  0  1  0  0  0
  -20.5917  -28.3758   23.1224 C   0  0  2  0  0  0
  -20.6811  -26.9473   22.5388 C   0  0  0  0  0  0
  -19.5765  -26.6413   21.5236 C   0  0  0  0  0  0
  -18.1948  -26.7989   22.1643 C   0  0  0  0  0  0
  -19.1566  -28.8905   23.2884 C   0  0  0  0  0  0
  -18.9502  -30.1494   23.8928 C   0  0  0  0  0  0
  -17.6503  -30.6636   24.0587 C   0  0  0  0  0  0
  -25.9035  -34.9486   23.5079 C   0  0  0  0  0  0
  -16.5385  -29.9157   23.6343 C   0  0  0  0  0  0
  -16.7299  -28.6579   23.0353 C   0  0  0  0  0  0
  -26.4483  -31.6665   25.0752 C   0  0  0  0  0  0
  -25.3657  -31.3908   26.1465 C   0  0  0  0  0  0
  -27.0325  -30.3068   24.6275 C   0  0  0  0  0  0
  -27.6000  -32.4433   25.7540 C   0  0  0  0  0  0
  -27.5570  -37.1809   24.8454 C   0  0  0  0  0  0
  -21.4239  -29.3117   22.3612 N   0  0  0  0  0  0
  -26.4251  -37.3806   23.9443 N   0  0  0  0  0  0
  -24.7075  -31.0509   22.0961 N   0  0  0  0  0  0
  -23.4238  -28.8136   23.2871 O   0  0  0  0  0  0
  -28.2742  -26.2922   20.1944 O   0  0  0  0  0  0
  -26.5584  -34.8963   22.4637 O   0  0  0  0  0  0
  -23.5503  -32.1296   23.7282 O   0  0  0  0  0  0
  -29.8653  -17.3326   22.3882 C   0  0  0  0  0  0
  -29.4842  -19.7329   22.3002 C   0  0  0  0  0  0
  -29.6846  -18.5615   23.0544 C   0  0  0  0  0  0
  -29.8121  -17.2452   20.9842 C   0  0  0  0  0  0
  -29.4461  -19.6696   20.8969 C   0  0  0  0  0  0
  -30.3409  -19.6727   25.3579 C   0  0  0  0  0  0
  -30.8613  -18.2485   25.3797 C   0  0  0  0  0  0
  -29.6461  -18.5966   24.5521 C   0  0  0  0  0  0
  -29.0241  -23.5924   20.2906 C   0  0  0  0  0  0
  -27.9446  -24.8092   20.2504 C   0  0  0  0  0  0
  -28.5154  -22.0604   20.5319 C   0  0  0  0  0  0
  -29.5980  -18.4297   20.2669 N   0  0  0  0  0  0
  -29.7182  -15.8578   20.4735 N   0  0  0  0  0  0
  -29.3124  -20.8543   20.1096 O   0  0  0  0  0  0
  -31.4801  -12.6132   19.1518 H   0  0  0  0  0  0
  -30.4052  -11.4869   19.9453 H   0  0  0  0  0  0
  -29.7995  -11.7205   17.5164 H   0  0  0  0  0  0
  -29.6265  -13.4481   17.7096 H   0  0  0  0  0  0
  -27.9065  -11.2639   18.9239 H   0  0  0  0  0  0
  -27.3762  -12.4883   17.7988 H   0  0  0  0  0  0
  -27.6258  -14.2344   19.4524 H   0  0  0  0  0  0
  -28.7359  -12.1506   21.4036 H   0  0  0  0  0  0
  -28.4187  -13.8238   21.7895 H   0  0  0  0  0  0
  -25.2697   -9.5712   22.4725 H   0  0  0  0  0  0
  -23.9986   -7.4625   22.7463 H   0  0  0  0  0  0
  -21.0802   -8.8646   19.8937 H   0  0  0  0  0  0
  -22.3552  -10.9606   19.6140 H   0  0  0  0  0  0
  -21.1957   -7.6112   23.9662 H   0  0  0  0  0  0
  -21.1532   -6.0514   25.9064 H   0  0  0  0  0  0
  -22.0596   -2.7566   23.2862 H   0  0  0  0  0  0
  -22.4053  -11.9869   22.4850 H   0  0  0  0  0  0
  -21.1031  -13.1191   22.2618 H   0  0  0  0  0  0
  -24.6517  -15.8388   20.5495 H   0  0  0  0  0  0
  -26.2507  -15.6403   20.0570 H   0  0  0  0  0  0
  -26.7257  -32.5458   23.1075 H   0  0  0  0  0  0
  -25.0146  -33.9729   25.0436 H   0  0  0  0  0  0
  -22.7395  -31.3146   21.3907 H   0  0  0  0  0  0
  -23.3749  -35.9632   23.3278 H   0  0  0  0  0  0
  -24.3539  -36.8967   22.2056 H   0  0  0  0  0  0
  -23.7201  -37.6510   23.6656 H   0  0  0  0  0  0
  -26.1170  -31.5175   20.6041 H   0  0  0  0  0  0
  -26.8702  -30.8190   22.0060 H   0  0  0  0  0  0
  -28.1193  -28.8723   21.2325 H   0  0  0  0  0  0
  -25.8968  -25.9167   18.9793 H   0  0  0  0  0  0
  -23.9583  -27.3300   18.9942 H   0  0  0  0  0  0
  -23.8260  -30.6202   19.4136 H   0  0  0  0  0  0
  -22.7757  -29.2956   19.8165 H   0  0  0  0  0  0
  -25.1273  -36.1925   25.0836 H   0  0  0  0  0  0
  -21.0040  -28.3368   24.1323 H   0  0  0  0  0  0
  -20.5730  -26.2401   23.3622 H   0  0  0  0  0  0
  -21.6684  -26.7507   22.1162 H   0  0  0  0  0  0
  -19.6937  -25.6310   21.1308 H   0  0  0  0  0  0
  -19.6706  -27.3210   20.6755 H   0  0  0  0  0  0
  -17.4212  -26.6747   21.4058 H   0  0  0  0  0  0
  -18.0327  -26.0150   22.9042 H   0  0  0  0  0  0
  -19.7972  -30.7308   24.2326 H   0  0  0  0  0  0
  -17.5064  -31.6316   24.5194 H   0  0  0  0  0  0
  -15.5394  -30.3081   23.7656 H   0  0  0  0  0  0
  -15.8702  -28.0937   22.7016 H   0  0  0  0  0  0
  -24.5752  -30.7361   25.7795 H   0  0  0  0  0  0
  -24.8944  -32.3153   26.4834 H   0  0  0  0  0  0
  -25.7884  -30.9086   27.0285 H   0  0  0  0  0  0
  -26.2935  -29.6866   24.1206 H   0  0  0  0  0  0
  -27.3891  -29.7318   25.4828 H   0  0  0  0  0  0
  -27.8853  -30.4360   23.9612 H   0  0  0  0  0  0
  -27.2564  -33.3736   26.2069 H   0  0  0  0  0  0
  -28.3825  -32.7008   25.0401 H   0  0  0  0  0  0
  -28.0641  -31.8607   26.5510 H   0  0  0  0  0  0
  -28.2548  -38.0137   24.7547 H   0  0  0  0  0  0
  -28.1091  -36.2674   24.6188 H   0  0  0  0  0  0
  -27.2307  -37.1381   25.8856 H   0  0  0  0  0  0
  -20.9404  -29.8927   21.6913 H   0  0  0  0  0  0
  -26.0144  -38.2879   24.1483 H   0  0  0  0  0  0
  -29.9759  -16.4299   22.9730 H   0  0  0  0  0  0
  -29.3761  -20.6743   22.8177 H   0  0  0  0  0  0
  -30.9421  -20.4162   24.8386 H   0  0  0  0  0  0
  -29.8132  -20.0380   26.2368 H   0  0  0  0  0  0
  -30.6943  -17.6714   26.2868 H   0  0  0  0  0  0
  -31.7956  -18.0426   24.8571 H   0  0  0  0  0  0
  -28.6812  -18.2381   24.9134 H   0  0  0  0  0  0
  -29.7643  -23.8171   21.0568 H   0  0  0  0  0  0
  -29.5674  -23.6115   19.3466 H   0  0  0  0  0  0
  -27.3516  -24.5619   19.3728 H   0  0  0  0  0  0
  -27.2814  -24.6699   21.1068 H   0  0  0  0  0  0
  -27.5830  -21.9549   19.9760 H   0  0  0  0  0  0
  -28.2025  -21.9746   21.5707 H   0  0  0  0  0  0
  -28.7637  -15.5654   20.3570 H   0  0  0  0  0  0
  1 25  1  0  0  0
  1 30  2  0  0  0
  1 83  1  0  0  0
  2  3  1  0  0  0
  2 25  1  0  0  0
  2 85  1  0  0  0
  2 86  1  0  0  0
  3  4  1  0  0  0
  3 87  1  0  0  0
  3 88  1  0  0  0
  4  5  1  0  0  0
  4 89  1  0  0  0
  4 90  1  0  0  0
  5  6  1  0  0  0
  5 26  1  0  0  0
  5 91  1  0  0  0
  6 25  1  0  0  0
  6 92  1  0  0  0
  6 93  1  0  0  0
  7  8  2  0  0  0
  7 26  1  0  0  0
  7 29  1  0  0  0
  8  9  1  0  0  0
  8 22  1  0  0  0
  9 10  1  0  0  0
  9 27  2  0  0  0
 10 11  2  0  0  0
 10 15  1  0  0  0
 11 12  1  0  0  0
 11 94  1  0  0  0
 12 13  2  0  0  0
 12 95  1  0  0  0
 13 14  1  0  0  0
 13 31  1  0  0  0
 14 15  2  0  0  0
 14 96  1  0  0  0
 15 97  1  0  0  0
 16 17  2  0  0  0
 16 21  1  0  0  0
 16 31  1  0  0  0
 17 18  1  0  0  0
 17 98  1  0  0  0
 18 19  2  0  0  0
 18 99  1  0  0  0
 19 20  1  0  0  0
 19 24  1  0  0  0
 20 21  2  0  0  0
 20100  1  0  0  0
 21 23  1  0  0  0
 22 28  1  0  0  0
 22 32  2  0  0  0
 26 27  1  0  0  0
 28101  1  0  0  0
 28102  1  0  0  0
 29103  1  0  0  0
 29104  1  0  0  0
 33 34  1  0  0  0
 33 66  1  0  0  0
 33 70  2  0  0  0
 34 36  1  0  0  0
 34 59  1  0  0  0
 34105  1  0  0  0
 35 44  2  0  0  0
 35 45  1  0  0  0
 35 68  1  0  0  0
 36 56  1  0  0  0
 36106  1  0  0  0
 37 39  1  0  0  0
 37 47  1  0  0  0
 37 66  1  0  0  0
 37107  1  0  0  0
 38 43  2  0  0  0
 38 46  1  0  0  0
 38 47  1  0  0  0
 39 64  1  0  0  0
 39 67  2  0  0  0
 40 52  1  0  0  0
 40 53  2  0  0  0
 40 58  1  0  0  0
 41108  1  0  0  0
 41109  1  0  0  0
 41110  1  0  0  0
 41 48  1  0  0  0
 42 43  1  0  0  0
 42 66  1  0  0  0
 42111  1  0  0  0
 42112  1  0  0  0
 43 44  1  0  0  0
 44113  1  0  0  0
 45 46  2  0  0  0
 45114  1  0  0  0
 46115  1  0  0  0
 47116  1  0  0  0
 47117  1  0  0  0
 48 56  1  0  0  0
 48 65  1  0  0  0
 48118  1  0  0  0
 49 50  1  0  0  0
 49 53  1  0  0  0
 49 64  1  0  0  0
 49119  1  0  0  0
 50 51  1  0  0  0
 50120  1  0  0  0
 50121  1  0  0  0
 51 52  1  0  0  0
 51122  1  0  0  0
 51123  1  0  0  0
 52124  1  0  0  0
 52125  1  0  0  0
 53 54  1  0  0  0
 54 55  2  0  0  0
 54126  1  0  0  0
 55 57  1  0  0  0
 55127  1  0  0  0
 56 69  2  0  0  0
 57 58  2  0  0  0
 57128  1  0  0  0
 58129  1  0  0  0
 59 60  1  0  0  0
 59 61  1  0  0  0
 59 62  1  0  0  0
 60130  1  0  0  0
 60131  1  0  0  0
 60132  1  0  0  0
 61133  1  0  0  0
 61134  1  0  0  0
 61135  1  0  0  0
 62136  1  0  0  0
 62137  1  0  0  0
 62138  1  0  0  0
 63 65  1  0  0  0
 63139  1  0  0  0
 63140  1  0  0  0
 63141  1  0  0  0
 64142  1  0  0  0
 65143  1  0  0  0
 68 80  1  0  0  0
 71 73  2  0  0  0
 71 74  1  0  0  0
 71144  1  0  0  0
 72 73  1  0  0  0
 72 75  2  0  0  0
 72145  1  0  0  0
 73 78  1  0  0  0
 74 82  2  0  0  0
 74 83  1  0  0  0
 75 82  1  0  0  0
 75 84  1  0  0  0
 76 77  1  0  0  0
 76 78  1  0  0  0
 76146  1  0  0  0
 76147  1  0  0  0
 77 78  1  0  0  0
 77148  1  0  0  0
 77149  1  0  0  0
 78150  1  0  0  0
 79 80  1  0  0  0
 79 81  1  0  0  0
 79151  1  0  0  0
 79152  1  0  0  0
 80153  1  0  0  0
 80154  1  0  0  0
 81 84  1  0  0  0
 81155  1  0  0  0
 81156  1  0  0  0
 83157  1  0  0  0
M  ISO  4   1 100  68 101  80 101  83 100
M  END
> <chiral flag>
0

> <version>
0

> <s_m_source_file>
/data/baiqing/PycharmProjects/Reinvent-master-3.2/result/LINK_invent/BTK/process_docking_weight1_custom_sum_contain_oxygen_bond_distance_aromatic_linkinvent_7_9_3/rearranged_h_0140.sdf

> <i_m_source_file_index>
78

> <r_mmod_Potential_Energy-OPLS-2005>
105.212104797363

> <r_mmod_Stretch_Energy-OPLS-2005>
136.453216552734

> <r_mmod_Bend_Energy-OPLS-2005>
186.256637573242

> <r_mmod_Torsional_Energy-OPLS-2005>
291.95654296875

> <r_mmod_Improper_Torsional_Energy-OPLS-2005>
11.8949966430664

> <r_mmod_Van_der_Waal_Energy-OPLS-2005>
138.482727050781

> <r_mmod_Electrostatic_Energy-OPLS-2005>
-536.698669433594

> <r_mmod_Solvation_Energy-OPLS-2005>
-228.694351196289

> <b_mmod_Minimization_Converged-OPLS-2005>
0

> <r_mmod_RMS_Derivative-OPLS-2005>
3.84618616104126

$$$$
78
                    3D
 Structure written by MMmdl.
174184  0  0  1  0            999 V2000
  -30.4848  -15.0848   20.4096 C   0  0  0  0  0  0
  -30.4417  -12.6890   19.4859 C   0  0  0  0  0  0
  -29.5158  -12.5347   18.2561 C   0  0  0  0  0  0
  -28.0585  -12.2905   18.6949 C   0  0  0  0  0  0
  -27.6154  -13.2509   19.8271 C   0  0  2  0  0  0
  -28.6624  -13.3421   20.9549 C   0  0  0  0  0  0
  -25.2395  -13.8208   20.5744 C   0  0  0  0  0  0
  -24.1725  -13.0421   20.9260 C   0  0  0  0  0  0
  -24.6355  -11.6915   20.8786 C   0  0  0  0  0  0
  -23.9054  -10.4276   21.0414 C   0  0  0  0  0  0
  -24.3602   -9.4192   21.9189 C   0  0  0  0  0  0
  -23.6287   -8.2224   22.0748 C   0  0  0  0  0  0
  -22.4279   -8.0259   21.3532 C   0  0  0  0  0  0
  -21.9909   -9.0230   20.4641 C   0  0  0  0  0  0
  -22.7226  -10.2119   20.3055 C   0  0  0  0  0  0
  -21.6845   -6.0724   22.5275 C   0  0  0  0  0  0
  -21.4011   -6.5631   23.8209 C   0  0  0  0  0  0
  -21.3671   -5.6788   24.9172 C   0  0  0  0  0  0
  -21.6043   -4.3052   24.7223 C   0  0  0  0  0  0
  -21.8819   -3.8138   23.4349 C   0  0  0  0  0  0
  -21.9194   -4.6951   22.3403 C   0  0  0  0  0  0
  -22.7745  -13.5189   21.1910 C   0  0  0  0  0  0
  -22.1657   -4.2141   21.0980 F   0  0  0  0  0  0
  -21.5639   -3.4536   25.7741 F   0  0  0  0  0  0
  -29.9045  -13.8071   20.3225 N   0  0  0  0  0  0
  -26.2817  -12.9442   20.3257 N   0  0  0  0  0  0
  -25.9291  -11.6576   20.5766 N   0  0  0  0  0  0
  -22.0415  -12.8163   22.0478 N   0  0  0  0  0  0
  -25.4033  -15.1936   20.4149 N   0  0  0  0  0  0
  -31.7129  -15.1083   20.2558 O   0  0  0  0  0  0
  -21.6635   -6.8867   21.4239 O   0  0  0  0  0  0
  -22.3428  -14.5489   20.6761 O   0  0  0  0  0  0
  -24.6532  -31.8343   23.1783 C   0  0  0  0  0  0
  -25.9261  -32.4642   23.8201 C   0  0  1  0  0  0
  -27.2104  -27.0268   20.1738 C   0  0  0  0  0  0
  -25.5982  -33.8446   24.2131 N   0  0  0  0  0  0
  -23.4619  -30.4510   21.5258 C   0  0  2  0  0  0
  -24.9131  -28.8521   20.1149 C   0  0  0  0  0  0
  -22.7616  -29.4506   22.4814 C   0  0  0  0  0  0
  -18.0326  -28.1411   22.8497 C   0  0  0  0  0  0
  -24.1477  -36.7201   23.2646 C   0  0  0  0  0  0
  -26.0247  -30.6712   21.3945 C   0  0  0  0  0  0
  -26.0953  -29.2703   20.7406 C   0  0  0  0  0  0
  -27.2463  -28.3773   20.7449 C   0  0  0  0  0  0
  -26.0024  -26.7364   19.5044 C   0  0  0  0  0  0
  -24.8862  -27.6035   19.4757 C   0  0  0  0  0  0
  -23.6967  -29.7707   20.1501 C   0  0  0  0  0  0
  -25.4115  -36.2979   24.0315 C   0  0  1  0  0  0
  -20.5949  -28.3736   23.1208 C   0  0  2  0  0  0
  -20.6801  -26.9423   22.5411 C   0  0  0  0  0  0
  -19.5761  -26.6391   21.5222 C   0  0  0  0  0  0
  -18.1947  -26.7956   22.1632 C   0  0  0  0  0  0
  -19.1588  -28.8892   23.2848 C   0  0  0  0  0  0
  -18.9508  -30.1493   23.8870 C   0  0  0  0  0  0
  -17.6504  -30.6606   24.0562 C   0  0  0  0  0  0
  -25.9090  -34.9370   23.5030 C   0  0  0  0  0  0
  -16.5398  -29.9101   23.6342 C   0  0  0  0  0  0
  -16.7313  -28.6517   23.0375 C   0  0  0  0  0  0
  -26.4557  -31.6551   25.0681 C   0  0  0  0  0  0
  -25.3722  -31.3803   26.1374 C   0  0  0  0  0  0
  -27.0440  -30.2925   24.6342 C   0  0  0  0  0  0
  -27.6058  -32.4352   25.7489 C   0  0  0  0  0  0
  -27.5556  -37.1755   24.8471 C   0  0  0  0  0  0
  -21.4299  -29.3058   22.3561 N   0  0  0  0  0  0
  -26.4257  -37.3715   23.9420 N   0  0  0  0  0  0
  -24.7337  -31.0096   22.0879 N   0  0  0  0  0  0
  -23.4204  -28.8081   23.3022 O   0  0  0  0  0  0
  -28.2409  -25.9841   20.1701 O   0  0  0  0  0  0
  -26.5658  -34.8894   22.4599 O   0  0  0  0  0  0
  -23.5634  -32.1282   23.6951 O   0  0  0  0  0  0
  -30.4714  -19.0768   22.7909 C   0  0  0  0  0  0
  -30.2978  -17.8557   22.1311 C   0  0  0  0  0  0
  -30.2640  -20.3360   22.1796 C   0  0  0  0  0  0
  -29.8274  -17.7853   20.8190 C   0  0  0  0  0  0
  -29.5929  -20.3793   20.9126 C   0  0  0  0  0  0
  -31.8441  -26.1111   23.0897 C   0  0  0  0  0  0
  -32.0087  -26.3691   21.6098 C   0  0  0  0  0  0
  -33.5057  -20.4648   25.8464 C   0  0  0  0  0  0
  -33.0102  -19.1988   25.1960 C   0  0  0  0  0  0
  -31.0011  -25.3565   22.0940 C   0  0  0  0  0  0
  -32.8894  -20.5214   24.4634 C   0  0  0  0  0  0
  -31.2303  -23.8823   21.8217 C   0  0  0  0  0  0
  -31.6112  -21.3418   24.2677 C   0  0  0  0  0  0
  -30.4058  -22.9294   22.7217 C   0  0  0  0  0  0
  -28.0157  -24.4630   20.6299 C   0  0  0  0  0  0
  -28.3522  -22.8224   20.0759 C   0  0  0  0  0  0
  -31.0487  -21.5261   22.8131 C   0  0  2  0  0  0
  -29.4309  -19.0805   20.2695 N   0  0  0  0  0  0
  -29.6890  -16.2997   20.3433 N   0  0  0  0  0  0
  -33.9121  -20.7426   23.5126 O   0  0  0  0  0  0
  -29.4831  -21.7108   20.2361 O   0  0  0  0  0  0
  -31.4634  -12.8869   19.1580 H   0  0  0  0  0  0
  -30.4847  -11.7626   20.0602 H   0  0  0  0  0  0
  -29.8563  -11.7111   17.6272 H   0  0  0  0  0  0
  -29.5657  -13.4359   17.6426 H   0  0  0  0  0  0
  -27.9947  -11.2597   19.0466 H   0  0  0  0  0  0
  -27.3804  -12.3615   17.8443 H   0  0  0  0  0  0
  -27.5565  -14.2342   19.3596 H   0  0  0  0  0  0
  -28.7961  -12.3783   21.4492 H   0  0  0  0  0  0
  -28.3426  -14.0480   21.7256 H   0  0  0  0  0  0
  -25.2742   -9.5671   22.4770 H   0  0  0  0  0  0
  -23.9998   -7.4610   22.7459 H   0  0  0  0  0  0
  -21.0847   -8.8731   19.8940 H   0  0  0  0  0  0
  -22.3668  -10.9651   19.6162 H   0  0  0  0  0  0
  -21.1989   -7.6137   23.9707 H   0  0  0  0  0  0
  -21.1504   -6.0522   25.9079 H   0  0  0  0  0  0
  -22.0592   -2.7602   23.2847 H   0  0  0  0  0  0
  -22.4062  -11.9826   22.4845 H   0  0  0  0  0  0
  -21.1034  -13.1157   22.2718 H   0  0  0  0  0  0
  -24.6263  -15.8383   20.5136 H   0  0  0  0  0  0
  -26.2448  -15.6414   20.0787 H   0  0  0  0  0  0
  -26.7314  -32.5222   23.0914 H   0  0  0  0  0  0
  -25.0167  -33.9538   25.0305 H   0  0  0  0  0  0
  -22.7709  -31.2816   21.3634 H   0  0  0  0  0  0
  -23.3751  -35.9522   23.3300 H   0  0  0  0  0  0
  -24.3568  -36.8835   22.2063 H   0  0  0  0  0  0
  -23.7223  -37.6388   23.6698 H   0  0  0  0  0  0
  -26.1947  -31.4181   20.6174 H   0  0  0  0  0  0
  -26.8881  -30.7264   22.0463 H   0  0  0  0  0  0
  -28.1498  -28.6968   21.2449 H   0  0  0  0  0  0
  -25.9060  -25.7837   19.0025 H   0  0  0  0  0  0
  -23.9891  -27.2817   18.9633 H   0  0  0  0  0  0
  -23.8503  -30.5411   19.3929 H   0  0  0  0  0  0
  -22.8054  -29.2273   19.8307 H   0  0  0  0  0  0
  -25.1314  -36.1784   25.0811 H   0  0  0  0  0  0
  -21.0063  -28.3353   24.1315 H   0  0  0  0  0  0
  -20.5678  -26.2360   23.3659 H   0  0  0  0  0  0
  -21.6664  -26.7417   22.1203 H   0  0  0  0  0  0
  -19.6898  -25.6296   21.1259 H   0  0  0  0  0  0
  -19.6671  -27.3200   20.6750 H   0  0  0  0  0  0
  -17.4216  -26.6731   21.4036 H   0  0  0  0  0  0
  -18.0311  -26.0109   22.9032 H   0  0  0  0  0  0
  -19.7996  -30.7319   24.2207 H   0  0  0  0  0  0
  -17.5068  -31.6282   24.5187 H   0  0  0  0  0  0
  -15.5394  -30.2990   23.7692 H   0  0  0  0  0  0
  -15.8719  -28.0821   22.7095 H   0  0  0  0  0  0
  -24.5912  -30.7125   25.7719 H   0  0  0  0  0  0
  -24.8916  -32.3018   26.4681 H   0  0  0  0  0  0
  -25.8015  -30.9083   27.0220 H   0  0  0  0  0  0
  -26.3077  -29.6618   24.1349 H   0  0  0  0  0  0
  -27.4000  -29.7278   25.4967 H   0  0  0  0  0  0
  -27.9012  -30.4119   23.9709 H   0  0  0  0  0  0
  -27.2615  -33.3684   26.1966 H   0  0  0  0  0  0
  -28.3945  -32.6860   25.0377 H   0  0  0  0  0  0
  -28.0634  -31.8537   26.5507 H   0  0  0  0  0  0
  -28.2580  -38.0043   24.7518 H   0  0  0  0  0  0
  -28.1045  -36.2582   24.6308 H   0  0  0  0  0  0
  -27.2281  -37.1413   25.8873 H   0  0  0  0  0  0
  -20.9521  -29.8751   21.6715 H   0  0  0  0  0  0
  -26.0107  -38.2764   24.1466 H   0  0  0  0  0  0
  -30.8837  -19.0003   23.7774 H   0  0  0  0  0  0
  -30.5641  -16.9534   22.6637 H   0  0  0  0  0  0
  -31.3494  -26.8839   23.6760 H   0  0  0  0  0  0
  -32.6335  -25.5595   23.5992 H   0  0  0  0  0  0
  -31.6137  -27.2948   21.1975 H   0  0  0  0  0  0
  -32.9189  -26.0012   21.1406 H   0  0  0  0  0  0
  -34.5812  -20.5941   25.9502 H   0  0  0  0  0  0
  -32.9194  -20.8546   26.6775 H   0  0  0  0  0  0
  -32.1161  -18.7572   25.6322 H   0  0  0  0  0  0
  -33.7612  -18.4832   24.8650 H   0  0  0  0  0  0
  -29.9673  -25.6773   22.0490 H   0  0  0  0  0  0
  -32.2984  -23.6981   21.9608 H   0  0  0  0  0  0
  -31.0378  -23.6800   20.7672 H   0  0  0  0  0  0
  -31.8822  -22.3186   24.6700 H   0  0  0  0  0  0
  -30.8306  -20.9754   24.9344 H   0  0  0  0  0  0
  -29.3649  -22.8468   22.4375 H   0  0  0  0  0  0
  -30.3363  -23.3882   23.7078 H   0  0  0  0  0  0
  -28.2146  -24.4761   21.6971 H   0  0  0  0  0  0
  -26.9268  -24.4352   20.6368 H   0  0  0  0  0  0
  -28.1932  -22.8660   18.9987 H   0  0  0  0  0  0
  -27.4895  -22.2615   20.4316 H   0  0  0  0  0  0
  -31.9280  -21.5548   22.1714 H   0  0  0  0  0  0
  -28.7472  -16.0869   20.0573 H   0  0  0  0  0  0
  -34.6779  -20.2478   23.7847 H   0  0  0  0  0  0
  1 25  1  0  0  0
  1 30  2  0  0  0
  1 89  1  0  0  0
  2  3  1  0  0  0
  2 25  1  0  0  0
  2 92  1  0  0  0
  2 93  1  0  0  0
  3  4  1  0  0  0
  3 94  1  0  0  0
  3 95  1  0  0  0
  4  5  1  0  0  0
  4 96  1  0  0  0
  4 97  1  0  0  0
  5  6  1  0  0  0
  5 26  1  0  0  0
  5 98  1  0  0  0
  6 25  1  0  0  0
  6 99  1  0  0  0
  6100  1  0  0  0
  7  8  2  0  0  0
  7 26  1  0  0  0
  7 29  1  0  0  0
  8  9  1  0  0  0
  8 22  1  0  0  0
  9 10  1  0  0  0
  9 27  2  0  0  0
 10 11  2  0  0  0
 10 15  1  0  0  0
 11 12  1  0  0  0
 11101  1  0  0  0
 12 13  2  0  0  0
 12102  1  0  0  0
 13 14  1  0  0  0
 13 31  1  0  0  0
 14 15  2  0  0  0
 14103  1  0  0  0
 15104  1  0  0  0
 16 17  2  0  0  0
 16 21  1  0  0  0
 16 31  1  0  0  0
 17 18  1  0  0  0
 17105  1  0  0  0
 18 19  2  0  0  0
 18106  1  0  0  0
 19 20  1  0  0  0
 19 24  1  0  0  0
 20 21  2  0  0  0
 20107  1  0  0  0
 21 23  1  0  0  0
 22 28  1  0  0  0
 22 32  2  0  0  0
 26 27  1  0  0  0
 28108  1  0  0  0
 28109  1  0  0  0
 29110  1  0  0  0
 29111  1  0  0  0
 33 34  1  0  0  0
 33 66  1  0  0  0
 33 70  2  0  0  0
 34 36  1  0  0  0
 34 59  1  0  0  0
 34112  1  0  0  0
 35 44  2  0  0  0
 35 45  1  0  0  0
 35 68  1  0  0  0
 36 56  1  0  0  0
 36113  1  0  0  0
 37 39  1  0  0  0
 37 47  1  0  0  0
 37 66  1  0  0  0
 37114  1  0  0  0
 38 43  2  0  0  0
 38 46  1  0  0  0
 38 47  1  0  0  0
 39 64  1  0  0  0
 39 67  2  0  0  0
 40 52  1  0  0  0
 40 53  2  0  0  0
 40 58  1  0  0  0
 41115  1  0  0  0
 41116  1  0  0  0
 41117  1  0  0  0
 41 48  1  0  0  0
 42 43  1  0  0  0
 42 66  1  0  0  0
 42118  1  0  0  0
 42119  1  0  0  0
 43 44  1  0  0  0
 44120  1  0  0  0
 45 46  2  0  0  0
 45121  1  0  0  0
 46122  1  0  0  0
 47123  1  0  0  0
 47124  1  0  0  0
 48 56  1  0  0  0
 48 65  1  0  0  0
 48125  1  0  0  0
 49 50  1  0  0  0
 49 53  1  0  0  0
 49 64  1  0  0  0
 49126  1  0  0  0
 50 51  1  0  0  0
 50127  1  0  0  0
 50128  1  0  0  0
 51 52  1  0  0  0
 51129  1  0  0  0
 51130  1  0  0  0
 52131  1  0  0  0
 52132  1  0  0  0
 53 54  1  0  0  0
 54 55  2  0  0  0
 54133  1  0  0  0
 55 57  1  0  0  0
 55134  1  0  0  0
 56 69  2  0  0  0
 57 58  2  0  0  0
 57135  1  0  0  0
 58136  1  0  0  0
 59 60  1  0  0  0
 59 61  1  0  0  0
 59 62  1  0  0  0
 60137  1  0  0  0
 60138  1  0  0  0
 60139  1  0  0  0
 61140  1  0  0  0
 61141  1  0  0  0
 61142  1  0  0  0
 62143  1  0  0  0
 62144  1  0  0  0
 62145  1  0  0  0
 63 65  1  0  0  0
 63146  1  0  0  0
 63147  1  0  0  0
 63148  1  0  0  0
 64149  1  0  0  0
 65150  1  0  0  0
 68 85  1  0  0  0
 71 72  2  0  0  0
 71 73  1  0  0  0
 71151  1  0  0  0
 72 74  1  0  0  0
 72152  1  0  0  0
 73 75  2  0  0  0
 73 87  1  0  0  0
 74 88  2  0  0  0
 74 89  1  0  0  0
 75 88  1  0  0  0
 75 91  1  0  0  0
 76 77  1  0  0  0
 76 80  1  0  0  0
 76153  1  0  0  0
 76154  1  0  0  0
 77 80  1  0  0  0
 77155  1  0  0  0
 77156  1  0  0  0
 78 79  1  0  0  0
 78 81  1  0  0  0
 78157  1  0  0  0
 78158  1  0  0  0
 79 81  1  0  0  0
 79159  1  0  0  0
 79160  1  0  0  0
 80 82  1  0  0  0
 80161  1  0  0  0
 81 83  1  0  0  0
 81 90  1  0  0  0
 82 84  1  0  0  0
 82162  1  0  0  0
 82163  1  0  0  0
 83164  1  0  0  0
 83165  1  0  0  0
 83 87  1  0  0  0
 84 87  1  0  0  0
 84166  1  0  0  0
 84167  1  0  0  0
 85 86  1  0  0  0
 85168  1  0  0  0
 85169  1  0  0  0
 86 91  1  0  0  0
 86170  1  0  0  0
 86171  1  0  0  0
 87172  1  0  0  0
 89173  1  0  0  0
 90174  1  0  0  0
M  ISO  4   1 100  68 101  85 101  89 100
M  END
> <chiral flag>
0

> <version>
0

> <s_m_source_file>
/data/baiqing/PycharmProjects/Reinvent-master-3.2/result/LINK_invent/BTK/process_docking_weight1_custom_sum_contain_oxygen_bond_distance_aromatic_linkinvent_7_9_3/rearranged_h_0140.sdf

> <i_m_source_file_index>
79

> <r_mmod_Potential_Energy-OPLS-2005>
979.951721191406

> <r_mmod_Stretch_Energy-OPLS-2005>
409.907409667969

> <r_mmod_Bend_Energy-OPLS-2005>
457.887084960938

> <r_mmod_Torsional_Energy-OPLS-2005>
412.673492431641

> <r_mmod_Improper_Torsional_Energy-OPLS-2005>
14.2709226608276

> <r_mmod_Van_der_Waal_Energy-OPLS-2005>
141.124542236328

> <r_mmod_Electrostatic_Energy-OPLS-2005>
-516.764465332031

> <r_mmod_Solvation_Energy-OPLS-2005>
-241.511032104492

> <b_mmod_Minimization_Converged-OPLS-2005>
0

> <r_mmod_RMS_Derivative-OPLS-2005>
3.02166080474854

$$$$
79
                    3D
 Structure written by MMmdl.
167175  0  0  1  0            999 V2000
  -30.0819  -15.5623   20.5166 C   0  0  0  0  0  0
  -30.3963  -13.0565   19.6139 C   0  0  0  0  0  0
  -29.5527  -12.6723   18.3602 C   0  0  0  0  0  0
  -28.1125  -12.3056   18.7566 C   0  0  0  0  0  0
  -27.5753  -13.2794   19.8313 C   0  0  2  0  0  0
  -28.5451  -13.5004   21.0025 C   0  0  0  0  0  0
  -25.2204  -13.8213   20.5719 C   0  0  0  0  0  0
  -24.1602  -13.0387   20.9270 C   0  0  0  0  0  0
  -24.6280  -11.6891   20.8762 C   0  0  0  0  0  0
  -23.9025  -10.4262   21.0424 C   0  0  0  0  0  0
  -24.3612   -9.4185   21.9185 C   0  0  0  0  0  0
  -23.6291   -8.2218   22.0752 C   0  0  0  0  0  0
  -22.4268   -8.0266   21.3549 C   0  0  0  0  0  0
  -21.9895   -9.0233   20.4653 C   0  0  0  0  0  0
  -22.7215  -10.2110   20.3062 C   0  0  0  0  0  0
  -21.6851   -6.0731   22.5279 C   0  0  0  0  0  0
  -21.4011   -6.5636   23.8212 C   0  0  0  0  0  0
  -21.3651   -5.6785   24.9172 C   0  0  0  0  0  0
  -21.6042   -4.3048   24.7224 C   0  0  0  0  0  0
  -21.8824   -3.8141   23.4349 C   0  0  0  0  0  0
  -21.9197   -4.6958   22.3406 C   0  0  0  0  0  0
  -22.7652  -13.5163   21.1936 C   0  0  0  0  0  0
  -22.1667   -4.2148   21.0981 F   0  0  0  0  0  0
  -21.5626   -3.4533   25.7738 F   0  0  0  0  0  0
  -29.7073  -14.1654   20.4184 N   0  0  0  0  0  0
  -26.2531  -12.9452   20.3065 N   0  0  0  0  0  0
  -25.9179  -11.6563   20.5619 N   0  0  0  0  0  0
  -22.0342  -12.8157   22.0519 N   0  0  0  0  0  0
  -25.3844  -15.1957   20.4197 N   0  0  0  0  0  0
  -31.3050  -15.6392   20.2581 O   0  0  0  0  0  0
  -21.6632   -6.8868   21.4242 O   0  0  0  0  0  0
  -22.3352  -14.5472   20.6787 O   0  0  0  0  0  0
  -24.6934  -31.6647   23.3113 C   0  0  0  0  0  0
  -25.9241  -32.4267   23.8838 C   0  0  1  0  0  0
  -27.6535  -27.4128   19.5504 C   0  0  0  0  0  0
  -25.5585  -33.8230   24.2003 N   0  0  0  0  0  0
  -23.3888  -29.9356   21.8269 C   0  0  2  0  0  0
  -25.1349  -28.5577   19.5169 C   0  0  0  0  0  0
  -22.5619  -29.3128   22.8401 C   0  0  0  0  0  0
  -17.9309  -28.1403   22.8422 C   0  0  0  0  0  0
  -24.1478  -36.7076   23.2569 C   0  0  0  0  0  0
  -26.4105  -30.1880   21.7943 C   0  0  0  0  0  0
  -26.4915  -29.1946   20.2363 C   0  0  0  0  0  0
  -27.7038  -28.7338   19.9593 C   0  0  0  0  0  0
  -26.5172  -26.7628   18.9869 C   0  0  0  0  0  0
  -25.2602  -27.3648   18.8772 C   0  0  0  0  0  0
  -23.4522  -28.9232   20.1995 C   0  0  0  0  0  0
  -25.4108  -36.2808   24.0215 C   0  0  1  0  0  0
  -20.4430  -28.2498   23.2328 C   0  0  2  0  0  0
  -20.4604  -26.8117   22.6623 C   0  0  0  0  0  0
  -19.4636  -26.6143   21.5315 C   0  0  0  0  0  0
  -18.0687  -26.8084   22.1213 C   0  0  0  0  0  0
  -19.0578  -28.8463   23.3242 C   0  0  0  0  0  0
  -18.8933  -30.1169   23.9155 C   0  0  0  0  0  0
  -17.6085  -30.6672   24.0602 C   0  0  0  0  0  0
  -25.9034  -34.9122   23.4987 C   0  0  0  0  0  0
  -16.4852  -29.9424   23.6252 C   0  0  0  0  0  0
  -16.6474  -28.6843   23.0191 C   0  0  0  0  0  0
  -26.4595  -31.7192   25.1794 C   0  0  0  0  0  0
  -25.3634  -31.4490   26.2352 C   0  0  0  0  0  0
  -27.0786  -30.3694   24.8592 C   0  0  0  0  0  0
  -27.6031  -32.5403   25.8079 C   0  0  0  0  0  0
  -27.5513  -37.1615   24.8479 C   0  0  0  0  0  0
  -21.2989  -29.1377   22.4986 N   0  0  0  0  0  0
  -26.4267  -37.3542   23.9360 N   0  0  0  0  0  0
  -24.8587  -30.5521   22.5176 N   0  0  0  0  0  0
  -23.1108  -28.8519   23.8318 O   0  0  0  0  0  0
  -28.6636  -26.6871   20.0820 O   0  0  0  0  0  0
  -26.5881  -34.8606   22.4745 O   0  0  0  0  0  0
  -23.5736  -32.0810   23.6485 O   0  0  0  0  0  0
  -28.2220  -24.6654   22.1811 C   0  0  0  0  0  0
  -29.2564  -25.5864   22.0120 C   0  0  0  0  0  0
  -26.4066  -26.5937   21.8588 C   0  0  0  0  0  0
  -27.6440  -27.1482   22.2688 C   0  0  0  0  0  0
  -26.8699  -24.9199   21.7366 C   0  0  0  0  0  0
  -28.7660  -26.7509   21.4725 C   0  0  0  0  0  0
  -29.1628  -28.0556   24.1105 C   0  0  0  0  0  0
  -24.0999  -26.9084   21.8574 C   0  0  0  0  0  0
  -24.8278  -30.7599   20.1958 C   0  0  0  0  0  0
  -27.8591  -27.3143   23.7713 C   0  0  0  0  0  0
  -27.7443  -20.0108   21.0486 C   0  0  0  0  0  0
  -27.7008  -21.9543   21.0781 C   0  0  0  0  0  0
  -29.0426  -18.5720   20.8216 C   0  0  0  0  0  0
  -25.1271  -28.1173   21.7949 C   0  0  0  0  0  0
  -26.6338  -23.3444   21.3713 N   0  0  0  0  0  0
  -29.1441  -16.7909   20.7467 N   0  0  0  0  0  0
  -31.3868  -13.3744   19.2897 H   0  0  0  0  0  0
  -30.5726  -12.1806   20.2414 H   0  0  0  0  0  0
  -30.0217  -11.8498   17.8198 H   0  0  0  0  0  0
  -29.5303  -13.5196   17.6740 H   0  0  0  0  0  0
  -28.1199  -11.2904   19.1542 H   0  0  0  0  0  0
  -27.4624  -12.2922   17.8821 H   0  0  0  0  0  0
  -27.4741  -14.2325   19.3102 H   0  0  0  0  0  0
  -28.7947  -12.5677   21.5087 H   0  0  0  0  0  0
  -28.0969  -14.1530   21.7542 H   0  0  0  0  0  0
  -25.2766   -9.5664   22.4754 H   0  0  0  0  0  0
  -24.0010   -7.4603   22.7467 H   0  0  0  0  0  0
  -21.0817   -8.8749   19.8965 H   0  0  0  0  0  0
  -22.3666  -10.9657   19.6180 H   0  0  0  0  0  0
  -21.2001   -7.6142   23.9714 H   0  0  0  0  0  0
  -21.1463   -6.0515   25.9074 H   0  0  0  0  0  0
  -22.0616   -2.7610   23.2844 H   0  0  0  0  0  0
  -22.4010  -11.9832   22.4898 H   0  0  0  0  0  0
  -21.0962  -13.1168   22.2764 H   0  0  0  0  0  0
  -24.6072  -15.8350   20.5458 H   0  0  0  0  0  0
  -26.1806  -15.6280   19.9719 H   0  0  0  0  0  0
  -26.7260  -32.4589   23.1532 H   0  0  0  0  0  0
  -24.9289  -33.9470   24.9794 H   0  0  0  0  0  0
  -22.7457  -30.8003   21.6245 H   0  0  0  0  0  0
  -23.3735  -35.9415   23.3218 H   0  0  0  0  0  0
  -24.3573  -36.8710   22.1988 H   0  0  0  0  0  0
  -23.7248  -37.6269   23.6625 H   0  0  0  0  0  0
  -27.0112  -31.0834   21.6373 H   0  0  0  0  0  0
  -27.0283  -29.6308   22.4806 H   0  0  0  0  0  0
  -28.5667  -29.1324   20.4773 H   0  0  0  0  0  0
  -26.6136  -25.7278   18.6885 H   0  0  0  0  0  0
  -24.4048  -26.8168   18.5094 H   0  0  0  0  0  0
  -22.9005  -29.4924   19.4457 H   0  0  0  0  0  0
  -22.7848  -28.0663   20.1544 H   0  0  0  0  0  0
  -25.1290  -36.1612   25.0699 H   0  0  0  0  0  0
  -20.7829  -28.1792   24.2690 H   0  0  0  0  0  0
  -20.1403  -26.1528   23.4711 H   0  0  0  0  0  0
  -21.4115  -26.3821   22.4148 H   0  0  0  0  0  0
  -19.5478  -25.6164   21.0994 H   0  0  0  0  0  0
  -19.6450  -27.3275   20.7268 H   0  0  0  0  0  0
  -17.3186  -26.7393   21.3320 H   0  0  0  0  0  0
  -17.8409  -26.0106   22.8310 H   0  0  0  0  0  0
  -19.7538  -30.6666   24.2734 H   0  0  0  0  0  0
  -17.4813  -31.6388   24.5168 H   0  0  0  0  0  0
  -15.4936  -30.3586   23.7443 H   0  0  0  0  0  0
  -15.7755  -28.1465   22.6703 H   0  0  0  0  0  0
  -24.6118  -30.7376   25.8900 H   0  0  0  0  0  0
  -24.8413  -32.3635   26.5162 H   0  0  0  0  0  0
  -25.7846  -31.0298   27.1502 H   0  0  0  0  0  0
  -26.3170  -29.6841   24.5052 H   0  0  0  0  0  0
  -27.5024  -29.9103   25.7540 H   0  0  0  0  0  0
  -27.8946  -30.4938   24.1541 H   0  0  0  0  0  0
  -27.2568  -33.4984   26.1968 H   0  0  0  0  0  0
  -28.3877  -32.7522   25.0795 H   0  0  0  0  0  0
  -28.0708  -32.0171   26.6434 H   0  0  0  0  0  0
  -28.2567  -37.9875   24.7505 H   0  0  0  0  0  0
  -28.0968  -36.2400   24.6390 H   0  0  0  0  0  0
  -27.2177  -37.1323   25.8866 H   0  0  0  0  0  0
  -20.9442  -29.5353   21.6402 H   0  0  0  0  0  0
  -26.0102  -38.2599   24.1345 H   0  0  0  0  0  0
  -28.5755  -23.7264   22.5515 H   0  0  0  0  0  0
  -30.2884  -25.2700   21.9722 H   0  0  0  0  0  0
  -29.1966  -28.3214   25.1688 H   0  0  0  0  0  0
  -29.2749  -28.9631   23.5220 H   0  0  0  0  0  0
  -30.0354  -27.4375   23.9084 H   0  0  0  0  0  0
  -24.1816  -26.2373   21.0023 H   0  0  0  0  0  0
  -23.0764  -27.1464   21.8927 H   0  0  0  0  0  0
  -24.2403  -26.2954   22.7512 H   0  0  0  0  0  0
  -25.6852  -31.4358   20.0475 H   0  0  0  0  0  0
  -24.1318  -31.5720   20.4338 H   0  0  0  0  0  0
  -24.5975  -30.7382   19.1172 H   0  0  0  0  0  0
  -27.8950  -26.3301   24.2431 H   0  0  0  0  0  0
  -26.9875  -27.7727   24.2190 H   0  0  0  0  0  0
  -26.9895  -19.7636   20.3023 H   0  0  0  0  0  0
  -27.2612  -19.7420   21.9875 H   0  0  0  0  0  0
  -28.0466  -22.1909   20.0702 H   0  0  0  0  0  0
  -28.6015  -22.0898   21.6625 H   0  0  0  0  0  0
  -29.5930  -18.8622   19.9266 H   0  0  0  0  0  0
  -29.7546  -18.7810   21.6219 H   0  0  0  0  0  0
  -25.2356  -28.3187   22.8609 H   0  0  0  0  0  0
  -25.6662  -23.1407   21.1227 H   0  0  0  0  0  0
  -28.2261  -16.4150   20.9388 H   0  0  0  0  0  0
  1 25  1  0  0  0
  1 30  2  0  0  0
  1 86  1  0  0  0
  2  3  1  0  0  0
  2 25  1  0  0  0
  2 87  1  0  0  0
  2 88  1  0  0  0
  3  4  1  0  0  0
  3 89  1  0  0  0
  3 90  1  0  0  0
  4  5  1  0  0  0
  4 91  1  0  0  0
  4 92  1  0  0  0
  5  6  1  0  0  0
  5 26  1  0  0  0
  5 93  1  0  0  0
  6 25  1  0  0  0
  6 94  1  0  0  0
  6 95  1  0  0  0
  7  8  2  0  0  0
  7 26  1  0  0  0
  7 29  1  0  0  0
  8  9  1  0  0  0
  8 22  1  0  0  0
  9 10  1  0  0  0
  9 27  2  0  0  0
 10 11  2  0  0  0
 10 15  1  0  0  0
 11 12  1  0  0  0
 11 96  1  0  0  0
 12 13  2  0  0  0
 12 97  1  0  0  0
 13 14  1  0  0  0
 13 31  1  0  0  0
 14 15  2  0  0  0
 14 98  1  0  0  0
 15 99  1  0  0  0
 16 17  2  0  0  0
 16 21  1  0  0  0
 16 31  1  0  0  0
 17 18  1  0  0  0
 17100  1  0  0  0
 18 19  2  0  0  0
 18101  1  0  0  0
 19 20  1  0  0  0
 19 24  1  0  0  0
 20 21  2  0  0  0
 20102  1  0  0  0
 21 23  1  0  0  0
 22 28  1  0  0  0
 22 32  2  0  0  0
 26 27  1  0  0  0
 28103  1  0  0  0
 28104  1  0  0  0
 29105  1  0  0  0
 29106  1  0  0  0
 33 34  1  0  0  0
 33 66  1  0  0  0
 33 70  2  0  0  0
 34 36  1  0  0  0
 34 59  1  0  0  0
 34107  1  0  0  0
 35 44  2  0  0  0
 35 45  1  0  0  0
 35 68  1  0  0  0
 36 56  1  0  0  0
 36108  1  0  0  0
 37 39  1  0  0  0
 37 47  1  0  0  0
 37 66  1  0  0  0
 37109  1  0  0  0
 38 43  2  0  0  0
 38 46  1  0  0  0
 38 47  1  0  0  0
 39 64  1  0  0  0
 39 67  2  0  0  0
 40 52  1  0  0  0
 40 53  2  0  0  0
 40 58  1  0  0  0
 41110  1  0  0  0
 41111  1  0  0  0
 41112  1  0  0  0
 41 48  1  0  0  0
 42 43  1  0  0  0
 42 66  1  0  0  0
 42113  1  0  0  0
 42114  1  0  0  0
 43 44  1  0  0  0
 44115  1  0  0  0
 45 46  2  0  0  0
 45116  1  0  0  0
 46117  1  0  0  0
 47118  1  0  0  0
 47119  1  0  0  0
 48 56  1  0  0  0
 48 65  1  0  0  0
 48120  1  0  0  0
 49 50  1  0  0  0
 49 53  1  0  0  0
 49 64  1  0  0  0
 49121  1  0  0  0
 50 51  1  0  0  0
 50122  1  0  0  0
 50123  1  0  0  0
 51 52  1  0  0  0
 51124  1  0  0  0
 51125  1  0  0  0
 52126  1  0  0  0
 52127  1  0  0  0
 53 54  1  0  0  0
 54 55  2  0  0  0
 54128  1  0  0  0
 55 57  1  0  0  0
 55129  1  0  0  0
 56 69  2  0  0  0
 57 58  2  0  0  0
 57130  1  0  0  0
 58131  1  0  0  0
 59 60  1  0  0  0
 59 61  1  0  0  0
 59 62  1  0  0  0
 60132  1  0  0  0
 60133  1  0  0  0
 60134  1  0  0  0
 61135  1  0  0  0
 61136  1  0  0  0
 61137  1  0  0  0
 62138  1  0  0  0
 62139  1  0  0  0
 62140  1  0  0  0
 63 65  1  0  0  0
 63141  1  0  0  0
 63142  1  0  0  0
 63143  1  0  0  0
 64144  1  0  0  0
 65145  1  0  0  0
 68 76  1  0  0  0
 71 72  2  0  0  0
 71 75  1  0  0  0
 71146  1  0  0  0
 72 76  1  0  0  0
 72147  1  0  0  0
 73 74  1  0  0  0
 73 75  2  0  0  0
 73 84  1  0  0  0
 74 76  2  0  0  0
 74 80  1  0  0  0
 75 85  1  0  0  0
 77 80  1  0  0  0
 77148  1  0  0  0
 77149  1  0  0  0
 77150  1  0  0  0
 78151  1  0  0  0
 78152  1  0  0  0
 78153  1  0  0  0
 78 84  1  0  0  0
 79 84  1  0  0  0
 79154  1  0  0  0
 79155  1  0  0  0
 79156  1  0  0  0
 80157  1  0  0  0
 80158  1  0  0  0
 81 82  1  0  0  0
 81 83  1  0  0  0
 81159  1  0  0  0
 81160  1  0  0  0
 82 85  1  0  0  0
 82161  1  0  0  0
 82162  1  0  0  0
 83 86  1  0  0  0
 83163  1  0  0  0
 83164  1  0  0  0
 84165  1  0  0  0
 85166  1  0  0  0
 86167  1  0  0  0
M  ISO  4   1 100  68 101  76 101  86 100
M  END
> <chiral flag>
0

> <version>
0

> <s_m_source_file>
/data/baiqing/PycharmProjects/Reinvent-master-3.2/result/LINK_invent/BTK/process_docking_weight1_custom_sum_contain_oxygen_bond_distance_aromatic_linkinvent_7_9_3/rearranged_h_0140.sdf

> <i_m_source_file_index>
80

> <r_mmod_Potential_Energy-OPLS-2005>
9662.8544921875

> <r_mmod_Stretch_Energy-OPLS-2005>
5218.78564453125

> <r_mmod_Bend_Energy-OPLS-2005>
1186.93505859375

> <r_mmod_Torsional_Energy-OPLS-2005>
589.599853515625

> <r_mmod_Improper_Torsional_Energy-OPLS-2005>
58.0608749389648

> <r_mmod_Van_der_Waal_Energy-OPLS-2005>
1927.81689453125

> <r_mmod_Electrostatic_Energy-OPLS-2005>
-377.923950195312

> <r_mmod_Solvation_Energy-OPLS-2005>
-215.437591552734

> <b_mmod_Minimization_Converged-OPLS-2005>
0

> <r_mmod_RMS_Derivative-OPLS-2005>
5.15350675582886

$$$$
80
                    3D
 Structure written by MMmdl.
166175  0  0  1  0            999 V2000
  -30.7514  -14.4049   20.6418 C   0  0  0  0  0  0
  -30.4154  -12.2854   19.4205 C   0  0  0  0  0  0
  -29.4980  -12.5315   18.2043 C   0  0  0  0  0  0
  -28.0155  -12.4025   18.6028 C   0  0  0  0  0  0
  -27.6709  -13.2143   19.8808 C   0  0  2  0  0  0
  -28.7058  -12.9579   21.0009 C   0  0  0  0  0  0
  -25.2595  -13.8167   20.5623 C   0  0  0  0  0  0
  -24.1844  -13.0439   20.9129 C   0  0  0  0  0  0
  -24.6405  -11.6907   20.8656 C   0  0  0  0  0  0
  -23.9058  -10.4286   21.0345 C   0  0  0  0  0  0
  -24.3610   -9.4226   21.9140 C   0  0  0  0  0  0
  -23.6291   -8.2258   22.0729 C   0  0  0  0  0  0
  -22.4272   -8.0284   21.3539 C   0  0  0  0  0  0
  -21.9885   -9.0239   20.4633 C   0  0  0  0  0  0
  -22.7210  -10.2134   20.3020 C   0  0  0  0  0  0
  -21.6861   -6.0725   22.5269 C   0  0  0  0  0  0
  -21.4015   -6.5624   23.8204 C   0  0  0  0  0  0
  -21.3655   -5.6769   24.9157 C   0  0  0  0  0  0
  -21.6066   -4.3049   24.7209 C   0  0  0  0  0  0
  -21.8825   -3.8131   23.4332 C   0  0  0  0  0  0
  -21.9192   -4.6952   22.3385 C   0  0  0  0  0  0
  -22.7862  -13.5245   21.1804 C   0  0  0  0  0  0
  -22.1677   -4.2131   21.0963 F   0  0  0  0  0  0
  -21.5631   -3.4535   25.7719 F   0  0  0  0  0  0
  -30.0515  -13.2475   20.4749 N   0  0  0  0  0  0
  -26.3068  -12.9374   20.3347 N   0  0  0  0  0  0
  -25.9348  -11.6518   20.5713 N   0  0  0  0  0  0
  -22.0495  -12.8259   22.0366 N   0  0  0  0  0  0
  -25.4284  -15.1885   20.4054 N   0  0  0  0  0  0
  -31.7906  -14.6364   20.0230 O   0  0  0  0  0  0
  -21.6644   -6.8865   21.4236 O   0  0  0  0  0  0
  -22.3541  -14.5558   20.6647 O   0  0  0  0  0  0
  -24.6176  -31.8689   23.2096 C   0  0  0  0  0  0
  -25.9053  -32.4832   23.8415 C   0  0  1  0  0  0
  -27.2386  -27.4335   20.0810 C   0  0  0  0  0  0
  -25.5889  -33.8622   24.2340 N   0  0  0  0  0  0
  -23.4065  -30.4943   21.5497 C   0  0  2  0  0  0
  -24.8492  -28.9548   20.1192 C   0  0  0  0  0  0
  -22.7434  -29.4669   22.4968 C   0  0  0  0  0  0
  -18.0273  -28.1397   22.8491 C   0  0  0  0  0  0
  -24.1471  -36.7312   23.2645 C   0  0  0  0  0  0
  -25.9374  -30.8331   21.3655 C   0  0  0  0  0  0
  -26.0104  -29.4684   20.7090 C   0  0  0  0  0  0
  -27.2055  -28.7153   20.6833 C   0  0  0  0  0  0
  -26.0472  -26.9260   19.5093 C   0  0  0  0  0  0
  -24.8605  -27.6832   19.5235 C   0  0  0  0  0  0
  -23.6180  -29.8293   20.1651 C   0  0  0  0  0  0
  -25.4096  -36.3120   24.0353 C   0  0  1  0  0  0
  -20.5883  -28.3693   23.1302 C   0  0  2  0  0  0
  -20.6770  -26.9423   22.5417 C   0  0  0  0  0  0
  -19.5738  -26.6395   21.5223 C   0  0  0  0  0  0
  -18.1917  -26.7938   22.1634 C   0  0  0  0  0  0
  -19.1529  -28.8861   23.2894 C   0  0  0  0  0  0
  -18.9456  -30.1465   23.8908 C   0  0  0  0  0  0
  -17.6462  -30.6599   24.0578 C   0  0  0  0  0  0
  -25.9028  -34.9482   23.5134 C   0  0  0  0  0  0
  -16.5353  -29.9111   23.6325 C   0  0  0  0  0  0
  -16.7263  -28.6533   23.0333 C   0  0  0  0  0  0
  -26.4481  -31.6626   25.0757 C   0  0  0  0  0  0
  -25.3740  -31.3753   26.1511 C   0  0  0  0  0  0
  -27.0337  -30.3060   24.6174 C   0  0  0  0  0  0
  -27.6055  -32.4377   25.7509 C   0  0  0  0  0  0
  -27.5583  -37.1807   24.8463 C   0  0  0  0  0  0
  -21.4158  -29.3048   22.3699 N   0  0  0  0  0  0
  -26.4284  -37.3810   23.9426 N   0  0  0  0  0  0
  -24.6722  -31.0802   22.0991 N   0  0  0  0  0  0
  -23.4192  -28.8209   23.3021 O   0  0  0  0  0  0
  -28.4417  -26.7506   20.0782 O   0  0  0  0  0  0
  -26.5594  -34.8943   22.4702 O   0  0  0  0  0  0
  -23.5362  -32.1429   23.7469 O   0  0  0  0  0  0
  -30.4689  -18.8237   20.2774 C   0  0  0  0  0  0
  -28.6473  -17.0703   21.4539 C   0  0  0  0  0  0
  -30.9329  -17.5883   20.7774 C   0  0  0  0  0  0
  -29.1116  -19.1988   20.3545 C   0  0  0  0  0  0
  -28.2096  -18.3478   21.0381 C   0  0  0  0  0  0
  -29.9772  -16.6445   21.2549 C   0  0  0  0  0  0
  -33.1409  -16.9606   22.0471 C   0  0  0  0  0  0
  -33.3451  -18.3444   21.4859 C   0  0  0  0  0  0
  -32.4221  -17.3685   20.7822 C   0  0  0  0  0  0
  -26.7661  -18.7369   21.3172 C   0  0  0  0  0  0
  -28.6751  -20.4748   19.6291 C   0  0  0  0  0  0
  -28.8908  -21.7955   20.4066 C   0  0  0  0  0  0
  -28.4277  -24.2729   20.2932 C   0  0  0  0  0  0
  -28.5943  -25.5090   19.3726 C   0  0  0  0  0  0
  -30.2537  -15.2722   21.5453 N   0  0  0  0  0  0
  -28.6049  -22.9860   19.5621 N   0  3  0  0  0  0
  -31.4642  -12.3589   19.1274 H   0  0  0  0  0  0
  -30.2842  -11.2667   19.7879 H   0  0  0  0  0  0
  -29.7385  -11.8263   17.4062 H   0  0  0  0  0  0
  -29.6831  -13.5275   17.7962 H   0  0  0  0  0  0
  -27.8013  -11.3446   18.7589 H   0  0  0  0  0  0
  -27.3756  -12.7205   17.7762 H   0  0  0  0  0  0
  -27.7305  -14.2707   19.6167 H   0  0  0  0  0  0
  -28.6628  -11.9168   21.3244 H   0  0  0  0  0  0
  -28.4583  -13.5428   21.8858 H   0  0  0  0  0  0
  -25.2747   -9.5744   22.4696 H   0  0  0  0  0  0
  -24.0012   -7.4679   22.7467 H   0  0  0  0  0  0
  -21.0801   -8.8753   19.8953 H   0  0  0  0  0  0
  -22.3639  -10.9649   19.6138 H   0  0  0  0  0  0
  -21.2007   -7.6130   23.9707 H   0  0  0  0  0  0
  -21.1477   -6.0488   25.9065 H   0  0  0  0  0  0
  -22.0602   -2.7592   23.2820 H   0  0  0  0  0  0
  -22.4122  -11.9962   22.4842 H   0  0  0  0  0  0
  -21.1106  -13.1290   22.2515 H   0  0  0  0  0  0
  -24.6570  -15.8365   20.5309 H   0  0  0  0  0  0
  -26.2761  -15.6338   20.0798 H   0  0  0  0  0  0
  -26.7122  -32.5539   23.1189 H   0  0  0  0  0  0
  -25.0042  -33.9791   25.0482 H   0  0  0  0  0  0
  -22.6963  -31.3114   21.4096 H   0  0  0  0  0  0
  -23.3750  -35.9623   23.3299 H   0  0  0  0  0  0
  -24.3567  -36.8934   22.2061 H   0  0  0  0  0  0
  -23.7197  -37.6505   23.6656 H   0  0  0  0  0  0
  -26.0616  -31.6028   20.6019 H   0  0  0  0  0  0
  -26.8207  -30.8760   21.9921 H   0  0  0  0  0  0
  -28.1112  -29.1173   21.1162 H   0  0  0  0  0  0
  -25.9990  -25.9475   19.0558 H   0  0  0  0  0  0
  -23.9604  -27.2837   19.0782 H   0  0  0  0  0  0
  -23.7400  -30.6051   19.4088 H   0  0  0  0  0  0
  -22.7401  -29.2580   19.8605 H   0  0  0  0  0  0
  -25.1262  -36.1992   25.0847 H   0  0  0  0  0  0
  -20.9973  -28.3270   24.1426 H   0  0  0  0  0  0
  -20.5687  -26.2305   23.3616 H   0  0  0  0  0  0
  -21.6630  -26.7476   22.1199 H   0  0  0  0  0  0
  -19.6896  -25.6305   21.1253 H   0  0  0  0  0  0
  -19.6673  -27.3210   20.6757 H   0  0  0  0  0  0
  -17.4191  -26.6699   21.4034 H   0  0  0  0  0  0
  -18.0311  -26.0097   22.9040 H   0  0  0  0  0  0
  -19.7925  -30.7271   24.2286 H   0  0  0  0  0  0
  -17.5017  -31.6270   24.5191 H   0  0  0  0  0  0
  -15.5352  -30.3022   23.7639 H   0  0  0  0  0  0
  -15.8668  -28.0874   22.7018 H   0  0  0  0  0  0
  -24.5844  -30.7191   25.7840 H   0  0  0  0  0  0
  -24.9015  -32.2920   26.5040 H   0  0  0  0  0  0
  -25.8067  -30.8836   27.0229 H   0  0  0  0  0  0
  -26.2900  -29.6807   24.1218 H   0  0  0  0  0  0
  -27.4081  -29.7334   25.4675 H   0  0  0  0  0  0
  -27.8746  -30.4387   23.9365 H   0  0  0  0  0  0
  -27.2651  -33.3658   26.2123 H   0  0  0  0  0  0
  -28.3819  -32.6986   25.0304 H   0  0  0  0  0  0
  -28.0778  -31.8497   26.5391 H   0  0  0  0  0  0
  -28.2590  -38.0120   24.7540 H   0  0  0  0  0  0
  -28.1091  -36.2650   24.6230 H   0  0  0  0  0  0
  -27.2312  -37.1397   25.8872 H   0  0  0  0  0  0
  -20.9331  -29.8768   21.6916 H   0  0  0  0  0  0
  -26.0178  -38.2888   24.1435 H   0  0  0  0  0  0
  -31.1753  -19.4923   19.8070 H   0  0  0  0  0  0
  -27.9356  -16.3943   21.9090 H   0  0  0  0  0  0
  -32.5539  -16.8786   22.9607 H   0  0  0  0  0  0
  -33.9803  -16.2747   21.9616 H   0  0  0  0  0  0
  -34.3178  -18.5428   21.0400 H   0  0  0  0  0  0
  -32.9014  -19.1735   22.0312 H   0  0  0  0  0  0
  -32.7779  -17.0021   19.8203 H   0  0  0  0  0  0
  -26.4718  -18.3925   22.3093 H   0  0  0  0  0  0
  -26.0939  -18.2725   20.5957 H   0  0  0  0  0  0
  -26.6102  -19.8146   21.2997 H   0  0  0  0  0  0
  -27.6342  -20.3821   19.3184 H   0  0  0  0  0  0
  -29.2431  -20.5116   18.6997 H   0  0  0  0  0  0
  -29.9250  -21.8553   20.7478 H   0  0  0  0  0  0
  -28.2628  -21.8031   21.2987 H   0  0  0  0  0  0
  -27.4461  -24.2806   20.7699 H   0  0  0  0  0  0
  -29.1679  -24.3351   21.0938 H   0  0  0  0  0  0
  -27.9711  -25.4504   18.4808 H   0  0  0  0  0  0
  -29.6180  -25.5133   18.9932 H   0  0  0  0  0  0
  -29.5645  -14.8337   22.1362 H   0  0  0  0  0  0
  -27.7784  -22.8064   19.0121 H   0  0  0  0  0  0
  -29.3718  -23.0860   18.9127 H   0  0  0  0  0  0
  1 25  1  0  0  0
  1 30  2  0  0  0
  1 85  1  0  0  0
  2  3  1  0  0  0
  2 25  1  0  0  0
  2 87  1  0  0  0
  2 88  1  0  0  0
  3  4  1  0  0  0
  3 89  1  0  0  0
  3 90  1  0  0  0
  4  5  1  0  0  0
  4 91  1  0  0  0
  4 92  1  0  0  0
  5  6  1  0  0  0
  5 26  1  0  0  0
  5 93  1  0  0  0
  6 25  1  0  0  0
  6 94  1  0  0  0
  6 95  1  0  0  0
  7  8  2  0  0  0
  7 26  1  0  0  0
  7 29  1  0  0  0
  8  9  1  0  0  0
  8 22  1  0  0  0
  9 10  1  0  0  0
  9 27  2  0  0  0
 10 11  2  0  0  0
 10 15  1  0  0  0
 11 12  1  0  0  0
 11 96  1  0  0  0
 12 13  2  0  0  0
 12 97  1  0  0  0
 13 14  1  0  0  0
 13 31  1  0  0  0
 14 15  2  0  0  0
 14 98  1  0  0  0
 15 99  1  0  0  0
 16 17  2  0  0  0
 16 21  1  0  0  0
 16 31  1  0  0  0
 17 18  1  0  0  0
 17100  1  0  0  0
 18 19  2  0  0  0
 18101  1  0  0  0
 19 20  1  0  0  0
 19 24  1  0  0  0
 20 21  2  0  0  0
 20102  1  0  0  0
 21 23  1  0  0  0
 22 28  1  0  0  0
 22 32  2  0  0  0
 26 27  1  0  0  0
 28103  1  0  0  0
 28104  1  0  0  0
 29105  1  0  0  0
 29106  1  0  0  0
 33 34  1  0  0  0
 33 66  1  0  0  0
 33 70  2  0  0  0
 34 36  1  0  0  0
 34 59  1  0  0  0
 34107  1  0  0  0
 35 44  2  0  0  0
 35 45  1  0  0  0
 35 68  1  0  0  0
 36 56  1  0  0  0
 36108  1  0  0  0
 37 39  1  0  0  0
 37 47  1  0  0  0
 37 66  1  0  0  0
 37109  1  0  0  0
 38 43  2  0  0  0
 38 46  1  0  0  0
 38 47  1  0  0  0
 39 64  1  0  0  0
 39 67  2  0  0  0
 40 52  1  0  0  0
 40 53  2  0  0  0
 40 58  1  0  0  0
 41110  1  0  0  0
 41111  1  0  0  0
 41112  1  0  0  0
 41 48  1  0  0  0
 42 43  1  0  0  0
 42 66  1  0  0  0
 42113  1  0  0  0
 42114  1  0  0  0
 43 44  1  0  0  0
 44115  1  0  0  0
 45 46  2  0  0  0
 45116  1  0  0  0
 46117  1  0  0  0
 47118  1  0  0  0
 47119  1  0  0  0
 48 56  1  0  0  0
 48 65  1  0  0  0
 48120  1  0  0  0
 49 50  1  0  0  0
 49 53  1  0  0  0
 49 64  1  0  0  0
 49121  1  0  0  0
 50 51  1  0  0  0
 50122  1  0  0  0
 50123  1  0  0  0
 51 52  1  0  0  0
 51124  1  0  0  0
 51125  1  0  0  0
 52126  1  0  0  0
 52127  1  0  0  0
 53 54  1  0  0  0
 54 55  2  0  0  0
 54128  1  0  0  0
 55 57  1  0  0  0
 55129  1  0  0  0
 56 69  2  0  0  0
 57 58  2  0  0  0
 57130  1  0  0  0
 58131  1  0  0  0
 59 60  1  0  0  0
 59 61  1  0  0  0
 59 62  1  0  0  0
 60132  1  0  0  0
 60133  1  0  0  0
 60134  1  0  0  0
 61135  1  0  0  0
 61136  1  0  0  0
 61137  1  0  0  0
 62138  1  0  0  0
 62139  1  0  0  0
 62140  1  0  0  0
 63 65  1  0  0  0
 63141  1  0  0  0
 63142  1  0  0  0
 63143  1  0  0  0
 64144  1  0  0  0
 65145  1  0  0  0
 68 84  1  0  0  0
 71 73  2  0  0  0
 71 74  1  0  0  0
 71146  1  0  0  0
 72 75  1  0  0  0
 72 76  2  0  0  0
 72147  1  0  0  0
 73 76  1  0  0  0
 73 79  1  0  0  0
 74 75  2  0  0  0
 74 81  1  0  0  0
 75 80  1  0  0  0
 76 85  1  0  0  0
 77 78  1  0  0  0
 77 79  1  0  0  0
 77148  1  0  0  0
 77149  1  0  0  0
 78 79  1  0  0  0
 78150  1  0  0  0
 78151  1  0  0  0
 79152  1  0  0  0
 80153  1  0  0  0
 80154  1  0  0  0
 80155  1  0  0  0
 81 82  1  0  0  0
 81156  1  0  0  0
 81157  1  0  0  0
 82 86  1  0  0  0
 82158  1  0  0  0
 82159  1  0  0  0
 83 84  1  0  0  0
 83 86  1  0  0  0
 83160  1  0  0  0
 83161  1  0  0  0
 84162  1  0  0  0
 84163  1  0  0  0
 85164  1  0  0  0
 86165  1  0  0  0
 86166  1  0  0  0
M  CHG  1  86   1
M  ISO  4   1 100  68 101  84 101  85 100
M  END
> <chiral flag>
0

> <version>
0

> <s_m_source_file>
/data/baiqing/PycharmProjects/Reinvent-master-3.2/result/LINK_invent/BTK/process_docking_weight1_custom_sum_contain_oxygen_bond_distance_aromatic_linkinvent_7_9_3/rearranged_h_0140.sdf

> <i_m_source_file_index>
81

> <r_mmod_Potential_Energy-OPLS-2005>
-148.30224609375

> <r_mmod_Stretch_Energy-OPLS-2005>
39.0317649841309

> <r_mmod_Bend_Energy-OPLS-2005>
111.715309143066

> <r_mmod_Torsional_Energy-OPLS-2005>
265.065582275391

> <r_mmod_Improper_Torsional_Energy-OPLS-2005>
5.3706636428833

> <r_mmod_Van_der_Waal_Energy-OPLS-2005>
142.085296630859

> <r_mmod_Electrostatic_Energy-OPLS-2005>
-263.996276855469

> <r_mmod_Solvation_Energy-OPLS-2005>
-457.042053222656

> <b_mmod_Minimization_Converged-OPLS-2005>
0

> <r_mmod_RMS_Derivative-OPLS-2005>
4.06880235671997

$$$$
81
                    3D
 Structure written by MMmdl.
170179  0  0  1  0            999 V2000
  -30.6880  -14.4524   20.6302 C   0  0  0  0  0  0
  -30.4292  -12.3161   19.4187 C   0  0  0  0  0  0
  -29.4955  -12.5270   18.2087 C   0  0  0  0  0  0
  -28.0141  -12.3926   18.6192 C   0  0  0  0  0  0
  -27.6617  -13.2140   19.8876 C   0  0  2  0  0  0
  -28.6959  -12.9603   21.0037 C   0  0  0  0  0  0
  -25.2539  -13.8176   20.5665 C   0  0  0  0  0  0
  -24.1803  -13.0458   20.9155 C   0  0  0  0  0  0
  -24.6368  -11.6928   20.8742 C   0  0  0  0  0  0
  -23.9040  -10.4303   21.0423 C   0  0  0  0  0  0
  -24.3589   -9.4205   21.9194 C   0  0  0  0  0  0
  -23.6262   -8.2239   22.0768 C   0  0  0  0  0  0
  -22.4249   -8.0276   21.3543 C   0  0  0  0  0  0
  -21.9869   -9.0264   20.4667 C   0  0  0  0  0  0
  -22.7209  -10.2139   20.3074 C   0  0  0  0  0  0
  -21.6841   -6.0724   22.5260 C   0  0  0  0  0  0
  -21.4038   -6.5630   23.8195 C   0  0  0  0  0  0
  -21.3652   -5.6779   24.9151 C   0  0  0  0  0  0
  -21.6034   -4.3043   24.7215 C   0  0  0  0  0  0
  -21.8814   -3.8138   23.4341 C   0  0  0  0  0  0
  -21.9194   -4.6956   22.3395 C   0  0  0  0  0  0
  -22.7816  -13.5263   21.1820 C   0  0  0  0  0  0
  -22.1661   -4.2147   21.0973 F   0  0  0  0  0  0
  -21.5610   -3.4519   25.7724 F   0  0  0  0  0  0
  -30.0303  -13.2744   20.4623 N   0  0  0  0  0  0
  -26.3003  -12.9362   20.3399 N   0  0  0  0  0  0
  -25.9292  -11.6513   20.5771 N   0  0  0  0  0  0
  -22.0430  -12.8314   22.0404 N   0  0  0  0  0  0
  -25.4295  -15.1902   20.4078 N   0  0  0  0  0  0
  -31.7828  -14.6935   20.1138 O   0  0  0  0  0  0
  -21.6628   -6.8871   21.4223 O   0  0  0  0  0  0
  -22.3512  -14.5554   20.6627 O   0  0  0  0  0  0
  -24.6144  -31.8666   23.2085 C   0  0  0  0  0  0
  -25.9065  -32.4790   23.8353 C   0  0  1  0  0  0
  -27.2292  -27.4200   20.0982 C   0  0  0  0  0  0
  -25.5935  -33.8589   24.2306 N   0  0  0  0  0  0
  -23.4007  -30.4928   21.5468 C   0  0  2  0  0  0
  -24.8443  -28.9509   20.1234 C   0  0  0  0  0  0
  -22.7418  -29.4668   22.4964 C   0  0  0  0  0  0
  -18.0282  -28.1396   22.8498 C   0  0  0  0  0  0
  -24.1489  -36.7308   23.2629 C   0  0  0  0  0  0
  -25.9284  -30.8324   21.3564 C   0  0  0  0  0  0
  -26.0062  -29.4615   20.7129 C   0  0  0  0  0  0
  -27.2019  -28.7076   20.6915 C   0  0  0  0  0  0
  -26.0477  -26.9284   19.5042 C   0  0  0  0  0  0
  -24.8601  -27.6864   19.5145 C   0  0  0  0  0  0
  -23.6112  -29.8252   20.1628 C   0  0  0  0  0  0
  -25.4101  -36.3082   24.0336 C   0  0  1  0  0  0
  -20.5876  -28.3694   23.1320 C   0  0  2  0  0  0
  -20.6775  -26.9434   22.5422 C   0  0  0  0  0  0
  -19.5745  -26.6406   21.5227 C   0  0  0  0  0  0
  -18.1926  -26.7938   22.1636 C   0  0  0  0  0  0
  -19.1533  -28.8864   23.2902 C   0  0  0  0  0  0
  -18.9450  -30.1463   23.8921 C   0  0  0  0  0  0
  -17.6452  -30.6598   24.0587 C   0  0  0  0  0  0
  -25.9038  -34.9459   23.5101 C   0  0  0  0  0  0
  -16.5351  -29.9113   23.6314 C   0  0  0  0  0  0
  -16.7269  -28.6532   23.0334 C   0  0  0  0  0  0
  -26.4504  -31.6561   25.0667 C   0  0  0  0  0  0
  -25.3793  -31.3712   26.1435 C   0  0  0  0  0  0
  -27.0306  -30.2996   24.6014 C   0  0  0  0  0  0
  -27.6055  -32.4287   25.7465 C   0  0  0  0  0  0
  -27.5577  -37.1806   24.8469 C   0  0  0  0  0  0
  -21.4152  -29.3042   22.3711 N   0  0  0  0  0  0
  -26.4286  -37.3771   23.9416 N   0  0  0  0  0  0
  -24.6657  -31.0805   22.0948 N   0  0  0  0  0  0
  -23.4202  -28.8203   23.3003 O   0  0  0  0  0  0
  -28.4165  -26.7154   20.0531 O   0  0  0  0  0  0
  -26.5593  -34.8926   22.4658 O   0  0  0  0  0  0
  -23.5346  -32.1427   23.7483 O   0  0  0  0  0  0
  -30.3612  -21.3229   22.7683 C   0  0  0  0  0  0
  -30.1276  -18.8793   23.9174 C   0  0  0  0  0  0
  -29.7908  -20.3074   21.9582 C   0  0  0  0  0  0
  -29.7090  -19.0058   22.5727 C   0  0  0  0  0  0
  -30.7578  -21.0630   24.0825 C   0  0  0  0  0  0
  -30.2587  -22.7745   19.3132 C   0  0  0  0  0  0
  -30.5881  -21.3323   19.7439 C   0  0  0  0  0  0
  -28.3832  -21.9872   20.5807 C   0  0  0  0  0  0
  -28.7361  -22.8814   19.3824 C   0  0  1  0  0  0
  -29.3645  -20.7673   20.5265 C   0  0  2  0  0  0
  -28.7071  -19.6896   19.6419 C   0  0  0  0  0  0
  -29.2351  -17.6774   21.9723 C   0  0  0  0  0  0
  -28.1255  -24.3143   19.3125 C   0  0  0  0  0  0
  -30.4043  -16.7915   21.4826 C   0  0  0  0  0  0
  -28.4378  -25.3279   20.4472 C   0  0  0  0  0  0
  -30.6380  -19.8709   24.6642 N   0  0  0  0  0  0
  -31.3142  -22.0502   24.8732 N   0  0  0  0  0  0
  -30.0103  -15.3893   21.3186 N   0  0  0  0  0  0
  -31.4733  -12.4330   19.1184 H   0  0  0  0  0  0
  -30.3432  -11.2974   19.7990 H   0  0  0  0  0  0
  -29.7289  -11.8071   17.4236 H   0  0  0  0  0  0
  -29.6711  -13.5176   17.7823 H   0  0  0  0  0  0
  -27.8093  -11.3372   18.7997 H   0  0  0  0  0  0
  -27.3663  -12.6901   17.7952 H   0  0  0  0  0  0
  -27.7197  -14.2682   19.6136 H   0  0  0  0  0  0
  -28.6644  -11.9137   21.3097 H   0  0  0  0  0  0
  -28.4470  -13.5256   21.9025 H   0  0  0  0  0  0
  -25.2723   -9.5665   22.4782 H   0  0  0  0  0  0
  -23.9955   -7.4619   22.7481 H   0  0  0  0  0  0
  -21.0780   -8.8780   19.8997 H   0  0  0  0  0  0
  -22.3646  -10.9674   19.6190 H   0  0  0  0  0  0
  -21.2059   -7.6141   23.9706 H   0  0  0  0  0  0
  -21.1470   -6.0508   25.9054 H   0  0  0  0  0  0
  -22.0612   -2.7608   23.2826 H   0  0  0  0  0  0
  -22.3978  -12.0001   22.4878 H   0  0  0  0  0  0
  -21.1073  -13.1422   22.2601 H   0  0  0  0  0  0
  -24.6609  -15.8475   20.4836 H   0  0  0  0  0  0
  -26.2809  -15.6151   20.0649 H   0  0  0  0  0  0
  -26.7129  -32.5513   23.1104 H   0  0  0  0  0  0
  -25.0150  -33.9759   25.0497 H   0  0  0  0  0  0
  -22.6867  -31.3074   21.4070 H   0  0  0  0  0  0
  -23.3735  -35.9663   23.3285 H   0  0  0  0  0  0
  -24.3567  -36.8919   22.2043 H   0  0  0  0  0  0
  -23.7283  -37.6532   23.6634 H   0  0  0  0  0  0
  -26.0383  -31.5887   20.5769 H   0  0  0  0  0  0
  -26.8204  -30.8977   21.9674 H   0  0  0  0  0  0
  -28.1054  -29.1112   21.1279 H   0  0  0  0  0  0
  -26.0252  -25.9792   18.9981 H   0  0  0  0  0  0
  -23.9690  -27.2951   19.0450 H   0  0  0  0  0  0
  -23.7320  -30.5982   19.4009 H   0  0  0  0  0  0
  -22.7328  -29.2515   19.8618 H   0  0  0  0  0  0
  -25.1269  -36.1921   25.0831 H   0  0  0  0  0  0
  -20.9974  -28.3289   24.1435 H   0  0  0  0  0  0
  -20.5686  -26.2324   23.3628 H   0  0  0  0  0  0
  -21.6645  -26.7480   22.1208 H   0  0  0  0  0  0
  -19.6906  -25.6318   21.1247 H   0  0  0  0  0  0
  -19.6666  -27.3234   20.6766 H   0  0  0  0  0  0
  -17.4195  -26.6706   21.4025 H   0  0  0  0  0  0
  -18.0304  -26.0078   22.9018 H   0  0  0  0  0  0
  -19.7925  -30.7272   24.2302 H   0  0  0  0  0  0
  -17.5011  -31.6263   24.5206 H   0  0  0  0  0  0
  -15.5355  -30.3030   23.7605 H   0  0  0  0  0  0
  -15.8671  -28.0865   22.7016 H   0  0  0  0  0  0
  -24.5967  -30.7024   25.7832 H   0  0  0  0  0  0
  -24.8979  -32.2888   26.4820 H   0  0  0  0  0  0
  -25.8175  -30.8960   27.0215 H   0  0  0  0  0  0
  -26.2823  -29.6780   24.1063 H   0  0  0  0  0  0
  -27.4094  -29.7191   25.4432 H   0  0  0  0  0  0
  -27.8651  -30.4295   23.9126 H   0  0  0  0  0  0
  -27.2637  -33.3578   26.2041 H   0  0  0  0  0  0
  -28.3896  -32.6861   25.0333 H   0  0  0  0  0  0
  -28.0682  -31.8403   26.5403 H   0  0  0  0  0  0
  -28.2594  -38.0097   24.7477 H   0  0  0  0  0  0
  -28.1067  -36.2622   24.6307 H   0  0  0  0  0  0
  -27.2296  -37.1489   25.8875 H   0  0  0  0  0  0
  -20.9316  -29.8771   21.6934 H   0  0  0  0  0  0
  -26.0157  -38.2841   24.1408 H   0  0  0  0  0  0
  -30.4971  -22.3158   22.3641 H   0  0  0  0  0  0
  -30.0662  -17.9253   24.4224 H   0  0  0  0  0  0
  -30.6379  -23.0004   18.3147 H   0  0  0  0  0  0
  -30.7337  -23.4689   20.0058 H   0  0  0  0  0  0
  -31.5098  -21.3018   20.3259 H   0  0  0  0  0  0
  -30.7915  -20.7333   18.8550 H   0  0  0  0  0  0
  -27.3369  -21.6831   20.5862 H   0  0  0  0  0  0
  -28.5178  -22.5771   21.4832 H   0  0  0  0  0  0
  -28.3511  -22.3694   18.4997 H   0  0  0  0  0  0
  -29.3579  -18.8277   19.4980 H   0  0  0  0  0  0
  -28.5072  -20.0770   18.6436 H   0  0  0  0  0  0
  -27.7438  -19.3673   20.0347 H   0  0  0  0  0  0
  -28.7154  -17.1486   22.7738 H   0  0  0  0  0  0
  -28.4673  -17.7736   21.2184 H   0  0  0  0  0  0
  -27.0469  -24.1831   19.2490 H   0  0  0  0  0  0
  -28.4309  -24.7573   18.3645 H   0  0  0  0  0  0
  -31.2292  -16.8246   22.1951 H   0  0  0  0  0  0
  -30.7885  -17.1859   20.5415 H   0  0  0  0  0  0
  -29.4521  -25.1551   20.8072 H   0  0  0  0  0  0
  -27.7882  -25.1582   21.3075 H   0  0  0  0  0  0
  -31.2914  -23.0191   24.5795 H   0  0  0  0  0  0
  -31.4422  -21.9037   25.8681 H   0  0  0  0  0  0
  -29.1329  -15.1023   21.7229 H   0  0  0  0  0  0
  1 25  1  0  0  0
  1 30  2  0  0  0
  1 88  1  0  0  0
  2  3  1  0  0  0
  2 25  1  0  0  0
  2 89  1  0  0  0
  2 90  1  0  0  0
  3  4  1  0  0  0
  3 91  1  0  0  0
  3 92  1  0  0  0
  4  5  1  0  0  0
  4 93  1  0  0  0
  4 94  1  0  0  0
  5  6  1  0  0  0
  5 26  1  0  0  0
  5 95  1  0  0  0
  6 25  1  0  0  0
  6 96  1  0  0  0
  6 97  1  0  0  0
  7  8  2  0  0  0
  7 26  1  0  0  0
  7 29  1  0  0  0
  8  9  1  0  0  0
  8 22  1  0  0  0
  9 10  1  0  0  0
  9 27  2  0  0  0
 10 11  2  0  0  0
 10 15  1  0  0  0
 11 12  1  0  0  0
 11 98  1  0  0  0
 12 13  2  0  0  0
 12 99  1  0  0  0
 13 14  1  0  0  0
 13 31  1  0  0  0
 14 15  2  0  0  0
 14100  1  0  0  0
 15101  1  0  0  0
 16 17  2  0  0  0
 16 21  1  0  0  0
 16 31  1  0  0  0
 17 18  1  0  0  0
 17102  1  0  0  0
 18 19  2  0  0  0
 18103  1  0  0  0
 19 20  1  0  0  0
 19 24  1  0  0  0
 20 21  2  0  0  0
 20104  1  0  0  0
 21 23  1  0  0  0
 22 28  1  0  0  0
 22 32  2  0  0  0
 26 27  1  0  0  0
 28105  1  0  0  0
 28106  1  0  0  0
 29107  1  0  0  0
 29108  1  0  0  0
 33 34  1  0  0  0
 33 66  1  0  0  0
 33 70  2  0  0  0
 34 36  1  0  0  0
 34 59  1  0  0  0
 34109  1  0  0  0
 35 44  2  0  0  0
 35 45  1  0  0  0
 35 68  1  0  0  0
 36 56  1  0  0  0
 36110  1  0  0  0
 37 39  1  0  0  0
 37 47  1  0  0  0
 37 66  1  0  0  0
 37111  1  0  0  0
 38 43  2  0  0  0
 38 46  1  0  0  0
 38 47  1  0  0  0
 39 64  1  0  0  0
 39 67  2  0  0  0
 40 52  1  0  0  0
 40 53  2  0  0  0
 40 58  1  0  0  0
 41112  1  0  0  0
 41113  1  0  0  0
 41114  1  0  0  0
 41 48  1  0  0  0
 42 43  1  0  0  0
 42 66  1  0  0  0
 42115  1  0  0  0
 42116  1  0  0  0
 43 44  1  0  0  0
 44117  1  0  0  0
 45 46  2  0  0  0
 45118  1  0  0  0
 46119  1  0  0  0
 47120  1  0  0  0
 47121  1  0  0  0
 48 56  1  0  0  0
 48 65  1  0  0  0
 48122  1  0  0  0
 49 50  1  0  0  0
 49 53  1  0  0  0
 49 64  1  0  0  0
 49123  1  0  0  0
 50 51  1  0  0  0
 50124  1  0  0  0
 50125  1  0  0  0
 51 52  1  0  0  0
 51126  1  0  0  0
 51127  1  0  0  0
 52128  1  0  0  0
 52129  1  0  0  0
 53 54  1  0  0  0
 54 55  2  0  0  0
 54130  1  0  0  0
 55 57  1  0  0  0
 55131  1  0  0  0
 56 69  2  0  0  0
 57 58  2  0  0  0
 57132  1  0  0  0
 58133  1  0  0  0
 59 60  1  0  0  0
 59 61  1  0  0  0
 59 62  1  0  0  0
 60134  1  0  0  0
 60135  1  0  0  0
 60136  1  0  0  0
 61137  1  0  0  0
 61138  1  0  0  0
 61139  1  0  0  0
 62140  1  0  0  0
 62141  1  0  0  0
 62142  1  0  0  0
 63 65  1  0  0  0
 63143  1  0  0  0
 63144  1  0  0  0
 63145  1  0  0  0
 64146  1  0  0  0
 65147  1  0  0  0
 68 85  1  0  0  0
 71 73  2  0  0  0
 71 75  1  0  0  0
 71148  1  0  0  0
 72 74  2  0  0  0
 72 86  1  0  0  0
 72149  1  0  0  0
 73 74  1  0  0  0
 73 80  1  0  0  0
 74 82  1  0  0  0
 75 86  2  0  0  0
 75 87  1  0  0  0
 76 77  1  0  0  0
 76 79  1  0  0  0
 76150  1  0  0  0
 76151  1  0  0  0
 77 80  1  0  0  0
 77152  1  0  0  0
 77153  1  0  0  0
 78 79  1  0  0  0
 78 80  1  0  0  0
 78154  1  0  0  0
 78155  1  0  0  0
 79 83  1  0  0  0
 79156  1  0  0  0
 80 81  1  0  0  0
 81157  1  0  0  0
 81158  1  0  0  0
 81159  1  0  0  0
 82 84  1  0  0  0
 82160  1  0  0  0
 82161  1  0  0  0
 83 85  1  0  0  0
 83162  1  0  0  0
 83163  1  0  0  0
 84 88  1  0  0  0
 84164  1  0  0  0
 84165  1  0  0  0
 85166  1  0  0  0
 85167  1  0  0  0
 87168  1  0  0  0
 87169  1  0  0  0
 88170  1  0  0  0
M  ISO  4   1 100  68 101  85 101  88 100
M  END
> <chiral flag>
0

> <version>
0

> <s_m_source_file>
/data/baiqing/PycharmProjects/Reinvent-master-3.2/result/LINK_invent/BTK/process_docking_weight1_custom_sum_contain_oxygen_bond_distance_aromatic_linkinvent_7_9_3/rearranged_h_0140.sdf

> <i_m_source_file_index>
82

> <r_mmod_Potential_Energy-OPLS-2005>
-257.459533691406

> <r_mmod_Stretch_Energy-OPLS-2005>
46.5284690856934

> <r_mmod_Bend_Energy-OPLS-2005>
167.618774414062

> <r_mmod_Torsional_Energy-OPLS-2005>
275.464477539062

> <r_mmod_Improper_Torsional_Energy-OPLS-2005>
4.06710815429688

> <r_mmod_Van_der_Waal_Energy-OPLS-2005>
166.725326538086

> <r_mmod_Electrostatic_Energy-OPLS-2005>
-698.629821777344

> <r_mmod_Solvation_Energy-OPLS-2005>
-230.128952026367

> <b_mmod_Minimization_Converged-OPLS-2005>
0

> <r_mmod_RMS_Derivative-OPLS-2005>
4.05675172805786

$$$$
82
                    3D
 Structure written by MMmdl.
167176  0  0  1  0            999 V2000
  -30.5289  -15.1811   20.3994 C   0  0  0  0  0  0
  -30.4073  -12.7622   19.5211 C   0  0  0  0  0  0
  -29.5160  -12.5701   18.2755 C   0  0  0  0  0  0
  -28.0647  -12.3034   18.7025 C   0  0  0  0  0  0
  -27.5990  -13.2767   19.8176 C   0  0  2  0  0  0
  -28.6305  -13.4531   20.9515 C   0  0  0  0  0  0
  -25.2325  -13.8243   20.5778 C   0  0  0  0  0  0
  -24.1688  -13.0408   20.9281 C   0  0  0  0  0  0
  -24.6363  -11.6916   20.8758 C   0  0  0  0  0  0
  -23.9091  -10.4278   21.0407 C   0  0  0  0  0  0
  -24.3657   -9.4186   21.9172 C   0  0  0  0  0  0
  -23.6336   -8.2210   22.0725 C   0  0  0  0  0  0
  -22.4296   -8.0279   21.3537 C   0  0  0  0  0  0
  -21.9956   -9.0237   20.4614 C   0  0  0  0  0  0
  -22.7280  -10.2116   20.3033 C   0  0  0  0  0  0
  -21.6865   -6.0752   22.5291 C   0  0  0  0  0  0
  -21.4006   -6.5638   23.8222 C   0  0  0  0  0  0
  -21.3659   -5.6788   24.9175 C   0  0  0  0  0  0
  -21.6059   -4.3054   24.7235 C   0  0  0  0  0  0
  -21.8816   -3.8155   23.4348 C   0  0  0  0  0  0
  -21.9189   -4.6979   22.3405 C   0  0  0  0  0  0
  -22.7706  -13.5146   21.1944 C   0  0  0  0  0  0
  -22.1658   -4.2165   21.0980 F   0  0  0  0  0  0
  -21.5635   -3.4531   25.7741 F   0  0  0  0  0  0
  -29.8677  -13.9292   20.3148 N   0  0  0  0  0  0
  -26.2733  -12.9518   20.3205 N   0  0  0  0  0  0
  -25.9285  -11.6616   20.5717 N   0  0  0  0  0  0
  -22.0386  -12.8087   22.0486 N   0  0  0  0  0  0
  -25.3994  -15.1978   20.4290 N   0  0  0  0  0  0
  -31.7488  -15.0677   20.2072 O   0  0  0  0  0  0
  -21.6642   -6.8897   21.4249 O   0  0  0  0  0  0
  -22.3364  -14.5452   20.6823 O   0  0  0  0  0  0
  -24.6556  -31.8271   23.1729 C   0  0  0  0  0  0
  -25.9266  -32.4597   23.8172 C   0  0  1  0  0  0
  -27.2078  -26.9739   20.2000 C   0  0  0  0  0  0
  -25.5952  -33.8415   24.2082 N   0  0  0  0  0  0
  -23.4683  -30.4395   21.5230 C   0  0  2  0  0  0
  -24.9175  -28.8329   20.1166 C   0  0  0  0  0  0
  -22.7649  -29.4434   22.4809 C   0  0  0  0  0  0
  -18.0314  -28.1418   22.8469 C   0  0  0  0  0  0
  -24.1490  -36.7232   23.2651 C   0  0  0  0  0  0
  -26.0333  -30.6513   21.3929 C   0  0  0  0  0  0
  -26.0998  -29.2446   20.7449 C   0  0  0  0  0  0
  -27.2452  -28.3369   20.7562 C   0  0  0  0  0  0
  -25.9940  -26.6942   19.5363 C   0  0  0  0  0  0
  -24.8871  -27.5775   19.4906 C   0  0  0  0  0  0
  -23.7045  -29.7587   20.1475 C   0  0  0  0  0  0
  -25.4122  -36.2976   24.0304 C   0  0  1  0  0  0
  -20.5937  -28.3748   23.1219 C   0  0  2  0  0  0
  -20.6804  -26.9436   22.5422 C   0  0  0  0  0  0
  -19.5778  -26.6387   21.5240 C   0  0  0  0  0  0
  -18.1949  -26.7947   22.1632 C   0  0  0  0  0  0
  -19.1575  -28.8914   23.2832 C   0  0  0  0  0  0
  -18.9482  -30.1514   23.8855 C   0  0  0  0  0  0
  -17.6474  -30.6603   24.0573 C   0  0  0  0  0  0
  -25.9097  -34.9356   23.5015 C   0  0  0  0  0  0
  -16.5371  -29.9086   23.6358 C   0  0  0  0  0  0
  -16.7297  -28.6524   23.0342 C   0  0  0  0  0  0
  -26.4540  -31.6511   25.0673 C   0  0  0  0  0  0
  -25.3677  -31.3755   26.1336 C   0  0  0  0  0  0
  -27.0416  -30.2871   24.6371 C   0  0  0  0  0  0
  -27.6039  -32.4313   25.7443 C   0  0  0  0  0  0
  -27.5573  -37.1769   24.8472 C   0  0  0  0  0  0
  -21.4326  -29.3030   22.3581 N   0  0  0  0  0  0
  -26.4270  -37.3713   23.9428 N   0  0  0  0  0  0
  -24.7399  -31.0004   22.0823 N   0  0  0  0  0  0
  -23.4217  -28.7981   23.3022 O   0  0  0  0  0  0
  -28.2352  -25.9125   20.2150 O   0  0  0  0  0  0
  -26.5735  -34.8894   22.4629 O   0  0  0  0  0  0
  -23.5640  -32.1228   23.6845 O   0  0  0  0  0  0
  -29.5980  -22.5003   17.5143 C   0  0  0  0  0  0
  -29.1369  -23.5571   18.3053 C   0  0  0  0  0  0
  -29.4759  -21.3218   18.1657 C   0  0  0  0  0  0
  -28.7244  -23.0792   19.5313 C   0  0  0  0  0  0
  -30.4641  -19.3686   20.6647 C   0  0  0  0  0  0
  -28.2249  -18.7509   20.0803 C   0  0  0  0  0  0
  -30.8594  -17.8046   20.2339 C   0  0  0  0  0  0
  -28.6224  -17.2357   20.6901 C   0  0  0  0  0  0
  -29.0547  -20.1341   20.4138 C   0  0  0  0  0  0
  -29.1133  -24.9640   17.7532 C   0  0  0  0  0  0
  -31.0804  -20.0671   16.6459 C   0  0  0  0  0  0
  -28.6199  -19.5865   16.5504 C   0  0  0  0  0  0
  -28.0298  -24.3113   20.4804 C   0  0  0  0  0  0
  -29.7802  -20.0153   17.4661 C   0  0  0  0  0  0
  -29.0285  -21.5240   19.4965 N   0  0  0  0  0  0
  -29.9720  -16.5626   20.4222 N   0  0  0  0  0  0
  -31.4377  -12.9105   19.1987 H   0  0  0  0  0  0
  -30.4215  -11.8545   20.1249 H   0  0  0  0  0  0
  -29.8841  -11.7467   17.6608 H   0  0  0  0  0  0
  -29.5596  -13.4663   17.6550 H   0  0  0  0  0  0
  -28.0127  -11.2747   19.0631 H   0  0  0  0  0  0
  -27.3974  -12.3625   17.8429 H   0  0  0  0  0  0
  -27.5129  -14.2436   19.3215 H   0  0  0  0  0  0
  -28.7773  -12.5179   21.4912 H   0  0  0  0  0  0
  -28.2745  -14.1850   21.6776 H   0  0  0  0  0  0
  -25.2797   -9.5648   22.4751 H   0  0  0  0  0  0
  -24.0048   -7.4585   22.7414 H   0  0  0  0  0  0
  -21.0899   -8.8755   19.8900 H   0  0  0  0  0  0
  -22.3749  -10.9662   19.6149 H   0  0  0  0  0  0
  -21.1982   -7.6143   23.9745 H   0  0  0  0  0  0
  -21.1493   -6.0501   25.9089 H   0  0  0  0  0  0
  -22.0605   -2.7619   23.2841 H   0  0  0  0  0  0
  -22.4069  -11.9777   22.4878 H   0  0  0  0  0  0
  -21.0985  -13.1037   22.2684 H   0  0  0  0  0  0
  -24.6500  -15.8623   20.5845 H   0  0  0  0  0  0
  -26.2587  -15.6377   20.1289 H   0  0  0  0  0  0
  -26.7329  -32.5172   23.0890 H   0  0  0  0  0  0
  -25.0031  -33.9527   25.0177 H   0  0  0  0  0  0
  -22.7788  -31.2697   21.3576 H   0  0  0  0  0  0
  -23.3757  -35.9566   23.3267 H   0  0  0  0  0  0
  -24.3574  -36.8912   22.2081 H   0  0  0  0  0  0
  -23.7231  -37.6401   23.6725 H   0  0  0  0  0  0
  -26.2097  -31.3872   20.6069 H   0  0  0  0  0  0
  -26.8994  -30.7121   22.0401 H   0  0  0  0  0  0
  -28.1446  -28.6533   21.2656 H   0  0  0  0  0  0
  -25.8824  -25.7289   19.0641 H   0  0  0  0  0  0
  -23.9888  -27.2563   18.9808 H   0  0  0  0  0  0
  -23.8534  -30.5291   19.3898 H   0  0  0  0  0  0
  -22.8164  -29.2082   19.8332 H   0  0  0  0  0  0
  -25.1300  -36.1795   25.0791 H   0  0  0  0  0  0
  -21.0037  -28.3355   24.1335 H   0  0  0  0  0  0
  -20.5707  -26.2364   23.3656 H   0  0  0  0  0  0
  -21.6660  -26.7421   22.1203 H   0  0  0  0  0  0
  -19.6932  -25.6290   21.1280 H   0  0  0  0  0  0
  -19.6704  -27.3206   20.6777 H   0  0  0  0  0  0
  -17.4215  -26.6715   21.4025 H   0  0  0  0  0  0
  -18.0311  -26.0097   22.9030 H   0  0  0  0  0  0
  -19.7961  -30.7367   24.2158 H   0  0  0  0  0  0
  -17.5016  -31.6259   24.5207 H   0  0  0  0  0  0
  -15.5369  -30.2971   23.7713 H   0  0  0  0  0  0
  -15.8694  -28.0856   22.7034 H   0  0  0  0  0  0
  -24.5848  -30.7129   25.7630 H   0  0  0  0  0  0
  -24.8896  -32.2963   26.4683 H   0  0  0  0  0  0
  -25.7900  -30.8944   27.0164 H   0  0  0  0  0  0
  -26.3066  -29.6555   24.1379 H   0  0  0  0  0  0
  -27.3951  -29.7214   25.5002 H   0  0  0  0  0  0
  -27.8990  -30.4030   23.9745 H   0  0  0  0  0  0
  -27.2610  -33.3644   26.1919 H   0  0  0  0  0  0
  -28.3870  -32.6833   25.0281 H   0  0  0  0  0  0
  -28.0686  -31.8523   26.5436 H   0  0  0  0  0  0
  -28.2557  -38.0092   24.7512 H   0  0  0  0  0  0
  -28.1087  -36.2619   24.6265 H   0  0  0  0  0  0
  -27.2321  -37.1374   25.8883 H   0  0  0  0  0  0
  -20.9585  -29.8734   21.6721 H   0  0  0  0  0  0
  -26.0122  -38.2771   24.1423 H   0  0  0  0  0  0
  -29.9588  -22.5977   16.4990 H   0  0  0  0  0  0
  -31.2628  -20.0179   20.3032 H   0  0  0  0  0  0
  -30.5946  -19.3967   21.7472 H   0  0  0  0  0  0
  -27.1962  -18.9447   20.3901 H   0  0  0  0  0  0
  -28.1228  -18.6143   19.0108 H   0  0  0  0  0  0
  -31.7777  -17.5892   20.7806 H   0  0  0  0  0  0
  -31.1834  -17.7922   19.1932 H   0  0  0  0  0  0
  -27.8560  -16.5285   20.3833 H   0  0  0  0  0  0
  -28.5323  -17.2855   21.7768 H   0  0  0  0  0  0
  -28.7074  -20.4617   21.3949 H   0  0  0  0  0  0
  -29.3627  -24.9617   16.6919 H   0  0  0  0  0  0
  -29.8408  -25.5999   18.2603 H   0  0  0  0  0  0
  -28.1197  -25.4012   17.8355 H   0  0  0  0  0  0
  -31.9104  -20.4320   17.2503 H   0  0  0  0  0  0
  -30.9950  -20.7153   15.7725 H   0  0  0  0  0  0
  -31.3428  -19.0741   16.2817 H   0  0  0  0  0  0
  -27.6588  -19.6220   17.0642 H   0  0  0  0  0  0
  -28.7653  -18.5668   16.1925 H   0  0  0  0  0  0
  -28.5398  -20.2364   15.6774 H   0  0  0  0  0  0
  -28.3584  -24.1516   21.5077 H   0  0  0  0  0  0
  -26.9546  -24.1325   20.5157 H   0  0  0  0  0  0
  -29.9468  -19.2212   18.1709 H   0  0  0  0  0  0
  1 25  1  0  0  0
  1 30  2  0  0  0
  1 86  1  0  0  0
  2  3  1  0  0  0
  2 25  1  0  0  0
  2 87  1  0  0  0
  2 88  1  0  0  0
  3  4  1  0  0  0
  3 89  1  0  0  0
  3 90  1  0  0  0
  4  5  1  0  0  0
  4 91  1  0  0  0
  4 92  1  0  0  0
  5  6  1  0  0  0
  5 26  1  0  0  0
  5 93  1  0  0  0
  6 25  1  0  0  0
  6 94  1  0  0  0
  6 95  1  0  0  0
  7  8  2  0  0  0
  7 26  1  0  0  0
  7 29  1  0  0  0
  8  9  1  0  0  0
  8 22  1  0  0  0
  9 10  1  0  0  0
  9 27  2  0  0  0
 10 11  2  0  0  0
 10 15  1  0  0  0
 11 12  1  0  0  0
 11 96  1  0  0  0
 12 13  2  0  0  0
 12 97  1  0  0  0
 13 14  1  0  0  0
 13 31  1  0  0  0
 14 15  2  0  0  0
 14 98  1  0  0  0
 15 99  1  0  0  0
 16 17  2  0  0  0
 16 21  1  0  0  0
 16 31  1  0  0  0
 17 18  1  0  0  0
 17100  1  0  0  0
 18 19  2  0  0  0
 18101  1  0  0  0
 19 20  1  0  0  0
 19 24  1  0  0  0
 20 21  2  0  0  0
 20102  1  0  0  0
 21 23  1  0  0  0
 22 28  1  0  0  0
 22 32  2  0  0  0
 26 27  1  0  0  0
 28103  1  0  0  0
 28104  1  0  0  0
 29105  1  0  0  0
 29106  1  0  0  0
 33 34  1  0  0  0
 33 66  1  0  0  0
 33 70  2  0  0  0
 34 36  1  0  0  0
 34 59  1  0  0  0
 34107  1  0  0  0
 35 44  2  0  0  0
 35 45  1  0  0  0
 35 68  1  0  0  0
 36 56  1  0  0  0
 36108  1  0  0  0
 37 39  1  0  0  0
 37 47  1  0  0  0
 37 66  1  0  0  0
 37109  1  0  0  0
 38 43  2  0  0  0
 38 46  1  0  0  0
 38 47  1  0  0  0
 39 64  1  0  0  0
 39 67  2  0  0  0
 40 52  1  0  0  0
 40 53  2  0  0  0
 40 58  1  0  0  0
 41110  1  0  0  0
 41111  1  0  0  0
 41112  1  0  0  0
 41 48  1  0  0  0
 42 43  1  0  0  0
 42 66  1  0  0  0
 42113  1  0  0  0
 42114  1  0  0  0
 43 44  1  0  0  0
 44115  1  0  0  0
 45 46  2  0  0  0
 45116  1  0  0  0
 46117  1  0  0  0
 47118  1  0  0  0
 47119  1  0  0  0
 48 56  1  0  0  0
 48 65  1  0  0  0
 48120  1  0  0  0
 49 50  1  0  0  0
 49 53  1  0  0  0
 49 64  1  0  0  0
 49121  1  0  0  0
 50 51  1  0  0  0
 50122  1  0  0  0
 50123  1  0  0  0
 51 52  1  0  0  0
 51124  1  0  0  0
 51125  1  0  0  0
 52126  1  0  0  0
 52127  1  0  0  0
 53 54  1  0  0  0
 54 55  2  0  0  0
 54128  1  0  0  0
 55 57  1  0  0  0
 55129  1  0  0  0
 56 69  2  0  0  0
 57 58  2  0  0  0
 57130  1  0  0  0
 58131  1  0  0  0
 59 60  1  0  0  0
 59 61  1  0  0  0
 59 62  1  0  0  0
 60132  1  0  0  0
 60133  1  0  0  0
 60134  1  0  0  0
 61135  1  0  0  0
 61136  1  0  0  0
 61137  1  0  0  0
 62138  1  0  0  0
 62139  1  0  0  0
 62140  1  0  0  0
 63 65  1  0  0  0
 63141  1  0  0  0
 63142  1  0  0  0
 63143  1  0  0  0
 64144  1  0  0  0
 65145  1  0  0  0
 68 83  1  0  0  0
 71 72  1  0  0  0
 71 73  2  0  0  0
 71146  1  0  0  0
 72 74  2  0  0  0
 72 80  1  0  0  0
 73 84  1  0  0  0
 73 85  1  0  0  0
 74 83  1  0  0  0
 74 85  1  0  0  0
 75 77  1  0  0  0
 75 79  1  0  0  0
 75147  1  0  0  0
 75148  1  0  0  0
 76 78  1  0  0  0
 76 79  1  0  0  0
 76149  1  0  0  0
 76150  1  0  0  0
 77 86  1  0  0  0
 77151  1  0  0  0
 77152  1  0  0  0
 78 86  1  0  0  0
 78153  1  0  0  0
 78154  1  0  0  0
 79 85  1  0  0  0
 79155  1  0  0  0
 80156  1  0  0  0
 80157  1  0  0  0
 80158  1  0  0  0
 81159  1  0  0  0
 81160  1  0  0  0
 81161  1  0  0  0
 81 84  1  0  0  0
 82 84  1  0  0  0
 82162  1  0  0  0
 82163  1  0  0  0
 82164  1  0  0  0
 83165  1  0  0  0
 83166  1  0  0  0
 84167  1  0  0  0
M  ISO  4   1 100  68 101  83 101  86 100
M  END
> <chiral flag>
0

> <version>
0

> <s_m_source_file>
/data/baiqing/PycharmProjects/Reinvent-master-3.2/result/LINK_invent/BTK/process_docking_weight1_custom_sum_contain_oxygen_bond_distance_aromatic_linkinvent_7_9_3/rearranged_h_0140.sdf

> <i_m_source_file_index>
83

> <r_mmod_Potential_Energy-OPLS-2005>
1435.03601074219

> <r_mmod_Stretch_Energy-OPLS-2005>
511.087280273438

> <r_mmod_Bend_Energy-OPLS-2005>
538.628540039062

> <r_mmod_Torsional_Energy-OPLS-2005>
372.709747314453

> <r_mmod_Improper_Torsional_Energy-OPLS-2005>
6.28691005706787

> <r_mmod_Van_der_Waal_Energy-OPLS-2005>
129.623260498047

> <r_mmod_Electrostatic_Energy-OPLS-2005>
-299.397094726562

> <r_mmod_Solvation_Energy-OPLS-2005>
-199.806060791016

> <b_mmod_Minimization_Converged-OPLS-2005>
0

> <r_mmod_RMS_Derivative-OPLS-2005>
3.70416760444641

$$$$
83
                    3D
 Structure written by MMmdl.
168177  0  0  1  0            999 V2000
  -30.6685  -14.5804   20.4529 C   0  0  0  0  0  0
  -30.4096  -12.3344   19.4612 C   0  0  0  0  0  0
  -29.5001  -12.4794   18.2240 C   0  0  0  0  0  0
  -28.0202  -12.3411   18.6337 C   0  0  0  0  0  0
  -27.6459  -13.2188   19.8612 C   0  0  2  0  0  0
  -28.6885  -13.0743   20.9906 C   0  0  0  0  0  0
  -25.2523  -13.8181   20.5724 C   0  0  0  0  0  0
  -24.1782  -13.0443   20.9204 C   0  0  0  0  0  0
  -24.6348  -11.6909   20.8756 C   0  0  0  0  0  0
  -23.9022  -10.4292   21.0410 C   0  0  0  0  0  0
  -24.3580   -9.4204   21.9183 C   0  0  0  0  0  0
  -23.6273   -8.2235   22.0746 C   0  0  0  0  0  0
  -22.4252   -8.0270   21.3548 C   0  0  0  0  0  0
  -21.9881   -9.0237   20.4642 C   0  0  0  0  0  0
  -22.7191  -10.2126   20.3054 C   0  0  0  0  0  0
  -21.6835   -6.0719   22.5281 C   0  0  0  0  0  0
  -21.4006   -6.5628   23.8217 C   0  0  0  0  0  0
  -21.3668   -5.6783   24.9185 C   0  0  0  0  0  0
  -21.6029   -4.3041   24.7231 C   0  0  0  0  0  0
  -21.8825   -3.8136   23.4351 C   0  0  0  0  0  0
  -21.9188   -4.6952   22.3409 C   0  0  0  0  0  0
  -22.7801  -13.5243   21.1867 C   0  0  0  0  0  0
  -22.1648   -4.2131   21.0980 F   0  0  0  0  0  0
  -21.5638   -3.4531   25.7749 F   0  0  0  0  0  0
  -30.0048  -13.3855   20.4164 N   0  0  0  0  0  0
  -26.2927  -12.9359   20.3318 N   0  0  0  0  0  0
  -25.9268  -11.6512   20.5742 N   0  0  0  0  0  0
  -22.0411  -12.8255   22.0414 N   0  0  0  0  0  0
  -25.4263  -15.1892   20.4165 N   0  0  0  0  0  0
  -31.8597  -14.6339   20.1465 O   0  0  0  0  0  0
  -21.6624   -6.8865   21.4243 O   0  0  0  0  0  0
  -22.3491  -14.5537   20.6687 O   0  0  0  0  0  0
  -24.6251  -31.8631   23.2013 C   0  0  0  0  0  0
  -25.9120  -32.4806   23.8339 C   0  0  1  0  0  0
  -27.2436  -27.3193   20.1301 C   0  0  0  0  0  0
  -25.5962  -33.8588   24.2273 N   0  0  0  0  0  0
  -23.4203  -30.4829   21.5394 C   0  0  2  0  0  0
  -24.8752  -28.9390   20.1076 C   0  0  0  0  0  0
  -22.7467  -29.4658   22.4891 C   0  0  0  0  0  0
  -18.0324  -28.1405   22.8529 C   0  0  0  0  0  0
  -24.1466  -36.7279   23.2634 C   0  0  0  0  0  0
  -25.9604  -30.7855   21.3844 C   0  0  0  0  0  0
  -26.0366  -29.4106   20.7357 C   0  0  0  0  0  0
  -27.2132  -28.6036   20.7544 C   0  0  0  0  0  0
  -26.0858  -26.9396   19.4153 C   0  0  0  0  0  0
  -24.9028  -27.7052   19.4402 C   0  0  0  0  0  0
  -23.6405  -29.8137   20.1553 C   0  0  0  0  0  0
  -25.4102  -36.3083   24.0331 C   0  0  1  0  0  0
  -20.5923  -28.3725   23.1266 C   0  0  2  0  0  0
  -20.6780  -26.9437   22.5427 C   0  0  0  0  0  0
  -19.5768  -26.6409   21.5222 C   0  0  0  0  0  0
  -18.1955  -26.7967   22.1635 C   0  0  0  0  0  0
  -19.1571  -28.8889   23.2908 C   0  0  0  0  0  0
  -18.9486  -30.1474   23.8957 C   0  0  0  0  0  0
  -17.6473  -30.6616   24.0580 C   0  0  0  0  0  0
  -25.9049  -34.9475   23.5103 C   0  0  0  0  0  0
  -16.5371  -29.9119   23.6314 C   0  0  0  0  0  0
  -16.7308  -28.6512   23.0398 C   0  0  0  0  0  0
  -26.4490  -31.6620   25.0719 C   0  0  0  0  0  0
  -25.3737  -31.3820   26.1475 C   0  0  0  0  0  0
  -27.0300  -30.3020   24.6212 C   0  0  0  0  0  0
  -27.6062  -32.4337   25.7509 C   0  0  0  0  0  0
  -27.5579  -37.1804   24.8472 C   0  0  0  0  0  0
  -21.4184  -29.3065   22.3621 N   0  0  0  0  0  0
  -26.4291  -37.3779   23.9410 N   0  0  0  0  0  0
  -24.6860  -31.0631   22.0978 N   0  0  0  0  0  0
  -23.4167  -28.8199   23.2993 O   0  0  0  0  0  0
  -28.3875  -26.4950   20.1619 O   0  0  0  0  0  0
  -26.5574  -34.8967   22.4646 O   0  0  0  0  0  0
  -23.5417  -32.1469   23.7317 O   0  0  0  0  0  0
  -29.6612  -22.9064   20.4463 C   0  0  0  0  0  0
  -29.6109  -24.3390   20.3680 C   0  0  0  0  0  0
  -27.2322  -24.2630   20.3802 C   0  0  0  0  0  0
  -28.4847  -22.1046   20.4353 C   0  0  0  0  0  0
  -27.2625  -22.8420   20.3963 C   0  0  0  0  0  0
  -28.3898  -25.0774   20.2958 C   0  0  0  0  0  0
  -28.4671  -20.5268   20.5980 C   0  0  2  0  0  0
  -28.4750  -20.0251   22.0630 C   0  0  2  0  0  0
  -29.3311  -18.3361   20.5891 C   0  0  2  0  0  0
  -29.3983  -18.7727   22.0730 C   0  0  0  0  0  0
  -25.9127  -22.1389   20.3793 C   0  0  0  0  0  0
  -28.9353  -17.6547   23.0351 C   0  0  0  0  0  0
  -30.8107  -19.2317   22.4902 C   0  0  0  0  0  0
  -31.7192  -17.4586   19.9216 C   0  0  0  0  0  0
  -30.2160  -17.1191   20.0291 C   0  0  1  0  0  0
  -29.9204  -15.7228   20.5533 N   0  0  0  0  0  0
  -29.4442  -19.6546   19.9593 O   0  0  0  0  0  0
  -27.1588  -19.6803   22.4660 O   0  0  0  0  0  0
  -31.4608  -12.3990   19.1726 H   0  0  0  0  0  0
  -30.2875  -11.3435   19.9041 H   0  0  0  0  0  0
  -29.7531  -11.7225   17.4794 H   0  0  0  0  0  0
  -29.6662  -13.4467   17.7495 H   0  0  0  0  0  0
  -27.8517  -11.2902   18.8719 H   0  0  0  0  0  0
  -27.3668  -12.5632   17.7891 H   0  0  0  0  0  0
  -27.6651  -14.2533   19.5207 H   0  0  0  0  0  0
  -28.6780  -12.0504   21.3696 H   0  0  0  0  0  0
  -28.4534  -13.7117   21.8429 H   0  0  0  0  0  0
  -25.2724   -9.5686   22.4756 H   0  0  0  0  0  0
  -23.9979   -7.4626   22.7459 H   0  0  0  0  0  0
  -21.0814   -8.8756   19.8946 H   0  0  0  0  0  0
  -22.3647  -10.9670   19.6167 H   0  0  0  0  0  0
  -21.1988   -7.6131   23.9720 H   0  0  0  0  0  0
  -21.1483   -6.0508   25.9089 H   0  0  0  0  0  0
  -22.0595   -2.7593   23.2860 H   0  0  0  0  0  0
  -22.3988  -11.9941   22.4871 H   0  0  0  0  0  0
  -21.1018  -13.1308   22.2551 H   0  0  0  0  0  0
  -24.6725  -15.8549   20.5484 H   0  0  0  0  0  0
  -26.2768  -15.6231   20.0821 H   0  0  0  0  0  0
  -26.7197  -32.5495   23.1099 H   0  0  0  0  0  0
  -25.0185  -33.9699   25.0476 H   0  0  0  0  0  0
  -22.7188  -31.3057   21.3921 H   0  0  0  0  0  0
  -23.3755  -35.9586   23.3304 H   0  0  0  0  0  0
  -24.3548  -36.8870   22.2042 H   0  0  0  0  0  0
  -23.7213  -37.6501   23.6611 H   0  0  0  0  0  0
  -26.0952  -31.5424   20.6083 H   0  0  0  0  0  0
  -26.8375  -30.8384   22.0190 H   0  0  0  0  0  0
  -28.1010  -28.9590   21.2592 H   0  0  0  0  0  0
  -26.0783  -26.0363   18.8238 H   0  0  0  0  0  0
  -24.0295  -27.3490   18.9142 H   0  0  0  0  0  0
  -23.7577  -30.5860   19.3941 H   0  0  0  0  0  0
  -22.7634  -29.2364   19.8561 H   0  0  0  0  0  0
  -25.1274  -36.1938   25.0821 H   0  0  0  0  0  0
  -21.0068  -28.3349   24.1359 H   0  0  0  0  0  0
  -20.5675  -26.2350   23.3639 H   0  0  0  0  0  0
  -21.6652  -26.7449   22.1230 H   0  0  0  0  0  0
  -19.6885  -25.6312   21.1276 H   0  0  0  0  0  0
  -19.6693  -27.3197   20.6723 H   0  0  0  0  0  0
  -17.4208  -26.6788   21.4035 H   0  0  0  0  0  0
  -18.0332  -26.0085   22.8999 H   0  0  0  0  0  0
  -19.7966  -30.7299   24.2343 H   0  0  0  0  0  0
  -17.5041  -31.6318   24.5175 H   0  0  0  0  0  0
  -15.5389  -30.3045   23.7602 H   0  0  0  0  0  0
  -15.8704  -28.0820   22.7108 H   0  0  0  0  0  0
  -24.5917  -30.7124   25.7868 H   0  0  0  0  0  0
  -24.8955  -32.3028   26.4833 H   0  0  0  0  0  0
  -25.8128  -30.9100   27.0285 H   0  0  0  0  0  0
  -26.2874  -29.6838   24.1158 H   0  0  0  0  0  0
  -27.3868  -29.7219   25.4741 H   0  0  0  0  0  0
  -27.8791  -30.4254   23.9481 H   0  0  0  0  0  0
  -27.2658  -33.3627   26.2096 H   0  0  0  0  0  0
  -28.3892  -32.6921   25.0361 H   0  0  0  0  0  0
  -28.0697  -31.8466   26.5448 H   0  0  0  0  0  0
  -28.2618  -38.0074   24.7498 H   0  0  0  0  0  0
  -28.1048  -36.2629   24.6299 H   0  0  0  0  0  0
  -27.2314  -37.1476   25.8879 H   0  0  0  0  0  0
  -20.9339  -29.8774   21.6825 H   0  0  0  0  0  0
  -26.0177  -38.2853   24.1446 H   0  0  0  0  0  0
  -30.6201  -22.4172   20.5345 H   0  0  0  0  0  0
  -30.5473  -24.8823   20.3871 H   0  0  0  0  0  0
  -26.2607  -24.7155   20.4418 H   0  0  0  0  0  0
  -27.5489  -20.1789   20.1282 H   0  0  0  0  0  0
  -28.8495  -20.7988   22.7374 H   0  0  0  0  0  0
  -28.3039  -18.0164   20.4059 H   0  0  0  0  0  0
  -25.0936  -22.8459   20.2343 H   0  0  0  0  0  0
  -25.7422  -21.6210   21.3203 H   0  0  0  0  0  0
  -25.8532  -21.4268   19.5547 H   0  0  0  0  0  0
  -28.0098  -17.1862   22.6991 H   0  0  0  0  0  0
  -28.7705  -18.0310   24.0461 H   0  0  0  0  0  0
  -29.6845  -16.8644   23.0990 H   0  0  0  0  0  0
  -31.1961  -19.9978   21.8172 H   0  0  0  0  0  0
  -31.5177  -18.4065   22.5022 H   0  0  0  0  0  0
  -30.8047  -19.6616   23.4924 H   0  0  0  0  0  0
  -31.8825  -18.5121   19.6978 H   0  0  0  0  0  0
  -32.1829  -16.9046   19.1025 H   0  0  0  0  0  0
  -32.2692  -17.2069   20.8291 H   0  0  0  0  0  0
  -29.8972  -17.0392   18.9883 H   0  0  0  0  0  0
  -28.9488  -15.5529   20.7687 H   0  0  0  0  0  0
  -27.2450  -19.1499   23.2506 H   0  0  0  0  0  0
  1 25  1  0  0  0
  1 30  2  0  0  0
  1 86  1  0  0  0
  2  3  1  0  0  0
  2 25  1  0  0  0
  2 89  1  0  0  0
  2 90  1  0  0  0
  3  4  1  0  0  0
  3 91  1  0  0  0
  3 92  1  0  0  0
  4  5  1  0  0  0
  4 93  1  0  0  0
  4 94  1  0  0  0
  5  6  1  0  0  0
  5 26  1  0  0  0
  5 95  1  0  0  0
  6 25  1  0  0  0
  6 96  1  0  0  0
  6 97  1  0  0  0
  7  8  2  0  0  0
  7 26  1  0  0  0
  7 29  1  0  0  0
  8  9  1  0  0  0
  8 22  1  0  0  0
  9 10  1  0  0  0
  9 27  2  0  0  0
 10 11  2  0  0  0
 10 15  1  0  0  0
 11 12  1  0  0  0
 11 98  1  0  0  0
 12 13  2  0  0  0
 12 99  1  0  0  0
 13 14  1  0  0  0
 13 31  1  0  0  0
 14 15  2  0  0  0
 14100  1  0  0  0
 15101  1  0  0  0
 16 17  2  0  0  0
 16 21  1  0  0  0
 16 31  1  0  0  0
 17 18  1  0  0  0
 17102  1  0  0  0
 18 19  2  0  0  0
 18103  1  0  0  0
 19 20  1  0  0  0
 19 24  1  0  0  0
 20 21  2  0  0  0
 20104  1  0  0  0
 21 23  1  0  0  0
 22 28  1  0  0  0
 22 32  2  0  0  0
 26 27  1  0  0  0
 28105  1  0  0  0
 28106  1  0  0  0
 29107  1  0  0  0
 29108  1  0  0  0
 33 34  1  0  0  0
 33 66  1  0  0  0
 33 70  2  0  0  0
 34 36  1  0  0  0
 34 59  1  0  0  0
 34109  1  0  0  0
 35 44  2  0  0  0
 35 45  1  0  0  0
 35 68  1  0  0  0
 36 56  1  0  0  0
 36110  1  0  0  0
 37 39  1  0  0  0
 37 47  1  0  0  0
 37 66  1  0  0  0
 37111  1  0  0  0
 38 43  2  0  0  0
 38 46  1  0  0  0
 38 47  1  0  0  0
 39 64  1  0  0  0
 39 67  2  0  0  0
 40 52  1  0  0  0
 40 53  2  0  0  0
 40 58  1  0  0  0
 41112  1  0  0  0
 41113  1  0  0  0
 41114  1  0  0  0
 41 48  1  0  0  0
 42 43  1  0  0  0
 42 66  1  0  0  0
 42115  1  0  0  0
 42116  1  0  0  0
 43 44  1  0  0  0
 44117  1  0  0  0
 45 46  2  0  0  0
 45118  1  0  0  0
 46119  1  0  0  0
 47120  1  0  0  0
 47121  1  0  0  0
 48 56  1  0  0  0
 48 65  1  0  0  0
 48122  1  0  0  0
 49 50  1  0  0  0
 49 53  1  0  0  0
 49 64  1  0  0  0
 49123  1  0  0  0
 50 51  1  0  0  0
 50124  1  0  0  0
 50125  1  0  0  0
 51 52  1  0  0  0
 51126  1  0  0  0
 51127  1  0  0  0
 52128  1  0  0  0
 52129  1  0  0  0
 53 54  1  0  0  0
 54 55  2  0  0  0
 54130  1  0  0  0
 55 57  1  0  0  0
 55131  1  0  0  0
 56 69  2  0  0  0
 57 58  2  0  0  0
 57132  1  0  0  0
 58133  1  0  0  0
 59 60  1  0  0  0
 59 61  1  0  0  0
 59 62  1  0  0  0
 60134  1  0  0  0
 60135  1  0  0  0
 60136  1  0  0  0
 61137  1  0  0  0
 61138  1  0  0  0
 61139  1  0  0  0
 62140  1  0  0  0
 62141  1  0  0  0
 62142  1  0  0  0
 63 65  1  0  0  0
 63143  1  0  0  0
 63144  1  0  0  0
 63145  1  0  0  0
 64146  1  0  0  0
 65147  1  0  0  0
 68 76  1  0  0  0
 71 72  2  0  0  0
 71 74  1  0  0  0
 71148  1  0  0  0
 72 76  1  0  0  0
 72149  1  0  0  0
 73 75  1  0  0  0
 73 76  2  0  0  0
 73150  1  0  0  0
 74 75  2  0  0  0
 74 77  1  0  0  0
 75 81  1  0  0  0
 77 78  1  0  0  0
 77 87  1  0  0  0
 77151  1  0  0  0
 78 80  1  0  0  0
 78 88  1  0  0  0
 78152  1  0  0  0
 79 80  1  0  0  0
 79 85  1  0  0  0
 79 87  1  0  0  0
 79153  1  0  0  0
 80 82  1  0  0  0
 80 83  1  0  0  0
 81154  1  0  0  0
 81155  1  0  0  0
 81156  1  0  0  0
 82157  1  0  0  0
 82158  1  0  0  0
 82159  1  0  0  0
 83160  1  0  0  0
 83161  1  0  0  0
 83162  1  0  0  0
 84163  1  0  0  0
 84164  1  0  0  0
 84165  1  0  0  0
 84 85  1  0  0  0
 85 86  1  0  0  0
 85166  1  0  0  0
 86167  1  0  0  0
 88168  1  0  0  0
M  ISO  4   1 100  68 101  76 101  86 100
M  END
> <chiral flag>
0

> <version>
0

> <s_m_source_file>
/data/baiqing/PycharmProjects/Reinvent-master-3.2/result/LINK_invent/BTK/process_docking_weight1_custom_sum_contain_oxygen_bond_distance_aromatic_linkinvent_7_9_3/rearranged_h_0140.sdf

> <i_m_source_file_index>
84

> <r_mmod_Potential_Energy-OPLS-2005>
178.737930297852

> <r_mmod_Stretch_Energy-OPLS-2005>
86.5194396972656

> <r_mmod_Bend_Energy-OPLS-2005>
196.764175415039

> <r_mmod_Torsional_Energy-OPLS-2005>
270.990844726562

> <r_mmod_Improper_Torsional_Energy-OPLS-2005>
8.20795345306396

> <r_mmod_Van_der_Waal_Energy-OPLS-2005>
159.951385498047

> <r_mmod_Electrostatic_Energy-OPLS-2005>
-378.089233398438

> <r_mmod_Solvation_Energy-OPLS-2005>
-209.526107788086

> <b_mmod_Minimization_Converged-OPLS-2005>
0

> <r_mmod_RMS_Derivative-OPLS-2005>
5.39958810806274

$$$$
84
                    3D
 Structure written by MMmdl.
164174  0  0  1  0            999 V2000
  -30.6643  -14.4759   20.5907 C   0  0  0  0  0  0
  -30.4364  -12.3204   19.4042 C   0  0  0  0  0  0
  -29.4927  -12.5036   18.1979 C   0  0  0  0  0  0
  -28.0139  -12.3552   18.6167 C   0  0  0  0  0  0
  -27.6612  -13.1933   19.8718 C   0  0  2  0  0  0
  -28.7035  -12.9525   20.9850 C   0  0  0  0  0  0
  -25.2622  -13.8126   20.5674 C   0  0  0  0  0  0
  -24.1854  -13.0435   20.9202 C   0  0  0  0  0  0
  -24.6383  -11.6898   20.8769 C   0  0  0  0  0  0
  -23.9041  -10.4296   21.0437 C   0  0  0  0  0  0
  -24.3593   -9.4207   21.9216 C   0  0  0  0  0  0
  -23.6280   -8.2240   22.0757 C   0  0  0  0  0  0
  -22.4264   -8.0288   21.3552 C   0  0  0  0  0  0
  -21.9899   -9.0257   20.4654 C   0  0  0  0  0  0
  -22.7213  -10.2147   20.3079 C   0  0  0  0  0  0
  -21.6836   -6.0753   22.5291 C   0  0  0  0  0  0
  -21.4006   -6.5656   23.8226 C   0  0  0  0  0  0
  -21.3656   -5.6811   24.9193 C   0  0  0  0  0  0
  -21.6035   -4.3069   24.7237 C   0  0  0  0  0  0
  -21.8813   -3.8164   23.4358 C   0  0  0  0  0  0
  -21.9183   -4.6985   22.3419 C   0  0  0  0  0  0
  -22.7887  -13.5270   21.1865 C   0  0  0  0  0  0
  -22.1658   -4.2171   21.0993 F   0  0  0  0  0  0
  -21.5618   -3.4546   25.7743 F   0  0  0  0  0  0
  -30.0288  -13.2850   20.4318 N   0  0  0  0  0  0
  -26.3026  -12.9257   20.3362 N   0  0  0  0  0  0
  -25.9288  -11.6438   20.5781 N   0  0  0  0  0  0
  -22.0486  -12.8289   22.0400 N   0  0  0  0  0  0
  -25.4380  -15.1839   20.4049 N   0  0  0  0  0  0
  -31.8022  -14.7034   20.1686 O   0  0  0  0  0  0
  -21.6619   -6.8893   21.4249 O   0  0  0  0  0  0
  -22.3605  -14.5577   20.6689 O   0  0  0  0  0  0
  -24.6136  -31.8672   23.2086 C   0  0  0  0  0  0
  -25.9014  -32.4813   23.8402 C   0  0  1  0  0  0
  -27.2387  -27.4230   20.1061 C   0  0  0  0  0  0
  -25.5861  -33.8615   24.2343 N   0  0  0  0  0  0
  -23.4037  -30.4874   21.5504 C   0  0  2  0  0  0
  -24.8529  -28.9493   20.1191 C   0  0  0  0  0  0
  -22.7422  -29.4638   22.5012 C   0  0  0  0  0  0
  -18.0276  -28.1357   22.8500 C   0  0  0  0  0  0
  -24.1477  -36.7326   23.2636 C   0  0  0  0  0  0
  -25.9326  -30.8293   21.3616 C   0  0  0  0  0  0
  -26.0126  -29.4621   20.7118 C   0  0  0  0  0  0
  -27.2097  -28.7078   20.6973 C   0  0  0  0  0  0
  -26.0589  -26.9242   19.5097 C   0  0  0  0  0  0
  -24.8717  -27.6796   19.5135 C   0  0  0  0  0  0
  -23.6139  -29.8158   20.1674 C   0  0  0  0  0  0
  -25.4084  -36.3108   24.0355 C   0  0  1  0  0  0
  -20.5870  -28.3643   23.1327 C   0  0  2  0  0  0
  -20.6766  -26.9382   22.5425 C   0  0  0  0  0  0
  -19.5752  -26.6378   21.5210 C   0  0  0  0  0  0
  -18.1930  -26.7920   22.1622 C   0  0  0  0  0  0
  -19.1525  -28.8822   23.2902 C   0  0  0  0  0  0
  -18.9448  -30.1435   23.8912 C   0  0  0  0  0  0
  -17.6449  -30.6565   24.0571 C   0  0  0  0  0  0
  -25.9006  -34.9475   23.5145 C   0  0  0  0  0  0
  -16.5341  -29.9081   23.6309 C   0  0  0  0  0  0
  -16.7269  -28.6492   23.0348 C   0  0  0  0  0  0
  -26.4433  -31.6581   25.0723 C   0  0  0  0  0  0
  -25.3706  -31.3686   26.1483 C   0  0  0  0  0  0
  -27.0264  -30.3037   24.6051 C   0  0  0  0  0  0
  -27.6025  -32.4276   25.7474 C   0  0  0  0  0  0
  -27.5577  -37.1802   24.8464 C   0  0  0  0  0  0
  -21.4152  -29.3011   22.3751 N   0  0  0  0  0  0
  -26.4289  -37.3776   23.9413 N   0  0  0  0  0  0
  -24.6681  -31.0765   22.0982 N   0  0  0  0  0  0
  -23.4206  -28.8166   23.3035 O   0  0  0  0  0  0
  -28.4103  -26.6948   20.0966 O   0  0  0  0  0  0
  -26.5586  -34.8927   22.4720 O   0  0  0  0  0  0
  -23.5322  -32.1451   23.7450 O   0  0  0  0  0  0
  -32.3496  -22.6769   20.3211 C   0  0  0  0  0  0
  -31.0969  -23.2584   20.0773 C   0  0  0  0  0  0
  -32.4234  -21.3180   20.6751 C   0  0  0  0  0  0
  -31.2223  -20.5708   20.7280 C   0  0  0  0  0  0
  -29.9424  -22.4575   20.1784 C   0  0  0  0  0  0
  -34.0634  -20.1975   22.3961 C   0  0  0  0  0  0
  -34.7800  -21.4118   21.8667 C   0  0  0  0  0  0
  -31.9785  -18.1397   20.2520 C   0  0  0  0  0  0
  -33.7599  -20.7045   21.0016 C   0  0  0  0  0  0
  -31.2801  -19.1201   21.1759 C   0  0  2  0  0  0
  -30.5527  -17.8858   20.6415 C   0  0  2  0  0  0
  -30.2492  -16.7632   21.6370 C   0  0  0  0  0  0
  -28.3505  -25.3369   20.5788 C   0  0  0  0  0  0
  -28.4534  -24.2626   19.4664 C   0  0  0  0  0  0
  -30.0076  -21.1376   20.4982 N   0  0  0  0  0  0
  -29.8938  -15.4292   21.1457 N   0  0  0  0  0  0
  -28.6581  -22.9283   19.9734 O   0  0  0  0  0  0
  -31.4728  -12.4621   19.0965 H   0  0  0  0  0  0
  -30.3760  -11.3044   19.7975 H   0  0  0  0  0  0
  -29.7363  -11.7792   17.4201 H   0  0  0  0  0  0
  -29.6486  -13.4897   17.7572 H   0  0  0  0  0  0
  -27.8347  -11.2987   18.8194 H   0  0  0  0  0  0
  -27.3567  -12.6215   17.7887 H   0  0  0  0  0  0
  -27.7112  -14.2419   19.5765 H   0  0  0  0  0  0
  -28.6918  -11.9070   21.2977 H   0  0  0  0  0  0
  -28.4563  -13.5206   21.8833 H   0  0  0  0  0  0
  -25.2733   -9.5685   22.4805 H   0  0  0  0  0  0
  -23.9980   -7.4628   22.7473 H   0  0  0  0  0  0
  -21.0835   -8.8797   19.8958 H   0  0  0  0  0  0
  -22.3686  -10.9701   19.6203 H   0  0  0  0  0  0
  -21.1995   -7.6155   23.9749 H   0  0  0  0  0  0
  -21.1480   -6.0533   25.9100 H   0  0  0  0  0  0
  -22.0585   -2.7617   23.2861 H   0  0  0  0  0  0
  -22.4028  -11.9937   22.4820 H   0  0  0  0  0  0
  -21.1110  -13.1384   22.2554 H   0  0  0  0  0  0
  -24.6698  -15.8387   20.5048 H   0  0  0  0  0  0
  -26.2858  -15.6188   20.0647 H   0  0  0  0  0  0
  -26.7088  -32.5506   23.1174 H   0  0  0  0  0  0
  -25.0005  -33.9801   25.0487 H   0  0  0  0  0  0
  -22.6914  -31.3027   21.4090 H   0  0  0  0  0  0
  -23.3733  -35.9663   23.3292 H   0  0  0  0  0  0
  -24.3559  -36.8940   22.2048 H   0  0  0  0  0  0
  -23.7273  -37.6543   23.6659 H   0  0  0  0  0  0
  -26.0405  -31.5926   20.5885 H   0  0  0  0  0  0
  -26.8209  -30.8878   21.9789 H   0  0  0  0  0  0
  -28.1074  -29.1002   21.1563 H   0  0  0  0  0  0
  -26.0519  -25.9565   19.0316 H   0  0  0  0  0  0
  -23.9803  -27.2794   19.0514 H   0  0  0  0  0  0
  -23.7256  -30.5903   19.4075 H   0  0  0  0  0  0
  -22.7391  -29.2329   19.8711 H   0  0  0  0  0  0
  -25.1262  -36.1971   25.0859 H   0  0  0  0  0  0
  -20.9947  -28.3192   24.1455 H   0  0  0  0  0  0
  -20.5634  -26.2251   23.3603 H   0  0  0  0  0  0
  -21.6635  -26.7418   22.1219 H   0  0  0  0  0  0
  -19.6894  -25.6284   21.1243 H   0  0  0  0  0  0
  -19.6685  -27.3196   20.6744 H   0  0  0  0  0  0
  -17.4194  -26.6685   21.4029 H   0  0  0  0  0  0
  -18.0319  -26.0044   22.8996 H   0  0  0  0  0  0
  -19.7908  -30.7251   24.2304 H   0  0  0  0  0  0
  -17.4987  -31.6249   24.5168 H   0  0  0  0  0  0
  -15.5334  -30.2988   23.7598 H   0  0  0  0  0  0
  -15.8677  -28.0806   22.7064 H   0  0  0  0  0  0
  -24.5863  -30.7062   25.7812 H   0  0  0  0  0  0
  -24.8932  -32.2847   26.4981 H   0  0  0  0  0  0
  -25.8042  -30.8796   27.0214 H   0  0  0  0  0  0
  -26.2804  -29.6810   24.1098 H   0  0  0  0  0  0
  -27.4050  -29.7228   25.4471 H   0  0  0  0  0  0
  -27.8641  -30.4370   23.9195 H   0  0  0  0  0  0
  -27.2654  -33.3541   26.2134 H   0  0  0  0  0  0
  -28.3787  -32.6934   25.0289 H   0  0  0  0  0  0
  -28.0754  -31.8346   26.5319 H   0  0  0  0  0  0
  -28.2586  -38.0103   24.7488 H   0  0  0  0  0  0
  -28.1097  -36.2637   24.6314 H   0  0  0  0  0  0
  -27.2296  -37.1459   25.8869 H   0  0  0  0  0  0
  -20.9328  -29.8762   21.6988 H   0  0  0  0  0  0
  -26.0181  -38.2852   24.1424 H   0  0  0  0  0  0
  -33.2455  -23.2773   20.2593 H   0  0  0  0  0  0
  -31.0590  -24.3114   19.8373 H   0  0  0  0  0  0
  -33.3369  -20.3755   23.1878 H   0  0  0  0  0  0
  -34.6321  -19.2743   22.4827 H   0  0  0  0  0  0
  -35.8343  -21.2852   21.6284 H   0  0  0  0  0  0
  -34.5171  -22.3674   22.3149 H   0  0  0  0  0  0
  -32.7455  -17.4999   20.6854 H   0  0  0  0  0  0
  -32.1535  -18.4431   19.2223 H   0  0  0  0  0  0
  -34.1388  -20.1287   20.1580 H   0  0  0  0  0  0
  -31.5380  -19.0866   22.2323 H   0  0  0  0  0  0
  -29.7804  -18.0765   19.8974 H   0  0  0  0  0  0
  -29.4196  -17.1004   22.2602 H   0  0  0  0  0  0
  -31.0928  -16.6542   22.3198 H   0  0  0  0  0  0
  -29.1881  -25.2169   21.2673 H   0  0  0  0  0  0
  -27.4571  -25.1630   21.1807 H   0  0  0  0  0  0
  -29.2106  -24.5296   18.7307 H   0  0  0  0  0  0
  -27.5198  -24.2437   18.9079 H   0  0  0  0  0  0
  -28.9611  -15.1215   21.3778 H   0  0  0  0  0  0
  1 25  1  0  0  0
  1 30  2  0  0  0
  1 86  1  0  0  0
  2  3  1  0  0  0
  2 25  1  0  0  0
  2 88  1  0  0  0
  2 89  1  0  0  0
  3  4  1  0  0  0
  3 90  1  0  0  0
  3 91  1  0  0  0
  4  5  1  0  0  0
  4 92  1  0  0  0
  4 93  1  0  0  0
  5  6  1  0  0  0
  5 26  1  0  0  0
  5 94  1  0  0  0
  6 25  1  0  0  0
  6 95  1  0  0  0
  6 96  1  0  0  0
  7  8  2  0  0  0
  7 26  1  0  0  0
  7 29  1  0  0  0
  8  9  1  0  0  0
  8 22  1  0  0  0
  9 10  1  0  0  0
  9 27  2  0  0  0
 10 11  2  0  0  0
 10 15  1  0  0  0
 11 12  1  0  0  0
 11 97  1  0  0  0
 12 13  2  0  0  0
 12 98  1  0  0  0
 13 14  1  0  0  0
 13 31  1  0  0  0
 14 15  2  0  0  0
 14 99  1  0  0  0
 15100  1  0  0  0
 16 17  2  0  0  0
 16 21  1  0  0  0
 16 31  1  0  0  0
 17 18  1  0  0  0
 17101  1  0  0  0
 18 19  2  0  0  0
 18102  1  0  0  0
 19 20  1  0  0  0
 19 24  1  0  0  0
 20 21  2  0  0  0
 20103  1  0  0  0
 21 23  1  0  0  0
 22 28  1  0  0  0
 22 32  2  0  0  0
 26 27  1  0  0  0
 28104  1  0  0  0
 28105  1  0  0  0
 29106  1  0  0  0
 29107  1  0  0  0
 33 34  1  0  0  0
 33 66  1  0  0  0
 33 70  2  0  0  0
 34 36  1  0  0  0
 34 59  1  0  0  0
 34108  1  0  0  0
 35 44  2  0  0  0
 35 45  1  0  0  0
 35 68  1  0  0  0
 36 56  1  0  0  0
 36109  1  0  0  0
 37 39  1  0  0  0
 37 47  1  0  0  0
 37 66  1  0  0  0
 37110  1  0  0  0
 38 43  2  0  0  0
 38 46  1  0  0  0
 38 47  1  0  0  0
 39 64  1  0  0  0
 39 67  2  0  0  0
 40 52  1  0  0  0
 40 53  2  0  0  0
 40 58  1  0  0  0
 41111  1  0  0  0
 41112  1  0  0  0
 41113  1  0  0  0
 41 48  1  0  0  0
 42 43  1  0  0  0
 42 66  1  0  0  0
 42114  1  0  0  0
 42115  1  0  0  0
 43 44  1  0  0  0
 44116  1  0  0  0
 45 46  2  0  0  0
 45117  1  0  0  0
 46118  1  0  0  0
 47119  1  0  0  0
 47120  1  0  0  0
 48 56  1  0  0  0
 48 65  1  0  0  0
 48121  1  0  0  0
 49 50  1  0  0  0
 49 53  1  0  0  0
 49 64  1  0  0  0
 49122  1  0  0  0
 50 51  1  0  0  0
 50123  1  0  0  0
 50124  1  0  0  0
 51 52  1  0  0  0
 51125  1  0  0  0
 51126  1  0  0  0
 52127  1  0  0  0
 52128  1  0  0  0
 53 54  1  0  0  0
 54 55  2  0  0  0
 54129  1  0  0  0
 55 57  1  0  0  0
 55130  1  0  0  0
 56 69  2  0  0  0
 57 58  2  0  0  0
 57131  1  0  0  0
 58132  1  0  0  0
 59 60  1  0  0  0
 59 61  1  0  0  0
 59 62  1  0  0  0
 60133  1  0  0  0
 60134  1  0  0  0
 60135  1  0  0  0
 61136  1  0  0  0
 61137  1  0  0  0
 61138  1  0  0  0
 62139  1  0  0  0
 62140  1  0  0  0
 62141  1  0  0  0
 63 65  1  0  0  0
 63142  1  0  0  0
 63143  1  0  0  0
 63144  1  0  0  0
 64145  1  0  0  0
 65146  1  0  0  0
 68 83  1  0  0  0
 71 72  2  0  0  0
 71 73  1  0  0  0
 71147  1  0  0  0
 72 75  1  0  0  0
 72148  1  0  0  0
 73 74  2  0  0  0
 73 79  1  0  0  0
 74 85  1  0  0  0
 74 80  1  0  0  0
 75 85  2  0  0  0
 75 87  1  0  0  0
 76 77  1  0  0  0
 76 79  1  0  0  0
 76149  1  0  0  0
 76150  1  0  0  0
 77 79  1  0  0  0
 77151  1  0  0  0
 77152  1  0  0  0
 78 80  1  0  0  0
 78 81  1  0  0  0
 78153  1  0  0  0
 78154  1  0  0  0
 79155  1  0  0  0
 80 81  1  0  0  0
 80156  1  0  0  0
 81 82  1  0  0  0
 81157  1  0  0  0
 82 86  1  0  0  0
 82158  1  0  0  0
 82159  1  0  0  0
 83 84  1  0  0  0
 83160  1  0  0  0
 83161  1  0  0  0
 84 87  1  0  0  0
 84162  1  0  0  0
 84163  1  0  0  0
 86164  1  0  0  0
M  ISO  4   1 100  68 101  83 101  86 100
M  END
> <chiral flag>
0

> <version>
0

> <s_m_source_file>
/data/baiqing/PycharmProjects/Reinvent-master-3.2/result/LINK_invent/BTK/process_docking_weight1_custom_sum_contain_oxygen_bond_distance_aromatic_linkinvent_7_9_3/rearranged_h_0140.sdf

> <i_m_source_file_index>
85

> <r_mmod_Potential_Energy-OPLS-2005>
-189.559265136719

> <r_mmod_Stretch_Energy-OPLS-2005>
38.7502632141113

> <r_mmod_Bend_Energy-OPLS-2005>
119.129089355469

> <r_mmod_Torsional_Energy-OPLS-2005>
273.22998046875

> <r_mmod_Improper_Torsional_Energy-OPLS-2005>
3.34769320487976

> <r_mmod_Van_der_Waal_Energy-OPLS-2005>
150.896530151367

> <r_mmod_Electrostatic_Energy-OPLS-2005>
-567.861572265625

> <r_mmod_Solvation_Energy-OPLS-2005>
-221.251129150391

> <b_mmod_Minimization_Converged-OPLS-2005>
0

> <r_mmod_RMS_Derivative-OPLS-2005>
3.25456833839417

$$$$
85
                    3D
 Structure written by MMmdl.
165174  0  0  1  0            999 V2000
  -30.7265  -14.4083   20.6276 C   0  0  0  0  0  0
  -30.4213  -12.2872   19.4040 C   0  0  0  0  0  0
  -29.4882  -12.5138   18.1972 C   0  0  0  0  0  0
  -28.0112  -12.3746   18.6134 C   0  0  0  0  0  0
  -27.6681  -13.1993   19.8824 C   0  0  2  0  0  0
  -28.7064  -12.9398   20.9970 C   0  0  0  0  0  0
  -25.2604  -13.8139   20.5623 C   0  0  0  0  0  0
  -24.1857  -13.0432   20.9157 C   0  0  0  0  0  0
  -24.6404  -11.6896   20.8742 C   0  0  0  0  0  0
  -23.9062  -10.4287   21.0413 C   0  0  0  0  0  0
  -24.3614   -9.4201   21.9190 C   0  0  0  0  0  0
  -23.6288   -8.2239   22.0764 C   0  0  0  0  0  0
  -22.4273   -8.0279   21.3547 C   0  0  0  0  0  0
  -21.9903   -9.0252   20.4650 C   0  0  0  0  0  0
  -22.7232  -10.2133   20.3060 C   0  0  0  0  0  0
  -21.6851   -6.0734   22.5276 C   0  0  0  0  0  0
  -21.4014   -6.5641   23.8209 C   0  0  0  0  0  0
  -21.3657   -5.6795   24.9173 C   0  0  0  0  0  0
  -21.6046   -4.3058   24.7221 C   0  0  0  0  0  0
  -21.8821   -3.8147   23.4343 C   0  0  0  0  0  0
  -21.9192   -4.6963   22.3400 C   0  0  0  0  0  0
  -22.7882  -13.5243   21.1823 C   0  0  0  0  0  0
  -22.1662   -4.2152   21.0977 F   0  0  0  0  0  0
  -21.5627   -3.4542   25.7733 F   0  0  0  0  0  0
  -30.0467  -13.2428   20.4579 N   0  0  0  0  0  0
  -26.3057  -12.9304   20.3388 N   0  0  0  0  0  0
  -25.9334  -11.6468   20.5791 N   0  0  0  0  0  0
  -22.0529  -12.8238   22.0388 N   0  0  0  0  0  0
  -25.4293  -15.1837   20.3910 N   0  0  0  0  0  0
  -31.7960  -14.6494   20.0579 O   0  0  0  0  0  0
  -21.6639   -6.8876   21.4239 O   0  0  0  0  0  0
  -22.3565  -14.5548   20.6677 O   0  0  0  0  0  0
  -24.6136  -31.8702   23.2108 C   0  0  0  0  0  0
  -25.9035  -32.4834   23.8402 C   0  0  1  0  0  0
  -27.2345  -27.4455   20.0844 C   0  0  0  0  0  0
  -25.5905  -33.8631   24.2342 N   0  0  0  0  0  0
  -23.3995  -30.4933   21.5531 C   0  0  2  0  0  0
  -24.8448  -28.9639   20.1144 C   0  0  0  0  0  0
  -22.7404  -29.4652   22.5009 C   0  0  0  0  0  0
  -18.0269  -28.1361   22.8465 C   0  0  0  0  0  0
  -24.1494  -36.7311   23.2635 C   0  0  0  0  0  0
  -25.9278  -30.8386   21.3616 C   0  0  0  0  0  0
  -26.0051  -29.4734   20.7091 C   0  0  0  0  0  0
  -27.2004  -28.7205   20.6950 C   0  0  0  0  0  0
  -26.0518  -26.9554   19.4770 C   0  0  0  0  0  0
  -24.8623  -27.7034   19.4978 C   0  0  0  0  0  0
  -23.6073  -29.8293   20.1662 C   0  0  0  0  0  0
  -25.4110  -36.3112   24.0338 C   0  0  1  0  0  0
  -20.5855  -28.3643   23.1320 C   0  0  2  0  0  0
  -20.6766  -26.9387   22.5410 C   0  0  0  0  0  0
  -19.5755  -26.6379   21.5190 C   0  0  0  0  0  0
  -18.1927  -26.7905   22.1597 C   0  0  0  0  0  0
  -19.1513  -28.8820   23.2882 C   0  0  0  0  0  0
  -18.9449  -30.1426   23.8896 C   0  0  0  0  0  0
  -17.6458  -30.6571   24.0554 C   0  0  0  0  0  0
  -25.9038  -34.9475   23.5132 C   0  0  0  0  0  0
  -16.5345  -29.9076   23.6321 C   0  0  0  0  0  0
  -16.7256  -28.6489   23.0333 C   0  0  0  0  0  0
  -26.4474  -31.6596   25.0713 C   0  0  0  0  0  0
  -25.3760  -31.3685   26.1476 C   0  0  0  0  0  0
  -27.0290  -30.3057   24.6031 C   0  0  0  0  0  0
  -27.6069  -32.4298   25.7469 C   0  0  0  0  0  0
  -27.5580  -37.1805   24.8467 C   0  0  0  0  0  0
  -21.4138  -29.3021   22.3754 N   0  0  0  0  0  0
  -26.4293  -37.3794   23.9406 N   0  0  0  0  0  0
  -24.6655  -31.0802   22.1008 N   0  0  0  0  0  0
  -23.4195  -28.8191   23.3034 O   0  0  0  0  0  0
  -28.4158  -26.7272   20.1069 O   0  0  0  0  0  0
  -26.5588  -34.8912   22.4689 O   0  0  0  0  0  0
  -23.5337  -32.1459   23.7508 O   0  0  0  0  0  0
  -31.0294  -17.4648   20.7642 C   0  0  0  0  0  0
  -29.9825  -18.7039   22.3308 C   0  0  0  0  0  0
  -30.8044  -18.7920   21.2380 C   0  0  0  0  0  0
  -30.2974  -16.6289   21.5691 C   0  0  0  0  0  0
  -26.1684  -16.9872   24.1085 C   0  0  0  0  0  0
  -26.4903  -18.2176   23.2939 C   0  0  0  0  0  0
  -27.3058  -16.9567   23.1154 C   0  0  0  0  0  0
  -28.7494  -16.8951   23.5742 C   0  0  0  0  0  0
  -29.6036  -24.5698   20.2372 C   0  0  0  0  0  0
  -30.5896  -22.2593   20.4154 C   0  0  0  0  0  0
  -28.3445  -25.3333   19.7850 C   0  0  0  0  0  0
  -30.3521  -20.7765   20.0609 C   0  0  0  0  0  0
  -29.6463  -17.3768   22.5360 N   0  0  0  0  0  0
  -30.1330  -15.2808   21.4607 N   0  0  0  0  0  0
  -29.5056  -23.1274   19.8875 N   0  3  0  0  0  0
  -31.3212  -19.9453   20.7024 O   0  0  0  0  0  0
  -31.4661  -12.3824   19.1010 H   0  0  0  0  0  0
  -30.3165  -11.2669   19.7758 H   0  0  0  0  0  0
  -29.7187  -11.8008   17.4045 H   0  0  0  0  0  0
  -29.6610  -13.5052   17.7758 H   0  0  0  0  0  0
  -27.8170  -11.3165   18.7954 H   0  0  0  0  0  0
  -27.3576  -12.6624   17.7893 H   0  0  0  0  0  0
  -27.7270  -14.2533   19.6097 H   0  0  0  0  0  0
  -28.6751  -11.8940   21.3058 H   0  0  0  0  0  0
  -28.4540  -13.5037   21.8954 H   0  0  0  0  0  0
  -25.2763   -9.5678   22.4755 H   0  0  0  0  0  0
  -23.9998   -7.4634   22.7489 H   0  0  0  0  0  0
  -21.0832   -8.8763   19.8955 H   0  0  0  0  0  0
  -22.3691  -10.9667   19.6165 H   0  0  0  0  0  0
  -21.2012   -7.6149   23.9710 H   0  0  0  0  0  0
  -21.1477   -6.0528   25.9075 H   0  0  0  0  0  0
  -22.0604   -2.7608   23.2842 H   0  0  0  0  0  0
  -22.4144  -11.9885   22.4743 H   0  0  0  0  0  0
  -21.1157  -13.1267   22.2623 H   0  0  0  0  0  0
  -24.6587  -15.8356   20.4858 H   0  0  0  0  0  0
  -26.2786  -15.6174   20.0520 H   0  0  0  0  0  0
  -26.7104  -32.5553   23.1166 H   0  0  0  0  0  0
  -25.0109  -33.9812   25.0527 H   0  0  0  0  0  0
  -22.6847  -31.3081   21.4177 H   0  0  0  0  0  0
  -23.3748  -35.9653   23.3319 H   0  0  0  0  0  0
  -24.3610  -36.8913   22.2049 H   0  0  0  0  0  0
  -23.7246  -37.6521   23.6645 H   0  0  0  0  0  0
  -26.0308  -31.6016   20.5891 H   0  0  0  0  0  0
  -26.8185  -30.8982   21.9746 H   0  0  0  0  0  0
  -28.0954  -29.1091   21.1611 H   0  0  0  0  0  0
  -26.0168  -25.9994   18.9754 H   0  0  0  0  0  0
  -23.9714  -27.3059   19.0313 H   0  0  0  0  0  0
  -23.7149  -30.6072   19.4097 H   0  0  0  0  0  0
  -22.7314  -29.2516   19.8673 H   0  0  0  0  0  0
  -25.1283  -36.1983   25.0832 H   0  0  0  0  0  0
  -20.9908  -28.3190   24.1453 H   0  0  0  0  0  0
  -20.5684  -26.2233   23.3580 H   0  0  0  0  0  0
  -21.6641  -26.7457   22.1199 H   0  0  0  0  0  0
  -19.6926  -25.6297   21.1205 H   0  0  0  0  0  0
  -19.6705  -27.3202   20.6731 H   0  0  0  0  0  0
  -17.4203  -26.6637   21.4000 H   0  0  0  0  0  0
  -18.0340  -26.0040   22.8994 H   0  0  0  0  0  0
  -19.7940  -30.7217   24.2280 H   0  0  0  0  0  0
  -17.5029  -31.6255   24.5149 H   0  0  0  0  0  0
  -15.5349  -30.2985   23.7650 H   0  0  0  0  0  0
  -15.8651  -28.0823   22.7047 H   0  0  0  0  0  0
  -24.5952  -30.6999   25.7829 H   0  0  0  0  0  0
  -24.8919  -32.2827   26.4924 H   0  0  0  0  0  0
  -25.8138  -30.8878   27.0231 H   0  0  0  0  0  0
  -26.2800  -29.6821   24.1141 H   0  0  0  0  0  0
  -27.4163  -29.7278   25.4429 H   0  0  0  0  0  0
  -27.8590  -30.4415   23.9092 H   0  0  0  0  0  0
  -27.2728  -33.3607   26.2063 H   0  0  0  0  0  0
  -28.3873  -32.6845   25.0283 H   0  0  0  0  0  0
  -28.0743  -31.8404   26.5369 H   0  0  0  0  0  0
  -28.2592  -38.0103   24.7515 H   0  0  0  0  0  0
  -28.1073  -36.2635   24.6296 H   0  0  0  0  0  0
  -27.2301  -37.1464   25.8869 H   0  0  0  0  0  0
  -20.9296  -29.8756   21.6995 H   0  0  0  0  0  0
  -26.0180  -38.2867   24.1419 H   0  0  0  0  0  0
  -31.6309  -17.1756   19.9138 H   0  0  0  0  0  0
  -29.5820  -19.4728   22.9780 H   0  0  0  0  0  0
  -25.2649  -16.4374   23.8511 H   0  0  0  0  0  0
  -26.4170  -17.0044   25.1680 H   0  0  0  0  0  0
  -26.9587  -19.0551   23.8076 H   0  0  0  0  0  0
  -25.8037  -18.4906   22.4946 H   0  0  0  0  0  0
  -27.1202  -16.3980   22.2009 H   0  0  0  0  0  0
  -29.0067  -15.8698   23.8406 H   0  0  0  0  0  0
  -28.8852  -17.4975   24.4733 H   0  0  0  0  0  0
  -29.7182  -24.6791   21.3165 H   0  0  0  0  0  0
  -30.4908  -25.0019   19.7733 H   0  0  0  0  0  0
  -31.5528  -22.5854   20.0212 H   0  0  0  0  0  0
  -30.6364  -22.3627   21.4999 H   0  0  0  0  0  0
  -27.4843  -24.8773   20.2811 H   0  0  0  0  0  0
  -28.2052  -25.2220   18.7084 H   0  0  0  0  0  0
  -30.4311  -20.6282   18.9831 H   0  0  0  0  0  0
  -29.3332  -20.4949   20.3374 H   0  0  0  0  0  0
  -29.3526  -14.8908   21.9647 H   0  0  0  0  0  0
  -29.4742  -23.0404   18.8811 H   0  0  0  0  0  0
  -28.6275  -22.7771   20.2420 H   0  0  0  0  0  0
  1 25  1  0  0  0
  1 30  2  0  0  0
  1 84  1  0  0  0
  2  3  1  0  0  0
  2 25  1  0  0  0
  2 87  1  0  0  0
  2 88  1  0  0  0
  3  4  1  0  0  0
  3 89  1  0  0  0
  3 90  1  0  0  0
  4  5  1  0  0  0
  4 91  1  0  0  0
  4 92  1  0  0  0
  5  6  1  0  0  0
  5 26  1  0  0  0
  5 93  1  0  0  0
  6 25  1  0  0  0
  6 94  1  0  0  0
  6 95  1  0  0  0
  7  8  2  0  0  0
  7 26  1  0  0  0
  7 29  1  0  0  0
  8  9  1  0  0  0
  8 22  1  0  0  0
  9 10  1  0  0  0
  9 27  2  0  0  0
 10 11  2  0  0  0
 10 15  1  0  0  0
 11 12  1  0  0  0
 11 96  1  0  0  0
 12 13  2  0  0  0
 12 97  1  0  0  0
 13 14  1  0  0  0
 13 31  1  0  0  0
 14 15  2  0  0  0
 14 98  1  0  0  0
 15 99  1  0  0  0
 16 17  2  0  0  0
 16 21  1  0  0  0
 16 31  1  0  0  0
 17 18  1  0  0  0
 17100  1  0  0  0
 18 19  2  0  0  0
 18101  1  0  0  0
 19 20  1  0  0  0
 19 24  1  0  0  0
 20 21  2  0  0  0
 20102  1  0  0  0
 21 23  1  0  0  0
 22 28  1  0  0  0
 22 32  2  0  0  0
 26 27  1  0  0  0
 28103  1  0  0  0
 28104  1  0  0  0
 29105  1  0  0  0
 29106  1  0  0  0
 33 34  1  0  0  0
 33 66  1  0  0  0
 33 70  2  0  0  0
 34 36  1  0  0  0
 34 59  1  0  0  0
 34107  1  0  0  0
 35 44  2  0  0  0
 35 45  1  0  0  0
 35 68  1  0  0  0
 36 56  1  0  0  0
 36108  1  0  0  0
 37 39  1  0  0  0
 37 47  1  0  0  0
 37 66  1  0  0  0
 37109  1  0  0  0
 38 43  2  0  0  0
 38 46  1  0  0  0
 38 47  1  0  0  0
 39 64  1  0  0  0
 39 67  2  0  0  0
 40 52  1  0  0  0
 40 53  2  0  0  0
 40 58  1  0  0  0
 41110  1  0  0  0
 41111  1  0  0  0
 41112  1  0  0  0
 41 48  1  0  0  0
 42 43  1  0  0  0
 42 66  1  0  0  0
 42113  1  0  0  0
 42114  1  0  0  0
 43 44  1  0  0  0
 44115  1  0  0  0
 45 46  2  0  0  0
 45116  1  0  0  0
 46117  1  0  0  0
 47118  1  0  0  0
 47119  1  0  0  0
 48 56  1  0  0  0
 48 65  1  0  0  0
 48120  1  0  0  0
 49 50  1  0  0  0
 49 53  1  0  0  0
 49 64  1  0  0  0
 49121  1  0  0  0
 50 51  1  0  0  0
 50122  1  0  0  0
 50123  1  0  0  0
 51 52  1  0  0  0
 51124  1  0  0  0
 51125  1  0  0  0
 52126  1  0  0  0
 52127  1  0  0  0
 53 54  1  0  0  0
 54 55  2  0  0  0
 54128  1  0  0  0
 55 57  1  0  0  0
 55129  1  0  0  0
 56 69  2  0  0  0
 57 58  2  0  0  0
 57130  1  0  0  0
 58131  1  0  0  0
 59 60  1  0  0  0
 59 61  1  0  0  0
 59 62  1  0  0  0
 60132  1  0  0  0
 60133  1  0  0  0
 60134  1  0  0  0
 61135  1  0  0  0
 61136  1  0  0  0
 61137  1  0  0  0
 62138  1  0  0  0
 62139  1  0  0  0
 62140  1  0  0  0
 63 65  1  0  0  0
 63141  1  0  0  0
 63142  1  0  0  0
 63143  1  0  0  0
 64144  1  0  0  0
 65145  1  0  0  0
 68 81  1  0  0  0
 71 73  1  0  0  0
 71 74  2  0  0  0
 71146  1  0  0  0
 72 73  2  0  0  0
 72 83  1  0  0  0
 72147  1  0  0  0
 73 86  1  0  0  0
 74 83  1  0  0  0
 74 84  1  0  0  0
 75 76  1  0  0  0
 75 77  1  0  0  0
 75148  1  0  0  0
 75149  1  0  0  0
 76 77  1  0  0  0
 76150  1  0  0  0
 76151  1  0  0  0
 77 78  1  0  0  0
 77152  1  0  0  0
 78 83  1  0  0  0
 78153  1  0  0  0
 78154  1  0  0  0
 79 81  1  0  0  0
 79 85  1  0  0  0
 79155  1  0  0  0
 79156  1  0  0  0
 80 82  1  0  0  0
 80 85  1  0  0  0
 80157  1  0  0  0
 80158  1  0  0  0
 81159  1  0  0  0
 81160  1  0  0  0
 82 86  1  0  0  0
 82161  1  0  0  0
 82162  1  0  0  0
 84163  1  0  0  0
 85164  1  0  0  0
 85165  1  0  0  0
M  CHG  1  85   1
M  ISO  4   1 100  68 101  81 101  84 100
M  END
> <chiral flag>
0

> <version>
0

> <s_m_source_file>
/data/baiqing/PycharmProjects/Reinvent-master-3.2/result/LINK_invent/BTK/process_docking_weight1_custom_sum_contain_oxygen_bond_distance_aromatic_linkinvent_7_9_3/rearranged_h_0140.sdf

> <i_m_source_file_index>
86

> <r_mmod_Potential_Energy-OPLS-2005>
-116.761558532715

> <r_mmod_Stretch_Energy-OPLS-2005>
33.4304618835449

> <r_mmod_Bend_Energy-OPLS-2005>
103.029609680176

> <r_mmod_Torsional_Energy-OPLS-2005>
267.526611328125

> <r_mmod_Improper_Torsional_Energy-OPLS-2005>
2.44073748588562

> <r_mmod_Van_der_Waal_Energy-OPLS-2005>
129.760787963867

> <r_mmod_Electrostatic_Energy-OPLS-2005>
-206.834289550781

> <r_mmod_Solvation_Energy-OPLS-2005>
-454.900115966797

> <b_mmod_Minimization_Converged-OPLS-2005>
0

> <r_mmod_RMS_Derivative-OPLS-2005>
1.61094200611115

$$$$
86
                    3D
 Structure written by MMmdl.
155163  0  0  1  0            999 V2000
  -30.5679  -14.8698   20.4437 C   0  0  0  0  0  0
  -30.4486  -12.5343   19.4905 C   0  0  0  0  0  0
  -29.5270  -12.5433   18.2490 C   0  0  0  0  0  0
  -28.0543  -12.3437   18.6556 C   0  0  0  0  0  0
  -27.6445  -13.2461   19.8495 C   0  0  2  0  0  0
  -28.6891  -13.2212   20.9874 C   0  0  0  0  0  0
  -25.2525  -13.8244   20.5685 C   0  0  0  0  0  0
  -24.1834  -13.0469   20.9203 C   0  0  0  0  0  0
  -24.6446  -11.6949   20.8734 C   0  0  0  0  0  0
  -23.9121  -10.4318   21.0385 C   0  0  0  0  0  0
  -24.3673   -9.4235   21.9162 C   0  0  0  0  0  0
  -23.6334   -8.2282   22.0747 C   0  0  0  0  0  0
  -22.4312   -8.0320   21.3547 C   0  0  0  0  0  0
  -21.9959   -9.0293   20.4642 C   0  0  0  0  0  0
  -22.7295  -10.2161   20.3041 C   0  0  0  0  0  0
  -21.6875   -6.0760   22.5276 C   0  0  0  0  0  0
  -21.4019   -6.5650   23.8212 C   0  0  0  0  0  0
  -21.3666   -5.6793   24.9163 C   0  0  0  0  0  0
  -21.6058   -4.3059   24.7206 C   0  0  0  0  0  0
  -21.8828   -3.8161   23.4319 C   0  0  0  0  0  0
  -21.9202   -4.6986   22.3384 C   0  0  0  0  0  0
  -22.7841  -13.5221   21.1861 C   0  0  0  0  0  0
  -22.1666   -4.2175   21.0956 F   0  0  0  0  0  0
  -21.5638   -3.4537   25.7714 F   0  0  0  0  0  0
  -29.9851  -13.6086   20.4090 N   0  0  0  0  0  0
  -26.2974  -12.9468   20.3272 N   0  0  0  0  0  0
  -25.9381  -11.6599   20.5734 N   0  0  0  0  0  0
  -22.0489  -12.8211   22.0420 N   0  0  0  0  0  0
  -25.4204  -15.1974   20.4080 N   0  0  0  0  0  0
  -31.7490  -14.9762   20.0963 O   0  0  0  0  0  0
  -21.6679   -6.8914   21.4241 O   0  0  0  0  0  0
  -22.3513  -14.5512   20.6702 O   0  0  0  0  0  0
  -24.6379  -31.8485   23.1937 C   0  0  0  0  0  0
  -25.9171  -32.4721   23.8320 C   0  0  1  0  0  0
  -27.2252  -27.1861   20.1451 C   0  0  0  0  0  0
  -25.5932  -33.8525   24.2232 N   0  0  0  0  0  0
  -23.4398  -30.4699   21.5374 C   0  0  2  0  0  0
  -24.8921  -28.9059   20.1081 C   0  0  0  0  0  0
  -22.7538  -29.4584   22.4877 C   0  0  0  0  0  0
  -18.0298  -28.1389   22.8479 C   0  0  0  0  0  0
  -24.1487  -36.7280   23.2649 C   0  0  0  0  0  0
  -25.9918  -30.7382   21.3877 C   0  0  0  0  0  0
  -26.0643  -29.3528   20.7305 C   0  0  0  0  0  0
  -27.2282  -28.5043   20.7418 C   0  0  0  0  0  0
  -26.0352  -26.8412   19.4645 C   0  0  0  0  0  0
  -24.8878  -27.6612   19.4609 C   0  0  0  0  0  0
  -23.6638  -29.8004   20.1553 C   0  0  0  0  0  0
  -25.4118  -36.3054   24.0325 C   0  0  1  0  0  0
  -20.5909  -28.3721   23.1237 C   0  0  2  0  0  0
  -20.6775  -26.9422   22.5404 C   0  0  0  0  0  0
  -19.5753  -26.6375   21.5212 C   0  0  0  0  0  0
  -18.1938  -26.7932   22.1624 C   0  0  0  0  0  0
  -19.1548  -28.8876   23.2857 C   0  0  0  0  0  0
  -18.9472  -30.1469   23.8874 C   0  0  0  0  0  0
  -17.6462  -30.6589   24.0568 C   0  0  0  0  0  0
  -25.9064  -34.9417   23.5095 C   0  0  0  0  0  0
  -16.5358  -29.9078   23.6333 C   0  0  0  0  0  0
  -16.7276  -28.6502   23.0355 C   0  0  0  0  0  0
  -26.4499  -31.6566   25.0741 C   0  0  0  0  0  0
  -25.3695  -31.3743   26.1445 C   0  0  0  0  0  0
  -27.0361  -30.2965   24.6303 C   0  0  0  0  0  0
  -27.6047  -32.4319   25.7515 C   0  0  0  0  0  0
  -27.5584  -37.1800   24.8464 C   0  0  0  0  0  0
  -21.4235  -29.3060   22.3618 N   0  0  0  0  0  0
  -26.4293  -37.3753   23.9409 N   0  0  0  0  0  0
  -24.7095  -31.0381   22.0955 N   0  0  0  0  0  0
  -23.4195  -28.8126   23.3015 O   0  0  0  0  0  0
  -28.2920  -26.2316   20.2494 O   0  0  0  0  0  0
  -26.5645  -34.8896   22.4668 O   0  0  0  0  0  0
  -23.5509  -32.1336   23.7194 O   0  0  0  0  0  0
  -28.6587  -18.2051   21.1685 C   0  0  0  0  0  0
  -30.3908  -19.6537   19.7124 C   0  0  0  0  0  0
  -28.4244  -19.6204   20.9934 C   0  0  0  0  0  0
  -29.2879  -20.4441   20.2021 C   0  0  0  0  0  0
  -29.7418  -17.4803   20.5795 C   0  0  0  0  0  0
  -27.1769  -20.2147   21.6197 C   0  0  0  0  0  0
  -29.6638  -22.2139   18.3388 C   0  0  0  0  0  0
  -28.9224  -23.4120   20.4798 C   0  0  0  0  0  0
  -28.0988  -24.7460   19.8959 C   0  0  0  0  0  0
  -28.9105  -21.9616   19.6601 C   0  0  2  0  0  0
  -30.6039  -18.2854   19.8797 N   0  0  0  0  0  0
  -29.7487  -15.9732   20.7462 N   0  0  0  0  0  0
  -31.4841  -12.6817   19.1812 H   0  0  0  0  0  0
  -30.4193  -11.5640   19.9891 H   0  0  0  0  0  0
  -29.8323  -11.7671   17.5455 H   0  0  0  0  0  0
  -29.6364  -13.4919   17.7197 H   0  0  0  0  0  0
  -27.9237  -11.2943   18.9225 H   0  0  0  0  0  0
  -27.4003  -12.5279   17.8020 H   0  0  0  0  0  0
  -27.6245  -14.2634   19.4570 H   0  0  0  0  0  0
  -28.7506  -12.2337   21.4463 H   0  0  0  0  0  0
  -28.3997  -13.9087   21.7839 H   0  0  0  0  0  0
  -25.2816   -9.5727   22.4734 H   0  0  0  0  0  0
  -24.0068   -7.4680   22.7464 H   0  0  0  0  0  0
  -21.0895   -8.8810   19.8941 H   0  0  0  0  0  0
  -22.3753  -10.9709   19.6158 H   0  0  0  0  0  0
  -21.2006   -7.6155   23.9717 H   0  0  0  0  0  0
  -21.1478   -6.0512   25.9065 H   0  0  0  0  0  0
  -22.0602   -2.7626   23.2799 H   0  0  0  0  0  0
  -22.4095  -11.9870   22.4813 H   0  0  0  0  0  0
  -21.1095  -13.1219   22.2593 H   0  0  0  0  0  0
  -24.6492  -15.8480   20.5061 H   0  0  0  0  0  0
  -26.2594  -15.6367   20.0510 H   0  0  0  0  0  0
  -26.7250  -32.5337   23.1071 H   0  0  0  0  0  0
  -25.0034  -33.9623   25.0351 H   0  0  0  0  0  0
  -22.7419  -31.2964   21.3861 H   0  0  0  0  0  0
  -23.3745  -35.9616   23.3291 H   0  0  0  0  0  0
  -24.3603  -36.8925   22.2073 H   0  0  0  0  0  0
  -23.7224  -37.6474   23.6678 H   0  0  0  0  0  0
  -26.1401  -31.4961   20.6170 H   0  0  0  0  0  0
  -26.8651  -30.7912   22.0266 H   0  0  0  0  0  0
  -28.1148  -28.8344   21.2646 H   0  0  0  0  0  0
  -25.9518  -25.9020   18.9386 H   0  0  0  0  0  0
  -23.9961  -27.3176   18.9542 H   0  0  0  0  0  0
  -23.7917  -30.5749   19.3977 H   0  0  0  0  0  0
  -22.7801  -29.2375   19.8509 H   0  0  0  0  0  0
  -25.1300  -36.1915   25.0819 H   0  0  0  0  0  0
  -21.0006  -28.3306   24.1358 H   0  0  0  0  0  0
  -20.5671  -26.2332   23.3624 H   0  0  0  0  0  0
  -21.6641  -26.7432   22.1203 H   0  0  0  0  0  0
  -19.6915  -25.6281   21.1255 H   0  0  0  0  0  0
  -19.6682  -27.3170   20.6731 H   0  0  0  0  0  0
  -17.4203  -26.6673   21.4030 H   0  0  0  0  0  0
  -18.0344  -26.0077   22.9027 H   0  0  0  0  0  0
  -19.7947  -30.7299   24.2222 H   0  0  0  0  0  0
  -17.5016  -31.6260   24.5183 H   0  0  0  0  0  0
  -15.5356  -30.2980   23.7661 H   0  0  0  0  0  0
  -15.8682  -28.0809   22.7082 H   0  0  0  0  0  0
  -24.5860  -30.7112   25.7753 H   0  0  0  0  0  0
  -24.8894  -32.2920   26.4854 H   0  0  0  0  0  0
  -25.7978  -30.8909   27.0235 H   0  0  0  0  0  0
  -26.2971  -29.6690   24.1307 H   0  0  0  0  0  0
  -27.3977  -29.7261   25.4871 H   0  0  0  0  0  0
  -27.8870  -30.4210   23.9606 H   0  0  0  0  0  0
  -27.2653  -33.3624   26.2076 H   0  0  0  0  0  0
  -28.3859  -32.6880   25.0344 H   0  0  0  0  0  0
  -28.0711  -31.8458   26.5443 H   0  0  0  0  0  0
  -28.2591  -38.0106   24.7517 H   0  0  0  0  0  0
  -28.1086  -36.2639   24.6275 H   0  0  0  0  0  0
  -27.2311  -37.1435   25.8868 H   0  0  0  0  0  0
  -20.9431  -29.8772   21.6803 H   0  0  0  0  0  0
  -26.0174  -38.2833   24.1383 H   0  0  0  0  0  0
  -27.9423  -17.6489   21.7579 H   0  0  0  0  0  0
  -31.1293  -20.1176   19.0760 H   0  0  0  0  0  0
  -26.7404  -19.5394   22.3575 H   0  0  0  0  0  0
  -26.4215  -20.3956   20.8558 H   0  0  0  0  0  0
  -27.4054  -21.1527   22.1260 H   0  0  0  0  0  0
  -29.5218  -21.3978   17.6299 H   0  0  0  0  0  0
  -30.7335  -22.3321   18.5139 H   0  0  0  0  0  0
  -29.3309  -23.1184   17.8315 H   0  0  0  0  0  0
  -28.5388  -23.2280   21.4838 H   0  0  0  0  0  0
  -29.9632  -23.6966   20.6343 H   0  0  0  0  0  0
  -27.0572  -24.5005   20.0994 H   0  0  0  0  0  0
  -28.1790  -24.7311   18.8099 H   0  0  0  0  0  0
  -27.8651  -21.8491   19.3689 H   0  0  0  0  0  0
  -28.8724  -15.6414   21.1122 H   0  0  0  0  0  0
  1 25  1  0  0  0
  1 30  2  0  0  0
  1 82  1  0  0  0
  2  3  1  0  0  0
  2 25  1  0  0  0
  2 83  1  0  0  0
  2 84  1  0  0  0
  3  4  1  0  0  0
  3 85  1  0  0  0
  3 86  1  0  0  0
  4  5  1  0  0  0
  4 87  1  0  0  0
  4 88  1  0  0  0
  5  6  1  0  0  0
  5 26  1  0  0  0
  5 89  1  0  0  0
  6 25  1  0  0  0
  6 90  1  0  0  0
  6 91  1  0  0  0
  7  8  2  0  0  0
  7 26  1  0  0  0
  7 29  1  0  0  0
  8  9  1  0  0  0
  8 22  1  0  0  0
  9 10  1  0  0  0
  9 27  2  0  0  0
 10 11  2  0  0  0
 10 15  1  0  0  0
 11 12  1  0  0  0
 11 92  1  0  0  0
 12 13  2  0  0  0
 12 93  1  0  0  0
 13 14  1  0  0  0
 13 31  1  0  0  0
 14 15  2  0  0  0
 14 94  1  0  0  0
 15 95  1  0  0  0
 16 17  2  0  0  0
 16 21  1  0  0  0
 16 31  1  0  0  0
 17 18  1  0  0  0
 17 96  1  0  0  0
 18 19  2  0  0  0
 18 97  1  0  0  0
 19 20  1  0  0  0
 19 24  1  0  0  0
 20 21  2  0  0  0
 20 98  1  0  0  0
 21 23  1  0  0  0
 22 28  1  0  0  0
 22 32  2  0  0  0
 26 27  1  0  0  0
 28 99  1  0  0  0
 28100  1  0  0  0
 29101  1  0  0  0
 29102  1  0  0  0
 33 34  1  0  0  0
 33 66  1  0  0  0
 33 70  2  0  0  0
 34 36  1  0  0  0
 34 59  1  0  0  0
 34103  1  0  0  0
 35 44  2  0  0  0
 35 45  1  0  0  0
 35 68  1  0  0  0
 36 56  1  0  0  0
 36104  1  0  0  0
 37 39  1  0  0  0
 37 47  1  0  0  0
 37 66  1  0  0  0
 37105  1  0  0  0
 38 43  2  0  0  0
 38 46  1  0  0  0
 38 47  1  0  0  0
 39 64  1  0  0  0
 39 67  2  0  0  0
 40 52  1  0  0  0
 40 53  2  0  0  0
 40 58  1  0  0  0
 41106  1  0  0  0
 41107  1  0  0  0
 41108  1  0  0  0
 41 48  1  0  0  0
 42 43  1  0  0  0
 42 66  1  0  0  0
 42109  1  0  0  0
 42110  1  0  0  0
 43 44  1  0  0  0
 44111  1  0  0  0
 45 46  2  0  0  0
 45112  1  0  0  0
 46113  1  0  0  0
 47114  1  0  0  0
 47115  1  0  0  0
 48 56  1  0  0  0
 48 65  1  0  0  0
 48116  1  0  0  0
 49 50  1  0  0  0
 49 53  1  0  0  0
 49 64  1  0  0  0
 49117  1  0  0  0
 50 51  1  0  0  0
 50118  1  0  0  0
 50119  1  0  0  0
 51 52  1  0  0  0
 51120  1  0  0  0
 51121  1  0  0  0
 52122  1  0  0  0
 52123  1  0  0  0
 53 54  1  0  0  0
 54 55  2  0  0  0
 54124  1  0  0  0
 55 57  1  0  0  0
 55125  1  0  0  0
 56 69  2  0  0  0
 57 58  2  0  0  0
 57126  1  0  0  0
 58127  1  0  0  0
 59 60  1  0  0  0
 59 61  1  0  0  0
 59 62  1  0  0  0
 60128  1  0  0  0
 60129  1  0  0  0
 60130  1  0  0  0
 61131  1  0  0  0
 61132  1  0  0  0
 61133  1  0  0  0
 62134  1  0  0  0
 62135  1  0  0  0
 62136  1  0  0  0
 63 65  1  0  0  0
 63137  1  0  0  0
 63138  1  0  0  0
 63139  1  0  0  0
 64140  1  0  0  0
 65141  1  0  0  0
 68 79  1  0  0  0
 71 73  2  0  0  0
 71 75  1  0  0  0
 71142  1  0  0  0
 72 74  2  0  0  0
 72 81  1  0  0  0
 72143  1  0  0  0
 73 74  1  0  0  0
 73 76  1  0  0  0
 74 80  1  0  0  0
 75 81  2  0  0  0
 75 82  1  0  0  0
 76144  1  0  0  0
 76145  1  0  0  0
 76146  1  0  0  0
 77147  1  0  0  0
 77148  1  0  0  0
 77149  1  0  0  0
 77 80  1  0  0  0
 78 79  1  0  0  0
 78 80  1  0  0  0
 78150  1  0  0  0
 78151  1  0  0  0
 79152  1  0  0  0
 79153  1  0  0  0
 80154  1  0  0  0
 82155  1  0  0  0
M  ISO  4   1 100  68 101  79 101  82 100
M  END
> <chiral flag>
0

> <version>
0

> <s_m_source_file>
/data/baiqing/PycharmProjects/Reinvent-master-3.2/result/LINK_invent/BTK/process_docking_weight1_custom_sum_contain_oxygen_bond_distance_aromatic_linkinvent_7_9_3/rearranged_h_0140.sdf

> <i_m_source_file_index>
87

> <r_mmod_Potential_Energy-OPLS-2005>
260.700622558594

> <r_mmod_Stretch_Energy-OPLS-2005>
199.437225341797

> <r_mmod_Bend_Energy-OPLS-2005>
248.126831054688

> <r_mmod_Torsional_Energy-OPLS-2005>
217.070220947266

> <r_mmod_Improper_Torsional_Energy-OPLS-2005>
5.56154775619507

> <r_mmod_Van_der_Waal_Energy-OPLS-2005>
139.713226318359

> <r_mmod_Electrostatic_Energy-OPLS-2005>
-460.222991943359

> <r_mmod_Solvation_Energy-OPLS-2005>
-234.136764526367

> <b_mmod_Minimization_Converged-OPLS-2005>
0

> <r_mmod_RMS_Derivative-OPLS-2005>
2.32239151000977

$$$$
87
                    3D
 Structure written by MMmdl.
154163  0  0  1  0            999 V2000
  -30.5727  -15.0557   20.4310 C   0  0  0  0  0  0
  -30.4229  -12.6735   19.5104 C   0  0  0  0  0  0
  -29.5189  -12.5457   18.2634 C   0  0  0  0  0  0
  -28.0583  -12.3071   18.6837 C   0  0  0  0  0  0
  -27.6150  -13.2609   19.8219 C   0  0  2  0  0  0
  -28.6541  -13.3541   20.9564 C   0  0  0  0  0  0
  -25.2383  -13.8215   20.5706 C   0  0  0  0  0  0
  -24.1734  -13.0423   20.9249 C   0  0  0  0  0  0
  -24.6379  -11.6922   20.8759 C   0  0  0  0  0  0
  -23.9071  -10.4284   21.0403 C   0  0  0  0  0  0
  -24.3620   -9.4201   21.9180 C   0  0  0  0  0  0
  -23.6299   -8.2234   22.0747 C   0  0  0  0  0  0
  -22.4281   -8.0270   21.3541 C   0  0  0  0  0  0
  -21.9914   -9.0241   20.4641 C   0  0  0  0  0  0
  -22.7241  -10.2123   20.3051 C   0  0  0  0  0  0
  -21.6850   -6.0729   22.5276 C   0  0  0  0  0  0
  -21.4016   -6.5631   23.8210 C   0  0  0  0  0  0
  -21.3664   -5.6785   24.9173 C   0  0  0  0  0  0
  -21.6046   -4.3046   24.7221 C   0  0  0  0  0  0
  -21.8820   -3.8139   23.4340 C   0  0  0  0  0  0
  -21.9193   -4.6959   22.3399 C   0  0  0  0  0  0
  -22.7754  -13.5184   21.1907 C   0  0  0  0  0  0
  -22.1659   -4.2148   21.0975 F   0  0  0  0  0  0
  -21.5632   -3.4526   25.7728 F   0  0  0  0  0  0
  -29.9118  -13.8124   20.3472 N   0  0  0  0  0  0
  -26.2810  -12.9482   20.3183 N   0  0  0  0  0  0
  -25.9311  -11.6599   20.5716 N   0  0  0  0  0  0
  -22.0420  -12.8167   22.0468 N   0  0  0  0  0  0
  -25.3963  -15.1941   20.4093 N   0  0  0  0  0  0
  -31.7816  -14.9952   20.1686 O   0  0  0  0  0  0
  -21.6640   -6.8873   21.4239 O   0  0  0  0  0  0
  -22.3429  -14.5485   20.6752 O   0  0  0  0  0  0
  -24.6494  -31.8368   23.1822 C   0  0  0  0  0  0
  -25.9236  -32.4660   23.8232 C   0  0  1  0  0  0
  -27.2140  -27.0663   20.1643 C   0  0  0  0  0  0
  -25.5960  -33.8468   24.2145 N   0  0  0  0  0  0
  -23.4563  -30.4550   21.5290 C   0  0  2  0  0  0
  -24.9053  -28.8677   20.1124 C   0  0  0  0  0  0
  -22.7595  -29.4514   22.4825 C   0  0  0  0  0  0
  -18.0312  -28.1405   22.8473 C   0  0  0  0  0  0
  -24.1494  -36.7243   23.2645 C   0  0  0  0  0  0
  -26.0171  -30.6890   21.3900 C   0  0  0  0  0  0
  -26.0861  -29.2929   20.7337 C   0  0  0  0  0  0
  -27.2403  -28.4116   20.7372 C   0  0  0  0  0  0
  -26.0039  -26.7575   19.5050 C   0  0  0  0  0  0
  -24.8810  -27.6154   19.4808 C   0  0  0  0  0  0
  -23.6866  -29.7797   20.1507 C   0  0  0  0  0  0
  -25.4129  -36.3011   24.0310 C   0  0  1  0  0  0
  -20.5929  -28.3735   23.1219 C   0  0  2  0  0  0
  -20.6798  -26.9433   22.5402 C   0  0  0  0  0  0
  -19.5770  -26.6382   21.5217 C   0  0  0  0  0  0
  -18.1950  -26.7943   22.1626 C   0  0  0  0  0  0
  -19.1571  -28.8890   23.2837 C   0  0  0  0  0  0
  -18.9487  -30.1486   23.8862 C   0  0  0  0  0  0
  -17.6482  -30.6598   24.0562 C   0  0  0  0  0  0
  -25.9079  -34.9389   23.5040 C   0  0  0  0  0  0
  -16.5372  -29.9089   23.6344 C   0  0  0  0  0  0
  -16.7296  -28.6513   23.0355 C   0  0  0  0  0  0
  -26.4533  -31.6553   25.0702 C   0  0  0  0  0  0
  -25.3699  -31.3764   26.1388 C   0  0  0  0  0  0
  -27.0402  -30.2936   24.6332 C   0  0  0  0  0  0
  -27.6045  -32.4338   25.7492 C   0  0  0  0  0  0
  -27.5575  -37.1780   24.8464 C   0  0  0  0  0  0
  -21.4279  -29.3051   22.3579 N   0  0  0  0  0  0
  -26.4284  -37.3733   23.9409 N   0  0  0  0  0  0
  -24.7281  -31.0169   22.0885 N   0  0  0  0  0  0
  -23.4214  -28.8064   23.2997 O   0  0  0  0  0  0
  -28.2565  -26.0473   20.2206 O   0  0  0  0  0  0
  -26.5673  -34.8898   22.4624 O   0  0  0  0  0  0
  -23.5598  -32.1259   23.7014 O   0  0  0  0  0  0
  -27.5887  -19.4658   21.1738 C   0  0  0  0  0  0
  -27.7353  -20.8880   20.9480 C   0  0  0  0  0  0
  -29.9091  -20.4601   20.0414 C   0  0  0  0  0  0
  -28.6032  -18.5149   20.8423 C   0  0  0  0  0  0
  -29.7507  -19.0007   20.2659 C   0  0  0  0  0  0
  -28.9006  -21.4974   20.3817 C   0  0  0  0  0  0
  -30.6464  -17.7038   20.0284 C   0  0  0  0  0  0
  -28.6971  -16.9542   21.0951 C   0  0  2  0  0  0
  -28.6830  -16.7226   22.6177 C   0  0  0  0  0  0
  -29.1051  -23.1711   20.2562 C   0  0  0  0  0  0
  -27.9846  -24.4786   20.2090 C   0  0  0  0  0  0
  -29.9608  -16.3806   20.4701 N   0  0  0  0  0  0
  -31.4558  -12.8174   19.1915 H   0  0  0  0  0  0
  -30.4266  -11.7430   20.0812 H   0  0  0  0  0  0
  -29.8643  -11.7320   17.6247 H   0  0  0  0  0  0
  -29.5863  -13.4558   17.6651 H   0  0  0  0  0  0
  -27.9821  -11.2731   19.0218 H   0  0  0  0  0  0
  -27.3919  -12.3963   17.8247 H   0  0  0  0  0  0
  -27.5550  -14.2486   19.3634 H   0  0  0  0  0  0
  -28.7767  -12.3945   21.4619 H   0  0  0  0  0  0
  -28.3029  -14.0499   21.7101 H   0  0  0  0  0  0
  -25.2756   -9.5686   22.4769 H   0  0  0  0  0  0
  -24.0011   -7.4622   22.7460 H   0  0  0  0  0  0
  -21.0849   -8.8746   19.8944 H   0  0  0  0  0  0
  -22.3680  -10.9663   19.6166 H   0  0  0  0  0  0
  -21.2007   -7.6138   23.9714 H   0  0  0  0  0  0
  -21.1492   -6.0515   25.9078 H   0  0  0  0  0  0
  -22.0601   -2.7603   23.2838 H   0  0  0  0  0  0
  -22.4051  -11.9836   22.4859 H   0  0  0  0  0  0
  -21.1035  -13.1174   22.2677 H   0  0  0  0  0  0
  -24.6148  -15.8329   20.5083 H   0  0  0  0  0  0
  -26.2209  -15.6336   20.0245 H   0  0  0  0  0  0
  -26.7298  -32.5236   23.0950 H   0  0  0  0  0  0
  -25.0077  -33.9569   25.0277 H   0  0  0  0  0  0
  -22.7628  -31.2832   21.3697 H   0  0  0  0  0  0
  -23.3759  -35.9571   23.3286 H   0  0  0  0  0  0
  -24.3579  -36.8899   22.2063 H   0  0  0  0  0  0
  -23.7247  -37.6431   23.6697 H   0  0  0  0  0  0
  -26.1793  -31.4372   20.6131 H   0  0  0  0  0  0
  -26.8859  -30.7420   22.0343 H   0  0  0  0  0  0
  -28.1387  -28.7351   21.2436 H   0  0  0  0  0  0
  -25.8906  -25.8036   19.0139 H   0  0  0  0  0  0
  -23.9814  -27.2839   18.9809 H   0  0  0  0  0  0
  -23.8298  -30.5518   19.3939 H   0  0  0  0  0  0
  -22.7990  -29.2267   19.8379 H   0  0  0  0  0  0
  -25.1322  -36.1824   25.0800 H   0  0  0  0  0  0
  -21.0024  -28.3334   24.1340 H   0  0  0  0  0  0
  -20.5696  -26.2348   23.3626 H   0  0  0  0  0  0
  -21.6661  -26.7432   22.1198 H   0  0  0  0  0  0
  -19.6928  -25.6284   21.1268 H   0  0  0  0  0  0
  -19.6713  -27.3175   20.6736 H   0  0  0  0  0  0
  -17.4221  -26.6686   21.4031 H   0  0  0  0  0  0
  -18.0347  -26.0094   22.9031 H   0  0  0  0  0  0
  -19.7960  -30.7316   24.2207 H   0  0  0  0  0  0
  -17.5034  -31.6275   24.5171 H   0  0  0  0  0  0
  -15.5372  -30.2983   23.7687 H   0  0  0  0  0  0
  -15.8695  -28.0828   22.7078 H   0  0  0  0  0  0
  -24.5881  -30.7113   25.7705 H   0  0  0  0  0  0
  -24.8892  -32.2955   26.4741 H   0  0  0  0  0  0
  -25.7967  -30.8977   27.0210 H   0  0  0  0  0  0
  -26.3028  -29.6650   24.1327 H   0  0  0  0  0  0
  -27.3968  -29.7252   25.4932 H   0  0  0  0  0  0
  -27.8958  -30.4149   23.9687 H   0  0  0  0  0  0
  -27.2621  -33.3661   26.1992 H   0  0  0  0  0  0
  -28.3894  -32.6866   25.0352 H   0  0  0  0  0  0
  -28.0669  -31.8517   26.5474 H   0  0  0  0  0  0
  -28.2577  -38.0090   24.7510 H   0  0  0  0  0  0
  -28.1083  -36.2617   24.6287 H   0  0  0  0  0  0
  -27.2290  -37.1420   25.8866 H   0  0  0  0  0  0
  -20.9489  -29.8756   21.6749 H   0  0  0  0  0  0
  -26.0140  -38.2793   24.1419 H   0  0  0  0  0  0
  -26.6794  -19.1089   21.6379 H   0  0  0  0  0  0
  -26.9257  -21.5344   21.2570 H   0  0  0  0  0  0
  -30.8460  -20.7951   19.6176 H   0  0  0  0  0  0
  -31.5836  -17.8156   20.5744 H   0  0  0  0  0  0
  -30.9017  -17.6349   18.9706 H   0  0  0  0  0  0
  -27.8394  -16.4709   20.6315 H   0  0  0  0  0  0
  -28.8393  -15.6868   22.9040 H   0  0  0  0  0  0
  -27.7313  -17.0377   23.0472 H   0  0  0  0  0  0
  -29.4689  -17.3011   23.1050 H   0  0  0  0  0  0
  -29.7299  -23.2983   19.3723 H   0  0  0  0  0  0
  -29.7731  -23.4052   21.0849 H   0  0  0  0  0  0
  -27.3090  -24.3184   21.0499 H   0  0  0  0  0  0
  -27.3805  -24.2832   19.3249 H   0  0  0  0  0  0
  1 25  1  0  0  0
  1 30  2  0  0  0
  1 82  1  0  0  0
  2  3  1  0  0  0
  2 25  1  0  0  0
  2 83  1  0  0  0
  2 84  1  0  0  0
  3  4  1  0  0  0
  3 85  1  0  0  0
  3 86  1  0  0  0
  4  5  1  0  0  0
  4 87  1  0  0  0
  4 88  1  0  0  0
  5  6  1  0  0  0
  5 26  1  0  0  0
  5 89  1  0  0  0
  6 25  1  0  0  0
  6 90  1  0  0  0
  6 91  1  0  0  0
  7  8  2  0  0  0
  7 26  1  0  0  0
  7 29  1  0  0  0
  8  9  1  0  0  0
  8 22  1  0  0  0
  9 10  1  0  0  0
  9 27  2  0  0  0
 10 11  2  0  0  0
 10 15  1  0  0  0
 11 12  1  0  0  0
 11 92  1  0  0  0
 12 13  2  0  0  0
 12 93  1  0  0  0
 13 14  1  0  0  0
 13 31  1  0  0  0
 14 15  2  0  0  0
 14 94  1  0  0  0
 15 95  1  0  0  0
 16 17  2  0  0  0
 16 21  1  0  0  0
 16 31  1  0  0  0
 17 18  1  0  0  0
 17 96  1  0  0  0
 18 19  2  0  0  0
 18 97  1  0  0  0
 19 20  1  0  0  0
 19 24  1  0  0  0
 20 21  2  0  0  0
 20 98  1  0  0  0
 21 23  1  0  0  0
 22 28  1  0  0  0
 22 32  2  0  0  0
 26 27  1  0  0  0
 28 99  1  0  0  0
 28100  1  0  0  0
 29101  1  0  0  0
 29102  1  0  0  0
 33 34  1  0  0  0
 33 66  1  0  0  0
 33 70  2  0  0  0
 34 36  1  0  0  0
 34 59  1  0  0  0
 34103  1  0  0  0
 35 44  2  0  0  0
 35 45  1  0  0  0
 35 68  1  0  0  0
 36 56  1  0  0  0
 36104  1  0  0  0
 37 39  1  0  0  0
 37 47  1  0  0  0
 37 66  1  0  0  0
 37105  1  0  0  0
 38 43  2  0  0  0
 38 46  1  0  0  0
 38 47  1  0  0  0
 39 64  1  0  0  0
 39 67  2  0  0  0
 40 52  1  0  0  0
 40 53  2  0  0  0
 40 58  1  0  0  0
 41106  1  0  0  0
 41107  1  0  0  0
 41108  1  0  0  0
 41 48  1  0  0  0
 42 43  1  0  0  0
 42 66  1  0  0  0
 42109  1  0  0  0
 42110  1  0  0  0
 43 44  1  0  0  0
 44111  1  0  0  0
 45 46  2  0  0  0
 45112  1  0  0  0
 46113  1  0  0  0
 47114  1  0  0  0
 47115  1  0  0  0
 48 56  1  0  0  0
 48 65  1  0  0  0
 48116  1  0  0  0
 49 50  1  0  0  0
 49 53  1  0  0  0
 49 64  1  0  0  0
 49117  1  0  0  0
 50 51  1  0  0  0
 50118  1  0  0  0
 50119  1  0  0  0
 51 52  1  0  0  0
 51120  1  0  0  0
 51121  1  0  0  0
 52122  1  0  0  0
 52123  1  0  0  0
 53 54  1  0  0  0
 54 55  2  0  0  0
 54124  1  0  0  0
 55 57  1  0  0  0
 55125  1  0  0  0
 56 69  2  0  0  0
 57 58  2  0  0  0
 57126  1  0  0  0
 58127  1  0  0  0
 59 60  1  0  0  0
 59 61  1  0  0  0
 59 62  1  0  0  0
 60128  1  0  0  0
 60129  1  0  0  0
 60130  1  0  0  0
 61131  1  0  0  0
 61132  1  0  0  0
 61133  1  0  0  0
 62134  1  0  0  0
 62135  1  0  0  0
 62136  1  0  0  0
 63 65  1  0  0  0
 63137  1  0  0  0
 63138  1  0  0  0
 63139  1  0  0  0
 64140  1  0  0  0
 65141  1  0  0  0
 68 81  1  0  0  0
 71 72  2  0  0  0
 71 74  1  0  0  0
 71142  1  0  0  0
 72 76  1  0  0  0
 72143  1  0  0  0
 73 75  1  0  0  0
 73 76  2  0  0  0
 73144  1  0  0  0
 74 75  2  0  0  0
 74 78  1  0  0  0
 75 77  1  0  0  0
 76 80  1  0  0  0
 77 82  1  0  0  0
 77145  1  0  0  0
 77146  1  0  0  0
 78 79  1  0  0  0
 78 82  1  0  0  0
 78147  1  0  0  0
 79148  1  0  0  0
 79149  1  0  0  0
 79150  1  0  0  0
 80 81  1  0  0  0
 80151  1  0  0  0
 80152  1  0  0  0
 81153  1  0  0  0
 81154  1  0  0  0
M  ISO  4   1 100  68 101  81 101  82 100
M  END
> <chiral flag>
0

> <version>
0

> <s_m_source_file>
/data/baiqing/PycharmProjects/Reinvent-master-3.2/result/LINK_invent/BTK/process_docking_weight1_custom_sum_contain_oxygen_bond_distance_aromatic_linkinvent_7_9_3/rearranged_h_0140.sdf

> <i_m_source_file_index>
88

> <r_mmod_Potential_Energy-OPLS-2005>
798.043151855469

> <r_mmod_Stretch_Energy-OPLS-2005>
317.626739501953

> <r_mmod_Bend_Energy-OPLS-2005>
347.471649169922

> <r_mmod_Torsional_Energy-OPLS-2005>
247.026382446289

> <r_mmod_Improper_Torsional_Energy-OPLS-2005>
9.1710844039917

> <r_mmod_Van_der_Waal_Energy-OPLS-2005>
120.838798522949

> <r_mmod_Electrostatic_Energy-OPLS-2005>
-306.927551269531

> <r_mmod_Solvation_Energy-OPLS-2005>
-199.395324707031

> <b_mmod_Minimization_Converged-OPLS-2005>
0

> <r_mmod_RMS_Derivative-OPLS-2005>
1.03323662281036

$$$$
88
                    3D
 Structure written by MMmdl.
162171  0  0  1  0            999 V2000
  -30.6686  -14.7062   20.4788 C   0  0  0  0  0  0
  -30.4284  -12.4394   19.4507 C   0  0  0  0  0  0
  -29.5009  -12.4974   18.2203 C   0  0  0  0  0  0
  -28.0301  -12.3267   18.6451 C   0  0  0  0  0  0
  -27.6453  -13.2311   19.8469 C   0  0  2  0  0  0
  -28.6968  -13.1660   20.9744 C   0  0  0  0  0  0
  -25.2529  -13.8191   20.5686 C   0  0  0  0  0  0
  -24.1814  -13.0438   20.9194 C   0  0  0  0  0  0
  -24.6411  -11.6915   20.8759 C   0  0  0  0  0  0
  -23.9082  -10.4293   21.0421 C   0  0  0  0  0  0
  -24.3627   -9.4206   21.9197 C   0  0  0  0  0  0
  -23.6291   -8.2247   22.0761 C   0  0  0  0  0  0
  -22.4274   -8.0292   21.3551 C   0  0  0  0  0  0
  -21.9923   -9.0270   20.4659 C   0  0  0  0  0  0
  -22.7257  -10.2141   20.3070 C   0  0  0  0  0  0
  -21.6861   -6.0741   22.5272 C   0  0  0  0  0  0
  -21.4019   -6.5635   23.8218 C   0  0  0  0  0  0
  -21.3659   -5.6784   24.9173 C   0  0  0  0  0  0
  -21.6037   -4.3050   24.7226 C   0  0  0  0  0  0
  -21.8819   -3.8142   23.4352 C   0  0  0  0  0  0
  -21.9190   -4.6957   22.3403 C   0  0  0  0  0  0
  -22.7844  -13.5236   21.1826 C   0  0  0  0  0  0
  -22.1658   -4.2145   21.0983 F   0  0  0  0  0  0
  -21.5629   -3.4534   25.7742 F   0  0  0  0  0  0
  -29.9989  -13.5080   20.3799 N   0  0  0  0  0  0
  -26.2965  -12.9397   20.3285 N   0  0  0  0  0  0
  -25.9353  -11.6543   20.5777 N   0  0  0  0  0  0
  -22.0483  -12.8248   22.0389 N   0  0  0  0  0  0
  -25.4186  -15.1920   20.4074 N   0  0  0  0  0  0
  -31.8627  -14.7782   20.1862 O   0  0  0  0  0  0
  -21.6638   -6.8881   21.4240 O   0  0  0  0  0  0
  -22.3545  -14.5548   20.6665 O   0  0  0  0  0  0
  -24.6336  -31.8610   23.2112 C   0  0  0  0  0  0
  -25.9195  -32.4757   23.8396 C   0  0  1  0  0  0
  -27.1927  -27.2268   20.0945 C   0  0  0  0  0  0
  -25.6017  -33.8565   24.2283 N   0  0  0  0  0  0
  -23.4261  -30.4973   21.5561 C   0  0  2  0  0  0
  -24.8700  -28.9660   20.1190 C   0  0  0  0  0  0
  -22.7495  -29.4659   22.4926 C   0  0  0  0  0  0
  -18.0288  -28.1391   22.8476 C   0  0  0  0  0  0
  -24.1504  -36.7261   23.2629 C   0  0  0  0  0  0
  -25.9850  -30.7560   21.4118 C   0  0  0  0  0  0
  -26.0485  -29.3805   20.7464 C   0  0  0  0  0  0
  -27.2041  -28.5184   20.7477 C   0  0  0  0  0  0
  -25.9908  -26.9613   19.3812 C   0  0  0  0  0  0
  -24.8482  -27.7587   19.4344 C   0  0  0  0  0  0
  -23.6467  -29.8558   20.1667 C   0  0  0  0  0  0
  -25.4129  -36.3044   24.0300 C   0  0  1  0  0  0
  -20.5890  -28.3719   23.1246 C   0  0  2  0  0  0
  -20.6778  -26.9435   22.5392 C   0  0  0  0  0  0
  -19.5753  -26.6389   21.5197 C   0  0  0  0  0  0
  -18.1937  -26.7929   22.1620 C   0  0  0  0  0  0
  -19.1541  -28.8872   23.2854 C   0  0  0  0  0  0
  -18.9465  -30.1472   23.8872 C   0  0  0  0  0  0
  -17.6466  -30.6600   24.0559 C   0  0  0  0  0  0
  -25.9082  -34.9427   23.5073 C   0  0  0  0  0  0
  -16.5356  -29.9095   23.6334 C   0  0  0  0  0  0
  -16.7271  -28.6510   23.0348 C   0  0  0  0  0  0
  -26.4552  -31.6573   25.0774 C   0  0  0  0  0  0
  -25.3759  -31.3764   26.1473 C   0  0  0  0  0  0
  -27.0398  -30.2956   24.6337 C   0  0  0  0  0  0
  -27.6075  -32.4332   25.7558 C   0  0  0  0  0  0
  -27.5573  -37.1791   24.8462 C   0  0  0  0  0  0
  -21.4209  -29.3078   22.3647 N   0  0  0  0  0  0
  -26.4288  -37.3753   23.9401 N   0  0  0  0  0  0
  -24.6992  -31.0546   22.1132 N   0  0  0  0  0  0
  -23.4192  -28.8158   23.2982 O   0  0  0  0  0  0
  -28.2700  -26.2717   20.1326 O   0  0  0  0  0  0
  -26.5626  -34.8902   22.4624 O   0  0  0  0  0  0
  -23.5486  -32.1488   23.7381 O   0  0  0  0  0  0
  -28.9362  -23.7225   20.4895 C   0  0  0  0  0  0
  -27.2945  -22.0926   19.7101 C   0  0  0  0  0  0
  -28.5789  -22.3086   20.3095 C   0  0  0  0  0  0
  -26.6804  -23.1582   19.0041 C   0  0  0  0  0  0
  -28.1271  -24.8264   19.9795 C   0  0  0  0  0  0
  -24.1304  -23.4634   18.5213 C   0  0  0  0  0  0
  -24.3890  -22.1252   17.8703 C   0  0  0  0  0  0
  -25.5189  -23.1255   18.0268 C   0  0  0  0  0  0
  -26.4937  -20.8113   19.8841 C   0  0  0  0  0  0
  -30.3673  -18.6181   20.4409 C   0  0  0  0  0  0
  -29.1866  -19.6889   20.6622 C   0  0  0  0  0  0
  -30.4296  -17.2118   21.2472 C   0  0  0  0  0  0
  -27.1433  -24.4045   19.1749 N   0  3  0  0  0  0
  -29.4575  -21.1936   20.6726 N   0  0  0  0  0  0
  -29.9450  -15.8564   20.7335 N   0  0  0  0  0  0
  -31.4681  -12.5504   19.1399 H   0  0  0  0  0  0
  -30.3603  -11.4652   19.9361 H   0  0  0  0  0  0
  -29.7762  -11.7156   17.5108 H   0  0  0  0  0  0
  -29.6255  -13.4467   17.6968 H   0  0  0  0  0  0
  -27.8895  -11.2800   18.9132 H   0  0  0  0  0  0
  -27.3660  -12.5154   17.7999 H   0  0  0  0  0  0
  -27.6415  -14.2526   19.4682 H   0  0  0  0  0  0
  -28.7273  -12.1719   21.4216 H   0  0  0  0  0  0
  -28.4356  -13.8534   21.7794 H   0  0  0  0  0  0
  -25.2781   -9.5662   22.4772 H   0  0  0  0  0  0
  -23.9986   -7.4641   22.7506 H   0  0  0  0  0  0
  -21.0850   -8.8819   19.8982 H   0  0  0  0  0  0
  -22.3743  -10.9690   19.6180 H   0  0  0  0  0  0
  -21.2024   -7.6148   23.9719 H   0  0  0  0  0  0
  -21.1472   -6.0516   25.9074 H   0  0  0  0  0  0
  -22.0597   -2.7605   23.2854 H   0  0  0  0  0  0
  -22.4104  -11.9919   22.4784 H   0  0  0  0  0  0
  -21.1109  -13.1298   22.2587 H   0  0  0  0  0  0
  -24.6449  -15.8383   20.5202 H   0  0  0  0  0  0
  -26.2571  -15.6368   20.0540 H   0  0  0  0  0  0
  -26.7257  -32.5404   23.1128 H   0  0  0  0  0  0
  -25.0178  -33.9730   25.0432 H   0  0  0  0  0  0
  -22.7209  -31.3206   21.4205 H   0  0  0  0  0  0
  -23.3760  -35.9603   23.3290 H   0  0  0  0  0  0
  -24.3591  -36.8894   22.2047 H   0  0  0  0  0  0
  -23.7278  -37.6462   23.6667 H   0  0  0  0  0  0
  -26.1436  -31.5247   20.6536 H   0  0  0  0  0  0
  -26.8546  -30.7919   22.0547 H   0  0  0  0  0  0
  -28.0919  -28.8284   21.2813 H   0  0  0  0  0  0
  -25.8089  -26.1494   18.7131 H   0  0  0  0  0  0
  -23.9627  -27.4546   18.8949 H   0  0  0  0  0  0
  -23.7801  -30.6436   19.4243 H   0  0  0  0  0  0
  -22.7629  -29.3000   19.8463 H   0  0  0  0  0  0
  -25.1320  -36.1866   25.0789 H   0  0  0  0  0  0
  -20.9973  -28.3309   24.1369 H   0  0  0  0  0  0
  -20.5682  -26.2335   23.3602 H   0  0  0  0  0  0
  -21.6649  -26.7474   22.1185 H   0  0  0  0  0  0
  -19.6937  -25.6297   21.1235 H   0  0  0  0  0  0
  -19.6680  -27.3189   20.6714 H   0  0  0  0  0  0
  -17.4197  -26.6646   21.4036 H   0  0  0  0  0  0
  -18.0375  -26.0074   22.9022 H   0  0  0  0  0  0
  -19.7945  -30.7286   24.2229 H   0  0  0  0  0  0
  -17.5027  -31.6276   24.5170 H   0  0  0  0  0  0
  -15.5359  -30.2997   23.7679 H   0  0  0  0  0  0
  -15.8656  -28.0835   22.7072 H   0  0  0  0  0  0
  -24.5921  -30.7129   25.7814 H   0  0  0  0  0  0
  -24.8982  -32.2957   26.4868 H   0  0  0  0  0  0
  -25.8061  -30.8961   27.0267 H   0  0  0  0  0  0
  -26.3022  -29.6684   24.1315 H   0  0  0  0  0  0
  -27.3965  -29.7245   25.4922 H   0  0  0  0  0  0
  -27.8961  -30.4157   23.9693 H   0  0  0  0  0  0
  -27.2636  -33.3615   26.2134 H   0  0  0  0  0  0
  -28.3894  -32.6925   25.0407 H   0  0  0  0  0  0
  -28.0735  -31.8471   26.5491 H   0  0  0  0  0  0
  -28.2576  -38.0100   24.7491 H   0  0  0  0  0  0
  -28.1077  -36.2618   24.6301 H   0  0  0  0  0  0
  -27.2279  -37.1453   25.8864 H   0  0  0  0  0  0
  -20.9391  -29.8828   21.6875 H   0  0  0  0  0  0
  -26.0140  -38.2812   24.1421 H   0  0  0  0  0  0
  -29.8342  -23.9739   21.0303 H   0  0  0  0  0  0
  -23.9532  -23.4557   19.5955 H   0  0  0  0  0  0
  -23.5382  -24.1811   17.9583 H   0  0  0  0  0  0
  -23.9921  -21.9966   16.8651 H   0  0  0  0  0  0
  -24.2803  -21.2522   18.4994 H   0  0  0  0  0  0
  -25.8406  -23.5796   17.0911 H   0  0  0  0  0  0
  -25.4700  -21.0658   20.1444 H   0  0  0  0  0  0
  -26.7804  -20.2389   20.7599 H   0  0  0  0  0  0
  -26.5180  -20.1792   18.9948 H   0  0  0  0  0  0
  -31.2767  -19.1481   20.7319 H   0  0  0  0  0  0
  -30.5106  -18.4249   19.3759 H   0  0  0  0  0  0
  -28.6899  -19.4440   21.6015 H   0  0  0  0  0  0
  -28.4939  -19.4468   19.8631 H   0  0  0  0  0  0
  -29.9542  -17.3726   22.2160 H   0  0  0  0  0  0
  -31.4818  -17.0685   21.4969 H   0  0  0  0  0  0
  -26.6369  -25.1385   18.6859 H   0  0  0  0  0  0
  -30.3686  -21.4610   21.0323 H   0  0  0  0  0  0
  -28.9506  -15.7027   20.8033 H   0  0  0  0  0  0
  1 25  1  0  0  0
  1 30  2  0  0  0
  1 85  1  0  0  0
  2  3  1  0  0  0
  2 25  1  0  0  0
  2 86  1  0  0  0
  2 87  1  0  0  0
  3  4  1  0  0  0
  3 88  1  0  0  0
  3 89  1  0  0  0
  4  5  1  0  0  0
  4 90  1  0  0  0
  4 91  1  0  0  0
  5  6  1  0  0  0
  5 26  1  0  0  0
  5 92  1  0  0  0
  6 25  1  0  0  0
  6 93  1  0  0  0
  6 94  1  0  0  0
  7  8  2  0  0  0
  7 26  1  0  0  0
  7 29  1  0  0  0
  8  9  1  0  0  0
  8 22  1  0  0  0
  9 10  1  0  0  0
  9 27  2  0  0  0
 10 11  2  0  0  0
 10 15  1  0  0  0
 11 12  1  0  0  0
 11 95  1  0  0  0
 12 13  2  0  0  0
 12 96  1  0  0  0
 13 14  1  0  0  0
 13 31  1  0  0  0
 14 15  2  0  0  0
 14 97  1  0  0  0
 15 98  1  0  0  0
 16 17  2  0  0  0
 16 21  1  0  0  0
 16 31  1  0  0  0
 17 18  1  0  0  0
 17 99  1  0  0  0
 18 19  2  0  0  0
 18100  1  0  0  0
 19 20  1  0  0  0
 19 24  1  0  0  0
 20 21  2  0  0  0
 20101  1  0  0  0
 21 23  1  0  0  0
 22 28  1  0  0  0
 22 32  2  0  0  0
 26 27  1  0  0  0
 28102  1  0  0  0
 28103  1  0  0  0
 29104  1  0  0  0
 29105  1  0  0  0
 33 34  1  0  0  0
 33 66  1  0  0  0
 33 70  2  0  0  0
 34 36  1  0  0  0
 34 59  1  0  0  0
 34106  1  0  0  0
 35 44  2  0  0  0
 35 45  1  0  0  0
 35 68  1  0  0  0
 36 56  1  0  0  0
 36107  1  0  0  0
 37 39  1  0  0  0
 37 47  1  0  0  0
 37 66  1  0  0  0
 37108  1  0  0  0
 38 43  2  0  0  0
 38 46  1  0  0  0
 38 47  1  0  0  0
 39 64  1  0  0  0
 39 67  2  0  0  0
 40 52  1  0  0  0
 40 53  2  0  0  0
 40 58  1  0  0  0
 41109  1  0  0  0
 41110  1  0  0  0
 41111  1  0  0  0
 41 48  1  0  0  0
 42 43  1  0  0  0
 42 66  1  0  0  0
 42112  1  0  0  0
 42113  1  0  0  0
 43 44  1  0  0  0
 44114  1  0  0  0
 45 46  2  0  0  0
 45115  1  0  0  0
 46116  1  0  0  0
 47117  1  0  0  0
 47118  1  0  0  0
 48 56  1  0  0  0
 48 65  1  0  0  0
 48119  1  0  0  0
 49 50  1  0  0  0
 49 53  1  0  0  0
 49 64  1  0  0  0
 49120  1  0  0  0
 50 51  1  0  0  0
 50121  1  0  0  0
 50122  1  0  0  0
 51 52  1  0  0  0
 51123  1  0  0  0
 51124  1  0  0  0
 52125  1  0  0  0
 52126  1  0  0  0
 53 54  1  0  0  0
 54 55  2  0  0  0
 54127  1  0  0  0
 55 57  1  0  0  0
 55128  1  0  0  0
 56 69  2  0  0  0
 57 58  2  0  0  0
 57129  1  0  0  0
 58130  1  0  0  0
 59 60  1  0  0  0
 59 61  1  0  0  0
 59 62  1  0  0  0
 60131  1  0  0  0
 60132  1  0  0  0
 60133  1  0  0  0
 61134  1  0  0  0
 61135  1  0  0  0
 61136  1  0  0  0
 62137  1  0  0  0
 62138  1  0  0  0
 62139  1  0  0  0
 63 65  1  0  0  0
 63140  1  0  0  0
 63141  1  0  0  0
 63142  1  0  0  0
 64143  1  0  0  0
 65144  1  0  0  0
 68 75  1  0  0  0
 71 73  2  0  0  0
 71 75  1  0  0  0
 71145  1  0  0  0
 72 73  1  0  0  0
 72 74  2  0  0  0
 72 79  1  0  0  0
 73 84  1  0  0  0
 74 83  1  0  0  0
 74 78  1  0  0  0
 75 83  2  0  0  0
 76 77  1  0  0  0
 76 78  1  0  0  0
 76146  1  0  0  0
 76147  1  0  0  0
 77 78  1  0  0  0
 77148  1  0  0  0
 77149  1  0  0  0
 78150  1  0  0  0
 79151  1  0  0  0
 79152  1  0  0  0
 79153  1  0  0  0
 80 81  1  0  0  0
 80 82  1  0  0  0
 80154  1  0  0  0
 80155  1  0  0  0
 81 84  1  0  0  0
 81156  1  0  0  0
 81157  1  0  0  0
 82 85  1  0  0  0
 82158  1  0  0  0
 82159  1  0  0  0
 83160  1  0  0  0
 84161  1  0  0  0
 85162  1  0  0  0
M  CHG  1  83   1
M  ISO  4   1 100  68 101  75 101  85 100
M  END
> <chiral flag>
0

> <version>
0

> <s_m_source_file>
/data/baiqing/PycharmProjects/Reinvent-master-3.2/result/LINK_invent/BTK/process_docking_weight1_custom_sum_contain_oxygen_bond_distance_aromatic_linkinvent_7_9_3/rearranged_h_0140.sdf

> <i_m_source_file_index>
89

> <r_mmod_Potential_Energy-OPLS-2005>
246.412628173828

> <r_mmod_Stretch_Energy-OPLS-2005>
142.121871948242

> <r_mmod_Bend_Energy-OPLS-2005>
241.858581542969

> <r_mmod_Torsional_Energy-OPLS-2005>
279.942596435547

> <r_mmod_Improper_Torsional_Energy-OPLS-2005>
4.83591079711914

> <r_mmod_Van_der_Waal_Energy-OPLS-2005>
177.648056030273

> <r_mmod_Electrostatic_Energy-OPLS-2005>
-279.89892578125

> <r_mmod_Solvation_Energy-OPLS-2005>
-414.090789794922

> <b_mmod_Minimization_Converged-OPLS-2005>
0

> <r_mmod_RMS_Derivative-OPLS-2005>
3.2849326133728

$$$$
89
                    3D
 Structure written by MMmdl.
165174  0  0  1  0            999 V2000
  -30.7213  -14.4487   20.6122 C   0  0  0  0  0  0
  -30.4216  -12.3080   19.4170 C   0  0  0  0  0  0
  -29.4917  -12.5131   18.2044 C   0  0  0  0  0  0
  -28.0140  -12.3713   18.6180 C   0  0  0  0  0  0
  -27.6629  -13.2073   19.8774 C   0  0  2  0  0  0
  -28.7033  -12.9800   20.9970 C   0  0  0  0  0  0
  -25.2592  -13.8164   20.5680 C   0  0  0  0  0  0
  -24.1842  -13.0441   20.9170 C   0  0  0  0  0  0
  -24.6395  -11.6908   20.8729 C   0  0  0  0  0  0
  -23.9063  -10.4294   21.0402 C   0  0  0  0  0  0
  -24.3615   -9.4210   21.9179 C   0  0  0  0  0  0
  -23.6293   -8.2245   22.0752 C   0  0  0  0  0  0
  -22.4274   -8.0280   21.3544 C   0  0  0  0  0  0
  -21.9909   -9.0253   20.4645 C   0  0  0  0  0  0
  -22.7235  -10.2134   20.3052 C   0  0  0  0  0  0
  -21.6851   -6.0737   22.5280 C   0  0  0  0  0  0
  -21.4014   -6.5641   23.8212 C   0  0  0  0  0  0
  -21.3660   -5.6795   24.9175 C   0  0  0  0  0  0
  -21.6044   -4.3057   24.7224 C   0  0  0  0  0  0
  -21.8820   -3.8149   23.4346 C   0  0  0  0  0  0
  -21.9193   -4.6966   22.3402 C   0  0  0  0  0  0
  -22.7866  -13.5238   21.1838 C   0  0  0  0  0  0
  -22.1662   -4.2152   21.0978 F   0  0  0  0  0  0
  -21.5630   -3.4539   25.7738 F   0  0  0  0  0  0
  -30.0364  -13.2844   20.4487 N   0  0  0  0  0  0
  -26.3032  -12.9336   20.3378 N   0  0  0  0  0  0
  -25.9323  -11.6494   20.5766 N   0  0  0  0  0  0
  -22.0509  -12.8228   22.0394 N   0  0  0  0  0  0
  -25.4326  -15.1881   20.4093 N   0  0  0  0  0  0
  -31.8215  -14.6570   20.0937 O   0  0  0  0  0  0
  -21.6638   -6.8878   21.4242 O   0  0  0  0  0  0
  -22.3550  -14.5546   20.6689 O   0  0  0  0  0  0
  -24.6148  -31.8679   23.2108 C   0  0  0  0  0  0
  -25.9042  -32.4824   23.8404 C   0  0  1  0  0  0
  -27.2335  -27.4289   20.0995 C   0  0  0  0  0  0
  -25.5898  -33.8623   24.2332 N   0  0  0  0  0  0
  -23.4037  -30.4905   21.5511 C   0  0  2  0  0  0
  -24.8507  -28.9554   20.1159 C   0  0  0  0  0  0
  -22.7416  -29.4653   22.4997 C   0  0  0  0  0  0
  -18.0266  -28.1374   22.8489 C   0  0  0  0  0  0
  -24.1486  -36.7318   23.2635 C   0  0  0  0  0  0
  -25.9327  -30.8293   21.3671 C   0  0  0  0  0  0
  -26.0099  -29.4620   20.7177 C   0  0  0  0  0  0
  -27.2040  -28.7039   20.7120 C   0  0  0  0  0  0
  -26.0596  -26.9444   19.4799 C   0  0  0  0  0  0
  -24.8686  -27.6940   19.4967 C   0  0  0  0  0  0
  -23.6134  -29.8236   20.1654 C   0  0  0  0  0  0
  -25.4106  -36.3117   24.0337 C   0  0  1  0  0  0
  -20.5857  -28.3663   23.1316 C   0  0  2  0  0  0
  -20.6762  -26.9402   22.5415 C   0  0  0  0  0  0
  -19.5741  -26.6383   21.5212 C   0  0  0  0  0  0
  -18.1916  -26.7921   22.1619 C   0  0  0  0  0  0
  -19.1517  -28.8834   23.2898 C   0  0  0  0  0  0
  -18.9446  -30.1438   23.8914 C   0  0  0  0  0  0
  -17.6450  -30.6587   24.0564 C   0  0  0  0  0  0
  -25.9035  -34.9481   23.5134 C   0  0  0  0  0  0
  -16.5341  -29.9087   23.6322 C   0  0  0  0  0  0
  -16.7257  -28.6500   23.0351 C   0  0  0  0  0  0
  -26.4469  -31.6603   25.0734 C   0  0  0  0  0  0
  -25.3737  -31.3703   26.1486 C   0  0  0  0  0  0
  -27.0299  -30.3049   24.6103 C   0  0  0  0  0  0
  -27.6055  -32.4322   25.7486 C   0  0  0  0  0  0
  -27.5587  -37.1803   24.8456 C   0  0  0  0  0  0
  -21.4143  -29.3035   22.3734 N   0  0  0  0  0  0
  -26.4294  -37.3800   23.9410 N   0  0  0  0  0  0
  -24.6686  -31.0774   22.1013 N   0  0  0  0  0  0
  -23.4182  -28.8197   23.3047 O   0  0  0  0  0  0
  -28.3986  -26.6873   20.0730 O   0  0  0  0  0  0
  -26.5600  -34.8934   22.4699 O   0  0  0  0  0  0
  -23.5339  -32.1438   23.7494 O   0  0  0  0  0  0
  -27.5405  -24.7537   21.3215 C   0  0  0  0  0  0
  -28.3565  -22.5421   20.6652 C   0  0  0  0  0  0
  -27.5250  -23.3544   21.4894 C   0  0  0  0  0  0
  -29.1948  -23.2288   19.7382 C   0  0  0  0  0  0
  -28.3598  -25.3275   20.3358 C   0  0  0  0  0  0
  -27.6474  -20.3217   19.5042 C   0  0  0  0  0  0
  -28.4513  -19.0326   19.2716 C   0  0  0  0  0  0
  -29.5273  -20.1708   21.0874 C   0  0  0  0  0  0
  -28.2634  -20.9930   20.7461 C   0  0  1  0  0  0
  -29.1861  -18.7464   20.5876 C   0  0  2  0  0  0
  -26.5896  -22.7756   22.5393 C   0  0  0  0  0  0
  -30.1758  -22.5297   18.8112 C   0  0  0  0  0  0
  -30.3829  -17.7707   20.4223 C   0  0  0  0  0  0
  -30.6033  -16.7642   21.5841 C   0  0  0  0  0  0
  -29.1960  -24.5765   19.5922 N   0  0  0  0  0  0
  -30.0886  -15.4117   21.3076 N   0  0  0  0  0  0
  -31.4655  -12.4081   19.1138 H   0  0  0  0  0  0
  -30.3233  -11.2940   19.8077 H   0  0  0  0  0  0
  -29.7300  -11.7935   17.4199 H   0  0  0  0  0  0
  -29.6595  -13.5020   17.7744 H   0  0  0  0  0  0
  -27.8241  -11.3147   18.8099 H   0  0  0  0  0  0
  -27.3628  -12.6501   17.7890 H   0  0  0  0  0  0
  -27.7114  -14.2568   19.5863 H   0  0  0  0  0  0
  -28.6779  -11.9420   21.3321 H   0  0  0  0  0  0
  -28.4593  -13.5727   21.8793 H   0  0  0  0  0  0
  -25.2762   -9.5687   22.4749 H   0  0  0  0  0  0
  -24.0002   -7.4640   22.7471 H   0  0  0  0  0  0
  -21.0841   -8.8771   19.8949 H   0  0  0  0  0  0
  -22.3693  -10.9673   19.6160 H   0  0  0  0  0  0
  -21.2004   -7.6150   23.9717 H   0  0  0  0  0  0
  -21.1483   -6.0523   25.9078 H   0  0  0  0  0  0
  -22.0598   -2.7612   23.2845 H   0  0  0  0  0  0
  -22.4125  -11.9883   22.4775 H   0  0  0  0  0  0
  -21.1129  -13.1256   22.2607 H   0  0  0  0  0  0
  -24.6692  -15.8464   20.5172 H   0  0  0  0  0  0
  -26.2910  -15.6252   20.0981 H   0  0  0  0  0  0
  -26.7114  -32.5539   23.1171 H   0  0  0  0  0  0
  -25.0068  -33.9788   25.0489 H   0  0  0  0  0  0
  -22.6926  -31.3077   21.4117 H   0  0  0  0  0  0
  -23.3753  -35.9647   23.3301 H   0  0  0  0  0  0
  -24.3582  -36.8929   22.2048 H   0  0  0  0  0  0
  -23.7234  -37.6521   23.6652 H   0  0  0  0  0  0
  -26.0463  -31.5933   20.5963 H   0  0  0  0  0  0
  -26.8204  -30.8845   21.9853 H   0  0  0  0  0  0
  -28.1010  -29.0900   21.1761 H   0  0  0  0  0  0
  -26.0621  -25.9822   18.9872 H   0  0  0  0  0  0
  -23.9788  -27.2995   19.0252 H   0  0  0  0  0  0
  -23.7240  -30.5990   19.4067 H   0  0  0  0  0  0
  -22.7364  -29.2440   19.8702 H   0  0  0  0  0  0
  -25.1277  -36.1989   25.0828 H   0  0  0  0  0  0
  -20.9937  -28.3235   24.1442 H   0  0  0  0  0  0
  -20.5670  -26.2275   23.3603 H   0  0  0  0  0  0
  -21.6633  -26.7457   22.1204 H   0  0  0  0  0  0
  -19.6913  -25.6298   21.1235 H   0  0  0  0  0  0
  -19.6682  -27.3203   20.6749 H   0  0  0  0  0  0
  -17.4187  -26.6663   21.4021 H   0  0  0  0  0  0
  -18.0316  -26.0061   22.9011 H   0  0  0  0  0  0
  -19.7926  -30.7237   24.2304 H   0  0  0  0  0  0
  -17.5012  -31.6272   24.5160 H   0  0  0  0  0  0
  -15.5343  -30.3000   23.7642 H   0  0  0  0  0  0
  -15.8651  -28.0829   22.7063 H   0  0  0  0  0  0
  -24.5904  -30.7061   25.7815 H   0  0  0  0  0  0
  -24.8935  -32.2855   26.4963 H   0  0  0  0  0  0
  -25.8087  -30.8847   27.0231 H   0  0  0  0  0  0
  -26.2841  -29.6810   24.1163 H   0  0  0  0  0  0
  -27.4078  -29.7286   25.4557 H   0  0  0  0  0  0
  -27.8674  -30.4367   23.9249 H   0  0  0  0  0  0
  -27.2689  -33.3619   26.2087 H   0  0  0  0  0  0
  -28.3847  -32.6883   25.0294 H   0  0  0  0  0  0
  -28.0746  -31.8430   26.5375 H   0  0  0  0  0  0
  -28.2586  -38.0121   24.7553 H   0  0  0  0  0  0
  -28.1105  -36.2659   24.6225 H   0  0  0  0  0  0
  -27.2313  -37.1386   25.8859 H   0  0  0  0  0  0
  -20.9309  -29.8766   21.6960 H   0  0  0  0  0  0
  -26.0189  -38.2877   24.1437 H   0  0  0  0  0  0
  -26.9046  -25.3872   21.9242 H   0  0  0  0  0  0
  -26.5945  -20.0989   19.6837 H   0  0  0  0  0  0
  -27.6806  -20.9552   18.6180 H   0  0  0  0  0  0
  -29.1754  -19.1989   18.4725 H   0  0  0  0  0  0
  -27.8164  -18.2016   18.9618 H   0  0  0  0  0  0
  -29.7592  -20.1957   22.1531 H   0  0  0  0  0  0
  -30.4030  -20.5444   20.5609 H   0  0  0  0  0  0
  -27.5854  -20.7290   21.5541 H   0  0  0  0  0  0
  -28.4581  -18.3029   21.2697 H   0  0  0  0  0  0
  -26.0478  -23.5588   23.0697 H   0  0  0  0  0  0
  -27.1494  -22.2042   23.2803 H   0  0  0  0  0  0
  -25.8466  -22.1246   22.0781 H   0  0  0  0  0  0
  -29.8413  -21.5457   18.4963 H   0  0  0  0  0  0
  -31.1418  -22.4207   19.3044 H   0  0  0  0  0  0
  -30.3340  -23.1100   17.9018 H   0  0  0  0  0  0
  -31.2939  -18.3563   20.2904 H   0  0  0  0  0  0
  -30.2795  -17.2149   19.4892 H   0  0  0  0  0  0
  -30.1550  -17.1380   22.5055 H   0  0  0  0  0  0
  -31.6721  -16.6901   21.7946 H   0  0  0  0  0  0
  -29.1877  -15.1703   21.6938 H   0  0  0  0  0  0
  1 25  1  0  0  0
  1 30  2  0  0  0
  1 86  1  0  0  0
  2  3  1  0  0  0
  2 25  1  0  0  0
  2 87  1  0  0  0
  2 88  1  0  0  0
  3  4  1  0  0  0
  3 89  1  0  0  0
  3 90  1  0  0  0
  4  5  1  0  0  0
  4 91  1  0  0  0
  4 92  1  0  0  0
  5  6  1  0  0  0
  5 26  1  0  0  0
  5 93  1  0  0  0
  6 25  1  0  0  0
  6 94  1  0  0  0
  6 95  1  0  0  0
  7  8  2  0  0  0
  7 26  1  0  0  0
  7 29  1  0  0  0
  8  9  1  0  0  0
  8 22  1  0  0  0
  9 10  1  0  0  0
  9 27  2  0  0  0
 10 11  2  0  0  0
 10 15  1  0  0  0
 11 12  1  0  0  0
 11 96  1  0  0  0
 12 13  2  0  0  0
 12 97  1  0  0  0
 13 14  1  0  0  0
 13 31  1  0  0  0
 14 15  2  0  0  0
 14 98  1  0  0  0
 15 99  1  0  0  0
 16 17  2  0  0  0
 16 21  1  0  0  0
 16 31  1  0  0  0
 17 18  1  0  0  0
 17100  1  0  0  0
 18 19  2  0  0  0
 18101  1  0  0  0
 19 20  1  0  0  0
 19 24  1  0  0  0
 20 21  2  0  0  0
 20102  1  0  0  0
 21 23  1  0  0  0
 22 28  1  0  0  0
 22 32  2  0  0  0
 26 27  1  0  0  0
 28103  1  0  0  0
 28104  1  0  0  0
 29105  1  0  0  0
 29106  1  0  0  0
 33 34  1  0  0  0
 33 66  1  0  0  0
 33 70  2  0  0  0
 34 36  1  0  0  0
 34 59  1  0  0  0
 34107  1  0  0  0
 35 44  2  0  0  0
 35 45  1  0  0  0
 35 68  1  0  0  0
 36 56  1  0  0  0
 36108  1  0  0  0
 37 39  1  0  0  0
 37 47  1  0  0  0
 37 66  1  0  0  0
 37109  1  0  0  0
 38 43  2  0  0  0
 38 46  1  0  0  0
 38 47  1  0  0  0
 39 64  1  0  0  0
 39 67  2  0  0  0
 40 52  1  0  0  0
 40 53  2  0  0  0
 40 58  1  0  0  0
 41110  1  0  0  0
 41111  1  0  0  0
 41112  1  0  0  0
 41 48  1  0  0  0
 42 43  1  0  0  0
 42 66  1  0  0  0
 42113  1  0  0  0
 42114  1  0  0  0
 43 44  1  0  0  0
 44115  1  0  0  0
 45 46  2  0  0  0
 45116  1  0  0  0
 46117  1  0  0  0
 47118  1  0  0  0
 47119  1  0  0  0
 48 56  1  0  0  0
 48 65  1  0  0  0
 48120  1  0  0  0
 49 50  1  0  0  0
 49 53  1  0  0  0
 49 64  1  0  0  0
 49121  1  0  0  0
 50 51  1  0  0  0
 50122  1  0  0  0
 50123  1  0  0  0
 51 52  1  0  0  0
 51124  1  0  0  0
 51125  1  0  0  0
 52126  1  0  0  0
 52127  1  0  0  0
 53 54  1  0  0  0
 54 55  2  0  0  0
 54128  1  0  0  0
 55 57  1  0  0  0
 55129  1  0  0  0
 56 69  2  0  0  0
 57 58  2  0  0  0
 57130  1  0  0  0
 58131  1  0  0  0
 59 60  1  0  0  0
 59 61  1  0  0  0
 59 62  1  0  0  0
 60132  1  0  0  0
 60133  1  0  0  0
 60134  1  0  0  0
 61135  1  0  0  0
 61136  1  0  0  0
 61137  1  0  0  0
 62138  1  0  0  0
 62139  1  0  0  0
 62140  1  0  0  0
 63 65  1  0  0  0
 63141  1  0  0  0
 63142  1  0  0  0
 63143  1  0  0  0
 64144  1  0  0  0
 65145  1  0  0  0
 68 75  1  0  0  0
 71 73  2  0  0  0
 71 75  1  0  0  0
 71146  1  0  0  0
 72 73  1  0  0  0
 72 74  2  0  0  0
 72 79  1  0  0  0
 73 81  1  0  0  0
 74 82  1  0  0  0
 74 85  1  0  0  0
 75 85  2  0  0  0
 76 77  1  0  0  0
 76 79  1  0  0  0
 76147  1  0  0  0
 76148  1  0  0  0
 77 80  1  0  0  0
 77149  1  0  0  0
 77150  1  0  0  0
 78 79  1  0  0  0
 78 80  1  0  0  0
 78151  1  0  0  0
 78152  1  0  0  0
 79153  1  0  0  0
 80 83  1  0  0  0
 80154  1  0  0  0
 81155  1  0  0  0
 81156  1  0  0  0
 81157  1  0  0  0
 82158  1  0  0  0
 82159  1  0  0  0
 82160  1  0  0  0
 83 84  1  0  0  0
 83161  1  0  0  0
 83162  1  0  0  0
 84 86  1  0  0  0
 84163  1  0  0  0
 84164  1  0  0  0
 86165  1  0  0  0
M  ISO  4   1 100  68 101  75 101  86 100
M  END
> <chiral flag>
0

> <version>
0

> <s_m_source_file>
/data/baiqing/PycharmProjects/Reinvent-master-3.2/result/LINK_invent/BTK/process_docking_weight1_custom_sum_contain_oxygen_bond_distance_aromatic_linkinvent_7_9_3/rearranged_h_0140.sdf

> <i_m_source_file_index>
90

> <r_mmod_Potential_Energy-OPLS-2005>
-108.035911560059

> <r_mmod_Stretch_Energy-OPLS-2005>
40.3245620727539

> <r_mmod_Bend_Energy-OPLS-2005>
130.909652709961

> <r_mmod_Torsional_Energy-OPLS-2005>
266.606079101562

> <r_mmod_Improper_Torsional_Energy-OPLS-2005>
2.41404914855957

> <r_mmod_Van_der_Waal_Energy-OPLS-2005>
155.755798339844

> <r_mmod_Electrostatic_Energy-OPLS-2005>
-502.147888183594

> <r_mmod_Solvation_Energy-OPLS-2005>
-212.520385742188

> <b_mmod_Minimization_Converged-OPLS-2005>
0

> <r_mmod_RMS_Derivative-OPLS-2005>
0.816501677036285

$$$$
90
                    3D
 Structure written by MMmdl.
184195  0  0  1  0            999 V2000
  -30.6655  -14.6878   20.4802 C   0  0  0  0  0  0
  -30.4212  -12.4381   19.4354 C   0  0  0  0  0  0
  -29.4904  -12.5162   18.2091 C   0  0  0  0  0  0
  -28.0143  -12.3597   18.6273 C   0  0  0  0  0  0
  -27.6424  -13.2306   19.8608 C   0  0  2  0  0  0
  -28.7024  -13.0968   20.9738 C   0  0  0  0  0  0
  -25.2528  -13.8174   20.5761 C   0  0  0  0  0  0
  -24.1808  -13.0427   20.9252 C   0  0  0  0  0  0
  -24.6408  -11.6908   20.8794 C   0  0  0  0  0  0
  -23.9087  -10.4280   21.0430 C   0  0  0  0  0  0
  -24.3644   -9.4183   21.9194 C   0  0  0  0  0  0
  -23.6326   -8.2210   22.0742 C   0  0  0  0  0  0
  -22.4297   -8.0275   21.3541 C   0  0  0  0  0  0
  -21.9945   -9.0247   20.4638 C   0  0  0  0  0  0
  -22.7267  -10.2126   20.3058 C   0  0  0  0  0  0
  -21.6844   -6.0754   22.5291 C   0  0  0  0  0  0
  -21.4000   -6.5649   23.8229 C   0  0  0  0  0  0
  -21.3662   -5.6793   24.9183 C   0  0  0  0  0  0
  -21.6048   -4.3062   24.7218 C   0  0  0  0  0  0
  -21.8818   -3.8159   23.4337 C   0  0  0  0  0  0
  -21.9192   -4.6986   22.3402 C   0  0  0  0  0  0
  -22.7819  -13.5213   21.1883 C   0  0  0  0  0  0
  -22.1656   -4.2185   21.0977 F   0  0  0  0  0  0
  -21.5641   -3.4536   25.7725 F   0  0  0  0  0  0
  -29.9798  -13.4962   20.3749 N   0  0  0  0  0  0
  -26.2964  -12.9393   20.3388 N   0  0  0  0  0  0
  -25.9342  -11.6534   20.5813 N   0  0  0  0  0  0
  -22.0443  -12.8203   22.0423 N   0  0  0  0  0  0
  -25.4227  -15.1873   20.4181 N   0  0  0  0  0  0
  -31.8735  -14.6762   20.2173 O   0  0  0  0  0  0
  -21.6639   -6.8885   21.4248 O   0  0  0  0  0  0
  -22.3512  -14.5503   20.6706 O   0  0  0  0  0  0
  -24.6277  -31.8592   23.2013 C   0  0  0  0  0  0
  -25.9127  -32.4775   23.8346 C   0  0  1  0  0  0
  -27.2109  -27.3004   20.1108 C   0  0  0  0  0  0
  -25.5951  -33.8575   24.2279 N   0  0  0  0  0  0
  -23.4216  -30.4840   21.5458 C   0  0  2  0  0  0
  -24.8625  -28.9366   20.1109 C   0  0  0  0  0  0
  -22.7491  -29.4624   22.4939 C   0  0  0  0  0  0
  -18.0299  -28.1392   22.8493 C   0  0  0  0  0  0
  -24.1492  -36.7290   23.2637 C   0  0  0  0  0  0
  -25.9654  -30.7827   21.3744 C   0  0  0  0  0  0
  -26.0347  -29.4099   20.7129 C   0  0  0  0  0  0
  -27.2145  -28.6044   20.7002 C   0  0  0  0  0  0
  -26.0148  -26.8841   19.4860 C   0  0  0  0  0  0
  -24.8545  -27.6793   19.4881 C   0  0  0  0  0  0
  -23.6353  -29.8220   20.1596 C   0  0  0  0  0  0
  -25.4119  -36.3079   24.0325 C   0  0  1  0  0  0
  -20.5899  -28.3697   23.1286 C   0  0  2  0  0  0
  -20.6793  -26.9422   22.5410 C   0  0  0  0  0  0
  -19.5768  -26.6390   21.5218 C   0  0  0  0  0  0
  -18.1945  -26.7936   22.1622 C   0  0  0  0  0  0
  -19.1550  -28.8863   23.2884 C   0  0  0  0  0  0
  -18.9465  -30.1467   23.8902 C   0  0  0  0  0  0
  -17.6462  -30.6596   24.0563 C   0  0  0  0  0  0
  -25.9057  -34.9450   23.5101 C   0  0  0  0  0  0
  -16.5356  -29.9093   23.6324 C   0  0  0  0  0  0
  -16.7281  -28.6508   23.0347 C   0  0  0  0  0  0
  -26.4502  -31.6582   25.0724 C   0  0  0  0  0  0
  -25.3733  -31.3716   26.1448 C   0  0  0  0  0  0
  -27.0337  -30.3004   24.6187 C   0  0  0  0  0  0
  -27.6072  -32.4314   25.7490 C   0  0  0  0  0  0
  -27.5586  -37.1802   24.8468 C   0  0  0  0  0  0
  -21.4202  -29.3042   22.3677 N   0  0  0  0  0  0
  -26.4296  -37.3776   23.9407 N   0  0  0  0  0  0
  -24.6912  -31.0593   22.0966 N   0  0  0  0  0  0
  -23.4208  -28.8161   23.3033 O   0  0  0  0  0  0
  -28.3210  -26.4375   20.1504 O   0  0  0  0  0  0
  -26.5620  -34.8913   22.4664 O   0  0  0  0  0  0
  -23.5444  -32.1396   23.7339 O   0  0  0  0  0  0
  -26.7337  -20.2382   20.6667 C   0  0  0  0  0  0
  -24.1093  -18.2320   22.2666 C   0  0  0  0  0  0
  -22.7394  -18.2951   21.6305 C   0  0  0  0  0  0
  -22.1063  -20.8386   19.1541 C   0  0  0  0  0  0
  -23.2627  -21.5474   18.4824 C   0  0  0  0  0  0
  -27.8557  -22.6734   18.9772 C   0  0  0  0  0  0
  -28.7579  -22.6544   21.3074 C   0  0  0  0  0  0
  -28.2025  -24.2009   18.8633 C   0  0  0  0  0  0
  -29.0821  -24.1914   21.1424 C   0  0  0  0  0  0
  -29.9598  -18.3844   19.4856 C   0  0  0  0  0  0
  -28.2253  -17.7267   21.0296 C   0  0  0  0  0  0
  -30.7686  -17.1063   19.9160 C   0  0  0  0  0  0
  -29.0278  -16.4325   21.4317 C   0  0  0  0  0  0
  -28.6973  -21.8036   19.9858 C   0  0  1  0  0  0
  -23.9746  -18.4916   20.7830 C   0  0  0  0  0  0
  -23.4324  -20.1359   18.9889 C   0  0  0  0  0  0
  -29.0353  -18.9976   20.5724 C   0  0  0  0  0  0
  -28.0969  -24.9633   20.2139 C   0  0  1  0  0  0
  -28.1541  -20.2690   20.0616 C   0  0  1  0  0  0
  -24.3220  -19.8435   20.1824 C   0  0  0  0  0  0
  -30.0045  -15.9244   20.4363 N   0  0  0  0  0  0
  -25.7290  -19.9541   19.8282 N   0  0  0  0  0  0
  -26.5560  -20.4426   21.8688 O   0  0  0  0  0  0
  -31.4585  -12.5511   19.1158 H   0  0  0  0  0  0
  -30.3672  -11.4519   19.9013 H   0  0  0  0  0  0
  -29.7559  -11.7499   17.4800 H   0  0  0  0  0  0
  -29.6275  -13.4769   17.7099 H   0  0  0  0  0  0
  -27.8451  -11.3062   18.8518 H   0  0  0  0  0  0
  -27.3594  -12.5991   17.7884 H   0  0  0  0  0  0
  -27.6496  -14.2664   19.5222 H   0  0  0  0  0  0
  -28.7538  -12.0614   21.3144 H   0  0  0  0  0  0
  -28.4633  -13.6618   21.8708 H   0  0  0  0  0  0
  -25.2776   -9.5666   22.4783 H   0  0  0  0  0  0
  -24.0059   -7.4585   22.7433 H   0  0  0  0  0  0
  -21.0881   -8.8744   19.8934 H   0  0  0  0  0  0
  -22.3720  -10.9672   19.6174 H   0  0  0  0  0  0
  -21.1962   -7.6152   23.9750 H   0  0  0  0  0  0
  -21.1498   -6.0508   25.9097 H   0  0  0  0  0  0
  -22.0602   -2.7630   23.2811 H   0  0  0  0  0  0
  -22.4061  -11.9885   22.4850 H   0  0  0  0  0  0
  -21.1036  -13.1204   22.2554 H   0  0  0  0  0  0
  -24.6607  -15.8384   20.5567 H   0  0  0  0  0  0
  -26.2801  -15.6296   20.1151 H   0  0  0  0  0  0
  -26.7200  -32.5417   23.1089 H   0  0  0  0  0  0
  -25.0138  -33.9721   25.0456 H   0  0  0  0  0  0
  -22.7158  -31.3051   21.4048 H   0  0  0  0  0  0
  -23.3754  -35.9624   23.3299 H   0  0  0  0  0  0
  -24.3588  -36.8908   22.2054 H   0  0  0  0  0  0
  -23.7241  -37.6490   23.6657 H   0  0  0  0  0  0
  -26.1024  -31.5448   20.6055 H   0  0  0  0  0  0
  -26.8432  -30.8276   22.0061 H   0  0  0  0  0  0
  -28.1151  -28.9611   21.1795 H   0  0  0  0  0  0
  -25.9474  -25.9228   19.0003 H   0  0  0  0  0  0
  -23.9564  -27.3131   19.0087 H   0  0  0  0  0  0
  -23.7618  -30.6002   19.4062 H   0  0  0  0  0  0
  -22.7522  -29.2587   19.8531 H   0  0  0  0  0  0
  -25.1299  -36.1932   25.0819 H   0  0  0  0  0  0
  -20.9991  -28.3273   24.1403 H   0  0  0  0  0  0
  -20.5712  -26.2310   23.3608 H   0  0  0  0  0  0
  -21.6659  -26.7470   22.1187 H   0  0  0  0  0  0
  -19.6925  -25.6301   21.1253 H   0  0  0  0  0  0
  -19.6697  -27.3195   20.6747 H   0  0  0  0  0  0
  -17.4213  -26.6694   21.4018 H   0  0  0  0  0  0
  -18.0337  -26.0082   22.9024 H   0  0  0  0  0  0
  -19.7942  -30.7293   24.2262 H   0  0  0  0  0  0
  -17.5010  -31.6264   24.5179 H   0  0  0  0  0  0
  -15.5351  -30.2984   23.7652 H   0  0  0  0  0  0
  -15.8683  -28.0818   22.7056 H   0  0  0  0  0  0
  -24.5947  -30.7018   25.7785 H   0  0  0  0  0  0
  -24.8879  -32.2872   26.4846 H   0  0  0  0  0  0
  -25.8068  -30.8934   27.0245 H   0  0  0  0  0  0
  -26.2910  -29.6761   24.1212 H   0  0  0  0  0  0
  -27.4031  -29.7258   25.4694 H   0  0  0  0  0  0
  -27.8783  -30.4289   23.9409 H   0  0  0  0  0  0
  -27.2705  -33.3633   26.2043 H   0  0  0  0  0  0
  -28.3885  -32.6839   25.0309 H   0  0  0  0  0  0
  -28.0730  -31.8448   26.5415 H   0  0  0  0  0  0
  -28.2598  -38.0108   24.7517 H   0  0  0  0  0  0
  -28.1081  -36.2634   24.6283 H   0  0  0  0  0  0
  -27.2302  -37.1440   25.8872 H   0  0  0  0  0  0
  -20.9389  -29.8759   21.6867 H   0  0  0  0  0  0
  -26.0171  -38.2851   24.1403 H   0  0  0  0  0  0
  -24.4760  -17.2560   22.5787 H   0  0  0  0  0  0
  -24.4041  -19.0640   22.9028 H   0  0  0  0  0  0
  -22.1260  -19.1686   21.8419 H   0  0  0  0  0  0
  -22.1957  -17.3601   21.5080 H   0  0  0  0  0  0
  -21.2817  -20.5045   18.5268 H   0  0  0  0  0  0
  -21.8258  -21.1685   20.1528 H   0  0  0  0  0  0
  -23.7652  -22.3397   19.0346 H   0  0  0  0  0  0
  -23.2095  -21.6920   17.4053 H   0  0  0  0  0  0
  -27.9268  -22.2274   17.9853 H   0  0  0  0  0  0
  -26.7998  -22.6126   19.2446 H   0  0  0  0  0  0
  -27.8019  -22.6027   21.8250 H   0  0  0  0  0  0
  -29.4820  -22.2038   21.9876 H   0  0  0  0  0  0
  -27.5431  -24.6556   18.1253 H   0  0  0  0  0  0
  -29.2098  -24.3137   18.4612 H   0  0  0  0  0  0
  -30.0975  -24.3076   20.7629 H   0  0  0  0  0  0
  -29.0787  -24.6608   22.1272 H   0  0  0  0  0  0
  -29.3632  -18.1294   18.6080 H   0  0  0  0  0  0
  -30.6623  -19.1494   19.1508 H   0  0  0  0  0  0
  -27.6018  -17.9807   21.8878 H   0  0  0  0  0  0
  -27.5267  -17.4551   20.2363 H   0  0  0  0  0  0
  -31.4917  -17.3945   20.6800 H   0  0  0  0  0  0
  -31.3629  -16.8054   19.0492 H   0  0  0  0  0  0
  -28.2810  -15.6805   21.6580 H   0  0  0  0  0  0
  -29.5614  -16.6152   22.3655 H   0  0  0  0  0  0
  -29.7126  -21.7559   19.5886 H   0  0  0  0  0  0
  -24.2176  -17.6604   20.1261 H   0  0  0  0  0  0
  -23.4665  -19.3640   18.2203 H   0  0  0  0  0  0
  -29.6460  -19.3306   21.4118 H   0  0  0  0  0  0
  -27.1031  -24.7894   20.6298 H   0  0  0  0  0  0
  -27.9957  -20.0206   19.0113 H   0  0  0  0  0  0
  -24.1082  -20.6071   20.9341 H   0  0  0  0  0  0
  -25.9647  -19.7983   18.8575 H   0  0  0  0  0  0
  1 25  1  0  0  0
  1 30  2  0  0  0
  1 91  1  0  0  0
  2  3  1  0  0  0
  2 25  1  0  0  0
  2 94  1  0  0  0
  2 95  1  0  0  0
  3  4  1  0  0  0
  3 96  1  0  0  0
  3 97  1  0  0  0
  4  5  1  0  0  0
  4 98  1  0  0  0
  4 99  1  0  0  0
  5  6  1  0  0  0
  5 26  1  0  0  0
  5100  1  0  0  0
  6 25  1  0  0  0
  6101  1  0  0  0
  6102  1  0  0  0
  7  8  2  0  0  0
  7 26  1  0  0  0
  7 29  1  0  0  0
  8  9  1  0  0  0
  8 22  1  0  0  0
  9 10  1  0  0  0
  9 27  2  0  0  0
 10 11  2  0  0  0
 10 15  1  0  0  0
 11 12  1  0  0  0
 11103  1  0  0  0
 12 13  2  0  0  0
 12104  1  0  0  0
 13 14  1  0  0  0
 13 31  1  0  0  0
 14 15  2  0  0  0
 14105  1  0  0  0
 15106  1  0  0  0
 16 17  2  0  0  0
 16 21  1  0  0  0
 16 31  1  0  0  0
 17 18  1  0  0  0
 17107  1  0  0  0
 18 19  2  0  0  0
 18108  1  0  0  0
 19 20  1  0  0  0
 19 24  1  0  0  0
 20 21  2  0  0  0
 20109  1  0  0  0
 21 23  1  0  0  0
 22 28  1  0  0  0
 22 32  2  0  0  0
 26 27  1  0  0  0
 28110  1  0  0  0
 28111  1  0  0  0
 29112  1  0  0  0
 29113  1  0  0  0
 33 34  1  0  0  0
 33 66  1  0  0  0
 33 70  2  0  0  0
 34 36  1  0  0  0
 34 59  1  0  0  0
 34114  1  0  0  0
 35 44  2  0  0  0
 35 45  1  0  0  0
 35 68  1  0  0  0
 36 56  1  0  0  0
 36115  1  0  0  0
 37 39  1  0  0  0
 37 47  1  0  0  0
 37 66  1  0  0  0
 37116  1  0  0  0
 38 43  2  0  0  0
 38 46  1  0  0  0
 38 47  1  0  0  0
 39 64  1  0  0  0
 39 67  2  0  0  0
 40 52  1  0  0  0
 40 53  2  0  0  0
 40 58  1  0  0  0
 41117  1  0  0  0
 41118  1  0  0  0
 41119  1  0  0  0
 41 48  1  0  0  0
 42 43  1  0  0  0
 42 66  1  0  0  0
 42120  1  0  0  0
 42121  1  0  0  0
 43 44  1  0  0  0
 44122  1  0  0  0
 45 46  2  0  0  0
 45123  1  0  0  0
 46124  1  0  0  0
 47125  1  0  0  0
 47126  1  0  0  0
 48 56  1  0  0  0
 48 65  1  0  0  0
 48127  1  0  0  0
 49 50  1  0  0  0
 49 53  1  0  0  0
 49 64  1  0  0  0
 49128  1  0  0  0
 50 51  1  0  0  0
 50129  1  0  0  0
 50130  1  0  0  0
 51 52  1  0  0  0
 51131  1  0  0  0
 51132  1  0  0  0
 52133  1  0  0  0
 52134  1  0  0  0
 53 54  1  0  0  0
 54 55  2  0  0  0
 54135  1  0  0  0
 55 57  1  0  0  0
 55136  1  0  0  0
 56 69  2  0  0  0
 57 58  2  0  0  0
 57137  1  0  0  0
 58138  1  0  0  0
 59 60  1  0  0  0
 59 61  1  0  0  0
 59 62  1  0  0  0
 60139  1  0  0  0
 60140  1  0  0  0
 60141  1  0  0  0
 61142  1  0  0  0
 61143  1  0  0  0
 61144  1  0  0  0
 62145  1  0  0  0
 62146  1  0  0  0
 62147  1  0  0  0
 63 65  1  0  0  0
 63148  1  0  0  0
 63149  1  0  0  0
 63150  1  0  0  0
 64151  1  0  0  0
 65152  1  0  0  0
 68 88  1  0  0  0
 71 92  1  0  0  0
 71 93  2  0  0  0
 71 89  1  0  0  0
 72 73  1  0  0  0
 72153  1  0  0  0
 72154  1  0  0  0
 72 85  1  0  0  0
 73 85  1  0  0  0
 73155  1  0  0  0
 73156  1  0  0  0
 74 75  1  0  0  0
 74157  1  0  0  0
 74158  1  0  0  0
 74 86  1  0  0  0
 75 86  1  0  0  0
 75159  1  0  0  0
 75160  1  0  0  0
 76 78  1  0  0  0
 76161  1  0  0  0
 76162  1  0  0  0
 76 84  1  0  0  0
 77 79  1  0  0  0
 77 84  1  0  0  0
 77163  1  0  0  0
 77164  1  0  0  0
 78 88  1  0  0  0
 78165  1  0  0  0
 78166  1  0  0  0
 79 88  1  0  0  0
 79167  1  0  0  0
 79168  1  0  0  0
 80 82  1  0  0  0
 80169  1  0  0  0
 80170  1  0  0  0
 80 87  1  0  0  0
 81 83  1  0  0  0
 81 87  1  0  0  0
 81171  1  0  0  0
 81172  1  0  0  0
 82 91  1  0  0  0
 82173  1  0  0  0
 82174  1  0  0  0
 83 91  1  0  0  0
 83175  1  0  0  0
 83176  1  0  0  0
 84 89  1  0  0  0
 84177  1  0  0  0
 85 90  1  0  0  0
 85178  1  0  0  0
 86 90  1  0  0  0
 86179  1  0  0  0
 87 89  1  0  0  0
 87180  1  0  0  0
 88181  1  0  0  0
 89182  1  0  0  0
 90 92  1  0  0  0
 90183  1  0  0  0
 92184  1  0  0  0
M  ISO  4   1 100  68 101  88 101  91 100
M  END
> <chiral flag>
0

> <version>
0

> <s_m_source_file>
/data/baiqing/PycharmProjects/Reinvent-master-3.2/result/LINK_invent/BTK/process_docking_weight1_custom_sum_contain_oxygen_bond_distance_aromatic_linkinvent_7_9_3/rearranged_h_0140.sdf

> <i_m_source_file_index>
91

> <r_mmod_Potential_Energy-OPLS-2005>
413.568328857422

> <r_mmod_Stretch_Energy-OPLS-2005>
106.169944763184

> <r_mmod_Bend_Energy-OPLS-2005>
200.769317626953

> <r_mmod_Torsional_Energy-OPLS-2005>
412.065155029297

> <r_mmod_Improper_Torsional_Energy-OPLS-2005>
15.7077779769897

> <r_mmod_Van_der_Waal_Energy-OPLS-2005>
124.260704040527

> <r_mmod_Electrostatic_Energy-OPLS-2005>
-304.670959472656

> <r_mmod_Solvation_Energy-OPLS-2005>
-204.129470825195

> <b_mmod_Minimization_Converged-OPLS-2005>
0

> <r_mmod_RMS_Derivative-OPLS-2005>
2.10524106025696

$$$$
91
                    3D
 Structure written by MMmdl.
154162  0  0  1  0            999 V2000
  -30.6543  -14.6418   20.4898 C   0  0  0  0  0  0
  -30.4266  -12.3956   19.4575 C   0  0  0  0  0  0
  -29.5013  -12.4957   18.2262 C   0  0  0  0  0  0
  -28.0265  -12.3348   18.6424 C   0  0  0  0  0  0
  -27.6467  -13.2223   19.8577 C   0  0  2  0  0  0
  -28.6924  -13.1153   20.9894 C   0  0  0  0  0  0
  -25.2522  -13.8187   20.5690 C   0  0  0  0  0  0
  -24.1802  -13.0443   20.9203 C   0  0  0  0  0  0
  -24.6381  -11.6917   20.8750 C   0  0  0  0  0  0
  -23.9053  -10.4295   21.0407 C   0  0  0  0  0  0
  -24.3605   -9.4212   21.9185 C   0  0  0  0  0  0
  -23.6284   -8.2246   22.0757 C   0  0  0  0  0  0
  -22.4268   -8.0277   21.3547 C   0  0  0  0  0  0
  -21.9901   -9.0249   20.4649 C   0  0  0  0  0  0
  -22.7226  -10.2131   20.3058 C   0  0  0  0  0  0
  -21.6853   -6.0728   22.5275 C   0  0  0  0  0  0
  -21.4014   -6.5635   23.8206 C   0  0  0  0  0  0
  -21.3660   -5.6793   24.9173 C   0  0  0  0  0  0
  -21.6045   -4.3055   24.7229 C   0  0  0  0  0  0
  -21.8819   -3.8140   23.4352 C   0  0  0  0  0  0
  -21.9191   -4.6954   22.3405 C   0  0  0  0  0  0
  -22.7824  -13.5228   21.1860 C   0  0  0  0  0  0
  -22.1659   -4.2138   21.0983 F   0  0  0  0  0  0
  -21.5630   -3.4540   25.7744 F   0  0  0  0  0  0
  -30.0025  -13.4400   20.4116 N   0  0  0  0  0  0
  -26.2951  -12.9381   20.3316 N   0  0  0  0  0  0
  -25.9312  -11.6530   20.5776 N   0  0  0  0  0  0
  -22.0472  -12.8219   22.0420 N   0  0  0  0  0  0
  -25.4221  -15.1911   20.4091 N   0  0  0  0  0  0
  -31.8334  -14.7492   20.1476 O   0  0  0  0  0  0
  -21.6641   -6.8868   21.4237 O   0  0  0  0  0  0
  -22.3510  -14.5534   20.6706 O   0  0  0  0  0  0
  -24.6251  -31.8596   23.2025 C   0  0  0  0  0  0
  -25.9099  -32.4779   23.8357 C   0  0  1  0  0  0
  -27.2222  -27.3281   20.1227 C   0  0  0  0  0  0
  -25.5922  -33.8581   24.2286 N   0  0  0  0  0  0
  -23.4197  -30.4826   21.5444 C   0  0  2  0  0  0
  -24.8695  -28.9403   20.1078 C   0  0  0  0  0  0
  -22.7474  -29.4615   22.4929 C   0  0  0  0  0  0
  -18.0285  -28.1368   22.8484 C   0  0  0  0  0  0
  -24.1487  -36.7293   23.2639 C   0  0  0  0  0  0
  -25.9600  -30.7940   21.3731 C   0  0  0  0  0  0
  -26.0374  -29.4224   20.7150 C   0  0  0  0  0  0
  -27.2216  -28.6272   20.7139 C   0  0  0  0  0  0
  -26.0404  -26.8979   19.4853 C   0  0  0  0  0  0
  -24.8724  -27.6832   19.4819 C   0  0  0  0  0  0
  -23.6350  -29.8177   20.1593 C   0  0  0  0  0  0
  -25.4111  -36.3085   24.0331 C   0  0  1  0  0  0
  -20.5887  -28.3675   23.1278 C   0  0  2  0  0  0
  -20.6770  -26.9397   22.5405 C   0  0  0  0  0  0
  -19.5749  -26.6372   21.5202 C   0  0  0  0  0  0
  -18.1926  -26.7914   22.1616 C   0  0  0  0  0  0
  -19.1540  -28.8838   23.2874 C   0  0  0  0  0  0
  -18.9466  -30.1441   23.8887 C   0  0  0  0  0  0
  -17.6468  -30.6577   24.0556 C   0  0  0  0  0  0
  -25.9046  -34.9455   23.5108 C   0  0  0  0  0  0
  -16.5358  -29.9075   23.6327 C   0  0  0  0  0  0
  -16.7276  -28.6489   23.0352 C   0  0  0  0  0  0
  -26.4491  -31.6592   25.0726 C   0  0  0  0  0  0
  -25.3734  -31.3723   26.1462 C   0  0  0  0  0  0
  -27.0339  -30.3021   24.6163 C   0  0  0  0  0  0
  -27.6048  -32.4330   25.7496 C   0  0  0  0  0  0
  -27.5581  -37.1794   24.8462 C   0  0  0  0  0  0
  -21.4186  -29.3037   22.3682 N   0  0  0  0  0  0
  -26.4286  -37.3782   23.9416 N   0  0  0  0  0  0
  -24.6869  -31.0621   22.0970 N   0  0  0  0  0  0
  -23.4202  -28.8150   23.3001 O   0  0  0  0  0  0
  -28.2968  -26.4337   20.1686 O   0  0  0  0  0  0
  -26.5616  -34.8918   22.4672 O   0  0  0  0  0  0
  -23.5416  -32.1390   23.7363 O   0  0  0  0  0  0
  -29.9355  -23.4337   20.8676 C   0  0  0  0  0  0
  -30.3581  -22.0734   20.8027 C   0  0  0  0  0  0
  -27.7209  -22.7349   20.2792 C   0  0  0  0  0  0
  -28.5918  -23.8045   20.6297 C   0  0  0  0  0  0
  -28.1367  -21.3631   20.2098 C   0  0  0  0  0  0
  -29.4857  -20.9884   20.5094 C   0  0  0  0  0  0
  -27.0889  -20.3400   19.8065 C   0  0  0  0  0  0
  -28.0316  -25.2333   20.9871 C   0  0  0  0  0  0
  -30.4197  -17.1876   20.7471 C   0  0  0  0  0  0
  -29.4021  -18.3980   20.5371 C   0  0  0  0  0  0
  -29.9141  -15.7643   20.7554 N   0  0  0  0  0  0
  -30.0779  -19.7010   20.5352 O   0  0  0  0  0  0
  -31.4691  -12.5063   19.1546 H   0  0  0  0  0  0
  -30.3533  -11.4100   19.9196 H   0  0  0  0  0  0
  -29.7669  -11.7341   17.4918 H   0  0  0  0  0  0
  -29.6414  -13.4596   17.7339 H   0  0  0  0  0  0
  -27.8687  -11.2846   18.8902 H   0  0  0  0  0  0
  -27.3694  -12.5489   17.7987 H   0  0  0  0  0  0
  -27.6562  -14.2506   19.4968 H   0  0  0  0  0  0
  -28.7064  -12.1095   21.4110 H   0  0  0  0  0  0
  -28.4450  -13.7869   21.8129 H   0  0  0  0  0  0
  -25.2745   -9.5697   22.4765 H   0  0  0  0  0  0
  -23.9993   -7.4644   22.7485 H   0  0  0  0  0  0
  -21.0829   -8.8761   19.8960 H   0  0  0  0  0  0
  -22.3669  -10.9669   19.6172 H   0  0  0  0  0  0
  -21.2007   -7.6143   23.9706 H   0  0  0  0  0  0
  -21.1484   -6.0526   25.9075 H   0  0  0  0  0  0
  -22.0596   -2.7601   23.2858 H   0  0  0  0  0  0
  -22.4083  -11.9873   22.4796 H   0  0  0  0  0  0
  -21.1097  -13.1253   22.2644 H   0  0  0  0  0  0
  -24.6527  -15.8438   20.5131 H   0  0  0  0  0  0
  -26.2659  -15.6283   20.0617 H   0  0  0  0  0  0
  -26.7174  -32.5456   23.1114 H   0  0  0  0  0  0
  -25.0085  -33.9732   25.0442 H   0  0  0  0  0  0
  -22.7122  -31.3017   21.4004 H   0  0  0  0  0  0
  -23.3753  -35.9620   23.3292 H   0  0  0  0  0  0
  -24.3579  -36.8922   22.2055 H   0  0  0  0  0  0
  -23.7235  -37.6489   23.6669 H   0  0  0  0  0  0
  -26.0892  -31.5576   20.6053 H   0  0  0  0  0  0
  -26.8410  -30.8437   22.0015 H   0  0  0  0  0  0
  -28.1154  -28.9872   21.2036 H   0  0  0  0  0  0
  -26.0133  -25.9260   19.0123 H   0  0  0  0  0  0
  -23.9786  -27.3082   19.0028 H   0  0  0  0  0  0
  -23.7502  -30.5942   19.4020 H   0  0  0  0  0  0
  -22.7562  -29.2441   19.8597 H   0  0  0  0  0  0
  -25.1284  -36.1935   25.0822 H   0  0  0  0  0  0
  -20.9974  -28.3248   24.1401 H   0  0  0  0  0  0
  -20.5654  -26.2285   23.3603 H   0  0  0  0  0  0
  -21.6638  -26.7411   22.1207 H   0  0  0  0  0  0
  -19.6909  -25.6281   21.1233 H   0  0  0  0  0  0
  -19.6689  -27.3178   20.6728 H   0  0  0  0  0  0
  -17.4194  -26.6662   21.4018 H   0  0  0  0  0  0
  -18.0328  -26.0049   22.9007 H   0  0  0  0  0  0
  -19.7945  -30.7252   24.2253 H   0  0  0  0  0  0
  -17.5030  -31.6259   24.5155 H   0  0  0  0  0  0
  -15.5361  -30.2976   23.7659 H   0  0  0  0  0  0
  -15.8673  -28.0809   22.7074 H   0  0  0  0  0  0
  -24.5910  -30.7062   25.7805 H   0  0  0  0  0  0
  -24.8921  -32.2885   26.4893 H   0  0  0  0  0  0
  -25.8072  -30.8909   27.0234 H   0  0  0  0  0  0
  -26.2909  -29.6770   24.1193 H   0  0  0  0  0  0
  -27.4064  -29.7274   25.4652 H   0  0  0  0  0  0
  -27.8764  -30.4325   23.9366 H   0  0  0  0  0  0
  -27.2660  -33.3640   26.2052 H   0  0  0  0  0  0
  -28.3870  -32.6872   25.0333 H   0  0  0  0  0  0
  -28.0700  -31.8468   26.5430 H   0  0  0  0  0  0
  -28.2579  -38.0110   24.7537 H   0  0  0  0  0  0
  -28.1096  -36.2641   24.6250 H   0  0  0  0  0  0
  -27.2301  -37.1401   25.8864 H   0  0  0  0  0  0
  -20.9359  -29.8792   21.6922 H   0  0  0  0  0  0
  -26.0165  -38.2850   24.1437 H   0  0  0  0  0  0
  -30.6464  -24.1922   21.1645 H   0  0  0  0  0  0
  -31.3937  -21.8536   21.0226 H   0  0  0  0  0  0
  -26.6806  -22.9723   20.1032 H   0  0  0  0  0  0
  -26.1422  -20.8177   19.5524 H   0  0  0  0  0  0
  -26.8880  -19.6421   20.6180 H   0  0  0  0  0  0
  -27.4081  -19.7883   18.9229 H   0  0  0  0  0  0
  -28.4239  -25.4689   21.9772 H   0  0  0  0  0  0
  -26.9611  -25.1089   21.1586 H   0  0  0  0  0  0
  -30.9389  -17.3454   21.6931 H   0  0  0  0  0  0
  -31.1878  -17.2719   19.9772 H   0  0  0  0  0  0
  -28.6507  -18.3796   21.3266 H   0  0  0  0  0  0
  -28.8929  -18.2567   19.5849 H   0  0  0  0  0  0
  -28.9398  -15.6210   20.9756 H   0  0  0  0  0  0
  1 25  1  0  0  0
  1 30  2  0  0  0
  1 81  1  0  0  0
  2  3  1  0  0  0
  2 25  1  0  0  0
  2 83  1  0  0  0
  2 84  1  0  0  0
  3  4  1  0  0  0
  3 85  1  0  0  0
  3 86  1  0  0  0
  4  5  1  0  0  0
  4 87  1  0  0  0
  4 88  1  0  0  0
  5  6  1  0  0  0
  5 26  1  0  0  0
  5 89  1  0  0  0
  6 25  1  0  0  0
  6 90  1  0  0  0
  6 91  1  0  0  0
  7  8  2  0  0  0
  7 26  1  0  0  0
  7 29  1  0  0  0
  8  9  1  0  0  0
  8 22  1  0  0  0
  9 10  1  0  0  0
  9 27  2  0  0  0
 10 11  2  0  0  0
 10 15  1  0  0  0
 11 12  1  0  0  0
 11 92  1  0  0  0
 12 13  2  0  0  0
 12 93  1  0  0  0
 13 14  1  0  0  0
 13 31  1  0  0  0
 14 15  2  0  0  0
 14 94  1  0  0  0
 15 95  1  0  0  0
 16 17  2  0  0  0
 16 21  1  0  0  0
 16 31  1  0  0  0
 17 18  1  0  0  0
 17 96  1  0  0  0
 18 19  2  0  0  0
 18 97  1  0  0  0
 19 20  1  0  0  0
 19 24  1  0  0  0
 20 21  2  0  0  0
 20 98  1  0  0  0
 21 23  1  0  0  0
 22 28  1  0  0  0
 22 32  2  0  0  0
 26 27  1  0  0  0
 28 99  1  0  0  0
 28100  1  0  0  0
 29101  1  0  0  0
 29102  1  0  0  0
 33 34  1  0  0  0
 33 66  1  0  0  0
 33 70  2  0  0  0
 34 36  1  0  0  0
 34 59  1  0  0  0
 34103  1  0  0  0
 35 44  2  0  0  0
 35 45  1  0  0  0
 35 68  1  0  0  0
 36 56  1  0  0  0
 36104  1  0  0  0
 37 39  1  0  0  0
 37 47  1  0  0  0
 37 66  1  0  0  0
 37105  1  0  0  0
 38 43  2  0  0  0
 38 46  1  0  0  0
 38 47  1  0  0  0
 39 64  1  0  0  0
 39 67  2  0  0  0
 40 52  1  0  0  0
 40 53  2  0  0  0
 40 58  1  0  0  0
 41106  1  0  0  0
 41107  1  0  0  0
 41108  1  0  0  0
 41 48  1  0  0  0
 42 43  1  0  0  0
 42 66  1  0  0  0
 42109  1  0  0  0
 42110  1  0  0  0
 43 44  1  0  0  0
 44111  1  0  0  0
 45 46  2  0  0  0
 45112  1  0  0  0
 46113  1  0  0  0
 47114  1  0  0  0
 47115  1  0  0  0
 48 56  1  0  0  0
 48 65  1  0  0  0
 48116  1  0  0  0
 49 50  1  0  0  0
 49 53  1  0  0  0
 49 64  1  0  0  0
 49117  1  0  0  0
 50 51  1  0  0  0
 50118  1  0  0  0
 50119  1  0  0  0
 51 52  1  0  0  0
 51120  1  0  0  0
 51121  1  0  0  0
 52122  1  0  0  0
 52123  1  0  0  0
 53 54  1  0  0  0
 54 55  2  0  0  0
 54124  1  0  0  0
 55 57  1  0  0  0
 55125  1  0  0  0
 56 69  2  0  0  0
 57 58  2  0  0  0
 57126  1  0  0  0
 58127  1  0  0  0
 59 60  1  0  0  0
 59 61  1  0  0  0
 59 62  1  0  0  0
 60128  1  0  0  0
 60129  1  0  0  0
 60130  1  0  0  0
 61131  1  0  0  0
 61132  1  0  0  0
 61133  1  0  0  0
 62134  1  0  0  0
 62135  1  0  0  0
 62136  1  0  0  0
 63 65  1  0  0  0
 63137  1  0  0  0
 63138  1  0  0  0
 63139  1  0  0  0
 64140  1  0  0  0
 65141  1  0  0  0
 68 78  1  0  0  0
 71 72  2  0  0  0
 71 74  1  0  0  0
 71142  1  0  0  0
 72 76  1  0  0  0
 72143  1  0  0  0
 73 74  2  0  0  0
 73 75  1  0  0  0
 73144  1  0  0  0
 74 78  1  0  0  0
 75 76  2  0  0  0
 75 77  1  0  0  0
 76 82  1  0  0  0
 77145  1  0  0  0
 77146  1  0  0  0
 77147  1  0  0  0
 78148  1  0  0  0
 78149  1  0  0  0
 79 80  1  0  0  0
 79 81  1  0  0  0
 79150  1  0  0  0
 79151  1  0  0  0
 80 82  1  0  0  0
 80152  1  0  0  0
 80153  1  0  0  0
 81154  1  0  0  0
M  ISO  4   1 100  68 101  78 101  81 100
M  END
> <chiral flag>
0

> <version>
0

> <s_m_source_file>
/data/baiqing/PycharmProjects/Reinvent-master-3.2/result/LINK_invent/BTK/process_docking_weight1_custom_sum_contain_oxygen_bond_distance_aromatic_linkinvent_7_9_3/rearranged_h_0140.sdf

> <i_m_source_file_index>
92

> <r_mmod_Potential_Energy-OPLS-2005>
52.004695892334

> <r_mmod_Stretch_Energy-OPLS-2005>
78.3370590209961

> <r_mmod_Bend_Energy-OPLS-2005>
159.53727722168

> <r_mmod_Torsional_Energy-OPLS-2005>
238.585678100586

> <r_mmod_Improper_Torsional_Energy-OPLS-2005>
5.99464702606201

> <r_mmod_Van_der_Waal_Energy-OPLS-2005>
143.207595825195

> <r_mmod_Electrostatic_Energy-OPLS-2005>
-412.515869140625

> <r_mmod_Solvation_Energy-OPLS-2005>
-214.062744140625

> <b_mmod_Minimization_Converged-OPLS-2005>
0

> <r_mmod_RMS_Derivative-OPLS-2005>
0.802816569805145

$$$$
92
                    3D
 Structure written by MMmdl.
160169  0  0  1  0            999 V2000
  -30.6331  -14.6768   20.4292 C   0  0  0  0  0  0
  -30.4305  -12.3989   19.4706 C   0  0  0  0  0  0
  -29.5114  -12.4769   18.2318 C   0  0  0  0  0  0
  -28.0335  -12.3239   18.6431 C   0  0  0  0  0  0
  -27.6482  -13.2226   19.8494 C   0  0  2  0  0  0
  -28.6923  -13.1403   20.9857 C   0  0  0  0  0  0
  -25.2561  -13.8182   20.5683 C   0  0  0  0  0  0
  -24.1835  -13.0445   20.9185 C   0  0  0  0  0  0
  -24.6410  -11.6914   20.8735 C   0  0  0  0  0  0
  -23.9076  -10.4291   21.0402 C   0  0  0  0  0  0
  -24.3623   -9.4208   21.9187 C   0  0  0  0  0  0
  -23.6292   -8.2246   22.0769 C   0  0  0  0  0  0
  -22.4276   -8.0281   21.3552 C   0  0  0  0  0  0
  -21.9912   -9.0258   20.4655 C   0  0  0  0  0  0
  -22.7244  -10.2131   20.3056 C   0  0  0  0  0  0
  -21.6854   -6.0734   22.5281 C   0  0  0  0  0  0
  -21.4016   -6.5644   23.8212 C   0  0  0  0  0  0
  -21.3648   -5.6799   24.9179 C   0  0  0  0  0  0
  -21.6035   -4.3064   24.7228 C   0  0  0  0  0  0
  -21.8820   -3.8154   23.4356 C   0  0  0  0  0  0
  -21.9199   -4.6964   22.3413 C   0  0  0  0  0  0
  -22.7855  -13.5231   21.1841 C   0  0  0  0  0  0
  -22.1665   -4.2148   21.0988 F   0  0  0  0  0  0
  -21.5621   -3.4552   25.7746 F   0  0  0  0  0  0
  -30.0015  -13.4593   20.4073 N   0  0  0  0  0  0
  -26.2980  -12.9370   20.3265 N   0  0  0  0  0  0
  -25.9330  -11.6522   20.5745 N   0  0  0  0  0  0
  -22.0497  -12.8216   22.0389 N   0  0  0  0  0  0
  -25.4285  -15.1899   20.4102 N   0  0  0  0  0  0
  -31.8235  -14.7653   20.1209 O   0  0  0  0  0  0
  -21.6651   -6.8873   21.4242 O   0  0  0  0  0  0
  -22.3539  -14.5543   20.6695 O   0  0  0  0  0  0
  -24.6263  -31.8586   23.2011 C   0  0  0  0  0  0
  -25.9116  -32.4781   23.8331 C   0  0  1  0  0  0
  -27.2216  -27.3084   20.1366 C   0  0  0  0  0  0
  -25.5930  -33.8584   24.2268 N   0  0  0  0  0  0
  -23.4208  -30.4780   21.5445 C   0  0  2  0  0  0
  -24.8698  -28.9284   20.1125 C   0  0  0  0  0  0
  -22.7485  -29.4594   22.4969 C   0  0  0  0  0  0
  -18.0281  -28.1376   22.8480 C   0  0  0  0  0  0
  -24.1492  -36.7298   23.2640 C   0  0  0  0  0  0
  -25.9600  -30.7887   21.3698 C   0  0  0  0  0  0
  -26.0366  -29.4133   20.7173 C   0  0  0  0  0  0
  -27.2196  -28.6156   20.7156 C   0  0  0  0  0  0
  -26.0353  -26.8706   19.5137 C   0  0  0  0  0  0
  -24.8713  -27.6643   19.4989 C   0  0  0  0  0  0
  -23.6353  -29.8070   20.1610 C   0  0  0  0  0  0
  -25.4122  -36.3089   24.0327 C   0  0  1  0  0  0
  -20.5880  -28.3676   23.1311 C   0  0  2  0  0  0
  -20.6773  -26.9411   22.5427 C   0  0  0  0  0  0
  -19.5755  -26.6371   21.5226 C   0  0  0  0  0  0
  -18.1921  -26.7912   22.1621 C   0  0  0  0  0  0
  -19.1533  -28.8846   23.2878 C   0  0  0  0  0  0
  -18.9460  -30.1436   23.8915 C   0  0  0  0  0  0
  -17.6468  -30.6585   24.0546 C   0  0  0  0  0  0
  -25.9075  -34.9455   23.5103 C   0  0  0  0  0  0
  -16.5357  -29.9084   23.6336 C   0  0  0  0  0  0
  -16.7268  -28.6495   23.0374 C   0  0  0  0  0  0
  -26.4491  -31.6608   25.0723 C   0  0  0  0  0  0
  -25.3713  -31.3747   26.1448 C   0  0  0  0  0  0
  -27.0351  -30.3039   24.6176 C   0  0  0  0  0  0
  -27.6063  -32.4330   25.7489 C   0  0  0  0  0  0
  -27.5581  -37.1789   24.8456 C   0  0  0  0  0  0
  -21.4201  -29.3029   22.3723 N   0  0  0  0  0  0
  -26.4292  -37.3787   23.9419 N   0  0  0  0  0  0
  -24.6875  -31.0580   22.0961 N   0  0  0  0  0  0
  -23.4204  -28.8152   23.3063 O   0  0  0  0  0  0
  -28.3289  -26.4526   20.1449 O   0  0  0  0  0  0
  -26.5637  -34.8914   22.4673 O   0  0  0  0  0  0
  -23.5428  -32.1404   23.7334 O   0  0  0  0  0  0
  -29.8299  -20.4953   21.7256 C   0  0  0  0  0  0
  -28.9521  -19.4727   19.3845 C   0  0  0  0  0  0
  -30.0932  -19.1176   21.4539 C   0  0  0  0  0  0
  -29.6474  -18.5464   20.2302 C   0  0  0  0  0  0
  -29.1681  -21.3330   20.7963 C   0  0  0  0  0  0
  -30.3094  -17.2368   23.2854 C   0  0  0  0  0  0
  -30.8111  -18.5132   23.9165 C   0  0  0  0  0  0
  -30.9182  -18.3157   22.4195 C   0  0  0  0  0  0
  -29.6553  -16.8452   18.2638 C   0  0  0  0  0  0
  -28.1759  -25.1370   20.8165 C   0  0  0  0  0  0
  -28.5923  -23.7470   20.1308 C   0  0  0  0  0  0
  -30.0949  -17.0956   19.7227 C   0  0  2  0  0  0
  -28.7271  -20.8019   19.6352 N   0  0  0  0  0  0
  -29.8430  -15.8075   20.4884 N   0  0  0  0  0  0
  -28.9590  -22.6993   21.0986 O   0  0  0  0  0  0
  -31.4751  -12.5011   19.1732 H   0  0  0  0  0  0
  -30.3495  -11.4199   19.9472 H   0  0  0  0  0  0
  -29.7803  -11.6958   17.5189 H   0  0  0  0  0  0
  -29.6568  -13.4254   17.7123 H   0  0  0  0  0  0
  -27.8771  -11.2755   18.8994 H   0  0  0  0  0  0
  -27.3813  -12.5260   17.7926 H   0  0  0  0  0  0
  -27.6484  -14.2449   19.4723 H   0  0  0  0  0  0
  -28.7063  -12.1413   21.4253 H   0  0  0  0  0  0
  -28.4417  -13.8283   21.7936 H   0  0  0  0  0  0
  -25.2766   -9.5692   22.4763 H   0  0  0  0  0  0
  -23.9999   -7.4651   22.7497 H   0  0  0  0  0  0
  -21.0842   -8.8765   19.8970 H   0  0  0  0  0  0
  -22.3693  -10.9667   19.6167 H   0  0  0  0  0  0
  -21.2008   -7.6150   23.9710 H   0  0  0  0  0  0
  -21.1463   -6.0538   25.9075 H   0  0  0  0  0  0
  -22.0606   -2.7613   23.2869 H   0  0  0  0  0  0
  -22.4116  -11.9877   22.4768 H   0  0  0  0  0  0
  -21.1118  -13.1241   22.2590 H   0  0  0  0  0  0
  -24.6636  -15.8455   20.5256 H   0  0  0  0  0  0
  -26.2712  -15.6270   20.0602 H   0  0  0  0  0  0
  -26.7205  -32.5447   23.1099 H   0  0  0  0  0  0
  -25.0039  -33.9725   25.0377 H   0  0  0  0  0  0
  -22.7141  -31.2983   21.3980 H   0  0  0  0  0  0
  -23.3758  -35.9619   23.3286 H   0  0  0  0  0  0
  -24.3573  -36.8965   22.2058 H   0  0  0  0  0  0
  -23.7244  -37.6487   23.6686 H   0  0  0  0  0  0
  -26.0861  -31.5481   20.5967 H   0  0  0  0  0  0
  -26.8417  -30.8444   21.9959 H   0  0  0  0  0  0
  -28.1175  -28.9756   21.1982 H   0  0  0  0  0  0
  -26.0034  -25.8950   19.0489 H   0  0  0  0  0  0
  -23.9745  -27.2884   19.0245 H   0  0  0  0  0  0
  -23.7462  -30.5790   19.3988 H   0  0  0  0  0  0
  -22.7551  -29.2314   19.8673 H   0  0  0  0  0  0
  -25.1295  -36.1929   25.0818 H   0  0  0  0  0  0
  -20.9942  -28.3231   24.1444 H   0  0  0  0  0  0
  -20.5701  -26.2284   23.3617 H   0  0  0  0  0  0
  -21.6629  -26.7450   22.1203 H   0  0  0  0  0  0
  -19.6929  -25.6288   21.1251 H   0  0  0  0  0  0
  -19.6695  -27.3187   20.6766 H   0  0  0  0  0  0
  -17.4201  -26.6686   21.4010 H   0  0  0  0  0  0
  -18.0292  -26.0039   22.9013 H   0  0  0  0  0  0
  -19.7940  -30.7222   24.2300 H   0  0  0  0  0  0
  -17.5033  -31.6270   24.5134 H   0  0  0  0  0  0
  -15.5363  -30.2990   23.7649 H   0  0  0  0  0  0
  -15.8664  -28.0799   22.7125 H   0  0  0  0  0  0
  -24.5869  -30.7142   25.7751 H   0  0  0  0  0  0
  -24.8917  -32.2910   26.4882 H   0  0  0  0  0  0
  -25.7990  -30.8884   27.0226 H   0  0  0  0  0  0
  -26.2927  -29.6783   24.1202 H   0  0  0  0  0  0
  -27.4096  -29.7306   25.4674 H   0  0  0  0  0  0
  -27.8769  -30.4365   23.9375 H   0  0  0  0  0  0
  -27.2706  -33.3653   26.2028 H   0  0  0  0  0  0
  -28.3867  -32.6861   25.0309 H   0  0  0  0  0  0
  -28.0725  -31.8483   26.5429 H   0  0  0  0  0  0
  -28.2566  -38.0110   24.7529 H   0  0  0  0  0  0
  -28.1100  -36.2642   24.6230 H   0  0  0  0  0  0
  -27.2288  -37.1380   25.8851 H   0  0  0  0  0  0
  -20.9404  -29.8753   21.6920 H   0  0  0  0  0  0
  -26.0170  -38.2863   24.1422 H   0  0  0  0  0  0
  -30.1844  -20.9331   22.6478 H   0  0  0  0  0  0
  -28.5874  -19.1674   18.4165 H   0  0  0  0  0  0
  -29.2323  -17.0917   23.2290 H   0  0  0  0  0  0
  -30.8944  -16.3350   23.4528 H   0  0  0  0  0  0
  -31.7294  -18.4541   24.4978 H   0  0  0  0  0  0
  -30.0602  -19.2015   24.2983 H   0  0  0  0  0  0
  -31.9113  -18.1326   22.0107 H   0  0  0  0  0  0
  -30.0353  -17.6161   17.5923 H   0  0  0  0  0  0
  -28.5688  -16.8195   18.1721 H   0  0  0  0  0  0
  -30.0323  -15.8979   17.8787 H   0  0  0  0  0  0
  -28.8023  -25.2300   21.7039 H   0  0  0  0  0  0
  -27.1662  -25.0264   21.2159 H   0  0  0  0  0  0
  -29.4565  -23.9078   19.4857 H   0  0  0  0  0  0
  -27.7827  -23.3991   19.4886 H   0  0  0  0  0  0
  -31.1814  -17.1938   19.6813 H   0  0  0  0  0  0
  -28.8903  -15.6446   20.7758 H   0  0  0  0  0  0
  1 25  1  0  0  0
  1 30  2  0  0  0
  1 84  1  0  0  0
  2  3  1  0  0  0
  2 25  1  0  0  0
  2 86  1  0  0  0
  2 87  1  0  0  0
  3  4  1  0  0  0
  3 88  1  0  0  0
  3 89  1  0  0  0
  4  5  1  0  0  0
  4 90  1  0  0  0
  4 91  1  0  0  0
  5  6  1  0  0  0
  5 26  1  0  0  0
  5 92  1  0  0  0
  6 25  1  0  0  0
  6 93  1  0  0  0
  6 94  1  0  0  0
  7  8  2  0  0  0
  7 26  1  0  0  0
  7 29  1  0  0  0
  8  9  1  0  0  0
  8 22  1  0  0  0
  9 10  1  0  0  0
  9 27  2  0  0  0
 10 11  2  0  0  0
 10 15  1  0  0  0
 11 12  1  0  0  0
 11 95  1  0  0  0
 12 13  2  0  0  0
 12 96  1  0  0  0
 13 14  1  0  0  0
 13 31  1  0  0  0
 14 15  2  0  0  0
 14 97  1  0  0  0
 15 98  1  0  0  0
 16 17  2  0  0  0
 16 21  1  0  0  0
 16 31  1  0  0  0
 17 18  1  0  0  0
 17 99  1  0  0  0
 18 19  2  0  0  0
 18100  1  0  0  0
 19 20  1  0  0  0
 19 24  1  0  0  0
 20 21  2  0  0  0
 20101  1  0  0  0
 21 23  1  0  0  0
 22 28  1  0  0  0
 22 32  2  0  0  0
 26 27  1  0  0  0
 28102  1  0  0  0
 28103  1  0  0  0
 29104  1  0  0  0
 29105  1  0  0  0
 33 34  1  0  0  0
 33 66  1  0  0  0
 33 70  2  0  0  0
 34 36  1  0  0  0
 34 59  1  0  0  0
 34106  1  0  0  0
 35 44  2  0  0  0
 35 45  1  0  0  0
 35 68  1  0  0  0
 36 56  1  0  0  0
 36107  1  0  0  0
 37 39  1  0  0  0
 37 47  1  0  0  0
 37 66  1  0  0  0
 37108  1  0  0  0
 38 43  2  0  0  0
 38 46  1  0  0  0
 38 47  1  0  0  0
 39 64  1  0  0  0
 39 67  2  0  0  0
 40 52  1  0  0  0
 40 53  2  0  0  0
 40 58  1  0  0  0
 41109  1  0  0  0
 41110  1  0  0  0
 41111  1  0  0  0
 41 48  1  0  0  0
 42 43  1  0  0  0
 42 66  1  0  0  0
 42112  1  0  0  0
 42113  1  0  0  0
 43 44  1  0  0  0
 44114  1  0  0  0
 45 46  2  0  0  0
 45115  1  0  0  0
 46116  1  0  0  0
 47117  1  0  0  0
 47118  1  0  0  0
 48 56  1  0  0  0
 48 65  1  0  0  0
 48119  1  0  0  0
 49 50  1  0  0  0
 49 53  1  0  0  0
 49 64  1  0  0  0
 49120  1  0  0  0
 50 51  1  0  0  0
 50121  1  0  0  0
 50122  1  0  0  0
 51 52  1  0  0  0
 51123  1  0  0  0
 51124  1  0  0  0
 52125  1  0  0  0
 52126  1  0  0  0
 53 54  1  0  0  0
 54 55  2  0  0  0
 54127  1  0  0  0
 55 57  1  0  0  0
 55128  1  0  0  0
 56 69  2  0  0  0
 57 58  2  0  0  0
 57129  1  0  0  0
 58130  1  0  0  0
 59 60  1  0  0  0
 59 61  1  0  0  0
 59 62  1  0  0  0
 60131  1  0  0  0
 60132  1  0  0  0
 60133  1  0  0  0
 61134  1  0  0  0
 61135  1  0  0  0
 61136  1  0  0  0
 62137  1  0  0  0
 62138  1  0  0  0
 62139  1  0  0  0
 63 65  1  0  0  0
 63140  1  0  0  0
 63141  1  0  0  0
 63142  1  0  0  0
 64143  1  0  0  0
 65144  1  0  0  0
 68 80  1  0  0  0
 71 73  2  0  0  0
 71 75  1  0  0  0
 71145  1  0  0  0
 72 74  2  0  0  0
 72 83  1  0  0  0
 72146  1  0  0  0
 73 74  1  0  0  0
 73 78  1  0  0  0
 74 82  1  0  0  0
 75 83  2  0  0  0
 75 85  1  0  0  0
 76 77  1  0  0  0
 76 78  1  0  0  0
 76147  1  0  0  0
 76148  1  0  0  0
 77 78  1  0  0  0
 77149  1  0  0  0
 77150  1  0  0  0
 78151  1  0  0  0
 79152  1  0  0  0
 79153  1  0  0  0
 79154  1  0  0  0
 79 82  1  0  0  0
 80 81  1  0  0  0
 80155  1  0  0  0
 80156  1  0  0  0
 81 85  1  0  0  0
 81157  1  0  0  0
 81158  1  0  0  0
 82 84  1  0  0  0
 82159  1  0  0  0
 84160  1  0  0  0
M  ISO  4   1 100  68 101  80 101  84 100
M  END
> <chiral flag>
0

> <version>
0

> <s_m_source_file>
/data/baiqing/PycharmProjects/Reinvent-master-3.2/result/LINK_invent/BTK/process_docking_weight1_custom_sum_contain_oxygen_bond_distance_aromatic_linkinvent_7_9_3/rearranged_h_0140.sdf

> <i_m_source_file_index>
93

> <r_mmod_Potential_Energy-OPLS-2005>
-23.5343627929688

> <r_mmod_Stretch_Energy-OPLS-2005>
91.5817947387695

> <r_mmod_Bend_Energy-OPLS-2005>
162.345321655273

> <r_mmod_Torsional_Energy-OPLS-2005>
259.370178222656

> <r_mmod_Improper_Torsional_Energy-OPLS-2005>
10.7353038787842

> <r_mmod_Van_der_Waal_Energy-OPLS-2005>
137.825958251953

> <r_mmod_Electrostatic_Energy-OPLS-2005>
-535.884216308594

> <r_mmod_Solvation_Energy-OPLS-2005>
-209.535842895508

> <b_mmod_Minimization_Converged-OPLS-2005>
0

> <r_mmod_RMS_Derivative-OPLS-2005>
2.50637984275818

$$$$
93
                    3D
 Structure written by MMmdl.
154163  0  0  1  0            999 V2000
  -30.5907  -14.8596   20.4086 C   0  0  0  0  0  0
  -30.4389  -12.5265   19.4927 C   0  0  0  0  0  0
  -29.5175  -12.4992   18.2531 C   0  0  0  0  0  0
  -28.0493  -12.3008   18.6759 C   0  0  0  0  0  0
  -27.6321  -13.2410   19.8377 C   0  0  2  0  0  0
  -28.6791  -13.2538   20.9725 C   0  0  0  0  0  0
  -25.2480  -13.8148   20.5778 C   0  0  0  0  0  0
  -24.1795  -13.0401   20.9248 C   0  0  0  0  0  0
  -24.6388  -11.6866   20.8759 C   0  0  0  0  0  0
  -23.9077  -10.4252   21.0427 C   0  0  0  0  0  0
  -24.3627   -9.4158   21.9185 C   0  0  0  0  0  0
  -23.6297   -8.2199   22.0743 C   0  0  0  0  0  0
  -22.4274   -8.0245   21.3544 C   0  0  0  0  0  0
  -21.9923   -9.0220   20.4641 C   0  0  0  0  0  0
  -22.7256  -10.2096   20.3068 C   0  0  0  0  0  0
  -21.6845   -6.0728   22.5287 C   0  0  0  0  0  0
  -21.4006   -6.5638   23.8223 C   0  0  0  0  0  0
  -21.3664   -5.6785   24.9189 C   0  0  0  0  0  0
  -21.6068   -4.3053   24.7237 C   0  0  0  0  0  0
  -21.8814   -3.8144   23.4352 C   0  0  0  0  0  0
  -21.9180   -4.6959   22.3411 C   0  0  0  0  0  0
  -22.7819  -13.5183   21.1899 C   0  0  0  0  0  0
  -22.1651   -4.2144   21.0985 F   0  0  0  0  0  0
  -21.5625   -3.4541   25.7748 F   0  0  0  0  0  0
  -29.9707  -13.6224   20.3769 N   0  0  0  0  0  0
  -26.2911  -12.9391   20.3274 N   0  0  0  0  0  0
  -25.9329  -11.6521   20.5761 N   0  0  0  0  0  0
  -22.0457  -12.8187   22.0451 N   0  0  0  0  0  0
  -25.4163  -15.1878   20.4299 N   0  0  0  0  0  0
  -31.7916  -14.9285   20.1363 O   0  0  0  0  0  0
  -21.6627   -6.8856   21.4242 O   0  0  0  0  0  0
  -22.3523  -14.5492   20.6716 O   0  0  0  0  0  0
  -24.6413  -31.8539   23.1975 C   0  0  0  0  0  0
  -25.9210  -32.4767   23.8323 C   0  0  1  0  0  0
  -27.2029  -27.1875   20.1484 C   0  0  0  0  0  0
  -25.5976  -33.8564   24.2254 N   0  0  0  0  0  0
  -23.4361  -30.4812   21.5506 C   0  0  2  0  0  0
  -24.8761  -28.9257   20.1193 C   0  0  0  0  0  0
  -22.7536  -29.4614   22.4951 C   0  0  0  0  0  0
  -18.0298  -28.1394   22.8496 C   0  0  0  0  0  0
  -24.1483  -36.7283   23.2634 C   0  0  0  0  0  0
  -25.9926  -30.7480   21.3844 C   0  0  0  0  0  0
  -26.0610  -29.3668   20.7222 C   0  0  0  0  0  0
  -27.2270  -28.5164   20.7201 C   0  0  0  0  0  0
  -25.9815  -26.8469   19.5110 C   0  0  0  0  0  0
  -24.8455  -27.6708   19.5064 C   0  0  0  0  0  0
  -23.6540  -29.8251   20.1661 C   0  0  0  0  0  0
  -25.4124  -36.3093   24.0315 C   0  0  1  0  0  0
  -20.5908  -28.3729   23.1267 C   0  0  2  0  0  0
  -20.6814  -26.9446   22.5409 C   0  0  0  0  0  0
  -19.5765  -26.6362   21.5249 C   0  0  0  0  0  0
  -18.1957  -26.7911   22.1682 C   0  0  0  0  0  0
  -19.1554  -28.8877   23.2863 C   0  0  0  0  0  0
  -18.9479  -30.1482   23.8873 C   0  0  0  0  0  0
  -17.6481  -30.6603   24.0548 C   0  0  0  0  0  0
  -25.9075  -34.9452   23.5086 C   0  0  0  0  0  0
  -16.5372  -29.9089   23.6345 C   0  0  0  0  0  0
  -16.7292  -28.6505   23.0377 C   0  0  0  0  0  0
  -26.4516  -31.6598   25.0742 C   0  0  0  0  0  0
  -25.3698  -31.3779   26.1444 C   0  0  0  0  0  0
  -27.0332  -30.2993   24.6265 C   0  0  0  0  0  0
  -27.6065  -32.4331   25.7534 C   0  0  0  0  0  0
  -27.5580  -37.1810   24.8473 C   0  0  0  0  0  0
  -21.4246  -29.3074   22.3670 N   0  0  0  0  0  0
  -26.4298  -37.3800   23.9411 N   0  0  0  0  0  0
  -24.7108  -31.0437   22.1009 N   0  0  0  0  0  0
  -23.4211  -28.8142   23.3056 O   0  0  0  0  0  0
  -28.2447  -26.1956   20.2270 O   0  0  0  0  0  0
  -26.5664  -34.8934   22.4668 O   0  0  0  0  0  0
  -23.5545  -32.1403   23.7234 O   0  0  0  0  0  0
  -28.9638  -21.0263   19.1181 C   0  0  0  0  0  0
  -28.7346  -22.4541   19.0601 C   0  0  0  0  0  0
  -29.1243  -21.1659   21.4635 C   0  0  0  0  0  0
  -29.1172  -20.2814   20.3315 C   0  0  0  0  0  0
  -28.6041  -23.3099   20.2026 C   0  0  0  0  0  0
  -28.8551  -22.5941   21.4184 C   0  0  0  0  0  0
  -27.6321  -18.1403   19.8198 C   0  0  0  0  0  0
  -27.7489  -18.2680   21.3133 C   0  0  0  0  0  0
  -28.9241  -18.6616   20.4343 C   0  0  0  0  0  0
  -27.8065  -24.7297   20.0795 C   0  0  0  0  0  0
  -30.1211  -17.5511   20.3664 C   0  0  0  0  0  0
  -29.8149  -16.0229   20.5258 N   0  0  0  0  0  0
  -28.7357  -23.2540   22.5957 F   0  0  0  0  0  0
  -31.4763  -12.6628   19.1805 H   0  0  0  0  0  0
  -30.4094  -11.5736   20.0224 H   0  0  0  0  0  0
  -29.8221  -11.6951   17.5815 H   0  0  0  0  0  0
  -29.6211  -13.4268   17.6893 H   0  0  0  0  0  0
  -27.9454  -11.2635   18.9940 H   0  0  0  0  0  0
  -27.3790  -12.4223   17.8242 H   0  0  0  0  0  0
  -27.5930  -14.2434   19.4093 H   0  0  0  0  0  0
  -28.7339  -12.2823   21.4638 H   0  0  0  0  0  0
  -28.3982  -13.9708   21.7446 H   0  0  0  0  0  0
  -25.2760   -9.5632   22.4760 H   0  0  0  0  0  0
  -24.0011   -7.4589   22.7431 H   0  0  0  0  0  0
  -21.0873   -8.8759   19.8919 H   0  0  0  0  0  0
  -22.3730  -10.9658   19.6196 H   0  0  0  0  0  0
  -21.1993   -7.6140   23.9740 H   0  0  0  0  0  0
  -21.1521   -6.0505   25.9097 H   0  0  0  0  0  0
  -22.0601   -2.7601   23.2847 H   0  0  0  0  0  0
  -22.4129  -11.9918   22.4929 H   0  0  0  0  0  0
  -21.1046  -13.1157   22.2642 H   0  0  0  0  0  0
  -24.6481  -15.8329   20.5753 H   0  0  0  0  0  0
  -26.2640  -15.6401   20.1187 H   0  0  0  0  0  0
  -26.7288  -32.5384   23.1056 H   0  0  0  0  0  0
  -25.0087  -33.9679   25.0378 H   0  0  0  0  0  0
  -22.7379  -31.3098   21.4133 H   0  0  0  0  0  0
  -23.3761  -35.9594   23.3310 H   0  0  0  0  0  0
  -24.3572  -36.8915   22.2051 H   0  0  0  0  0  0
  -23.7202  -37.6466   23.6657 H   0  0  0  0  0  0
  -26.1384  -31.5068   20.6145 H   0  0  0  0  0  0
  -26.8685  -30.7885   22.0200 H   0  0  0  0  0  0
  -28.1288  -28.8556   21.2104 H   0  0  0  0  0  0
  -25.8258  -25.8955   19.0332 H   0  0  0  0  0  0
  -23.9360  -27.3032   19.0534 H   0  0  0  0  0  0
  -23.8036  -30.6145   19.4299 H   0  0  0  0  0  0
  -22.7625  -29.2868   19.8380 H   0  0  0  0  0  0
  -25.1293  -36.1944   25.0804 H   0  0  0  0  0  0
  -20.9978  -28.3306   24.1393 H   0  0  0  0  0  0
  -20.5783  -26.2342   23.3627 H   0  0  0  0  0  0
  -21.6686  -26.7509   22.1171 H   0  0  0  0  0  0
  -19.6943  -25.6250   21.1323 H   0  0  0  0  0  0
  -19.6662  -27.3136   20.6747 H   0  0  0  0  0  0
  -17.4199  -26.6589   21.4122 H   0  0  0  0  0  0
  -18.0410  -26.0087   22.9128 H   0  0  0  0  0  0
  -19.7960  -30.7305   24.2226 H   0  0  0  0  0  0
  -17.5042  -31.6292   24.5134 H   0  0  0  0  0  0
  -15.5378  -30.2994   23.7680 H   0  0  0  0  0  0
  -15.8688  -28.0807   22.7132 H   0  0  0  0  0  0
  -24.5893  -30.7108   25.7781 H   0  0  0  0  0  0
  -24.8851  -32.2948   26.4801 H   0  0  0  0  0  0
  -25.7965  -30.9017   27.0283 H   0  0  0  0  0  0
  -26.2916  -29.6783   24.1239 H   0  0  0  0  0  0
  -27.3919  -29.7223   25.4799 H   0  0  0  0  0  0
  -27.8842  -30.4238   23.9571 H   0  0  0  0  0  0
  -27.2681  -33.3651   26.2077 H   0  0  0  0  0  0
  -28.3896  -32.6880   25.0378 H   0  0  0  0  0  0
  -28.0711  -31.8488   26.5492 H   0  0  0  0  0  0
  -28.2619  -38.0093   24.7535 H   0  0  0  0  0  0
  -28.1052  -36.2626   24.6280 H   0  0  0  0  0  0
  -27.2304  -37.1455   25.8881 H   0  0  0  0  0  0
  -20.9455  -29.8815   21.6880 H   0  0  0  0  0  0
  -26.0176  -38.2871   24.1419 H   0  0  0  0  0  0
  -28.9105  -20.4739   18.1906 H   0  0  0  0  0  0
  -28.5254  -22.8815   18.0892 H   0  0  0  0  0  0
  -29.2232  -20.7177   22.4402 H   0  0  0  0  0  0
  -26.9932  -18.8464   19.2914 H   0  0  0  0  0  0
  -27.6278  -17.1359   19.4021 H   0  0  0  0  0  0
  -27.8487  -17.3641   21.9120 H   0  0  0  0  0  0
  -27.1707  -19.0612   21.7825 H   0  0  0  0  0  0
  -26.9385  -24.6037   20.7282 H   0  0  0  0  0  0
  -27.4383  -24.6610   19.0600 H   0  0  0  0  0  0
  -30.8667  -17.8113   21.1177 H   0  0  0  0  0  0
  -30.6307  -17.6810   19.4103 H   0  0  0  0  0  0
  -28.8390  -15.8283   20.6887 H   0  0  0  0  0  0
  1 25  1  0  0  0
  1 30  2  0  0  0
  1 82  1  0  0  0
  2  3  1  0  0  0
  2 25  1  0  0  0
  2 84  1  0  0  0
  2 85  1  0  0  0
  3  4  1  0  0  0
  3 86  1  0  0  0
  3 87  1  0  0  0
  4  5  1  0  0  0
  4 88  1  0  0  0
  4 89  1  0  0  0
  5  6  1  0  0  0
  5 26  1  0  0  0
  5 90  1  0  0  0
  6 25  1  0  0  0
  6 91  1  0  0  0
  6 92  1  0  0  0
  7  8  2  0  0  0
  7 26  1  0  0  0
  7 29  1  0  0  0
  8  9  1  0  0  0
  8 22  1  0  0  0
  9 10  1  0  0  0
  9 27  2  0  0  0
 10 11  2  0  0  0
 10 15  1  0  0  0
 11 12  1  0  0  0
 11 93  1  0  0  0
 12 13  2  0  0  0
 12 94  1  0  0  0
 13 14  1  0  0  0
 13 31  1  0  0  0
 14 15  2  0  0  0
 14 95  1  0  0  0
 15 96  1  0  0  0
 16 17  2  0  0  0
 16 21  1  0  0  0
 16 31  1  0  0  0
 17 18  1  0  0  0
 17 97  1  0  0  0
 18 19  2  0  0  0
 18 98  1  0  0  0
 19 20  1  0  0  0
 19 24  1  0  0  0
 20 21  2  0  0  0
 20 99  1  0  0  0
 21 23  1  0  0  0
 22 28  1  0  0  0
 22 32  2  0  0  0
 26 27  1  0  0  0
 28100  1  0  0  0
 28101  1  0  0  0
 29102  1  0  0  0
 29103  1  0  0  0
 33 34  1  0  0  0
 33 66  1  0  0  0
 33 70  2  0  0  0
 34 36  1  0  0  0
 34 59  1  0  0  0
 34104  1  0  0  0
 35 44  2  0  0  0
 35 45  1  0  0  0
 35 68  1  0  0  0
 36 56  1  0  0  0
 36105  1  0  0  0
 37 39  1  0  0  0
 37 47  1  0  0  0
 37 66  1  0  0  0
 37106  1  0  0  0
 38 43  2  0  0  0
 38 46  1  0  0  0
 38 47  1  0  0  0
 39 64  1  0  0  0
 39 67  2  0  0  0
 40 52  1  0  0  0
 40 53  2  0  0  0
 40 58  1  0  0  0
 41107  1  0  0  0
 41108  1  0  0  0
 41109  1  0  0  0
 41 48  1  0  0  0
 42 43  1  0  0  0
 42 66  1  0  0  0
 42110  1  0  0  0
 42111  1  0  0  0
 43 44  1  0  0  0
 44112  1  0  0  0
 45 46  2  0  0  0
 45113  1  0  0  0
 46114  1  0  0  0
 47115  1  0  0  0
 47116  1  0  0  0
 48 56  1  0  0  0
 48 65  1  0  0  0
 48117  1  0  0  0
 49 50  1  0  0  0
 49 53  1  0  0  0
 49 64  1  0  0  0
 49118  1  0  0  0
 50 51  1  0  0  0
 50119  1  0  0  0
 50120  1  0  0  0
 51 52  1  0  0  0
 51121  1  0  0  0
 51122  1  0  0  0
 52123  1  0  0  0
 52124  1  0  0  0
 53 54  1  0  0  0
 54 55  2  0  0  0
 54125  1  0  0  0
 55 57  1  0  0  0
 55126  1  0  0  0
 56 69  2  0  0  0
 57 58  2  0  0  0
 57127  1  0  0  0
 58128  1  0  0  0
 59 60  1  0  0  0
 59 61  1  0  0  0
 59 62  1  0  0  0
 60129  1  0  0  0
 60130  1  0  0  0
 60131  1  0  0  0
 61132  1  0  0  0
 61133  1  0  0  0
 61134  1  0  0  0
 62135  1  0  0  0
 62136  1  0  0  0
 62137  1  0  0  0
 63 65  1  0  0  0
 63138  1  0  0  0
 63139  1  0  0  0
 63140  1  0  0  0
 64141  1  0  0  0
 65142  1  0  0  0
 68 80  1  0  0  0
 71 72  2  0  0  0
 71 74  1  0  0  0
 71143  1  0  0  0
 72 75  1  0  0  0
 72144  1  0  0  0
 73 74  2  0  0  0
 73 76  1  0  0  0
 73145  1  0  0  0
 74 79  1  0  0  0
 75 76  2  0  0  0
 75 80  1  0  0  0
 76 83  1  0  0  0
 77 78  1  0  0  0
 77 79  1  0  0  0
 77146  1  0  0  0
 77147  1  0  0  0
 78 79  1  0  0  0
 78148  1  0  0  0
 78149  1  0  0  0
 79 81  1  0  0  0
 80150  1  0  0  0
 80151  1  0  0  0
 81 82  1  0  0  0
 81152  1  0  0  0
 81153  1  0  0  0
 82154  1  0  0  0
M  ISO  4   1 100  68 101  80 101  82 100
M  END
> <chiral flag>
0

> <version>
0

> <s_m_source_file>
/data/baiqing/PycharmProjects/Reinvent-master-3.2/result/LINK_invent/BTK/process_docking_weight1_custom_sum_contain_oxygen_bond_distance_aromatic_linkinvent_7_9_3/rearranged_h_0140.sdf

> <i_m_source_file_index>
94

> <r_mmod_Potential_Energy-OPLS-2005>
413.243072509766

> <r_mmod_Stretch_Energy-OPLS-2005>
187.326202392578

> <r_mmod_Bend_Energy-OPLS-2005>
233.947692871094

> <r_mmod_Torsional_Energy-OPLS-2005>
287.832366943359

> <r_mmod_Improper_Torsional_Energy-OPLS-2005>
12.3459424972534

> <r_mmod_Van_der_Waal_Energy-OPLS-2005>
139.324829101562

> <r_mmod_Electrostatic_Energy-OPLS-2005>
-390.191619873047

> <r_mmod_Solvation_Energy-OPLS-2005>
-206.846130371094

> <b_mmod_Minimization_Converged-OPLS-2005>
0

> <r_mmod_RMS_Derivative-OPLS-2005>
4.09621286392212

$$$$
94
                    3D
 Structure written by MMmdl.
166175  0  0  1  0            999 V2000
  -30.6291  -14.6757   20.3369 C   0  0  0  0  0  0
  -30.4315  -12.3674   19.4612 C   0  0  0  0  0  0
  -29.4936  -12.3431   18.2321 C   0  0  0  0  0  0
  -28.0080  -12.2904   18.6461 C   0  0  0  0  0  0
  -27.6390  -13.2043   19.8496 C   0  0  2  0  0  0
  -28.7013  -13.1602   20.9655 C   0  0  0  0  0  0
  -25.2546  -13.8160   20.5764 C   0  0  0  0  0  0
  -24.1798  -13.0442   20.9228 C   0  0  0  0  0  0
  -24.6332  -11.6907   20.8799 C   0  0  0  0  0  0
  -23.8991  -10.4302   21.0454 C   0  0  0  0  0  0
  -24.3558   -9.4211   21.9219 C   0  0  0  0  0  0
  -23.6259   -8.2233   22.0778 C   0  0  0  0  0  0
  -22.4247   -8.0263   21.3557 C   0  0  0  0  0  0
  -21.9874   -9.0227   20.4659 C   0  0  0  0  0  0
  -22.7179  -10.2118   20.3086 C   0  0  0  0  0  0
  -21.6845   -6.0720   22.5271 C   0  0  0  0  0  0
  -21.4008   -6.5637   23.8199 C   0  0  0  0  0  0
  -21.3666   -5.6802   24.9172 C   0  0  0  0  0  0
  -21.6055   -4.3060   24.7230 C   0  0  0  0  0  0
  -21.8820   -3.8141   23.4350 C   0  0  0  0  0  0
  -21.9197   -4.6950   22.3400 C   0  0  0  0  0  0
  -22.7833  -13.5244   21.1871 C   0  0  0  0  0  0
  -22.1671   -4.2127   21.0981 F   0  0  0  0  0  0
  -21.5625   -3.4548   25.7747 F   0  0  0  0  0  0
  -29.9936  -13.4632   20.3414 N   0  0  0  0  0  0
  -26.2937  -12.9304   20.3399 N   0  0  0  0  0  0
  -25.9262  -11.6482   20.5893 N   0  0  0  0  0  0
  -22.0467  -12.8227   22.0417 N   0  0  0  0  0  0
  -25.4303  -15.1882   20.4168 N   0  0  0  0  0  0
  -31.8603  -14.7483   20.3198 O   0  0  0  0  0  0
  -21.6636   -6.8846   21.4227 O   0  0  0  0  0  0
  -22.3531  -14.5561   20.6718 O   0  0  0  0  0  0
  -24.6229  -31.8623   23.2068 C   0  0  0  0  0  0
  -25.9089  -32.4790   23.8392 C   0  0  1  0  0  0
  -27.2232  -27.3511   20.1274 C   0  0  0  0  0  0
  -25.5923  -33.8592   24.2324 N   0  0  0  0  0  0
  -23.4145  -30.4884   21.5486 C   0  0  2  0  0  0
  -24.8616  -28.9505   20.1093 C   0  0  0  0  0  0
  -22.7447  -29.4644   22.4949 C   0  0  0  0  0  0
  -18.0274  -28.1385   22.8493 C   0  0  0  0  0  0
  -24.1487  -36.7306   23.2643 C   0  0  0  0  0  0
  -25.9528  -30.8064   21.3715 C   0  0  0  0  0  0
  -26.0278  -29.4373   20.7134 C   0  0  0  0  0  0
  -27.2128  -28.6497   20.7112 C   0  0  0  0  0  0
  -26.0375  -26.9134   19.4912 C   0  0  0  0  0  0
  -24.8672  -27.6937   19.4862 C   0  0  0  0  0  0
  -23.6261  -29.8238   20.1627 C   0  0  0  0  0  0
  -25.4106  -36.3095   24.0342 C   0  0  1  0  0  0
  -20.5872  -28.3689   23.1291 C   0  0  2  0  0  0
  -20.6766  -26.9413   22.5409 C   0  0  0  0  0  0
  -19.5741  -26.6385   21.5213 C   0  0  0  0  0  0
  -18.1917  -26.7939   22.1616 C   0  0  0  0  0  0
  -19.1526  -28.8853   23.2892 C   0  0  0  0  0  0
  -18.9452  -30.1463   23.8893 C   0  0  0  0  0  0
  -17.6452  -30.6597   24.0561 C   0  0  0  0  0  0
  -25.9043  -34.9459   23.5133 C   0  0  0  0  0  0
  -16.5341  -29.9092   23.6338 C   0  0  0  0  0  0
  -16.7262  -28.6503   23.0374 C   0  0  0  0  0  0
  -26.4502  -31.6581   25.0741 C   0  0  0  0  0  0
  -25.3754  -31.3676   26.1471 C   0  0  0  0  0  0
  -27.0361  -30.3019   24.6180 C   0  0  0  0  0  0
  -27.6070  -32.4305   25.7507 C   0  0  0  0  0  0
  -27.5587  -37.1797   24.8462 C   0  0  0  0  0  0
  -21.4162  -29.3052   22.3685 N   0  0  0  0  0  0
  -26.4293  -37.3781   23.9415 N   0  0  0  0  0  0
  -24.6824  -31.0675   22.0997 N   0  0  0  0  0  0
  -23.4185  -28.8174   23.3009 O   0  0  0  0  0  0
  -28.3403  -26.5144   20.2099 O   0  0  0  0  0  0
  -26.5605  -34.8909   22.4695 O   0  0  0  0  0  0
  -23.5401  -32.1396   23.7424 O   0  0  0  0  0  0
  -28.5681  -15.6928   17.5652 C   0  0  0  0  0  0
  -29.5513  -16.8021   17.3416 C   0  0  0  0  0  0
  -28.6169  -17.9372   20.2266 C   0  0  0  0  0  0
  -30.6180  -17.6405   21.5385 C   0  0  0  0  0  0
  -28.8102  -19.4786   20.1161 C   0  0  0  0  0  0
  -30.8258  -19.2064   21.5479 C   0  0  0  0  0  0
  -29.8945  -15.6656   18.3151 C   0  0  0  0  0  0
  -29.9852  -17.1923   20.2019 C   0  0  1  0  0  0
  -28.8009  -22.5568   20.7767 C   0  0  0  0  0  0
  -29.2022  -24.0893   20.7152 C   0  0  0  0  0  0
  -29.9678  -21.5226   21.0448 C   0  0  0  0  0  0
  -28.0783  -25.0694   20.2134 C   0  0  0  0  0  0
  -29.9107  -15.7283   19.7851 N   0  0  0  0  0  0
  -29.6156  -20.0550   21.2311 N   0  3  1  0  0  0
  -31.4676  -12.4893   19.1406 H   0  0  0  0  0  0
  -30.3840  -11.4185   19.9982 H   0  0  0  0  0  0
  -29.7236  -11.4681   17.6211 H   0  0  0  0  0  0
  -29.6730  -13.1853   17.5743 H   0  0  0  0  0  0
  -27.7955  -11.2522   18.9009 H   0  0  0  0  0  0
  -27.3713  -12.5219   17.7918 H   0  0  0  0  0  0
  -27.6207  -14.2215   19.4773 H   0  0  0  0  0  0
  -28.7261  -12.1841   21.4526 H   0  0  0  0  0  0
  -28.4699  -13.8944   21.7399 H   0  0  0  0  0  0
  -25.2687   -9.5714   22.4813 H   0  0  0  0  0  0
  -23.9987   -7.4627   22.7494 H   0  0  0  0  0  0
  -21.0822   -8.8716   19.8944 H   0  0  0  0  0  0
  -22.3616  -10.9665   19.6208 H   0  0  0  0  0  0
  -21.1999   -7.6147   23.9680 H   0  0  0  0  0  0
  -21.1494   -6.0552   25.9075 H   0  0  0  0  0  0
  -22.0594   -2.7601   23.2862 H   0  0  0  0  0  0
  -22.4093  -11.9881   22.4790 H   0  0  0  0  0  0
  -21.1081  -13.1248   22.2610 H   0  0  0  0  0  0
  -24.6729  -15.8497   20.5460 H   0  0  0  0  0  0
  -26.2955  -15.6222   20.1235 H   0  0  0  0  0  0
  -26.7158  -32.5493   23.1149 H   0  0  0  0  0  0
  -25.0066  -33.9733   25.0465 H   0  0  0  0  0  0
  -22.7073  -31.3091   21.4082 H   0  0  0  0  0  0
  -23.3763  -35.9624   23.3266 H   0  0  0  0  0  0
  -24.3567  -36.8971   22.2061 H   0  0  0  0  0  0
  -23.7220  -37.6485   23.6689 H   0  0  0  0  0  0
  -26.0786  -31.5712   20.6037 H   0  0  0  0  0  0
  -26.8352  -30.8545   21.9980 H   0  0  0  0  0  0
  -28.1062  -29.0155   21.1979 H   0  0  0  0  0  0
  -25.9881  -25.9520   19.0033 H   0  0  0  0  0  0
  -23.9726  -27.3174   19.0078 H   0  0  0  0  0  0
  -23.7332  -30.6002   19.4052 H   0  0  0  0  0  0
  -22.7480  -29.2464   19.8676 H   0  0  0  0  0  0
  -25.1278  -36.1961   25.0834 H   0  0  0  0  0  0
  -20.9969  -28.3272   24.1409 H   0  0  0  0  0  0
  -20.5681  -26.2293   23.3603 H   0  0  0  0  0  0
  -21.6633  -26.7444   22.1202 H   0  0  0  0  0  0
  -19.6899  -25.6298   21.1249 H   0  0  0  0  0  0
  -19.6690  -27.3187   20.6742 H   0  0  0  0  0  0
  -17.4193  -26.6708   21.4014 H   0  0  0  0  0  0
  -18.0290  -26.0074   22.8998 H   0  0  0  0  0  0
  -19.7922  -30.7286   24.2262 H   0  0  0  0  0  0
  -17.5002  -31.6278   24.5159 H   0  0  0  0  0  0
  -15.5343  -30.2998   23.7660 H   0  0  0  0  0  0
  -15.8660  -28.0820   22.7106 H   0  0  0  0  0  0
  -24.5927  -30.7036   25.7782 H   0  0  0  0  0  0
  -24.8943  -32.2820   26.4954 H   0  0  0  0  0  0
  -25.8096  -30.8803   27.0212 H   0  0  0  0  0  0
  -26.2936  -29.6732   24.1254 H   0  0  0  0  0  0
  -27.4124  -29.7311   25.4681 H   0  0  0  0  0  0
  -27.8772  -30.4320   23.9363 H   0  0  0  0  0  0
  -27.2703  -33.3611   26.2089 H   0  0  0  0  0  0
  -28.3880  -32.6848   25.0328 H   0  0  0  0  0  0
  -28.0741  -31.8419   26.5415 H   0  0  0  0  0  0
  -28.2587  -38.0113   24.7542 H   0  0  0  0  0  0
  -28.1106  -36.2644   24.6267 H   0  0  0  0  0  0
  -27.2292  -37.1415   25.8860 H   0  0  0  0  0  0
  -20.9327  -29.8789   21.6909 H   0  0  0  0  0  0
  -26.0190  -38.2859   24.1429 H   0  0  0  0  0  0
  -28.4271  -14.9859   16.7518 H   0  0  0  0  0  0
  -27.6548  -15.9524   18.0925 H   0  0  0  0  0  0
  -29.2559  -17.7909   17.6730 H   0  0  0  0  0  0
  -30.0712  -16.8054   16.3854 H   0  0  0  0  0  0
  -27.9580  -17.6276   19.4215 H   0  0  0  0  0  0
  -28.0620  -17.6886   21.1327 H   0  0  0  0  0  0
  -30.0047  -17.3267   22.3848 H   0  0  0  0  0  0
  -31.5888  -17.1642   21.6758 H   0  0  0  0  0  0
  -27.8327  -19.9610   20.0954 H   0  0  0  0  0  0
  -29.2917  -19.7224   19.1688 H   0  0  0  0  0  0
  -31.6092  -19.4475   20.8276 H   0  0  0  0  0  0
  -31.2206  -19.5086   22.5191 H   0  0  0  0  0  0
  -30.6897  -15.0584   17.8825 H   0  0  0  0  0  0
  -30.6333  -17.6655   19.4621 H   0  0  0  0  0  0
  -28.3190  -22.3012   19.8329 H   0  0  0  0  0  0
  -28.0343  -22.4346   21.5423 H   0  0  0  0  0  0
  -30.0720  -24.2040   20.0675 H   0  0  0  0  0  0
  -29.5251  -24.4031   21.7088 H   0  0  0  0  0  0
  -30.5085  -21.8467   21.9353 H   0  0  0  0  0  0
  -30.6838  -21.6002   20.2247 H   0  0  0  0  0  0
  -27.1962  -24.8767   20.8275 H   0  0  0  0  0  0
  -27.8232  -24.7698   19.1965 H   0  0  0  0  0  0
  -29.0298  -20.0087   22.0525 H   0  0  0  0  0  0
  1 25  1  0  0  0
  1 30  2  0  0  0
  1 83  1  0  0  0
  2  3  1  0  0  0
  2 25  1  0  0  0
  2 85  1  0  0  0
  2 86  1  0  0  0
  3  4  1  0  0  0
  3 87  1  0  0  0
  3 88  1  0  0  0
  4  5  1  0  0  0
  4 89  1  0  0  0
  4 90  1  0  0  0
  5  6  1  0  0  0
  5 26  1  0  0  0
  5 91  1  0  0  0
  6 25  1  0  0  0
  6 92  1  0  0  0
  6 93  1  0  0  0
  7  8  2  0  0  0
  7 26  1  0  0  0
  7 29  1  0  0  0
  8  9  1  0  0  0
  8 22  1  0  0  0
  9 10  1  0  0  0
  9 27  2  0  0  0
 10 11  2  0  0  0
 10 15  1  0  0  0
 11 12  1  0  0  0
 11 94  1  0  0  0
 12 13  2  0  0  0
 12 95  1  0  0  0
 13 14  1  0  0  0
 13 31  1  0  0  0
 14 15  2  0  0  0
 14 96  1  0  0  0
 15 97  1  0  0  0
 16 17  2  0  0  0
 16 21  1  0  0  0
 16 31  1  0  0  0
 17 18  1  0  0  0
 17 98  1  0  0  0
 18 19  2  0  0  0
 18 99  1  0  0  0
 19 20  1  0  0  0
 19 24  1  0  0  0
 20 21  2  0  0  0
 20100  1  0  0  0
 21 23  1  0  0  0
 22 28  1  0  0  0
 22 32  2  0  0  0
 26 27  1  0  0  0
 28101  1  0  0  0
 28102  1  0  0  0
 29103  1  0  0  0
 29104  1  0  0  0
 33 34  1  0  0  0
 33 66  1  0  0  0
 33 70  2  0  0  0
 34 36  1  0  0  0
 34 59  1  0  0  0
 34105  1  0  0  0
 35 44  2  0  0  0
 35 45  1  0  0  0
 35 68  1  0  0  0
 36 56  1  0  0  0
 36106  1  0  0  0
 37 39  1  0  0  0
 37 47  1  0  0  0
 37 66  1  0  0  0
 37107  1  0  0  0
 38 43  2  0  0  0
 38 46  1  0  0  0
 38 47  1  0  0  0
 39 64  1  0  0  0
 39 67  2  0  0  0
 40 52  1  0  0  0
 40 53  2  0  0  0
 40 58  1  0  0  0
 41108  1  0  0  0
 41109  1  0  0  0
 41110  1  0  0  0
 41 48  1  0  0  0
 42 43  1  0  0  0
 42 66  1  0  0  0
 42111  1  0  0  0
 42112  1  0  0  0
 43 44  1  0  0  0
 44113  1  0  0  0
 45 46  2  0  0  0
 45114  1  0  0  0
 46115  1  0  0  0
 47116  1  0  0  0
 47117  1  0  0  0
 48 56  1  0  0  0
 48 65  1  0  0  0
 48118  1  0  0  0
 49 50  1  0  0  0
 49 53  1  0  0  0
 49 64  1  0  0  0
 49119  1  0  0  0
 50 51  1  0  0  0
 50120  1  0  0  0
 50121  1  0  0  0
 51 52  1  0  0  0
 51122  1  0  0  0
 51123  1  0  0  0
 52124  1  0  0  0
 52125  1  0  0  0
 53 54  1  0  0  0
 54 55  2  0  0  0
 54126  1  0  0  0
 55 57  1  0  0  0
 55127  1  0  0  0
 56 69  2  0  0  0
 57 58  2  0  0  0
 57128  1  0  0  0
 58129  1  0  0  0
 59 60  1  0  0  0
 59 61  1  0  0  0
 59 62  1  0  0  0
 60130  1  0  0  0
 60131  1  0  0  0
 60132  1  0  0  0
 61133  1  0  0  0
 61134  1  0  0  0
 61135  1  0  0  0
 62136  1  0  0  0
 62137  1  0  0  0
 62138  1  0  0  0
 63 65  1  0  0  0
 63139  1  0  0  0
 63140  1  0  0  0
 63141  1  0  0  0
 64142  1  0  0  0
 65143  1  0  0  0
 68 82  1  0  0  0
 71 72  1  0  0  0
 71 77  1  0  0  0
 71144  1  0  0  0
 71145  1  0  0  0
 72 77  1  0  0  0
 72146  1  0  0  0
 72147  1  0  0  0
 73 75  1  0  0  0
 73 78  1  0  0  0
 73148  1  0  0  0
 73149  1  0  0  0
 74 76  1  0  0  0
 74 78  1  0  0  0
 74150  1  0  0  0
 74151  1  0  0  0
 75 84  1  0  0  0
 75152  1  0  0  0
 75153  1  0  0  0
 76 84  1  0  0  0
 76154  1  0  0  0
 76155  1  0  0  0
 77 83  1  0  0  0
 77156  1  0  0  0
 78 83  1  0  0  0
 78157  1  0  0  0
 79 80  1  0  0  0
 79 81  1  0  0  0
 79158  1  0  0  0
 79159  1  0  0  0
 80 82  1  0  0  0
 80160  1  0  0  0
 80161  1  0  0  0
 81162  1  0  0  0
 81163  1  0  0  0
 81 84  1  0  0  0
 82164  1  0  0  0
 82165  1  0  0  0
 84166  1  0  0  0
M  CHG  1  84   1
M  ISO  4   1 100  68 101  82 101  83 100
M  END
> <chiral flag>
0

> <version>
0

> <s_m_source_file>
/data/baiqing/PycharmProjects/Reinvent-master-3.2/result/LINK_invent/BTK/process_docking_weight1_custom_sum_contain_oxygen_bond_distance_aromatic_linkinvent_7_9_3/rearranged_h_0140.sdf

> <i_m_source_file_index>
95

> <r_mmod_Potential_Energy-OPLS-2005>
352.415893554688

> <r_mmod_Stretch_Energy-OPLS-2005>
78.7216186523438

> <r_mmod_Bend_Energy-OPLS-2005>
170.709274291992

> <r_mmod_Torsional_Energy-OPLS-2005>
422.091918945312

> <r_mmod_Improper_Torsional_Energy-OPLS-2005>
22.4954147338867

> <r_mmod_Van_der_Waal_Energy-OPLS-2005>
144.381530761719

> <r_mmod_Electrostatic_Energy-OPLS-2005>
-126.884872436523

> <r_mmod_Solvation_Energy-OPLS-2005>
-430.729400634766

> <b_mmod_Minimization_Converged-OPLS-2005>
0

> <r_mmod_RMS_Derivative-OPLS-2005>
2.05702996253967

$$$$
95
                    3D
 Structure written by MMmdl.
166175  0  0  1  0            999 V2000
  -30.7384  -14.5710   20.4821 C   0  0  0  0  0  0
  -30.4130  -12.3539   19.4454 C   0  0  0  0  0  0
  -29.4952  -12.4983   18.2152 C   0  0  0  0  0  0
  -28.0203  -12.3505   18.6334 C   0  0  0  0  0  0
  -27.6509  -13.2317   19.8577 C   0  0  2  0  0  0
  -28.7055  -13.1268   20.9849 C   0  0  0  0  0  0
  -25.2550  -13.8200   20.5712 C   0  0  0  0  0  0
  -24.1837  -13.0457   20.9206 C   0  0  0  0  0  0
  -24.6419  -11.6921   20.8743 C   0  0  0  0  0  0
  -23.9088  -10.4302   21.0397 C   0  0  0  0  0  0
  -24.3623   -9.4219   21.9186 C   0  0  0  0  0  0
  -23.6300   -8.2253   22.0750 C   0  0  0  0  0  0
  -22.4286   -8.0280   21.3539 C   0  0  0  0  0  0
  -21.9925   -9.0258   20.4642 C   0  0  0  0  0  0
  -22.7251  -10.2139   20.3055 C   0  0  0  0  0  0
  -21.6859   -6.0739   22.5285 C   0  0  0  0  0  0
  -21.4016   -6.5642   23.8217 C   0  0  0  0  0  0
  -21.3664   -5.6793   24.9178 C   0  0  0  0  0  0
  -21.6044   -4.3055   24.7226 C   0  0  0  0  0  0
  -21.8820   -3.8149   23.4345 C   0  0  0  0  0  0
  -21.9195   -4.6969   22.3404 C   0  0  0  0  0  0
  -22.7849  -13.5216   21.1859 C   0  0  0  0  0  0
  -22.1664   -4.2151   21.0984 F   0  0  0  0  0  0
  -21.5627   -3.4540   25.7741 F   0  0  0  0  0  0
  -30.0217  -13.4098   20.3978 N   0  0  0  0  0  0
  -26.3005  -12.9420   20.3357 N   0  0  0  0  0  0
  -25.9362  -11.6561   20.5789 N   0  0  0  0  0  0
  -22.0491  -12.8210   22.0403 N   0  0  0  0  0  0
  -25.4263  -15.1927   20.4112 N   0  0  0  0  0  0
  -31.9367  -14.5950   20.2112 O   0  0  0  0  0  0
  -21.6646   -6.8878   21.4239 O   0  0  0  0  0  0
  -22.3540  -14.5536   20.6710 O   0  0  0  0  0  0
  -24.6198  -31.8608   23.2047 C   0  0  0  0  0  0
  -25.9069  -32.4778   23.8349 C   0  0  1  0  0  0
  -27.2392  -27.3595   20.1052 C   0  0  0  0  0  0
  -25.5917  -33.8588   24.2265 N   0  0  0  0  0  0
  -23.4132  -30.4805   21.5472 C   0  0  2  0  0  0
  -24.8635  -28.9410   20.1115 C   0  0  0  0  0  0
  -22.7444  -29.4586   22.4955 C   0  0  0  0  0  0
  -18.0278  -28.1387   22.8440 C   0  0  0  0  0  0
  -24.1491  -36.7267   23.2642 C   0  0  0  0  0  0
  -25.9519  -30.7986   21.3771 C   0  0  0  0  0  0
  -26.0285  -29.4324   20.7126 C   0  0  0  0  0  0
  -27.2165  -28.6517   20.7023 C   0  0  0  0  0  0
  -26.0480  -26.9022   19.4940 C   0  0  0  0  0  0
  -24.8719  -27.6784   19.4993 C   0  0  0  0  0  0
  -23.6280  -29.8144   20.1611 C   0  0  0  0  0  0
  -25.4120  -36.3070   24.0322 C   0  0  1  0  0  0
  -20.5876  -28.3640   23.1301 C   0  0  2  0  0  0
  -20.6769  -26.9381   22.5406 C   0  0  0  0  0  0
  -19.5769  -26.6374   21.5198 C   0  0  0  0  0  0
  -18.1932  -26.7921   22.1583 C   0  0  0  0  0  0
  -19.1537  -28.8830   23.2851 C   0  0  0  0  0  0
  -18.9465  -30.1431   23.8866 C   0  0  0  0  0  0
  -17.6476  -30.6584   24.0538 C   0  0  0  0  0  0
  -25.9059  -34.9451   23.5092 C   0  0  0  0  0  0
  -16.5358  -29.9074   23.6334 C   0  0  0  0  0  0
  -16.7266  -28.6507   23.0323 C   0  0  0  0  0  0
  -26.4480  -31.6626   25.0740 C   0  0  0  0  0  0
  -25.3701  -31.3807   26.1457 C   0  0  0  0  0  0
  -27.0364  -30.3061   24.6218 C   0  0  0  0  0  0
  -27.6013  -32.4387   25.7525 C   0  0  0  0  0  0
  -27.5579  -37.1790   24.8463 C   0  0  0  0  0  0
  -21.4161  -29.3013   22.3701 N   0  0  0  0  0  0
  -26.4300  -37.3774   23.9391 N   0  0  0  0  0  0
  -24.6792  -31.0617   22.1000 N   0  0  0  0  0  0
  -23.4172  -28.8101   23.3012 O   0  0  0  0  0  0
  -28.3936  -26.5744   20.1402 O   0  0  0  0  0  0
  -26.5623  -34.8923   22.4660 O   0  0  0  0  0  0
  -23.5364  -32.1438   23.7371 O   0  0  0  0  0  0
  -28.8931  -22.0506   19.2115 C   0  0  0  0  0  0
  -30.0412  -21.9214   21.3128 C   0  0  0  0  0  0
  -29.5323  -19.8033   20.1018 C   0  0  0  0  0  0
  -29.4620  -22.7294   20.3053 C   0  0  0  0  0  0
  -28.9065  -20.6342   19.1112 C   0  0  0  0  0  0
  -30.0736  -20.4973   21.2315 C   0  0  0  0  0  0
  -30.0377  -17.7056   18.5518 C   0  0  0  0  0  0
  -29.5687  -18.2279   19.9330 C   0  0  1  0  0  0
  -31.3927  -17.3777   19.1648 C   0  0  2  0  0  0
  -30.6056  -17.1470   20.4855 C   0  0  2  0  0  0
  -28.2121  -20.0720   17.8803 C   0  0  0  0  0  0
  -30.7052  -19.7612   22.4015 C   0  0  0  0  0  0
  -32.4821  -18.4558   19.1026 C   0  0  0  0  0  0
  -29.5310  -24.2855   20.3715 C   0  0  0  0  0  0
  -28.2674  -25.1257   19.9580 C   0  0  0  0  0  0
  -30.0554  -15.7434   20.6235 N   0  0  0  0  0  0
  -31.4603  -12.4192   19.1459 H   0  0  0  0  0  0
  -30.2951  -11.3687   19.9010 H   0  0  0  0  0  0
  -29.7465  -11.7501   17.4619 H   0  0  0  0  0  0
  -29.6531  -13.4707   17.7468 H   0  0  0  0  0  0
  -27.8526  -11.2991   18.8713 H   0  0  0  0  0  0
  -27.3637  -12.5784   17.7931 H   0  0  0  0  0  0
  -27.6584  -14.2615   19.5000 H   0  0  0  0  0  0
  -28.7026  -12.1299   21.4284 H   0  0  0  0  0  0
  -28.4806  -13.8219   21.7963 H   0  0  0  0  0  0
  -25.2761   -9.5698   22.4765 H   0  0  0  0  0  0
  -24.0016   -7.4641   22.7465 H   0  0  0  0  0  0
  -21.0863   -8.8766   19.8933 H   0  0  0  0  0  0
  -22.3707  -10.9674   19.6162 H   0  0  0  0  0  0
  -21.2009   -7.6149   23.9721 H   0  0  0  0  0  0
  -21.1483   -6.0523   25.9082 H   0  0  0  0  0  0
  -22.0591   -2.7609   23.2850 H   0  0  0  0  0  0
  -22.4097  -11.9872   22.4794 H   0  0  0  0  0  0
  -21.1097  -13.1211   22.2577 H   0  0  0  0  0  0
  -24.6577  -15.8466   20.5114 H   0  0  0  0  0  0
  -26.2766  -15.6280   20.0782 H   0  0  0  0  0  0
  -26.7109  -32.5448   23.1072 H   0  0  0  0  0  0
  -25.0027  -33.9745   25.0370 H   0  0  0  0  0  0
  -22.7063  -31.2984   21.4025 H   0  0  0  0  0  0
  -23.3768  -35.9590   23.3343 H   0  0  0  0  0  0
  -24.3565  -36.8879   22.2052 H   0  0  0  0  0  0
  -23.7266  -37.6478   23.6662 H   0  0  0  0  0  0
  -26.0915  -31.5701   20.6170 H   0  0  0  0  0  0
  -26.8284  -30.8335   22.0119 H   0  0  0  0  0  0
  -28.1152  -29.0216   21.1776 H   0  0  0  0  0  0
  -26.0038  -25.9375   19.0083 H   0  0  0  0  0  0
  -23.9787  -27.2898   19.0293 H   0  0  0  0  0  0
  -23.7428  -30.5908   19.4049 H   0  0  0  0  0  0
  -22.7507  -29.2398   19.8564 H   0  0  0  0  0  0
  -25.1329  -36.1908   25.0829 H   0  0  0  0  0  0
  -20.9940  -28.3200   24.1433 H   0  0  0  0  0  0
  -20.5691  -26.2229   23.3577 H   0  0  0  0  0  0
  -21.6627  -26.7424   22.1196 H   0  0  0  0  0  0
  -19.6949  -25.6295   21.1215 H   0  0  0  0  0  0
  -19.6750  -27.3174   20.6734 H   0  0  0  0  0  0
  -17.4204  -26.6642   21.3981 H   0  0  0  0  0  0
  -18.0321  -26.0086   22.9007 H   0  0  0  0  0  0
  -19.7963  -30.7223   24.2234 H   0  0  0  0  0  0
  -17.5058  -31.6279   24.5107 H   0  0  0  0  0  0
  -15.5360  -30.2962   23.7741 H   0  0  0  0  0  0
  -15.8656  -28.0841   22.7057 H   0  0  0  0  0  0
  -24.5799  -30.7272   25.7767 H   0  0  0  0  0  0
  -24.8963  -32.3011   26.4880 H   0  0  0  0  0  0
  -25.7963  -30.8929   27.0227 H   0  0  0  0  0  0
  -26.2957  -29.6756   24.1281 H   0  0  0  0  0  0
  -27.4157  -29.7390   25.4734 H   0  0  0  0  0  0
  -27.8769  -30.4397   23.9402 H   0  0  0  0  0  0
  -27.2588  -33.3671   26.2102 H   0  0  0  0  0  0
  -28.3809  -32.7001   25.0366 H   0  0  0  0  0  0
  -28.0682  -31.8522   26.5452 H   0  0  0  0  0  0
  -28.2591  -38.0089   24.7504 H   0  0  0  0  0  0
  -28.1093  -36.2621   24.6300 H   0  0  0  0  0  0
  -27.2279  -37.1434   25.8866 H   0  0  0  0  0  0
  -20.9333  -29.8704   21.6894 H   0  0  0  0  0  0
  -26.0177  -38.2846   24.1437 H   0  0  0  0  0  0
  -28.4451  -22.6291   18.4163 H   0  0  0  0  0  0
  -30.4822  -22.4116   22.1717 H   0  0  0  0  0  0
  -30.1271  -18.4199   17.7387 H   0  0  0  0  0  0
  -29.4999  -16.8153   18.2218 H   0  0  0  0  0  0
  -28.5543  -17.8866   20.1439 H   0  0  0  0  0  0
  -31.7650  -16.4713   18.6936 H   0  0  0  0  0  0
  -31.1790  -17.4407   21.3594 H   0  0  0  0  0  0
  -27.3116  -20.6407   17.6529 H   0  0  0  0  0  0
  -27.9029  -19.0347   17.9931 H   0  0  0  0  0  0
  -28.8770  -20.1558   17.0197 H   0  0  0  0  0  0
  -30.7543  -20.3947   23.2872 H   0  0  0  0  0  0
  -31.7248  -19.4593   22.1579 H   0  0  0  0  0  0
  -30.1295  -18.8805   22.6805 H   0  0  0  0  0  0
  -33.3773  -18.1556   19.6477 H   0  0  0  0  0  0
  -32.1598  -19.4087   19.5194 H   0  0  0  0  0  0
  -32.7813  -18.6482   18.0720 H   0  0  0  0  0  0
  -30.3680  -24.5871   19.7432 H   0  0  0  0  0  0
  -29.8132  -24.5635   21.3859 H   0  0  0  0  0  0
  -27.4236  -24.7671   20.5499 H   0  0  0  0  0  0
  -28.0422  -24.9242   18.9106 H   0  0  0  0  0  0
  -29.0749  -15.6630   20.8418 H   0  0  0  0  0  0
  1 25  1  0  0  0
  1 30  2  0  0  0
  1 86  1  0  0  0
  2  3  1  0  0  0
  2 25  1  0  0  0
  2 87  1  0  0  0
  2 88  1  0  0  0
  3  4  1  0  0  0
  3 89  1  0  0  0
  3 90  1  0  0  0
  4  5  1  0  0  0
  4 91  1  0  0  0
  4 92  1  0  0  0
  5  6  1  0  0  0
  5 26  1  0  0  0
  5 93  1  0  0  0
  6 25  1  0  0  0
  6 94  1  0  0  0
  6 95  1  0  0  0
  7  8  2  0  0  0
  7 26  1  0  0  0
  7 29  1  0  0  0
  8  9  1  0  0  0
  8 22  1  0  0  0
  9 10  1  0  0  0
  9 27  2  0  0  0
 10 11  2  0  0  0
 10 15  1  0  0  0
 11 12  1  0  0  0
 11 96  1  0  0  0
 12 13  2  0  0  0
 12 97  1  0  0  0
 13 14  1  0  0  0
 13 31  1  0  0  0
 14 15  2  0  0  0
 14 98  1  0  0  0
 15 99  1  0  0  0
 16 17  2  0  0  0
 16 21  1  0  0  0
 16 31  1  0  0  0
 17 18  1  0  0  0
 17100  1  0  0  0
 18 19  2  0  0  0
 18101  1  0  0  0
 19 20  1  0  0  0
 19 24  1  0  0  0
 20 21  2  0  0  0
 20102  1  0  0  0
 21 23  1  0  0  0
 22 28  1  0  0  0
 22 32  2  0  0  0
 26 27  1  0  0  0
 28103  1  0  0  0
 28104  1  0  0  0
 29105  1  0  0  0
 29106  1  0  0  0
 33 34  1  0  0  0
 33 66  1  0  0  0
 33 70  2  0  0  0
 34 36  1  0  0  0
 34 59  1  0  0  0
 34107  1  0  0  0
 35 44  2  0  0  0
 35 45  1  0  0  0
 35 68  1  0  0  0
 36 56  1  0  0  0
 36108  1  0  0  0
 37 39  1  0  0  0
 37 47  1  0  0  0
 37 66  1  0  0  0
 37109  1  0  0  0
 38 43  2  0  0  0
 38 46  1  0  0  0
 38 47  1  0  0  0
 39 64  1  0  0  0
 39 67  2  0  0  0
 40 52  1  0  0  0
 40 53  2  0  0  0
 40 58  1  0  0  0
 41110  1  0  0  0
 41111  1  0  0  0
 41112  1  0  0  0
 41 48  1  0  0  0
 42 43  1  0  0  0
 42 66  1  0  0  0
 42113  1  0  0  0
 42114  1  0  0  0
 43 44  1  0  0  0
 44115  1  0  0  0
 45 46  2  0  0  0
 45116  1  0  0  0
 46117  1  0  0  0
 47118  1  0  0  0
 47119  1  0  0  0
 48 56  1  0  0  0
 48 65  1  0  0  0
 48120  1  0  0  0
 49 50  1  0  0  0
 49 53  1  0  0  0
 49 64  1  0  0  0
 49121  1  0  0  0
 50 51  1  0  0  0
 50122  1  0  0  0
 50123  1  0  0  0
 51 52  1  0  0  0
 51124  1  0  0  0
 51125  1  0  0  0
 52126  1  0  0  0
 52127  1  0  0  0
 53 54  1  0  0  0
 54 55  2  0  0  0
 54128  1  0  0  0
 55 57  1  0  0  0
 55129  1  0  0  0
 56 69  2  0  0  0
 57 58  2  0  0  0
 57130  1  0  0  0
 58131  1  0  0  0
 59 60  1  0  0  0
 59 61  1  0  0  0
 59 62  1  0  0  0
 60132  1  0  0  0
 60133  1  0  0  0
 60134  1  0  0  0
 61135  1  0  0  0
 61136  1  0  0  0
 61137  1  0  0  0
 62138  1  0  0  0
 62139  1  0  0  0
 62140  1  0  0  0
 63 65  1  0  0  0
 63141  1  0  0  0
 63142  1  0  0  0
 63143  1  0  0  0
 64144  1  0  0  0
 65145  1  0  0  0
 68 85  1  0  0  0
 71 74  2  0  0  0
 71 75  1  0  0  0
 71146  1  0  0  0
 72 74  1  0  0  0
 72 76  2  0  0  0
 72147  1  0  0  0
 73 75  2  0  0  0
 73 76  1  0  0  0
 73 78  1  0  0  0
 74 84  1  0  0  0
 75 81  1  0  0  0
 76 82  1  0  0  0
 77 78  1  0  0  0
 77 79  1  0  0  0
 77148  1  0  0  0
 77149  1  0  0  0
 78 80  1  0  0  0
 78150  1  0  0  0
 79 80  1  0  0  0
 79 83  1  0  0  0
 79151  1  0  0  0
 80 86  1  0  0  0
 80152  1  0  0  0
 81153  1  0  0  0
 81154  1  0  0  0
 81155  1  0  0  0
 82156  1  0  0  0
 82157  1  0  0  0
 82158  1  0  0  0
 83159  1  0  0  0
 83160  1  0  0  0
 83161  1  0  0  0
 84 85  1  0  0  0
 84162  1  0  0  0
 84163  1  0  0  0
 85164  1  0  0  0
 85165  1  0  0  0
 86166  1  0  0  0
M  ISO  4   1 100  68 101  85 101  86 100
M  END
> <chiral flag>
0

> <version>
0

> <s_m_source_file>
/data/baiqing/PycharmProjects/Reinvent-master-3.2/result/LINK_invent/BTK/process_docking_weight1_custom_sum_contain_oxygen_bond_distance_aromatic_linkinvent_7_9_3/rearranged_h_0140.sdf

> <i_m_source_file_index>
96

> <r_mmod_Potential_Energy-OPLS-2005>
74.7593994140625

> <r_mmod_Stretch_Energy-OPLS-2005>
73.2764282226562

> <r_mmod_Bend_Energy-OPLS-2005>
146.08464050293

> <r_mmod_Torsional_Energy-OPLS-2005>
240.735961914062

> <r_mmod_Improper_Torsional_Energy-OPLS-2005>
5.70419502258301

> <r_mmod_Van_der_Waal_Energy-OPLS-2005>
161.615295410156

> <r_mmod_Electrostatic_Energy-OPLS-2005>
-387.645111083984

> <r_mmod_Solvation_Energy-OPLS-2005>
-204.095184326172

> <b_mmod_Minimization_Converged-OPLS-2005>
0

> <r_mmod_RMS_Derivative-OPLS-2005>
3.64834189414978

$$$$
96
                    3D
 Structure written by MMmdl.
176185  0  0  1  0            999 V2000
  -30.7104  -14.4311   20.6276 C   0  0  0  0  0  0
  -30.4280  -12.3026   19.4069 C   0  0  0  0  0  0
  -29.4948  -12.5211   18.1995 C   0  0  0  0  0  0
  -28.0151  -12.3812   18.6108 C   0  0  0  0  0  0
  -27.6656  -13.2008   19.8821 C   0  0  2  0  0  0
  -28.7059  -12.9405   20.9936 C   0  0  0  0  0  0
  -25.2578  -13.8058   20.5645 C   0  0  0  0  0  0
  -24.1819  -13.0367   20.9151 C   0  0  0  0  0  0
  -24.6393  -11.6850   20.8733 C   0  0  0  0  0  0
  -23.9056  -10.4254   21.0402 C   0  0  0  0  0  0
  -24.3610   -9.4183   21.9187 C   0  0  0  0  0  0
  -23.6279   -8.2225   22.0755 C   0  0  0  0  0  0
  -22.4266   -8.0270   21.3541 C   0  0  0  0  0  0
  -21.9899   -9.0241   20.4643 C   0  0  0  0  0  0
  -22.7229  -10.2113   20.3050 C   0  0  0  0  0  0
  -21.6843   -6.0734   22.5280 C   0  0  0  0  0  0
  -21.4003   -6.5642   23.8216 C   0  0  0  0  0  0
  -21.3652   -5.6794   24.9181 C   0  0  0  0  0  0
  -21.6046   -4.3052   24.7233 C   0  0  0  0  0  0
  -21.8816   -3.8149   23.4348 C   0  0  0  0  0  0
  -21.9189   -4.6967   22.3405 C   0  0  0  0  0  0
  -22.7853  -13.5205   21.1817 C   0  0  0  0  0  0
  -22.1659   -4.2153   21.0978 F   0  0  0  0  0  0
  -21.5632   -3.4534   25.7743 F   0  0  0  0  0  0
  -30.0397  -13.2603   20.4522 N   0  0  0  0  0  0
  -26.3045  -12.9261   20.3395 N   0  0  0  0  0  0
  -25.9327  -11.6428   20.5771 N   0  0  0  0  0  0
  -22.0479  -12.8217   22.0384 N   0  0  0  0  0  0
  -25.4275  -15.1724   20.4007 N   0  0  0  0  0  0
  -31.8098  -14.6558   20.1100 O   0  0  0  0  0  0
  -21.6619   -6.8878   21.4243 O   0  0  0  0  0  0
  -22.3559  -14.5529   20.6687 O   0  0  0  0  0  0
  -24.6109  -31.8699   23.2108 C   0  0  0  0  0  0
  -25.9020  -32.4830   23.8386 C   0  0  1  0  0  0
  -27.2438  -27.4657   20.0903 C   0  0  0  0  0  0
  -25.5900  -33.8629   24.2314 N   0  0  0  0  0  0
  -23.3969  -30.4899   21.5517 C   0  0  2  0  0  0
  -24.8434  -28.9554   20.1156 C   0  0  0  0  0  0
  -22.7397  -29.4647   22.5012 C   0  0  0  0  0  0
  -18.0274  -28.1376   22.8464 C   0  0  0  0  0  0
  -24.1493  -36.7302   23.2644 C   0  0  0  0  0  0
  -25.9210  -30.8412   21.3622 C   0  0  0  0  0  0
  -25.9979  -29.4774   20.7098 C   0  0  0  0  0  0
  -27.1995  -28.7400   20.6920 C   0  0  0  0  0  0
  -26.0691  -26.9447   19.4977 C   0  0  0  0  0  0
  -24.8704  -27.6850   19.5104 C   0  0  0  0  0  0
  -23.6048  -29.8209   20.1654 C   0  0  0  0  0  0
  -25.4115  -36.3108   24.0332 C   0  0  1  0  0  0
  -20.5856  -28.3647   23.1313 C   0  0  2  0  0  0
  -20.6766  -26.9389   22.5409 C   0  0  0  0  0  0
  -19.5753  -26.6380   21.5195 C   0  0  0  0  0  0
  -18.1923  -26.7919   22.1591 C   0  0  0  0  0  0
  -19.1516  -28.8825   23.2878 C   0  0  0  0  0  0
  -18.9455  -30.1435   23.8893 C   0  0  0  0  0  0
  -17.6466  -30.6586   24.0548 C   0  0  0  0  0  0
  -25.9024  -34.9480   23.5119 C   0  0  0  0  0  0
  -16.5353  -29.9081   23.6319 C   0  0  0  0  0  0
  -16.7264  -28.6509   23.0316 C   0  0  0  0  0  0
  -26.4456  -31.6623   25.0712 C   0  0  0  0  0  0
  -25.3713  -31.3752   26.1463 C   0  0  0  0  0  0
  -27.0293  -30.3073   24.6073 C   0  0  0  0  0  0
  -27.6035  -32.4352   25.7474 C   0  0  0  0  0  0
  -27.5582  -37.1811   24.8463 C   0  0  0  0  0  0
  -21.4132  -29.3011   22.3738 N   0  0  0  0  0  0
  -26.4303  -37.3787   23.9394 N   0  0  0  0  0  0
  -24.6610  -31.0806   22.1009 N   0  0  0  0  0  0
  -23.4181  -28.8187   23.3049 O   0  0  0  0  0  0
  -28.4504  -26.8042   20.0957 O   0  0  0  0  0  0
  -26.5590  -34.8938   22.4679 O   0  0  0  0  0  0
  -23.5322  -32.1460   23.7521 O   0  0  0  0  0  0
  -29.5893  -19.0507   21.4358 C   0  0  0  0  0  0
  -31.6375  -17.1982   21.8016 C   0  0  0  0  0  0
  -30.8758  -19.5282   21.7755 C   0  0  0  0  0  0
  -31.9218  -18.5774   21.9547 C   0  0  0  0  0  0
  -30.3459  -16.7415   21.4571 C   0  0  0  0  0  0
  -29.3015  -17.6735   21.2839 C   0  0  0  0  0  0
  -31.7605  -21.6208   20.6312 C   0  0  0  0  0  0
  -29.8437  -21.8784   22.2885 C   0  0  0  0  0  0
  -31.5025  -23.1294   20.4724 C   0  0  0  0  0  0
  -29.1525  -22.5243   21.0672 C   0  0  0  0  0  0
  -31.1007  -21.0483   21.9072 C   0  0  1  0  0  0
  -34.3453  -18.5130   21.2118 C   0  0  0  0  0  0
  -33.7602  -18.4639   23.6961 C   0  0  0  0  0  0
  -26.9868  -18.1484   20.8697 C   0  0  0  0  0  0
  -29.7798  -24.8906   20.5396 C   0  0  0  0  0  0
  -28.4678  -25.3942   19.9090 C   0  0  0  0  0  0
  -33.3613  -18.9727   22.3016 C   0  0  0  0  0  0
  -30.0417  -15.3592   21.3339 N   0  0  0  0  0  0
  -30.0535  -23.4454   20.3126 N   0  3  1  0  0  0
  -28.0458  -17.1955   20.9590 O   0  0  0  0  0  0
  -31.4706  -12.4153   19.1053 H   0  0  0  0  0  0
  -30.3380  -11.2827   19.7833 H   0  0  0  0  0  0
  -29.7314  -11.8110   17.4062 H   0  0  0  0  0  0
  -29.6658  -13.5145   17.7800 H   0  0  0  0  0  0
  -27.8192  -11.3229   18.7896 H   0  0  0  0  0  0
  -27.3663  -12.6744   17.7846 H   0  0  0  0  0  0
  -27.7205  -14.2551   19.6113 H   0  0  0  0  0  0
  -28.6814  -11.8893   21.2862 H   0  0  0  0  0  0
  -28.4618  -13.4930   21.9013 H   0  0  0  0  0  0
  -25.2756   -9.5657   22.4756 H   0  0  0  0  0  0
  -23.9988   -7.4613   22.7470 H   0  0  0  0  0  0
  -21.0835   -8.8764   19.8945 H   0  0  0  0  0  0
  -22.3702  -10.9657   19.6153 H   0  0  0  0  0  0
  -21.1988   -7.6150   23.9724 H   0  0  0  0  0  0
  -21.1476   -6.0521   25.9084 H   0  0  0  0  0  0
  -22.0601   -2.7611   23.2846 H   0  0  0  0  0  0
  -22.4064  -11.9870   22.4781 H   0  0  0  0  0  0
  -21.1095  -13.1259   22.2564 H   0  0  0  0  0  0
  -24.6639  -15.8288   20.5155 H   0  0  0  0  0  0
  -26.3051  -15.6147   20.1548 H   0  0  0  0  0  0
  -26.7083  -32.5536   23.1149 H   0  0  0  0  0  0
  -25.0094  -33.9808   25.0483 H   0  0  0  0  0  0
  -22.6825  -31.3035   21.4141 H   0  0  0  0  0  0
  -23.3764  -35.9627   23.3323 H   0  0  0  0  0  0
  -24.3587  -36.8894   22.2054 H   0  0  0  0  0  0
  -23.7252  -37.6506   23.6652 H   0  0  0  0  0  0
  -26.0297  -31.6091   20.5950 H   0  0  0  0  0  0
  -26.8111  -30.8932   21.9777 H   0  0  0  0  0  0
  -28.0954  -29.1464   21.1403 H   0  0  0  0  0  0
  -26.0610  -25.9801   19.0119 H   0  0  0  0  0  0
  -23.9824  -27.2746   19.0491 H   0  0  0  0  0  0
  -23.7111  -30.5970   19.4071 H   0  0  0  0  0  0
  -22.7295  -29.2387   19.8716 H   0  0  0  0  0  0
  -25.1305  -36.1972   25.0824 H   0  0  0  0  0  0
  -20.9927  -28.3231   24.1440 H   0  0  0  0  0  0
  -20.5682  -26.2258   23.3602 H   0  0  0  0  0  0
  -21.6640  -26.7449   22.1196 H   0  0  0  0  0  0
  -19.6921  -25.6292   21.1218 H   0  0  0  0  0  0
  -19.6709  -27.3191   20.6731 H   0  0  0  0  0  0
  -17.4195  -26.6651   21.3994 H   0  0  0  0  0  0
  -18.0314  -26.0083   22.9004 H   0  0  0  0  0  0
  -19.7952  -30.7221   24.2275 H   0  0  0  0  0  0
  -17.5041  -31.6267   24.5151 H   0  0  0  0  0  0
  -15.5358  -30.2980   23.7678 H   0  0  0  0  0  0
  -15.8659  -28.0853   22.7005 H   0  0  0  0  0  0
  -24.5899  -30.7075   25.7819 H   0  0  0  0  0  0
  -24.8894  -32.2927   26.4858 H   0  0  0  0  0  0
  -25.8070  -30.8980   27.0252 H   0  0  0  0  0  0
  -26.2833  -29.6838   24.1138 H   0  0  0  0  0  0
  -27.4089  -29.7311   25.4520 H   0  0  0  0  0  0
  -27.8649  -30.4401   23.9198 H   0  0  0  0  0  0
  -27.2628  -33.3630   26.2090 H   0  0  0  0  0  0
  -28.3821  -32.6964   25.0289 H   0  0  0  0  0  0
  -28.0728  -31.8461   26.5363 H   0  0  0  0  0  0
  -28.2619  -38.0098   24.7505 H   0  0  0  0  0  0
  -28.1073  -36.2629   24.6309 H   0  0  0  0  0  0
  -27.2293  -37.1467   25.8870 H   0  0  0  0  0  0
  -20.9304  -29.8741   21.6959 H   0  0  0  0  0  0
  -26.0198  -38.2861   24.1420 H   0  0  0  0  0  0
  -28.8025  -19.7677   21.2864 H   0  0  0  0  0  0
  -32.4260  -16.4765   21.9557 H   0  0  0  0  0  0
  -32.8328  -21.4273   20.6331 H   0  0  0  0  0  0
  -31.3730  -21.1092   19.7494 H   0  0  0  0  0  0
  -29.1432  -21.2959   22.8870 H   0  0  0  0  0  0
  -30.1477  -22.6920   22.9494 H   0  0  0  0  0  0
  -32.0488  -23.5172   19.6117 H   0  0  0  0  0  0
  -31.8988  -23.6482   21.3467 H   0  0  0  0  0  0
  -28.2386  -23.0226   21.3891 H   0  0  0  0  0  0
  -28.8267  -21.7507   20.3727 H   0  0  0  0  0  0
  -31.7686  -21.2050   22.7539 H   0  0  0  0  0  0
  -34.0923  -18.9622   20.2502 H   0  0  0  0  0  0
  -34.3441  -17.4313   21.0802 H   0  0  0  0  0  0
  -35.3659  -18.8118   21.4514 H   0  0  0  0  0  0
  -33.0719  -18.8349   24.4576 H   0  0  0  0  0  0
  -34.7584  -18.8091   23.9677 H   0  0  0  0  0  0
  -33.7608  -17.3755   23.7520 H   0  0  0  0  0  0
  -26.0430  -17.6662   20.6303 H   0  0  0  0  0  0
  -27.1689  -18.8813   20.0826 H   0  0  0  0  0  0
  -26.8451  -18.6657   21.8193 H   0  0  0  0  0  0
  -29.7871  -25.1062   21.6091 H   0  0  0  0  0  0
  -30.5958  -25.4707   20.1046 H   0  0  0  0  0  0
  -27.6092  -24.9278   20.3918 H   0  0  0  0  0  0
  -28.4253  -25.1646   18.8439 H   0  0  0  0  0  0
  -33.4658  -20.0522   22.3419 H   0  0  0  0  0  0
  -29.1032  -15.0988   21.5967 H   0  0  0  0  0  0
  -29.8520  -23.2747   19.3355 H   0  0  0  0  0  0
  1 25  1  0  0  0
  1 30  2  0  0  0
  1 88  1  0  0  0
  2  3  1  0  0  0
  2 25  1  0  0  0
  2 91  1  0  0  0
  2 92  1  0  0  0
  3  4  1  0  0  0
  3 93  1  0  0  0
  3 94  1  0  0  0
  4  5  1  0  0  0
  4 95  1  0  0  0
  4 96  1  0  0  0
  5  6  1  0  0  0
  5 26  1  0  0  0
  5 97  1  0  0  0
  6 25  1  0  0  0
  6 98  1  0  0  0
  6 99  1  0  0  0
  7  8  2  0  0  0
  7 26  1  0  0  0
  7 29  1  0  0  0
  8  9  1  0  0  0
  8 22  1  0  0  0
  9 10  1  0  0  0
  9 27  2  0  0  0
 10 11  2  0  0  0
 10 15  1  0  0  0
 11 12  1  0  0  0
 11100  1  0  0  0
 12 13  2  0  0  0
 12101  1  0  0  0
 13 14  1  0  0  0
 13 31  1  0  0  0
 14 15  2  0  0  0
 14102  1  0  0  0
 15103  1  0  0  0
 16 17  2  0  0  0
 16 21  1  0  0  0
 16 31  1  0  0  0
 17 18  1  0  0  0
 17104  1  0  0  0
 18 19  2  0  0  0
 18105  1  0  0  0
 19 20  1  0  0  0
 19 24  1  0  0  0
 20 21  2  0  0  0
 20106  1  0  0  0
 21 23  1  0  0  0
 22 28  1  0  0  0
 22 32  2  0  0  0
 26 27  1  0  0  0
 28107  1  0  0  0
 28108  1  0  0  0
 29109  1  0  0  0
 29110  1  0  0  0
 33 34  1  0  0  0
 33 66  1  0  0  0
 33 70  2  0  0  0
 34 36  1  0  0  0
 34 59  1  0  0  0
 34111  1  0  0  0
 35 44  2  0  0  0
 35 45  1  0  0  0
 35 68  1  0  0  0
 36 56  1  0  0  0
 36112  1  0  0  0
 37 39  1  0  0  0
 37 47  1  0  0  0
 37 66  1  0  0  0
 37113  1  0  0  0
 38 43  2  0  0  0
 38 46  1  0  0  0
 38 47  1  0  0  0
 39 64  1  0  0  0
 39 67  2  0  0  0
 40 52  1  0  0  0
 40 53  2  0  0  0
 40 58  1  0  0  0
 41114  1  0  0  0
 41115  1  0  0  0
 41116  1  0  0  0
 41 48  1  0  0  0
 42 43  1  0  0  0
 42 66  1  0  0  0
 42117  1  0  0  0
 42118  1  0  0  0
 43 44  1  0  0  0
 44119  1  0  0  0
 45 46  2  0  0  0
 45120  1  0  0  0
 46121  1  0  0  0
 47122  1  0  0  0
 47123  1  0  0  0
 48 56  1  0  0  0
 48 65  1  0  0  0
 48124  1  0  0  0
 49 50  1  0  0  0
 49 53  1  0  0  0
 49 64  1  0  0  0
 49125  1  0  0  0
 50 51  1  0  0  0
 50126  1  0  0  0
 50127  1  0  0  0
 51 52  1  0  0  0
 51128  1  0  0  0
 51129  1  0  0  0
 52130  1  0  0  0
 52131  1  0  0  0
 53 54  1  0  0  0
 54 55  2  0  0  0
 54132  1  0  0  0
 55 57  1  0  0  0
 55133  1  0  0  0
 56 69  2  0  0  0
 57 58  2  0  0  0
 57134  1  0  0  0
 58135  1  0  0  0
 59 60  1  0  0  0
 59 61  1  0  0  0
 59 62  1  0  0  0
 60136  1  0  0  0
 60137  1  0  0  0
 60138  1  0  0  0
 61139  1  0  0  0
 61140  1  0  0  0
 61141  1  0  0  0
 62142  1  0  0  0
 62143  1  0  0  0
 62144  1  0  0  0
 63 65  1  0  0  0
 63145  1  0  0  0
 63146  1  0  0  0
 63147  1  0  0  0
 64148  1  0  0  0
 65149  1  0  0  0
 68 86  1  0  0  0
 71 73  2  0  0  0
 71 76  1  0  0  0
 71150  1  0  0  0
 72 74  2  0  0  0
 72 75  1  0  0  0
 72151  1  0  0  0
 73 74  1  0  0  0
 73 81  1  0  0  0
 74 87  1  0  0  0
 75 76  2  0  0  0
 75 88  1  0  0  0
 76 90  1  0  0  0
 77 79  1  0  0  0
 77 81  1  0  0  0
 77152  1  0  0  0
 77153  1  0  0  0
 78 80  1  0  0  0
 78 81  1  0  0  0
 78154  1  0  0  0
 78155  1  0  0  0
 79 89  1  0  0  0
 79156  1  0  0  0
 79157  1  0  0  0
 80 89  1  0  0  0
 80158  1  0  0  0
 80159  1  0  0  0
 81160  1  0  0  0
 82161  1  0  0  0
 82162  1  0  0  0
 82163  1  0  0  0
 82 87  1  0  0  0
 83 87  1  0  0  0
 83164  1  0  0  0
 83165  1  0  0  0
 83166  1  0  0  0
 84 90  1  0  0  0
 84167  1  0  0  0
 84168  1  0  0  0
 84169  1  0  0  0
 85 86  1  0  0  0
 85170  1  0  0  0
 85171  1  0  0  0
 85 89  1  0  0  0
 86172  1  0  0  0
 86173  1  0  0  0
 87174  1  0  0  0
 88175  1  0  0  0
 89176  1  0  0  0
M  CHG  1  89   1
M  ISO  4   1 100  68 101  86 101  88 100
M  END
> <chiral flag>
0

> <version>
0

> <s_m_source_file>
/data/baiqing/PycharmProjects/Reinvent-master-3.2/result/LINK_invent/BTK/process_docking_weight1_custom_sum_contain_oxygen_bond_distance_aromatic_linkinvent_7_9_3/rearranged_h_0140.sdf

> <i_m_source_file_index>
97

> <r_mmod_Potential_Energy-OPLS-2005>
-128.175537109375

> <r_mmod_Stretch_Energy-OPLS-2005>
39.2906188964844

> <r_mmod_Bend_Energy-OPLS-2005>
114.135627746582

> <r_mmod_Torsional_Energy-OPLS-2005>
271.120483398438

> <r_mmod_Improper_Torsional_Energy-OPLS-2005>
3.09676361083984

> <r_mmod_Van_der_Waal_Energy-OPLS-2005>
183.277679443359

> <r_mmod_Electrostatic_Energy-OPLS-2005>
-318.7060546875

> <r_mmod_Solvation_Energy-OPLS-2005>
-430.046447753906

> <b_mmod_Minimization_Converged-OPLS-2005>
0

> <r_mmod_RMS_Derivative-OPLS-2005>
2.2337007522583

$$$$
