0
                    3D
 Structure written by MMmdl.
166175  0  0  1  0            999 V2000
  -29.1875  -16.4655   20.3283 C   0  0  0  0  0  0
  -30.1268  -13.8399   19.5777 C   0  0  0  0  0  0
  -29.5036  -12.9220   18.4510 C   0  0  0  0  0  0
  -28.1910  -12.2851   18.9050 C   0  0  0  0  0  0
  -27.4704  -13.3052   19.7936 C   0  0  2  0  0  0
  -28.3082  -13.9114   20.9288 C   0  0  0  0  0  0
  -25.1590  -13.7895   20.5513 C   0  0  0  0  0  0
  -24.1215  -13.0114   20.9376 C   0  0  0  0  0  0
  -24.6038  -11.6676   20.8857 C   0  0  0  0  0  0
  -23.8871  -10.4100   21.0486 C   0  0  0  0  0  0
  -24.3512   -9.4061   21.9246 C   0  0  0  0  0  0
  -23.6208   -8.2097   22.0780 C   0  0  0  0  0  0
  -22.4206   -8.0163   21.3550 C   0  0  0  0  0  0
  -21.9796   -9.0108   20.4657 C   0  0  0  0  0  0
  -22.7090  -10.1978   20.3076 C   0  0  0  0  0  0
  -21.6807   -6.0680   22.5302 C   0  0  0  0  0  0
  -21.3973   -6.5603   23.8227 C   0  0  0  0  0  0
  -21.3651   -5.6767   24.9196 C   0  0  0  0  0  0
  -21.6041   -4.3032   24.7250 C   0  0  0  0  0  0
  -21.8824   -3.8116   23.4378 C   0  0  0  0  0  0
  -21.9174   -4.6919   22.3428 C   0  0  0  0  0  0
  -22.7315  -13.4962   21.2057 C   0  0  0  0  0  0
  -22.1657   -4.2112   21.1000 F   0  0  0  0  0  0
  -21.5637   -3.4525   25.7764 F   0  0  0  0  0  0
  -29.1424  -14.9064   20.2371 N   0  0  0  0  0  0
  -26.1945  -12.9246   20.2977 N   0  0  0  0  0  0
  -25.8896  -11.6360   20.5616 N   0  0  0  0  0  0
  -22.0004  -12.8009   22.0656 N   0  0  0  0  0  0
  -25.2942  -15.1508   20.3582 N   0  0  0  0  0  0
  -30.4765  -16.4891   20.1837 O   0  0  0  0  0  0
  -21.6578   -6.8792   21.4253 O   0  0  0  0  0  0
  -22.3082  -14.5322   20.6916 O   0  0  0  0  0  0
  -24.6109  -31.7887   22.9755 C   0  0  0  0  0  0
  -25.8406  -32.4640   23.7563 C   0  0  1  0  0  0
  -26.6607  -27.5020   21.2369 C   0  0  0  0  0  0
  -25.5074  -33.8432   24.1626 N   0  0  0  0  0  0
  -23.7173  -29.9459   21.1172 C   0  0  2  0  0  0
  -25.3401  -29.1762   19.5462 C   0  0  0  0  0  0
  -23.8442  -28.2440   21.7011 C   0  0  0  0  0  0
  -18.3183  -27.9063   22.8590 C   0  0  0  0  0  0
  -24.1429  -36.7337   23.2683 C   0  0  0  0  0  0
  -26.0523  -31.0495   21.1014 C   0  0  0  0  0  0
  -26.3426  -29.7159   20.3893 C   0  0  0  0  0  0
  -27.1840  -28.7879   21.0552 C   0  0  0  0  0  0
  -26.0846  -26.9290   20.0421 C   0  0  0  0  0  0
  -25.3528  -27.8010   19.1993 C   0  0  0  0  0  0
  -24.0276  -29.8721   19.6153 C   0  0  0  0  0  0
  -25.4035  -36.3062   24.0346 C   0  0  1  0  0  0
  -21.0935  -27.2905   23.3833 C   0  0  2  0  0  0
  -20.4644  -26.0659   22.9016 C   0  0  0  0  0  0
  -19.4109  -25.9955   21.7154 C   0  0  0  0  0  0
  -18.1296  -26.5793   22.2068 C   0  0  0  0  0  0
  -19.6366  -28.3510   23.3461 C   0  0  0  0  0  0
  -19.4409  -29.6917   23.9135 C   0  0  0  0  0  0
  -18.2038  -30.4537   23.9702 C   0  0  0  0  0  0
  -25.8856  -34.9411   23.4923 C   0  0  0  0  0  0
  -17.0006  -29.9007   23.5346 C   0  0  0  0  0  0
  -17.0715  -28.6268   22.9828 C   0  0  0  0  0  0
  -26.4152  -31.6999   25.0380 C   0  0  0  0  0  0
  -25.3838  -31.5066   26.1880 C   0  0  0  0  0  0
  -27.0063  -30.3411   24.6039 C   0  0  0  0  0  0
  -27.5948  -32.4836   25.6905 C   0  0  0  0  0  0
  -27.5557  -37.1730   24.8451 C   0  0  0  0  0  0
  -22.8158  -27.2304   22.6278 N   0  0  0  0  0  0
  -26.4243  -37.3713   23.9445 N   0  0  0  0  0  0
  -24.7132  -31.0640   21.7690 N   0  0  0  0  0  0
  -24.6684  -28.8177   22.1793 O   0  0  0  0  0  0
  -26.2546  -27.1308   22.6614 O   0  0  0  0  0  0
  -26.5733  -34.9014   22.4703 O   0  0  0  0  0  0
  -23.5016  -31.9621   23.5181 O   0  0  0  0  0  0
  -21.8716  -24.9855   19.7286 C   0  0  0  0  0  0
  -22.4413  -23.8421   20.6152 C   0  0  0  0  0  0
  -25.6224  -19.5338   20.7897 C   0  0  0  0  0  0
  -26.6929  -18.1784   21.0572 C   0  0  0  0  0  0
  -27.5890  -19.7260   20.0576 C   0  0  0  0  0  0
  -22.6331  -26.1536   20.3931 C   0  0  2  0  0  0
  -23.8991  -24.3337   20.7997 C   0  0  2  0  0  0
  -26.1200  -21.0896   20.6497 C   0  0  1  0  0  0
  -21.5222  -28.2420   21.0147 C   0  0  0  0  0  0
  -23.3321  -28.9766   24.1251 C   0  0  0  0  0  0
  -24.9988  -27.6300   24.0303 C   0  0  0  0  0  0
  -28.0672  -17.8674   20.3544 N   0  0  0  0  0  0
  -24.9446  -22.6986   20.2373 N   0  3  0  0  0  0
  -21.9975  -29.4199   22.7894 N   0  3  0  0  0  0
  -30.9422  -14.3752   19.0857 H   0  0  0  0  0  0
  -30.6339  -13.2424   20.3368 H   0  0  0  0  0  0
  -30.2129  -12.1600   18.1191 H   0  0  0  0  0  0
  -29.2903  -13.5470   17.5802 H   0  0  0  0  0  0
  -28.4083  -11.3929   19.4963 H   0  0  0  0  0  0
  -27.5783  -11.9716   18.0612 H   0  0  0  0  0  0
  -27.2359  -14.1085   19.0878 H   0  0  0  0  0  0
  -28.8390  -13.1602   21.5129 H   0  0  0  0  0  0
  -27.6818  -14.4478   21.6412 H   0  0  0  0  0  0
  -25.2649   -9.5593   22.4822 H   0  0  0  0  0  0
  -23.9934   -7.4497   22.7479 H   0  0  0  0  0  0
  -21.0743   -8.8612   19.8965 H   0  0  0  0  0  0
  -22.3563  -10.9535   19.6200 H   0  0  0  0  0  0
  -21.1948   -7.6111   23.9722 H   0  0  0  0  0  0
  -21.1471   -6.0501   25.9102 H   0  0  0  0  0  0
  -22.0609   -2.7576   23.2888 H   0  0  0  0  0  0
  -22.3613  -11.9637   22.5010 H   0  0  0  0  0  0
  -21.0645  -13.1057   22.2932 H   0  0  0  0  0  0
  -24.4862  -15.7577   20.4220 H   0  0  0  0  0  0
  -26.0756  -15.5781   19.8711 H   0  0  0  0  0  0
  -26.6916  -32.5817   23.1025 H   0  0  0  0  0  0
  -24.9237  -33.9445   24.9796 H   0  0  0  0  0  0
  -22.7888  -30.5101   20.8726 H   0  0  0  0  0  0
  -23.3669  -35.9678   23.3277 H   0  0  0  0  0  0
  -24.3531  -36.9039   22.2105 H   0  0  0  0  0  0
  -23.7204  -37.6508   23.6791 H   0  0  0  0  0  0
  -26.0954  -31.8779   20.3753 H   0  0  0  0  0  0
  -26.8887  -31.1593   21.7924 H   0  0  0  0  0  0
  -27.6951  -29.1718   21.9162 H   0  0  0  0  0  0
  -25.9287  -25.8700   19.9312 H   0  0  0  0  0  0
  -24.6507  -27.4313   18.4601 H   0  0  0  0  0  0
  -23.9975  -30.8886   19.1928 H   0  0  0  0  0  0
  -23.3855  -29.2464   18.9868 H   0  0  0  0  0  0
  -25.1262  -36.1838   25.0835 H   0  0  0  0  0  0
  -21.2611  -27.1595   24.4845 H   0  0  0  0  0  0
  -19.8958  -25.7784   23.7993 H   0  0  0  0  0  0
  -21.2458  -25.3277   22.9207 H   0  0  0  0  0  0
  -19.1049  -24.9764   21.5586 H   0  0  0  0  0  0
  -19.7080  -26.5051   20.7954 H   0  0  0  0  0  0
  -17.3672  -26.6057   21.4025 H   0  0  0  0  0  0
  -17.6837  -25.9217   22.9660 H   0  0  0  0  0  0
  -20.3051  -30.1738   24.3387 H   0  0  0  0  0  0
  -18.2820  -31.4492   24.4270 H   0  0  0  0  0  0
  -16.0554  -30.4297   23.6797 H   0  0  0  0  0  0
  -16.1755  -28.1076   22.6395 H   0  0  0  0  0  0
  -24.3752  -31.2722   25.8737 H   0  0  0  0  0  0
  -25.2637  -32.4455   26.7372 H   0  0  0  0  0  0
  -25.7140  -30.7611   26.9191 H   0  0  0  0  0  0
  -26.2781  -29.7597   24.0551 H   0  0  0  0  0  0
  -27.3366  -29.7497   25.4599 H   0  0  0  0  0  0
  -27.8716  -30.4734   23.9538 H   0  0  0  0  0  0
  -27.2647  -33.4261   26.1396 H   0  0  0  0  0  0
  -28.3745  -32.7342   24.9652 H   0  0  0  0  0  0
  -28.0640  -31.9068   26.4934 H   0  0  0  0  0  0
  -28.2539  -38.0063   24.7536 H   0  0  0  0  0  0
  -28.1101  -36.2593   24.6233 H   0  0  0  0  0  0
  -27.2309  -37.1311   25.8859 H   0  0  0  0  0  0
  -23.1722  -26.2541   22.6073 H   0  0  0  0  0  0
  -26.0154  -38.2789   24.1489 H   0  0  0  0  0  0
  -20.7838  -24.8451   19.7454 H   0  0  0  0  0  0
  -22.2281  -25.0010   18.7006 H   0  0  0  0  0  0
  -21.7523  -23.8216   21.4691 H   0  0  0  0  0  0
  -22.3469  -22.9386   20.0138 H   0  0  0  0  0  0
  -24.8489  -19.5204   21.5582 H   0  0  0  0  0  0
  -25.0855  -19.3539   19.8554 H   0  0  0  0  0  0
  -26.0565  -17.3293   20.8786 H   0  0  0  0  0  0
  -26.8953  -18.1629   22.1236 H   0  0  0  0  0  0
  -28.5122  -20.2405   20.3717 H   0  0  0  0  0  0
  -27.6345  -19.8293   18.9522 H   0  0  0  0  0  0
  -23.0508  -26.6221   19.5217 H   0  0  0  0  0  0
  -24.2044  -24.4270   21.8735 H   0  0  0  0  0  0
  -26.5095  -21.4440   21.6065 H   0  0  0  0  0  0
  -20.4714  -28.2999   20.8865 H   0  0  0  0  0  0
  -21.6187  -28.9603   20.1820 H   0  0  0  0  0  0
  -22.7228  -28.6464   24.9655 H   0  0  0  0  0  0
  -23.6381  -29.9093   24.5165 H   0  0  0  0  0  0
  -24.4823  -26.6875   24.2200 H   0  0  0  0  0  0
  -25.5913  -27.7564   24.9546 H   0  0  0  0  0  0
  -25.1562  -22.9084   19.2617 H   0  0  0  0  0  0
  -24.1167  -22.1817   20.0701 H   0  0  0  0  0  0
  -22.3977  -30.3660   22.6496 H   0  0  0  0  0  0
  -21.2531  -29.4434   23.5216 H   0  0  0  0  0  0
  1 25  1  0  0  0
  1 30  2  0  0  0
  1 82  1  0  0  0
  2  3  1  0  0  0
  2 25  1  0  0  0
  2 85  1  0  0  0
  2 86  1  0  0  0
  3  4  1  0  0  0
  3 87  1  0  0  0
  3 88  1  0  0  0
  4  5  1  0  0  0
  4 89  1  0  0  0
  4 90  1  0  0  0
  5  6  1  0  0  0
  5 26  1  0  0  0
  5 91  1  0  0  0
  6 25  1  0  0  0
  6 92  1  0  0  0
  6 93  1  0  0  0
  7  8  2  0  0  0
  7 26  1  0  0  0
  7 29  1  0  0  0
  8  9  1  0  0  0
  8 22  1  0  0  0
  9 10  1  0  0  0
  9 27  2  0  0  0
 10 11  2  0  0  0
 10 15  1  0  0  0
 11 12  1  0  0  0
 11 94  1  0  0  0
 12 13  2  0  0  0
 12 95  1  0  0  0
 13 14  1  0  0  0
 13 31  1  0  0  0
 14 15  2  0  0  0
 14 96  1  0  0  0
 15 97  1  0  0  0
 16 17  2  0  0  0
 16 21  1  0  0  0
 16 31  1  0  0  0
 17 18  1  0  0  0
 17 98  1  0  0  0
 18 19  2  0  0  0
 18 99  1  0  0  0
 19 20  1  0  0  0
 19 24  1  0  0  0
 20 21  2  0  0  0
 20100  1  0  0  0
 21 23  1  0  0  0
 22 28  1  0  0  0
 22 32  2  0  0  0
 26 27  1  0  0  0
 28101  1  0  0  0
 28102  1  0  0  0
 29103  1  0  0  0
 29104  1  0  0  0
 33 34  1  0  0  0
 33 66  1  0  0  0
 33 70  2  0  0  0
 34 36  1  0  0  0
 34 59  1  0  0  0
 34105  1  0  0  0
 35 44  2  0  0  0
 35 45  1  0  0  0
 35 68  1  0  0  0
 36 56  1  0  0  0
 36106  1  0  0  0
 37 39  1  0  0  0
 37 47  1  0  0  0
 37 66  1  0  0  0
 37107  1  0  0  0
 38 43  2  0  0  0
 38 46  1  0  0  0
 38 47  1  0  0  0
 39 64  1  0  0  0
 39 67  2  0  0  0
 40 52  1  0  0  0
 40 53  2  0  0  0
 40 58  1  0  0  0
 41108  1  0  0  0
 41109  1  0  0  0
 41110  1  0  0  0
 41 48  1  0  0  0
 42 43  1  0  0  0
 42 66  1  0  0  0
 42111  1  0  0  0
 42112  1  0  0  0
 43 44  1  0  0  0
 44113  1  0  0  0
 45 46  2  0  0  0
 45114  1  0  0  0
 46115  1  0  0  0
 47116  1  0  0  0
 47117  1  0  0  0
 48 56  1  0  0  0
 48 65  1  0  0  0
 48118  1  0  0  0
 49 50  1  0  0  0
 49 53  1  0  0  0
 49 64  1  0  0  0
 49119  1  0  0  0
 50 51  1  0  0  0
 50120  1  0  0  0
 50121  1  0  0  0
 51 52  1  0  0  0
 51122  1  0  0  0
 51123  1  0  0  0
 52124  1  0  0  0
 52125  1  0  0  0
 53 54  1  0  0  0
 54 55  2  0  0  0
 54126  1  0  0  0
 55 57  1  0  0  0
 55127  1  0  0  0
 56 69  2  0  0  0
 57 58  2  0  0  0
 57128  1  0  0  0
 58129  1  0  0  0
 59 60  1  0  0  0
 59 61  1  0  0  0
 59 62  1  0  0  0
 60130  1  0  0  0
 60131  1  0  0  0
 60132  1  0  0  0
 61133  1  0  0  0
 61134  1  0  0  0
 61135  1  0  0  0
 62136  1  0  0  0
 62137  1  0  0  0
 62138  1  0  0  0
 63 65  1  0  0  0
 63139  1  0  0  0
 63140  1  0  0  0
 63141  1  0  0  0
 64142  1  0  0  0
 65143  1  0  0  0
 68 81  1  0  0  0
 71 72  1  0  0  0
 71 76  1  0  0  0
 71144  1  0  0  0
 71145  1  0  0  0
 72 77  1  0  0  0
 72146  1  0  0  0
 72147  1  0  0  0
 73 74  1  0  0  0
 73 78  1  0  0  0
 73148  1  0  0  0
 73149  1  0  0  0
 74 82  1  0  0  0
 74150  1  0  0  0
 74151  1  0  0  0
 75 78  1  0  0  0
 75 82  1  0  0  0
 75152  1  0  0  0
 75153  1  0  0  0
 76 77  1  0  0  0
 76 79  1  0  0  0
 76154  1  0  0  0
 77 83  1  0  0  0
 77155  1  0  0  0
 78 83  1  0  0  0
 78156  1  0  0  0
 79 84  1  0  0  0
 79157  1  0  0  0
 79158  1  0  0  0
 80 81  1  0  0  0
 80 84  1  0  0  0
 80159  1  0  0  0
 80160  1  0  0  0
 81161  1  0  0  0
 81162  1  0  0  0
 83163  1  0  0  0
 83164  1  0  0  0
 84165  1  0  0  0
 84166  1  0  0  0
M  CHG  2  83   1  84   1
M  ISO  4   1 100  68 101  81 101  82 100
M  END
> <chiral flag>
0

> <version>
0

> <s_m_source_file>
/data/baiqing/PycharmProjects/Reinvent-master-3.2/result/LINK_invent/BTK/process_docking_weight1_custom_sum_contain_oxygen_bond_distance_aromatic_linkinvent_7_9_3/rearranged_h_0188.sdf

> <i_m_source_file_index>
1

> <r_mmod_Potential_Energy-OPLS-2005>
16437.849609375

> <r_mmod_Stretch_Energy-OPLS-2005>
6756.2236328125

> <r_mmod_Bend_Energy-OPLS-2005>
2421.06201171875

> <r_mmod_Torsional_Energy-OPLS-2005>
726.470092773438

> <r_mmod_Improper_Torsional_Energy-OPLS-2005>
124.519668579102

> <r_mmod_Van_der_Waal_Energy-OPLS-2005>
1806.82312011719

> <r_mmod_Electrostatic_Energy-OPLS-2005>
52.358570098877

> <r_mmod_Solvation_Energy-OPLS-2005>
-852.658020019531

> <b_mmod_Minimization_Converged-OPLS-2005>
0

> <r_mmod_RMS_Derivative-OPLS-2005>
78.8600006103516

$$$$
1
                    3D
 Structure written by MMmdl.
166175  0  0  1  0            999 V2000
  -30.7065  -14.5190   20.4921 C   0  0  0  0  0  0
  -30.4166  -12.3187   19.4340 C   0  0  0  0  0  0
  -29.4975  -12.4931   18.2080 C   0  0  0  0  0  0
  -28.0170  -12.3605   18.6183 C   0  0  0  0  0  0
  -27.6545  -13.2190   19.8614 C   0  0  2  0  0  0
  -28.7015  -13.0652   20.9874 C   0  0  0  0  0  0
  -25.2561  -13.8173   20.5685 C   0  0  0  0  0  0
  -24.1822  -13.0436   20.9177 C   0  0  0  0  0  0
  -24.6400  -11.6915   20.8733 C   0  0  0  0  0  0
  -23.9064  -10.4294   21.0397 C   0  0  0  0  0  0
  -24.3620   -9.4214   21.9176 C   0  0  0  0  0  0
  -23.6309   -8.2244   22.0751 C   0  0  0  0  0  0
  -22.4287   -8.0280   21.3544 C   0  0  0  0  0  0
  -21.9920   -9.0247   20.4640 C   0  0  0  0  0  0
  -22.7240  -10.2128   20.3045 C   0  0  0  0  0  0
  -21.6851   -6.0740   22.5284 C   0  0  0  0  0  0
  -21.4008   -6.5649   23.8220 C   0  0  0  0  0  0
  -21.3659   -5.6800   24.9181 C   0  0  0  0  0  0
  -21.6047   -4.3062   24.7226 C   0  0  0  0  0  0
  -21.8820   -3.8151   23.4348 C   0  0  0  0  0  0
  -21.9193   -4.6967   22.3407 C   0  0  0  0  0  0
  -22.7839  -13.5227   21.1843 C   0  0  0  0  0  0
  -22.1660   -4.2152   21.0981 F   0  0  0  0  0  0
  -21.5638   -3.4548   25.7739 F   0  0  0  0  0  0
  -30.0239  -13.3443   20.4121 N   0  0  0  0  0  0
  -26.3000  -12.9372   20.3339 N   0  0  0  0  0  0
  -25.9333  -11.6520   20.5764 N   0  0  0  0  0  0
  -22.0482  -12.8215   22.0394 N   0  0  0  0  0  0
  -25.4284  -15.1902   20.4116 N   0  0  0  0  0  0
  -31.8959  -14.6147   20.1820 O   0  0  0  0  0  0
  -21.6646   -6.8880   21.4242 O   0  0  0  0  0  0
  -22.3520  -14.5539   20.6707 O   0  0  0  0  0  0
  -24.6192  -31.8678   23.2094 C   0  0  0  0  0  0
  -25.9078  -32.4821   23.8396 C   0  0  1  0  0  0
  -27.2250  -27.4043   20.0971 C   0  0  0  0  0  0
  -25.5925  -33.8618   24.2338 N   0  0  0  0  0  0
  -23.4071  -30.4941   21.5516 C   0  0  2  0  0  0
  -24.8518  -28.9629   20.1135 C   0  0  0  0  0  0
  -22.7436  -29.4672   22.4987 C   0  0  0  0  0  0
  -18.0278  -28.1379   22.8495 C   0  0  0  0  0  0
  -24.1486  -36.7308   23.2638 C   0  0  0  0  0  0
  -25.9407  -30.8253   21.3669 C   0  0  0  0  0  0
  -26.0165  -29.4587   20.7117 C   0  0  0  0  0  0
  -27.2083  -28.6887   20.6988 C   0  0  0  0  0  0
  -26.0399  -26.9449   19.4741 C   0  0  0  0  0  0
  -24.8606  -27.7073   19.4889 C   0  0  0  0  0  0
  -23.6150  -29.8309   20.1654 C   0  0  0  0  0  0
  -25.4108  -36.3113   24.0341 C   0  0  1  0  0  0
  -20.5869  -28.3676   23.1312 C   0  0  2  0  0  0
  -20.6774  -26.9413   22.5414 C   0  0  0  0  0  0
  -19.5751  -26.6391   21.5215 C   0  0  0  0  0  0
  -18.1926  -26.7929   22.1622 C   0  0  0  0  0  0
  -19.1527  -28.8843   23.2899 C   0  0  0  0  0  0
  -18.9452  -30.1445   23.8915 C   0  0  0  0  0  0
  -17.6453  -30.6582   24.0565 C   0  0  0  0  0  0
  -25.9040  -34.9479   23.5133 C   0  0  0  0  0  0
  -16.5346  -29.9079   23.6328 C   0  0  0  0  0  0
  -16.7266  -28.6495   23.0350 C   0  0  0  0  0  0
  -26.4486  -31.6588   25.0725 C   0  0  0  0  0  0
  -25.3738  -31.3680   26.1458 C   0  0  0  0  0  0
  -27.0319  -30.3033   24.6095 C   0  0  0  0  0  0
  -27.6069  -32.4288   25.7495 C   0  0  0  0  0  0
  -27.5577  -37.1817   24.8465 C   0  0  0  0  0  0
  -21.4157  -29.3048   22.3724 N   0  0  0  0  0  0
  -26.4294  -37.3794   23.9404 N   0  0  0  0  0  0
  -24.6742  -31.0761   22.1007 N   0  0  0  0  0  0
  -23.4205  -28.8205   23.3028 O   0  0  0  0  0  0
  -28.3641  -26.6117   20.1265 O   0  0  0  0  0  0
  -26.5596  -34.8926   22.4691 O   0  0  0  0  0  0
  -23.5379  -32.1446   23.7477 O   0  0  0  0  0  0
  -30.8799  -21.2802   20.9610 C   0  0  0  0  0  0
  -28.5446  -20.9914   20.1876 C   0  0  0  0  0  0
  -29.8718  -16.5099   19.4008 C   0  0  0  0  0  0
  -30.4639  -16.8541   21.3171 C   0  0  0  0  0  0
  -30.4296  -22.4348   21.8948 C   0  0  0  0  0  0
  -28.0909  -22.1485   21.1135 C   0  0  0  0  0  0
  -29.7680  -20.2219   20.7566 C   0  0  1  0  0  0
  -29.6549  -17.7042   20.3333 C   0  0  0  0  0  0
  -30.1817  -19.2935   18.4657 C   0  0  0  0  0  0
  -29.3749  -24.2971   20.5415 C   0  0  0  0  0  0
  -28.1199  -25.2094   20.4130 C   0  0  0  0  0  0
  -29.9548  -15.6484   20.6062 N   0  0  0  0  0  0
  -29.1762  -23.1199   21.4586 N   0  3  2  0  0  0
  -30.2286  -19.0430   19.9305 N   0  3  1  0  0  0
  -31.4638  -12.4012   19.1373 H   0  0  0  0  0  0
  -30.3029  -11.3226   19.8639 H   0  0  0  0  0  0
  -29.7435  -11.7543   17.4446 H   0  0  0  0  0  0
  -29.6676  -13.4704   17.7532 H   0  0  0  0  0  0
  -27.8267  -11.3071   18.8259 H   0  0  0  0  0  0
  -27.3698  -12.6249   17.7805 H   0  0  0  0  0  0
  -27.6768  -14.2588   19.5348 H   0  0  0  0  0  0
  -28.6819  -12.0565   21.4015 H   0  0  0  0  0  0
  -28.4808  -13.7418   21.8153 H   0  0  0  0  0  0
  -25.2766   -9.5705   22.4745 H   0  0  0  0  0  0
  -24.0034   -7.4633   22.7467 H   0  0  0  0  0  0
  -21.0861   -8.8745   19.8943 H   0  0  0  0  0  0
  -22.3694  -10.9657   19.6147 H   0  0  0  0  0  0
  -21.1990   -7.6156   23.9734 H   0  0  0  0  0  0
  -21.1484   -6.0519   25.9087 H   0  0  0  0  0  0
  -22.0599   -2.7615   23.2840 H   0  0  0  0  0  0
  -22.4093  -11.9883   22.4803 H   0  0  0  0  0  0
  -21.1084  -13.1213   22.2563 H   0  0  0  0  0  0
  -24.6689  -15.8501   20.5349 H   0  0  0  0  0  0
  -26.2963  -15.6313   20.1347 H   0  0  0  0  0  0
  -26.7151  -32.5526   23.1161 H   0  0  0  0  0  0
  -25.0097  -33.9773   25.0497 H   0  0  0  0  0  0
  -22.6967  -31.3120   21.4141 H   0  0  0  0  0  0
  -23.3748  -35.9637   23.3304 H   0  0  0  0  0  0
  -24.3584  -36.8922   22.2050 H   0  0  0  0  0  0
  -23.7228  -37.6513   23.6642 H   0  0  0  0  0  0
  -26.0551  -31.5892   20.5969 H   0  0  0  0  0  0
  -26.8286  -30.8799   21.9844 H   0  0  0  0  0  0
  -28.1031  -29.0659   21.1736 H   0  0  0  0  0  0
  -25.9958  -26.0002   18.9550 H   0  0  0  0  0  0
  -23.9691  -27.3260   19.0102 H   0  0  0  0  0  0
  -23.7231  -30.6071   19.4071 H   0  0  0  0  0  0
  -22.7382  -29.2517   19.8696 H   0  0  0  0  0  0
  -25.1284  -36.1983   25.0832 H   0  0  0  0  0  0
  -20.9958  -28.3235   24.1436 H   0  0  0  0  0  0
  -20.5691  -26.2284   23.3601 H   0  0  0  0  0  0
  -21.6640  -26.7469   22.1190 H   0  0  0  0  0  0
  -19.6913  -25.6305   21.1233 H   0  0  0  0  0  0
  -19.6686  -27.3212   20.6753 H   0  0  0  0  0  0
  -17.4203  -26.6687   21.4015 H   0  0  0  0  0  0
  -18.0322  -26.0061   22.9005 H   0  0  0  0  0  0
  -19.7923  -30.7259   24.2295 H   0  0  0  0  0  0
  -17.5002  -31.6265   24.5160 H   0  0  0  0  0  0
  -15.5345  -30.2986   23.7640 H   0  0  0  0  0  0
  -15.8663  -28.0818   22.7065 H   0  0  0  0  0  0
  -24.5915  -30.7037   25.7766 H   0  0  0  0  0  0
  -24.8925  -32.2832   26.4913 H   0  0  0  0  0  0
  -25.8079  -30.8825   27.0209 H   0  0  0  0  0  0
  -26.2872  -29.6790   24.1148 H   0  0  0  0  0  0
  -27.4102  -29.7265   25.4543 H   0  0  0  0  0  0
  -27.8694  -30.4357   23.9243 H   0  0  0  0  0  0
  -27.2707  -33.3587   26.2085 H   0  0  0  0  0  0
  -28.3878  -32.6838   25.0320 H   0  0  0  0  0  0
  -28.0725  -31.8389   26.5399 H   0  0  0  0  0  0
  -28.2600  -38.0110   24.7517 H   0  0  0  0  0  0
  -28.1074  -36.2646   24.6291 H   0  0  0  0  0  0
  -27.2301  -37.1462   25.8871 H   0  0  0  0  0  0
  -20.9322  -29.8790   21.6956 H   0  0  0  0  0  0
  -26.0189  -38.2877   24.1388 H   0  0  0  0  0  0
  -31.7668  -20.8142   21.3912 H   0  0  0  0  0  0
  -31.1933  -21.7004   20.0050 H   0  0  0  0  0  0
  -28.7707  -21.4185   19.2109 H   0  0  0  0  0  0
  -27.7106  -20.3046   20.0378 H   0  0  0  0  0  0
  -30.7967  -16.5442   18.8172 H   0  0  0  0  0  0
  -29.0187  -16.3024   18.7530 H   0  0  0  0  0  0
  -30.1232  -16.9508   22.3484 H   0  0  0  0  0  0
  -31.5460  -16.9994   21.2538 H   0  0  0  0  0  0
  -31.2358  -23.1588   22.0193 H   0  0  0  0  0  0
  -30.2496  -22.0270   22.8906 H   0  0  0  0  0  0
  -27.7314  -21.7173   22.0488 H   0  0  0  0  0  0
  -27.2281  -22.6550   20.6817 H   0  0  0  0  0  0
  -29.5080  -19.8315   21.7421 H   0  0  0  0  0  0
  -28.6026  -17.7844   20.6162 H   0  0  0  0  0  0
  -30.5977  -20.2698   18.2172 H   0  0  0  0  0  0
  -29.1597  -19.2558   18.0890 H   0  0  0  0  0  0
  -30.7709  -18.5680   17.9074 H   0  0  0  0  0  0
  -30.1846  -24.9070   20.9435 H   0  0  0  0  0  0
  -29.7036  -23.9632   19.5567 H   0  0  0  0  0  0
  -27.5491  -25.1683   21.3425 H   0  0  0  0  0  0
  -27.5000  -24.7557   19.6421 H   0  0  0  0  0  0
  -28.8483  -23.5600   22.3091 H   0  0  0  0  0  0
  -31.2134  -18.9582   20.1330 H   0  0  0  0  0  0
  1 25  1  0  0  0
  1 30  2  0  0  0
  1 82  1  0  0  0
  2  3  1  0  0  0
  2 25  1  0  0  0
  2 85  1  0  0  0
  2 86  1  0  0  0
  3  4  1  0  0  0
  3 87  1  0  0  0
  3 88  1  0  0  0
  4  5  1  0  0  0
  4 89  1  0  0  0
  4 90  1  0  0  0
  5  6  1  0  0  0
  5 26  1  0  0  0
  5 91  1  0  0  0
  6 25  1  0  0  0
  6 92  1  0  0  0
  6 93  1  0  0  0
  7  8  2  0  0  0
  7 26  1  0  0  0
  7 29  1  0  0  0
  8  9  1  0  0  0
  8 22  1  0  0  0
  9 10  1  0  0  0
  9 27  2  0  0  0
 10 11  2  0  0  0
 10 15  1  0  0  0
 11 12  1  0  0  0
 11 94  1  0  0  0
 12 13  2  0  0  0
 12 95  1  0  0  0
 13 14  1  0  0  0
 13 31  1  0  0  0
 14 15  2  0  0  0
 14 96  1  0  0  0
 15 97  1  0  0  0
 16 17  2  0  0  0
 16 21  1  0  0  0
 16 31  1  0  0  0
 17 18  1  0  0  0
 17 98  1  0  0  0
 18 19  2  0  0  0
 18 99  1  0  0  0
 19 20  1  0  0  0
 19 24  1  0  0  0
 20 21  2  0  0  0
 20100  1  0  0  0
 21 23  1  0  0  0
 22 28  1  0  0  0
 22 32  2  0  0  0
 26 27  1  0  0  0
 28101  1  0  0  0
 28102  1  0  0  0
 29103  1  0  0  0
 29104  1  0  0  0
 33 34  1  0  0  0
 33 66  1  0  0  0
 33 70  2  0  0  0
 34 36  1  0  0  0
 34 59  1  0  0  0
 34105  1  0  0  0
 35 44  2  0  0  0
 35 45  1  0  0  0
 35 68  1  0  0  0
 36 56  1  0  0  0
 36106  1  0  0  0
 37 39  1  0  0  0
 37 47  1  0  0  0
 37 66  1  0  0  0
 37107  1  0  0  0
 38 43  2  0  0  0
 38 46  1  0  0  0
 38 47  1  0  0  0
 39 64  1  0  0  0
 39 67  2  0  0  0
 40 52  1  0  0  0
 40 53  2  0  0  0
 40 58  1  0  0  0
 41108  1  0  0  0
 41109  1  0  0  0
 41110  1  0  0  0
 41 48  1  0  0  0
 42 43  1  0  0  0
 42 66  1  0  0  0
 42111  1  0  0  0
 42112  1  0  0  0
 43 44  1  0  0  0
 44113  1  0  0  0
 45 46  2  0  0  0
 45114  1  0  0  0
 46115  1  0  0  0
 47116  1  0  0  0
 47117  1  0  0  0
 48 56  1  0  0  0
 48 65  1  0  0  0
 48118  1  0  0  0
 49 50  1  0  0  0
 49 53  1  0  0  0
 49 64  1  0  0  0
 49119  1  0  0  0
 50 51  1  0  0  0
 50120  1  0  0  0
 50121  1  0  0  0
 51 52  1  0  0  0
 51122  1  0  0  0
 51123  1  0  0  0
 52124  1  0  0  0
 52125  1  0  0  0
 53 54  1  0  0  0
 54 55  2  0  0  0
 54126  1  0  0  0
 55 57  1  0  0  0
 55127  1  0  0  0
 56 69  2  0  0  0
 57 58  2  0  0  0
 57128  1  0  0  0
 58129  1  0  0  0
 59 60  1  0  0  0
 59 61  1  0  0  0
 59 62  1  0  0  0
 60130  1  0  0  0
 60131  1  0  0  0
 60132  1  0  0  0
 61133  1  0  0  0
 61134  1  0  0  0
 61135  1  0  0  0
 62136  1  0  0  0
 62137  1  0  0  0
 62138  1  0  0  0
 63 65  1  0  0  0
 63139  1  0  0  0
 63140  1  0  0  0
 63141  1  0  0  0
 64142  1  0  0  0
 65143  1  0  0  0
 68 81  1  0  0  0
 71 75  1  0  0  0
 71144  1  0  0  0
 71145  1  0  0  0
 71 77  1  0  0  0
 72 76  1  0  0  0
 72 77  1  0  0  0
 72146  1  0  0  0
 72147  1  0  0  0
 73 82  1  0  0  0
 73148  1  0  0  0
 73149  1  0  0  0
 73 78  1  0  0  0
 74 78  1  0  0  0
 74 82  1  0  0  0
 74150  1  0  0  0
 74151  1  0  0  0
 75 83  1  0  0  0
 75152  1  0  0  0
 75153  1  0  0  0
 76 83  1  0  0  0
 76154  1  0  0  0
 76155  1  0  0  0
 77 84  1  0  0  0
 77156  1  0  0  0
 78 84  1  0  0  0
 78157  1  0  0  0
 79158  1  0  0  0
 79159  1  0  0  0
 79160  1  0  0  0
 79 84  1  0  0  0
 80 81  1  0  0  0
 80161  1  0  0  0
 80162  1  0  0  0
 80 83  1  0  0  0
 81163  1  0  0  0
 81164  1  0  0  0
 83165  1  0  0  0
 84166  1  0  0  0
M  CHG  2  83   1  84   1
M  ISO  4   1 100  68 101  81 101  82 100
M  END
> <chiral flag>
0

> <version>
0

> <s_m_source_file>
/data/baiqing/PycharmProjects/Reinvent-master-3.2/result/LINK_invent/BTK/process_docking_weight1_custom_sum_contain_oxygen_bond_distance_aromatic_linkinvent_7_9_3/rearranged_h_0188.sdf

> <i_m_source_file_index>
2

> <r_mmod_Potential_Energy-OPLS-2005>
-89.3343276977539

> <r_mmod_Stretch_Energy-OPLS-2005>
50.9224014282227

> <r_mmod_Bend_Energy-OPLS-2005>
133.67578125

> <r_mmod_Torsional_Energy-OPLS-2005>
355.147735595703

> <r_mmod_Improper_Torsional_Energy-OPLS-2005>
15.8653745651245

> <r_mmod_Van_der_Waal_Energy-OPLS-2005>
142.029312133789

> <r_mmod_Electrostatic_Energy-OPLS-2005>
143.207458496094

> <r_mmod_Solvation_Energy-OPLS-2005>
-955.33447265625

> <b_mmod_Minimization_Converged-OPLS-2005>
0

> <r_mmod_RMS_Derivative-OPLS-2005>
1.53604555130005

$$$$
2
                    3D
 Structure written by MMmdl.
170180  0  0  1  0            999 V2000
  -30.7412  -14.3495   20.6686 C   0  0  0  0  0  0
  -30.4149  -12.2744   19.3947 C   0  0  0  0  0  0
  -29.4818  -12.5308   18.1951 C   0  0  0  0  0  0
  -28.0054  -12.3844   18.6097 C   0  0  0  0  0  0
  -27.6645  -13.1970   19.8848 C   0  0  2  0  0  0
  -28.6987  -12.9218   21.0004 C   0  0  0  0  0  0
  -25.2575  -13.8153   20.5692 C   0  0  0  0  0  0
  -24.1820  -13.0440   20.9188 C   0  0  0  0  0  0
  -24.6369  -11.6901   20.8733 C   0  0  0  0  0  0
  -23.9042  -10.4295   21.0398 C   0  0  0  0  0  0
  -24.3590   -9.4229   21.9188 C   0  0  0  0  0  0
  -23.6283   -8.2254   22.0757 C   0  0  0  0  0  0
  -22.4268   -8.0287   21.3537 C   0  0  0  0  0  0
  -21.9895   -9.0252   20.4640 C   0  0  0  0  0  0
  -22.7211  -10.2144   20.3053 C   0  0  0  0  0  0
  -21.6854   -6.0739   22.5286 C   0  0  0  0  0  0
  -21.4006   -6.5641   23.8217 C   0  0  0  0  0  0
  -21.3649   -5.6788   24.9175 C   0  0  0  0  0  0
  -21.6040   -4.3053   24.7224 C   0  0  0  0  0  0
  -21.8825   -3.8149   23.4353 C   0  0  0  0  0  0
  -21.9186   -4.6963   22.3405 C   0  0  0  0  0  0
  -22.7844  -13.5251   21.1834 C   0  0  0  0  0  0
  -22.1674   -4.2150   21.0984 F   0  0  0  0  0  0
  -21.5621   -3.4541   25.7737 F   0  0  0  0  0  0
  -30.0446  -13.2047   20.4702 N   0  0  0  0  0  0
  -26.3012  -12.9313   20.3398 N   0  0  0  0  0  0
  -25.9288  -11.6475   20.5753 N   0  0  0  0  0  0
  -22.0447  -12.8269   22.0388 N   0  0  0  0  0  0
  -25.4288  -15.1873   20.4109 N   0  0  0  0  0  0
  -31.7646  -14.6561   20.0448 O   0  0  0  0  0  0
  -21.6647   -6.8873   21.4239 O   0  0  0  0  0  0
  -22.3545  -14.5547   20.6656 O   0  0  0  0  0  0
  -24.6116  -31.8715   23.2128 C   0  0  0  0  0  0
  -25.9024  -32.4840   23.8410 C   0  0  1  0  0  0
  -27.2328  -27.4711   20.0881 C   0  0  0  0  0  0
  -25.5905  -33.8636   24.2346 N   0  0  0  0  0  0
  -23.3969  -30.4959   21.5529 C   0  0  2  0  0  0
  -24.8419  -28.9640   20.1177 C   0  0  0  0  0  0
  -22.7386  -29.4675   22.5002 C   0  0  0  0  0  0
  -18.0271  -28.1381   22.8502 C   0  0  0  0  0  0
  -24.1474  -36.7287   23.2639 C   0  0  0  0  0  0
  -25.9215  -30.8484   21.3584 C   0  0  0  0  0  0
  -25.9993  -29.4837   20.7105 C   0  0  0  0  0  0
  -27.2006  -28.7437   20.6928 C   0  0  0  0  0  0
  -26.0620  -26.9597   19.4873 C   0  0  0  0  0  0
  -24.8646  -27.6990   19.5058 C   0  0  0  0  0  0
  -23.6028  -29.8275   20.1665 C   0  0  0  0  0  0
  -25.4096  -36.3107   24.0348 C   0  0  1  0  0  0
  -20.5859  -28.3653   23.1336 C   0  0  2  0  0  0
  -20.6759  -26.9398   22.5422 C   0  0  0  0  0  0
  -19.5735  -26.6391   21.5220 C   0  0  0  0  0  0
  -18.1912  -26.7937   22.1625 C   0  0  0  0  0  0
  -19.1523  -28.8837   23.2918 C   0  0  0  0  0  0
  -18.9457  -30.1442   23.8925 C   0  0  0  0  0  0
  -17.6461  -30.6589   24.0579 C   0  0  0  0  0  0
  -25.9030  -34.9480   23.5137 C   0  0  0  0  0  0
  -16.5347  -29.9096   23.6329 C   0  0  0  0  0  0
  -16.7264  -28.6514   23.0350 C   0  0  0  0  0  0
  -26.4465  -31.6611   25.0717 C   0  0  0  0  0  0
  -25.3745  -31.3711   26.1478 C   0  0  0  0  0  0
  -27.0275  -30.3060   24.6049 C   0  0  0  0  0  0
  -27.6053  -32.4309   25.7473 C   0  0  0  0  0  0
  -27.5576  -37.1789   24.8469 C   0  0  0  0  0  0
  -21.4120  -29.3026   22.3742 N   0  0  0  0  0  0
  -26.4275  -37.3802   23.9432 N   0  0  0  0  0  0
  -24.6616  -31.0853   22.1000 N   0  0  0  0  0  0
  -23.4185  -28.8224   23.3027 O   0  0  0  0  0  0
  -28.4084  -26.7662   20.0494 O   0  0  0  0  0  0
  -26.5579  -34.8939   22.4689 O   0  0  0  0  0  0
  -23.5320  -32.1432   23.7551 O   0  0  0  0  0  0
  -31.1634  -23.1440   20.2037 C   0  0  0  0  0  0
  -31.0226  -22.7199   18.8735 C   0  0  0  0  0  0
  -29.9816  -23.3138   18.1364 C   0  0  0  0  0  0
  -29.3457  -24.5067   19.9879 C   0  0  0  0  0  0
  -31.4494  -18.1004   17.7268 C   0  0  0  0  0  0
  -32.2203  -19.4008   17.5231 C   0  0  0  0  0  0
  -29.3329  -16.2884   21.1542 C   0  0  0  0  0  0
  -31.0556  -16.1935   22.2968 C   0  0  0  0  0  0
  -30.8618  -19.7847   19.3667 C   0  0  0  0  0  0
  -30.7316  -18.2801   19.0703 C   0  0  2  0  0  0
  -30.5027  -17.2559   21.3459 C   0  0  0  0  0  0
  -29.7263  -22.9967   16.6755 C   0  0  0  0  0  0
  -31.9683  -21.6857   18.2883 C   0  0  0  0  0  0
  -28.3510  -25.4614   20.6282 C   0  0  0  0  0  0
  -30.3196  -24.0303   20.7591 N   0  0  0  0  0  0
  -29.1501  -24.2052   18.7055 N   0  0  0  0  0  0
  -30.2313  -15.2028   21.5801 N   0  0  0  0  0  0
  -31.3257  -20.3857   18.1157 N   0  0  0  0  0  0
  -31.3456  -17.4545   20.1354 N   0  3  0  0  0  0
  -31.4589  -12.3810   19.0908 H   0  0  0  0  0  0
  -30.3134  -11.2458   19.7451 H   0  0  0  0  0  0
  -29.7150  -11.8444   17.3808 H   0  0  0  0  0  0
  -29.6524  -13.5353   17.8051 H   0  0  0  0  0  0
  -27.8049  -11.3255   18.7816 H   0  0  0  0  0  0
  -27.3502  -12.6863   17.7916 H   0  0  0  0  0  0
  -27.7237  -14.2514   19.6178 H   0  0  0  0  0  0
  -28.6488  -11.8769   21.3089 H   0  0  0  0  0  0
  -28.4521  -13.4959   21.8946 H   0  0  0  0  0  0
  -25.2730   -9.5741   22.4763 H   0  0  0  0  0  0
  -23.9999   -7.4664   22.7489 H   0  0  0  0  0  0
  -21.0826   -8.8774   19.8954 H   0  0  0  0  0  0
  -22.3662  -10.9680   19.6169 H   0  0  0  0  0  0
  -21.2006   -7.6150   23.9719 H   0  0  0  0  0  0
  -21.1455   -6.0517   25.9071 H   0  0  0  0  0  0
  -22.0602   -2.7612   23.2843 H   0  0  0  0  0  0
  -22.3997  -11.9929   22.4827 H   0  0  0  0  0  0
  -21.1070  -13.1340   22.2550 H   0  0  0  0  0  0
  -24.6563  -15.8363   20.5131 H   0  0  0  0  0  0
  -26.2787  -15.6284   20.0856 H   0  0  0  0  0  0
  -26.7101  -32.5573   23.1188 H   0  0  0  0  0  0
  -25.0099  -33.9810   25.0517 H   0  0  0  0  0  0
  -22.6848  -31.3127   21.4171 H   0  0  0  0  0  0
  -23.3769  -35.9587   23.3282 H   0  0  0  0  0  0
  -24.3569  -36.8912   22.2057 H   0  0  0  0  0  0
  -23.7181  -37.6469   23.6661 H   0  0  0  0  0  0
  -26.0247  -31.6139   20.5882 H   0  0  0  0  0  0
  -26.8137  -30.9073   21.9691 H   0  0  0  0  0  0
  -28.0981  -29.1458   21.1413 H   0  0  0  0  0  0
  -26.0773  -26.0023   18.9854 H   0  0  0  0  0  0
  -23.9764  -27.2967   19.0372 H   0  0  0  0  0  0
  -23.7087  -30.6019   19.4058 H   0  0  0  0  0  0
  -22.7281  -29.2445   19.8735 H   0  0  0  0  0  0
  -25.1261  -36.1966   25.0841 H   0  0  0  0  0  0
  -20.9970  -28.3208   24.1452 H   0  0  0  0  0  0
  -20.5673  -26.2257   23.3597 H   0  0  0  0  0  0
  -21.6629  -26.7447   22.1209 H   0  0  0  0  0  0
  -19.6888  -25.6305   21.1235 H   0  0  0  0  0  0
  -19.6688  -27.3215   20.6763 H   0  0  0  0  0  0
  -17.4193  -26.6714   21.4012 H   0  0  0  0  0  0
  -18.0291  -26.0072   22.9012 H   0  0  0  0  0  0
  -19.7932  -30.7249   24.2304 H   0  0  0  0  0  0
  -17.5021  -31.6273   24.5178 H   0  0  0  0  0  0
  -15.5348  -30.3012   23.7649 H   0  0  0  0  0  0
  -15.8660  -28.0852   22.7040 H   0  0  0  0  0  0
  -24.5891  -30.7098   25.7804 H   0  0  0  0  0  0
  -24.8981  -32.2882   26.4962 H   0  0  0  0  0  0
  -25.8103  -30.8835   27.0208 H   0  0  0  0  0  0
  -26.2782  -29.6824   24.1160 H   0  0  0  0  0  0
  -27.4135  -29.7290   25.4461 H   0  0  0  0  0  0
  -27.8588  -30.4400   23.9116 H   0  0  0  0  0  0
  -27.2702  -33.3629   26.2041 H   0  0  0  0  0  0
  -28.3878  -32.6825   25.0299 H   0  0  0  0  0  0
  -28.0707  -31.8430   26.5397 H   0  0  0  0  0  0
  -28.2582  -38.0098   24.7556 H   0  0  0  0  0  0
  -28.1076  -36.2635   24.6236 H   0  0  0  0  0  0
  -27.2305  -37.1364   25.8874 H   0  0  0  0  0  0
  -20.9270  -29.8735   21.6962 H   0  0  0  0  0  0
  -26.0156  -38.2869   24.1484 H   0  0  0  0  0  0
  -31.9427  -22.7492   20.8396 H   0  0  0  0  0  0
  -32.0963  -17.2237   17.6800 H   0  0  0  0  0  0
  -30.7100  -17.9896   16.9323 H   0  0  0  0  0  0
  -32.4258  -19.6069   16.4715 H   0  0  0  0  0  0
  -33.1729  -19.3643   18.0567 H   0  0  0  0  0  0
  -28.9511  -16.2173   20.1339 H   0  0  0  0  0  0
  -28.5105  -16.4599   21.8531 H   0  0  0  0  0  0
  -30.7420  -16.3413   23.3321 H   0  0  0  0  0  0
  -32.1365  -16.0450   22.2467 H   0  0  0  0  0  0
  -31.5932  -19.9616   20.1574 H   0  0  0  0  0  0
  -29.9163  -20.2225   19.6928 H   0  0  0  0  0  0
  -29.6827  -18.0119   18.9407 H   0  0  0  0  0  0
  -30.2283  -18.1888   21.8405 H   0  0  0  0  0  0
  -30.4226  -23.5460   16.0424 H   0  0  0  0  0  0
  -28.7122  -23.2666   16.3819 H   0  0  0  0  0  0
  -29.8479  -21.9340   16.4734 H   0  0  0  0  0  0
  -32.8570  -21.5984   18.9176 H   0  0  0  0  0  0
  -32.3165  -22.0470   17.3181 H   0  0  0  0  0  0
  -28.5646  -25.5582   21.6939 H   0  0  0  0  0  0
  -27.3664  -24.9975   20.5644 H   0  0  0  0  0  0
  -32.2288  -17.8627   20.3979 H   0  0  0  0  0  0
  -31.5497  -16.5280   19.7738 H   0  0  0  0  0  0
  1 25  1  0  0  0
  1 30  2  0  0  0
  1 87  1  0  0  0
  2  3  1  0  0  0
  2 25  1  0  0  0
  2 90  1  0  0  0
  2 91  1  0  0  0
  3  4  1  0  0  0
  3 92  1  0  0  0
  3 93  1  0  0  0
  4  5  1  0  0  0
  4 94  1  0  0  0
  4 95  1  0  0  0
  5  6  1  0  0  0
  5 26  1  0  0  0
  5 96  1  0  0  0
  6 25  1  0  0  0
  6 97  1  0  0  0
  6 98  1  0  0  0
  7  8  2  0  0  0
  7 26  1  0  0  0
  7 29  1  0  0  0
  8  9  1  0  0  0
  8 22  1  0  0  0
  9 10  1  0  0  0
  9 27  2  0  0  0
 10 11  2  0  0  0
 10 15  1  0  0  0
 11 12  1  0  0  0
 11 99  1  0  0  0
 12 13  2  0  0  0
 12100  1  0  0  0
 13 14  1  0  0  0
 13 31  1  0  0  0
 14 15  2  0  0  0
 14101  1  0  0  0
 15102  1  0  0  0
 16 17  2  0  0  0
 16 21  1  0  0  0
 16 31  1  0  0  0
 17 18  1  0  0  0
 17103  1  0  0  0
 18 19  2  0  0  0
 18104  1  0  0  0
 19 20  1  0  0  0
 19 24  1  0  0  0
 20 21  2  0  0  0
 20105  1  0  0  0
 21 23  1  0  0  0
 22 28  1  0  0  0
 22 32  2  0  0  0
 26 27  1  0  0  0
 28106  1  0  0  0
 28107  1  0  0  0
 29108  1  0  0  0
 29109  1  0  0  0
 33 34  1  0  0  0
 33 66  1  0  0  0
 33 70  2  0  0  0
 34 36  1  0  0  0
 34 59  1  0  0  0
 34110  1  0  0  0
 35 44  2  0  0  0
 35 45  1  0  0  0
 35 68  1  0  0  0
 36 56  1  0  0  0
 36111  1  0  0  0
 37 39  1  0  0  0
 37 47  1  0  0  0
 37 66  1  0  0  0
 37112  1  0  0  0
 38 43  2  0  0  0
 38 46  1  0  0  0
 38 47  1  0  0  0
 39 64  1  0  0  0
 39 67  2  0  0  0
 40 52  1  0  0  0
 40 53  2  0  0  0
 40 58  1  0  0  0
 41113  1  0  0  0
 41114  1  0  0  0
 41115  1  0  0  0
 41 48  1  0  0  0
 42 43  1  0  0  0
 42 66  1  0  0  0
 42116  1  0  0  0
 42117  1  0  0  0
 43 44  1  0  0  0
 44118  1  0  0  0
 45 46  2  0  0  0
 45119  1  0  0  0
 46120  1  0  0  0
 47121  1  0  0  0
 47122  1  0  0  0
 48 56  1  0  0  0
 48 65  1  0  0  0
 48123  1  0  0  0
 49 50  1  0  0  0
 49 53  1  0  0  0
 49 64  1  0  0  0
 49124  1  0  0  0
 50 51  1  0  0  0
 50125  1  0  0  0
 50126  1  0  0  0
 51 52  1  0  0  0
 51127  1  0  0  0
 51128  1  0  0  0
 52129  1  0  0  0
 52130  1  0  0  0
 53 54  1  0  0  0
 54 55  2  0  0  0
 54131  1  0  0  0
 55 57  1  0  0  0
 55132  1  0  0  0
 56 69  2  0  0  0
 57 58  2  0  0  0
 57133  1  0  0  0
 58134  1  0  0  0
 59 60  1  0  0  0
 59 61  1  0  0  0
 59 62  1  0  0  0
 60135  1  0  0  0
 60136  1  0  0  0
 60137  1  0  0  0
 61138  1  0  0  0
 61139  1  0  0  0
 61140  1  0  0  0
 62141  1  0  0  0
 62142  1  0  0  0
 62143  1  0  0  0
 63 65  1  0  0  0
 63144  1  0  0  0
 63145  1  0  0  0
 63146  1  0  0  0
 64147  1  0  0  0
 65148  1  0  0  0
 68 84  1  0  0  0
 71 72  2  0  0  0
 71 85  1  0  0  0
 71149  1  0  0  0
 72 73  1  0  0  0
 72 83  1  0  0  0
 73 82  1  0  0  0
 73 86  2  0  0  0
 74 84  1  0  0  0
 74 85  2  0  0  0
 74 86  1  0  0  0
 75 76  1  0  0  0
 75 80  1  0  0  0
 75150  1  0  0  0
 75151  1  0  0  0
 76 88  1  0  0  0
 76152  1  0  0  0
 76153  1  0  0  0
 77 81  1  0  0  0
 77 87  1  0  0  0
 77154  1  0  0  0
 77155  1  0  0  0
 78 81  1  0  0  0
 78 87  1  0  0  0
 78156  1  0  0  0
 78157  1  0  0  0
 79 80  1  0  0  0
 79 88  1  0  0  0
 79158  1  0  0  0
 79159  1  0  0  0
 80 89  1  0  0  0
 80160  1  0  0  0
 81 89  1  0  0  0
 81161  1  0  0  0
 82162  1  0  0  0
 82163  1  0  0  0
 82164  1  0  0  0
 83 88  1  0  0  0
 83165  1  0  0  0
 83166  1  0  0  0
 84167  1  0  0  0
 84168  1  0  0  0
 89169  1  0  0  0
 89170  1  0  0  0
M  CHG  1  89   1
M  ISO  4   1 100  68 101  84 101  87 100
M  END
> <chiral flag>
0

> <version>
0

> <s_m_source_file>
/data/baiqing/PycharmProjects/Reinvent-master-3.2/result/LINK_invent/BTK/process_docking_weight1_custom_sum_contain_oxygen_bond_distance_aromatic_linkinvent_7_9_3/rearranged_h_0188.sdf

> <i_m_source_file_index>
3

> <r_mmod_Potential_Energy-OPLS-2005>
-352.924346923828

> <r_mmod_Stretch_Energy-OPLS-2005>
32.5950088500977

> <r_mmod_Bend_Energy-OPLS-2005>
121.325637817383

> <r_mmod_Torsional_Energy-OPLS-2005>
412.312683105469

> <r_mmod_Improper_Torsional_Energy-OPLS-2005>
9.45668792724609

> <r_mmod_Van_der_Waal_Energy-OPLS-2005>
171.471878051758

> <r_mmod_Electrostatic_Energy-OPLS-2005>
-640.549560546875

> <r_mmod_Solvation_Energy-OPLS-2005>
-466.105255126953

> <b_mmod_Minimization_Converged-OPLS-2005>
0

> <r_mmod_RMS_Derivative-OPLS-2005>
2.30381512641907

$$$$
3
                    3D
 Structure written by MMmdl.
166175  0  0  1  0            999 V2000
  -30.6696  -14.6739   20.4644 C   0  0  0  0  0  0
  -30.4220  -12.4133   19.4625 C   0  0  0  0  0  0
  -29.5037  -12.4873   18.2261 C   0  0  0  0  0  0
  -28.0284  -12.3311   18.6417 C   0  0  0  0  0  0
  -27.6419  -13.2307   19.8480 C   0  0  2  0  0  0
  -28.6892  -13.1647   20.9799 C   0  0  0  0  0  0
  -25.2547  -13.8204   20.5714 C   0  0  0  0  0  0
  -24.1828  -13.0455   20.9210 C   0  0  0  0  0  0
  -24.6400  -11.6928   20.8745 C   0  0  0  0  0  0
  -23.9075  -10.4306   21.0400 C   0  0  0  0  0  0
  -24.3630   -9.4227   21.9180 C   0  0  0  0  0  0
  -23.6308   -8.2259   22.0754 C   0  0  0  0  0  0
  -22.4288   -8.0290   21.3548 C   0  0  0  0  0  0
  -21.9921   -9.0262   20.4647 C   0  0  0  0  0  0
  -22.7243  -10.2147   20.3056 C   0  0  0  0  0  0
  -21.6858   -6.0741   22.5279 C   0  0  0  0  0  0
  -21.4013   -6.5644   23.8213 C   0  0  0  0  0  0
  -21.3659   -5.6795   24.9174 C   0  0  0  0  0  0
  -21.6050   -4.3060   24.7218 C   0  0  0  0  0  0
  -21.8826   -3.8152   23.4340 C   0  0  0  0  0  0
  -21.9200   -4.6970   22.3399 C   0  0  0  0  0  0
  -22.7856  -13.5244   21.1853 C   0  0  0  0  0  0
  -22.1667   -4.2163   21.0974 F   0  0  0  0  0  0
  -21.5626   -3.4536   25.7726 F   0  0  0  0  0  0
  -29.9905  -13.4839   20.3855 N   0  0  0  0  0  0
  -26.2952  -12.9397   20.3286 N   0  0  0  0  0  0
  -25.9334  -11.6543   20.5760 N   0  0  0  0  0  0
  -22.0483  -12.8252   22.0400 N   0  0  0  0  0  0
  -25.4294  -15.1924   20.4135 N   0  0  0  0  0  0
  -31.8739  -14.7058   20.1916 O   0  0  0  0  0  0
  -21.6656   -6.8885   21.4241 O   0  0  0  0  0  0
  -22.3553  -14.5538   20.6669 O   0  0  0  0  0  0
  -24.6269  -31.8585   23.2011 C   0  0  0  0  0  0
  -25.9111  -32.4778   23.8349 C   0  0  1  0  0  0
  -27.2240  -27.3141   20.1236 C   0  0  0  0  0  0
  -25.5926  -33.8580   24.2279 N   0  0  0  0  0  0
  -23.4208  -30.4813   21.5433 C   0  0  2  0  0  0
  -24.8668  -28.9291   20.1120 C   0  0  0  0  0  0
  -22.7478  -29.4616   22.4926 C   0  0  0  0  0  0
  -18.0281  -28.1385   22.8484 C   0  0  0  0  0  0
  -24.1486  -36.7298   23.2641 C   0  0  0  0  0  0
  -25.9607  -30.7885   21.3704 C   0  0  0  0  0  0
  -26.0345  -29.4138   20.7148 C   0  0  0  0  0  0
  -27.2173  -28.6188   20.7060 C   0  0  0  0  0  0
  -26.0363  -26.8757   19.5006 C   0  0  0  0  0  0
  -24.8690  -27.6662   19.4955 C   0  0  0  0  0  0
  -23.6370  -29.8136   20.1584 C   0  0  0  0  0  0
  -25.4111  -36.3085   24.0333 C   0  0  1  0  0  0
  -20.5885  -28.3684   23.1286 C   0  0  2  0  0  0
  -20.6774  -26.9411   22.5407 C   0  0  0  0  0  0
  -19.5752  -26.6380   21.5210 C   0  0  0  0  0  0
  -18.1927  -26.7928   22.1616 C   0  0  0  0  0  0
  -19.1536  -28.8851   23.2880 C   0  0  0  0  0  0
  -18.9463  -30.1452   23.8900 C   0  0  0  0  0  0
  -17.6464  -30.6588   24.0564 C   0  0  0  0  0  0
  -25.9047  -34.9453   23.5105 C   0  0  0  0  0  0
  -16.5353  -29.9089   23.6333 C   0  0  0  0  0  0
  -16.7266  -28.6507   23.0351 C   0  0  0  0  0  0
  -26.4498  -31.6599   25.0723 C   0  0  0  0  0  0
  -25.3737  -31.3739   26.1460 C   0  0  0  0  0  0
  -27.0348  -30.3029   24.6171 C   0  0  0  0  0  0
  -27.6049  -32.4343   25.7498 C   0  0  0  0  0  0
  -27.5581  -37.1805   24.8464 C   0  0  0  0  0  0
  -21.4189  -29.3039   22.3678 N   0  0  0  0  0  0
  -26.4287  -37.3782   23.9413 N   0  0  0  0  0  0
  -24.6884  -31.0592   22.0959 N   0  0  0  0  0  0
  -23.4205  -28.8160   23.3005 O   0  0  0  0  0  0
  -28.3562  -26.4907   20.1479 O   0  0  0  0  0  0
  -26.5611  -34.8925   22.4667 O   0  0  0  0  0  0
  -23.5426  -32.1389   23.7326 O   0  0  0  0  0  0
  -29.4240  -22.0818   18.0061 C   0  0  0  0  0  0
  -29.5564  -22.8650   16.8532 C   0  0  0  0  0  0
  -28.9846  -22.6506   19.2239 C   0  0  0  0  0  0
  -28.7045  -24.0864   19.2037 C   0  0  0  0  0  0
  -29.2658  -24.2266   16.9280 C   0  0  0  0  0  0
  -30.3146  -16.8045   19.3154 C   0  0  0  0  0  0
  -29.7594  -16.6821   21.6381 C   0  0  0  0  0  0
  -29.4213  -18.0833   19.1445 C   0  0  0  0  0  0
  -28.8991  -18.0036   21.4862 C   0  0  0  0  0  0
  -29.2242  -26.4131   15.9267 C   0  0  0  0  0  0
  -28.9308  -21.6504   20.4357 C   0  0  0  0  0  0
  -28.2213  -25.0199   20.3634 C   0  0  0  0  0  0
  -28.3850  -20.1539   20.1837 C   0  0  0  0  0  0
  -28.8516  -24.8075   18.0675 N   0  0  0  0  0  0
  -29.9521  -15.8627   20.4131 N   0  0  0  0  0  0
  -29.2963  -18.9283   20.3699 N   0  3  0  0  0  0
  -29.4135  -25.0060   15.8007 O   0  0  0  0  0  0
  -31.4651  -12.5154   19.1572 H   0  0  0  0  0  0
  -30.3457  -11.4386   19.9466 H   0  0  0  0  0  0
  -29.7745  -11.7109   17.5092 H   0  0  0  0  0  0
  -29.6465  -13.4389   17.7131 H   0  0  0  0  0  0
  -27.8730  -11.2830   18.8996 H   0  0  0  0  0  0
  -27.3750  -12.5354   17.7922 H   0  0  0  0  0  0
  -27.6373  -14.2538   19.4721 H   0  0  0  0  0  0
  -28.7117  -12.1746   21.4379 H   0  0  0  0  0  0
  -28.4412  -13.8694   21.7741 H   0  0  0  0  0  0
  -25.2765   -9.5709   22.4769 H   0  0  0  0  0  0
  -24.0022   -7.4652   22.7474 H   0  0  0  0  0  0
  -21.0852   -8.8770   19.8956 H   0  0  0  0  0  0
  -22.3682  -10.9687   19.6177 H   0  0  0  0  0  0
  -21.1997   -7.6151   23.9718 H   0  0  0  0  0  0
  -21.1474   -6.0522   25.9080 H   0  0  0  0  0  0
  -22.0606   -2.7615   23.2832 H   0  0  0  0  0  0
  -22.4069  -11.9909   22.4809 H   0  0  0  0  0  0
  -21.1093  -13.1290   22.2549 H   0  0  0  0  0  0
  -24.6663  -15.8514   20.5182 H   0  0  0  0  0  0
  -26.2839  -15.6222   20.0839 H   0  0  0  0  0  0
  -26.7177  -32.5447   23.1097 H   0  0  0  0  0  0
  -25.0094  -33.9731   25.0439 H   0  0  0  0  0  0
  -22.7147  -31.3018   21.3986 H   0  0  0  0  0  0
  -23.3750  -35.9631   23.3296 H   0  0  0  0  0  0
  -24.3571  -36.8923   22.2056 H   0  0  0  0  0  0
  -23.7243  -37.6500   23.6664 H   0  0  0  0  0  0
  -26.0879  -31.5492   20.5990 H   0  0  0  0  0  0
  -26.8435  -30.8416   21.9963 H   0  0  0  0  0  0
  -28.1169  -28.9885   21.1781 H   0  0  0  0  0  0
  -26.0034  -25.9106   19.0149 H   0  0  0  0  0  0
  -23.9745  -27.2909   19.0168 H   0  0  0  0  0  0
  -23.7624  -30.5913   19.4035 H   0  0  0  0  0  0
  -22.7568  -29.2456   19.8532 H   0  0  0  0  0  0
  -25.1294  -36.1937   25.0828 H   0  0  0  0  0  0
  -20.9970  -28.3249   24.1410 H   0  0  0  0  0  0
  -20.5667  -26.2298   23.3603 H   0  0  0  0  0  0
  -21.6646  -26.7440   22.1208 H   0  0  0  0  0  0
  -19.6915  -25.6289   21.1244 H   0  0  0  0  0  0
  -19.6697  -27.3190   20.6741 H   0  0  0  0  0  0
  -17.4206  -26.6674   21.4010 H   0  0  0  0  0  0
  -18.0321  -26.0068   22.9009 H   0  0  0  0  0  0
  -19.7940  -30.7260   24.2277 H   0  0  0  0  0  0
  -17.5021  -31.6270   24.5154 H   0  0  0  0  0  0
  -15.5355  -30.2993   23.7653 H   0  0  0  0  0  0
  -15.8663  -28.0823   22.7073 H   0  0  0  0  0  0
  -24.5895  -30.7109   25.7796 H   0  0  0  0  0  0
  -24.8951  -32.2907   26.4911 H   0  0  0  0  0  0
  -25.8064  -30.8900   27.0224 H   0  0  0  0  0  0
  -26.2926  -29.6768   24.1208 H   0  0  0  0  0  0
  -27.4078  -29.7300   25.4670 H   0  0  0  0  0  0
  -27.8776  -30.4334   23.9378 H   0  0  0  0  0  0
  -27.2655  -33.3640   26.2082 H   0  0  0  0  0  0
  -28.3861  -32.6913   25.0332 H   0  0  0  0  0  0
  -28.0723  -31.8470   26.5414 H   0  0  0  0  0  0
  -28.2596  -38.0104   24.7514 H   0  0  0  0  0  0
  -28.1074  -36.2634   24.6280 H   0  0  0  0  0  0
  -27.2295  -37.1455   25.8866 H   0  0  0  0  0  0
  -20.9359  -29.8774   21.6904 H   0  0  0  0  0  0
  -26.0166  -38.2856   24.1413 H   0  0  0  0  0  0
  -29.6771  -21.0347   17.9413 H   0  0  0  0  0  0
  -29.8935  -22.4270   15.9236 H   0  0  0  0  0  0
  -31.3483  -17.1291   19.4545 H   0  0  0  0  0  0
  -30.3056  -16.2568   18.3707 H   0  0  0  0  0  0
  -29.3054  -16.0588   22.4091 H   0  0  0  0  0  0
  -30.7453  -16.9491   22.0249 H   0  0  0  0  0  0
  -28.4251  -17.7736   18.8248 H   0  0  0  0  0  0
  -29.8217  -18.6910   18.3323 H   0  0  0  0  0  0
  -28.9236  -18.5581   22.4256 H   0  0  0  0  0  0
  -27.8581  -17.7120   21.3377 H   0  0  0  0  0  0
  -29.3783  -26.8912   14.9590 H   0  0  0  0  0  0
  -29.9433  -26.8460   16.6239 H   0  0  0  0  0  0
  -28.2142  -26.6563   16.2599 H   0  0  0  0  0  0
  -28.2980  -22.1149   21.1935 H   0  0  0  0  0  0
  -29.9238  -21.6051   20.8830 H   0  0  0  0  0  0
  -28.8169  -24.7728   21.2417 H   0  0  0  0  0  0
  -27.1984  -24.7492   20.6274 H   0  0  0  0  0  0
  -27.8999  -20.1076   19.2086 H   0  0  0  0  0  0
  -27.5448  -20.0251   20.8670 H   0  0  0  0  0  0
  -30.2175  -19.2806   20.5865 H   0  0  0  0  0  0
  1 25  1  0  0  0
  1 30  2  0  0  0
  1 85  1  0  0  0
  2  3  1  0  0  0
  2 25  1  0  0  0
  2 88  1  0  0  0
  2 89  1  0  0  0
  3  4  1  0  0  0
  3 90  1  0  0  0
  3 91  1  0  0  0
  4  5  1  0  0  0
  4 92  1  0  0  0
  4 93  1  0  0  0
  5  6  1  0  0  0
  5 26  1  0  0  0
  5 94  1  0  0  0
  6 25  1  0  0  0
  6 95  1  0  0  0
  6 96  1  0  0  0
  7  8  2  0  0  0
  7 26  1  0  0  0
  7 29  1  0  0  0
  8  9  1  0  0  0
  8 22  1  0  0  0
  9 10  1  0  0  0
  9 27  2  0  0  0
 10 11  2  0  0  0
 10 15  1  0  0  0
 11 12  1  0  0  0
 11 97  1  0  0  0
 12 13  2  0  0  0
 12 98  1  0  0  0
 13 14  1  0  0  0
 13 31  1  0  0  0
 14 15  2  0  0  0
 14 99  1  0  0  0
 15100  1  0  0  0
 16 17  2  0  0  0
 16 21  1  0  0  0
 16 31  1  0  0  0
 17 18  1  0  0  0
 17101  1  0  0  0
 18 19  2  0  0  0
 18102  1  0  0  0
 19 20  1  0  0  0
 19 24  1  0  0  0
 20 21  2  0  0  0
 20103  1  0  0  0
 21 23  1  0  0  0
 22 28  1  0  0  0
 22 32  2  0  0  0
 26 27  1  0  0  0
 28104  1  0  0  0
 28105  1  0  0  0
 29106  1  0  0  0
 29107  1  0  0  0
 33 34  1  0  0  0
 33 66  1  0  0  0
 33 70  2  0  0  0
 34 36  1  0  0  0
 34 59  1  0  0  0
 34108  1  0  0  0
 35 44  2  0  0  0
 35 45  1  0  0  0
 35 68  1  0  0  0
 36 56  1  0  0  0
 36109  1  0  0  0
 37 39  1  0  0  0
 37 47  1  0  0  0
 37 66  1  0  0  0
 37110  1  0  0  0
 38 43  2  0  0  0
 38 46  1  0  0  0
 38 47  1  0  0  0
 39 64  1  0  0  0
 39 67  2  0  0  0
 40 52  1  0  0  0
 40 53  2  0  0  0
 40 58  1  0  0  0
 41111  1  0  0  0
 41112  1  0  0  0
 41113  1  0  0  0
 41 48  1  0  0  0
 42 43  1  0  0  0
 42 66  1  0  0  0
 42114  1  0  0  0
 42115  1  0  0  0
 43 44  1  0  0  0
 44116  1  0  0  0
 45 46  2  0  0  0
 45117  1  0  0  0
 46118  1  0  0  0
 47119  1  0  0  0
 47120  1  0  0  0
 48 56  1  0  0  0
 48 65  1  0  0  0
 48121  1  0  0  0
 49 50  1  0  0  0
 49 53  1  0  0  0
 49 64  1  0  0  0
 49122  1  0  0  0
 50 51  1  0  0  0
 50123  1  0  0  0
 50124  1  0  0  0
 51 52  1  0  0  0
 51125  1  0  0  0
 51126  1  0  0  0
 52127  1  0  0  0
 52128  1  0  0  0
 53 54  1  0  0  0
 54 55  2  0  0  0
 54129  1  0  0  0
 55 57  1  0  0  0
 55130  1  0  0  0
 56 69  2  0  0  0
 57 58  2  0  0  0
 57131  1  0  0  0
 58132  1  0  0  0
 59 60  1  0  0  0
 59 61  1  0  0  0
 59 62  1  0  0  0
 60133  1  0  0  0
 60134  1  0  0  0
 60135  1  0  0  0
 61136  1  0  0  0
 61137  1  0  0  0
 61138  1  0  0  0
 62139  1  0  0  0
 62140  1  0  0  0
 62141  1  0  0  0
 63 65  1  0  0  0
 63142  1  0  0  0
 63143  1  0  0  0
 63144  1  0  0  0
 64145  1  0  0  0
 65146  1  0  0  0
 68 82  1  0  0  0
 71 72  2  0  0  0
 71 73  1  0  0  0
 71147  1  0  0  0
 72 75  1  0  0  0
 72148  1  0  0  0
 73 74  2  0  0  0
 73 81  1  0  0  0
 74 82  1  0  0  0
 74 84  1  0  0  0
 75 84  2  0  0  0
 75 87  1  0  0  0
 76 78  1  0  0  0
 76 85  1  0  0  0
 76149  1  0  0  0
 76150  1  0  0  0
 77 79  1  0  0  0
 77 85  1  0  0  0
 77151  1  0  0  0
 77152  1  0  0  0
 78 86  1  0  0  0
 78153  1  0  0  0
 78154  1  0  0  0
 79 86  1  0  0  0
 79155  1  0  0  0
 79156  1  0  0  0
 80 87  1  0  0  0
 80157  1  0  0  0
 80158  1  0  0  0
 80159  1  0  0  0
 81 83  1  0  0  0
 81160  1  0  0  0
 81161  1  0  0  0
 82162  1  0  0  0
 82163  1  0  0  0
 83164  1  0  0  0
 83165  1  0  0  0
 83 86  1  0  0  0
 86166  1  0  0  0
M  CHG  1  86   1
M  ISO  4   1 100  68 101  82 101  85 100
M  END
> <chiral flag>
0

> <version>
0

> <s_m_source_file>
/data/baiqing/PycharmProjects/Reinvent-master-3.2/result/LINK_invent/BTK/process_docking_weight1_custom_sum_contain_oxygen_bond_distance_aromatic_linkinvent_7_9_3/rearranged_h_0188.sdf

> <i_m_source_file_index>
4

> <r_mmod_Potential_Energy-OPLS-2005>
81.3136138916016

> <r_mmod_Stretch_Energy-OPLS-2005>
97.5274658203125

> <r_mmod_Bend_Energy-OPLS-2005>
179.055740356445

> <r_mmod_Torsional_Energy-OPLS-2005>
411.825012207031

> <r_mmod_Improper_Torsional_Energy-OPLS-2005>
17.2042064666748

> <r_mmod_Van_der_Waal_Energy-OPLS-2005>
152.164657592773

> <r_mmod_Electrostatic_Energy-OPLS-2005>
-363.494201660156

> <r_mmod_Solvation_Energy-OPLS-2005>
-471.863250732422

> <b_mmod_Minimization_Converged-OPLS-2005>
0

> <r_mmod_RMS_Derivative-OPLS-2005>
1.51417434215546

$$$$
4
                    3D
 Structure written by MMmdl.
157166  0  0  1  0            999 V2000
  -30.5658  -14.7975   20.4364 C   0  0  0  0  0  0
  -30.4378  -12.4751   19.5039 C   0  0  0  0  0  0
  -29.5241  -12.5164   18.2568 C   0  0  0  0  0  0
  -28.0464  -12.3490   18.6547 C   0  0  0  0  0  0
  -27.6454  -13.2325   19.8667 C   0  0  2  0  0  0
  -28.6876  -13.1658   21.0078 C   0  0  0  0  0  0
  -25.2517  -13.8187   20.5677 C   0  0  0  0  0  0
  -24.1808  -13.0441   20.9187 C   0  0  0  0  0  0
  -24.6366  -11.6898   20.8733 C   0  0  0  0  0  0
  -23.9014  -10.4294   21.0374 C   0  0  0  0  0  0
  -24.3593   -9.4230   21.9152 C   0  0  0  0  0  0
  -23.6304   -8.2245   22.0718 C   0  0  0  0  0  0
  -22.4290   -8.0251   21.3509 C   0  0  0  0  0  0
  -21.9898   -9.0205   20.4605 C   0  0  0  0  0  0
  -22.7193  -10.2116   20.3028 C   0  0  0  0  0  0
  -21.6860   -6.0711   22.5247 C   0  0  0  0  0  0
  -21.4017   -6.5622   23.8170 C   0  0  0  0  0  0
  -21.3683   -5.6775   24.9147 C   0  0  0  0  0  0
  -21.6075   -4.3048   24.7216 C   0  0  0  0  0  0
  -21.8822   -3.8123   23.4338 C   0  0  0  0  0  0
  -21.9197   -4.6920   22.3388 C   0  0  0  0  0  0
  -22.7847  -13.5217   21.1857 C   0  0  0  0  0  0
  -22.1655   -4.2107   21.0969 F   0  0  0  0  0  0
  -21.5650   -3.4525   25.7731 F   0  0  0  0  0  0
  -29.9900  -13.5388   20.4379 N   0  0  0  0  0  0
  -26.2945  -12.9359   20.3324 N   0  0  0  0  0  0
  -25.9315  -11.6512   20.5758 N   0  0  0  0  0  0
  -22.0491  -12.8208   22.0428 N   0  0  0  0  0  0
  -25.4262  -15.1906   20.4082 N   0  0  0  0  0  0
  -31.7158  -14.9350   20.0077 O   0  0  0  0  0  0
  -21.6661   -6.8851   21.4209 O   0  0  0  0  0  0
  -22.3549  -14.5519   20.6682 O   0  0  0  0  0  0
  -24.6385  -31.8482   23.1943 C   0  0  0  0  0  0
  -25.9185  -32.4716   23.8301 C   0  0  1  0  0  0
  -27.2207  -27.2055   20.1073 C   0  0  0  0  0  0
  -25.5949  -33.8514   24.2213 N   0  0  0  0  0  0
  -23.4382  -30.4675   21.5445 C   0  0  2  0  0  0
  -24.8836  -28.9105   20.0988 C   0  0  0  0  0  0
  -22.7552  -29.4545   22.4955 C   0  0  0  0  0  0
  -18.0286  -28.1410   22.8484 C   0  0  0  0  0  0
  -24.1492  -36.7263   23.2644 C   0  0  0  0  0  0
  -25.9873  -30.7383   21.3851 C   0  0  0  0  0  0
  -26.0566  -29.3570   20.7215 C   0  0  0  0  0  0
  -27.2230  -28.5147   20.7176 C   0  0  0  0  0  0
  -26.0323  -26.8562   19.4300 C   0  0  0  0  0  0
  -24.8819  -27.6728   19.4373 C   0  0  0  0  0  0
  -23.6554  -29.8028   20.1588 C   0  0  0  0  0  0
  -25.4121  -36.3047   24.0323 C   0  0  1  0  0  0
  -20.5901  -28.3698   23.1301 C   0  0  2  0  0  0
  -20.6798  -26.9415   22.5438 C   0  0  0  0  0  0
  -19.5769  -26.6390   21.5242 C   0  0  0  0  0  0
  -18.1940  -26.7946   22.1637 C   0  0  0  0  0  0
  -19.1552  -28.8876   23.2871 C   0  0  0  0  0  0
  -18.9455  -30.1491   23.8871 C   0  0  0  0  0  0
  -17.6454  -30.6598   24.0561 C   0  0  0  0  0  0
  -25.9073  -34.9417   23.5074 C   0  0  0  0  0  0
  -16.5337  -29.9091   23.6355 C   0  0  0  0  0  0
  -16.7273  -28.6524   23.0339 C   0  0  0  0  0  0
  -26.4508  -31.6560   25.0714 C   0  0  0  0  0  0
  -25.3695  -31.3739   26.1419 C   0  0  0  0  0  0
  -27.0374  -30.2966   24.6259 C   0  0  0  0  0  0
  -27.6067  -32.4295   25.7486 C   0  0  0  0  0  0
  -27.5570  -37.1788   24.8457 C   0  0  0  0  0  0
  -21.4253  -29.3004   22.3675 N   0  0  0  0  0  0
  -26.4289  -37.3752   23.9408 N   0  0  0  0  0  0
  -24.7085  -31.0365   22.0971 N   0  0  0  0  0  0
  -23.4221  -28.8101   23.3087 O   0  0  0  0  0  0
  -28.3020  -26.2759   20.1863 O   0  0  0  0  0  0
  -26.5666  -34.8903   22.4656 O   0  0  0  0  0  0
  -23.5522  -32.1347   23.7199 O   0  0  0  0  0  0
  -31.0535  -21.2018   20.2756 C   0  0  0  0  0  0
  -31.8330  -20.0370   20.3062 C   0  0  0  0  0  0
  -29.6633  -21.0836   20.2374 C   0  0  0  0  0  0
  -29.9769  -18.6802   20.2856 C   0  0  0  0  0  0
  -27.0783  -23.9298   20.4642 C   0  0  0  0  0  0
  -27.4357  -22.4161   20.2486 C   0  0  0  0  0  0
  -29.3878  -23.7532   20.1338 C   0  0  0  0  0  0
  -28.1942  -24.7894   19.8168 C   0  0  2  0  0  0
  -33.3375  -20.1349   20.1825 C   0  0  0  0  0  0
  -29.4915  -17.1911   19.9357 C   0  0  0  0  0  0
  -31.2985  -18.8002   20.3430 N   0  0  0  0  0  0
  -29.1430  -19.7870   20.2259 N   0  0  0  0  0  0
  -28.8870  -22.3247   20.1549 N   0  0  0  0  0  0
  -29.7650  -15.8956   20.7271 N   0  0  0  0  0  0
  -31.4779  -12.6068   19.2081 H   0  0  0  0  0  0
  -30.3921  -11.4971   19.9868 H   0  0  0  0  0  0
  -29.8163  -11.7361   17.5538 H   0  0  0  0  0  0
  -29.6585  -13.4674   17.7383 H   0  0  0  0  0  0
  -27.8889  -11.2998   18.8973 H   0  0  0  0  0  0
  -27.4036  -12.5620   17.8005 H   0  0  0  0  0  0
  -27.6370  -14.2561   19.4977 H   0  0  0  0  0  0
  -28.7327  -12.1643   21.4389 H   0  0  0  0  0  0
  -28.4090  -13.8362   21.8237 H   0  0  0  0  0  0
  -25.2703   -9.5747   22.4753 H   0  0  0  0  0  0
  -24.0014   -7.4668   22.7480 H   0  0  0  0  0  0
  -21.0799   -8.8691   19.8965 H   0  0  0  0  0  0
  -22.3563  -10.9646   19.6173 H   0  0  0  0  0  0
  -21.1982   -7.6118   23.9648 H   0  0  0  0  0  0
  -21.1525   -6.0521   25.9059 H   0  0  0  0  0  0
  -22.0594   -2.7574   23.2819 H   0  0  0  0  0  0
  -22.4089  -11.9882   22.4836 H   0  0  0  0  0  0
  -21.1103  -13.1232   22.2588 H   0  0  0  0  0  0
  -24.6548  -15.8440   20.4985 H   0  0  0  0  0  0
  -26.2656  -15.6200   20.0408 H   0  0  0  0  0  0
  -26.7252  -32.5338   23.1036 H   0  0  0  0  0  0
  -25.0027  -33.9634   25.0312 H   0  0  0  0  0  0
  -22.7348  -31.2907   21.4009 H   0  0  0  0  0  0
  -23.3753  -35.9601   23.3312 H   0  0  0  0  0  0
  -24.3573  -36.8879   22.2054 H   0  0  0  0  0  0
  -23.7242  -37.6463   23.6668 H   0  0  0  0  0  0
  -26.1322  -31.4954   20.6141 H   0  0  0  0  0  0
  -26.8643  -30.7888   22.0203 H   0  0  0  0  0  0
  -28.1176  -28.8468   21.2259 H   0  0  0  0  0  0
  -25.9668  -25.9292   18.8831 H   0  0  0  0  0  0
  -23.9942  -27.3385   18.9154 H   0  0  0  0  0  0
  -23.7720  -30.5826   19.4048 H   0  0  0  0  0  0
  -22.7708  -29.2388   19.8594 H   0  0  0  0  0  0
  -25.1308  -36.1887   25.0816 H   0  0  0  0  0  0
  -20.9958  -28.3261   24.1439 H   0  0  0  0  0  0
  -20.5761  -26.2273   23.3625 H   0  0  0  0  0  0
  -21.6648  -26.7487   22.1173 H   0  0  0  0  0  0
  -19.6925  -25.6303   21.1260 H   0  0  0  0  0  0
  -19.6724  -27.3215   20.6787 H   0  0  0  0  0  0
  -17.4222  -26.6698   21.4023 H   0  0  0  0  0  0
  -18.0307  -26.0107   22.9043 H   0  0  0  0  0  0
  -19.7929  -30.7327   24.2202 H   0  0  0  0  0  0
  -17.4996  -31.6275   24.5167 H   0  0  0  0  0  0
  -15.5336  -30.2966   23.7721 H   0  0  0  0  0  0
  -15.8673  -28.0854   22.7037 H   0  0  0  0  0  0
  -24.5868  -30.7105   25.7709 H   0  0  0  0  0  0
  -24.8898  -32.2927   26.4804 H   0  0  0  0  0  0
  -25.7971  -30.8909   27.0216 H   0  0  0  0  0  0
  -26.2992  -29.6681   24.1271 H   0  0  0  0  0  0
  -27.4011  -29.7259   25.4810 H   0  0  0  0  0  0
  -27.8875  -30.4208   23.9553 H   0  0  0  0  0  0
  -27.2692  -33.3603   26.2055 H   0  0  0  0  0  0
  -28.3884  -32.6837   25.0311 H   0  0  0  0  0  0
  -28.0737  -31.8420   26.5402 H   0  0  0  0  0  0
  -28.2589  -38.0085   24.7514 H   0  0  0  0  0  0
  -28.1076  -36.2617   24.6288 H   0  0  0  0  0  0
  -27.2296  -37.1420   25.8863 H   0  0  0  0  0  0
  -20.9477  -29.8653   21.6800 H   0  0  0  0  0  0
  -26.0159  -38.2829   24.1421 H   0  0  0  0  0  0
  -31.5408  -22.1655   20.2449 H   0  0  0  0  0  0
  -27.0502  -24.1447   21.5328 H   0  0  0  0  0  0
  -26.0847  -24.1437   20.0701 H   0  0  0  0  0  0
  -27.0051  -22.0361   19.3206 H   0  0  0  0  0  0
  -27.0593  -21.7915   21.0605 H   0  0  0  0  0  0
  -29.7933  -23.9681   21.1233 H   0  0  0  0  0  0
  -30.2086  -23.8745   19.4250 H   0  0  0  0  0  0
  -28.0493  -24.7574   18.7351 H   0  0  0  0  0  0
  -33.7229  -20.9914   20.7362 H   0  0  0  0  0  0
  -33.5982  -20.2706   19.1326 H   0  0  0  0  0  0
  -33.8392  -19.2380   20.5421 H   0  0  0  0  0  0
  -29.8349  -16.9992   18.9175 H   0  0  0  0  0  0
  -28.4083  -17.2510   19.8367 H   0  0  0  0  0  0
  -28.9697  -15.6474   21.2919 H   0  0  0  0  0  0
  1 25  1  0  0  0
  1 30  2  0  0  0
  1 84  1  0  0  0
  2  3  1  0  0  0
  2 25  1  0  0  0
  2 85  1  0  0  0
  2 86  1  0  0  0
  3  4  1  0  0  0
  3 87  1  0  0  0
  3 88  1  0  0  0
  4  5  1  0  0  0
  4 89  1  0  0  0
  4 90  1  0  0  0
  5  6  1  0  0  0
  5 26  1  0  0  0
  5 91  1  0  0  0
  6 25  1  0  0  0
  6 92  1  0  0  0
  6 93  1  0  0  0
  7  8  2  0  0  0
  7 26  1  0  0  0
  7 29  1  0  0  0
  8  9  1  0  0  0
  8 22  1  0  0  0
  9 10  1  0  0  0
  9 27  2  0  0  0
 10 11  2  0  0  0
 10 15  1  0  0  0
 11 12  1  0  0  0
 11 94  1  0  0  0
 12 13  2  0  0  0
 12 95  1  0  0  0
 13 14  1  0  0  0
 13 31  1  0  0  0
 14 15  2  0  0  0
 14 96  1  0  0  0
 15 97  1  0  0  0
 16 17  2  0  0  0
 16 21  1  0  0  0
 16 31  1  0  0  0
 17 18  1  0  0  0
 17 98  1  0  0  0
 18 19  2  0  0  0
 18 99  1  0  0  0
 19 20  1  0  0  0
 19 24  1  0  0  0
 20 21  2  0  0  0
 20100  1  0  0  0
 21 23  1  0  0  0
 22 28  1  0  0  0
 22 32  2  0  0  0
 26 27  1  0  0  0
 28101  1  0  0  0
 28102  1  0  0  0
 29103  1  0  0  0
 29104  1  0  0  0
 33 34  1  0  0  0
 33 66  1  0  0  0
 33 70  2  0  0  0
 34 36  1  0  0  0
 34 59  1  0  0  0
 34105  1  0  0  0
 35 44  2  0  0  0
 35 45  1  0  0  0
 35 68  1  0  0  0
 36 56  1  0  0  0
 36106  1  0  0  0
 37 39  1  0  0  0
 37 47  1  0  0  0
 37 66  1  0  0  0
 37107  1  0  0  0
 38 43  2  0  0  0
 38 46  1  0  0  0
 38 47  1  0  0  0
 39 64  1  0  0  0
 39 67  2  0  0  0
 40 52  1  0  0  0
 40 53  2  0  0  0
 40 58  1  0  0  0
 41108  1  0  0  0
 41109  1  0  0  0
 41110  1  0  0  0
 41 48  1  0  0  0
 42 43  1  0  0  0
 42 66  1  0  0  0
 42111  1  0  0  0
 42112  1  0  0  0
 43 44  1  0  0  0
 44113  1  0  0  0
 45 46  2  0  0  0
 45114  1  0  0  0
 46115  1  0  0  0
 47116  1  0  0  0
 47117  1  0  0  0
 48 56  1  0  0  0
 48 65  1  0  0  0
 48118  1  0  0  0
 49 50  1  0  0  0
 49 53  1  0  0  0
 49 64  1  0  0  0
 49119  1  0  0  0
 50 51  1  0  0  0
 50120  1  0  0  0
 50121  1  0  0  0
 51 52  1  0  0  0
 51122  1  0  0  0
 51123  1  0  0  0
 52124  1  0  0  0
 52125  1  0  0  0
 53 54  1  0  0  0
 54 55  2  0  0  0
 54126  1  0  0  0
 55 57  1  0  0  0
 55127  1  0  0  0
 56 69  2  0  0  0
 57 58  2  0  0  0
 57128  1  0  0  0
 58129  1  0  0  0
 59 60  1  0  0  0
 59 61  1  0  0  0
 59 62  1  0  0  0
 60130  1  0  0  0
 60131  1  0  0  0
 60132  1  0  0  0
 61133  1  0  0  0
 61134  1  0  0  0
 61135  1  0  0  0
 62136  1  0  0  0
 62137  1  0  0  0
 62138  1  0  0  0
 63 65  1  0  0  0
 63139  1  0  0  0
 63140  1  0  0  0
 63141  1  0  0  0
 64142  1  0  0  0
 65143  1  0  0  0
 68 78  1  0  0  0
 71 72  2  0  0  0
 71 73  1  0  0  0
 71144  1  0  0  0
 72 79  1  0  0  0
 72 81  1  0  0  0
 73 82  2  0  0  0
 73 83  1  0  0  0
 74 80  1  0  0  0
 74 81  2  0  0  0
 74 82  1  0  0  0
 75 76  1  0  0  0
 75 78  1  0  0  0
 75145  1  0  0  0
 75146  1  0  0  0
 76 83  1  0  0  0
 76147  1  0  0  0
 76148  1  0  0  0
 77 78  1  0  0  0
 77 83  1  0  0  0
 77149  1  0  0  0
 77150  1  0  0  0
 78151  1  0  0  0
 79152  1  0  0  0
 79153  1  0  0  0
 79154  1  0  0  0
 80 84  1  0  0  0
 80155  1  0  0  0
 80156  1  0  0  0
 84157  1  0  0  0
M  ISO  4   1 100  68 101  78 101  84 100
M  END
> <chiral flag>
0

> <version>
0

> <s_m_source_file>
/data/baiqing/PycharmProjects/Reinvent-master-3.2/result/LINK_invent/BTK/process_docking_weight1_custom_sum_contain_oxygen_bond_distance_aromatic_linkinvent_7_9_3/rearranged_h_0188.sdf

> <i_m_source_file_index>
5

> <r_mmod_Potential_Energy-OPLS-2005>
-353.755828857422

> <r_mmod_Stretch_Energy-OPLS-2005>
145.291290283203

> <r_mmod_Bend_Energy-OPLS-2005>
257.007720947266

> <r_mmod_Torsional_Energy-OPLS-2005>
263.129211425781

> <r_mmod_Improper_Torsional_Energy-OPLS-2005>
9.83193016052246

> <r_mmod_Van_der_Waal_Energy-OPLS-2005>
138.114685058594

> <r_mmod_Electrostatic_Energy-OPLS-2005>
-1015.02319335938

> <r_mmod_Solvation_Energy-OPLS-2005>
-268.894927978516

> <b_mmod_Minimization_Converged-OPLS-2005>
0

> <r_mmod_RMS_Derivative-OPLS-2005>
4.14565992355347

$$$$
5
                    3D
 Structure written by MMmdl.
149158  0  0  1  0            999 V2000
  -30.4316  -15.3045   20.3703 C   0  0  0  0  0  0
  -30.4330  -12.8380   19.5275 C   0  0  0  0  0  0
  -29.5348  -12.5861   18.2901 C   0  0  0  0  0  0
  -28.0857  -12.3023   18.7195 C   0  0  0  0  0  0
  -27.6083  -13.2813   19.8210 C   0  0  2  0  0  0
  -28.6393  -13.4784   20.9524 C   0  0  0  0  0  0
  -25.2384  -13.8264   20.5768 C   0  0  0  0  0  0
  -24.1734  -13.0443   20.9249 C   0  0  0  0  0  0
  -24.6395  -11.6939   20.8750 C   0  0  0  0  0  0
  -23.9094  -10.4294   21.0393 C   0  0  0  0  0  0
  -24.3635   -9.4210   21.9177 C   0  0  0  0  0  0
  -23.6305   -8.2248   22.0752 C   0  0  0  0  0  0
  -22.4288   -8.0284   21.3541 C   0  0  0  0  0  0
  -21.9924   -9.0258   20.4644 C   0  0  0  0  0  0
  -22.7259  -10.2134   20.3049 C   0  0  0  0  0  0
  -21.6858   -6.0735   22.5278 C   0  0  0  0  0  0
  -21.4019   -6.5639   23.8211 C   0  0  0  0  0  0
  -21.3664   -5.6790   24.9173 C   0  0  0  0  0  0
  -21.6043   -4.3052   24.7221 C   0  0  0  0  0  0
  -21.8819   -3.8146   23.4342 C   0  0  0  0  0  0
  -21.9195   -4.6962   22.3400 C   0  0  0  0  0  0
  -22.7754  -13.5195   21.1895 C   0  0  0  0  0  0
  -22.1663   -4.2146   21.0976 F   0  0  0  0  0  0
  -21.5628   -3.4537   25.7735 F   0  0  0  0  0  0
  -29.8634  -13.9947   20.3194 N   0  0  0  0  0  0
  -26.2807  -12.9544   20.3227 N   0  0  0  0  0  0
  -25.9335  -11.6641   20.5711 N   0  0  0  0  0  0
  -22.0416  -12.8178   22.0452 N   0  0  0  0  0  0
  -25.4050  -15.2002   20.4260 N   0  0  0  0  0  0
  -31.6549  -15.2823   20.1639 O   0  0  0  0  0  0
  -21.6649   -6.8882   21.4241 O   0  0  0  0  0  0
  -22.3431  -14.5494   20.6734 O   0  0  0  0  0  0
  -24.6651  -31.8215   23.1698 C   0  0  0  0  0  0
  -25.9324  -32.4574   23.8169 C   0  0  1  0  0  0
  -27.2118  -26.8873   20.1971 C   0  0  0  0  0  0
  -25.5982  -33.8393   24.2068 N   0  0  0  0  0  0
  -23.4811  -30.4328   21.5194 C   0  0  2  0  0  0
  -24.9348  -28.8134   20.1163 C   0  0  0  0  0  0
  -22.7678  -29.4429   22.4777 C   0  0  0  0  0  0
  -18.0328  -28.1411   22.8468 C   0  0  0  0  0  0
  -24.1498  -36.7205   23.2655 C   0  0  0  0  0  0
  -26.0525  -30.6126   21.4102 C   0  0  0  0  0  0
  -26.1174  -29.1966   20.7613 C   0  0  0  0  0  0
  -27.2475  -28.2549   20.7811 C   0  0  0  0  0  0
  -26.0077  -26.6816   19.4816 C   0  0  0  0  0  0
  -24.9063  -27.5754   19.4573 C   0  0  0  0  0  0
  -23.7243  -29.7475   20.1468 C   0  0  0  0  0  0
  -25.4144  -36.2962   24.0296 C   0  0  1  0  0  0
  -20.5953  -28.3756   23.1185 C   0  0  2  0  0  0
  -20.6805  -26.9436   22.5402 C   0  0  0  0  0  0
  -19.5776  -26.6374   21.5217 C   0  0  0  0  0  0
  -18.1960  -26.7943   22.1626 C   0  0  0  0  0  0
  -19.1589  -28.8906   23.2812 C   0  0  0  0  0  0
  -18.9497  -30.1498   23.8845 C   0  0  0  0  0  0
  -17.6488  -30.6599   24.0556 C   0  0  0  0  0  0
  -25.9099  -34.9341   23.5002 C   0  0  0  0  0  0
  -16.5380  -29.9086   23.6347 C   0  0  0  0  0  0
  -16.7309  -28.6508   23.0363 C   0  0  0  0  0  0
  -26.4565  -31.6534   25.0710 C   0  0  0  0  0  0
  -25.3681  -31.3795   26.1357 C   0  0  0  0  0  0
  -27.0474  -30.2894   24.6481 C   0  0  0  0  0  0
  -27.6043  -32.4359   25.7519 C   0  0  0  0  0  0
  -27.5553  -37.1795   24.8488 C   0  0  0  0  0  0
  -21.4347  -29.3042   22.3528 N   0  0  0  0  0  0
  -26.4303  -37.3681   23.9367 N   0  0  0  0  0  0
  -24.7543  -30.9844   22.0857 N   0  0  0  0  0  0
  -23.4214  -28.8001   23.3029 O   0  0  0  0  0  0
  -28.2228  -25.7698   20.2137 O   0  0  0  0  0  0
  -26.5707  -34.8877   22.4597 O   0  0  0  0  0  0
  -23.5715  -32.1208   23.6769 O   0  0  0  0  0  0
  -26.5228  -22.6371   20.9360 C   0  0  0  0  0  0
  -27.9913  -24.2802   20.3628 C   0  0  0  0  0  0
  -28.5521  -21.8145   20.3932 C   0  0  0  0  0  0
  -29.5484  -17.7540   19.4006 C   0  0  0  0  0  0
  -29.9892  -17.8833   21.3044 C   0  0  0  0  0  0
  -29.1299  -18.9674   20.4226 C   0  0  0  0  0  0
  -25.1151  -22.3268   21.3997 C   0  0  0  0  0  0
  -26.7705  -23.9434   20.7621 N   0  0  0  0  0  0
  -27.3138  -21.5645   20.7796 N   0  0  0  0  0  0
  -28.9339  -23.1953   20.1765 N   0  0  0  0  0  0
  -29.6925  -16.6080   20.4519 N   0  0  0  0  0  0
  -29.4133  -20.5957   20.2364 O   0  0  0  0  0  0
  -31.4507  -13.0432   19.1936 H   0  0  0  0  0  0
  -30.5052  -11.9405   20.1440 H   0  0  0  0  0  0
  -29.9221  -11.7555   17.6984 H   0  0  0  0  0  0
  -29.5577  -13.4629   17.6413 H   0  0  0  0  0  0
  -28.0480  -11.2805   19.0982 H   0  0  0  0  0  0
  -27.4169  -12.3345   17.8583 H   0  0  0  0  0  0
  -27.5161  -14.2432   19.3148 H   0  0  0  0  0  0
  -28.8172  -12.5538   21.5032 H   0  0  0  0  0  0
  -28.2715  -14.2087   21.6751 H   0  0  0  0  0  0
  -25.2775   -9.5690   22.4757 H   0  0  0  0  0  0
  -24.0009   -7.4643   22.7479 H   0  0  0  0  0  0
  -21.0851   -8.8780   19.8956 H   0  0  0  0  0  0
  -22.3712  -10.9671   19.6160 H   0  0  0  0  0  0
  -21.2016   -7.6147   23.9713 H   0  0  0  0  0  0
  -21.1487   -6.0521   25.9074 H   0  0  0  0  0  0
  -22.0595   -2.7607   23.2843 H   0  0  0  0  0  0
  -22.4054  -11.9853   22.4848 H   0  0  0  0  0  0
  -21.1027  -13.1181   22.2653 H   0  0  0  0  0  0
  -24.6430  -15.8565   20.5563 H   0  0  0  0  0  0
  -26.2680  -15.6450   20.1387 H   0  0  0  0  0  0
  -26.7391  -32.5098   23.0880 H   0  0  0  0  0  0
  -25.0085  -33.9469   25.0187 H   0  0  0  0  0  0
  -22.7954  -31.2650   21.3469 H   0  0  0  0  0  0
  -23.3730  -35.9578   23.3399 H   0  0  0  0  0  0
  -24.3537  -36.8761   22.2049 H   0  0  0  0  0  0
  -23.7317  -37.6447   23.6657 H   0  0  0  0  0  0
  -26.2379  -31.3477   20.6262 H   0  0  0  0  0  0
  -26.9112  -30.6724   22.0667 H   0  0  0  0  0  0
  -28.1437  -28.5509   21.3083 H   0  0  0  0  0  0
  -25.8798  -25.7445   18.9590 H   0  0  0  0  0  0
  -24.0128  -27.2787   18.9254 H   0  0  0  0  0  0
  -23.8865  -30.5157   19.3897 H   0  0  0  0  0  0
  -22.8326  -29.2066   19.8250 H   0  0  0  0  0  0
  -25.1362  -36.1774   25.0794 H   0  0  0  0  0  0
  -21.0044  -28.3367   24.1307 H   0  0  0  0  0  0
  -20.5690  -26.2376   23.3643 H   0  0  0  0  0  0
  -21.6667  -26.7409   22.1206 H   0  0  0  0  0  0
  -19.6931  -25.6271   21.1280 H   0  0  0  0  0  0
  -19.6714  -27.3158   20.6726 H   0  0  0  0  0  0
  -17.4227  -26.6691   21.4028 H   0  0  0  0  0  0
  -18.0354  -26.0096   22.9033 H   0  0  0  0  0  0
  -19.7970  -30.7335   24.2187 H   0  0  0  0  0  0
  -17.5036  -31.6273   24.5169 H   0  0  0  0  0  0
  -15.5378  -30.2968   23.7698 H   0  0  0  0  0  0
  -15.8711  -28.0808   22.7103 H   0  0  0  0  0  0
  -24.5881  -30.7124   25.7668 H   0  0  0  0  0  0
  -24.8846  -32.2998   26.4645 H   0  0  0  0  0  0
  -25.7901  -30.9054   27.0227 H   0  0  0  0  0  0
  -26.3154  -29.6553   24.1464 H   0  0  0  0  0  0
  -27.3960  -29.7280   25.5161 H   0  0  0  0  0  0
  -27.9117  -30.4064   23.9939 H   0  0  0  0  0  0
  -27.2588  -33.3689   26.1988 H   0  0  0  0  0  0
  -28.3912  -32.6879   25.0397 H   0  0  0  0  0  0
  -28.0656  -31.8565   26.5528 H   0  0  0  0  0  0
  -28.2655  -37.9999   24.7370 H   0  0  0  0  0  0
  -28.0960  -36.2518   24.6544 H   0  0  0  0  0  0
  -27.2234  -37.1716   25.8886 H   0  0  0  0  0  0
  -20.9611  -29.8719   21.6641 H   0  0  0  0  0  0
  -26.0158  -38.2768   24.1261 H   0  0  0  0  0  0
  -30.4800  -17.9604   18.8671 H   0  0  0  0  0  0
  -28.7691  -17.5634   18.6617 H   0  0  0  0  0  0
  -29.6181  -17.8131   22.3272 H   0  0  0  0  0  0
  -31.0536  -18.1286   21.3443 H   0  0  0  0  0  0
  -28.0741  -18.8579   20.6731 H   0  0  0  0  0  0
  -24.3875  -22.9314   20.8580 H   0  0  0  0  0  0
  -25.0142  -22.5427   22.4631 H   0  0  0  0  0  0
  -24.8608  -21.2789   21.2408 H   0  0  0  0  0  0
  1 25  1  0  0  0
  1 30  2  0  0  0
  1 81  1  0  0  0
  2  3  1  0  0  0
  2 25  1  0  0  0
  2 83  1  0  0  0
  2 84  1  0  0  0
  3  4  1  0  0  0
  3 85  1  0  0  0
  3 86  1  0  0  0
  4  5  1  0  0  0
  4 87  1  0  0  0
  4 88  1  0  0  0
  5  6  1  0  0  0
  5 26  1  0  0  0
  5 89  1  0  0  0
  6 25  1  0  0  0
  6 90  1  0  0  0
  6 91  1  0  0  0
  7  8  2  0  0  0
  7 26  1  0  0  0
  7 29  1  0  0  0
  8  9  1  0  0  0
  8 22  1  0  0  0
  9 10  1  0  0  0
  9 27  2  0  0  0
 10 11  2  0  0  0
 10 15  1  0  0  0
 11 12  1  0  0  0
 11 92  1  0  0  0
 12 13  2  0  0  0
 12 93  1  0  0  0
 13 14  1  0  0  0
 13 31  1  0  0  0
 14 15  2  0  0  0
 14 94  1  0  0  0
 15 95  1  0  0  0
 16 17  2  0  0  0
 16 21  1  0  0  0
 16 31  1  0  0  0
 17 18  1  0  0  0
 17 96  1  0  0  0
 18 19  2  0  0  0
 18 97  1  0  0  0
 19 20  1  0  0  0
 19 24  1  0  0  0
 20 21  2  0  0  0
 20 98  1  0  0  0
 21 23  1  0  0  0
 22 28  1  0  0  0
 22 32  2  0  0  0
 26 27  1  0  0  0
 28 99  1  0  0  0
 28100  1  0  0  0
 29101  1  0  0  0
 29102  1  0  0  0
 33 34  1  0  0  0
 33 66  1  0  0  0
 33 70  2  0  0  0
 34 36  1  0  0  0
 34 59  1  0  0  0
 34103  1  0  0  0
 35 44  2  0  0  0
 35 45  1  0  0  0
 35 68  1  0  0  0
 36 56  1  0  0  0
 36104  1  0  0  0
 37 39  1  0  0  0
 37 47  1  0  0  0
 37 66  1  0  0  0
 37105  1  0  0  0
 38 43  2  0  0  0
 38 46  1  0  0  0
 38 47  1  0  0  0
 39 64  1  0  0  0
 39 67  2  0  0  0
 40 52  1  0  0  0
 40 53  2  0  0  0
 40 58  1  0  0  0
 41106  1  0  0  0
 41107  1  0  0  0
 41108  1  0  0  0
 41 48  1  0  0  0
 42 43  1  0  0  0
 42 66  1  0  0  0
 42109  1  0  0  0
 42110  1  0  0  0
 43 44  1  0  0  0
 44111  1  0  0  0
 45 46  2  0  0  0
 45112  1  0  0  0
 46113  1  0  0  0
 47114  1  0  0  0
 47115  1  0  0  0
 48 56  1  0  0  0
 48 65  1  0  0  0
 48116  1  0  0  0
 49 50  1  0  0  0
 49 53  1  0  0  0
 49 64  1  0  0  0
 49117  1  0  0  0
 50 51  1  0  0  0
 50118  1  0  0  0
 50119  1  0  0  0
 51 52  1  0  0  0
 51120  1  0  0  0
 51121  1  0  0  0
 52122  1  0  0  0
 52123  1  0  0  0
 53 54  1  0  0  0
 54 55  2  0  0  0
 54124  1  0  0  0
 55 57  1  0  0  0
 55125  1  0  0  0
 56 69  2  0  0  0
 57 58  2  0  0  0
 57126  1  0  0  0
 58127  1  0  0  0
 59 60  1  0  0  0
 59 61  1  0  0  0
 59 62  1  0  0  0
 60128  1  0  0  0
 60129  1  0  0  0
 60130  1  0  0  0
 61131  1  0  0  0
 61132  1  0  0  0
 61133  1  0  0  0
 62134  1  0  0  0
 62135  1  0  0  0
 62136  1  0  0  0
 63 65  1  0  0  0
 63137  1  0  0  0
 63138  1  0  0  0
 63139  1  0  0  0
 64140  1  0  0  0
 65141  1  0  0  0
 68 72  1  0  0  0
 71 77  1  0  0  0
 71 78  2  0  0  0
 71 79  1  0  0  0
 72 78  1  0  0  0
 72 80  2  0  0  0
 73 79  2  0  0  0
 73 80  1  0  0  0
 73 82  1  0  0  0
 74 76  1  0  0  0
 74 81  1  0  0  0
 74142  1  0  0  0
 74143  1  0  0  0
 75 76  1  0  0  0
 75 81  1  0  0  0
 75144  1  0  0  0
 75145  1  0  0  0
 76 82  1  0  0  0
 76146  1  0  0  0
 77147  1  0  0  0
 77148  1  0  0  0
 77149  1  0  0  0
M  ISO  4   1 100  68 101  72 101  81 100
M  END
> <chiral flag>
0

> <version>
0

> <s_m_source_file>
/data/baiqing/PycharmProjects/Reinvent-master-3.2/result/LINK_invent/BTK/process_docking_weight1_custom_sum_contain_oxygen_bond_distance_aromatic_linkinvent_7_9_3/rearranged_h_0188.sdf

> <i_m_source_file_index>
6

> <r_mmod_Potential_Energy-OPLS-2005>
633.778076171875

> <r_mmod_Stretch_Energy-OPLS-2005>
513.388916015625

> <r_mmod_Bend_Energy-OPLS-2005>
445.676361083984

> <r_mmod_Torsional_Energy-OPLS-2005>
262.899993896484

> <r_mmod_Improper_Torsional_Energy-OPLS-2005>
11.0512571334839

> <r_mmod_Van_der_Waal_Energy-OPLS-2005>
142.879333496094

> <r_mmod_Electrostatic_Energy-OPLS-2005>
-1023.04467773438

> <r_mmod_Solvation_Energy-OPLS-2005>
-221.150573730469

> <b_mmod_Minimization_Converged-OPLS-2005>
0

> <r_mmod_RMS_Derivative-OPLS-2005>
0.65078741312027

$$$$
6
                    3D
 Structure written by MMmdl.
163172  0  0  1  0            999 V2000
  -30.5761  -14.9400   20.4481 C   0  0  0  0  0  0
  -30.4231  -12.5782   19.5145 C   0  0  0  0  0  0
  -29.5070  -12.4979   18.2723 C   0  0  0  0  0  0
  -28.0265  -12.3307   18.6632 C   0  0  0  0  0  0
  -27.6196  -13.2403   19.8507 C   0  0  2  0  0  0
  -28.6669  -13.2498   20.9872 C   0  0  0  0  0  0
  -25.2316  -13.8124   20.5714 C   0  0  0  0  0  0
  -24.1705  -13.0338   20.9264 C   0  0  0  0  0  0
  -24.6394  -11.6836   20.8890 C   0  0  0  0  0  0
  -23.9125  -10.4218   21.0516 C   0  0  0  0  0  0
  -24.3669   -9.4115   21.9286 C   0  0  0  0  0  0
  -23.6310   -8.2156   22.0770 C   0  0  0  0  0  0
  -22.4287   -8.0246   21.3539 C   0  0  0  0  0  0
  -21.9966   -9.0235   20.4646 C   0  0  0  0  0  0
  -22.7325  -10.2095   20.3098 C   0  0  0  0  0  0
  -21.6782   -6.0753   22.5291 C   0  0  0  0  0  0
  -21.4017   -6.5669   23.8231 C   0  0  0  0  0  0
  -21.3674   -5.6809   24.9180 C   0  0  0  0  0  0
  -21.6051   -4.3073   24.7222 C   0  0  0  0  0  0
  -21.8808   -3.8169   23.4336 C   0  0  0  0  0  0
  -21.9161   -4.6997   22.3402 C   0  0  0  0  0  0
  -22.7733  -13.5055   21.1912 C   0  0  0  0  0  0
  -22.1633   -4.2203   21.0989 F   0  0  0  0  0  0
  -21.5646   -3.4558   25.7731 F   0  0  0  0  0  0
  -29.9364  -13.6930   20.3872 N   0  0  0  0  0  0
  -26.2815  -12.9394   20.3344 N   0  0  0  0  0  0
  -25.9317  -11.6529   20.5894 N   0  0  0  0  0  0
  -22.0442  -12.8092   22.0545 N   0  0  0  0  0  0
  -25.3774  -15.1883   20.4066 N   0  0  0  0  0  0
  -31.7720  -14.9449   20.1396 O   0  0  0  0  0  0
  -21.6585   -6.8898   21.4244 O   0  0  0  0  0  0
  -22.3385  -14.5323   20.6695 O   0  0  0  0  0  0
  -24.6513  -31.8377   23.1807 C   0  0  0  0  0  0
  -25.9274  -32.4630   23.8248 C   0  0  1  0  0  0
  -27.2338  -27.1095   20.1549 C   0  0  0  0  0  0
  -25.6055  -33.8444   24.2200 N   0  0  0  0  0  0
  -23.4568  -30.4576   21.5180 C   0  0  2  0  0  0
  -24.9095  -28.8730   20.1042 C   0  0  0  0  0  0
  -22.7606  -29.4555   22.4752 C   0  0  0  0  0  0
  -18.0364  -28.1403   22.8519 C   0  0  0  0  0  0
  -24.1510  -36.7224   23.2632 C   0  0  0  0  0  0
  -26.0150  -30.7032   21.3841 C   0  0  0  0  0  0
  -26.0843  -29.3069   20.7354 C   0  0  0  0  0  0
  -27.2447  -28.4450   20.7393 C   0  0  0  0  0  0
  -26.0328  -26.7752   19.4938 C   0  0  0  0  0  0
  -24.9000  -27.6205   19.4671 C   0  0  0  0  0  0
  -23.6888  -29.7813   20.1372 C   0  0  0  0  0  0
  -25.4129  -36.2973   24.0318 C   0  0  1  0  0  0
  -20.5993  -28.3765   23.1206 C   0  0  2  0  0  0
  -20.6840  -26.9446   22.5399 C   0  0  0  0  0  0
  -19.5788  -26.6400   21.5247 C   0  0  0  0  0  0
  -18.1978  -26.7951   22.1662 C   0  0  0  0  0  0
  -19.1627  -28.8903   23.2862 C   0  0  0  0  0  0
  -18.9506  -30.1507   23.8855 C   0  0  0  0  0  0
  -17.6478  -30.6559   24.0590 C   0  0  0  0  0  0
  -25.9106  -34.9359   23.5046 C   0  0  0  0  0  0
  -16.5385  -29.9043   23.6335 C   0  0  0  0  0  0
  -16.7341  -28.6499   23.0316 C   0  0  0  0  0  0
  -26.4577  -31.6484   25.0693 C   0  0  0  0  0  0
  -25.3788  -31.3619   26.1408 C   0  0  0  0  0  0
  -27.0460  -30.2883   24.6278 C   0  0  0  0  0  0
  -27.6145  -32.4211   25.7474 C   0  0  0  0  0  0
  -27.5560  -37.1765   24.8469 C   0  0  0  0  0  0
  -21.4286  -29.3090   22.3539 N   0  0  0  0  0  0
  -26.4254  -37.3710   23.9435 N   0  0  0  0  0  0
  -24.7268  -31.0246   22.0810 N   0  0  0  0  0  0
  -23.4256  -28.8109   23.2892 O   0  0  0  0  0  0
  -28.3115  -26.1440   20.1294 O   0  0  0  0  0  0
  -26.5631  -34.8867   22.4584 O   0  0  0  0  0  0
  -23.5624  -32.1281   23.7022 O   0  0  0  0  0  0
  -31.3064  -23.8642   19.4732 C   0  0  0  0  0  0
  -31.4964  -23.5297   17.3628 C   0  0  0  0  0  0
  -30.0703  -23.4494   19.0187 C   0  0  0  0  0  0
  -28.3150  -18.0883   21.1074 C   0  0  0  0  0  0
  -28.6779  -16.5596   21.2796 C   0  0  0  0  0  0
  -30.3494  -17.6130   20.0361 C   0  0  0  0  0  0
  -29.5574  -18.9046   20.6836 C   0  0  1  0  0  0
  -29.2270  -22.7794   16.6831 C   0  0  0  0  0  0
  -29.3562  -20.4079   19.8815 C   0  0  0  0  0  0
  -28.1732  -24.6230   20.5182 C   0  0  0  0  0  0
  -28.7857  -23.2028   19.7782 C   0  0  2  0  0  0
  -32.2148  -23.9065   18.4148 N   0  0  0  0  0  0
  -30.2186  -23.2394   17.6428 N   0  0  0  0  0  0
  -29.8904  -16.2090   20.5206 N   0  0  0  0  0  0
  -28.8763  -21.7879   20.5346 N   0  3  0  0  0  0
  -31.4508  -12.7307   19.1880 H   0  0  0  0  0  0
  -30.4308  -11.6259   20.0541 H   0  0  0  0  0  0
  -29.8197  -11.6628   17.6426 H   0  0  0  0  0  0
  -29.6168  -13.3997   17.6709 H   0  0  0  0  0  0
  -27.8562  -11.2810   18.9066 H   0  0  0  0  0  0
  -27.3822  -12.5455   17.8083 H   0  0  0  0  0  0
  -27.5843  -14.2461   19.4393 H   0  0  0  0  0  0
  -28.7563  -12.2544   21.4265 H   0  0  0  0  0  0
  -28.3551  -13.8959   21.8050 H   0  0  0  0  0  0
  -25.2824   -9.5563   22.4889 H   0  0  0  0  0  0
  -23.9983   -7.4520   22.7473 H   0  0  0  0  0  0
  -21.0904   -8.8778   19.8960 H   0  0  0  0  0  0
  -22.3841  -10.9641   19.6192 H   0  0  0  0  0  0
  -21.2035   -7.6190   23.9728 H   0  0  0  0  0  0
  -21.1519   -6.0576   25.9067 H   0  0  0  0  0  0
  -22.0593   -2.7635   23.2796 H   0  0  0  0  0  0
  -22.4034  -11.9791   22.5012 H   0  0  0  0  0  0
  -21.1060  -13.1114   22.2735 H   0  0  0  0  0  0
  -24.5844  -15.8179   20.4827 H   0  0  0  0  0  0
  -26.2219  -15.6420   20.0898 H   0  0  0  0  0  0
  -26.7383  -32.5215   23.1015 H   0  0  0  0  0  0
  -25.0387  -33.9606   25.0474 H   0  0  0  0  0  0
  -22.7633  -31.2861   21.3531 H   0  0  0  0  0  0
  -23.3757  -35.9561   23.3238 H   0  0  0  0  0  0
  -24.3617  -36.8887   22.2052 H   0  0  0  0  0  0
  -23.7277  -37.6406   23.6713 H   0  0  0  0  0  0
  -26.1835  -31.4495   20.6057 H   0  0  0  0  0  0
  -26.8828  -30.7552   22.0301 H   0  0  0  0  0  0
  -28.1420  -28.7786   21.2449 H   0  0  0  0  0  0
  -25.9676  -25.8225   18.9871 H   0  0  0  0  0  0
  -24.0158  -27.2851   18.9406 H   0  0  0  0  0  0
  -23.8334  -30.5538   19.3796 H   0  0  0  0  0  0
  -22.8038  -29.2220   19.8231 H   0  0  0  0  0  0
  -25.1302  -36.1761   25.0801 H   0  0  0  0  0  0
  -21.0176  -28.3380   24.1300 H   0  0  0  0  0  0
  -20.5798  -26.2374   23.3642 H   0  0  0  0  0  0
  -21.6673  -26.7445   22.1140 H   0  0  0  0  0  0
  -19.6909  -25.6329   21.1236 H   0  0  0  0  0  0
  -19.6652  -27.3255   20.6822 H   0  0  0  0  0  0
  -17.4240  -26.6805   21.4036 H   0  0  0  0  0  0
  -18.0282  -26.0063   22.9030 H   0  0  0  0  0  0
  -19.7964  -30.7401   24.2124 H   0  0  0  0  0  0
  -17.4992  -31.6214   24.5248 H   0  0  0  0  0  0
  -15.5370  -30.2896   23.7650 H   0  0  0  0  0  0
  -15.8796  -28.0812   22.6937 H   0  0  0  0  0  0
  -24.6115  -30.6784   25.7762 H   0  0  0  0  0  0
  -24.8819  -32.2735   26.4737 H   0  0  0  0  0  0
  -25.8151  -30.8923   27.0246 H   0  0  0  0  0  0
  -26.3078  -29.6557   24.1336 H   0  0  0  0  0  0
  -27.4139  -29.7219   25.4847 H   0  0  0  0  0  0
  -27.8954  -30.4123   23.9557 H   0  0  0  0  0  0
  -27.2843  -33.3620   26.1896 H   0  0  0  0  0  0
  -28.4028  -32.6554   25.0308 H   0  0  0  0  0  0
  -28.0720  -31.8381   26.5488 H   0  0  0  0  0  0
  -28.2518  -38.0115   24.7514 H   0  0  0  0  0  0
  -28.1101  -36.2628   24.6256 H   0  0  0  0  0  0
  -27.2293  -37.1333   25.8875 H   0  0  0  0  0  0
  -20.9484  -29.8808   21.6728 H   0  0  0  0  0  0
  -26.0078  -38.2756   24.1428 H   0  0  0  0  0  0
  -31.6241  -24.1149   20.4761 H   0  0  0  0  0  0
  -31.9135  -23.4382   16.3692 H   0  0  0  0  0  0
  -27.8877  -18.4810   22.0311 H   0  0  0  0  0  0
  -27.5388  -18.1736   20.3447 H   0  0  0  0  0  0
  -27.8407  -15.9554   20.9439 H   0  0  0  0  0  0
  -28.8306  -16.3213   22.3344 H   0  0  0  0  0  0
  -31.4227  -17.7268   20.2001 H   0  0  0  0  0  0
  -30.2038  -17.6346   18.9522 H   0  0  0  0  0  0
  -30.0906  -19.1345   21.6110 H   0  0  0  0  0  0
  -29.6998  -22.5753   15.7203 H   0  0  0  0  0  0
  -28.4560  -23.5371   16.5347 H   0  0  0  0  0  0
  -28.7586  -21.8602   17.0337 H   0  0  0  0  0  0
  -28.7227  -20.2224   19.0136 H   0  0  0  0  0  0
  -30.3330  -20.6489   19.4611 H   0  0  0  0  0  0
  -28.6292  -24.6160   21.5074 H   0  0  0  0  0  0
  -27.1168  -24.4373   20.7161 H   0  0  0  0  0  0
  -28.0266  -22.9935   19.0270 H   0  0  0  0  0  0
  -29.4695  -21.9242   21.3356 H   0  0  0  0  0  0
  -27.9570  -21.6105   20.8972 H   0  0  0  0  0  0
  1 25  1  0  0  0
  1 30  2  0  0  0
  1 84  1  0  0  0
  2  3  1  0  0  0
  2 25  1  0  0  0
  2 86  1  0  0  0
  2 87  1  0  0  0
  3  4  1  0  0  0
  3 88  1  0  0  0
  3 89  1  0  0  0
  4  5  1  0  0  0
  4 90  1  0  0  0
  4 91  1  0  0  0
  5  6  1  0  0  0
  5 26  1  0  0  0
  5 92  1  0  0  0
  6 25  1  0  0  0
  6 93  1  0  0  0
  6 94  1  0  0  0
  7  8  2  0  0  0
  7 26  1  0  0  0
  7 29  1  0  0  0
  8  9  1  0  0  0
  8 22  1  0  0  0
  9 10  1  0  0  0
  9 27  2  0  0  0
 10 11  2  0  0  0
 10 15  1  0  0  0
 11 12  1  0  0  0
 11 95  1  0  0  0
 12 13  2  0  0  0
 12 96  1  0  0  0
 13 14  1  0  0  0
 13 31  1  0  0  0
 14 15  2  0  0  0
 14 97  1  0  0  0
 15 98  1  0  0  0
 16 17  2  0  0  0
 16 21  1  0  0  0
 16 31  1  0  0  0
 17 18  1  0  0  0
 17 99  1  0  0  0
 18 19  2  0  0  0
 18100  1  0  0  0
 19 20  1  0  0  0
 19 24  1  0  0  0
 20 21  2  0  0  0
 20101  1  0  0  0
 21 23  1  0  0  0
 22 28  1  0  0  0
 22 32  2  0  0  0
 26 27  1  0  0  0
 28102  1  0  0  0
 28103  1  0  0  0
 29104  1  0  0  0
 29105  1  0  0  0
 33 34  1  0  0  0
 33 66  1  0  0  0
 33 70  2  0  0  0
 34 36  1  0  0  0
 34 59  1  0  0  0
 34106  1  0  0  0
 35 44  2  0  0  0
 35 45  1  0  0  0
 35 68  1  0  0  0
 36 56  1  0  0  0
 36107  1  0  0  0
 37 39  1  0  0  0
 37 47  1  0  0  0
 37 66  1  0  0  0
 37108  1  0  0  0
 38 43  2  0  0  0
 38 46  1  0  0  0
 38 47  1  0  0  0
 39 64  1  0  0  0
 39 67  2  0  0  0
 40 52  1  0  0  0
 40 53  2  0  0  0
 40 58  1  0  0  0
 41109  1  0  0  0
 41110  1  0  0  0
 41111  1  0  0  0
 41 48  1  0  0  0
 42 43  1  0  0  0
 42 66  1  0  0  0
 42112  1  0  0  0
 42113  1  0  0  0
 43 44  1  0  0  0
 44114  1  0  0  0
 45 46  2  0  0  0
 45115  1  0  0  0
 46116  1  0  0  0
 47117  1  0  0  0
 47118  1  0  0  0
 48 56  1  0  0  0
 48 65  1  0  0  0
 48119  1  0  0  0
 49 50  1  0  0  0
 49 53  1  0  0  0
 49 64  1  0  0  0
 49120  1  0  0  0
 50 51  1  0  0  0
 50121  1  0  0  0
 50122  1  0  0  0
 51 52  1  0  0  0
 51123  1  0  0  0
 51124  1  0  0  0
 52125  1  0  0  0
 52126  1  0  0  0
 53 54  1  0  0  0
 54 55  2  0  0  0
 54127  1  0  0  0
 55 57  1  0  0  0
 55128  1  0  0  0
 56 69  2  0  0  0
 57 58  2  0  0  0
 57129  1  0  0  0
 58130  1  0  0  0
 59 60  1  0  0  0
 59 61  1  0  0  0
 59 62  1  0  0  0
 60131  1  0  0  0
 60132  1  0  0  0
 60133  1  0  0  0
 61134  1  0  0  0
 61135  1  0  0  0
 61136  1  0  0  0
 62137  1  0  0  0
 62138  1  0  0  0
 62139  1  0  0  0
 63 65  1  0  0  0
 63140  1  0  0  0
 63141  1  0  0  0
 63142  1  0  0  0
 64143  1  0  0  0
 65144  1  0  0  0
 68 80  1  0  0  0
 71 73  2  0  0  0
 71 82  1  0  0  0
 71145  1  0  0  0
 72 82  2  0  0  0
 72 83  1  0  0  0
 72146  1  0  0  0
 73 81  1  0  0  0
 73 83  1  0  0  0
 74 75  1  0  0  0
 74 77  1  0  0  0
 74147  1  0  0  0
 74148  1  0  0  0
 75 84  1  0  0  0
 75149  1  0  0  0
 75150  1  0  0  0
 76 77  1  0  0  0
 76 84  1  0  0  0
 76151  1  0  0  0
 76152  1  0  0  0
 77 79  1  0  0  0
 77153  1  0  0  0
 78 83  1  0  0  0
 78154  1  0  0  0
 78155  1  0  0  0
 78156  1  0  0  0
 79 85  1  0  0  0
 79157  1  0  0  0
 79158  1  0  0  0
 80159  1  0  0  0
 80160  1  0  0  0
 80 81  1  0  0  0
 81 85  1  0  0  0
 81161  1  0  0  0
 85162  1  0  0  0
 85163  1  0  0  0
M  CHG  1  85   1
M  ISO  4   1 100  68 101  80 101  84 100
M  END
> <chiral flag>
0

> <version>
0

> <s_m_source_file>
/data/baiqing/PycharmProjects/Reinvent-master-3.2/result/LINK_invent/BTK/process_docking_weight1_custom_sum_contain_oxygen_bond_distance_aromatic_linkinvent_7_9_3/rearranged_h_0188.sdf

> <i_m_source_file_index>
7

> <r_mmod_Potential_Energy-OPLS-2005>
600.463439941406

> <r_mmod_Stretch_Energy-OPLS-2005>
299.160827636719

> <r_mmod_Bend_Energy-OPLS-2005>
330.892730712891

> <r_mmod_Torsional_Energy-OPLS-2005>
334.111663818359

> <r_mmod_Improper_Torsional_Energy-OPLS-2005>
8.48877239227295

> <r_mmod_Van_der_Waal_Energy-OPLS-2005>
96.9146957397461

> <r_mmod_Electrostatic_Energy-OPLS-2005>
-163.752548217773

> <r_mmod_Solvation_Energy-OPLS-2005>
-493.539245605469

> <b_mmod_Minimization_Converged-OPLS-2005>
0

> <r_mmod_RMS_Derivative-OPLS-2005>
6.9911003112793

$$$$
7
                    3D
 Structure written by MMmdl.
165175  0  0  1  0            999 V2000
  -30.6321  -14.8810   20.4421 C   0  0  0  0  0  0
  -30.4185  -12.5492   19.4865 C   0  0  0  0  0  0
  -29.5083  -12.5129   18.2416 C   0  0  0  0  0  0
  -28.0335  -12.3437   18.6500 C   0  0  0  0  0  0
  -27.6237  -13.2592   19.8356 C   0  0  2  0  0  0
  -28.6740  -13.2822   20.9688 C   0  0  0  0  0  0
  -25.2397  -13.8249   20.5725 C   0  0  0  0  0  0
  -24.1731  -13.0428   20.9269 C   0  0  0  0  0  0
  -24.6352  -11.6923   20.8723 C   0  0  0  0  0  0
  -23.9063  -10.4270   21.0355 C   0  0  0  0  0  0
  -24.3621   -9.4196   21.9145 C   0  0  0  0  0  0
  -23.6288   -8.2241   22.0754 C   0  0  0  0  0  0
  -22.4271   -8.0267   21.3557 C   0  0  0  0  0  0
  -21.9896   -9.0224   20.4652 C   0  0  0  0  0  0
  -22.7228  -10.2103   20.3013 C   0  0  0  0  0  0
  -21.6859   -6.0686   22.5251 C   0  0  0  0  0  0
  -21.4035   -6.5605   23.8175 C   0  0  0  0  0  0
  -21.3681   -5.6777   24.9161 C   0  0  0  0  0  0
  -21.6068   -4.3044   24.7218 C   0  0  0  0  0  0
  -21.8837   -3.8109   23.4338 C   0  0  0  0  0  0
  -21.9190   -4.6905   22.3383 C   0  0  0  0  0  0
  -22.7760  -13.5199   21.1896 C   0  0  0  0  0  0
  -22.1660   -4.2090   21.0959 F   0  0  0  0  0  0
  -21.5611   -3.4522   25.7730 F   0  0  0  0  0  0
  -29.9519  -13.6673   20.3584 N   0  0  0  0  0  0
  -26.2852  -12.9512   20.3264 N   0  0  0  0  0  0
  -25.9307  -11.6625   20.5750 N   0  0  0  0  0  0
  -22.0419  -12.8182   22.0460 N   0  0  0  0  0  0
  -25.3964  -15.1977   20.4124 N   0  0  0  0  0  0
  -31.8388  -14.8466   20.1798 O   0  0  0  0  0  0
  -21.6674   -6.8841   21.4220 O   0  0  0  0  0  0
  -22.3445  -14.5484   20.6723 O   0  0  0  0  0  0
  -24.6450  -31.8447   23.1879 C   0  0  0  0  0  0
  -25.9219  -32.4699   23.8288 C   0  0  1  0  0  0
  -27.2232  -27.1609   20.1223 C   0  0  0  0  0  0
  -25.5952  -33.8506   24.2207 N   0  0  0  0  0  0
  -23.4463  -30.4675   21.5316 C   0  0  2  0  0  0
  -24.8955  -28.8962   20.1047 C   0  0  0  0  0  0
  -22.7573  -29.4561   22.4825 C   0  0  0  0  0  0
  -18.0313  -28.1385   22.8470 C   0  0  0  0  0  0
  -24.1476  -36.7270   23.2649 C   0  0  0  0  0  0
  -26.0017  -30.7253   21.3797 C   0  0  0  0  0  0
  -26.0730  -29.3385   20.7203 C   0  0  0  0  0  0
  -27.2367  -28.4863   20.7150 C   0  0  0  0  0  0
  -26.0140  -26.8076   19.4862 C   0  0  0  0  0  0
  -24.8766  -27.6439   19.4744 C   0  0  0  0  0  0
  -23.6743  -29.8006   20.1470 C   0  0  0  0  0  0
  -25.4103  -36.3040   24.0330 C   0  0  1  0  0  0
  -20.5924  -28.3726   23.1219 C   0  0  2  0  0  0
  -20.6779  -26.9427   22.5394 C   0  0  0  0  0  0
  -19.5749  -26.6366   21.5201 C   0  0  0  0  0  0
  -18.1943  -26.7924   22.1619 C   0  0  0  0  0  0
  -19.1566  -28.8878   23.2844 C   0  0  0  0  0  0
  -18.9481  -30.1460   23.8886 C   0  0  0  0  0  0
  -17.6481  -30.6582   24.0568 C   0  0  0  0  0  0
  -25.9058  -34.9420   23.5078 C   0  0  0  0  0  0
  -16.5372  -29.9086   23.6314 C   0  0  0  0  0  0
  -16.7306  -28.6502   23.0346 C   0  0  0  0  0  0
  -26.4557  -31.6566   25.0712 C   0  0  0  0  0  0
  -25.3774  -31.3741   26.1421 C   0  0  0  0  0  0
  -27.0405  -30.2974   24.6252 C   0  0  0  0  0  0
  -27.6066  -32.4334   25.7521 C   0  0  0  0  0  0
  -27.5571  -37.1784   24.8471 C   0  0  0  0  0  0
  -21.4261  -29.3078   22.3601 N   0  0  0  0  0  0
  -26.4275  -37.3740   23.9420 N   0  0  0  0  0  0
  -24.7185  -31.0328   22.0896 N   0  0  0  0  0  0
  -23.4228  -28.8084   23.2955 O   0  0  0  0  0  0
  -28.2926  -26.1995   20.1845 O   0  0  0  0  0  0
  -26.5621  -34.8924   22.4639 O   0  0  0  0  0  0
  -23.5575  -32.1305   23.7100 O   0  0  0  0  0  0
  -28.7308  -21.9455   20.3481 C   0  0  0  0  0  0
  -31.0469  -22.3206   18.9463 C   0  0  0  0  0  0
  -29.0030  -23.3228   19.8653 C   0  0  0  0  0  0
  -30.1762  -23.4032   19.1209 C   0  0  0  0  0  0
  -29.6694  -20.8181   20.1346 C   0  0  0  0  0  0
  -30.2555  -24.7097   18.4030 C   0  0  0  0  0  0
  -30.8879  -18.6305   20.6755 C   0  0  0  0  0  0
  -28.5549  -18.4247   20.1830 C   0  0  0  0  0  0
  -30.7881  -17.2360   21.4315 C   0  0  0  0  0  0
  -28.8871  -16.8214   20.0337 C   0  0  0  0  0  0
  -28.1339  -24.7281   19.7132 C   0  0  2  0  0  0
  -28.7599  -25.1033   18.3082 C   0  0  1  0  0  0
  -28.6752  -24.3531   15.8785 C   0  0  0  0  0  0
  -30.8029  -21.0923   19.4504 N   0  0  0  0  0  0
  -29.6207  -19.3975   20.5634 N   0  0  0  0  0  0
  -30.0297  -16.1384   20.7477 N   0  0  0  0  0  0
  -28.0493  -24.3562   17.2244 N   0  3  0  0  0  0
  -31.4579  -12.6619   19.1745 H   0  0  0  0  0  0
  -30.3809  -11.5950   20.0159 H   0  0  0  0  0  0
  -29.8058  -11.7013   17.5762 H   0  0  0  0  0  0
  -29.6306  -13.4355   17.6724 H   0  0  0  0  0  0
  -27.8871  -11.3004   18.9224 H   0  0  0  0  0  0
  -27.3882  -12.5330   17.7900 H   0  0  0  0  0  0
  -27.5826  -14.2609   19.4142 H   0  0  0  0  0  0
  -28.7489  -12.3061   21.4474 H   0  0  0  0  0  0
  -28.3936  -13.9910   21.7501 H   0  0  0  0  0  0
  -25.2746   -9.5674   22.4747 H   0  0  0  0  0  0
  -23.9970   -7.4651   22.7492 H   0  0  0  0  0  0
  -21.0817   -8.8736   19.8985 H   0  0  0  0  0  0
  -22.3649  -10.9633   19.6129 H   0  0  0  0  0  0
  -21.2055   -7.6119   23.9662 H   0  0  0  0  0  0
  -21.1504   -6.0512   25.9068 H   0  0  0  0  0  0
  -22.0590   -2.7552   23.2856 H   0  0  0  0  0  0
  -22.4051  -11.9871   22.4903 H   0  0  0  0  0  0
  -21.0998  -13.1139   22.2605 H   0  0  0  0  0  0
  -24.6095  -15.8294   20.5088 H   0  0  0  0  0  0
  -26.2230  -15.6438   20.0393 H   0  0  0  0  0  0
  -26.7290  -32.5331   23.1024 H   0  0  0  0  0  0
  -25.0117  -33.9628   25.0372 H   0  0  0  0  0  0
  -22.7522  -31.2956   21.3761 H   0  0  0  0  0  0
  -23.3741  -35.9594   23.3282 H   0  0  0  0  0  0
  -24.3574  -36.8929   22.2070 H   0  0  0  0  0  0
  -23.7232  -37.6468   23.6694 H   0  0  0  0  0  0
  -26.1482  -31.4756   20.5999 H   0  0  0  0  0  0
  -26.8797  -30.7846   22.0120 H   0  0  0  0  0  0
  -28.1389  -28.8230   21.2107 H   0  0  0  0  0  0
  -25.9033  -25.8447   19.0122 H   0  0  0  0  0  0
  -23.9765  -27.3010   18.9817 H   0  0  0  0  0  0
  -23.8270  -30.5799   19.3990 H   0  0  0  0  0  0
  -22.7869  -29.2529   19.8242 H   0  0  0  0  0  0
  -25.1294  -36.1870   25.0824 H   0  0  0  0  0  0
  -21.0046  -28.3314   24.1328 H   0  0  0  0  0  0
  -20.5629  -26.2364   23.3620 H   0  0  0  0  0  0
  -21.6652  -26.7397   22.1215 H   0  0  0  0  0  0
  -19.6910  -25.6269   21.1247 H   0  0  0  0  0  0
  -19.6667  -27.3161   20.6710 H   0  0  0  0  0  0
  -17.4193  -26.6664   21.4036 H   0  0  0  0  0  0
  -18.0360  -26.0082   22.9034 H   0  0  0  0  0  0
  -19.7967  -30.7265   24.2268 H   0  0  0  0  0  0
  -17.5041  -31.6266   24.5168 H   0  0  0  0  0  0
  -15.5372  -30.2993   23.7631 H   0  0  0  0  0  0
  -15.8699  -28.0814   22.7063 H   0  0  0  0  0  0
  -24.5925  -30.7101   25.7789 H   0  0  0  0  0  0
  -24.8993  -32.2915   26.4868 H   0  0  0  0  0  0
  -25.8109  -30.8926   27.0192 H   0  0  0  0  0  0
  -26.2996  -29.6691   24.1283 H   0  0  0  0  0  0
  -27.4079  -29.7285   25.4811 H   0  0  0  0  0  0
  -27.8900  -30.4247   23.9527 H   0  0  0  0  0  0
  -27.2622  -33.3626   26.2084 H   0  0  0  0  0  0
  -28.3909  -32.6905   25.0385 H   0  0  0  0  0  0
  -28.0685  -31.8455   26.5468 H   0  0  0  0  0  0
  -28.2581  -38.0085   24.7492 H   0  0  0  0  0  0
  -28.1070  -36.2614   24.6308 H   0  0  0  0  0  0
  -27.2289  -37.1453   25.8874 H   0  0  0  0  0  0
  -20.9447  -29.8911   21.6892 H   0  0  0  0  0  0
  -26.0151  -38.2819   24.1395 H   0  0  0  0  0  0
  -27.8003  -21.7518   20.8677 H   0  0  0  0  0  0
  -31.9286  -22.4191   18.3295 H   0  0  0  0  0  0
  -30.7841  -24.6492   17.4532 H   0  0  0  0  0  0
  -30.7932  -25.4251   19.0247 H   0  0  0  0  0  0
  -31.3053  -18.4797   19.6815 H   0  0  0  0  0  0
  -31.5990  -19.2597   21.2150 H   0  0  0  0  0  0
  -28.1006  -18.7662   19.2520 H   0  0  0  0  0  0
  -27.7800  -18.5339   20.9400 H   0  0  0  0  0  0
  -31.8079  -16.9019   21.6421 H   0  0  0  0  0  0
  -30.3404  -17.3956   22.4128 H   0  0  0  0  0  0
  -29.0413  -16.6234   18.9697 H   0  0  0  0  0  0
  -27.9761  -16.2876   20.3080 H   0  0  0  0  0  0
  -28.6350  -24.7718   20.6824 H   0  0  0  0  0  0
  -28.6743  -26.1554   18.0312 H   0  0  0  0  0  0
  -28.0044  -23.9009   15.1463 H   0  0  0  0  0  0
  -29.5884  -23.7598   15.8601 H   0  0  0  0  0  0
  -28.9141  -25.3642   15.5443 H   0  0  0  0  0  0
  -27.1280  -24.7530   17.1166 H   0  0  0  0  0  0
  -27.9389  -23.3938   17.5092 H   0  0  0  0  0  0
  1 25  1  0  0  0
  1 30  2  0  0  0
  1 86  1  0  0  0
  2  3  1  0  0  0
  2 25  1  0  0  0
  2 88  1  0  0  0
  2 89  1  0  0  0
  3  4  1  0  0  0
  3 90  1  0  0  0
  3 91  1  0  0  0
  4  5  1  0  0  0
  4 92  1  0  0  0
  4 93  1  0  0  0
  5  6  1  0  0  0
  5 26  1  0  0  0
  5 94  1  0  0  0
  6 25  1  0  0  0
  6 95  1  0  0  0
  6 96  1  0  0  0
  7  8  2  0  0  0
  7 26  1  0  0  0
  7 29  1  0  0  0
  8  9  1  0  0  0
  8 22  1  0  0  0
  9 10  1  0  0  0
  9 27  2  0  0  0
 10 11  2  0  0  0
 10 15  1  0  0  0
 11 12  1  0  0  0
 11 97  1  0  0  0
 12 13  2  0  0  0
 12 98  1  0  0  0
 13 14  1  0  0  0
 13 31  1  0  0  0
 14 15  2  0  0  0
 14 99  1  0  0  0
 15100  1  0  0  0
 16 17  2  0  0  0
 16 21  1  0  0  0
 16 31  1  0  0  0
 17 18  1  0  0  0
 17101  1  0  0  0
 18 19  2  0  0  0
 18102  1  0  0  0
 19 20  1  0  0  0
 19 24  1  0  0  0
 20 21  2  0  0  0
 20103  1  0  0  0
 21 23  1  0  0  0
 22 28  1  0  0  0
 22 32  2  0  0  0
 26 27  1  0  0  0
 28104  1  0  0  0
 28105  1  0  0  0
 29106  1  0  0  0
 29107  1  0  0  0
 33 34  1  0  0  0
 33 66  1  0  0  0
 33 70  2  0  0  0
 34 36  1  0  0  0
 34 59  1  0  0  0
 34108  1  0  0  0
 35 44  2  0  0  0
 35 45  1  0  0  0
 35 68  1  0  0  0
 36 56  1  0  0  0
 36109  1  0  0  0
 37 39  1  0  0  0
 37 47  1  0  0  0
 37 66  1  0  0  0
 37110  1  0  0  0
 38 43  2  0  0  0
 38 46  1  0  0  0
 38 47  1  0  0  0
 39 64  1  0  0  0
 39 67  2  0  0  0
 40 52  1  0  0  0
 40 53  2  0  0  0
 40 58  1  0  0  0
 41111  1  0  0  0
 41112  1  0  0  0
 41113  1  0  0  0
 41 48  1  0  0  0
 42 43  1  0  0  0
 42 66  1  0  0  0
 42114  1  0  0  0
 42115  1  0  0  0
 43 44  1  0  0  0
 44116  1  0  0  0
 45 46  2  0  0  0
 45117  1  0  0  0
 46118  1  0  0  0
 47119  1  0  0  0
 47120  1  0  0  0
 48 56  1  0  0  0
 48 65  1  0  0  0
 48121  1  0  0  0
 49 50  1  0  0  0
 49 53  1  0  0  0
 49 64  1  0  0  0
 49122  1  0  0  0
 50 51  1  0  0  0
 50123  1  0  0  0
 50124  1  0  0  0
 51 52  1  0  0  0
 51125  1  0  0  0
 51126  1  0  0  0
 52127  1  0  0  0
 52128  1  0  0  0
 53 54  1  0  0  0
 54 55  2  0  0  0
 54129  1  0  0  0
 55 57  1  0  0  0
 55130  1  0  0  0
 56 69  2  0  0  0
 57 58  2  0  0  0
 57131  1  0  0  0
 58132  1  0  0  0
 59 60  1  0  0  0
 59 61  1  0  0  0
 59 62  1  0  0  0
 60133  1  0  0  0
 60134  1  0  0  0
 60135  1  0  0  0
 61136  1  0  0  0
 61137  1  0  0  0
 61138  1  0  0  0
 62139  1  0  0  0
 62140  1  0  0  0
 62141  1  0  0  0
 63 65  1  0  0  0
 63142  1  0  0  0
 63143  1  0  0  0
 63144  1  0  0  0
 64145  1  0  0  0
 65146  1  0  0  0
 68 81  1  0  0  0
 71 73  2  0  0  0
 71 75  1  0  0  0
 71147  1  0  0  0
 72 74  2  0  0  0
 72 84  1  0  0  0
 72148  1  0  0  0
 73 74  1  0  0  0
 73 81  1  0  0  0
 74 76  1  0  0  0
 75 84  2  0  0  0
 75 85  1  0  0  0
 76 82  1  0  0  0
 76149  1  0  0  0
 76150  1  0  0  0
 77 79  1  0  0  0
 77 85  1  0  0  0
 77151  1  0  0  0
 77152  1  0  0  0
 78 80  1  0  0  0
 78 85  1  0  0  0
 78153  1  0  0  0
 78154  1  0  0  0
 79 86  1  0  0  0
 79155  1  0  0  0
 79156  1  0  0  0
 80 86  1  0  0  0
 80157  1  0  0  0
 80158  1  0  0  0
 81 82  1  0  0  0
 81159  1  0  0  0
 82 87  1  0  0  0
 82160  1  0  0  0
 83 87  1  0  0  0
 83161  1  0  0  0
 83162  1  0  0  0
 83163  1  0  0  0
 87164  1  0  0  0
 87165  1  0  0  0
M  CHG  1  87   1
M  ISO  4   1 100  68 101  81 101  86 100
M  END
> <chiral flag>
0

> <version>
0

> <s_m_source_file>
/data/baiqing/PycharmProjects/Reinvent-master-3.2/result/LINK_invent/BTK/process_docking_weight1_custom_sum_contain_oxygen_bond_distance_aromatic_linkinvent_7_9_3/rearranged_h_0188.sdf

> <i_m_source_file_index>
8

> <r_mmod_Potential_Energy-OPLS-2005>
550.839111328125

> <r_mmod_Stretch_Energy-OPLS-2005>
217.880889892578

> <r_mmod_Bend_Energy-OPLS-2005>
551.03515625

> <r_mmod_Torsional_Energy-OPLS-2005>
394.202178955078

> <r_mmod_Improper_Torsional_Energy-OPLS-2005>
9.73348808288574

> <r_mmod_Van_der_Waal_Energy-OPLS-2005>
154.123306274414

> <r_mmod_Electrostatic_Energy-OPLS-2005>
-447.716583251953

> <r_mmod_Solvation_Energy-OPLS-2005>
-485.553680419922

> <b_mmod_Minimization_Converged-OPLS-2005>
0

> <r_mmod_RMS_Derivative-OPLS-2005>
5.27599334716797

$$$$
8
                    3D
 Structure written by MMmdl.
150158  0  0  1  0            999 V2000
  -30.4400  -15.2636   20.3637 C   0  0  0  0  0  0
  -30.4379  -12.8034   19.5368 C   0  0  0  0  0  0
  -29.5385  -12.5756   18.2950 C   0  0  0  0  0  0
  -28.0864  -12.3000   18.7198 C   0  0  0  0  0  0
  -27.6128  -13.2756   19.8260 C   0  0  2  0  0  0
  -28.6433  -13.4510   20.9631 C   0  0  0  0  0  0
  -25.2385  -13.8252   20.5740 C   0  0  0  0  0  0
  -24.1739  -13.0440   20.9256 C   0  0  0  0  0  0
  -24.6396  -11.6938   20.8764 C   0  0  0  0  0  0
  -23.9093  -10.4297   21.0408 C   0  0  0  0  0  0
  -24.3638   -9.4208   21.9183 C   0  0  0  0  0  0
  -23.6304   -8.2249   22.0755 C   0  0  0  0  0  0
  -22.4284   -8.0288   21.3547 C   0  0  0  0  0  0
  -21.9925   -9.0263   20.4650 C   0  0  0  0  0  0
  -22.7263  -10.2137   20.3058 C   0  0  0  0  0  0
  -21.6859   -6.0738   22.5278 C   0  0  0  0  0  0
  -21.4020   -6.5640   23.8212 C   0  0  0  0  0  0
  -21.3662   -5.6791   24.9173 C   0  0  0  0  0  0
  -21.6045   -4.3054   24.7222 C   0  0  0  0  0  0
  -21.8819   -3.8147   23.4343 C   0  0  0  0  0  0
  -21.9194   -4.6964   22.3399 C   0  0  0  0  0  0
  -22.7754  -13.5192   21.1895 C   0  0  0  0  0  0
  -22.1660   -4.2149   21.0977 F   0  0  0  0  0  0
  -21.5627   -3.4538   25.7735 F   0  0  0  0  0  0
  -29.8795  -13.9535   20.3425 N   0  0  0  0  0  0
  -26.2816  -12.9526   20.3220 N   0  0  0  0  0  0
  -25.9334  -11.6633   20.5723 N   0  0  0  0  0  0
  -22.0411  -12.8184   22.0454 N   0  0  0  0  0  0
  -25.4012  -15.1989   20.4166 N   0  0  0  0  0  0
  -31.6531  -15.2651   20.1114 O   0  0  0  0  0  0
  -21.6647   -6.8885   21.4242 O   0  0  0  0  0  0
  -22.3434  -14.5487   20.6724 O   0  0  0  0  0  0
  -24.6624  -31.8229   23.1704 C   0  0  0  0  0  0
  -25.9306  -32.4584   23.8165 C   0  0  1  0  0  0
  -27.2190  -26.9274   20.1827 C   0  0  0  0  0  0
  -25.5975  -33.8399   24.2068 N   0  0  0  0  0  0
  -23.4775  -30.4341   21.5190 C   0  0  2  0  0  0
  -24.9321  -28.8213   20.1090 C   0  0  0  0  0  0
  -22.7665  -29.4432   22.4777 C   0  0  0  0  0  0
  -18.0320  -28.1405   22.8466 C   0  0  0  0  0  0
  -24.1494  -36.7210   23.2647 C   0  0  0  0  0  0
  -26.0459  -30.6285   21.4018 C   0  0  0  0  0  0
  -26.1138  -29.2184   20.7460 C   0  0  0  0  0  0
  -27.2500  -28.2910   20.7610 C   0  0  0  0  0  0
  -26.0125  -26.6865   19.4875 C   0  0  0  0  0  0
  -24.9069  -27.5764   19.4590 C   0  0  0  0  0  0
  -23.7176  -29.7486   20.1449 C   0  0  0  0  0  0
  -25.4135  -36.2965   24.0296 C   0  0  1  0  0  0
  -20.5944  -28.3750   23.1186 C   0  0  2  0  0  0
  -20.6797  -26.9432   22.5401 C   0  0  0  0  0  0
  -19.5772  -26.6374   21.5213 C   0  0  0  0  0  0
  -18.1953  -26.7937   22.1620 C   0  0  0  0  0  0
  -19.1582  -28.8899   23.2813 C   0  0  0  0  0  0
  -18.9492  -30.1488   23.8848 C   0  0  0  0  0  0
  -17.6485  -30.6595   24.0554 C   0  0  0  0  0  0
  -25.9100  -34.9347   23.5003 C   0  0  0  0  0  0
  -16.5375  -29.9083   23.6343 C   0  0  0  0  0  0
  -16.7302  -28.6504   23.0362 C   0  0  0  0  0  0
  -26.4559  -31.6534   25.0699 C   0  0  0  0  0  0
  -25.3682  -31.3789   26.1355 C   0  0  0  0  0  0
  -27.0460  -30.2900   24.6440 C   0  0  0  0  0  0
  -27.6044  -32.4350   25.7506 C   0  0  0  0  0  0
  -27.5568  -37.1763   24.8465 C   0  0  0  0  0  0
  -21.4334  -29.3038   22.3532 N   0  0  0  0  0  0
  -26.4281  -37.3701   23.9404 N   0  0  0  0  0  0
  -24.7498  -30.9891   22.0840 N   0  0  0  0  0  0
  -23.4213  -28.8004   23.3021 O   0  0  0  0  0  0
  -28.2173  -25.8211   20.2904 O   0  0  0  0  0  0
  -26.5714  -34.8882   22.4602 O   0  0  0  0  0  0
  -23.5695  -32.1197   23.6798 O   0  0  0  0  0  0
  -28.3374  -20.9960   20.1108 C   0  0  0  0  0  0
  -30.2323  -22.2681   20.2829 C   0  0  0  0  0  0
  -28.7236  -22.6218   20.5084 C   0  0  1  0  0  0
  -29.4435  -19.8025   20.6279 C   0  0  1  0  0  0
  -28.0276  -24.2106   19.9663 C   0  0  0  0  0  0
  -29.9681  -18.1457   20.0799 C   0  0  0  0  0  0
  -29.6852  -16.5411   20.4595 N   0  0  0  0  0  0
  -30.5803  -20.7936   20.5595 N   0  3  0  0  0  0
  -31.4593  -12.9999   19.2093 H   0  0  0  0  0  0
  -30.4983  -11.8978   20.1425 H   0  0  0  0  0  0
  -29.9192  -11.7476   17.6958 H   0  0  0  0  0  0
  -29.5711  -13.4596   17.6563 H   0  0  0  0  0  0
  -28.0429  -11.2760   19.0932 H   0  0  0  0  0  0
  -27.4203  -12.3409   17.8575 H   0  0  0  0  0  0
  -27.5297  -14.2424   19.3279 H   0  0  0  0  0  0
  -28.8082  -12.5176   21.5040 H   0  0  0  0  0  0
  -28.2811  -14.1752   21.6941 H   0  0  0  0  0  0
  -25.2783   -9.5681   22.4758 H   0  0  0  0  0  0
  -24.0010   -7.4642   22.7477 H   0  0  0  0  0  0
  -21.0855   -8.8791   19.8956 H   0  0  0  0  0  0
  -22.3725  -10.9677   19.6168 H   0  0  0  0  0  0
  -21.2016   -7.6148   23.9716 H   0  0  0  0  0  0
  -21.1481   -6.0520   25.9076 H   0  0  0  0  0  0
  -22.0594   -2.7608   23.2844 H   0  0  0  0  0  0
  -22.4037  -11.9860   22.4860 H   0  0  0  0  0  0
  -21.1017  -13.1190   22.2642 H   0  0  0  0  0  0
  -24.6282  -15.8462   20.5282 H   0  0  0  0  0  0
  -26.2370  -15.6406   20.0568 H   0  0  0  0  0  0
  -26.7375  -32.5123   23.0879 H   0  0  0  0  0  0
  -25.0066  -33.9476   25.0181 H   0  0  0  0  0  0
  -22.7906  -31.2656   21.3479 H   0  0  0  0  0  0
  -23.3763  -35.9534   23.3282 H   0  0  0  0  0  0
  -24.3568  -36.8887   22.2066 H   0  0  0  0  0  0
  -23.7246  -37.6388   23.6723 H   0  0  0  0  0  0
  -26.2259  -31.3697   20.6219 H   0  0  0  0  0  0
  -26.9058  -30.6856   22.0571 H   0  0  0  0  0  0
  -28.1411  -28.5895   21.2948 H   0  0  0  0  0  0
  -25.8861  -25.7374   18.9873 H   0  0  0  0  0  0
  -24.0098  -27.2689   18.9394 H   0  0  0  0  0  0
  -23.8724  -30.5167   19.3864 H   0  0  0  0  0  0
  -22.8275  -29.2024   19.8281 H   0  0  0  0  0  0
  -25.1336  -36.1760   25.0787 H   0  0  0  0  0  0
  -21.0029  -28.3358   24.1311 H   0  0  0  0  0  0
  -20.5675  -26.2369   23.3642 H   0  0  0  0  0  0
  -21.6660  -26.7409   22.1208 H   0  0  0  0  0  0
  -19.6932  -25.6271   21.1276 H   0  0  0  0  0  0
  -19.6710  -27.3155   20.6719 H   0  0  0  0  0  0
  -17.4223  -26.6677   21.4026 H   0  0  0  0  0  0
  -18.0352  -26.0090   22.9027 H   0  0  0  0  0  0
  -19.7967  -30.7319   24.2194 H   0  0  0  0  0  0
  -17.5036  -31.6270   24.5165 H   0  0  0  0  0  0
  -15.5374  -30.2970   23.7693 H   0  0  0  0  0  0
  -15.8701  -28.0805   22.7105 H   0  0  0  0  0  0
  -24.5872  -30.7135   25.7661 H   0  0  0  0  0  0
  -24.8868  -32.2995   26.4663 H   0  0  0  0  0  0
  -25.7910  -30.9027   27.0211 H   0  0  0  0  0  0
  -26.3128  -29.6569   24.1432 H   0  0  0  0  0  0
  -27.3972  -29.7275   25.5101 H   0  0  0  0  0  0
  -27.9077  -30.4080   23.9868 H   0  0  0  0  0  0
  -27.2601  -33.3689   26.1964 H   0  0  0  0  0  0
  -28.3919  -32.6854   25.0385 H   0  0  0  0  0  0
  -28.0642  -31.8561   26.5525 H   0  0  0  0  0  0
  -28.2569  -38.0072   24.7507 H   0  0  0  0  0  0
  -28.1079  -36.2598   24.6303 H   0  0  0  0  0  0
  -27.2283  -37.1417   25.8867 H   0  0  0  0  0  0
  -20.9587  -29.8727   21.6659 H   0  0  0  0  0  0
  -26.0127  -38.2761   24.1407 H   0  0  0  0  0  0
  -28.2640  -20.9291   19.0239 H   0  0  0  0  0  0
  -27.3404  -20.7517   20.4774 H   0  0  0  0  0  0
  -30.8772  -22.9210   20.8718 H   0  0  0  0  0  0
  -30.4774  -22.4679   19.2388 H   0  0  0  0  0  0
  -28.5895  -22.6616   21.5895 H   0  0  0  0  0  0
  -29.2475  -19.6862   21.6944 H   0  0  0  0  0  0
  -26.9632  -24.0664   20.1488 H   0  0  0  0  0  0
  -28.1092  -24.1787   18.8796 H   0  0  0  0  0  0
  -31.0496  -18.1771   20.2140 H   0  0  0  0  0  0
  -29.8545  -18.1705   18.9958 H   0  0  0  0  0  0
  -28.7176  -16.3743   20.6962 H   0  0  0  0  0  0
  -31.0771  -20.7449   21.4346 H   0  0  0  0  0  0
  -31.2301  -20.5012   19.8480 H   0  0  0  0  0  0
  1 25  1  0  0  0
  1 30  2  0  0  0
  1 77  1  0  0  0
  2  3  1  0  0  0
  2 25  1  0  0  0
  2 79  1  0  0  0
  2 80  1  0  0  0
  3  4  1  0  0  0
  3 81  1  0  0  0
  3 82  1  0  0  0
  4  5  1  0  0  0
  4 83  1  0  0  0
  4 84  1  0  0  0
  5  6  1  0  0  0
  5 26  1  0  0  0
  5 85  1  0  0  0
  6 25  1  0  0  0
  6 86  1  0  0  0
  6 87  1  0  0  0
  7  8  2  0  0  0
  7 26  1  0  0  0
  7 29  1  0  0  0
  8  9  1  0  0  0
  8 22  1  0  0  0
  9 10  1  0  0  0
  9 27  2  0  0  0
 10 11  2  0  0  0
 10 15  1  0  0  0
 11 12  1  0  0  0
 11 88  1  0  0  0
 12 13  2  0  0  0
 12 89  1  0  0  0
 13 14  1  0  0  0
 13 31  1  0  0  0
 14 15  2  0  0  0
 14 90  1  0  0  0
 15 91  1  0  0  0
 16 17  2  0  0  0
 16 21  1  0  0  0
 16 31  1  0  0  0
 17 18  1  0  0  0
 17 92  1  0  0  0
 18 19  2  0  0  0
 18 93  1  0  0  0
 19 20  1  0  0  0
 19 24  1  0  0  0
 20 21  2  0  0  0
 20 94  1  0  0  0
 21 23  1  0  0  0
 22 28  1  0  0  0
 22 32  2  0  0  0
 26 27  1  0  0  0
 28 95  1  0  0  0
 28 96  1  0  0  0
 29 97  1  0  0  0
 29 98  1  0  0  0
 33 34  1  0  0  0
 33 66  1  0  0  0
 33 70  2  0  0  0
 34 36  1  0  0  0
 34 59  1  0  0  0
 34 99  1  0  0  0
 35 44  2  0  0  0
 35 45  1  0  0  0
 35 68  1  0  0  0
 36 56  1  0  0  0
 36100  1  0  0  0
 37 39  1  0  0  0
 37 47  1  0  0  0
 37 66  1  0  0  0
 37101  1  0  0  0
 38 43  2  0  0  0
 38 46  1  0  0  0
 38 47  1  0  0  0
 39 64  1  0  0  0
 39 67  2  0  0  0
 40 52  1  0  0  0
 40 53  2  0  0  0
 40 58  1  0  0  0
 41102  1  0  0  0
 41103  1  0  0  0
 41104  1  0  0  0
 41 48  1  0  0  0
 42 43  1  0  0  0
 42 66  1  0  0  0
 42105  1  0  0  0
 42106  1  0  0  0
 43 44  1  0  0  0
 44107  1  0  0  0
 45 46  2  0  0  0
 45108  1  0  0  0
 46109  1  0  0  0
 47110  1  0  0  0
 47111  1  0  0  0
 48 56  1  0  0  0
 48 65  1  0  0  0
 48112  1  0  0  0
 49 50  1  0  0  0
 49 53  1  0  0  0
 49 64  1  0  0  0
 49113  1  0  0  0
 50 51  1  0  0  0
 50114  1  0  0  0
 50115  1  0  0  0
 51 52  1  0  0  0
 51116  1  0  0  0
 51117  1  0  0  0
 52118  1  0  0  0
 52119  1  0  0  0
 53 54  1  0  0  0
 54 55  2  0  0  0
 54120  1  0  0  0
 55 57  1  0  0  0
 55121  1  0  0  0
 56 69  2  0  0  0
 57 58  2  0  0  0
 57122  1  0  0  0
 58123  1  0  0  0
 59 60  1  0  0  0
 59 61  1  0  0  0
 59 62  1  0  0  0
 60124  1  0  0  0
 60125  1  0  0  0
 60126  1  0  0  0
 61127  1  0  0  0
 61128  1  0  0  0
 61129  1  0  0  0
 62130  1  0  0  0
 62131  1  0  0  0
 62132  1  0  0  0
 63 65  1  0  0  0
 63133  1  0  0  0
 63134  1  0  0  0
 63135  1  0  0  0
 64136  1  0  0  0
 65137  1  0  0  0
 68 75  1  0  0  0
 71 73  1  0  0  0
 71 74  1  0  0  0
 71138  1  0  0  0
 71139  1  0  0  0
 72 73  1  0  0  0
 72 78  1  0  0  0
 72140  1  0  0  0
 72141  1  0  0  0
 73 75  1  0  0  0
 73142  1  0  0  0
 74 76  1  0  0  0
 74 78  1  0  0  0
 74143  1  0  0  0
 75144  1  0  0  0
 75145  1  0  0  0
 76 77  1  0  0  0
 76146  1  0  0  0
 76147  1  0  0  0
 77148  1  0  0  0
 78149  1  0  0  0
 78150  1  0  0  0
M  CHG  1  78   1
M  ISO  4   1 100  68 101  75 101  77 100
M  END
> <chiral flag>
0

> <version>
0

> <s_m_source_file>
/data/baiqing/PycharmProjects/Reinvent-master-3.2/result/LINK_invent/BTK/process_docking_weight1_custom_sum_contain_oxygen_bond_distance_aromatic_linkinvent_7_9_3/rearranged_h_0188.sdf

> <i_m_source_file_index>
9

> <r_mmod_Potential_Energy-OPLS-2005>
1163.70324707031

> <r_mmod_Stretch_Energy-OPLS-2005>
585.978759765625

> <r_mmod_Bend_Energy-OPLS-2005>
526.911926269531

> <r_mmod_Torsional_Energy-OPLS-2005>
285.66552734375

> <r_mmod_Improper_Torsional_Energy-OPLS-2005>
4.43249320983887

> <r_mmod_Van_der_Waal_Energy-OPLS-2005>
108.934410095215

> <r_mmod_Electrostatic_Energy-OPLS-2005>
-309.254913330078

> <r_mmod_Solvation_Energy-OPLS-2005>
-497.831176757812

> <b_mmod_Minimization_Converged-OPLS-2005>
0

> <r_mmod_RMS_Derivative-OPLS-2005>
0.552694082260132

$$$$
9
                    3D
 Structure written by MMmdl.
157166  0  0  1  0            999 V2000
  -30.6900  -14.5448   20.5027 C   0  0  0  0  0  0
  -30.4190  -12.3325   19.4434 C   0  0  0  0  0  0
  -29.4966  -12.4851   18.2171 C   0  0  0  0  0  0
  -28.0215  -12.3234   18.6338 C   0  0  0  0  0  0
  -27.6490  -13.1966   19.8605 C   0  0  2  0  0  0
  -28.6952  -13.0679   20.9909 C   0  0  0  0  0  0
  -25.2555  -13.8128   20.5697 C   0  0  0  0  0  0
  -24.1803  -13.0416   20.9188 C   0  0  0  0  0  0
  -24.6351  -11.6881   20.8749 C   0  0  0  0  0  0
  -23.9019  -10.4278   21.0416 C   0  0  0  0  0  0
  -24.3583   -9.4197   21.9187 C   0  0  0  0  0  0
  -23.6275   -8.2227   22.0753 C   0  0  0  0  0  0
  -22.4255   -8.0265   21.3543 C   0  0  0  0  0  0
  -21.9879   -9.0234   20.4647 C   0  0  0  0  0  0
  -22.7198  -10.2120   20.3057 C   0  0  0  0  0  0
  -21.6840   -6.0723   22.5280 C   0  0  0  0  0  0
  -21.4010   -6.5627   23.8211 C   0  0  0  0  0  0
  -21.3664   -5.6782   24.9176 C   0  0  0  0  0  0
  -21.6044   -4.3044   24.7231 C   0  0  0  0  0  0
  -21.8818   -3.8136   23.4347 C   0  0  0  0  0  0
  -21.9188   -4.6951   22.3402 C   0  0  0  0  0  0
  -22.7832  -13.5231   21.1855 C   0  0  0  0  0  0
  -22.1657   -4.2136   21.0983 F   0  0  0  0  0  0
  -21.5636   -3.4531   25.7746 F   0  0  0  0  0  0
  -30.0179  -13.3598   20.4194 N   0  0  0  0  0  0
  -26.2955  -12.9266   20.3327 N   0  0  0  0  0  0
  -25.9268  -11.6445   20.5772 N   0  0  0  0  0  0
  -22.0462  -12.8243   22.0419 N   0  0  0  0  0  0
  -25.4307  -15.1846   20.4152 N   0  0  0  0  0  0
  -31.8652  -14.6546   20.1421 O   0  0  0  0  0  0
  -21.6626   -6.8860   21.4236 O   0  0  0  0  0  0
  -22.3527  -14.5539   20.6701 O   0  0  0  0  0  0
  -24.6166  -31.8671   23.2088 C   0  0  0  0  0  0
  -25.9055  -32.4818   23.8388 C   0  0  1  0  0  0
  -27.2293  -27.4114   20.1049 C   0  0  0  0  0  0
  -25.5909  -33.8614   24.2323 N   0  0  0  0  0  0
  -23.4057  -30.4912   21.5496 C   0  0  2  0  0  0
  -24.8529  -28.9569   20.1125 C   0  0  0  0  0  0
  -22.7421  -29.4659   22.4973 C   0  0  0  0  0  0
  -18.0278  -28.1377   22.8490 C   0  0  0  0  0  0
  -24.1492  -36.7314   23.2637 C   0  0  0  0  0  0
  -25.9371  -30.8269   21.3650 C   0  0  0  0  0  0
  -26.0153  -29.4598   20.7114 C   0  0  0  0  0  0
  -27.2090  -28.6968   20.7012 C   0  0  0  0  0  0
  -26.0540  -26.9399   19.4793 C   0  0  0  0  0  0
  -24.8689  -27.6973   19.4901 C   0  0  0  0  0  0
  -23.6157  -29.8254   20.1637 C   0  0  0  0  0  0
  -25.4111  -36.3110   24.0338 C   0  0  1  0  0  0
  -20.5870  -28.3672   23.1309 C   0  0  2  0  0  0
  -20.6770  -26.9406   22.5413 C   0  0  0  0  0  0
  -19.5750  -26.6385   21.5209 C   0  0  0  0  0  0
  -18.1927  -26.7923   22.1618 C   0  0  0  0  0  0
  -19.1525  -28.8839   23.2898 C   0  0  0  0  0  0
  -18.9453  -30.1444   23.8908 C   0  0  0  0  0  0
  -17.6453  -30.6583   24.0564 C   0  0  0  0  0  0
  -25.9038  -34.9474   23.5126 C   0  0  0  0  0  0
  -16.5345  -29.9084   23.6324 C   0  0  0  0  0  0
  -16.7265  -28.6502   23.0345 C   0  0  0  0  0  0
  -26.4478  -31.6593   25.0714 C   0  0  0  0  0  0
  -25.3746  -31.3698   26.1464 C   0  0  0  0  0  0
  -27.0304  -30.3035   24.6088 C   0  0  0  0  0  0
  -27.6056  -32.4306   25.7477 C   0  0  0  0  0  0
  -27.5584  -37.1809   24.8462 C   0  0  0  0  0  0
  -21.4150  -29.3037   22.3714 N   0  0  0  0  0  0
  -26.4298  -37.3793   23.9409 N   0  0  0  0  0  0
  -24.6715  -31.0761   22.0993 N   0  0  0  0  0  0
  -23.4191  -28.8197   23.3015 O   0  0  0  0  0  0
  -28.3694  -26.6274   20.1183 O   0  0  0  0  0  0
  -26.5594  -34.8927   22.4684 O   0  0  0  0  0  0
  -23.5354  -32.1426   23.7472 O   0  0  0  0  0  0
  -30.6183  -21.1590   21.2223 C   0  0  0  0  0  0
  -30.5844  -16.9131   21.2935 C   0  0  0  0  0  0
  -29.3539  -16.4506   19.7245 C   0  0  0  0  0  0
  -29.4391  -20.3323   20.7481 C   0  0  1  0  0  0
  -29.4619  -17.6953   20.6025 C   0  0  0  0  0  0
  -29.6976  -21.7361   20.1694 C   0  0  1  0  0  0
  -29.6683  -19.0664   19.9035 C   0  0  0  0  0  0
  -29.1160  -24.2036   20.1181 C   0  0  0  0  0  0
  -28.2087  -25.3163   20.7209 C   0  0  0  0  0  0
  -29.9595  -15.6535   20.8116 N   0  0  0  0  0  0
  -28.8265  -22.8417   20.6743 N   0  3  0  0  0  0
  -31.4648  -12.4217   19.1444 H   0  0  0  0  0  0
  -30.3186  -11.3381   19.8822 H   0  0  0  0  0  0
  -29.7552  -11.7445   17.4592 H   0  0  0  0  0  0
  -29.6459  -13.4628   17.7554 H   0  0  0  0  0  0
  -27.8603  -11.2714   18.8719 H   0  0  0  0  0  0
  -27.3635  -12.5497   17.7938 H   0  0  0  0  0  0
  -27.6572  -14.2191   19.5014 H   0  0  0  0  0  0
  -28.6855  -12.0617   21.4142 H   0  0  0  0  0  0
  -28.4566  -13.7451   21.8131 H   0  0  0  0  0  0
  -25.2731   -9.5680   22.4754 H   0  0  0  0  0  0
  -23.9990   -7.4615   22.7461 H   0  0  0  0  0  0
  -21.0814   -8.8743   19.8949 H   0  0  0  0  0  0
  -22.3653  -10.9654   19.6165 H   0  0  0  0  0  0
  -21.2002   -7.6135   23.9711 H   0  0  0  0  0  0
  -21.1488   -6.0514   25.9078 H   0  0  0  0  0  0
  -22.0597   -2.7599   23.2849 H   0  0  0  0  0  0
  -22.4064  -11.9907   22.4827 H   0  0  0  0  0  0
  -21.1079  -13.1280   22.2623 H   0  0  0  0  0  0
  -24.6735  -15.8473   20.5424 H   0  0  0  0  0  0
  -26.3037  -15.6230   20.1519 H   0  0  0  0  0  0
  -26.7123  -32.5531   23.1149 H   0  0  0  0  0  0
  -25.0082  -33.9777   25.0486 H   0  0  0  0  0  0
  -22.6952  -31.3085   21.4106 H   0  0  0  0  0  0
  -23.3752  -35.9647   23.3300 H   0  0  0  0  0  0
  -24.3586  -36.8924   22.2049 H   0  0  0  0  0  0
  -23.7244  -37.6522   23.6647 H   0  0  0  0  0  0
  -26.0514  -31.5929   20.5966 H   0  0  0  0  0  0
  -26.8244  -30.8804   21.9843 H   0  0  0  0  0  0
  -28.1049  -29.0803   21.1697 H   0  0  0  0  0  0
  -26.0468  -25.9813   18.9799 H   0  0  0  0  0  0
  -23.9790  -27.3101   19.0135 H   0  0  0  0  0  0
  -23.7246  -30.6012   19.4048 H   0  0  0  0  0  0
  -22.7391  -29.2464   19.8672 H   0  0  0  0  0  0
  -25.1285  -36.1974   25.0832 H   0  0  0  0  0  0
  -20.9962  -28.3240   24.1430 H   0  0  0  0  0  0
  -20.5677  -26.2277   23.3602 H   0  0  0  0  0  0
  -21.6643  -26.7451   22.1206 H   0  0  0  0  0  0
  -19.6915  -25.6298   21.1233 H   0  0  0  0  0  0
  -19.6693  -27.3202   20.6744 H   0  0  0  0  0  0
  -17.4202  -26.6673   21.4016 H   0  0  0  0  0  0
  -18.0327  -26.0062   22.9010 H   0  0  0  0  0  0
  -19.7929  -30.7253   24.2288 H   0  0  0  0  0  0
  -17.5011  -31.6264   24.5160 H   0  0  0  0  0  0
  -15.5347  -30.2989   23.7641 H   0  0  0  0  0  0
  -15.8667  -28.0825   22.7050 H   0  0  0  0  0  0
  -24.5917  -30.7048   25.7801 H   0  0  0  0  0  0
  -24.8942  -32.2852   26.4927 H   0  0  0  0  0  0
  -25.8104  -30.8856   27.0214 H   0  0  0  0  0  0
  -26.2841  -29.6796   24.1157 H   0  0  0  0  0  0
  -27.4091  -29.7269   25.4538 H   0  0  0  0  0  0
  -27.8672  -30.4351   23.9224 H   0  0  0  0  0  0
  -27.2681  -33.3596   26.2086 H   0  0  0  0  0  0
  -28.3854  -32.6881   25.0296 H   0  0  0  0  0  0
  -28.0743  -31.8409   26.5368 H   0  0  0  0  0  0
  -28.2602  -38.0108   24.7516 H   0  0  0  0  0  0
  -28.1081  -36.2637   24.6281 H   0  0  0  0  0  0
  -27.2303  -37.1454   25.8867 H   0  0  0  0  0  0
  -20.9308  -29.8762   21.6941 H   0  0  0  0  0  0
  -26.0188  -38.2875   24.1403 H   0  0  0  0  0  0
  -31.6115  -20.8540   20.8982 H   0  0  0  0  0  0
  -30.5731  -21.5562   22.2349 H   0  0  0  0  0  0
  -30.5886  -17.0333   22.3776 H   0  0  0  0  0  0
  -31.5733  -17.1236   20.8778 H   0  0  0  0  0  0
  -29.9584  -16.5039   18.8147 H   0  0  0  0  0  0
  -28.3181  -16.2242   19.4827 H   0  0  0  0  0  0
  -28.5908  -20.2522   21.4264 H   0  0  0  0  0  0
  -28.5887  -17.7266   21.2588 H   0  0  0  0  0  0
  -30.0231  -21.8294   19.1341 H   0  0  0  0  0  0
  -30.6640  -19.1134   19.4595 H   0  0  0  0  0  0
  -28.9817  -19.1288   19.0581 H   0  0  0  0  0  0
  -30.1626  -24.4536   20.2952 H   0  0  0  0  0  0
  -28.9759  -24.1728   19.0372 H   0  0  0  0  0  0
  -28.4294  -25.4226   21.7841 H   0  0  0  0  0  0
  -27.1750  -24.9723   20.6774 H   0  0  0  0  0  0
  -28.8940  -22.8738   21.6793 H   0  0  0  0  0  0
  -27.8704  -22.6083   20.4514 H   0  0  0  0  0  0
  1 25  1  0  0  0
  1 30  2  0  0  0
  1 80  1  0  0  0
  2  3  1  0  0  0
  2 25  1  0  0  0
  2 82  1  0  0  0
  2 83  1  0  0  0
  3  4  1  0  0  0
  3 84  1  0  0  0
  3 85  1  0  0  0
  4  5  1  0  0  0
  4 86  1  0  0  0
  4 87  1  0  0  0
  5  6  1  0  0  0
  5 26  1  0  0  0
  5 88  1  0  0  0
  6 25  1  0  0  0
  6 89  1  0  0  0
  6 90  1  0  0  0
  7  8  2  0  0  0
  7 26  1  0  0  0
  7 29  1  0  0  0
  8  9  1  0  0  0
  8 22  1  0  0  0
  9 10  1  0  0  0
  9 27  2  0  0  0
 10 11  2  0  0  0
 10 15  1  0  0  0
 11 12  1  0  0  0
 11 91  1  0  0  0
 12 13  2  0  0  0
 12 92  1  0  0  0
 13 14  1  0  0  0
 13 31  1  0  0  0
 14 15  2  0  0  0
 14 93  1  0  0  0
 15 94  1  0  0  0
 16 17  2  0  0  0
 16 21  1  0  0  0
 16 31  1  0  0  0
 17 18  1  0  0  0
 17 95  1  0  0  0
 18 19  2  0  0  0
 18 96  1  0  0  0
 19 20  1  0  0  0
 19 24  1  0  0  0
 20 21  2  0  0  0
 20 97  1  0  0  0
 21 23  1  0  0  0
 22 28  1  0  0  0
 22 32  2  0  0  0
 26 27  1  0  0  0
 28 98  1  0  0  0
 28 99  1  0  0  0
 29100  1  0  0  0
 29101  1  0  0  0
 33 34  1  0  0  0
 33 66  1  0  0  0
 33 70  2  0  0  0
 34 36  1  0  0  0
 34 59  1  0  0  0
 34102  1  0  0  0
 35 44  2  0  0  0
 35 45  1  0  0  0
 35 68  1  0  0  0
 36 56  1  0  0  0
 36103  1  0  0  0
 37 39  1  0  0  0
 37 47  1  0  0  0
 37 66  1  0  0  0
 37104  1  0  0  0
 38 43  2  0  0  0
 38 46  1  0  0  0
 38 47  1  0  0  0
 39 64  1  0  0  0
 39 67  2  0  0  0
 40 52  1  0  0  0
 40 53  2  0  0  0
 40 58  1  0  0  0
 41105  1  0  0  0
 41106  1  0  0  0
 41107  1  0  0  0
 41 48  1  0  0  0
 42 43  1  0  0  0
 42 66  1  0  0  0
 42108  1  0  0  0
 42109  1  0  0  0
 43 44  1  0  0  0
 44110  1  0  0  0
 45 46  2  0  0  0
 45111  1  0  0  0
 46112  1  0  0  0
 47113  1  0  0  0
 47114  1  0  0  0
 48 56  1  0  0  0
 48 65  1  0  0  0
 48115  1  0  0  0
 49 50  1  0  0  0
 49 53  1  0  0  0
 49 64  1  0  0  0
 49116  1  0  0  0
 50 51  1  0  0  0
 50117  1  0  0  0
 50118  1  0  0  0
 51 52  1  0  0  0
 51119  1  0  0  0
 51120  1  0  0  0
 52121  1  0  0  0
 52122  1  0  0  0
 53 54  1  0  0  0
 54 55  2  0  0  0
 54123  1  0  0  0
 55 57  1  0  0  0
 55124  1  0  0  0
 56 69  2  0  0  0
 57 58  2  0  0  0
 57125  1  0  0  0
 58126  1  0  0  0
 59 60  1  0  0  0
 59 61  1  0  0  0
 59 62  1  0  0  0
 60127  1  0  0  0
 60128  1  0  0  0
 60129  1  0  0  0
 61130  1  0  0  0
 61131  1  0  0  0
 61132  1  0  0  0
 62133  1  0  0  0
 62134  1  0  0  0
 62135  1  0  0  0
 63 65  1  0  0  0
 63136  1  0  0  0
 63137  1  0  0  0
 63138  1  0  0  0
 64139  1  0  0  0
 65140  1  0  0  0
 68 79  1  0  0  0
 71 74  1  0  0  0
 71 76  1  0  0  0
 71141  1  0  0  0
 71142  1  0  0  0
 72 75  1  0  0  0
 72 80  1  0  0  0
 72143  1  0  0  0
 72144  1  0  0  0
 73 75  1  0  0  0
 73 80  1  0  0  0
 73145  1  0  0  0
 73146  1  0  0  0
 74 76  1  0  0  0
 74 77  1  0  0  0
 74147  1  0  0  0
 75 77  1  0  0  0
 75148  1  0  0  0
 76 81  1  0  0  0
 76149  1  0  0  0
 77150  1  0  0  0
 77151  1  0  0  0
 78 79  1  0  0  0
 78 81  1  0  0  0
 78152  1  0  0  0
 78153  1  0  0  0
 79154  1  0  0  0
 79155  1  0  0  0
 81156  1  0  0  0
 81157  1  0  0  0
M  CHG  1  81   1
M  ISO  4   1 100  68 101  79 101  80 100
M  END
> <chiral flag>
0

> <version>
0

> <s_m_source_file>
/data/baiqing/PycharmProjects/Reinvent-master-3.2/result/LINK_invent/BTK/process_docking_weight1_custom_sum_contain_oxygen_bond_distance_aromatic_linkinvent_7_9_3/rearranged_h_0188.sdf

> <i_m_source_file_index>
10

> <r_mmod_Potential_Energy-OPLS-2005>
-8.94180870056152

> <r_mmod_Stretch_Energy-OPLS-2005>
44.0415420532227

> <r_mmod_Bend_Energy-OPLS-2005>
109.189750671387

> <r_mmod_Torsional_Energy-OPLS-2005>
345.128662109375

> <r_mmod_Improper_Torsional_Energy-OPLS-2005>
11.6506690979004

> <r_mmod_Van_der_Waal_Energy-OPLS-2005>
126.560043334961

> <r_mmod_Electrostatic_Energy-OPLS-2005>
-205.683044433594

> <r_mmod_Solvation_Energy-OPLS-2005>
-464.307586669922

> <b_mmod_Minimization_Converged-OPLS-2005>
0

> <r_mmod_RMS_Derivative-OPLS-2005>
1.0205237865448

$$$$
10
                    3D
 Structure written by MMmdl.
158168  0  0  1  0            999 V2000
  -30.5452  -14.9705   20.4226 C   0  0  0  0  0  0
  -30.4343  -12.5970   19.4729 C   0  0  0  0  0  0
  -29.5798  -12.5055   18.1985 C   0  0  0  0  0  0
  -28.1204  -12.1604   18.6165 C   0  0  0  0  0  0
  -27.6061  -13.1727   19.6809 C   0  0  2  0  0  0
  -28.6013  -13.3664   20.8526 C   0  0  0  0  0  0
  -25.2687  -13.7998   20.5110 C   0  0  0  0  0  0
  -24.1918  -13.0337   20.8921 C   0  0  0  0  0  0
  -24.6492  -11.6831   20.8405 C   0  0  0  0  0  0
  -23.9221  -10.4274   21.0303 C   0  0  0  0  0  0
  -24.3790   -9.4246   21.9117 C   0  0  0  0  0  0
  -23.6426   -8.2265   22.0712 C   0  0  0  0  0  0
  -22.4342   -8.0378   21.3539 C   0  0  0  0  0  0
  -22.0025   -9.0306   20.4632 C   0  0  0  0  0  0
  -22.7409  -10.2187   20.3003 C   0  0  0  0  0  0
  -21.6858   -6.0744   22.5290 C   0  0  0  0  0  0
  -21.4064   -6.5691   23.8224 C   0  0  0  0  0  0
  -21.3654   -5.6864   24.9169 C   0  0  0  0  0  0
  -21.6018   -4.3077   24.7203 C   0  0  0  0  0  0
  -21.8765   -3.8184   23.4359 C   0  0  0  0  0  0
  -21.9192   -4.7019   22.3394 C   0  0  0  0  0  0
  -22.8057  -13.5354   21.1626 C   0  0  0  0  0  0
  -22.1656   -4.2164   21.0965 F   0  0  0  0  0  0
  -21.5606   -3.4587   25.7735 F   0  0  0  0  0  0
  -29.9060  -13.7315   20.3097 N   0  0  0  0  0  0
  -26.2768  -12.8956   20.2094 N   0  0  0  0  0  0
  -25.9288  -11.6255   20.5016 N   0  0  0  0  0  0
  -22.0747  -12.8173   22.0187 N   0  0  0  0  0  0
  -25.4615  -15.1654   20.3657 N   0  0  0  0  0  0
  -31.7660  -14.9362   20.2518 O   0  0  0  0  0  0
  -21.6671   -6.8986   21.4306 O   0  0  0  0  0  0
  -22.3707  -14.5675   20.6718 O   0  0  0  0  0  0
  -24.6481  -31.8464   23.2002 C   0  0  0  0  0  0
  -25.9276  -32.4710   23.8353 C   0  0  1  0  0  0
  -27.1411  -27.1502   20.0297 C   0  0  0  0  0  0
  -25.6010  -33.8520   24.2246 N   0  0  0  0  0  0
  -23.4507  -30.4754   21.5534 C   0  0  2  0  0  0
  -24.8811  -28.9246   20.0938 C   0  0  0  0  0  0
  -22.7591  -29.4561   22.4920 C   0  0  0  0  0  0
  -18.0313  -28.1396   22.8481 C   0  0  0  0  0  0
  -24.1505  -36.7282   23.2624 C   0  0  0  0  0  0
  -26.0135  -30.6983   21.4117 C   0  0  0  0  0  0
  -26.0643  -29.3153   20.7376 C   0  0  0  0  0  0
  -27.2070  -28.4252   20.7192 C   0  0  0  0  0  0
  -25.9978  -26.9419   19.2625 C   0  0  0  0  0  0
  -24.8565  -27.7470   19.3472 C   0  0  0  0  0  0
  -23.6702  -29.8313   20.1637 C   0  0  0  0  0  0
  -25.4127  -36.3047   24.0309 C   0  0  1  0  0  0
  -20.5920  -28.3727   23.1234 C   0  0  2  0  0  0
  -20.6805  -26.9444   22.5392 C   0  0  0  0  0  0
  -19.5775  -26.6384   21.5210 C   0  0  0  0  0  0
  -18.1952  -26.7933   22.1620 C   0  0  0  0  0  0
  -19.1569  -28.8887   23.2838 C   0  0  0  0  0  0
  -18.9474  -30.1474   23.8877 C   0  0  0  0  0  0
  -17.6472  -30.6590   24.0561 C   0  0  0  0  0  0
  -25.9073  -34.9412   23.5068 C   0  0  0  0  0  0
  -16.5365  -29.9083   23.6339 C   0  0  0  0  0  0
  -16.7293  -28.6502   23.0355 C   0  0  0  0  0  0
  -26.4564  -31.6608   25.0813 C   0  0  0  0  0  0
  -25.3745  -31.3865   26.1518 C   0  0  0  0  0  0
  -27.0408  -30.2987   24.6441 C   0  0  0  0  0  0
  -27.6070  -32.4397   25.7585 C   0  0  0  0  0  0
  -27.5593  -37.1796   24.8445 C   0  0  0  0  0  0
  -21.4289  -29.3054   22.3634 N   0  0  0  0  0  0
  -26.4292  -37.3764   23.9398 N   0  0  0  0  0  0
  -24.7267  -31.0248   22.1107 N   0  0  0  0  0  0
  -23.4212  -28.8053   23.3034 O   0  0  0  0  0  0
  -28.0182  -26.0228   20.0452 O   0  0  0  0  0  0
  -26.5637  -34.8900   22.4633 O   0  0  0  0  0  0
  -23.5583  -32.1380   23.7198 O   0  0  0  0  0  0
  -26.1762  -21.4124   18.6804 C   0  0  0  0  0  0
  -26.3752  -22.7605   18.9787 C   0  0  0  0  0  0
  -27.4781  -23.1282   19.7930 C   0  0  0  0  0  0
  -28.0111  -20.6819   19.8938 C   0  0  0  0  0  0
  -30.9867  -17.9825   19.1831 C   0  0  0  0  0  0
  -29.6934  -18.2807   18.3841 C   0  0  0  0  0  0
  -29.7358  -18.8972   21.2039 C   0  0  0  0  0  0
  -28.5692  -16.6973   20.0214 C   0  0  0  0  0  0
  -30.6221  -17.6097   20.6537 C   0  0  1  0  0  0
  -28.5067  -18.1658   19.3473 C   0  0  1  0  0  0
  -27.3999  -24.6498   20.4824 C   0  0  0  0  0  0
  -26.9447  -20.4239   19.1514 N   0  0  0  0  0  0
  -28.2974  -22.0186   20.2328 N   0  0  0  0  0  0
  -28.6502  -19.3680   20.2548 N   0  0  0  0  0  0
  -29.8990  -16.2604   20.5842 N   0  0  0  0  0  0
  -25.0707  -23.8170   18.5586 Cl  0  0  0  0  0  0
  -31.4775  -12.7549   19.2248 H   0  0  0  0  0  0
  -30.3801  -11.6409   20.0016 H   0  0  0  0  0  0
  -29.9851  -11.7561   17.5095 H   0  0  0  0  0  0
  -29.6138  -13.4437   17.6542 H   0  0  0  0  0  0
  -28.1365  -11.1429   19.0405 H   0  0  0  0  0  0
  -27.4487  -12.0868   17.7500 H   0  0  0  0  0  0
  -27.5150  -14.0747   19.0858 H   0  0  0  0  0  0
  -28.6655  -12.5056   21.5133 H   0  0  0  0  0  0
  -28.2111  -14.1822   21.4527 H   0  0  0  0  0  0
  -25.2975   -9.5600   22.4663 H   0  0  0  0  0  0
  -24.0074   -7.4613   22.7438 H   0  0  0  0  0  0
  -21.0916   -8.8890   19.8941 H   0  0  0  0  0  0
  -22.3918  -10.9717   19.6055 H   0  0  0  0  0  0
  -21.2118   -7.6197   23.9710 H   0  0  0  0  0  0
  -21.1524   -6.0588   25.9040 H   0  0  0  0  0  0
  -22.0552   -2.7665   23.2813 H   0  0  0  0  0  0
  -22.4573  -11.9945   22.4515 H   0  0  0  0  0  0
  -21.1335  -13.1043   22.2365 H   0  0  0  0  0  0
  -24.7261  -15.8575   20.4860 H   0  0  0  0  0  0
  -26.3222  -15.5793   20.0280 H   0  0  0  0  0  0
  -26.7341  -32.5292   23.1065 H   0  0  0  0  0  0
  -25.0188  -33.9668   25.0410 H   0  0  0  0  0  0
  -22.7555  -31.3071   21.4088 H   0  0  0  0  0  0
  -23.3781  -35.9596   23.3218 H   0  0  0  0  0  0
  -24.3611  -36.8985   22.2054 H   0  0  0  0  0  0
  -23.7238  -37.6450   23.6698 H   0  0  0  0  0  0
  -26.1676  -31.4476   20.6322 H   0  0  0  0  0  0
  -26.8898  -30.7493   22.0515 H   0  0  0  0  0  0
  -28.1050  -28.6793   21.2669 H   0  0  0  0  0  0
  -25.9912  -26.1219   18.5675 H   0  0  0  0  0  0
  -23.9730  -27.4765   18.7835 H   0  0  0  0  0  0
  -23.8285  -30.6209   19.4269 H   0  0  0  0  0  0
  -22.7776  -29.2926   19.8353 H   0  0  0  0  0  0
  -25.1307  -36.1883   25.0802 H   0  0  0  0  0  0
  -20.9991  -28.3302   24.1355 H   0  0  0  0  0  0
  -20.5717  -26.2344   23.3596 H   0  0  0  0  0  0
  -21.6664  -26.7466   22.1170 H   0  0  0  0  0  0
  -19.6926  -25.6283   21.1258 H   0  0  0  0  0  0
  -19.6691  -27.3180   20.6723 H   0  0  0  0  0  0
  -17.4215  -26.6679   21.4020 H   0  0  0  0  0  0
  -18.0346  -26.0079   22.9022 H   0  0  0  0  0  0
  -19.7945  -30.7296   24.2232 H   0  0  0  0  0  0
  -17.5020  -31.6261   24.5171 H   0  0  0  0  0  0
  -15.5363  -30.2967   23.7673 H   0  0  0  0  0  0
  -15.8689  -28.0803   22.7081 H   0  0  0  0  0  0
  -24.5906  -30.7199   25.7918 H   0  0  0  0  0  0
  -24.8931  -32.3060   26.4855 H   0  0  0  0  0  0
  -25.8017  -30.9142   27.0373 H   0  0  0  0  0  0
  -26.2953  -29.6634   24.1634 H   0  0  0  0  0  0
  -27.4178  -29.7403   25.5028 H   0  0  0  0  0  0
  -27.8833  -30.4196   23.9625 H   0  0  0  0  0  0
  -27.2655  -33.3724   26.2095 H   0  0  0  0  0  0
  -28.3913  -32.6947   25.0447 H   0  0  0  0  0  0
  -28.0713  -31.8601   26.5573 H   0  0  0  0  0  0
  -28.2553  -38.0158   24.7562 H   0  0  0  0  0  0
  -28.1159  -36.2682   24.6176 H   0  0  0  0  0  0
  -27.2318  -37.1326   25.8853 H   0  0  0  0  0  0
  -20.9504  -29.8839   21.6871 H   0  0  0  0  0  0
  -26.0161  -38.2831   24.1413 H   0  0  0  0  0  0
  -25.2874  -21.1167   18.1254 H   0  0  0  0  0  0
  -31.5032  -17.1557   18.7049 H   0  0  0  0  0  0
  -31.6418  -18.8497   19.1070 H   0  0  0  0  0  0
  -29.5726  -17.5835   17.5349 H   0  0  0  0  0  0
  -29.7252  -19.2889   17.9661 H   0  0  0  0  0  0
  -30.4054  -19.7265   21.4395 H   0  0  0  0  0  0
  -29.2909  -18.5933   22.1575 H   0  0  0  0  0  0
  -28.3711  -15.9920   19.2113 H   0  0  0  0  0  0
  -27.7607  -16.5849   20.7406 H   0  0  0  0  0  0
  -31.5471  -17.5039   21.2357 H   0  0  0  0  0  0
  -27.5760  -18.1939   18.7738 H   0  0  0  0  0  0
  -27.8099  -24.4769   21.4643 H   0  0  0  0  0  0
  -26.3268  -24.8169   20.7059 H   0  0  0  0  0  0
  1 25  1  0  0  0
  1 30  2  0  0  0
  1 85  1  0  0  0
  2  3  1  0  0  0
  2 25  1  0  0  0
  2 87  1  0  0  0
  2 88  1  0  0  0
  3  4  1  0  0  0
  3 89  1  0  0  0
  3 90  1  0  0  0
  4  5  1  0  0  0
  4 91  1  0  0  0
  4 92  1  0  0  0
  5  6  1  0  0  0
  5 26  1  0  0  0
  5 93  1  0  0  0
  6 25  1  0  0  0
  6 94  1  0  0  0
  6 95  1  0  0  0
  7  8  2  0  0  0
  7 26  1  0  0  0
  7 29  1  0  0  0
  8  9  1  0  0  0
  8 22  1  0  0  0
  9 10  1  0  0  0
  9 27  2  0  0  0
 10 11  2  0  0  0
 10 15  1  0  0  0
 11 12  1  0  0  0
 11 96  1  0  0  0
 12 13  2  0  0  0
 12 97  1  0  0  0
 13 14  1  0  0  0
 13 31  1  0  0  0
 14 15  2  0  0  0
 14 98  1  0  0  0
 15 99  1  0  0  0
 16 17  2  0  0  0
 16 21  1  0  0  0
 16 31  1  0  0  0
 17 18  1  0  0  0
 17100  1  0  0  0
 18 19  2  0  0  0
 18101  1  0  0  0
 19 20  1  0  0  0
 19 24  1  0  0  0
 20 21  2  0  0  0
 20102  1  0  0  0
 21 23  1  0  0  0
 22 28  1  0  0  0
 22 32  2  0  0  0
 26 27  1  0  0  0
 28103  1  0  0  0
 28104  1  0  0  0
 29105  1  0  0  0
 29106  1  0  0  0
 33 34  1  0  0  0
 33 66  1  0  0  0
 33 70  2  0  0  0
 34 36  1  0  0  0
 34 59  1  0  0  0
 34107  1  0  0  0
 35 44  2  0  0  0
 35 45  1  0  0  0
 35 68  1  0  0  0
 36 56  1  0  0  0
 36108  1  0  0  0
 37 39  1  0  0  0
 37 47  1  0  0  0
 37 66  1  0  0  0
 37109  1  0  0  0
 38 43  2  0  0  0
 38 46  1  0  0  0
 38 47  1  0  0  0
 39 64  1  0  0  0
 39 67  2  0  0  0
 40 52  1  0  0  0
 40 53  2  0  0  0
 40 58  1  0  0  0
 41110  1  0  0  0
 41111  1  0  0  0
 41112  1  0  0  0
 41 48  1  0  0  0
 42 43  1  0  0  0
 42 66  1  0  0  0
 42113  1  0  0  0
 42114  1  0  0  0
 43 44  1  0  0  0
 44115  1  0  0  0
 45 46  2  0  0  0
 45116  1  0  0  0
 46117  1  0  0  0
 47118  1  0  0  0
 47119  1  0  0  0
 48 56  1  0  0  0
 48 65  1  0  0  0
 48120  1  0  0  0
 49 50  1  0  0  0
 49 53  1  0  0  0
 49 64  1  0  0  0
 49121  1  0  0  0
 50 51  1  0  0  0
 50122  1  0  0  0
 50123  1  0  0  0
 51 52  1  0  0  0
 51124  1  0  0  0
 51125  1  0  0  0
 52126  1  0  0  0
 52127  1  0  0  0
 53 54  1  0  0  0
 54 55  2  0  0  0
 54128  1  0  0  0
 55 57  1  0  0  0
 55129  1  0  0  0
 56 69  2  0  0  0
 57 58  2  0  0  0
 57130  1  0  0  0
 58131  1  0  0  0
 59 60  1  0  0  0
 59 61  1  0  0  0
 59 62  1  0  0  0
 60132  1  0  0  0
 60133  1  0  0  0
 60134  1  0  0  0
 61135  1  0  0  0
 61136  1  0  0  0
 61137  1  0  0  0
 62138  1  0  0  0
 62139  1  0  0  0
 62140  1  0  0  0
 63 65  1  0  0  0
 63141  1  0  0  0
 63142  1  0  0  0
 63143  1  0  0  0
 64144  1  0  0  0
 65145  1  0  0  0
 68 81  1  0  0  0
 71 72  2  0  0  0
 71 82  1  0  0  0
 71146  1  0  0  0
 72 73  1  0  0  0
 72 86  1  0  0  0
 73 81  1  0  0  0
 73 83  2  0  0  0
 74 82  2  0  0  0
 74 83  1  0  0  0
 74 84  1  0  0  0
 75 76  1  0  0  0
 75147  1  0  0  0
 75148  1  0  0  0
 75 79  1  0  0  0
 76149  1  0  0  0
 76150  1  0  0  0
 76 80  1  0  0  0
 77 79  1  0  0  0
 77 84  1  0  0  0
 77151  1  0  0  0
 77152  1  0  0  0
 78 80  1  0  0  0
 78 85  1  0  0  0
 78153  1  0  0  0
 78154  1  0  0  0
 79 85  1  0  0  0
 79155  1  0  0  0
 80 84  1  0  0  0
 80156  1  0  0  0
 81157  1  0  0  0
 81158  1  0  0  0
M  ISO  4   1 100  68 101  81 101  85 100
M  END
> <chiral flag>
0

> <version>
0

> <s_m_source_file>
/data/baiqing/PycharmProjects/Reinvent-master-3.2/result/LINK_invent/BTK/process_docking_weight1_custom_sum_contain_oxygen_bond_distance_aromatic_linkinvent_7_9_3/rearranged_h_0188.sdf

> <i_m_source_file_index>
11

> <r_mmod_Potential_Energy-OPLS-2005>
570.140075683594

> <r_mmod_Stretch_Energy-OPLS-2005>
285.126342773438

> <r_mmod_Bend_Energy-OPLS-2005>
367.228790283203

> <r_mmod_Torsional_Energy-OPLS-2005>
435.719207763672

> <r_mmod_Improper_Torsional_Energy-OPLS-2005>
11.9793004989624

> <r_mmod_Van_der_Waal_Energy-OPLS-2005>
187.556991577148

> <r_mmod_Electrostatic_Energy-OPLS-2005>
-747.647888183594

> <r_mmod_Solvation_Energy-OPLS-2005>
-230.431365966797

> <b_mmod_Minimization_Converged-OPLS-2005>
0

> <r_mmod_RMS_Derivative-OPLS-2005>
24.7910213470459

$$$$
11
                    3D
 Structure written by MMmdl.
161170  0  0  1  0            999 V2000
  -30.7281  -14.4239   20.5682 C   0  0  0  0  0  0
  -30.4137  -12.2745   19.4118 C   0  0  0  0  0  0
  -29.4981  -12.5225   18.1980 C   0  0  0  0  0  0
  -28.0118  -12.4116   18.5962 C   0  0  0  0  0  0
  -27.6656  -13.2141   19.8803 C   0  0  2  0  0  0
  -28.7078  -12.9752   20.9949 C   0  0  0  0  0  0
  -25.2586  -13.8182   20.5684 C   0  0  0  0  0  0
  -24.1841  -13.0451   20.9154 C   0  0  0  0  0  0
  -24.6407  -11.6919   20.8705 C   0  0  0  0  0  0
  -23.9079  -10.4311   21.0375 C   0  0  0  0  0  0
  -24.3628   -9.4234   21.9160 C   0  0  0  0  0  0
  -23.6304   -8.2267   22.0749 C   0  0  0  0  0  0
  -22.4288   -8.0294   21.3548 C   0  0  0  0  0  0
  -21.9914   -9.0264   20.4647 C   0  0  0  0  0  0
  -22.7239  -10.2142   20.3033 C   0  0  0  0  0  0
  -21.6875   -6.0731   22.5274 C   0  0  0  0  0  0
  -21.4027   -6.5632   23.8199 C   0  0  0  0  0  0
  -21.3660   -5.6788   24.9164 C   0  0  0  0  0  0
  -21.6048   -4.3049   24.7219 C   0  0  0  0  0  0
  -21.8812   -3.8142   23.4335 C   0  0  0  0  0  0
  -21.9198   -4.6959   22.3398 C   0  0  0  0  0  0
  -22.7853  -13.5229   21.1819 C   0  0  0  0  0  0
  -22.1668   -4.2144   21.0976 F   0  0  0  0  0  0
  -21.5631   -3.4532   25.7729 F   0  0  0  0  0  0
  -30.0416  -13.2573   20.4382 N   0  0  0  0  0  0
  -26.3050  -12.9370   20.3391 N   0  0  0  0  0  0
  -25.9337  -11.6513   20.5719 N   0  0  0  0  0  0
  -22.0523  -12.8227   22.0391 N   0  0  0  0  0  0
  -25.4283  -15.1912   20.4124 N   0  0  0  0  0  0
  -31.8548  -14.6015   20.0950 O   0  0  0  0  0  0
  -21.6653   -6.8886   21.4240 O   0  0  0  0  0  0
  -22.3525  -14.5540   20.6677 O   0  0  0  0  0  0
  -24.6088  -31.8689   23.2108 C   0  0  0  0  0  0
  -25.8997  -32.4833   23.8404 C   0  0  1  0  0  0
  -27.2605  -27.4662   20.1040 C   0  0  0  0  0  0
  -25.5867  -33.8636   24.2326 N   0  0  0  0  0  0
  -23.3991  -30.4888   21.5466 C   0  0  2  0  0  0
  -24.8540  -28.9545   20.1177 C   0  0  0  0  0  0
  -22.7391  -29.4657   22.4983 C   0  0  0  0  0  0
  -18.0268  -28.1379   22.8490 C   0  0  0  0  0  0
  -24.1478  -36.7327   23.2642 C   0  0  0  0  0  0
  -25.9223  -30.8439   21.3638 C   0  0  0  0  0  0
  -26.0053  -29.4778   20.7172 C   0  0  0  0  0  0
  -27.2092  -28.7431   20.7123 C   0  0  0  0  0  0
  -26.0965  -26.9553   19.4924 C   0  0  0  0  0  0
  -24.8924  -27.6904   19.5026 C   0  0  0  0  0  0
  -23.6103  -29.8143   20.1639 C   0  0  0  0  0  0
  -25.4096  -36.3123   24.0342 C   0  0  1  0  0  0
  -20.5851  -28.3658   23.1319 C   0  0  2  0  0  0
  -20.6756  -26.9398   22.5427 C   0  0  0  0  0  0
  -19.5750  -26.6375   21.5215 C   0  0  0  0  0  0
  -18.1920  -26.7920   22.1624 C   0  0  0  0  0  0
  -19.1521  -28.8832   23.2889 C   0  0  0  0  0  0
  -18.9460  -30.1438   23.8903 C   0  0  0  0  0  0
  -17.6468  -30.6585   24.0558 C   0  0  0  0  0  0
  -25.9018  -34.9483   23.5128 C   0  0  0  0  0  0
  -16.5347  -29.9094   23.6332 C   0  0  0  0  0  0
  -16.7259  -28.6508   23.0348 C   0  0  0  0  0  0
  -26.4433  -31.6619   25.0735 C   0  0  0  0  0  0
  -25.3711  -31.3758   26.1501 C   0  0  0  0  0  0
  -27.0282  -30.3065   24.6126 C   0  0  0  0  0  0
  -27.5987  -32.4377   25.7505 C   0  0  0  0  0  0
  -27.5575  -37.1811   24.8460 C   0  0  0  0  0  0
  -21.4118  -29.3019   22.3720 N   0  0  0  0  0  0
  -26.4287  -37.3803   23.9400 N   0  0  0  0  0  0
  -24.6600  -31.0826   22.0991 N   0  0  0  0  0  0
  -23.4172  -28.8213   23.3035 O   0  0  0  0  0  0
  -28.4114  -26.7091   20.0556 O   0  0  0  0  0  0
  -26.5595  -34.8932   22.4698 O   0  0  0  0  0  0
  -23.5284  -32.1431   23.7513 O   0  0  0  0  0  0
  -30.9702  -21.1116   21.0648 C   0  0  0  0  0  0
  -31.1554  -20.5665   18.3798 C   0  0  0  0  0  0
  -31.2895  -22.1691   20.1852 C   0  0  0  0  0  0
  -31.3911  -21.8860   18.8099 C   0  0  0  0  0  0
  -30.7786  -19.8161   20.5440 C   0  0  0  0  0  0
  -30.6269  -16.3431   22.1201 C   0  0  0  0  0  0
  -29.6950  -16.6348   20.2998 C   0  0  0  0  0  0
  -30.8092  -17.3852   21.0193 C   0  0  0  0  0  0
  -31.5163  -23.5842   20.6961 C   0  0  0  0  0  0
  -30.4201  -25.7829   21.1173 C   0  0  0  0  0  0
  -29.0772  -26.5164   21.3075 C   0  0  0  0  0  0
  -30.8601  -19.5497   19.2231 N   0  0  0  0  0  0
  -30.0358  -15.4470   21.1106 N   0  0  0  0  0  0
  -30.4903  -18.7572   21.4138 N   0  0  0  0  0  0
  -30.2659  -24.3756   20.6663 N   0  3  0  0  0  0
  -31.7051  -22.8604   17.9216 F   0  0  0  0  0  0
  -31.4627  -12.3476   19.1218 H   0  0  0  0  0  0
  -30.2798  -11.2589   19.7897 H   0  0  0  0  0  0
  -29.7248  -11.8195   17.3959 H   0  0  0  0  0  0
  -29.6949  -13.5167   17.7939 H   0  0  0  0  0  0
  -27.7780  -11.3571   18.7392 H   0  0  0  0  0  0
  -27.3843  -12.7536   17.7719 H   0  0  0  0  0  0
  -27.7153  -14.2700   19.6119 H   0  0  0  0  0  0
  -28.6666  -11.9390   21.3334 H   0  0  0  0  0  0
  -28.4881  -13.5800   21.8777 H   0  0  0  0  0  0
  -25.2789   -9.5706   22.4724 H   0  0  0  0  0  0
  -24.0031   -7.4646   22.7461 H   0  0  0  0  0  0
  -21.0847   -8.8757   19.8953 H   0  0  0  0  0  0
  -22.3686  -10.9668   19.6131 H   0  0  0  0  0  0
  -21.2029   -7.6139   23.9701 H   0  0  0  0  0  0
  -21.1498   -6.0519   25.9062 H   0  0  0  0  0  0
  -22.0599   -2.7606   23.2834 H   0  0  0  0  0  0
  -22.4163  -11.9904   22.4804 H   0  0  0  0  0  0
  -21.1127  -13.1218   22.2572 H   0  0  0  0  0  0
  -24.6650  -15.8484   20.5293 H   0  0  0  0  0  0
  -26.2903  -15.6362   20.1234 H   0  0  0  0  0  0
  -26.7076  -32.5566   23.1175 H   0  0  0  0  0  0
  -24.9969  -33.9800   25.0441 H   0  0  0  0  0  0
  -22.6861  -31.3032   21.4028 H   0  0  0  0  0  0
  -23.3735  -35.9671   23.3325 H   0  0  0  0  0  0
  -24.3562  -36.8926   22.2053 H   0  0  0  0  0  0
  -23.7246  -37.6540   23.6650 H   0  0  0  0  0  0
  -26.0348  -31.6132   20.5988 H   0  0  0  0  0  0
  -26.8080  -30.8966   21.9852 H   0  0  0  0  0  0
  -28.0916  -29.1789   21.1588 H   0  0  0  0  0  0
  -26.1219  -25.9866   19.0146 H   0  0  0  0  0  0
  -24.0085  -27.2804   19.0347 H   0  0  0  0  0  0
  -23.7137  -30.5846   19.4003 H   0  0  0  0  0  0
  -22.7404  -29.2261   19.8707 H   0  0  0  0  0  0
  -25.1271  -36.1979   25.0841 H   0  0  0  0  0  0
  -20.9927  -28.3227   24.1445 H   0  0  0  0  0  0
  -20.5653  -26.2270   23.3610 H   0  0  0  0  0  0
  -21.6622  -26.7430   22.1223 H   0  0  0  0  0  0
  -19.6903  -25.6283   21.1252 H   0  0  0  0  0  0
  -19.6696  -27.3175   20.6740 H   0  0  0  0  0  0
  -17.4179  -26.6656   21.4029 H   0  0  0  0  0  0
  -18.0325  -26.0063   22.9034 H   0  0  0  0  0  0
  -19.7939  -30.7244   24.2277 H   0  0  0  0  0  0
  -17.5032  -31.6280   24.5152 H   0  0  0  0  0  0
  -15.5355  -30.3006   23.7662 H   0  0  0  0  0  0
  -15.8649  -28.0836   22.7067 H   0  0  0  0  0  0
  -24.5805  -30.7200   25.7843 H   0  0  0  0  0  0
  -24.9003  -32.2947   26.5011 H   0  0  0  0  0  0
  -25.8056  -30.8858   27.0220 H   0  0  0  0  0  0
  -26.2850  -29.6845   24.1124 H   0  0  0  0  0  0
  -27.3977  -29.7287   25.4605 H   0  0  0  0  0  0
  -27.8716  -30.4389   23.9346 H   0  0  0  0  0  0
  -27.2537  -33.3630   26.2133 H   0  0  0  0  0  0
  -28.3759  -32.7031   25.0332 H   0  0  0  0  0  0
  -28.0695  -31.8500   26.5386 H   0  0  0  0  0  0
  -28.2587  -38.0111   24.7489 H   0  0  0  0  0  0
  -28.1072  -36.2635   24.6293 H   0  0  0  0  0  0
  -27.2291  -37.1469   25.8865 H   0  0  0  0  0  0
  -20.9289  -29.8718   21.6914 H   0  0  0  0  0  0
  -26.0177  -38.2880   24.1421 H   0  0  0  0  0  0
  -30.8960  -21.2968   22.1275 H   0  0  0  0  0  0
  -31.2062  -20.3228   17.3287 H   0  0  0  0  0  0
  -29.9164  -16.6186   22.9022 H   0  0  0  0  0  0
  -31.5696  -16.0000   22.5527 H   0  0  0  0  0  0
  -29.8651  -16.5392   19.2255 H   0  0  0  0  0  0
  -28.6926  -17.0158   20.4984 H   0  0  0  0  0  0
  -31.7741  -17.2939   20.5168 H   0  0  0  0  0  0
  -32.2817  -24.0718   20.0904 H   0  0  0  0  0  0
  -31.9089  -23.5393   21.7123 H   0  0  0  0  0  0
  -30.9492  -25.7870   22.0719 H   0  0  0  0  0  0
  -31.0435  -26.3332   20.4120 H   0  0  0  0  0  0
  -29.2855  -27.4686   21.7915 H   0  0  0  0  0  0
  -28.4282  -25.9569   21.9840 H   0  0  0  0  0  0
  -30.5306  -18.9667   22.4029 H   0  0  0  0  0  0
  -29.5927  -23.9006   21.2447 H   0  0  0  0  0  0
  -29.9146  -24.3734   19.7209 H   0  0  0  0  0  0
  1 25  1  0  0  0
  1 30  2  0  0  0
  1 83  1  0  0  0
  2  3  1  0  0  0
  2 25  1  0  0  0
  2 87  1  0  0  0
  2 88  1  0  0  0
  3  4  1  0  0  0
  3 89  1  0  0  0
  3 90  1  0  0  0
  4  5  1  0  0  0
  4 91  1  0  0  0
  4 92  1  0  0  0
  5  6  1  0  0  0
  5 26  1  0  0  0
  5 93  1  0  0  0
  6 25  1  0  0  0
  6 94  1  0  0  0
  6 95  1  0  0  0
  7  8  2  0  0  0
  7 26  1  0  0  0
  7 29  1  0  0  0
  8  9  1  0  0  0
  8 22  1  0  0  0
  9 10  1  0  0  0
  9 27  2  0  0  0
 10 11  2  0  0  0
 10 15  1  0  0  0
 11 12  1  0  0  0
 11 96  1  0  0  0
 12 13  2  0  0  0
 12 97  1  0  0  0
 13 14  1  0  0  0
 13 31  1  0  0  0
 14 15  2  0  0  0
 14 98  1  0  0  0
 15 99  1  0  0  0
 16 17  2  0  0  0
 16 21  1  0  0  0
 16 31  1  0  0  0
 17 18  1  0  0  0
 17100  1  0  0  0
 18 19  2  0  0  0
 18101  1  0  0  0
 19 20  1  0  0  0
 19 24  1  0  0  0
 20 21  2  0  0  0
 20102  1  0  0  0
 21 23  1  0  0  0
 22 28  1  0  0  0
 22 32  2  0  0  0
 26 27  1  0  0  0
 28103  1  0  0  0
 28104  1  0  0  0
 29105  1  0  0  0
 29106  1  0  0  0
 33 34  1  0  0  0
 33 66  1  0  0  0
 33 70  2  0  0  0
 34 36  1  0  0  0
 34 59  1  0  0  0
 34107  1  0  0  0
 35 44  2  0  0  0
 35 45  1  0  0  0
 35 68  1  0  0  0
 36 56  1  0  0  0
 36108  1  0  0  0
 37 39  1  0  0  0
 37 47  1  0  0  0
 37 66  1  0  0  0
 37109  1  0  0  0
 38 43  2  0  0  0
 38 46  1  0  0  0
 38 47  1  0  0  0
 39 64  1  0  0  0
 39 67  2  0  0  0
 40 52  1  0  0  0
 40 53  2  0  0  0
 40 58  1  0  0  0
 41110  1  0  0  0
 41111  1  0  0  0
 41112  1  0  0  0
 41 48  1  0  0  0
 42 43  1  0  0  0
 42 66  1  0  0  0
 42113  1  0  0  0
 42114  1  0  0  0
 43 44  1  0  0  0
 44115  1  0  0  0
 45 46  2  0  0  0
 45116  1  0  0  0
 46117  1  0  0  0
 47118  1  0  0  0
 47119  1  0  0  0
 48 56  1  0  0  0
 48 65  1  0  0  0
 48120  1  0  0  0
 49 50  1  0  0  0
 49 53  1  0  0  0
 49 64  1  0  0  0
 49121  1  0  0  0
 50 51  1  0  0  0
 50122  1  0  0  0
 50123  1  0  0  0
 51 52  1  0  0  0
 51124  1  0  0  0
 51125  1  0  0  0
 52126  1  0  0  0
 52127  1  0  0  0
 53 54  1  0  0  0
 54 55  2  0  0  0
 54128  1  0  0  0
 55 57  1  0  0  0
 55129  1  0  0  0
 56 69  2  0  0  0
 57 58  2  0  0  0
 57130  1  0  0  0
 58131  1  0  0  0
 59 60  1  0  0  0
 59 61  1  0  0  0
 59 62  1  0  0  0
 60132  1  0  0  0
 60133  1  0  0  0
 60134  1  0  0  0
 61135  1  0  0  0
 61136  1  0  0  0
 61137  1  0  0  0
 62138  1  0  0  0
 62139  1  0  0  0
 62140  1  0  0  0
 63 65  1  0  0  0
 63141  1  0  0  0
 63142  1  0  0  0
 63143  1  0  0  0
 64144  1  0  0  0
 65145  1  0  0  0
 68 81  1  0  0  0
 71 73  2  0  0  0
 71 75  1  0  0  0
 71146  1  0  0  0
 72 74  2  0  0  0
 72 82  1  0  0  0
 72147  1  0  0  0
 73 74  1  0  0  0
 73 79  1  0  0  0
 74 86  1  0  0  0
 75 82  2  0  0  0
 75 84  1  0  0  0
 76 78  1  0  0  0
 76 83  1  0  0  0
 76148  1  0  0  0
 76149  1  0  0  0
 77 78  1  0  0  0
 77 83  1  0  0  0
 77150  1  0  0  0
 77151  1  0  0  0
 78 84  1  0  0  0
 78152  1  0  0  0
 79 85  1  0  0  0
 79153  1  0  0  0
 79154  1  0  0  0
 80 81  1  0  0  0
 80 85  1  0  0  0
 80155  1  0  0  0
 80156  1  0  0  0
 81157  1  0  0  0
 81158  1  0  0  0
 84159  1  0  0  0
 85160  1  0  0  0
 85161  1  0  0  0
M  CHG  1  85   1
M  ISO  4   1 100  68 101  81 101  83 100
M  END
> <chiral flag>
0

> <version>
0

> <s_m_source_file>
/data/baiqing/PycharmProjects/Reinvent-master-3.2/result/LINK_invent/BTK/process_docking_weight1_custom_sum_contain_oxygen_bond_distance_aromatic_linkinvent_7_9_3/rearranged_h_0188.sdf

> <i_m_source_file_index>
12

> <r_mmod_Potential_Energy-OPLS-2005>
-404.300872802734

> <r_mmod_Stretch_Energy-OPLS-2005>
34.9816932678223

> <r_mmod_Bend_Energy-OPLS-2005>
102.556793212891

> <r_mmod_Torsional_Energy-OPLS-2005>
258.987274169922

> <r_mmod_Improper_Torsional_Energy-OPLS-2005>
13.05078125

> <r_mmod_Van_der_Waal_Energy-OPLS-2005>
157.921661376953

> <r_mmod_Electrostatic_Energy-OPLS-2005>
-498.840789794922

> <r_mmod_Solvation_Energy-OPLS-2005>
-482.1015625

> <b_mmod_Minimization_Converged-OPLS-2005>
0

> <r_mmod_RMS_Derivative-OPLS-2005>
3.11419939994812

$$$$
12
                    3D
 Structure written by MMmdl.
159168  0  0  1  0            999 V2000
  -30.5285  -15.3052   20.4358 C   0  0  0  0  0  0
  -30.4374  -12.8577   19.5306 C   0  0  0  0  0  0
  -29.5363  -12.6013   18.2954 C   0  0  0  0  0  0
  -28.0931  -12.3063   18.7294 C   0  0  0  0  0  0
  -27.6177  -13.2849   19.8289 C   0  0  2  0  0  0
  -28.6555  -13.4940   20.9527 C   0  0  0  0  0  0
  -25.2471  -13.8276   20.5783 C   0  0  0  0  0  0
  -24.1813  -13.0456   20.9242 C   0  0  0  0  0  0
  -24.6479  -11.6942   20.8771 C   0  0  0  0  0  0
  -23.9165  -10.4314   21.0401 C   0  0  0  0  0  0
  -24.3685   -9.4228   21.9198 C   0  0  0  0  0  0
  -23.6326   -8.2274   22.0754 C   0  0  0  0  0  0
  -22.4313   -8.0320   21.3527 C   0  0  0  0  0  0
  -21.9980   -9.0311   20.4632 C   0  0  0  0  0  0
  -22.7338  -10.2176   20.3051 C   0  0  0  0  0  0
  -21.6864   -6.0758   22.5262 C   0  0  0  0  0  0
  -21.4031   -6.5643   23.8197 C   0  0  0  0  0  0
  -21.3659   -5.6795   24.9152 C   0  0  0  0  0  0
  -21.6038   -4.3055   24.7216 C   0  0  0  0  0  0
  -21.8822   -3.8152   23.4326 C   0  0  0  0  0  0
  -21.9206   -4.6983   22.3379 C   0  0  0  0  0  0
  -22.7813  -13.5197   21.1870 C   0  0  0  0  0  0
  -22.1664   -4.2157   21.0968 F   0  0  0  0  0  0
  -21.5622   -3.4549   25.7727 F   0  0  0  0  0  0
  -29.8872  -14.0225   20.3336 N   0  0  0  0  0  0
  -26.2907  -12.9562   20.3287 N   0  0  0  0  0  0
  -25.9431  -11.6650   20.5761 N   0  0  0  0  0  0
  -22.0461  -12.8176   22.0412 N   0  0  0  0  0  0
  -25.4124  -15.2025   20.4244 N   0  0  0  0  0  0
  -31.7372  -15.2016   20.1822 O   0  0  0  0  0  0
  -21.6653   -6.8934   21.4243 O   0  0  0  0  0  0
  -22.3500  -14.5524   20.6723 O   0  0  0  0  0  0
  -24.6689  -31.8173   23.1638 C   0  0  0  0  0  0
  -25.9320  -32.4546   23.8140 C   0  0  1  0  0  0
  -27.2257  -26.8801   20.2046 C   0  0  0  0  0  0
  -25.6004  -33.8385   24.2036 N   0  0  0  0  0  0
  -23.4858  -30.4203   21.5188 C   0  0  2  0  0  0
  -24.9416  -28.8026   20.1175 C   0  0  0  0  0  0
  -22.7704  -29.4339   22.4808 C   0  0  0  0  0  0
  -18.0315  -28.1404   22.8423 C   0  0  0  0  0  0
  -24.1482  -36.7169   23.2629 C   0  0  0  0  0  0
  -26.0566  -30.6129   21.3947 C   0  0  0  0  0  0
  -26.1264  -29.1952   20.7503 C   0  0  0  0  0  0
  -27.2594  -28.2542   20.7721 C   0  0  0  0  0  0
  -26.0073  -26.6490   19.5267 C   0  0  0  0  0  0
  -24.9096  -27.5489   19.4843 C   0  0  0  0  0  0
  -23.7222  -29.7276   20.1501 C   0  0  0  0  0  0
  -25.4093  -36.2940   24.0305 C   0  0  1  0  0  0
  -20.5911  -28.3705   23.1212 C   0  0  2  0  0  0
  -20.6788  -26.9379   22.5444 C   0  0  0  0  0  0
  -19.5782  -26.6344   21.5241 C   0  0  0  0  0  0
  -18.1933  -26.7922   22.1608 C   0  0  0  0  0  0
  -19.1563  -28.8887   23.2795 C   0  0  0  0  0  0
  -18.9500  -30.1481   23.8819 C   0  0  0  0  0  0
  -17.6494  -30.6585   24.0520 C   0  0  0  0  0  0
  -25.9128  -34.9340   23.4993 C   0  0  0  0  0  0
  -16.5373  -29.9037   23.6382 C   0  0  0  0  0  0
  -16.7301  -28.6481   23.0348 C   0  0  0  0  0  0
  -26.4546  -31.6518   25.0707 C   0  0  0  0  0  0
  -25.3670  -31.3811   26.1387 C   0  0  0  0  0  0
  -27.0395  -30.2868   24.6429 C   0  0  0  0  0  0
  -27.6071  -32.4301   25.7456 C   0  0  0  0  0  0
  -27.5583  -37.1614   24.8393 C   0  0  0  0  0  0
  -21.4366  -29.2985   22.3588 N   0  0  0  0  0  0
  -26.4170  -37.3729   23.9544 N   0  0  0  0  0  0
  -24.7589  -30.9742   22.0817 N   0  0  0  0  0  0
  -23.4248  -28.7934   23.3072 O   0  0  0  0  0  0
  -28.2178  -25.7477   20.2786 O   0  0  0  0  0  0
  -26.5751  -34.8909   22.4607 O   0  0  0  0  0  0
  -23.5741  -32.1175   23.6682 O   0  0  0  0  0  0
  -28.6017  -21.4302   21.2734 C   0  0  0  0  0  0
  -29.2743  -21.9078   19.1177 C   0  0  0  0  0  0
  -29.0450  -19.9947   21.0857 C   0  0  0  0  0  0
  -28.6823  -22.5480   20.2794 C   0  0  0  0  0  0
  -29.5821  -19.5405   19.8736 C   0  0  0  0  0  0
  -28.8789  -18.7752   22.0582 C   0  0  0  0  0  0
  -29.9630  -17.9263   19.5562 C   0  0  1  0  0  0
  -29.8331  -17.4342   21.9315 C   0  0  0  0  0  0
  -31.2841  -17.9180   18.7528 C   0  0  0  0  0  0
  -31.2650  -17.8464   22.3833 C   0  0  0  0  0  0
  -29.3496  -16.4607   23.0348 C   0  0  0  0  0  0
  -27.8553  -24.1213   20.2767 C   0  0  0  0  0  0
  -29.6643  -20.5594   18.9305 N   0  0  0  0  0  0
  -29.9157  -16.6783   20.5841 N   0  0  0  0  0  0
  -31.4532  -13.0473   19.1820 H   0  0  0  0  0  0
  -30.5129  -11.9631   20.1496 H   0  0  0  0  0  0
  -29.9289  -11.7722   17.7027 H   0  0  0  0  0  0
  -29.5502  -13.4795   17.6479 H   0  0  0  0  0  0
  -28.0655  -11.2856   19.1195 H   0  0  0  0  0  0
  -27.4163  -12.3272   17.8735 H   0  0  0  0  0  0
  -27.5226  -14.2492   19.3267 H   0  0  0  0  0  0
  -28.8387  -12.5828   21.5205 H   0  0  0  0  0  0
  -28.2461  -14.2050   21.6568 H   0  0  0  0  0  0
  -25.2807   -9.5680   22.4794 H   0  0  0  0  0  0
  -23.9980   -7.4691   22.7526 H   0  0  0  0  0  0
  -21.0880   -8.8920   19.8946 H   0  0  0  0  0  0
  -22.3841  -10.9758   19.6172 H   0  0  0  0  0  0
  -21.2011   -7.6151   23.9709 H   0  0  0  0  0  0
  -21.1463   -6.0503   25.9055 H   0  0  0  0  0  0
  -22.0598   -2.7616   23.2822 H   0  0  0  0  0  0
  -22.4063  -11.9824   22.4753 H   0  0  0  0  0  0
  -21.1074  -13.1225   22.2618 H   0  0  0  0  0  0
  -24.6451  -15.8537   20.5465 H   0  0  0  0  0  0
  -26.2679  -15.6544   20.1295 H   0  0  0  0  0  0
  -26.7374  -32.5072   23.0845 H   0  0  0  0  0  0
  -25.0116  -33.9465   25.0153 H   0  0  0  0  0  0
  -22.8014  -31.2501   21.3375 H   0  0  0  0  0  0
  -23.3847  -35.9392   23.3022 H   0  0  0  0  0  0
  -24.3644  -36.9128   22.2119 H   0  0  0  0  0  0
  -23.7081  -37.6204   23.6871 H   0  0  0  0  0  0
  -26.2284  -31.3407   20.6031 H   0  0  0  0  0  0
  -26.9223  -30.6832   22.0413 H   0  0  0  0  0  0
  -28.1509  -28.5500   21.3045 H   0  0  0  0  0  0
  -25.8570  -25.6937   19.0486 H   0  0  0  0  0  0
  -24.0098  -27.2344   18.9769 H   0  0  0  0  0  0
  -23.8656  -30.4918   19.3859 H   0  0  0  0  0  0
  -22.8376  -29.1706   19.8357 H   0  0  0  0  0  0
  -25.1210  -36.1673   25.0766 H   0  0  0  0  0  0
  -20.9975  -28.3301   24.1358 H   0  0  0  0  0  0
  -20.5723  -26.2272   23.3655 H   0  0  0  0  0  0
  -21.6620  -26.7406   22.1183 H   0  0  0  0  0  0
  -19.6973  -25.6270   21.1241 H   0  0  0  0  0  0
  -19.6743  -27.3175   20.6782 H   0  0  0  0  0  0
  -17.4204  -26.6680   21.3986 H   0  0  0  0  0  0
  -18.0300  -26.0085   22.9033 H   0  0  0  0  0  0
  -19.7992  -30.7299   24.2125 H   0  0  0  0  0  0
  -17.5047  -31.6273   24.5131 H   0  0  0  0  0  0
  -15.5366  -30.2906   23.7769 H   0  0  0  0  0  0
  -15.8686  -28.0785   22.7092 H   0  0  0  0  0  0
  -24.5916  -30.7060   25.7698 H   0  0  0  0  0  0
  -24.8791  -32.3018   26.4637 H   0  0  0  0  0  0
  -25.7898  -30.9143   27.0297 H   0  0  0  0  0  0
  -26.3064  -29.6543   24.1416 H   0  0  0  0  0  0
  -27.3872  -29.7248   25.5096 H   0  0  0  0  0  0
  -27.9001  -30.4001   23.9834 H   0  0  0  0  0  0
  -27.2803  -33.3824   26.1650 H   0  0  0  0  0  0
  -28.4053  -32.6472   25.0333 H   0  0  0  0  0  0
  -28.0486  -31.8648   26.5691 H   0  0  0  0  0  0
  -28.2216  -38.0248   24.7953 H   0  0  0  0  0  0
  -28.1433  -36.2853   24.5528 H   0  0  0  0  0  0
  -27.2439  -37.0399   25.8774 H   0  0  0  0  0  0
  -20.9674  -29.8688   21.6682 H   0  0  0  0  0  0
  -25.9985  -38.2694   24.1929 H   0  0  0  0  0  0
  -28.1216  -21.6627   22.2148 H   0  0  0  0  0  0
  -29.3833  -22.5083   18.2246 H   0  0  0  0  0  0
  -27.8400  -18.4606   21.9577 H   0  0  0  0  0  0
  -28.9578  -19.1712   23.0725 H   0  0  0  0  0  0
  -29.1941  -17.6500   18.8327 H   0  0  0  0  0  0
  -32.1209  -18.2688   19.3581 H   0  0  0  0  0  0
  -31.2160  -18.5723   17.8798 H   0  0  0  0  0  0
  -31.5320  -16.9330   18.3595 H   0  0  0  0  0  0
  -31.2756  -18.1307   23.4403 H   0  0  0  0  0  0
  -31.6548  -18.6982   21.8244 H   0  0  0  0  0  0
  -31.9936  -17.0376   22.2807 H   0  0  0  0  0  0
  -29.0546  -16.9927   23.9394 H   0  0  0  0  0  0
  -30.1218  -15.7452   23.3322 H   0  0  0  0  0  0
  -28.4687  -15.9108   22.7339 H   0  0  0  0  0  0
  -27.1237  -24.0133   21.0778 H   0  0  0  0  0  0
  -27.2584  -24.0231   19.3701 H   0  0  0  0  0  0
  1 25  1  0  0  0
  1 30  2  0  0  0
  1 84  1  0  0  0
  2  3  1  0  0  0
  2 25  1  0  0  0
  2 85  1  0  0  0
  2 86  1  0  0  0
  3  4  1  0  0  0
  3 87  1  0  0  0
  3 88  1  0  0  0
  4  5  1  0  0  0
  4 89  1  0  0  0
  4 90  1  0  0  0
  5  6  1  0  0  0
  5 26  1  0  0  0
  5 91  1  0  0  0
  6 25  1  0  0  0
  6 92  1  0  0  0
  6 93  1  0  0  0
  7  8  2  0  0  0
  7 26  1  0  0  0
  7 29  1  0  0  0
  8  9  1  0  0  0
  8 22  1  0  0  0
  9 10  1  0  0  0
  9 27  2  0  0  0
 10 11  2  0  0  0
 10 15  1  0  0  0
 11 12  1  0  0  0
 11 94  1  0  0  0
 12 13  2  0  0  0
 12 95  1  0  0  0
 13 14  1  0  0  0
 13 31  1  0  0  0
 14 15  2  0  0  0
 14 96  1  0  0  0
 15 97  1  0  0  0
 16 17  2  0  0  0
 16 21  1  0  0  0
 16 31  1  0  0  0
 17 18  1  0  0  0
 17 98  1  0  0  0
 18 19  2  0  0  0
 18 99  1  0  0  0
 19 20  1  0  0  0
 19 24  1  0  0  0
 20 21  2  0  0  0
 20100  1  0  0  0
 21 23  1  0  0  0
 22 28  1  0  0  0
 22 32  2  0  0  0
 26 27  1  0  0  0
 28101  1  0  0  0
 28102  1  0  0  0
 29103  1  0  0  0
 29104  1  0  0  0
 33 34  1  0  0  0
 33 66  1  0  0  0
 33 70  2  0  0  0
 34 36  1  0  0  0
 34 59  1  0  0  0
 34105  1  0  0  0
 35 44  2  0  0  0
 35 45  1  0  0  0
 35 68  1  0  0  0
 36 56  1  0  0  0
 36106  1  0  0  0
 37 39  1  0  0  0
 37 47  1  0  0  0
 37 66  1  0  0  0
 37107  1  0  0  0
 38 43  2  0  0  0
 38 46  1  0  0  0
 38 47  1  0  0  0
 39 64  1  0  0  0
 39 67  2  0  0  0
 40 52  1  0  0  0
 40 53  2  0  0  0
 40 58  1  0  0  0
 41108  1  0  0  0
 41109  1  0  0  0
 41110  1  0  0  0
 41 48  1  0  0  0
 42 43  1  0  0  0
 42 66  1  0  0  0
 42111  1  0  0  0
 42112  1  0  0  0
 43 44  1  0  0  0
 44113  1  0  0  0
 45 46  2  0  0  0
 45114  1  0  0  0
 46115  1  0  0  0
 47116  1  0  0  0
 47117  1  0  0  0
 48 56  1  0  0  0
 48 65  1  0  0  0
 48118  1  0  0  0
 49 50  1  0  0  0
 49 53  1  0  0  0
 49 64  1  0  0  0
 49119  1  0  0  0
 50 51  1  0  0  0
 50120  1  0  0  0
 50121  1  0  0  0
 51 52  1  0  0  0
 51122  1  0  0  0
 51123  1  0  0  0
 52124  1  0  0  0
 52125  1  0  0  0
 53 54  1  0  0  0
 54 55  2  0  0  0
 54126  1  0  0  0
 55 57  1  0  0  0
 55127  1  0  0  0
 56 69  2  0  0  0
 57 58  2  0  0  0
 57128  1  0  0  0
 58129  1  0  0  0
 59 60  1  0  0  0
 59 61  1  0  0  0
 59 62  1  0  0  0
 60130  1  0  0  0
 60131  1  0  0  0
 60132  1  0  0  0
 61133  1  0  0  0
 61134  1  0  0  0
 61135  1  0  0  0
 62136  1  0  0  0
 62137  1  0  0  0
 62138  1  0  0  0
 63 65  1  0  0  0
 63139  1  0  0  0
 63140  1  0  0  0
 63141  1  0  0  0
 64142  1  0  0  0
 65143  1  0  0  0
 68 82  1  0  0  0
 71 73  2  0  0  0
 71 74  1  0  0  0
 71144  1  0  0  0
 72 74  2  0  0  0
 72 83  1  0  0  0
 72145  1  0  0  0
 73 75  1  0  0  0
 73 76  1  0  0  0
 74 82  1  0  0  0
 75 77  1  0  0  0
 75 83  2  0  0  0
 76 78  1  0  0  0
 76146  1  0  0  0
 76147  1  0  0  0
 77 79  1  0  0  0
 77 84  1  0  0  0
 77148  1  0  0  0
 78 80  1  0  0  0
 78 81  1  0  0  0
 78 84  1  0  0  0
 79149  1  0  0  0
 79150  1  0  0  0
 79151  1  0  0  0
 80152  1  0  0  0
 80153  1  0  0  0
 80154  1  0  0  0
 81155  1  0  0  0
 81156  1  0  0  0
 81157  1  0  0  0
 82158  1  0  0  0
 82159  1  0  0  0
M  ISO  4   1 100  68 101  82 101  84 100
M  END
> <chiral flag>
0

> <version>
0

> <s_m_source_file>
/data/baiqing/PycharmProjects/Reinvent-master-3.2/result/LINK_invent/BTK/process_docking_weight1_custom_sum_contain_oxygen_bond_distance_aromatic_linkinvent_7_9_3/rearranged_h_0188.sdf

> <i_m_source_file_index>
13

> <r_mmod_Potential_Energy-OPLS-2005>
1359.25134277344

> <r_mmod_Stretch_Energy-OPLS-2005>
563.04150390625

> <r_mmod_Bend_Energy-OPLS-2005>
469.658782958984

> <r_mmod_Torsional_Energy-OPLS-2005>
330.259552001953

> <r_mmod_Improper_Torsional_Energy-OPLS-2005>
11.9861822128296

> <r_mmod_Van_der_Waal_Energy-OPLS-2005>
137.347793579102

> <r_mmod_Electrostatic_Energy-OPLS-2005>
-454.649078369141

> <r_mmod_Solvation_Energy-OPLS-2005>
-202.292114257812

> <b_mmod_Minimization_Converged-OPLS-2005>
0

> <r_mmod_RMS_Derivative-OPLS-2005>
6.83158016204834

$$$$
13
                    3D
 Structure written by MMmdl.
164174  0  0  1  0            999 V2000
  -30.8104  -14.5846   20.5041 C   0  0  0  0  0  0
  -30.3817  -12.3914   19.4398 C   0  0  0  0  0  0
  -29.4721  -12.4879   18.2057 C   0  0  0  0  0  0
  -28.0085  -12.3234   18.6426 C   0  0  0  0  0  0
  -27.6344  -13.2382   19.8424 C   0  0  2  0  0  0
  -28.6934  -13.2000   20.9653 C   0  0  0  0  0  0
  -25.2501  -13.8214   20.5759 C   0  0  0  0  0  0
  -24.1795  -13.0449   20.9234 C   0  0  0  0  0  0
  -24.6402  -11.6930   20.8771 C   0  0  0  0  0  0
  -23.9077  -10.4312   21.0417 C   0  0  0  0  0  0
  -24.3625   -9.4231   21.9203 C   0  0  0  0  0  0
  -23.6306   -8.2256   22.0750 C   0  0  0  0  0  0
  -22.4288   -8.0288   21.3537 C   0  0  0  0  0  0
  -21.9921   -9.0262   20.4642 C   0  0  0  0  0  0
  -22.7241  -10.2159   20.3072 C   0  0  0  0  0  0
  -21.6862   -6.0751   22.5281 C   0  0  0  0  0  0
  -21.4014   -6.5659   23.8213 C   0  0  0  0  0  0
  -21.3667   -5.6805   24.9183 C   0  0  0  0  0  0
  -21.6039   -4.3062   24.7231 C   0  0  0  0  0  0
  -21.8819   -3.8161   23.4352 C   0  0  0  0  0  0
  -21.9195   -4.6976   22.3413 C   0  0  0  0  0  0
  -22.7822  -13.5230   21.1892 C   0  0  0  0  0  0
  -22.1672   -4.2148   21.0994 F   0  0  0  0  0  0
  -21.5617   -3.4559   25.7754 F   0  0  0  0  0  0
  -29.9872  -13.4964   20.3425 N   0  0  0  0  0  0
  -26.2928  -12.9443   20.3347 N   0  0  0  0  0  0
  -25.9333  -11.6572   20.5790 N   0  0  0  0  0  0
  -22.0481  -12.8189   22.0431 N   0  0  0  0  0  0
  -25.4217  -15.1926   20.4186 N   0  0  0  0  0  0
  -32.0123  -14.4075   20.3170 O   0  0  0  0  0  0
  -21.6645   -6.8890   21.4241 O   0  0  0  0  0  0
  -22.3515  -14.5550   20.6756 O   0  0  0  0  0  0
  -24.6228  -31.8651   23.2090 C   0  0  0  0  0  0
  -25.9085  -32.4797   23.8392 C   0  0  1  0  0  0
  -27.2150  -27.3621   20.0793 C   0  0  0  0  0  0
  -25.5920  -33.8603   24.2300 N   0  0  0  0  0  0
  -23.4113  -30.4922   21.5517 C   0  0  2  0  0  0
  -24.8524  -28.9628   20.1038 C   0  0  0  0  0  0
  -22.7434  -29.4665   22.4986 C   0  0  0  0  0  0
  -18.0271  -28.1351   22.8511 C   0  0  0  0  0  0
  -24.1493  -36.7289   23.2633 C   0  0  0  0  0  0
  -25.9510  -30.8031   21.3787 C   0  0  0  0  0  0
  -26.0222  -29.4391   20.7101 C   0  0  0  0  0  0
  -27.2012  -28.6428   20.7038 C   0  0  0  0  0  0
  -26.0187  -26.9282   19.4674 C   0  0  0  0  0  0
  -24.8501  -27.7078   19.4807 C   0  0  0  0  0  0
  -23.6185  -29.8345   20.1641 C   0  0  0  0  0  0
  -25.4119  -36.3093   24.0329 C   0  0  1  0  0  0
  -20.5866  -28.3672   23.1322 C   0  0  2  0  0  0
  -20.6767  -26.9404   22.5421 C   0  0  0  0  0  0
  -19.5753  -26.6407   21.5208 C   0  0  0  0  0  0
  -18.1929  -26.7898   22.1630 C   0  0  0  0  0  0
  -19.1524  -28.8832   23.2905 C   0  0  0  0  0  0
  -18.9435  -30.1443   23.8905 C   0  0  0  0  0  0
  -17.6436  -30.6572   24.0548 C   0  0  0  0  0  0
  -25.9058  -34.9467   23.5114 C   0  0  0  0  0  0
  -16.5333  -29.9069   23.6309 C   0  0  0  0  0  0
  -16.7258  -28.6470   23.0358 C   0  0  0  0  0  0
  -26.4489  -31.6591   25.0741 C   0  0  0  0  0  0
  -25.3723  -31.3721   26.1465 C   0  0  0  0  0  0
  -27.0320  -30.3019   24.6181 C   0  0  0  0  0  0
  -27.6064  -32.4331   25.7492 C   0  0  0  0  0  0
  -27.5576  -37.1801   24.8464 C   0  0  0  0  0  0
  -21.4155  -29.3048   22.3723 N   0  0  0  0  0  0
  -26.4294  -37.3783   23.9404 N   0  0  0  0  0  0
  -24.6792  -31.0706   22.1015 N   0  0  0  0  0  0
  -23.4202  -28.8197   23.3019 O   0  0  0  0  0  0
  -28.3020  -26.4946   20.1861 O   0  0  0  0  0  0
  -26.5630  -34.8906   22.4682 O   0  0  0  0  0  0
  -23.5406  -32.1455   23.7441 O   0  0  0  0  0  0
  -29.4811  -20.6767   19.5268 C   0  0  0  0  0  0
  -28.6659  -20.4122   20.6488 C   0  0  0  0  0  0
  -28.1245  -21.5987   21.2274 C   0  0  0  0  0  0
  -29.1150  -22.9701   19.6508 C   0  0  0  0  0  0
  -31.6278  -17.7707   21.2798 C   0  0  0  0  0  0
  -30.5045  -17.3546   22.2199 C   0  0  0  0  0  0
  -28.0279  -24.8021   18.2114 C   0  0  0  0  0  0
  -31.3886  -16.9202   20.0200 C   0  0  0  0  0  0
  -29.2801  -24.3158   18.9018 C   0  0  1  0  0  0
  -28.8169  -25.8145   19.0099 C   0  0  2  0  0  0
  -29.4812  -16.7058   21.2760 C   0  0  1  0  0  0
  -27.2273  -21.5565   22.4494 C   0  0  0  0  0  0
  -28.6256  -17.8015   20.4906 C   0  0  0  0  0  0
  -29.6823  -21.9243   19.0409 N   0  0  0  0  0  0
  -28.3430  -22.8470   20.7285 N   0  0  0  0  0  0
  -30.3597  -15.8957   20.3795 N   0  0  0  0  0  0
  -28.4063  -19.1043   21.1788 N   0  0  0  0  0  0
  -31.4237  -12.4265   19.1225 H   0  0  0  0  0  0
  -30.2619  -11.4262   19.9339 H   0  0  0  0  0  0
  -29.7347  -11.7199   17.4779 H   0  0  0  0  0  0
  -29.6082  -13.4498   17.7078 H   0  0  0  0  0  0
  -27.8764  -11.2773   18.9196 H   0  0  0  0  0  0
  -27.3373  -12.5005   17.8018 H   0  0  0  0  0  0
  -27.6262  -14.2553   19.4482 H   0  0  0  0  0  0
  -28.7164  -12.2227   21.4508 H   0  0  0  0  0  0
  -28.4538  -13.9211   21.7447 H   0  0  0  0  0  0
  -25.2772   -9.5705   22.4778 H   0  0  0  0  0  0
  -24.0016   -7.4648   22.7459 H   0  0  0  0  0  0
  -21.0859   -8.8799   19.8939 H   0  0  0  0  0  0
  -22.3701  -10.9712   19.6187 H   0  0  0  0  0  0
  -21.2005   -7.6157   23.9717 H   0  0  0  0  0  0
  -21.1487   -6.0541   25.9082 H   0  0  0  0  0  0
  -22.0584   -2.7613   23.2865 H   0  0  0  0  0  0
  -22.4131  -11.9822   22.4729 H   0  0  0  0  0  0
  -21.1111  -13.1203   22.2696 H   0  0  0  0  0  0
  -24.6577  -15.8503   20.5264 H   0  0  0  0  0  0
  -26.2848  -15.6281   20.1172 H   0  0  0  0  0  0
  -26.7142  -32.5476   23.1133 H   0  0  0  0  0  0
  -25.0025  -33.9785   25.0421 H   0  0  0  0  0  0
  -22.6989  -31.3116   21.4193 H   0  0  0  0  0  0
  -23.3754  -35.9622   23.3332 H   0  0  0  0  0  0
  -24.3560  -36.8879   22.2030 H   0  0  0  0  0  0
  -23.7260  -37.6501   23.6645 H   0  0  0  0  0  0
  -26.0886  -31.5775   20.6218 H   0  0  0  0  0  0
  -26.8301  -30.8416   22.0100 H   0  0  0  0  0  0
  -28.0916  -28.9963   21.2053 H   0  0  0  0  0  0
  -25.9284  -25.9578   19.0187 H   0  0  0  0  0  0
  -23.9486  -27.3261   19.0206 H   0  0  0  0  0  0
  -22.7396  -29.2578   19.8729 H   0  0  0  0  0  0
  -23.7199  -30.6137   19.4085 H   0  0  0  0  0  0
  -25.1303  -36.1935   25.0824 H   0  0  0  0  0  0
  -20.9961  -28.3223   24.1439 H   0  0  0  0  0  0
  -20.5671  -26.2294   23.3613 H   0  0  0  0  0  0
  -21.6644  -26.7445   22.1223 H   0  0  0  0  0  0
  -19.6915  -25.6335   21.1188 H   0  0  0  0  0  0
  -19.6665  -27.3275   20.6780 H   0  0  0  0  0  0
  -17.4216  -26.6672   21.4008 H   0  0  0  0  0  0
  -18.0287  -26.0000   22.8984 H   0  0  0  0  0  0
  -19.7903  -30.7273   24.2279 H   0  0  0  0  0  0
  -17.4973  -31.6242   24.5148 H   0  0  0  0  0  0
  -15.5338  -30.2971   23.7608 H   0  0  0  0  0  0
  -15.8650  -28.0767   22.7108 H   0  0  0  0  0  0
  -24.5909  -30.7069   25.7775 H   0  0  0  0  0  0
  -24.8905  -32.2878   26.4895 H   0  0  0  0  0  0
  -25.8047  -30.8881   27.0231 H   0  0  0  0  0  0
  -26.2886  -29.6777   24.1198 H   0  0  0  0  0  0
  -27.3999  -29.7275   25.4689 H   0  0  0  0  0  0
  -27.8778  -30.4309   23.9426 H   0  0  0  0  0  0
  -27.2685  -33.3632   26.2085 H   0  0  0  0  0  0
  -28.3843  -32.6894   25.0286 H   0  0  0  0  0  0
  -28.0759  -31.8443   26.5376 H   0  0  0  0  0  0
  -28.2618  -38.0074   24.7492 H   0  0  0  0  0  0
  -28.1057  -36.2607   24.6341 H   0  0  0  0  0  0
  -27.2284  -37.1502   25.8866 H   0  0  0  0  0  0
  -20.9348  -29.8749   21.6887 H   0  0  0  0  0  0
  -26.0173  -38.2864   24.1396 H   0  0  0  0  0  0
  -29.9876  -19.8816   18.9998 H   0  0  0  0  0  0
  -31.5734  -18.8355   21.0439 H   0  0  0  0  0  0
  -32.6046  -17.5819   21.7303 H   0  0  0  0  0  0
  -30.1195  -18.1750   22.8267 H   0  0  0  0  0  0
  -30.8734  -16.6039   22.9221 H   0  0  0  0  0  0
  -27.1204  -24.3525   18.6046 H   0  0  0  0  0  0
  -28.0648  -24.8817   17.1274 H   0  0  0  0  0  0
  -32.3467  -16.5610   19.6407 H   0  0  0  0  0  0
  -31.0244  -17.5405   19.2020 H   0  0  0  0  0  0
  -30.1549  -24.2048   18.2637 H   0  0  0  0  0  0
  -29.4106  -26.5286   18.4414 H   0  0  0  0  0  0
  -28.8135  -16.0759   21.8628 H   0  0  0  0  0  0
  -27.4600  -22.3873   23.1145 H   0  0  0  0  0  0
  -27.3528  -20.6401   23.0236 H   0  0  0  0  0  0
  -26.1818  -21.6358   22.1503 H   0  0  0  0  0  0
  -27.6412  -17.3652   20.3138 H   0  0  0  0  0  0
  -29.0091  -17.9727   19.4878 H   0  0  0  0  0  0
  -27.8237  -19.0554   22.0122 H   0  0  0  0  0  0
  1 25  1  0  0  0
  1 30  2  0  0  0
  1 86  1  0  0  0
  2  3  1  0  0  0
  2 25  1  0  0  0
  2 88  1  0  0  0
  2 89  1  0  0  0
  3  4  1  0  0  0
  3 90  1  0  0  0
  3 91  1  0  0  0
  4  5  1  0  0  0
  4 92  1  0  0  0
  4 93  1  0  0  0
  5  6  1  0  0  0
  5 26  1  0  0  0
  5 94  1  0  0  0
  6 25  1  0  0  0
  6 95  1  0  0  0
  6 96  1  0  0  0
  7  8  2  0  0  0
  7 26  1  0  0  0
  7 29  1  0  0  0
  8  9  1  0  0  0
  8 22  1  0  0  0
  9 10  1  0  0  0
  9 27  2  0  0  0
 10 11  2  0  0  0
 10 15  1  0  0  0
 11 12  1  0  0  0
 11 97  1  0  0  0
 12 13  2  0  0  0
 12 98  1  0  0  0
 13 14  1  0  0  0
 13 31  1  0  0  0
 14 15  2  0  0  0
 14 99  1  0  0  0
 15100  1  0  0  0
 16 17  2  0  0  0
 16 21  1  0  0  0
 16 31  1  0  0  0
 17 18  1  0  0  0
 17101  1  0  0  0
 18 19  2  0  0  0
 18102  1  0  0  0
 19 20  1  0  0  0
 19 24  1  0  0  0
 20 21  2  0  0  0
 20103  1  0  0  0
 21 23  1  0  0  0
 22 28  1  0  0  0
 22 32  2  0  0  0
 26 27  1  0  0  0
 28104  1  0  0  0
 28105  1  0  0  0
 29106  1  0  0  0
 29107  1  0  0  0
 33 34  1  0  0  0
 33 66  1  0  0  0
 33 70  2  0  0  0
 34 36  1  0  0  0
 34 59  1  0  0  0
 34108  1  0  0  0
 35 44  2  0  0  0
 35 45  1  0  0  0
 35 68  1  0  0  0
 36 56  1  0  0  0
 36109  1  0  0  0
 37 39  1  0  0  0
 37 47  1  0  0  0
 37 66  1  0  0  0
 37110  1  0  0  0
 38 43  2  0  0  0
 38 46  1  0  0  0
 38 47  1  0  0  0
 39 64  1  0  0  0
 39 67  2  0  0  0
 40 52  1  0  0  0
 40 53  2  0  0  0
 40 58  1  0  0  0
 41111  1  0  0  0
 41112  1  0  0  0
 41113  1  0  0  0
 41 48  1  0  0  0
 42 43  1  0  0  0
 42 66  1  0  0  0
 42114  1  0  0  0
 42115  1  0  0  0
 43 44  1  0  0  0
 44116  1  0  0  0
 45 46  2  0  0  0
 45117  1  0  0  0
 46118  1  0  0  0
 47119  1  0  0  0
 47120  1  0  0  0
 48 56  1  0  0  0
 48 65  1  0  0  0
 48121  1  0  0  0
 49 50  1  0  0  0
 49 53  1  0  0  0
 49 64  1  0  0  0
 49122  1  0  0  0
 50 51  1  0  0  0
 50123  1  0  0  0
 50124  1  0  0  0
 51 52  1  0  0  0
 51125  1  0  0  0
 51126  1  0  0  0
 52127  1  0  0  0
 52128  1  0  0  0
 53 54  1  0  0  0
 54 55  2  0  0  0
 54129  1  0  0  0
 55 57  1  0  0  0
 55130  1  0  0  0
 56 69  2  0  0  0
 57 58  2  0  0  0
 57131  1  0  0  0
 58132  1  0  0  0
 59 60  1  0  0  0
 59 61  1  0  0  0
 59 62  1  0  0  0
 60133  1  0  0  0
 60134  1  0  0  0
 60135  1  0  0  0
 61136  1  0  0  0
 61137  1  0  0  0
 61138  1  0  0  0
 62139  1  0  0  0
 62140  1  0  0  0
 62141  1  0  0  0
 63 65  1  0  0  0
 63142  1  0  0  0
 63143  1  0  0  0
 63144  1  0  0  0
 64145  1  0  0  0
 65146  1  0  0  0
 68 80  1  0  0  0
 71 72  2  0  0  0
 71 84  1  0  0  0
 71147  1  0  0  0
 72 73  1  0  0  0
 72 87  1  0  0  0
 73 82  1  0  0  0
 73 85  2  0  0  0
 74 84  2  0  0  0
 74 85  1  0  0  0
 74 79  1  0  0  0
 75 76  1  0  0  0
 75 78  1  0  0  0
 75148  1  0  0  0
 75149  1  0  0  0
 76 81  1  0  0  0
 76150  1  0  0  0
 76151  1  0  0  0
 77 79  1  0  0  0
 77 80  1  0  0  0
 77152  1  0  0  0
 77153  1  0  0  0
 78 86  1  0  0  0
 78154  1  0  0  0
 78155  1  0  0  0
 79 80  1  0  0  0
 79156  1  0  0  0
 80157  1  0  0  0
 81 83  1  0  0  0
 81 86  1  0  0  0
 81158  1  0  0  0
 82159  1  0  0  0
 82160  1  0  0  0
 82161  1  0  0  0
 83 87  1  0  0  0
 83162  1  0  0  0
 83163  1  0  0  0
 87164  1  0  0  0
M  ISO  4   1 100  68 101  80 101  86 100
M  END
> <chiral flag>
0

> <version>
0

> <s_m_source_file>
/data/baiqing/PycharmProjects/Reinvent-master-3.2/result/LINK_invent/BTK/process_docking_weight1_custom_sum_contain_oxygen_bond_distance_aromatic_linkinvent_7_9_3/rearranged_h_0188.sdf

> <i_m_source_file_index>
14

> <r_mmod_Potential_Energy-OPLS-2005>
174.459991455078

> <r_mmod_Stretch_Energy-OPLS-2005>
73.4662170410156

> <r_mmod_Bend_Energy-OPLS-2005>
279.258117675781

> <r_mmod_Torsional_Energy-OPLS-2005>
358.387847900391

> <r_mmod_Improper_Torsional_Energy-OPLS-2005>
21.7137241363525

> <r_mmod_Van_der_Waal_Energy-OPLS-2005>
170.624359130859

> <r_mmod_Electrostatic_Energy-OPLS-2005>
-569.16650390625

> <r_mmod_Solvation_Energy-OPLS-2005>
-228.920486450195

> <b_mmod_Minimization_Converged-OPLS-2005>
0

> <r_mmod_RMS_Derivative-OPLS-2005>
3.25469756126404

$$$$
14
                    3D
 Structure written by MMmdl.
157166  0  0  1  0            999 V2000
  -30.5284  -15.0043   20.3882 C   0  0  0  0  0  0
  -30.4339  -12.6213   19.5110 C   0  0  0  0  0  0
  -29.5204  -12.5324   18.2658 C   0  0  0  0  0  0
  -28.0545  -12.3112   18.6827 C   0  0  0  0  0  0
  -27.6227  -13.2547   19.8358 C   0  0  2  0  0  0
  -28.6635  -13.3154   20.9745 C   0  0  0  0  0  0
  -25.2422  -13.8238   20.5704 C   0  0  0  0  0  0
  -24.1760  -13.0450   20.9252 C   0  0  0  0  0  0
  -24.6389  -11.6937   20.8781 C   0  0  0  0  0  0
  -23.9085  -10.4302   21.0417 C   0  0  0  0  0  0
  -24.3643   -9.4202   21.9180 C   0  0  0  0  0  0
  -23.6316   -8.2228   22.0734 C   0  0  0  0  0  0
  -22.4295   -8.0276   21.3523 C   0  0  0  0  0  0
  -21.9938   -9.0253   20.4622 C   0  0  0  0  0  0
  -22.7269  -10.2135   20.3047 C   0  0  0  0  0  0
  -21.6852   -6.0743   22.5277 C   0  0  0  0  0  0
  -21.4013   -6.5641   23.8214 C   0  0  0  0  0  0
  -21.3665   -5.6788   24.9176 C   0  0  0  0  0  0
  -21.6047   -4.3052   24.7215 C   0  0  0  0  0  0
  -21.8824   -3.8149   23.4334 C   0  0  0  0  0  0
  -21.9190   -4.6972   22.3394 C   0  0  0  0  0  0
  -22.7777  -13.5202   21.1900 C   0  0  0  0  0  0
  -22.1657   -4.2160   21.0972 F   0  0  0  0  0  0
  -21.5641   -3.4535   25.7723 F   0  0  0  0  0  0
  -29.9346  -13.7372   20.3724 N   0  0  0  0  0  0
  -26.2847  -12.9473   20.3243 N   0  0  0  0  0  0
  -25.9319  -11.6604   20.5762 N   0  0  0  0  0  0
  -22.0434  -12.8180   22.0459 N   0  0  0  0  0  0
  -25.4093  -15.1955   20.4081 N   0  0  0  0  0  0
  -31.7273  -15.0490   20.0935 O   0  0  0  0  0  0
  -21.6640   -6.8885   21.4233 O   0  0  0  0  0  0
  -22.3457  -14.5503   20.6731 O   0  0  0  0  0  0
  -24.6500  -31.8406   23.1826 C   0  0  0  0  0  0
  -25.9256  -32.4667   23.8238 C   0  0  1  0  0  0
  -27.2130  -27.0844   20.1640 C   0  0  0  0  0  0
  -25.5983  -33.8476   24.2161 N   0  0  0  0  0  0
  -23.4557  -30.4582   21.5303 C   0  0  2  0  0  0
  -24.9055  -28.8759   20.1119 C   0  0  0  0  0  0
  -22.7605  -29.4534   22.4844 C   0  0  0  0  0  0
  -18.0306  -28.1418   22.8472 C   0  0  0  0  0  0
  -24.1500  -36.7248   23.2641 C   0  0  0  0  0  0
  -26.0160  -30.6961   21.3906 C   0  0  0  0  0  0
  -26.0853  -29.3021   20.7356 C   0  0  0  0  0  0
  -27.2392  -28.4235   20.7436 C   0  0  0  0  0  0
  -26.0060  -26.7753   19.4967 C   0  0  0  0  0  0
  -24.8820  -27.6275   19.4766 C   0  0  0  0  0  0
  -23.6855  -29.7844   20.1514 C   0  0  0  0  0  0
  -25.4132  -36.3019   24.0311 C   0  0  1  0  0  0
  -20.5928  -28.3753   23.1221 C   0  0  2  0  0  0
  -20.6803  -26.9456   22.5402 C   0  0  0  0  0  0
  -19.5773  -26.6399   21.5224 C   0  0  0  0  0  0
  -18.1953  -26.7951   22.1630 C   0  0  0  0  0  0
  -19.1566  -28.8903   23.2832 C   0  0  0  0  0  0
  -18.9480  -30.1496   23.8863 C   0  0  0  0  0  0
  -17.6475  -30.6605   24.0564 C   0  0  0  0  0  0
  -25.9099  -34.9395   23.5051 C   0  0  0  0  0  0
  -16.5365  -29.9098   23.6337 C   0  0  0  0  0  0
  -16.7291  -28.6521   23.0349 C   0  0  0  0  0  0
  -26.4538  -31.6545   25.0704 C   0  0  0  0  0  0
  -25.3690  -31.3766   26.1377 C   0  0  0  0  0  0
  -27.0412  -30.2928   24.6331 C   0  0  0  0  0  0
  -27.6072  -32.4303   25.7486 C   0  0  0  0  0  0
  -27.5577  -37.1785   24.8463 C   0  0  0  0  0  0
  -21.4291  -29.3063   22.3592 N   0  0  0  0  0  0
  -26.4289  -37.3738   23.9403 N   0  0  0  0  0  0
  -24.7274  -31.0211   22.0887 N   0  0  0  0  0  0
  -23.4219  -28.8099   23.3026 O   0  0  0  0  0  0
  -28.2412  -26.0589   20.2402 O   0  0  0  0  0  0
  -26.5684  -34.8901   22.4635 O   0  0  0  0  0  0
  -23.5604  -32.1314   23.7007 O   0  0  0  0  0  0
  -29.4104  -20.8150   20.3594 C   0  0  0  0  0  0
  -30.9757  -22.4256   20.6387 C   0  0  0  0  0  0
  -28.8802  -23.1927   20.3210 C   0  0  0  0  0  0
  -29.8146  -17.7982   18.5585 C   0  0  0  0  0  0
  -29.1657  -19.1844   20.0717 C   0  0  2  0  0  0
  -30.0946  -17.7318   20.0612 C   0  0  1  0  0  0
  -32.7715  -22.6476   22.4146 C   0  0  0  0  0  0
  -32.4310  -22.7506   20.9223 C   0  0  0  0  0  0
  -27.8850  -24.5225   20.1285 C   0  0  0  0  0  0
  -30.6908  -21.1228   20.5267 N   0  0  0  0  0  0
  -28.4723  -21.8473   20.1997 N   0  0  0  0  0  0
  -30.1548  -23.4745   20.5654 N   0  0  0  0  0  0
  -29.7701  -16.2190   20.5023 N   0  0  0  0  0  0
  -29.5514  -19.2247   18.6719 N   0  3  0  0  0  0
  -31.4680  -12.7747   19.1994 H   0  0  0  0  0  0
  -30.4299  -11.6801   20.0628 H   0  0  0  0  0  0
  -29.8506  -11.7250   17.6103 H   0  0  0  0  0  0
  -29.5996  -13.4532   17.6867 H   0  0  0  0  0  0
  -27.9583  -11.2730   19.0041 H   0  0  0  0  0  0
  -27.3899  -12.4267   17.8241 H   0  0  0  0  0  0
  -27.5765  -14.2502   19.3930 H   0  0  0  0  0  0
  -28.7611  -12.3464   21.4666 H   0  0  0  0  0  0
  -28.3537  -14.0232   21.7438 H   0  0  0  0  0  0
  -25.2785   -9.5675   22.4761 H   0  0  0  0  0  0
  -24.0029   -7.4615   22.7440 H   0  0  0  0  0  0
  -21.0877   -8.8780   19.8916 H   0  0  0  0  0  0
  -22.3735  -10.9682   19.6157 H   0  0  0  0  0  0
  -21.1995   -7.6146   23.9726 H   0  0  0  0  0  0
  -21.1490   -6.0511   25.9086 H   0  0  0  0  0  0
  -22.0595   -2.7608   23.2827 H   0  0  0  0  0  0
  -22.4061  -11.9871   22.4896 H   0  0  0  0  0  0
  -21.1012  -13.1141   22.2611 H   0  0  0  0  0  0
  -24.6367  -15.8463   20.5049 H   0  0  0  0  0  0
  -26.2395  -15.6221   20.0201 H   0  0  0  0  0  0
  -26.7330  -32.5254   23.0967 H   0  0  0  0  0  0
  -25.0084  -33.9578   25.0274 H   0  0  0  0  0  0
  -22.7608  -31.2856   21.3708 H   0  0  0  0  0  0
  -23.3770  -35.9572   23.3285 H   0  0  0  0  0  0
  -24.3581  -36.8901   22.2059 H   0  0  0  0  0  0
  -23.7248  -37.6437   23.6690 H   0  0  0  0  0  0
  -26.1806  -31.4430   20.6129 H   0  0  0  0  0  0
  -26.8844  -30.7472   22.0353 H   0  0  0  0  0  0
  -28.1338  -28.7432   21.2602 H   0  0  0  0  0  0
  -25.8849  -25.8255   18.9999 H   0  0  0  0  0  0
  -23.9833  -27.2945   18.9747 H   0  0  0  0  0  0
  -23.8291  -30.5563   19.3946 H   0  0  0  0  0  0
  -22.7983  -29.2309   19.8379 H   0  0  0  0  0  0
  -25.1324  -36.1842   25.0803 H   0  0  0  0  0  0
  -21.0000  -28.3355   24.1349 H   0  0  0  0  0  0
  -20.5733  -26.2371   23.3628 H   0  0  0  0  0  0
  -21.6663  -26.7488   22.1182 H   0  0  0  0  0  0
  -19.6943  -25.6306   21.1271 H   0  0  0  0  0  0
  -19.6702  -27.3191   20.6740 H   0  0  0  0  0  0
  -17.4226  -26.6684   21.4033 H   0  0  0  0  0  0
  -18.0349  -26.0105   22.9037 H   0  0  0  0  0  0
  -19.7955  -30.7324   24.2215 H   0  0  0  0  0  0
  -17.5028  -31.6276   24.5188 H   0  0  0  0  0  0
  -15.5369  -30.2991   23.7689 H   0  0  0  0  0  0
  -15.8686  -28.0839   22.7073 H   0  0  0  0  0  0
  -24.5852  -30.7148   25.7670 H   0  0  0  0  0  0
  -24.8903  -32.2968   26.4743 H   0  0  0  0  0  0
  -25.7930  -30.8947   27.0196 H   0  0  0  0  0  0
  -26.3046  -29.6625   24.1337 H   0  0  0  0  0  0
  -27.4000  -29.7257   25.4932 H   0  0  0  0  0  0
  -27.8963  -30.4146   23.9679 H   0  0  0  0  0  0
  -27.2685  -33.3631   26.2001 H   0  0  0  0  0  0
  -28.3914  -32.6813   25.0333 H   0  0  0  0  0  0
  -28.0702  -31.8464   26.5450 H   0  0  0  0  0  0
  -28.2592  -38.0086   24.7515 H   0  0  0  0  0  0
  -28.1085  -36.2622   24.6293 H   0  0  0  0  0  0
  -27.2297  -37.1420   25.8866 H   0  0  0  0  0  0
  -20.9535  -29.8742   21.6724 H   0  0  0  0  0  0
  -26.0161  -38.2813   24.1386 H   0  0  0  0  0  0
  -28.9190  -17.2574   18.2463 H   0  0  0  0  0  0
  -30.6649  -17.5673   17.9154 H   0  0  0  0  0  0
  -28.1019  -18.9568   20.1589 H   0  0  0  0  0  0
  -31.1369  -17.9857   20.2712 H   0  0  0  0  0  0
  -33.8134  -22.9124   22.5916 H   0  0  0  0  0  0
  -32.6138  -21.6323   22.7792 H   0  0  0  0  0  0
  -32.1483  -23.3180   23.0079 H   0  0  0  0  0  0
  -32.6550  -23.7556   20.5640 H   0  0  0  0  0  0
  -33.0693  -22.0787   20.3463 H   0  0  0  0  0  0
  -27.0556  -24.3564   20.8171 H   0  0  0  0  0  0
  -27.4683  -24.3799   19.1326 H   0  0  0  0  0  0
  -28.8149  -16.0647   20.7886 H   0  0  0  0  0  0
  -28.8263  -19.5937   18.0816 H   0  0  0  0  0  0
  -30.3774  -19.8015   18.6385 H   0  0  0  0  0  0
  1 25  1  0  0  0
  1 30  2  0  0  0
  1 83  1  0  0  0
  2  3  1  0  0  0
  2 25  1  0  0  0
  2 85  1  0  0  0
  2 86  1  0  0  0
  3  4  1  0  0  0
  3 87  1  0  0  0
  3 88  1  0  0  0
  4  5  1  0  0  0
  4 89  1  0  0  0
  4 90  1  0  0  0
  5  6  1  0  0  0
  5 26  1  0  0  0
  5 91  1  0  0  0
  6 25  1  0  0  0
  6 92  1  0  0  0
  6 93  1  0  0  0
  7  8  2  0  0  0
  7 26  1  0  0  0
  7 29  1  0  0  0
  8  9  1  0  0  0
  8 22  1  0  0  0
  9 10  1  0  0  0
  9 27  2  0  0  0
 10 11  2  0  0  0
 10 15  1  0  0  0
 11 12  1  0  0  0
 11 94  1  0  0  0
 12 13  2  0  0  0
 12 95  1  0  0  0
 13 14  1  0  0  0
 13 31  1  0  0  0
 14 15  2  0  0  0
 14 96  1  0  0  0
 15 97  1  0  0  0
 16 17  2  0  0  0
 16 21  1  0  0  0
 16 31  1  0  0  0
 17 18  1  0  0  0
 17 98  1  0  0  0
 18 19  2  0  0  0
 18 99  1  0  0  0
 19 20  1  0  0  0
 19 24  1  0  0  0
 20 21  2  0  0  0
 20100  1  0  0  0
 21 23  1  0  0  0
 22 28  1  0  0  0
 22 32  2  0  0  0
 26 27  1  0  0  0
 28101  1  0  0  0
 28102  1  0  0  0
 29103  1  0  0  0
 29104  1  0  0  0
 33 34  1  0  0  0
 33 66  1  0  0  0
 33 70  2  0  0  0
 34 36  1  0  0  0
 34 59  1  0  0  0
 34105  1  0  0  0
 35 44  2  0  0  0
 35 45  1  0  0  0
 35 68  1  0  0  0
 36 56  1  0  0  0
 36106  1  0  0  0
 37 39  1  0  0  0
 37 47  1  0  0  0
 37 66  1  0  0  0
 37107  1  0  0  0
 38 43  2  0  0  0
 38 46  1  0  0  0
 38 47  1  0  0  0
 39 64  1  0  0  0
 39 67  2  0  0  0
 40 52  1  0  0  0
 40 53  2  0  0  0
 40 58  1  0  0  0
 41108  1  0  0  0
 41109  1  0  0  0
 41110  1  0  0  0
 41 48  1  0  0  0
 42 43  1  0  0  0
 42 66  1  0  0  0
 42111  1  0  0  0
 42112  1  0  0  0
 43 44  1  0  0  0
 44113  1  0  0  0
 45 46  2  0  0  0
 45114  1  0  0  0
 46115  1  0  0  0
 47116  1  0  0  0
 47117  1  0  0  0
 48 56  1  0  0  0
 48 65  1  0  0  0
 48118  1  0  0  0
 49 50  1  0  0  0
 49 53  1  0  0  0
 49 64  1  0  0  0
 49119  1  0  0  0
 50 51  1  0  0  0
 50120  1  0  0  0
 50121  1  0  0  0
 51 52  1  0  0  0
 51122  1  0  0  0
 51123  1  0  0  0
 52124  1  0  0  0
 52125  1  0  0  0
 53 54  1  0  0  0
 54 55  2  0  0  0
 54126  1  0  0  0
 55 57  1  0  0  0
 55127  1  0  0  0
 56 69  2  0  0  0
 57 58  2  0  0  0
 57128  1  0  0  0
 58129  1  0  0  0
 59 60  1  0  0  0
 59 61  1  0  0  0
 59 62  1  0  0  0
 60130  1  0  0  0
 60131  1  0  0  0
 60132  1  0  0  0
 61133  1  0  0  0
 61134  1  0  0  0
 61135  1  0  0  0
 62136  1  0  0  0
 62137  1  0  0  0
 62138  1  0  0  0
 63 65  1  0  0  0
 63139  1  0  0  0
 63140  1  0  0  0
 63141  1  0  0  0
 64142  1  0  0  0
 65143  1  0  0  0
 68 79  1  0  0  0
 71 80  1  0  0  0
 71 81  2  0  0  0
 71 75  1  0  0  0
 72 78  1  0  0  0
 72 80  2  0  0  0
 72 82  1  0  0  0
 73 79  1  0  0  0
 73 81  1  0  0  0
 73 82  2  0  0  0
 74 76  1  0  0  0
 74 84  1  0  0  0
 74144  1  0  0  0
 74145  1  0  0  0
 75 76  1  0  0  0
 75 84  1  0  0  0
 75146  1  0  0  0
 76 83  1  0  0  0
 76147  1  0  0  0
 77 78  1  0  0  0
 77148  1  0  0  0
 77149  1  0  0  0
 77150  1  0  0  0
 78151  1  0  0  0
 78152  1  0  0  0
 79153  1  0  0  0
 79154  1  0  0  0
 83155  1  0  0  0
 84156  1  0  0  0
 84157  1  0  0  0
M  CHG  1  84   1
M  ISO  4   1 100  68 101  79 101  83 100
M  END
> <chiral flag>
0

> <version>
0

> <s_m_source_file>
/data/baiqing/PycharmProjects/Reinvent-master-3.2/result/LINK_invent/BTK/process_docking_weight1_custom_sum_contain_oxygen_bond_distance_aromatic_linkinvent_7_9_3/rearranged_h_0188.sdf

> <i_m_source_file_index>
15

> <r_mmod_Potential_Energy-OPLS-2005>
-301.680541992188

> <r_mmod_Stretch_Energy-OPLS-2005>
310.012268066406

> <r_mmod_Bend_Energy-OPLS-2005>
335.219757080078

> <r_mmod_Torsional_Energy-OPLS-2005>
246.177841186523

> <r_mmod_Improper_Torsional_Energy-OPLS-2005>
6.98168659210205

> <r_mmod_Van_der_Waal_Energy-OPLS-2005>
146.512634277344

> <r_mmod_Electrostatic_Energy-OPLS-2005>
-1056.49963378906

> <r_mmod_Solvation_Energy-OPLS-2005>
-530.451049804688

> <b_mmod_Minimization_Converged-OPLS-2005>
0

> <r_mmod_RMS_Derivative-OPLS-2005>
2.03194618225098

$$$$
15
                    3D
 Structure written by MMmdl.
151160  0  0  1  0            999 V2000
  -30.5447  -15.1271   20.3873 C   0  0  0  0  0  0
  -30.4112  -12.7149   19.5277 C   0  0  0  0  0  0
  -29.5201  -12.5499   18.2773 C   0  0  0  0  0  0
  -28.0608  -12.3087   18.6972 C   0  0  0  0  0  0
  -27.6070  -13.2743   19.8236 C   0  0  2  0  0  0
  -28.6439  -13.4255   20.9564 C   0  0  0  0  0  0
  -25.2352  -13.8275   20.5759 C   0  0  0  0  0  0
  -24.1703  -13.0488   20.9301 C   0  0  0  0  0  0
  -24.6344  -11.6983   20.8801 C   0  0  0  0  0  0
  -23.9053  -10.4322   21.0408 C   0  0  0  0  0  0
  -24.3599   -9.4233   21.9178 C   0  0  0  0  0  0
  -23.6299   -8.2255   22.0748 C   0  0  0  0  0  0
  -22.4288   -8.0278   21.3535 C   0  0  0  0  0  0
  -21.9902   -9.0266   20.4657 C   0  0  0  0  0  0
  -22.7215  -10.2161   20.3069 C   0  0  0  0  0  0
  -21.6871   -6.0726   22.5267 C   0  0  0  0  0  0
  -21.4019   -6.5631   23.8194 C   0  0  0  0  0  0
  -21.3667   -5.6788   24.9160 C   0  0  0  0  0  0
  -21.6048   -4.3050   24.7206 C   0  0  0  0  0  0
  -21.8826   -3.8133   23.4325 C   0  0  0  0  0  0
  -21.9188   -4.6954   22.3388 C   0  0  0  0  0  0
  -22.7718  -13.5248   21.1912 C   0  0  0  0  0  0
  -22.1656   -4.2140   21.0968 F   0  0  0  0  0  0
  -21.5638   -3.4526   25.7710 F   0  0  0  0  0  0
  -29.8854  -13.8797   20.3183 N   0  0  0  0  0  0
  -26.2771  -12.9548   20.3235 N   0  0  0  0  0  0
  -25.9271  -11.6648   20.5756 N   0  0  0  0  0  0
  -22.0313  -12.8288   22.0457 N   0  0  0  0  0  0
  -25.4057  -15.2001   20.4183 N   0  0  0  0  0  0
  -31.7634  -15.0411   20.1953 O   0  0  0  0  0  0
  -21.6661   -6.8868   21.4225 O   0  0  0  0  0  0
  -22.3416  -14.5540   20.6721 O   0  0  0  0  0  0
  -24.6575  -31.8330   23.1803 C   0  0  0  0  0  0
  -25.9275  -32.4646   23.8240 C   0  0  1  0  0  0
  -27.2067  -26.9994   20.1775 C   0  0  0  0  0  0
  -25.5973  -33.8464   24.2133 N   0  0  0  0  0  0
  -23.4677  -30.4479   21.5317 C   0  0  2  0  0  0
  -24.9196  -28.8564   20.1149 C   0  0  0  0  0  0
  -22.7659  -29.4470   22.4851 C   0  0  0  0  0  0
  -18.0311  -28.1420   22.8480 C   0  0  0  0  0  0
  -24.1492  -36.7227   23.2644 C   0  0  0  0  0  0
  -26.0352  -30.6636   21.4007 C   0  0  0  0  0  0
  -26.1047  -29.2626   20.7428 C   0  0  0  0  0  0
  -27.2480  -28.3541   20.7516 C   0  0  0  0  0  0
  -25.9934  -26.7347   19.5035 C   0  0  0  0  0  0
  -24.8855  -27.6120   19.4751 C   0  0  0  0  0  0
  -23.7032  -29.7744   20.1544 C   0  0  0  0  0  0
  -25.4129  -36.3007   24.0301 C   0  0  1  0  0  0
  -20.5942  -28.3739   23.1244 C   0  0  2  0  0  0
  -20.6811  -26.9426   22.5438 C   0  0  0  0  0  0
  -19.5786  -26.6382   21.5253 C   0  0  0  0  0  0
  -18.1951  -26.7957   22.1631 C   0  0  0  0  0  0
  -19.1572  -28.8908   23.2843 C   0  0  0  0  0  0
  -18.9466  -30.1503   23.8858 C   0  0  0  0  0  0
  -17.6456  -30.6612   24.0558 C   0  0  0  0  0  0
  -25.9091  -34.9387   23.5031 C   0  0  0  0  0  0
  -16.5349  -29.9089   23.6357 C   0  0  0  0  0  0
  -16.7287  -28.6517   23.0362 C   0  0  0  0  0  0
  -26.4529  -31.6567   25.0744 C   0  0  0  0  0  0
  -25.3659  -31.3846   26.1414 C   0  0  0  0  0  0
  -27.0374  -30.2922   24.6431 C   0  0  0  0  0  0
  -27.6046  -32.4341   25.7519 C   0  0  0  0  0  0
  -27.5574  -37.1774   24.8452 C   0  0  0  0  0  0
  -21.4329  -29.3029   22.3600 N   0  0  0  0  0  0
  -26.4286  -37.3727   23.9400 N   0  0  0  0  0  0
  -24.7411  -31.0063   22.0905 N   0  0  0  0  0  0
  -23.4232  -28.8036   23.3071 O   0  0  0  0  0  0
  -28.1995  -25.9092   20.2440 O   0  0  0  0  0  0
  -26.5689  -34.8899   22.4618 O   0  0  0  0  0  0
  -23.5659  -32.1257   23.6928 O   0  0  0  0  0  0
  -28.2989  -21.4457   20.6599 C   0  0  0  0  0  0
  -29.2631  -20.4381   20.2982 C   0  0  0  0  0  0
  -28.6316  -22.8603   20.2388 C   0  0  0  0  0  0
  -28.7455  -17.3643   20.5830 C   0  0  0  0  0  0
  -30.6087  -17.7710   19.7983 C   0  0  0  0  0  0
  -29.5858  -18.7614   20.5407 C   0  0  0  0  0  0
  -31.3905  -20.9968   18.9691 C   0  0  0  0  0  0
  -27.7753  -24.3502   20.1964 C   0  0  0  0  0  0
  -29.7975  -22.6749   19.6175 N   0  0  0  0  0  0
  -30.1517  -21.3256   19.6503 N   0  0  0  0  0  0
  -29.9685  -16.4756   20.2974 N   0  0  0  0  0  0
  -31.4467  -12.8574   19.2165 H   0  0  0  0  0  0
  -30.4146  -11.8048   20.1320 H   0  0  0  0  0  0
  -29.8829  -11.7247   17.6658 H   0  0  0  0  0  0
  -29.5808  -13.4477   17.6592 H   0  0  0  0  0  0
  -27.9839  -11.2794   19.0502 H   0  0  0  0  0  0
  -27.3969  -12.3835   17.8357 H   0  0  0  0  0  0
  -27.5338  -14.2516   19.3433 H   0  0  0  0  0  0
  -28.7800  -12.4911   21.5035 H   0  0  0  0  0  0
  -28.3086  -14.1670   21.6834 H   0  0  0  0  0  0
  -25.2696   -9.5765   22.4798 H   0  0  0  0  0  0
  -24.0020   -7.4653   22.7471 H   0  0  0  0  0  0
  -21.0812   -8.8793   19.8989 H   0  0  0  0  0  0
  -22.3600  -10.9727   19.6235 H   0  0  0  0  0  0
  -21.2028   -7.6138   23.9710 H   0  0  0  0  0  0
  -21.1486   -6.0501   25.9074 H   0  0  0  0  0  0
  -22.0600   -2.7592   23.2816 H   0  0  0  0  0  0
  -22.3860  -11.9972   22.4946 H   0  0  0  0  0  0
  -21.0949  -13.1402   22.2631 H   0  0  0  0  0  0
  -24.6486  -15.8629   20.5429 H   0  0  0  0  0  0
  -26.2632  -15.6261   20.0942 H   0  0  0  0  0  0
  -26.7357  -32.5206   23.0984 H   0  0  0  0  0  0
  -25.0081  -33.9550   25.0249 H   0  0  0  0  0  0
  -22.7762  -31.2772   21.3697 H   0  0  0  0  0  0
  -23.3770  -35.9546   23.3298 H   0  0  0  0  0  0
  -24.3568  -36.8870   22.2062 H   0  0  0  0  0  0
  -23.7232  -37.6410   23.6689 H   0  0  0  0  0  0
  -26.2051  -31.4103   20.6245 H   0  0  0  0  0  0
  -26.9008  -30.7200   22.0482 H   0  0  0  0  0  0
  -28.1472  -28.6611   21.2690 H   0  0  0  0  0  0
  -25.8464  -25.7908   19.0049 H   0  0  0  0  0  0
  -23.9867  -27.2906   18.9691 H   0  0  0  0  0  0
  -23.8498  -30.5466   19.3986 H   0  0  0  0  0  0
  -22.8154  -29.2229   19.8398 H   0  0  0  0  0  0
  -25.1331  -36.1832   25.0797 H   0  0  0  0  0  0
  -20.9997  -28.3336   24.1380 H   0  0  0  0  0  0
  -20.5751  -26.2331   23.3658 H   0  0  0  0  0  0
  -21.6665  -26.7466   22.1202 H   0  0  0  0  0  0
  -19.6939  -25.6290   21.1300 H   0  0  0  0  0  0
  -19.6747  -27.3195   20.6791 H   0  0  0  0  0  0
  -17.4241  -26.6735   21.4006 H   0  0  0  0  0  0
  -18.0290  -26.0108   22.9026 H   0  0  0  0  0  0
  -19.7941  -30.7360   24.2182 H   0  0  0  0  0  0
  -17.5000  -31.6285   24.5173 H   0  0  0  0  0  0
  -15.5349  -30.2969   23.7722 H   0  0  0  0  0  0
  -15.8683  -28.0838   22.7074 H   0  0  0  0  0  0
  -24.5818  -30.7211   25.7748 H   0  0  0  0  0  0
  -24.8873  -32.3074   26.4720 H   0  0  0  0  0  0
  -25.7894  -30.9093   27.0278 H   0  0  0  0  0  0
  -26.3019  -29.6646   24.1388 H   0  0  0  0  0  0
  -27.3851  -29.7246   25.5079 H   0  0  0  0  0  0
  -27.9004  -30.4094   23.9866 H   0  0  0  0  0  0
  -27.2630  -33.3665   26.2036 H   0  0  0  0  0  0
  -28.3892  -32.6866   25.0368 H   0  0  0  0  0  0
  -28.0686  -31.8506   26.5486 H   0  0  0  0  0  0
  -28.2591  -38.0065   24.7483 H   0  0  0  0  0  0
  -28.1060  -36.2596   24.6300 H   0  0  0  0  0  0
  -27.2287  -37.1454   25.8850 H   0  0  0  0  0  0
  -20.9570  -29.8680   21.6702 H   0  0  0  0  0  0
  -26.0149  -38.2793   24.1397 H   0  0  0  0  0  0
  -27.3920  -21.1958   21.1945 H   0  0  0  0  0  0
  -27.9908  -17.3092   19.7956 H   0  0  0  0  0  0
  -28.2740  -17.1876   21.5515 H   0  0  0  0  0  0
  -31.6448  -17.9063   20.1190 H   0  0  0  0  0  0
  -30.5634  -17.8710   18.7109 H   0  0  0  0  0  0
  -29.9865  -18.8021   21.5543 H   0  0  0  0  0  0
  -31.1776  -20.7759   17.9231 H   0  0  0  0  0  0
  -31.8783  -20.1400   19.4302 H   0  0  0  0  0  0
  -32.0834  -21.8393   19.0092 H   0  0  0  0  0  0
  -26.9851  -24.2659   20.9453 H   0  0  0  0  0  0
  -27.2487  -24.2747   19.2469 H   0  0  0  0  0  0
  1 25  1  0  0  0
  1 30  2  0  0  0
  1 81  1  0  0  0
  2  3  1  0  0  0
  2 25  1  0  0  0
  2 82  1  0  0  0
  2 83  1  0  0  0
  3  4  1  0  0  0
  3 84  1  0  0  0
  3 85  1  0  0  0
  4  5  1  0  0  0
  4 86  1  0  0  0
  4 87  1  0  0  0
  5  6  1  0  0  0
  5 26  1  0  0  0
  5 88  1  0  0  0
  6 25  1  0  0  0
  6 89  1  0  0  0
  6 90  1  0  0  0
  7  8  2  0  0  0
  7 26  1  0  0  0
  7 29  1  0  0  0
  8  9  1  0  0  0
  8 22  1  0  0  0
  9 10  1  0  0  0
  9 27  2  0  0  0
 10 11  2  0  0  0
 10 15  1  0  0  0
 11 12  1  0  0  0
 11 91  1  0  0  0
 12 13  2  0  0  0
 12 92  1  0  0  0
 13 14  1  0  0  0
 13 31  1  0  0  0
 14 15  2  0  0  0
 14 93  1  0  0  0
 15 94  1  0  0  0
 16 17  2  0  0  0
 16 21  1  0  0  0
 16 31  1  0  0  0
 17 18  1  0  0  0
 17 95  1  0  0  0
 18 19  2  0  0  0
 18 96  1  0  0  0
 19 20  1  0  0  0
 19 24  1  0  0  0
 20 21  2  0  0  0
 20 97  1  0  0  0
 21 23  1  0  0  0
 22 28  1  0  0  0
 22 32  2  0  0  0
 26 27  1  0  0  0
 28 98  1  0  0  0
 28 99  1  0  0  0
 29100  1  0  0  0
 29101  1  0  0  0
 33 34  1  0  0  0
 33 66  1  0  0  0
 33 70  2  0  0  0
 34 36  1  0  0  0
 34 59  1  0  0  0
 34102  1  0  0  0
 35 44  2  0  0  0
 35 45  1  0  0  0
 35 68  1  0  0  0
 36 56  1  0  0  0
 36103  1  0  0  0
 37 39  1  0  0  0
 37 47  1  0  0  0
 37 66  1  0  0  0
 37104  1  0  0  0
 38 43  2  0  0  0
 38 46  1  0  0  0
 38 47  1  0  0  0
 39 64  1  0  0  0
 39 67  2  0  0  0
 40 52  1  0  0  0
 40 53  2  0  0  0
 40 58  1  0  0  0
 41105  1  0  0  0
 41106  1  0  0  0
 41107  1  0  0  0
 41 48  1  0  0  0
 42 43  1  0  0  0
 42 66  1  0  0  0
 42108  1  0  0  0
 42109  1  0  0  0
 43 44  1  0  0  0
 44110  1  0  0  0
 45 46  2  0  0  0
 45111  1  0  0  0
 46112  1  0  0  0
 47113  1  0  0  0
 47114  1  0  0  0
 48 56  1  0  0  0
 48 65  1  0  0  0
 48115  1  0  0  0
 49 50  1  0  0  0
 49 53  1  0  0  0
 49 64  1  0  0  0
 49116  1  0  0  0
 50 51  1  0  0  0
 50117  1  0  0  0
 50118  1  0  0  0
 51 52  1  0  0  0
 51119  1  0  0  0
 51120  1  0  0  0
 52121  1  0  0  0
 52122  1  0  0  0
 53 54  1  0  0  0
 54 55  2  0  0  0
 54123  1  0  0  0
 55 57  1  0  0  0
 55124  1  0  0  0
 56 69  2  0  0  0
 57 58  2  0  0  0
 57125  1  0  0  0
 58126  1  0  0  0
 59 60  1  0  0  0
 59 61  1  0  0  0
 59 62  1  0  0  0
 60127  1  0  0  0
 60128  1  0  0  0
 60129  1  0  0  0
 61130  1  0  0  0
 61131  1  0  0  0
 61132  1  0  0  0
 62133  1  0  0  0
 62134  1  0  0  0
 62135  1  0  0  0
 63 65  1  0  0  0
 63136  1  0  0  0
 63137  1  0  0  0
 63138  1  0  0  0
 64139  1  0  0  0
 65140  1  0  0  0
 68 78  1  0  0  0
 71 72  2  0  0  0
 71 73  1  0  0  0
 71141  1  0  0  0
 72 80  1  0  0  0
 72 76  1  0  0  0
 73 78  1  0  0  0
 73 79  2  0  0  0
 74 76  1  0  0  0
 74 81  1  0  0  0
 74142  1  0  0  0
 74143  1  0  0  0
 75 76  1  0  0  0
 75 81  1  0  0  0
 75144  1  0  0  0
 75145  1  0  0  0
 76146  1  0  0  0
 77 80  1  0  0  0
 77147  1  0  0  0
 77148  1  0  0  0
 77149  1  0  0  0
 78150  1  0  0  0
 78151  1  0  0  0
 79 80  1  0  0  0
M  ISO  4   1 100  68 101  78 101  81 100
M  END
> <chiral flag>
0

> <version>
0

> <s_m_source_file>
/data/baiqing/PycharmProjects/Reinvent-master-3.2/result/LINK_invent/BTK/process_docking_weight1_custom_sum_contain_oxygen_bond_distance_aromatic_linkinvent_7_9_3/rearranged_h_0188.sdf

> <i_m_source_file_index>
16

> <r_mmod_Potential_Energy-OPLS-2005>
975.668334960938

> <r_mmod_Stretch_Energy-OPLS-2005>
386.708892822266

> <r_mmod_Bend_Energy-OPLS-2005>
413.452575683594

> <r_mmod_Torsional_Energy-OPLS-2005>
265.65771484375

> <r_mmod_Improper_Torsional_Energy-OPLS-2005>
11.3838510513306

> <r_mmod_Van_der_Waal_Energy-OPLS-2005>
111.168518066406

> <r_mmod_Electrostatic_Energy-OPLS-2005>
-320.952301025391

> <r_mmod_Solvation_Energy-OPLS-2005>
-234.782577514648

> <b_mmod_Minimization_Converged-OPLS-2005>
0

> <r_mmod_RMS_Derivative-OPLS-2005>
3.80550193786621

$$$$
16
                    3D
 Structure written by MMmdl.
161170  0  0  1  0            999 V2000
  -30.6363  -14.7084   20.4722 C   0  0  0  0  0  0
  -30.4304  -12.4362   19.4659 C   0  0  0  0  0  0
  -29.5076  -12.5048   18.2304 C   0  0  0  0  0  0
  -28.0327  -12.3352   18.6444 C   0  0  0  0  0  0
  -27.6437  -13.2307   19.8517 C   0  0  2  0  0  0
  -28.6902  -13.1548   20.9848 C   0  0  0  0  0  0
  -25.2517  -13.8198   20.5696 C   0  0  0  0  0  0
  -24.1805  -13.0445   20.9210 C   0  0  0  0  0  0
  -24.6392  -11.6922   20.8749 C   0  0  0  0  0  0
  -23.9068  -10.4299   21.0408 C   0  0  0  0  0  0
  -24.3618   -9.4212   21.9182 C   0  0  0  0  0  0
  -23.6294   -8.2246   22.0751 C   0  0  0  0  0  0
  -22.4276   -8.0283   21.3541 C   0  0  0  0  0  0
  -21.9913   -9.0259   20.4645 C   0  0  0  0  0  0
  -22.7240  -10.2137   20.3056 C   0  0  0  0  0  0
  -21.6853   -6.0735   22.5278 C   0  0  0  0  0  0
  -21.4015   -6.5637   23.8214 C   0  0  0  0  0  0
  -21.3660   -5.6789   24.9176 C   0  0  0  0  0  0
  -21.6046   -4.3053   24.7221 C   0  0  0  0  0  0
  -21.8819   -3.8143   23.4342 C   0  0  0  0  0  0
  -21.9193   -4.6962   22.3400 C   0  0  0  0  0  0
  -22.7825  -13.5233   21.1860 C   0  0  0  0  0  0
  -22.1660   -4.2149   21.0977 F   0  0  0  0  0  0
  -21.5630   -3.4536   25.7733 F   0  0  0  0  0  0
  -29.9931  -13.4956   20.4014 N   0  0  0  0  0  0
  -26.2948  -12.9406   20.3293 N   0  0  0  0  0  0
  -25.9325  -11.6549   20.5756 N   0  0  0  0  0  0
  -22.0463  -12.8233   22.0416 N   0  0  0  0  0  0
  -25.4205  -15.1921   20.4095 N   0  0  0  0  0  0
  -31.8249  -14.7993   20.1573 O   0  0  0  0  0  0
  -21.6642   -6.8878   21.4241 O   0  0  0  0  0  0
  -22.3516  -14.5537   20.6698 O   0  0  0  0  0  0
  -24.6301  -31.8576   23.2017 C   0  0  0  0  0  0
  -25.9134  -32.4766   23.8352 C   0  0  1  0  0  0
  -27.2117  -27.2726   20.1211 C   0  0  0  0  0  0
  -25.5936  -33.8570   24.2271 N   0  0  0  0  0  0
  -23.4252  -30.4837   21.5453 C   0  0  2  0  0  0
  -24.8698  -28.9356   20.1127 C   0  0  0  0  0  0
  -22.7494  -29.4620   22.4918 C   0  0  0  0  0  0
  -18.0290  -28.1389   22.8486 C   0  0  0  0  0  0
  -24.1491  -36.7287   23.2638 C   0  0  0  0  0  0
  -25.9723  -30.7734   21.3816 C   0  0  0  0  0  0
  -26.0432  -29.3983   20.7212 C   0  0  0  0  0  0
  -27.2182  -28.5802   20.7134 C   0  0  0  0  0  0
  -26.0148  -26.8844   19.4755 C   0  0  0  0  0  0
  -24.8603  -27.6861   19.4798 C   0  0  0  0  0  0
  -23.6424  -29.8231   20.1601 C   0  0  0  0  0  0
  -25.4116  -36.3074   24.0325 C   0  0  1  0  0  0
  -20.5894  -28.3700   23.1269 C   0  0  2  0  0  0
  -20.6780  -26.9421   22.5404 C   0  0  0  0  0  0
  -19.5751  -26.6386   21.5213 C   0  0  0  0  0  0
  -18.1933  -26.7930   22.1628 C   0  0  0  0  0  0
  -19.1543  -28.8861   23.2875 C   0  0  0  0  0  0
  -18.9463  -30.1461   23.8892 C   0  0  0  0  0  0
  -17.6463  -30.6590   24.0563 C   0  0  0  0  0  0
  -25.9057  -34.9444   23.5098 C   0  0  0  0  0  0
  -16.5355  -29.9087   23.6331 C   0  0  0  0  0  0
  -16.7277  -28.6505   23.0355 C   0  0  0  0  0  0
  -26.4502  -31.6584   25.0736 C   0  0  0  0  0  0
  -25.3723  -31.3738   26.1454 C   0  0  0  0  0  0
  -27.0341  -30.2993   24.6228 C   0  0  0  0  0  0
  -27.6053  -32.4326   25.7509 C   0  0  0  0  0  0
  -27.5578  -37.1800   24.8464 C   0  0  0  0  0  0
  -21.4202  -29.3053   22.3660 N   0  0  0  0  0  0
  -26.4291  -37.3771   23.9406 N   0  0  0  0  0  0
  -24.6950  -31.0559   22.0986 N   0  0  0  0  0  0
  -23.4204  -28.8150   23.3002 O   0  0  0  0  0  0
  -28.3092  -26.3821   20.1555 O   0  0  0  0  0  0
  -26.5628  -34.8913   22.4667 O   0  0  0  0  0  0
  -23.5454  -32.1390   23.7320 O   0  0  0  0  0  0
  -30.4113  -21.6365   23.5897 C   0  0  0  0  0  0
  -30.4954  -20.2540   23.7933 C   0  0  0  0  0  0
  -29.6487  -21.3073   21.4010 C   0  0  0  0  0  0
  -29.7719  -19.8407   21.6003 C   0  0  0  0  0  0
  -29.7636  -23.6046   18.7539 C   0  0  0  0  0  0
  -29.1507  -22.2109   20.2032 C   0  0  1  0  0  0
  -29.2288  -23.8421   20.1638 C   0  0  2  0  0  0
  -30.1592  -21.2402   18.1086 C   0  0  0  0  0  0
  -29.3885  -18.5699   20.7286 C   0  0  0  0  0  0
  -28.0442  -24.9079   20.3021 C   0  0  0  0  0  0
  -30.3997  -17.2891   20.7608 C   0  0  0  0  0  0
  -29.9899  -22.1454   22.4151 N   0  0  0  0  0  0
  -30.1676  -19.3829   22.8183 N   0  0  0  0  0  0
  -29.8906  -15.8506   20.6977 N   0  0  0  0  0  0
  -30.1877  -22.2690   19.1669 N   0  3  1  0  0  0
  -31.4723  -12.5543   19.1630 H   0  0  0  0  0  0
  -30.3665  -11.4577   19.9441 H   0  0  0  0  0  0
  -29.7856  -11.7355   17.5086 H   0  0  0  0  0  0
  -29.6399  -13.4626   17.7242 H   0  0  0  0  0  0
  -27.8835  -11.2862   18.9015 H   0  0  0  0  0  0
  -27.3763  -12.5367   17.7971 H   0  0  0  0  0  0
  -27.6418  -14.2545   19.4774 H   0  0  0  0  0  0
  -28.7185  -12.1563   21.4235 H   0  0  0  0  0  0
  -28.4328  -13.8371   21.7965 H   0  0  0  0  0  0
  -25.2758   -9.5692   22.4762 H   0  0  0  0  0  0
  -24.0000   -7.4641   22.7471 H   0  0  0  0  0  0
  -21.0843   -8.8780   19.8957 H   0  0  0  0  0  0
  -22.3694  -10.9678   19.6169 H   0  0  0  0  0  0
  -21.2009   -7.6145   23.9717 H   0  0  0  0  0  0
  -21.1484   -6.0518   25.9078 H   0  0  0  0  0  0
  -22.0597   -2.7607   23.2841 H   0  0  0  0  0  0
  -22.4064  -11.9901   22.4827 H   0  0  0  0  0  0
  -21.1078  -13.1267   22.2602 H   0  0  0  0  0  0
  -24.6498  -15.8432   20.5145 H   0  0  0  0  0  0
  -26.2611  -15.6306   20.0564 H   0  0  0  0  0  0
  -26.7197  -32.5419   23.1093 H   0  0  0  0  0  0
  -25.0071  -33.9716   25.0407 H   0  0  0  0  0  0
  -22.7205  -31.3059   21.4030 H   0  0  0  0  0  0
  -23.3753  -35.9620   23.3299 H   0  0  0  0  0  0
  -24.3580  -36.8911   22.2052 H   0  0  0  0  0  0
  -23.7248  -37.6489   23.6664 H   0  0  0  0  0  0
  -26.1140  -31.5366   20.6151 H   0  0  0  0  0  0
  -26.8486  -30.8181   22.0164 H   0  0  0  0  0  0
  -28.1171  -28.9303   21.2011 H   0  0  0  0  0  0
  -25.9324  -25.9489   18.9474 H   0  0  0  0  0  0
  -23.9643  -27.3319   18.9887 H   0  0  0  0  0  0
  -23.7695  -30.6021   19.4073 H   0  0  0  0  0  0
  -22.7597  -29.2597   19.8525 H   0  0  0  0  0  0
  -25.1300  -36.1922   25.0817 H   0  0  0  0  0  0
  -20.9990  -28.3281   24.1389 H   0  0  0  0  0  0
  -20.5689  -26.2314   23.3611 H   0  0  0  0  0  0
  -21.6648  -26.7452   22.1194 H   0  0  0  0  0  0
  -19.6917  -25.6296   21.1247 H   0  0  0  0  0  0
  -19.6686  -27.3193   20.6740 H   0  0  0  0  0  0
  -17.4205  -26.6677   21.4031 H   0  0  0  0  0  0
  -18.0333  -26.0075   22.9025 H   0  0  0  0  0  0
  -19.7940  -30.7277   24.2264 H   0  0  0  0  0  0
  -17.5018  -31.6271   24.5162 H   0  0  0  0  0  0
  -15.5355  -30.2990   23.7656 H   0  0  0  0  0  0
  -15.8676  -28.0821   22.7075 H   0  0  0  0  0  0
  -24.5904  -30.7081   25.7783 H   0  0  0  0  0  0
  -24.8909  -32.2910   26.4856 H   0  0  0  0  0  0
  -25.8036  -30.8932   27.0244 H   0  0  0  0  0  0
  -26.2924  -29.6747   24.1234 H   0  0  0  0  0  0
  -27.3987  -29.7252   25.4757 H   0  0  0  0  0  0
  -27.8823  -30.4252   23.9494 H   0  0  0  0  0  0
  -27.2656  -33.3629   26.2072 H   0  0  0  0  0  0
  -28.3869  -32.6881   25.0343 H   0  0  0  0  0  0
  -28.0714  -31.8463   26.5438 H   0  0  0  0  0  0
  -28.2593  -38.0098   24.7506 H   0  0  0  0  0  0
  -28.1076  -36.2630   24.6296 H   0  0  0  0  0  0
  -27.2296  -37.1454   25.8866 H   0  0  0  0  0  0
  -20.9382  -29.8784   21.6874 H   0  0  0  0  0  0
  -26.0170  -38.2845   24.1404 H   0  0  0  0  0  0
  -30.6732  -22.3351   24.3710 H   0  0  0  0  0  0
  -30.8217  -19.8463   24.7389 H   0  0  0  0  0  0
  -30.5829  -24.2605   18.4574 H   0  0  0  0  0  0
  -28.9750  -23.5878   17.9986 H   0  0  0  0  0  0
  -28.2029  -21.8446   19.8034 H   0  0  0  0  0  0
  -30.0648  -24.1681   20.7859 H   0  0  0  0  0  0
  -30.8226  -21.5260   17.2924 H   0  0  0  0  0  0
  -29.1576  -21.1034   17.7006 H   0  0  0  0  0  0
  -30.5127  -20.2865   18.4945 H   0  0  0  0  0  0
  -29.2036  -18.8695   19.6988 H   0  0  0  0  0  0
  -28.4182  -18.2414   21.1017 H   0  0  0  0  0  0
  -27.5784  -24.7785   21.2797 H   0  0  0  0  0  0
  -27.2866  -24.5895   19.5921 H   0  0  0  0  0  0
  -30.9785  -17.3101   21.6830 H   0  0  0  0  0  0
  -31.1465  -17.4315   19.9786 H   0  0  0  0  0  0
  -28.9104  -15.7075   20.8897 H   0  0  0  0  0  0
  -31.0946  -22.3201   19.6056 H   0  0  0  0  0  0
  1 25  1  0  0  0
  1 30  2  0  0  0
  1 84  1  0  0  0
  2  3  1  0  0  0
  2 25  1  0  0  0
  2 86  1  0  0  0
  2 87  1  0  0  0
  3  4  1  0  0  0
  3 88  1  0  0  0
  3 89  1  0  0  0
  4  5  1  0  0  0
  4 90  1  0  0  0
  4 91  1  0  0  0
  5  6  1  0  0  0
  5 26  1  0  0  0
  5 92  1  0  0  0
  6 25  1  0  0  0
  6 93  1  0  0  0
  6 94  1  0  0  0
  7  8  2  0  0  0
  7 26  1  0  0  0
  7 29  1  0  0  0
  8  9  1  0  0  0
  8 22  1  0  0  0
  9 10  1  0  0  0
  9 27  2  0  0  0
 10 11  2  0  0  0
 10 15  1  0  0  0
 11 12  1  0  0  0
 11 95  1  0  0  0
 12 13  2  0  0  0
 12 96  1  0  0  0
 13 14  1  0  0  0
 13 31  1  0  0  0
 14 15  2  0  0  0
 14 97  1  0  0  0
 15 98  1  0  0  0
 16 17  2  0  0  0
 16 21  1  0  0  0
 16 31  1  0  0  0
 17 18  1  0  0  0
 17 99  1  0  0  0
 18 19  2  0  0  0
 18100  1  0  0  0
 19 20  1  0  0  0
 19 24  1  0  0  0
 20 21  2  0  0  0
 20101  1  0  0  0
 21 23  1  0  0  0
 22 28  1  0  0  0
 22 32  2  0  0  0
 26 27  1  0  0  0
 28102  1  0  0  0
 28103  1  0  0  0
 29104  1  0  0  0
 29105  1  0  0  0
 33 34  1  0  0  0
 33 66  1  0  0  0
 33 70  2  0  0  0
 34 36  1  0  0  0
 34 59  1  0  0  0
 34106  1  0  0  0
 35 44  2  0  0  0
 35 45  1  0  0  0
 35 68  1  0  0  0
 36 56  1  0  0  0
 36107  1  0  0  0
 37 39  1  0  0  0
 37 47  1  0  0  0
 37 66  1  0  0  0
 37108  1  0  0  0
 38 43  2  0  0  0
 38 46  1  0  0  0
 38 47  1  0  0  0
 39 64  1  0  0  0
 39 67  2  0  0  0
 40 52  1  0  0  0
 40 53  2  0  0  0
 40 58  1  0  0  0
 41109  1  0  0  0
 41110  1  0  0  0
 41111  1  0  0  0
 41 48  1  0  0  0
 42 43  1  0  0  0
 42 66  1  0  0  0
 42112  1  0  0  0
 42113  1  0  0  0
 43 44  1  0  0  0
 44114  1  0  0  0
 45 46  2  0  0  0
 45115  1  0  0  0
 46116  1  0  0  0
 47117  1  0  0  0
 47118  1  0  0  0
 48 56  1  0  0  0
 48 65  1  0  0  0
 48119  1  0  0  0
 49 50  1  0  0  0
 49 53  1  0  0  0
 49 64  1  0  0  0
 49120  1  0  0  0
 50 51  1  0  0  0
 50121  1  0  0  0
 50122  1  0  0  0
 51 52  1  0  0  0
 51123  1  0  0  0
 51124  1  0  0  0
 52125  1  0  0  0
 52126  1  0  0  0
 53 54  1  0  0  0
 54 55  2  0  0  0
 54127  1  0  0  0
 55 57  1  0  0  0
 55128  1  0  0  0
 56 69  2  0  0  0
 57 58  2  0  0  0
 57129  1  0  0  0
 58130  1  0  0  0
 59 60  1  0  0  0
 59 61  1  0  0  0
 59 62  1  0  0  0
 60131  1  0  0  0
 60132  1  0  0  0
 60133  1  0  0  0
 61134  1  0  0  0
 61135  1  0  0  0
 61136  1  0  0  0
 62137  1  0  0  0
 62138  1  0  0  0
 62139  1  0  0  0
 63 65  1  0  0  0
 63140  1  0  0  0
 63141  1  0  0  0
 63142  1  0  0  0
 64143  1  0  0  0
 65144  1  0  0  0
 68 80  1  0  0  0
 71 72  2  0  0  0
 71 82  1  0  0  0
 71145  1  0  0  0
 72 83  1  0  0  0
 72146  1  0  0  0
 73 74  1  0  0  0
 73 82  2  0  0  0
 73 76  1  0  0  0
 74 79  1  0  0  0
 74 83  2  0  0  0
 75 77  1  0  0  0
 75 85  1  0  0  0
 75147  1  0  0  0
 75148  1  0  0  0
 76 77  1  0  0  0
 76 85  1  0  0  0
 76149  1  0  0  0
 77 80  1  0  0  0
 77150  1  0  0  0
 78151  1  0  0  0
 78152  1  0  0  0
 78153  1  0  0  0
 78 85  1  0  0  0
 79 81  1  0  0  0
 79154  1  0  0  0
 79155  1  0  0  0
 80156  1  0  0  0
 80157  1  0  0  0
 81 84  1  0  0  0
 81158  1  0  0  0
 81159  1  0  0  0
 84160  1  0  0  0
 85161  1  0  0  0
M  CHG  1  85   1
M  ISO  4   1 100  68 101  80 101  84 100
M  END
> <chiral flag>
0

> <version>
0

> <s_m_source_file>
/data/baiqing/PycharmProjects/Reinvent-master-3.2/result/LINK_invent/BTK/process_docking_weight1_custom_sum_contain_oxygen_bond_distance_aromatic_linkinvent_7_9_3/rearranged_h_0188.sdf

> <i_m_source_file_index>
17

> <r_mmod_Potential_Energy-OPLS-2005>
28.6361923217773

> <r_mmod_Stretch_Energy-OPLS-2005>
129.718994140625

> <r_mmod_Bend_Energy-OPLS-2005>
212.180801391602

> <r_mmod_Torsional_Energy-OPLS-2005>
234.844192504883

> <r_mmod_Improper_Torsional_Energy-OPLS-2005>
4.76454925537109

> <r_mmod_Van_der_Waal_Energy-OPLS-2005>
148.548553466797

> <r_mmod_Electrostatic_Energy-OPLS-2005>
-282.748809814453

> <r_mmod_Solvation_Energy-OPLS-2005>
-493.054138183594

> <b_mmod_Minimization_Converged-OPLS-2005>
0

> <r_mmod_RMS_Derivative-OPLS-2005>
0.74881112575531

$$$$
17
                    3D
 Structure written by MMmdl.
151160  0  0  1  0            999 V2000
  -30.4693  -15.2011   20.3872 C   0  0  0  0  0  0
  -30.4344  -12.7670   19.5182 C   0  0  0  0  0  0
  -29.5277  -12.5582   18.2807 C   0  0  0  0  0  0
  -28.0732  -12.2982   18.7101 C   0  0  0  0  0  0
  -27.6118  -13.2709   19.8252 C   0  0  2  0  0  0
  -28.6481  -13.4271   20.9572 C   0  0  0  0  0  0
  -25.2407  -13.8249   20.5760 C   0  0  0  0  0  0
  -24.1740  -13.0448   20.9246 C   0  0  0  0  0  0
  -24.6383  -11.6943   20.8763 C   0  0  0  0  0  0
  -23.9081  -10.4297   21.0403 C   0  0  0  0  0  0
  -24.3633   -9.4210   21.9178 C   0  0  0  0  0  0
  -23.6303   -8.2246   22.0748 C   0  0  0  0  0  0
  -22.4282   -8.0280   21.3541 C   0  0  0  0  0  0
  -21.9922   -9.0253   20.4641 C   0  0  0  0  0  0
  -22.7253  -10.2133   20.3049 C   0  0  0  0  0  0
  -21.6856   -6.0734   22.5273 C   0  0  0  0  0  0
  -21.4012   -6.5638   23.8206 C   0  0  0  0  0  0
  -21.3662   -5.6792   24.9170 C   0  0  0  0  0  0
  -21.6048   -4.3054   24.7220 C   0  0  0  0  0  0
  -21.8822   -3.8143   23.4340 C   0  0  0  0  0  0
  -21.9194   -4.6961   22.3397 C   0  0  0  0  0  0
  -22.7757  -13.5201   21.1898 C   0  0  0  0  0  0
  -22.1664   -4.2149   21.0976 F   0  0  0  0  0  0
  -21.5633   -3.4536   25.7733 F   0  0  0  0  0  0
  -29.8818  -13.9128   20.3247 N   0  0  0  0  0  0
  -26.2818  -12.9510   20.3243 N   0  0  0  0  0  0
  -25.9320  -11.6620   20.5738 N   0  0  0  0  0  0
  -22.0428  -12.8173   22.0456 N   0  0  0  0  0  0
  -25.4089  -15.1984   20.4244 N   0  0  0  0  0  0
  -31.6917  -15.1859   20.1834 O   0  0  0  0  0  0
  -21.6644   -6.8876   21.4234 O   0  0  0  0  0  0
  -22.3434  -14.5500   20.6741 O   0  0  0  0  0  0
  -24.6594  -31.8271   23.1724 C   0  0  0  0  0  0
  -25.9292  -32.4597   23.8165 C   0  0  1  0  0  0
  -27.2116  -26.9564   20.1851 C   0  0  0  0  0  0
  -25.5982  -33.8409   24.2083 N   0  0  0  0  0  0
  -23.4711  -30.4410   21.5210 C   0  0  2  0  0  0
  -24.9218  -28.8342   20.1104 C   0  0  0  0  0  0
  -22.7644  -29.4458   22.4773 C   0  0  0  0  0  0
  -18.0325  -28.1402   22.8477 C   0  0  0  0  0  0
  -24.1485  -36.7196   23.2647 C   0  0  0  0  0  0
  -26.0376  -30.6439   21.3964 C   0  0  0  0  0  0
  -26.1041  -29.2362   20.7433 C   0  0  0  0  0  0
  -27.2435  -28.3179   20.7571 C   0  0  0  0  0  0
  -26.0030  -26.7030   19.4973 C   0  0  0  0  0  0
  -24.8965  -27.5878   19.4657 C   0  0  0  0  0  0
  -23.7075  -29.7598   20.1451 C   0  0  0  0  0  0
  -25.4124  -36.2967   24.0309 C   0  0  1  0  0  0
  -20.5948  -28.3739   23.1195 C   0  0  2  0  0  0
  -20.6794  -26.9421   22.5408 C   0  0  0  0  0  0
  -19.5764  -26.6371   21.5222 C   0  0  0  0  0  0
  -18.1949  -26.7936   22.1627 C   0  0  0  0  0  0
  -19.1588  -28.8886   23.2826 C   0  0  0  0  0  0
  -18.9500  -30.1477   23.8856 C   0  0  0  0  0  0
  -17.6497  -30.6597   24.0564 C   0  0  0  0  0  0
  -25.9096  -34.9356   23.5012 C   0  0  0  0  0  0
  -16.5382  -29.9097   23.6346 C   0  0  0  0  0  0
  -16.7310  -28.6513   23.0370 C   0  0  0  0  0  0
  -26.4549  -31.6532   25.0685 C   0  0  0  0  0  0
  -25.3689  -31.3805   26.1353 C   0  0  0  0  0  0
  -27.0430  -30.2899   24.6390 C   0  0  0  0  0  0
  -27.6033  -32.4348   25.7493 C   0  0  0  0  0  0
  -27.5555  -37.1753   24.8466 C   0  0  0  0  0  0
  -21.4319  -29.3040   22.3543 N   0  0  0  0  0  0
  -26.4261  -37.3711   23.9419 N   0  0  0  0  0  0
  -24.7440  -30.9966   22.0836 N   0  0  0  0  0  0
  -23.4215  -28.8015   23.2988 O   0  0  0  0  0  0
  -28.2298  -25.8763   20.2652 O   0  0  0  0  0  0
  -26.5695  -34.8896   22.4602 O   0  0  0  0  0  0
  -23.5673  -32.1222   23.6841 O   0  0  0  0  0  0
  -29.5547  -17.6121   21.3851 C   0  0  0  0  0  0
  -30.0618  -17.7305   19.4851 C   0  0  0  0  0  0
  -28.2555  -23.0608   21.2156 C   0  0  0  0  0  0
  -29.0373  -23.1648   19.4335 C   0  0  0  0  0  0
  -29.2020  -18.8161   20.3371 C   0  0  0  0  0  0
  -28.0267  -24.2494   20.1164 C   0  0  2  0  0  0
  -29.4803  -20.5786   20.5253 C   0  0  0  0  0  0
  -29.7292  -16.4850   20.3421 N   0  0  0  0  0  0
  -28.5478  -21.9142   20.2097 N   0  3  1  0  0  0
  -31.4550  -12.9617   19.1859 H   0  0  0  0  0  0
  -30.4916  -11.8583   20.1201 H   0  0  0  0  0  0
  -29.8953  -11.7267   17.6772 H   0  0  0  0  0  0
  -29.5693  -13.4435   17.6447 H   0  0  0  0  0  0
  -28.0186  -11.2715   19.0753 H   0  0  0  0  0  0
  -27.4029  -12.3540   17.8516 H   0  0  0  0  0  0
  -27.5334  -14.2425   19.3360 H   0  0  0  0  0  0
  -28.8047  -12.4902   21.4941 H   0  0  0  0  0  0
  -28.2993  -14.1556   21.6916 H   0  0  0  0  0  0
  -25.2774   -9.5687   22.4757 H   0  0  0  0  0  0
  -24.0013   -7.4632   22.7468 H   0  0  0  0  0  0
  -21.0852   -8.8767   19.8943 H   0  0  0  0  0  0
  -22.3701  -10.9671   19.6158 H   0  0  0  0  0  0
  -21.1998   -7.6146   23.9708 H   0  0  0  0  0  0
  -21.1486   -6.0522   25.9077 H   0  0  0  0  0  0
  -22.0599   -2.7604   23.2836 H   0  0  0  0  0  0
  -22.4075  -11.9834   22.4818 H   0  0  0  0  0  0
  -21.1032  -13.1150   22.2669 H   0  0  0  0  0  0
  -24.6488  -15.8567   20.5551 H   0  0  0  0  0  0
  -26.2735  -15.6404   20.1366 H   0  0  0  0  0  0
  -26.7363  -32.5139   23.0883 H   0  0  0  0  0  0
  -25.0109  -33.9486   25.0225 H   0  0  0  0  0  0
  -22.7818  -31.2715   21.3533 H   0  0  0  0  0  0
  -23.3750  -35.9514   23.3277 H   0  0  0  0  0  0
  -24.3576  -36.8863   22.2064 H   0  0  0  0  0  0
  -23.7230  -37.6377   23.6716 H   0  0  0  0  0  0
  -26.2130  -31.3851   20.6152 H   0  0  0  0  0  0
  -26.9000  -30.6999   22.0476 H   0  0  0  0  0  0
  -28.1386  -28.6263   21.2786 H   0  0  0  0  0  0
  -25.8722  -25.7593   18.9905 H   0  0  0  0  0  0
  -24.0008  -27.2757   18.9480 H   0  0  0  0  0  0
  -23.8603  -30.5305   19.3887 H   0  0  0  0  0  0
  -22.8159  -29.2149   19.8289 H   0  0  0  0  0  0
  -25.1334  -36.1740   25.0801 H   0  0  0  0  0  0
  -21.0065  -28.3324   24.1303 H   0  0  0  0  0  0
  -20.5670  -26.2360   23.3651 H   0  0  0  0  0  0
  -21.6662  -26.7406   22.1207 H   0  0  0  0  0  0
  -19.6943  -25.6282   21.1257 H   0  0  0  0  0  0
  -19.6690  -27.3176   20.6747 H   0  0  0  0  0  0
  -17.4229  -26.6687   21.4022 H   0  0  0  0  0  0
  -18.0326  -26.0096   22.9034 H   0  0  0  0  0  0
  -19.7980  -30.7305   24.2193 H   0  0  0  0  0  0
  -17.5059  -31.6276   24.5167 H   0  0  0  0  0  0
  -15.5382  -30.2992   23.7698 H   0  0  0  0  0  0
  -15.8704  -28.0826   22.7110 H   0  0  0  0  0  0
  -24.5894  -30.7119   25.7691 H   0  0  0  0  0  0
  -24.8849  -32.3009   26.4621 H   0  0  0  0  0  0
  -25.7940  -30.9098   27.0227 H   0  0  0  0  0  0
  -26.3088  -29.6578   24.1378 H   0  0  0  0  0  0
  -27.3954  -29.7259   25.5036 H   0  0  0  0  0  0
  -27.9038  -30.4077   23.9804 H   0  0  0  0  0  0
  -27.2605  -33.3725   26.1886 H   0  0  0  0  0  0
  -28.3945  -32.6778   25.0389 H   0  0  0  0  0  0
  -28.0573  -31.8576   26.5554 H   0  0  0  0  0  0
  -28.2565  -38.0060   24.7527 H   0  0  0  0  0  0
  -28.1065  -36.2590   24.6282 H   0  0  0  0  0  0
  -27.2276  -37.1390   25.8871 H   0  0  0  0  0  0
  -20.9546  -29.8749   21.6705 H   0  0  0  0  0  0
  -26.0089  -38.2756   24.1450 H   0  0  0  0  0  0
  -28.7367  -17.4307   22.0840 H   0  0  0  0  0  0
  -30.4637  -17.8082   21.9593 H   0  0  0  0  0  0
  -31.1299  -17.9619   19.4695 H   0  0  0  0  0  0
  -29.7120  -17.6528   18.4554 H   0  0  0  0  0  0
  -27.3741  -22.8538   21.8233 H   0  0  0  0  0  0
  -29.1063  -23.2495   21.8764 H   0  0  0  0  0  0
  -30.0879  -23.3823   19.6411 H   0  0  0  0  0  0
  -28.9004  -23.0659   18.3563 H   0  0  0  0  0  0
  -28.1582  -18.6763   20.0545 H   0  0  0  0  0  0
  -27.0442  -24.0927   19.6736 H   0  0  0  0  0  0
  -30.4055  -20.7921   19.9910 H   0  0  0  0  0  0
  -29.7655  -20.7228   21.5667 H   0  0  0  0  0  0
  -27.6760  -21.6045   19.8093 H   0  0  0  0  0  0
  1 25  1  0  0  0
  1 30  2  0  0  0
  1 78  1  0  0  0
  2  3  1  0  0  0
  2 25  1  0  0  0
  2 80  1  0  0  0
  2 81  1  0  0  0
  3  4  1  0  0  0
  3 82  1  0  0  0
  3 83  1  0  0  0
  4  5  1  0  0  0
  4 84  1  0  0  0
  4 85  1  0  0  0
  5  6  1  0  0  0
  5 26  1  0  0  0
  5 86  1  0  0  0
  6 25  1  0  0  0
  6 87  1  0  0  0
  6 88  1  0  0  0
  7  8  2  0  0  0
  7 26  1  0  0  0
  7 29  1  0  0  0
  8  9  1  0  0  0
  8 22  1  0  0  0
  9 10  1  0  0  0
  9 27  2  0  0  0
 10 11  2  0  0  0
 10 15  1  0  0  0
 11 12  1  0  0  0
 11 89  1  0  0  0
 12 13  2  0  0  0
 12 90  1  0  0  0
 13 14  1  0  0  0
 13 31  1  0  0  0
 14 15  2  0  0  0
 14 91  1  0  0  0
 15 92  1  0  0  0
 16 17  2  0  0  0
 16 21  1  0  0  0
 16 31  1  0  0  0
 17 18  1  0  0  0
 17 93  1  0  0  0
 18 19  2  0  0  0
 18 94  1  0  0  0
 19 20  1  0  0  0
 19 24  1  0  0  0
 20 21  2  0  0  0
 20 95  1  0  0  0
 21 23  1  0  0  0
 22 28  1  0  0  0
 22 32  2  0  0  0
 26 27  1  0  0  0
 28 96  1  0  0  0
 28 97  1  0  0  0
 29 98  1  0  0  0
 29 99  1  0  0  0
 33 34  1  0  0  0
 33 66  1  0  0  0
 33 70  2  0  0  0
 34 36  1  0  0  0
 34 59  1  0  0  0
 34100  1  0  0  0
 35 44  2  0  0  0
 35 45  1  0  0  0
 35 68  1  0  0  0
 36 56  1  0  0  0
 36101  1  0  0  0
 37 39  1  0  0  0
 37 47  1  0  0  0
 37 66  1  0  0  0
 37102  1  0  0  0
 38 43  2  0  0  0
 38 46  1  0  0  0
 38 47  1  0  0  0
 39 64  1  0  0  0
 39 67  2  0  0  0
 40 52  1  0  0  0
 40 53  2  0  0  0
 40 58  1  0  0  0
 41103  1  0  0  0
 41104  1  0  0  0
 41105  1  0  0  0
 41 48  1  0  0  0
 42 43  1  0  0  0
 42 66  1  0  0  0
 42106  1  0  0  0
 42107  1  0  0  0
 43 44  1  0  0  0
 44108  1  0  0  0
 45 46  2  0  0  0
 45109  1  0  0  0
 46110  1  0  0  0
 47111  1  0  0  0
 47112  1  0  0  0
 48 56  1  0  0  0
 48 65  1  0  0  0
 48113  1  0  0  0
 49 50  1  0  0  0
 49 53  1  0  0  0
 49 64  1  0  0  0
 49114  1  0  0  0
 50 51  1  0  0  0
 50115  1  0  0  0
 50116  1  0  0  0
 51 52  1  0  0  0
 51117  1  0  0  0
 51118  1  0  0  0
 52119  1  0  0  0
 52120  1  0  0  0
 53 54  1  0  0  0
 54 55  2  0  0  0
 54121  1  0  0  0
 55 57  1  0  0  0
 55122  1  0  0  0
 56 69  2  0  0  0
 57 58  2  0  0  0
 57123  1  0  0  0
 58124  1  0  0  0
 59 60  1  0  0  0
 59 61  1  0  0  0
 59 62  1  0  0  0
 60125  1  0  0  0
 60126  1  0  0  0
 60127  1  0  0  0
 61128  1  0  0  0
 61129  1  0  0  0
 61130  1  0  0  0
 62131  1  0  0  0
 62132  1  0  0  0
 62133  1  0  0  0
 63 65  1  0  0  0
 63134  1  0  0  0
 63135  1  0  0  0
 63136  1  0  0  0
 64137  1  0  0  0
 65138  1  0  0  0
 68 76  1  0  0  0
 71 75  1  0  0  0
 71 78  1  0  0  0
 71139  1  0  0  0
 71140  1  0  0  0
 72 75  1  0  0  0
 72 78  1  0  0  0
 72141  1  0  0  0
 72142  1  0  0  0
 73 76  1  0  0  0
 73 79  1  0  0  0
 73143  1  0  0  0
 73144  1  0  0  0
 74 76  1  0  0  0
 74 79  1  0  0  0
 74145  1  0  0  0
 74146  1  0  0  0
 75 77  1  0  0  0
 75147  1  0  0  0
 76148  1  0  0  0
 77149  1  0  0  0
 77150  1  0  0  0
 77 79  1  0  0  0
 79151  1  0  0  0
M  CHG  1  79   1
M  ISO  4   1 100  68 101  76 101  78 100
M  END
> <chiral flag>
0

> <version>
0

> <s_m_source_file>
/data/baiqing/PycharmProjects/Reinvent-master-3.2/result/LINK_invent/BTK/process_docking_weight1_custom_sum_contain_oxygen_bond_distance_aromatic_linkinvent_7_9_3/rearranged_h_0188.sdf

> <i_m_source_file_index>
18

> <r_mmod_Potential_Energy-OPLS-2005>
997.82421875

> <r_mmod_Stretch_Energy-OPLS-2005>
460.547241210938

> <r_mmod_Bend_Energy-OPLS-2005>
444.987945556641

> <r_mmod_Torsional_Energy-OPLS-2005>
296.478240966797

> <r_mmod_Improper_Torsional_Energy-OPLS-2005>
15.3838348388672

> <r_mmod_Van_der_Waal_Energy-OPLS-2005>
114.651107788086

> <r_mmod_Electrostatic_Energy-OPLS-2005>
-248.290771484375

> <r_mmod_Solvation_Energy-OPLS-2005>
-486.838409423828

> <b_mmod_Minimization_Converged-OPLS-2005>
0

> <r_mmod_RMS_Derivative-OPLS-2005>
1.71933901309967

$$$$
18
                    3D
 Structure written by MMmdl.
161170  0  0  1  0            999 V2000
  -30.7472  -14.3762   20.5439 C   0  0  0  0  0  0
  -30.4053  -12.2453   19.4075 C   0  0  0  0  0  0
  -29.4820  -12.4827   18.1968 C   0  0  0  0  0  0
  -28.0024  -12.3743   18.6106 C   0  0  0  0  0  0
  -27.6631  -13.2028   19.8799 C   0  0  2  0  0  0
  -28.7061  -12.9649   20.9971 C   0  0  0  0  0  0
  -25.2602  -13.8187   20.5722 C   0  0  0  0  0  0
  -24.1843  -13.0471   20.9177 C   0  0  0  0  0  0
  -24.6383  -11.6922   20.8736 C   0  0  0  0  0  0
  -23.9047  -10.4302   21.0388 C   0  0  0  0  0  0
  -24.3597   -9.4219   21.9167 C   0  0  0  0  0  0
  -23.6280   -8.2253   22.0738 C   0  0  0  0  0  0
  -22.4263   -8.0279   21.3525 C   0  0  0  0  0  0
  -21.9886   -9.0256   20.4630 C   0  0  0  0  0  0
  -22.7213  -10.2136   20.3045 C   0  0  0  0  0  0
  -21.6861   -6.0722   22.5261 C   0  0  0  0  0  0
  -21.4021   -6.5629   23.8195 C   0  0  0  0  0  0
  -21.3654   -5.6776   24.9155 C   0  0  0  0  0  0
  -21.6050   -4.3042   24.7208 C   0  0  0  0  0  0
  -21.8835   -3.8132   23.4332 C   0  0  0  0  0  0
  -21.9202   -4.6950   22.3390 C   0  0  0  0  0  0
  -22.7853  -13.5243   21.1828 C   0  0  0  0  0  0
  -22.1671   -4.2137   21.0966 F   0  0  0  0  0  0
  -21.5626   -3.4531   25.7723 F   0  0  0  0  0  0
  -30.0425  -13.2257   20.4366 N   0  0  0  0  0  0
  -26.3035  -12.9343   20.3410 N   0  0  0  0  0  0
  -25.9310  -11.6502   20.5779 N   0  0  0  0  0  0
  -22.0498  -12.8226   22.0372 N   0  0  0  0  0  0
  -25.4368  -15.1915   20.4162 N   0  0  0  0  0  0
  -31.8906  -14.5216   20.1034 O   0  0  0  0  0  0
  -21.6645   -6.8867   21.4221 O   0  0  0  0  0  0
  -22.3527  -14.5536   20.6655 O   0  0  0  0  0  0
  -24.6106  -31.8714   23.2116 C   0  0  0  0  0  0
  -25.9016  -32.4837   23.8390 C   0  0  1  0  0  0
  -27.2352  -27.4674   20.0833 C   0  0  0  0  0  0
  -25.5874  -33.8635   24.2320 N   0  0  0  0  0  0
  -23.3957  -30.4951   21.5534 C   0  0  2  0  0  0
  -24.8392  -28.9642   20.1159 C   0  0  0  0  0  0
  -22.7367  -29.4696   22.5017 C   0  0  0  0  0  0
  -18.0241  -28.1314   22.8567 C   0  0  0  0  0  0
  -24.1484  -36.7324   23.2640 C   0  0  0  0  0  0
  -25.9209  -30.8438   21.3624 C   0  0  0  0  0  0
  -25.9969  -29.4814   20.7096 C   0  0  0  0  0  0
  -27.1939  -28.7374   20.6964 C   0  0  0  0  0  0
  -26.0570  -26.9629   19.4803 C   0  0  0  0  0  0
  -24.8626  -27.7015   19.5016 C   0  0  0  0  0  0
  -23.5984  -29.8207   20.1705 C   0  0  0  0  0  0
  -25.4098  -36.3121   24.0347 C   0  0  1  0  0  0
  -20.5847  -28.3623   23.1277 C   0  0  2  0  0  0
  -20.6736  -26.9383   22.5261 C   0  0  0  0  0  0
  -19.5588  -26.6336   21.5173 C   0  0  0  0  0  0
  -18.1866  -26.7817   22.1779 C   0  0  0  0  0  0
  -19.1504  -28.8786   23.2942 C   0  0  0  0  0  0
  -18.9435  -30.1391   23.8957 C   0  0  0  0  0  0
  -17.6443  -30.6551   24.0601 C   0  0  0  0  0  0
  -25.9017  -34.9488   23.5123 C   0  0  0  0  0  0
  -16.5333  -29.9071   23.6340 C   0  0  0  0  0  0
  -16.7237  -28.6474   23.0398 C   0  0  0  0  0  0
  -26.4449  -31.6607   25.0705 C   0  0  0  0  0  0
  -25.3730  -31.3719   26.1459 C   0  0  0  0  0  0
  -27.0259  -30.3044   24.6069 C   0  0  0  0  0  0
  -27.6007  -32.4337   25.7485 C   0  0  0  0  0  0
  -27.5575  -37.1818   24.8463 C   0  0  0  0  0  0
  -21.4103  -29.3054   22.3743 N   0  0  0  0  0  0
  -26.4291  -37.3798   23.9400 N   0  0  0  0  0  0
  -24.6602  -31.0844   22.1010 N   0  0  0  0  0  0
  -23.4162  -28.8224   23.3036 O   0  0  0  0  0  0
  -28.4226  -26.7695   20.1126 O   0  0  0  0  0  0
  -26.5595  -34.8940   22.4696 O   0  0  0  0  0  0
  -23.5313  -32.1450   23.7543 O   0  0  0  0  0  0
  -27.6897  -18.8932   21.6319 C   0  0  0  0  0  0
  -29.2173  -18.6555   19.4139 C   0  0  0  0  0  0
  -27.6216  -19.8364   20.5738 C   0  0  0  0  0  0
  -29.3561  -17.7791   20.5156 C   0  0  0  0  0  0
  -26.1957  -21.4557   22.0262 C   0  0  0  0  0  0
  -26.0299  -22.9841   22.0173 C   0  0  0  0  0  0
  -27.6661  -22.3637   20.4068 C   0  0  0  0  0  0
  -26.8066  -21.1208   20.6580 C   0  0  2  0  0  0
  -30.4859  -16.7833   20.5725 C   0  0  0  0  0  0
  -27.6753  -24.7103   21.2531 C   0  0  0  0  0  0
  -28.3703  -25.3438   20.0175 C   0  0  0  0  0  0
  -28.3390  -19.6818   19.4350 N   0  0  0  0  0  0
  -28.5629  -17.8604   21.6099 N   0  0  0  0  0  0
  -30.0485  -15.4403   20.9317 N   0  0  0  0  0  0
  -26.8760  -23.5021   20.9152 N   0  3  2  0  0  0
  -31.4493  -12.3213   19.0978 H   0  0  0  0  0  0
  -30.2798  -11.2326   19.7942 H   0  0  0  0  0  0
  -29.6992  -11.7519   17.4167 H   0  0  0  0  0  0
  -29.6786  -13.4640   17.7584 H   0  0  0  0  0  0
  -27.7884  -11.3196   18.7882 H   0  0  0  0  0  0
  -27.3588  -12.6751   17.7842 H   0  0  0  0  0  0
  -27.7156  -14.2538   19.5979 H   0  0  0  0  0  0
  -28.6571  -11.9329   21.3472 H   0  0  0  0  0  0
  -28.4913  -13.5825   21.8709 H   0  0  0  0  0  0
  -25.2746   -9.5709   22.4731 H   0  0  0  0  0  0
  -23.9999   -7.4648   22.7457 H   0  0  0  0  0  0
  -21.0818   -8.8774   19.8929 H   0  0  0  0  0  0
  -22.3670  -10.9676   19.6156 H   0  0  0  0  0  0
  -21.2020   -7.6134   23.9695 H   0  0  0  0  0  0
  -21.1450   -6.0499   25.9054 H   0  0  0  0  0  0
  -22.0618   -2.7597   23.2837 H   0  0  0  0  0  0
  -22.4120  -11.9903   22.4777 H   0  0  0  0  0  0
  -21.1103  -13.1212   22.2572 H   0  0  0  0  0  0
  -24.6814  -15.8533   20.5568 H   0  0  0  0  0  0
  -26.2954  -15.6295   20.1077 H   0  0  0  0  0  0
  -26.7106  -32.5565   23.1179 H   0  0  0  0  0  0
  -25.0035  -33.9803   25.0468 H   0  0  0  0  0  0
  -22.6856  -31.3117   21.4137 H   0  0  0  0  0  0
  -23.3741  -35.9663   23.3324 H   0  0  0  0  0  0
  -24.3574  -36.8903   22.2046 H   0  0  0  0  0  0
  -23.7244  -37.6546   23.6632 H   0  0  0  0  0  0
  -26.0298  -31.6083   20.5920 H   0  0  0  0  0  0
  -26.8113  -30.8970   21.9779 H   0  0  0  0  0  0
  -28.0844  -29.1270   21.1715 H   0  0  0  0  0  0
  -26.0324  -26.0073   18.9804 H   0  0  0  0  0  0
  -23.9724  -27.2964   19.0391 H   0  0  0  0  0  0
  -23.6980  -30.5854   19.4015 H   0  0  0  0  0  0
  -22.7260  -29.2298   19.8852 H   0  0  0  0  0  0
  -25.1283  -36.2000   25.0850 H   0  0  0  0  0  0
  -20.9948  -28.3136   24.1386 H   0  0  0  0  0  0
  -20.5788  -26.2171   23.3394 H   0  0  0  0  0  0
  -21.6549  -26.7491   22.0884 H   0  0  0  0  0  0
  -19.6352  -27.3147   20.6678 H   0  0  0  0  0  0
  -19.6706  -25.6253   21.1165 H   0  0  0  0  0  0
  -17.4002  -26.6437   21.4348 H   0  0  0  0  0  0
  -18.0428  -25.9977   22.9239 H   0  0  0  0  0  0
  -19.7912  -30.7177   24.2355 H   0  0  0  0  0  0
  -17.5014  -31.6238   24.5206 H   0  0  0  0  0  0
  -15.5335  -30.2988   23.7658 H   0  0  0  0  0  0
  -15.8639  -28.0799   22.7086 H   0  0  0  0  0  0
  -24.5890  -30.7080   25.7813 H   0  0  0  0  0  0
  -24.8950  -32.2879   26.4944 H   0  0  0  0  0  0
  -25.8095  -30.8871   27.0192 H   0  0  0  0  0  0
  -26.2793  -29.6852   24.1077 H   0  0  0  0  0  0
  -27.3957  -29.7249   25.4536 H   0  0  0  0  0  0
  -27.8668  -30.4355   23.9250 H   0  0  0  0  0  0
  -27.2585  -33.3605   26.2110 H   0  0  0  0  0  0
  -28.3797  -32.6946   25.0311 H   0  0  0  0  0  0
  -28.0689  -31.8428   26.5366 H   0  0  0  0  0  0
  -28.2613  -38.0099   24.7498 H   0  0  0  0  0  0
  -28.1050  -36.2627   24.6314 H   0  0  0  0  0  0
  -27.2285  -37.1503   25.8867 H   0  0  0  0  0  0
  -20.9282  -29.8731   21.6919 H   0  0  0  0  0  0
  -26.0190  -38.2885   24.1391 H   0  0  0  0  0  0
  -27.0904  -18.9852   22.5247 H   0  0  0  0  0  0
  -29.8452  -18.5758   18.5389 H   0  0  0  0  0  0
  -25.2644  -20.9221   22.2159 H   0  0  0  0  0  0
  -26.8936  -21.2052   22.8266 H   0  0  0  0  0  0
  -26.3015  -23.4104   22.9859 H   0  0  0  0  0  0
  -24.9939  -23.2602   21.8206 H   0  0  0  0  0  0
  -27.9316  -22.4812   19.3551 H   0  0  0  0  0  0
  -28.5924  -22.2925   20.9776 H   0  0  0  0  0  0
  -26.0214  -21.0706   19.9017 H   0  0  0  0  0  0
  -31.2267  -17.1318   21.2923 H   0  0  0  0  0  0
  -30.9740  -16.7811   19.5944 H   0  0  0  0  0  0
  -27.0024  -25.4302   21.7199 H   0  0  0  0  0  0
  -28.4180  -24.4728   22.0166 H   0  0  0  0  0  0
  -27.9140  -25.0421   19.0747 H   0  0  0  0  0  0
  -29.3957  -24.9778   19.9545 H   0  0  0  0  0  0
  -29.1048  -15.3292   21.2688 H   0  0  0  0  0  0
  -26.2211  -23.7482   20.1873 H   0  0  0  0  0  0
  1 25  1  0  0  0
  1 30  2  0  0  0
  1 84  1  0  0  0
  2  3  1  0  0  0
  2 25  1  0  0  0
  2 86  1  0  0  0
  2 87  1  0  0  0
  3  4  1  0  0  0
  3 88  1  0  0  0
  3 89  1  0  0  0
  4  5  1  0  0  0
  4 90  1  0  0  0
  4 91  1  0  0  0
  5  6  1  0  0  0
  5 26  1  0  0  0
  5 92  1  0  0  0
  6 25  1  0  0  0
  6 93  1  0  0  0
  6 94  1  0  0  0
  7  8  2  0  0  0
  7 26  1  0  0  0
  7 29  1  0  0  0
  8  9  1  0  0  0
  8 22  1  0  0  0
  9 10  1  0  0  0
  9 27  2  0  0  0
 10 11  2  0  0  0
 10 15  1  0  0  0
 11 12  1  0  0  0
 11 95  1  0  0  0
 12 13  2  0  0  0
 12 96  1  0  0  0
 13 14  1  0  0  0
 13 31  1  0  0  0
 14 15  2  0  0  0
 14 97  1  0  0  0
 15 98  1  0  0  0
 16 17  2  0  0  0
 16 21  1  0  0  0
 16 31  1  0  0  0
 17 18  1  0  0  0
 17 99  1  0  0  0
 18 19  2  0  0  0
 18100  1  0  0  0
 19 20  1  0  0  0
 19 24  1  0  0  0
 20 21  2  0  0  0
 20101  1  0  0  0
 21 23  1  0  0  0
 22 28  1  0  0  0
 22 32  2  0  0  0
 26 27  1  0  0  0
 28102  1  0  0  0
 28103  1  0  0  0
 29104  1  0  0  0
 29105  1  0  0  0
 33 34  1  0  0  0
 33 66  1  0  0  0
 33 70  2  0  0  0
 34 36  1  0  0  0
 34 59  1  0  0  0
 34106  1  0  0  0
 35 44  2  0  0  0
 35 45  1  0  0  0
 35 68  1  0  0  0
 36 56  1  0  0  0
 36107  1  0  0  0
 37 39  1  0  0  0
 37 47  1  0  0  0
 37 66  1  0  0  0
 37108  1  0  0  0
 38 43  2  0  0  0
 38 46  1  0  0  0
 38 47  1  0  0  0
 39 64  1  0  0  0
 39 67  2  0  0  0
 40 52  1  0  0  0
 40 53  2  0  0  0
 40 58  1  0  0  0
 41109  1  0  0  0
 41110  1  0  0  0
 41111  1  0  0  0
 41 48  1  0  0  0
 42 43  1  0  0  0
 42 66  1  0  0  0
 42112  1  0  0  0
 42113  1  0  0  0
 43 44  1  0  0  0
 44114  1  0  0  0
 45 46  2  0  0  0
 45115  1  0  0  0
 46116  1  0  0  0
 47117  1  0  0  0
 47118  1  0  0  0
 48 56  1  0  0  0
 48 65  1  0  0  0
 48119  1  0  0  0
 49 50  1  0  0  0
 49 53  1  0  0  0
 49 64  1  0  0  0
 49120  1  0  0  0
 50 51  1  0  0  0
 50121  1  0  0  0
 50122  1  0  0  0
 51 52  1  0  0  0
 51123  1  0  0  0
 51124  1  0  0  0
 52125  1  0  0  0
 52126  1  0  0  0
 53 54  1  0  0  0
 54 55  2  0  0  0
 54127  1  0  0  0
 55 57  1  0  0  0
 55128  1  0  0  0
 56 69  2  0  0  0
 57 58  2  0  0  0
 57129  1  0  0  0
 58130  1  0  0  0
 59 60  1  0  0  0
 59 61  1  0  0  0
 59 62  1  0  0  0
 60131  1  0  0  0
 60132  1  0  0  0
 60133  1  0  0  0
 61134  1  0  0  0
 61135  1  0  0  0
 61136  1  0  0  0
 62137  1  0  0  0
 62138  1  0  0  0
 62139  1  0  0  0
 63 65  1  0  0  0
 63140  1  0  0  0
 63141  1  0  0  0
 63142  1  0  0  0
 64143  1  0  0  0
 65144  1  0  0  0
 68 81  1  0  0  0
 71 73  2  0  0  0
 71 83  1  0  0  0
 71145  1  0  0  0
 72 74  1  0  0  0
 72 82  2  0  0  0
 72146  1  0  0  0
 73 82  1  0  0  0
 73 78  1  0  0  0
 74 79  1  0  0  0
 74 83  2  0  0  0
 75 76  1  0  0  0
 75 78  1  0  0  0
 75147  1  0  0  0
 75148  1  0  0  0
 76 85  1  0  0  0
 76149  1  0  0  0
 76150  1  0  0  0
 77 78  1  0  0  0
 77 85  1  0  0  0
 77151  1  0  0  0
 77152  1  0  0  0
 78153  1  0  0  0
 79 84  1  0  0  0
 79154  1  0  0  0
 79155  1  0  0  0
 80 81  1  0  0  0
 80156  1  0  0  0
 80157  1  0  0  0
 80 85  1  0  0  0
 81158  1  0  0  0
 81159  1  0  0  0
 84160  1  0  0  0
 85161  1  0  0  0
M  CHG  1  85   1
M  ISO  4   1 100  68 101  81 101  84 100
M  END
> <chiral flag>
0

> <version>
0

> <s_m_source_file>
/data/baiqing/PycharmProjects/Reinvent-master-3.2/result/LINK_invent/BTK/process_docking_weight1_custom_sum_contain_oxygen_bond_distance_aromatic_linkinvent_7_9_3/rearranged_h_0188.sdf

> <i_m_source_file_index>
19

> <r_mmod_Potential_Energy-OPLS-2005>
-97.7485198974609

> <r_mmod_Stretch_Energy-OPLS-2005>
33.1620483398438

> <r_mmod_Bend_Energy-OPLS-2005>
118.793312072754

> <r_mmod_Torsional_Energy-OPLS-2005>
269.332489013672

> <r_mmod_Improper_Torsional_Energy-OPLS-2005>
6.57651519775391

> <r_mmod_Van_der_Waal_Energy-OPLS-2005>
168.938049316406

> <r_mmod_Electrostatic_Energy-OPLS-2005>
-261.511260986328

> <r_mmod_Solvation_Energy-OPLS-2005>
-445.828216552734

> <b_mmod_Minimization_Converged-OPLS-2005>
0

> <r_mmod_RMS_Derivative-OPLS-2005>
3.03271436691284

$$$$
19
                    3D
 Structure written by MMmdl.
154163  0  0  1  0            999 V2000
  -30.6145  -14.8233   20.4807 C   0  0  0  0  0  0
  -30.4334  -12.5209   19.4748 C   0  0  0  0  0  0
  -29.5072  -12.5186   18.2373 C   0  0  0  0  0  0
  -28.0369  -12.3174   18.6541 C   0  0  0  0  0  0
  -27.6330  -13.2246   19.8437 C   0  0  2  0  0  0
  -28.6829  -13.1703   20.9760 C   0  0  0  0  0  0
  -25.2412  -13.8139   20.5642 C   0  0  0  0  0  0
  -24.1739  -13.0389   20.9229 C   0  0  0  0  0  0
  -24.6358  -11.6879   20.8779 C   0  0  0  0  0  0
  -23.9049  -10.4262   21.0424 C   0  0  0  0  0  0
  -24.3604   -9.4178   21.9197 C   0  0  0  0  0  0
  -23.6278   -8.2218   22.0762 C   0  0  0  0  0  0
  -22.4260   -8.0267   21.3551 C   0  0  0  0  0  0
  -21.9896   -9.0239   20.4650 C   0  0  0  0  0  0
  -22.7227  -10.2114   20.3063 C   0  0  0  0  0  0
  -21.6843   -6.0728   22.5283 C   0  0  0  0  0  0
  -21.4010   -6.5633   23.8218 C   0  0  0  0  0  0
  -21.3659   -5.6786   24.9180 C   0  0  0  0  0  0
  -21.6041   -4.3050   24.7230 C   0  0  0  0  0  0
  -21.8813   -3.8142   23.4351 C   0  0  0  0  0  0
  -21.9187   -4.6956   22.3407 C   0  0  0  0  0  0
  -22.7767  -13.5181   21.1891 C   0  0  0  0  0  0
  -22.1652   -4.2144   21.0984 F   0  0  0  0  0  0
  -21.5632   -3.4533   25.7744 F   0  0  0  0  0  0
  -29.9638  -13.5966   20.3920 N   0  0  0  0  0  0
  -26.2868  -12.9360   20.3254 N   0  0  0  0  0  0
  -25.9284  -11.6510   20.5774 N   0  0  0  0  0  0
  -22.0409  -12.8196   22.0460 N   0  0  0  0  0  0
  -25.3931  -15.1855   20.3933 N   0  0  0  0  0  0
  -31.8049  -14.8588   20.1486 O   0  0  0  0  0  0
  -21.6624   -6.8866   21.4245 O   0  0  0  0  0  0
  -22.3451  -14.5489   20.6736 O   0  0  0  0  0  0
  -24.6347  -31.8528   23.1951 C   0  0  0  0  0  0
  -25.9162  -32.4741   23.8309 C   0  0  1  0  0  0
  -27.2226  -27.2334   20.1422 C   0  0  0  0  0  0
  -25.5952  -33.8545   24.2236 N   0  0  0  0  0  0
  -23.4328  -30.4734   21.5388 C   0  0  2  0  0  0
  -24.8816  -28.9089   20.1158 C   0  0  0  0  0  0
  -22.7517  -29.4593   22.4903 C   0  0  0  0  0  0
  -18.0294  -28.1392   22.8480 C   0  0  0  0  0  0
  -24.1488  -36.7265   23.2636 C   0  0  0  0  0  0
  -25.9801  -30.7583   21.3768 C   0  0  0  0  0  0
  -26.0548  -29.3746   20.7246 C   0  0  0  0  0  0
  -27.2306  -28.5512   20.7218 C   0  0  0  0  0  0
  -26.0273  -26.8370   19.5083 C   0  0  0  0  0  0
  -24.8737  -27.6488   19.4958 C   0  0  0  0  0  0
  -23.6538  -29.8010   20.1577 C   0  0  0  0  0  0
  -25.4121  -36.3055   24.0317 C   0  0  1  0  0  0
  -20.5901  -28.3706   23.1260 C   0  0  2  0  0  0
  -20.6778  -26.9418   22.5406 C   0  0  0  0  0  0
  -19.5751  -26.6385   21.5212 C   0  0  0  0  0  0
  -18.1935  -26.7932   22.1627 C   0  0  0  0  0  0
  -19.1549  -28.8867   23.2866 C   0  0  0  0  0  0
  -18.9469  -30.1467   23.8885 C   0  0  0  0  0  0
  -17.6466  -30.6589   24.0561 C   0  0  0  0  0  0
  -25.9067  -34.9430   23.5077 C   0  0  0  0  0  0
  -16.5357  -29.9087   23.6330 C   0  0  0  0  0  0
  -16.7281  -28.6507   23.0349 C   0  0  0  0  0  0
  -26.4519  -31.6575   25.0708 C   0  0  0  0  0  0
  -25.3736  -31.3736   26.1424 C   0  0  0  0  0  0
  -27.0358  -30.2983   24.6204 C   0  0  0  0  0  0
  -27.6063  -32.4313   25.7503 C   0  0  0  0  0  0
  -27.5572  -37.1792   24.8467 C   0  0  0  0  0  0
  -21.4221  -29.3049   22.3646 N   0  0  0  0  0  0
  -26.4287  -37.3763   23.9409 N   0  0  0  0  0  0
  -24.7019  -31.0472   22.0933 N   0  0  0  0  0  0
  -23.4202  -28.8133   23.3012 O   0  0  0  0  0  0
  -28.3097  -26.3229   20.1364 O   0  0  0  0  0  0
  -26.5636  -34.8911   22.4641 O   0  0  0  0  0  0
  -23.5489  -32.1355   23.7233 O   0  0  0  0  0  0
  -28.3517  -23.4577   18.6123 C   0  0  0  0  0  0
  -28.5452  -22.2009   18.0171 C   0  0  0  0  0  0
  -28.5324  -23.5723   19.9955 C   0  0  0  0  0  0
  -29.0849  -21.2206   20.0193 C   0  0  0  0  0  0
  -28.4405  -17.8551   21.4599 C   0  0  0  0  0  0
  -28.6664  -16.3214   21.3364 C   0  0  0  0  0  0
  -30.4275  -17.4500   20.2689 C   0  0  0  0  0  0
  -29.2594  -18.5491   20.3686 C   0  0  2  0  0  0
  -28.1273  -24.9415   20.7382 C   0  0  0  0  0  0
  -28.8939  -21.0986   18.7174 N   0  0  0  0  0  0
  -28.9207  -22.4107   20.6786 N   0  0  0  0  0  0
  -29.9244  -16.0521   20.6254 N   0  0  0  0  0  0
  -29.5274  -20.0233   20.6892 N   0  0  0  0  0  0
  -31.4675  -12.6618   19.1570 H   0  0  0  0  0  0
  -30.4141  -11.5516   19.9750 H   0  0  0  0  0  0
  -29.8083  -11.7352   17.5404 H   0  0  0  0  0  0
  -29.6098  -13.4631   17.6999 H   0  0  0  0  0  0
  -27.9136  -11.2708   18.9331 H   0  0  0  0  0  0
  -27.3738  -12.4855   17.8052 H   0  0  0  0  0  0
  -27.6157  -14.2321   19.4329 H   0  0  0  0  0  0
  -28.7589  -12.1564   21.3714 H   0  0  0  0  0  0
  -28.3915  -13.7793   21.8272 H   0  0  0  0  0  0
  -25.2742   -9.5655   22.4779 H   0  0  0  0  0  0
  -23.9983   -7.4600   22.7477 H   0  0  0  0  0  0
  -21.0830   -8.8754   19.8950 H   0  0  0  0  0  0
  -22.3685  -10.9658   19.6176 H   0  0  0  0  0  0
  -21.2002   -7.6142   23.9724 H   0  0  0  0  0  0
  -21.1490   -6.0516   25.9086 H   0  0  0  0  0  0
  -22.0593   -2.7606   23.2851 H   0  0  0  0  0  0
  -22.4015  -11.9860   22.4864 H   0  0  0  0  0  0
  -21.1033  -13.1244   22.2670 H   0  0  0  0  0  0
  -24.6173  -15.8288   20.5037 H   0  0  0  0  0  0
  -26.2273  -15.6306   20.0358 H   0  0  0  0  0  0
  -26.7233  -32.5389   23.1055 H   0  0  0  0  0  0
  -25.0113  -33.9685   25.0391 H   0  0  0  0  0  0
  -22.7309  -31.2964   21.3884 H   0  0  0  0  0  0
  -23.3754  -35.9593   23.3305 H   0  0  0  0  0  0
  -24.3570  -36.8882   22.2047 H   0  0  0  0  0  0
  -23.7241  -37.6464   23.6663 H   0  0  0  0  0  0
  -26.1175  -31.5140   20.6019 H   0  0  0  0  0  0
  -26.8584  -30.8149   22.0084 H   0  0  0  0  0  0
  -28.1309  -28.9047   21.2047 H   0  0  0  0  0  0
  -25.9778  -25.8704   19.0264 H   0  0  0  0  0  0
  -23.9756  -27.2884   19.0136 H   0  0  0  0  0  0
  -23.7826  -30.5739   19.3991 H   0  0  0  0  0  0
  -22.7710  -29.2365   19.8518 H   0  0  0  0  0  0
  -25.1306  -36.1889   25.0809 H   0  0  0  0  0  0
  -21.0001  -28.3294   24.1378 H   0  0  0  0  0  0
  -20.5673  -26.2321   23.3620 H   0  0  0  0  0  0
  -21.6648  -26.7432   22.1206 H   0  0  0  0  0  0
  -19.6911  -25.6295   21.1247 H   0  0  0  0  0  0
  -19.6687  -27.3191   20.6739 H   0  0  0  0  0  0
  -17.4202  -26.6672   21.4034 H   0  0  0  0  0  0
  -18.0338  -26.0081   22.9030 H   0  0  0  0  0  0
  -19.7947  -30.7286   24.2248 H   0  0  0  0  0  0
  -17.5022  -31.6268   24.5165 H   0  0  0  0  0  0
  -15.5359  -30.2982   23.7665 H   0  0  0  0  0  0
  -15.8683  -28.0827   22.7064 H   0  0  0  0  0  0
  -24.5944  -30.7039   25.7767 H   0  0  0  0  0  0
  -24.8893  -32.2904   26.4792 H   0  0  0  0  0  0
  -25.8062  -30.8975   27.0232 H   0  0  0  0  0  0
  -26.2940  -29.6737   24.1212 H   0  0  0  0  0  0
  -27.4006  -29.7242   25.4733 H   0  0  0  0  0  0
  -27.8835  -30.4238   23.9464 H   0  0  0  0  0  0
  -27.2670  -33.3630   26.2043 H   0  0  0  0  0  0
  -28.3914  -32.6842   25.0364 H   0  0  0  0  0  0
  -28.0681  -31.8451   26.5459 H   0  0  0  0  0  0
  -28.2593  -38.0084   24.7509 H   0  0  0  0  0  0
  -28.1063  -36.2615   24.6304 H   0  0  0  0  0  0
  -27.2284  -37.1449   25.8867 H   0  0  0  0  0  0
  -20.9413  -29.8773   21.6846 H   0  0  0  0  0  0
  -26.0154  -38.2826   24.1422 H   0  0  0  0  0  0
  -28.0366  -24.3069   18.0207 H   0  0  0  0  0  0
  -28.4002  -22.0694   16.9551 H   0  0  0  0  0  0
  -28.7965  -18.1730   22.4411 H   0  0  0  0  0  0
  -27.3835  -18.1205   21.4081 H   0  0  0  0  0  0
  -27.8458  -15.8977   20.7736 H   0  0  0  0  0  0
  -28.6691  -15.8727   22.3296 H   0  0  0  0  0  0
  -30.8688  -17.4469   19.2708 H   0  0  0  0  0  0
  -31.2303  -17.6960   20.9657 H   0  0  0  0  0  0
  -28.6875  -18.5096   19.4398 H   0  0  0  0  0  0
  -28.6728  -24.9530   21.6816 H   0  0  0  0  0  0
  -27.0827  -24.8240   21.0287 H   0  0  0  0  0  0
  -29.7495  -20.1905   21.6630 H   0  0  0  0  0  0
  1 25  1  0  0  0
  1 30  2  0  0  0
  1 82  1  0  0  0
  2  3  1  0  0  0
  2 25  1  0  0  0
  2 84  1  0  0  0
  2 85  1  0  0  0
  3  4  1  0  0  0
  3 86  1  0  0  0
  3 87  1  0  0  0
  4  5  1  0  0  0
  4 88  1  0  0  0
  4 89  1  0  0  0
  5  6  1  0  0  0
  5 26  1  0  0  0
  5 90  1  0  0  0
  6 25  1  0  0  0
  6 91  1  0  0  0
  6 92  1  0  0  0
  7  8  2  0  0  0
  7 26  1  0  0  0
  7 29  1  0  0  0
  8  9  1  0  0  0
  8 22  1  0  0  0
  9 10  1  0  0  0
  9 27  2  0  0  0
 10 11  2  0  0  0
 10 15  1  0  0  0
 11 12  1  0  0  0
 11 93  1  0  0  0
 12 13  2  0  0  0
 12 94  1  0  0  0
 13 14  1  0  0  0
 13 31  1  0  0  0
 14 15  2  0  0  0
 14 95  1  0  0  0
 15 96  1  0  0  0
 16 17  2  0  0  0
 16 21  1  0  0  0
 16 31  1  0  0  0
 17 18  1  0  0  0
 17 97  1  0  0  0
 18 19  2  0  0  0
 18 98  1  0  0  0
 19 20  1  0  0  0
 19 24  1  0  0  0
 20 21  2  0  0  0
 20 99  1  0  0  0
 21 23  1  0  0  0
 22 28  1  0  0  0
 22 32  2  0  0  0
 26 27  1  0  0  0
 28100  1  0  0  0
 28101  1  0  0  0
 29102  1  0  0  0
 29103  1  0  0  0
 33 34  1  0  0  0
 33 66  1  0  0  0
 33 70  2  0  0  0
 34 36  1  0  0  0
 34 59  1  0  0  0
 34104  1  0  0  0
 35 44  2  0  0  0
 35 45  1  0  0  0
 35 68  1  0  0  0
 36 56  1  0  0  0
 36105  1  0  0  0
 37 39  1  0  0  0
 37 47  1  0  0  0
 37 66  1  0  0  0
 37106  1  0  0  0
 38 43  2  0  0  0
 38 46  1  0  0  0
 38 47  1  0  0  0
 39 64  1  0  0  0
 39 67  2  0  0  0
 40 52  1  0  0  0
 40 53  2  0  0  0
 40 58  1  0  0  0
 41107  1  0  0  0
 41108  1  0  0  0
 41109  1  0  0  0
 41 48  1  0  0  0
 42 43  1  0  0  0
 42 66  1  0  0  0
 42110  1  0  0  0
 42111  1  0  0  0
 43 44  1  0  0  0
 44112  1  0  0  0
 45 46  2  0  0  0
 45113  1  0  0  0
 46114  1  0  0  0
 47115  1  0  0  0
 47116  1  0  0  0
 48 56  1  0  0  0
 48 65  1  0  0  0
 48117  1  0  0  0
 49 50  1  0  0  0
 49 53  1  0  0  0
 49 64  1  0  0  0
 49118  1  0  0  0
 50 51  1  0  0  0
 50119  1  0  0  0
 50120  1  0  0  0
 51 52  1  0  0  0
 51121  1  0  0  0
 51122  1  0  0  0
 52123  1  0  0  0
 52124  1  0  0  0
 53 54  1  0  0  0
 54 55  2  0  0  0
 54125  1  0  0  0
 55 57  1  0  0  0
 55126  1  0  0  0
 56 69  2  0  0  0
 57 58  2  0  0  0
 57127  1  0  0  0
 58128  1  0  0  0
 59 60  1  0  0  0
 59 61  1  0  0  0
 59 62  1  0  0  0
 60129  1  0  0  0
 60130  1  0  0  0
 60131  1  0  0  0
 61132  1  0  0  0
 61133  1  0  0  0
 61134  1  0  0  0
 62135  1  0  0  0
 62136  1  0  0  0
 62137  1  0  0  0
 63 65  1  0  0  0
 63138  1  0  0  0
 63139  1  0  0  0
 63140  1  0  0  0
 64141  1  0  0  0
 65142  1  0  0  0
 68 79  1  0  0  0
 71 72  2  0  0  0
 71 73  1  0  0  0
 71143  1  0  0  0
 72 80  1  0  0  0
 72144  1  0  0  0
 73 79  1  0  0  0
 73 81  2  0  0  0
 74 80  2  0  0  0
 74 81  1  0  0  0
 74 83  1  0  0  0
 75 76  1  0  0  0
 75 78  1  0  0  0
 75145  1  0  0  0
 75146  1  0  0  0
 76 82  1  0  0  0
 76147  1  0  0  0
 76148  1  0  0  0
 77 78  1  0  0  0
 77 82  1  0  0  0
 77149  1  0  0  0
 77150  1  0  0  0
 78 83  1  0  0  0
 78151  1  0  0  0
 79152  1  0  0  0
 79153  1  0  0  0
 83154  1  0  0  0
M  ISO  4   1 100  68 101  79 101  82 100
M  END
> <chiral flag>
0

> <version>
0

> <s_m_source_file>
/data/baiqing/PycharmProjects/Reinvent-master-3.2/result/LINK_invent/BTK/process_docking_weight1_custom_sum_contain_oxygen_bond_distance_aromatic_linkinvent_7_9_3/rearranged_h_0188.sdf

> <i_m_source_file_index>
20

> <r_mmod_Potential_Energy-OPLS-2005>
-134.627014160156

> <r_mmod_Stretch_Energy-OPLS-2005>
140.012603759766

> <r_mmod_Bend_Energy-OPLS-2005>
221.567504882812

> <r_mmod_Torsional_Energy-OPLS-2005>
326.989532470703

> <r_mmod_Improper_Torsional_Energy-OPLS-2005>
9.87492370605469

> <r_mmod_Van_der_Waal_Energy-OPLS-2005>
140.179794311523

> <r_mmod_Electrostatic_Energy-OPLS-2005>
-838.7578125

> <r_mmod_Solvation_Energy-OPLS-2005>
-242.779968261719

> <b_mmod_Minimization_Converged-OPLS-2005>
0

> <r_mmod_RMS_Derivative-OPLS-2005>
1.0476952791214

$$$$
20
                    3D
 Structure written by MMmdl.
159168  0  0  1  0            999 V2000
  -30.4226  -15.3088   20.3627 C   0  0  0  0  0  0
  -30.4351  -12.8416   19.5259 C   0  0  0  0  0  0
  -29.5341  -12.5809   18.2916 C   0  0  0  0  0  0
  -28.0873  -12.2931   18.7264 C   0  0  0  0  0  0
  -27.6075  -13.2774   19.8215 C   0  0  2  0  0  0
  -28.6397  -13.4780   20.9516 C   0  0  0  0  0  0
  -25.2373  -13.8241   20.5762 C   0  0  0  0  0  0
  -24.1728  -13.0433   20.9266 C   0  0  0  0  0  0
  -24.6381  -11.6930   20.8765 C   0  0  0  0  0  0
  -23.9077  -10.4287   21.0406 C   0  0  0  0  0  0
  -24.3626   -9.4205   21.9182 C   0  0  0  0  0  0
  -23.6301   -8.2239   22.0754 C   0  0  0  0  0  0
  -22.4281   -8.0275   21.3544 C   0  0  0  0  0  0
  -21.9917   -9.0246   20.4643 C   0  0  0  0  0  0
  -22.7249  -10.2125   20.3054 C   0  0  0  0  0  0
  -21.6854   -6.0731   22.5278 C   0  0  0  0  0  0
  -21.4018   -6.5639   23.8209 C   0  0  0  0  0  0
  -21.3657   -5.6793   24.9169 C   0  0  0  0  0  0
  -21.6041   -4.3055   24.7223 C   0  0  0  0  0  0
  -21.8820   -3.8144   23.4347 C   0  0  0  0  0  0
  -21.9194   -4.6959   22.3402 C   0  0  0  0  0  0
  -22.7748  -13.5188   21.1915 C   0  0  0  0  0  0
  -22.1664   -4.2143   21.0981 F   0  0  0  0  0  0
  -21.5627   -3.4538   25.7737 F   0  0  0  0  0  0
  -29.8629  -13.9962   20.3172 N   0  0  0  0  0  0
  -26.2794  -12.9522   20.3228 N   0  0  0  0  0  0
  -25.9319  -11.6622   20.5726 N   0  0  0  0  0  0
  -22.0415  -12.8157   22.0466 N   0  0  0  0  0  0
  -25.4003  -15.1979   20.4195 N   0  0  0  0  0  0
  -31.6465  -15.3003   20.1652 O   0  0  0  0  0  0
  -21.6649   -6.8872   21.4235 O   0  0  0  0  0  0
  -22.3430  -14.5484   20.6755 O   0  0  0  0  0  0
  -24.6650  -31.8190   23.1665 C   0  0  0  0  0  0
  -25.9317  -32.4567   23.8141 C   0  0  1  0  0  0
  -27.2261  -26.8984   20.1875 C   0  0  0  0  0  0
  -25.5981  -33.8384   24.2037 N   0  0  0  0  0  0
  -23.4828  -30.4276   21.5160 C   0  0  2  0  0  0
  -24.9378  -28.8072   20.1102 C   0  0  0  0  0  0
  -22.7686  -29.4415   22.4770 C   0  0  0  0  0  0
  -18.0325  -28.1416   22.8471 C   0  0  0  0  0  0
  -24.1492  -36.7191   23.2653 C   0  0  0  0  0  0
  -26.0523  -30.6154   21.4009 C   0  0  0  0  0  0
  -26.1197  -29.2021   20.7468 C   0  0  0  0  0  0
  -27.2553  -28.2692   20.7592 C   0  0  0  0  0  0
  -26.0152  -26.6630   19.4969 C   0  0  0  0  0  0
  -24.9125  -27.5597   19.4634 C   0  0  0  0  0  0
  -23.7242  -29.7387   20.1435 C   0  0  0  0  0  0
  -25.4130  -36.2946   24.0301 C   0  0  1  0  0  0
  -20.5950  -28.3756   23.1188 C   0  0  2  0  0  0
  -20.6807  -26.9437   22.5408 C   0  0  0  0  0  0
  -19.5777  -26.6377   21.5224 C   0  0  0  0  0  0
  -18.1953  -26.7949   22.1619 C   0  0  0  0  0  0
  -19.1593  -28.8908   23.2815 C   0  0  0  0  0  0
  -18.9499  -30.1496   23.8843 C   0  0  0  0  0  0
  -17.6492  -30.6603   24.0554 C   0  0  0  0  0  0
  -25.9099  -34.9340   23.4988 C   0  0  0  0  0  0
  -16.5381  -29.9093   23.6349 C   0  0  0  0  0  0
  -16.7307  -28.6518   23.0364 C   0  0  0  0  0  0
  -26.4558  -31.6535   25.0687 C   0  0  0  0  0  0
  -25.3681  -31.3790   26.1343 C   0  0  0  0  0  0
  -27.0476  -30.2905   24.6451 C   0  0  0  0  0  0
  -27.6038  -32.4365   25.7486 C   0  0  0  0  0  0
  -27.5553  -37.1747   24.8465 C   0  0  0  0  0  0
  -21.4349  -29.3037   22.3529 N   0  0  0  0  0  0
  -26.4259  -37.3694   23.9418 N   0  0  0  0  0  0
  -24.7550  -30.9824   22.0811 N   0  0  0  0  0  0
  -23.4223  -28.7990   23.3030 O   0  0  0  0  0  0
  -28.2396  -25.7962   20.2865 O   0  0  0  0  0  0
  -26.5717  -34.8888   22.4583 O   0  0  0  0  0  0
  -23.5712  -32.1173   23.6734 O   0  0  0  0  0  0
  -28.7439  -23.4798   18.8163 C   0  0  0  0  0  0
  -28.6801  -21.8717   18.9036 C   0  0  0  0  0  0
  -28.6068  -22.7412   20.9657 C   0  0  0  0  0  0
  -29.3650  -19.8434   22.1671 C   0  0  0  0  0  0
  -31.1339  -18.4729   21.3493 C   0  0  0  0  0  0
  -28.9956  -19.7717   20.6844 C   0  0  2  0  0  0
  -29.9685  -18.2606   20.3522 C   0  0  2  0  0  0
  -28.1083  -24.1441   20.0744 C   0  0  1  0  0  0
  -31.4317  -19.6436   23.5205 C   0  0  0  0  0  0
  -29.0810  -21.3837   20.2433 N   0  0  0  0  0  0
  -29.6658  -16.5972   20.4352 N   0  0  0  0  0  0
  -30.8265  -19.6637   22.1710 N   0  3  2  0  0  0
  -31.4506  -13.0534   19.1899 H   0  0  0  0  0  0
  -30.5132  -11.9461   20.1445 H   0  0  0  0  0  0
  -29.9239  -11.7481   17.7037 H   0  0  0  0  0  0
  -29.5505  -13.4537   17.6367 H   0  0  0  0  0  0
  -28.0592  -11.2750   19.1152 H   0  0  0  0  0  0
  -27.4142  -12.3112   17.8682 H   0  0  0  0  0  0
  -27.5131  -14.2358   19.3100 H   0  0  0  0  0  0
  -28.8213  -12.5530   21.4996 H   0  0  0  0  0  0
  -28.2698  -14.2028   21.6788 H   0  0  0  0  0  0
  -25.2766   -9.5689   22.4765 H   0  0  0  0  0  0
  -24.0005   -7.4634   22.7477 H   0  0  0  0  0  0
  -21.0848   -8.8755   19.8953 H   0  0  0  0  0  0
  -22.3691  -10.9660   19.6165 H   0  0  0  0  0  0
  -21.2010   -7.6150   23.9707 H   0  0  0  0  0  0
  -21.1481   -6.0528   25.9073 H   0  0  0  0  0  0
  -22.0600   -2.7604   23.2848 H   0  0  0  0  0  0
  -22.4062  -11.9819   22.4834 H   0  0  0  0  0  0
  -21.1025  -13.1152   22.2689 H   0  0  0  0  0  0
  -24.6249  -15.8434   20.5224 H   0  0  0  0  0  0
  -26.2345  -15.6358   20.0536 H   0  0  0  0  0  0
  -26.7390  -32.5079   23.0855 H   0  0  0  0  0  0
  -25.0096  -33.9464   25.0169 H   0  0  0  0  0  0
  -22.7978  -31.2599   21.3409 H   0  0  0  0  0  0
  -23.3766  -35.9510   23.3273 H   0  0  0  0  0  0
  -24.3571  -36.8875   22.2077 H   0  0  0  0  0  0
  -23.7252  -37.6364   23.6742 H   0  0  0  0  0  0
  -26.2368  -31.3536   20.6195 H   0  0  0  0  0  0
  -26.9108  -30.6733   22.0583 H   0  0  0  0  0  0
  -28.1492  -28.5691   21.2879 H   0  0  0  0  0  0
  -25.8845  -25.7139   18.9994 H   0  0  0  0  0  0
  -24.0160  -27.2530   18.9416 H   0  0  0  0  0  0
  -23.8822  -30.5050   19.3840 H   0  0  0  0  0  0
  -22.8337  -29.1949   19.8249 H   0  0  0  0  0  0
  -25.1336  -36.1710   25.0795 H   0  0  0  0  0  0
  -21.0030  -28.3357   24.1317 H   0  0  0  0  0  0
  -20.5696  -26.2371   23.3649 H   0  0  0  0  0  0
  -21.6664  -26.7421   22.1200 H   0  0  0  0  0  0
  -19.6936  -25.6278   21.1283 H   0  0  0  0  0  0
  -19.6712  -27.3172   20.6743 H   0  0  0  0  0  0
  -17.4225  -26.6703   21.4020 H   0  0  0  0  0  0
  -18.0325  -26.0105   22.9022 H   0  0  0  0  0  0
  -19.7974  -30.7335   24.2173 H   0  0  0  0  0  0
  -17.5043  -31.6274   24.5175 H   0  0  0  0  0  0
  -15.5381  -30.2974   23.7714 H   0  0  0  0  0  0
  -15.8705  -28.0825   22.7100 H   0  0  0  0  0  0
  -24.5881  -30.7127   25.7634 H   0  0  0  0  0  0
  -24.8859  -32.2999   26.4636 H   0  0  0  0  0  0
  -25.7907  -30.9033   27.0204 H   0  0  0  0  0  0
  -26.3157  -29.6559   24.1448 H   0  0  0  0  0  0
  -27.3995  -29.7292   25.5116 H   0  0  0  0  0  0
  -27.9097  -30.4088   23.9886 H   0  0  0  0  0  0
  -27.2602  -33.3724   26.1903 H   0  0  0  0  0  0
  -28.3928  -32.6833   25.0369 H   0  0  0  0  0  0
  -28.0627  -31.8605   26.5533 H   0  0  0  0  0  0
  -28.2542  -38.0067   24.7507 H   0  0  0  0  0  0
  -28.1069  -36.2592   24.6277 H   0  0  0  0  0  0
  -27.2268  -37.1359   25.8865 H   0  0  0  0  0  0
  -20.9604  -29.8717   21.6649 H   0  0  0  0  0  0
  -26.0085  -38.2736   24.1446 H   0  0  0  0  0  0
  -28.2644  -23.8365   17.9048 H   0  0  0  0  0  0
  -29.7886  -23.7874   18.7498 H   0  0  0  0  0  0
  -29.3010  -21.4146   18.1319 H   0  0  0  0  0  0
  -27.6547  -21.5503   18.7115 H   0  0  0  0  0  0
  -27.7935  -22.4903   21.6487 H   0  0  0  0  0  0
  -29.4299  -23.0451   21.6135 H   0  0  0  0  0  0
  -28.8916  -19.0234   22.7118 H   0  0  0  0  0  0
  -29.0656  -20.7625   22.6684 H   0  0  0  0  0  0
  -32.0815  -18.6187   20.8296 H   0  0  0  0  0  0
  -31.2612  -17.6093   22.0037 H   0  0  0  0  0  0
  -27.9407  -19.5127   20.5851 H   0  0  0  0  0  0
  -30.3546  -18.3921   19.3411 H   0  0  0  0  0  0
  -27.0331  -24.0039   19.9657 H   0  0  0  0  0  0
  -31.2279  -20.5734   24.0515 H   0  0  0  0  0  0
  -32.5137  -19.5269   23.4575 H   0  0  0  0  0  0
  -31.0373  -18.8224   24.1197 H   0  0  0  0  0  0
  -28.6780  -16.4136   20.5332 H   0  0  0  0  0  0
  -31.1912  -20.4631   21.6722 H   0  0  0  0  0  0
  1 25  1  0  0  0
  1 30  2  0  0  0
  1 81  1  0  0  0
  2  3  1  0  0  0
  2 25  1  0  0  0
  2 83  1  0  0  0
  2 84  1  0  0  0
  3  4  1  0  0  0
  3 85  1  0  0  0
  3 86  1  0  0  0
  4  5  1  0  0  0
  4 87  1  0  0  0
  4 88  1  0  0  0
  5  6  1  0  0  0
  5 26  1  0  0  0
  5 89  1  0  0  0
  6 25  1  0  0  0
  6 90  1  0  0  0
  6 91  1  0  0  0
  7  8  2  0  0  0
  7 26  1  0  0  0
  7 29  1  0  0  0
  8  9  1  0  0  0
  8 22  1  0  0  0
  9 10  1  0  0  0
  9 27  2  0  0  0
 10 11  2  0  0  0
 10 15  1  0  0  0
 11 12  1  0  0  0
 11 92  1  0  0  0
 12 13  2  0  0  0
 12 93  1  0  0  0
 13 14  1  0  0  0
 13 31  1  0  0  0
 14 15  2  0  0  0
 14 94  1  0  0  0
 15 95  1  0  0  0
 16 17  2  0  0  0
 16 21  1  0  0  0
 16 31  1  0  0  0
 17 18  1  0  0  0
 17 96  1  0  0  0
 18 19  2  0  0  0
 18 97  1  0  0  0
 19 20  1  0  0  0
 19 24  1  0  0  0
 20 21  2  0  0  0
 20 98  1  0  0  0
 21 23  1  0  0  0
 22 28  1  0  0  0
 22 32  2  0  0  0
 26 27  1  0  0  0
 28 99  1  0  0  0
 28100  1  0  0  0
 29101  1  0  0  0
 29102  1  0  0  0
 33 34  1  0  0  0
 33 66  1  0  0  0
 33 70  2  0  0  0
 34 36  1  0  0  0
 34 59  1  0  0  0
 34103  1  0  0  0
 35 44  2  0  0  0
 35 45  1  0  0  0
 35 68  1  0  0  0
 36 56  1  0  0  0
 36104  1  0  0  0
 37 39  1  0  0  0
 37 47  1  0  0  0
 37 66  1  0  0  0
 37105  1  0  0  0
 38 43  2  0  0  0
 38 46  1  0  0  0
 38 47  1  0  0  0
 39 64  1  0  0  0
 39 67  2  0  0  0
 40 52  1  0  0  0
 40 53  2  0  0  0
 40 58  1  0  0  0
 41106  1  0  0  0
 41107  1  0  0  0
 41108  1  0  0  0
 41 48  1  0  0  0
 42 43  1  0  0  0
 42 66  1  0  0  0
 42109  1  0  0  0
 42110  1  0  0  0
 43 44  1  0  0  0
 44111  1  0  0  0
 45 46  2  0  0  0
 45112  1  0  0  0
 46113  1  0  0  0
 47114  1  0  0  0
 47115  1  0  0  0
 48 56  1  0  0  0
 48 65  1  0  0  0
 48116  1  0  0  0
 49 50  1  0  0  0
 49 53  1  0  0  0
 49 64  1  0  0  0
 49117  1  0  0  0
 50 51  1  0  0  0
 50118  1  0  0  0
 50119  1  0  0  0
 51 52  1  0  0  0
 51120  1  0  0  0
 51121  1  0  0  0
 52122  1  0  0  0
 52123  1  0  0  0
 53 54  1  0  0  0
 54 55  2  0  0  0
 54124  1  0  0  0
 55 57  1  0  0  0
 55125  1  0  0  0
 56 69  2  0  0  0
 57 58  2  0  0  0
 57126  1  0  0  0
 58127  1  0  0  0
 59 60  1  0  0  0
 59 61  1  0  0  0
 59 62  1  0  0  0
 60128  1  0  0  0
 60129  1  0  0  0
 60130  1  0  0  0
 61131  1  0  0  0
 61132  1  0  0  0
 61133  1  0  0  0
 62134  1  0  0  0
 62135  1  0  0  0
 62136  1  0  0  0
 63 65  1  0  0  0
 63137  1  0  0  0
 63138  1  0  0  0
 63139  1  0  0  0
 64140  1  0  0  0
 65141  1  0  0  0
 68 78  1  0  0  0
 71 72  1  0  0  0
 71 78  1  0  0  0
 71142  1  0  0  0
 71143  1  0  0  0
 72144  1  0  0  0
 72145  1  0  0  0
 72 80  1  0  0  0
 73 78  1  0  0  0
 73 80  1  0  0  0
 73146  1  0  0  0
 73147  1  0  0  0
 74 76  1  0  0  0
 74 82  1  0  0  0
 74148  1  0  0  0
 74149  1  0  0  0
 75 77  1  0  0  0
 75 82  1  0  0  0
 75150  1  0  0  0
 75151  1  0  0  0
 76 77  1  0  0  0
 76 80  1  0  0  0
 76152  1  0  0  0
 77 81  1  0  0  0
 77153  1  0  0  0
 78154  1  0  0  0
 79155  1  0  0  0
 79156  1  0  0  0
 79157  1  0  0  0
 79 82  1  0  0  0
 81158  1  0  0  0
 82159  1  0  0  0
M  CHG  1  82   1
M  ISO  4   1 100  68 101  78 101  81 100
M  END
> <chiral flag>
0

> <version>
0

> <s_m_source_file>
/data/baiqing/PycharmProjects/Reinvent-master-3.2/result/LINK_invent/BTK/process_docking_weight1_custom_sum_contain_oxygen_bond_distance_aromatic_linkinvent_7_9_3/rearranged_h_0188.sdf

> <i_m_source_file_index>
21

> <r_mmod_Potential_Energy-OPLS-2005>
1383.45642089844

> <r_mmod_Stretch_Energy-OPLS-2005>
629.0693359375

> <r_mmod_Bend_Energy-OPLS-2005>
574.108581542969

> <r_mmod_Torsional_Energy-OPLS-2005>
321.365112304688

> <r_mmod_Improper_Torsional_Energy-OPLS-2005>
3.81179332733154

> <r_mmod_Van_der_Waal_Energy-OPLS-2005>
108.017318725586

> <r_mmod_Electrostatic_Energy-OPLS-2005>
-307.358734130859

> <r_mmod_Solvation_Energy-OPLS-2005>
-449.183013916016

> <b_mmod_Minimization_Converged-OPLS-2005>
0

> <r_mmod_RMS_Derivative-OPLS-2005>
1.54938209056854

$$$$
21
                    3D
 Structure written by MMmdl.
158168  0  0  1  0            999 V2000
  -30.6621  -14.7639   20.4672 C   0  0  0  0  0  0
  -30.4171  -12.4747   19.4874 C   0  0  0  0  0  0
  -29.5055  -12.5103   18.2435 C   0  0  0  0  0  0
  -28.0353  -12.3292   18.6590 C   0  0  0  0  0  0
  -27.6358  -13.2429   19.8481 C   0  0  2  0  0  0
  -28.6795  -13.2251   20.9867 C   0  0  0  0  0  0
  -25.2477  -13.8222   20.5716 C   0  0  0  0  0  0
  -24.1784  -13.0447   20.9219 C   0  0  0  0  0  0
  -24.6393  -11.6930   20.8757 C   0  0  0  0  0  0
  -23.9078  -10.4298   21.0409 C   0  0  0  0  0  0
  -24.3626   -9.4211   21.9185 C   0  0  0  0  0  0
  -23.6300   -8.2246   22.0754 C   0  0  0  0  0  0
  -22.4281   -8.0285   21.3544 C   0  0  0  0  0  0
  -21.9921   -9.0259   20.4645 C   0  0  0  0  0  0
  -22.7251  -10.2138   20.3057 C   0  0  0  0  0  0
  -21.6856   -6.0737   22.5277 C   0  0  0  0  0  0
  -21.4015   -6.5639   23.8210 C   0  0  0  0  0  0
  -21.3659   -5.6793   24.9172 C   0  0  0  0  0  0
  -21.6046   -4.3055   24.7224 C   0  0  0  0  0  0
  -21.8818   -3.8146   23.4344 C   0  0  0  0  0  0
  -21.9193   -4.6964   22.3399 C   0  0  0  0  0  0
  -22.7804  -13.5216   21.1872 C   0  0  0  0  0  0
  -22.1661   -4.2150   21.0979 F   0  0  0  0  0  0
  -21.5629   -3.4539   25.7737 F   0  0  0  0  0  0
  -29.9799  -13.5642   20.3981 N   0  0  0  0  0  0
  -26.2913  -12.9451   20.3300 N   0  0  0  0  0  0
  -25.9329  -11.6581   20.5774 N   0  0  0  0  0  0
  -22.0458  -12.8200   22.0426 N   0  0  0  0  0  0
  -25.4153  -15.1947   20.4131 N   0  0  0  0  0  0
  -31.8459  -14.7859   20.1218 O   0  0  0  0  0  0
  -21.6643   -6.8882   21.4239 O   0  0  0  0  0  0
  -22.3481  -14.5519   20.6718 O   0  0  0  0  0  0
  -24.6362  -31.8537   23.2001 C   0  0  0  0  0  0
  -25.9176  -32.4744   23.8344 C   0  0  1  0  0  0
  -27.2048  -27.2207   20.1253 C   0  0  0  0  0  0
  -25.5959  -33.8548   24.2256 N   0  0  0  0  0  0
  -23.4336  -30.4807   21.5446 C   0  0  2  0  0  0
  -24.8791  -28.9346   20.1063 C   0  0  0  0  0  0
  -22.7529  -29.4600   22.4898 C   0  0  0  0  0  0
  -18.0299  -28.1390   22.8484 C   0  0  0  0  0  0
  -24.1487  -36.7275   23.2642 C   0  0  0  0  0  0
  -25.9862  -30.7509   21.3922 C   0  0  0  0  0  0
  -26.0545  -29.3736   20.7288 C   0  0  0  0  0  0
  -27.2179  -28.5275   20.7357 C   0  0  0  0  0  0
  -26.0117  -26.8907   19.4343 C   0  0  0  0  0  0
  -24.8659  -27.7020   19.4470 C   0  0  0  0  0  0
  -23.6531  -29.8252   20.1582 C   0  0  0  0  0  0
  -25.4116  -36.3061   24.0326 C   0  0  1  0  0  0
  -20.5907  -28.3710   23.1250 C   0  0  2  0  0  0
  -20.6785  -26.9424   22.5401 C   0  0  0  0  0  0
  -19.5753  -26.6380   21.5215 C   0  0  0  0  0  0
  -18.1935  -26.7933   22.1625 C   0  0  0  0  0  0
  -19.1554  -28.8868   23.2858 C   0  0  0  0  0  0
  -18.9478  -30.1469   23.8877 C   0  0  0  0  0  0
  -17.6477  -30.6592   24.0561 C   0  0  0  0  0  0
  -25.9063  -34.9432   23.5090 C   0  0  0  0  0  0
  -16.5365  -29.9086   23.6342 C   0  0  0  0  0  0
  -16.7285  -28.6501   23.0363 C   0  0  0  0  0  0
  -26.4519  -31.6589   25.0757 C   0  0  0  0  0  0
  -25.3724  -31.3763   26.1468 C   0  0  0  0  0  0
  -27.0382  -30.2997   24.6299 C   0  0  0  0  0  0
  -27.6048  -32.4356   25.7539 C   0  0  0  0  0  0
  -27.5574  -37.1794   24.8466 C   0  0  0  0  0  0
  -21.4231  -29.3054   22.3637 N   0  0  0  0  0  0
  -26.4284  -37.3766   23.9413 N   0  0  0  0  0  0
  -24.7045  -31.0468   22.1006 N   0  0  0  0  0  0
  -23.4211  -28.8125   23.2998 O   0  0  0  0  0  0
  -28.2461  -26.2458   20.2292 O   0  0  0  0  0  0
  -26.5628  -34.8910   22.4655 O   0  0  0  0  0  0
  -23.5503  -32.1379   23.7270 O   0  0  0  0  0  0
  -28.7146  -23.0041   21.6137 C   0  0  0  0  0  0
  -28.8454  -22.3849   19.3333 C   0  0  0  0  0  0
  -28.9779  -21.6292   21.9393 C   0  0  0  0  0  0
  -28.6037  -23.4419   20.2709 C   0  0  0  0  0  0
  -29.1558  -20.6471   20.9188 C   0  0  0  0  0  0
  -28.0261  -20.2912   23.9894 C   0  0  0  0  0  0
  -28.0838  -21.7383   24.4176 C   0  0  0  0  0  0
  -30.7930  -17.2235   21.2196 C   0  0  0  0  0  0
  -28.9120  -16.7703   20.4153 C   0  0  0  0  0  0
  -29.0554  -21.2167   23.3815 C   0  0  0  0  0  0
  -29.7499  -18.1024   20.4673 C   0  0  0  0  0  0
  -27.9094  -24.8210   19.8226 C   0  0  0  0  0  0
  -29.1175  -21.0590   19.6243 N   0  0  0  0  0  0
  -30.0698  -15.9558   20.8947 N   0  0  0  0  0  0
  -29.2780  -19.2636   21.2775 O   0  0  0  0  0  0
  -31.4608  -12.5711   19.1844 H   0  0  0  0  0  0
  -30.3463  -11.5094   19.9913 H   0  0  0  0  0  0
  -29.7943  -11.7294   17.5386 H   0  0  0  0  0  0
  -29.6283  -13.4595   17.7198 H   0  0  0  0  0  0
  -27.9002  -11.2828   18.9356 H   0  0  0  0  0  0
  -27.3761  -12.5053   17.8081 H   0  0  0  0  0  0
  -27.6162  -14.2555   19.4463 H   0  0  0  0  0  0
  -28.7192  -12.2475   21.4694 H   0  0  0  0  0  0
  -28.4098  -13.9441   21.7620 H   0  0  0  0  0  0
  -25.2768   -9.5687   22.4762 H   0  0  0  0  0  0
  -24.0008   -7.4637   22.7474 H   0  0  0  0  0  0
  -21.0853   -8.8778   19.8949 H   0  0  0  0  0  0
  -22.3708  -10.9677   19.6168 H   0  0  0  0  0  0
  -21.2007   -7.6148   23.9712 H   0  0  0  0  0  0
  -21.1481   -6.0523   25.9075 H   0  0  0  0  0  0
  -22.0597   -2.7610   23.2844 H   0  0  0  0  0  0
  -22.4089  -11.9871   22.4819 H   0  0  0  0  0  0
  -21.1075  -13.1212   22.2637 H   0  0  0  0  0  0
  -24.6483  -15.8486   20.5259 H   0  0  0  0  0  0
  -26.2655  -15.6328   20.0849 H   0  0  0  0  0  0
  -26.7243  -32.5370   23.1079 H   0  0  0  0  0  0
  -25.0116  -33.9681   25.0408 H   0  0  0  0  0  0
  -22.7321  -31.3052   21.4020 H   0  0  0  0  0  0
  -23.3752  -35.9604   23.3301 H   0  0  0  0  0  0
  -24.3571  -36.8906   22.2055 H   0  0  0  0  0  0
  -23.7237  -37.6474   23.6670 H   0  0  0  0  0  0
  -26.1378  -31.5118   20.6255 H   0  0  0  0  0  0
  -26.8590  -30.7924   22.0318 H   0  0  0  0  0  0
  -28.1066  -28.8502   21.2600 H   0  0  0  0  0  0
  -25.9043  -25.9707   18.8819 H   0  0  0  0  0  0
  -23.9732  -27.3669   18.9368 H   0  0  0  0  0  0
  -23.7825  -30.6064   19.4084 H   0  0  0  0  0  0
  -22.7690  -29.2649   19.8484 H   0  0  0  0  0  0
  -25.1299  -36.1901   25.0817 H   0  0  0  0  0  0
  -21.0000  -28.3298   24.1369 H   0  0  0  0  0  0
  -20.5695  -26.2327   23.3614 H   0  0  0  0  0  0
  -21.6650  -26.7440   22.1190 H   0  0  0  0  0  0
  -19.6914  -25.6284   21.1261 H   0  0  0  0  0  0
  -19.6690  -27.3175   20.6731 H   0  0  0  0  0  0
  -17.4208  -26.6691   21.4023 H   0  0  0  0  0  0
  -18.0323  -26.0072   22.9016 H   0  0  0  0  0  0
  -19.7956  -30.7289   24.2236 H   0  0  0  0  0  0
  -17.5034  -31.6274   24.5161 H   0  0  0  0  0  0
  -15.5368  -30.2982   23.7678 H   0  0  0  0  0  0
  -15.8684  -28.0815   22.7092 H   0  0  0  0  0  0
  -24.5900  -30.7105   25.7808 H   0  0  0  0  0  0
  -24.8912  -32.2940   26.4857 H   0  0  0  0  0  0
  -25.8028  -30.8972   27.0272 H   0  0  0  0  0  0
  -26.2997  -29.6729   24.1285 H   0  0  0  0  0  0
  -27.4000  -29.7278   25.4856 H   0  0  0  0  0  0
  -27.8902  -30.4258   23.9612 H   0  0  0  0  0  0
  -27.2634  -33.3668   26.2072 H   0  0  0  0  0  0
  -28.3881  -32.6904   25.0388 H   0  0  0  0  0  0
  -28.0692  -31.8518   26.5498 H   0  0  0  0  0  0
  -28.2590  -38.0093   24.7517 H   0  0  0  0  0  0
  -28.1072  -36.2623   24.6290 H   0  0  0  0  0  0
  -27.2289  -37.1442   25.8869 H   0  0  0  0  0  0
  -20.9424  -29.8801   21.6858 H   0  0  0  0  0  0
  -26.0159  -38.2838   24.1418 H   0  0  0  0  0  0
  -28.5182  -23.7099   22.4077 H   0  0  0  0  0  0
  -28.7329  -22.5897   18.2789 H   0  0  0  0  0  0
  -27.1823  -19.9855   23.3733 H   0  0  0  0  0  0
  -28.3714  -19.5505   24.7084 H   0  0  0  0  0  0
  -28.4654  -21.9383   25.4172 H   0  0  0  0  0  0
  -27.2675  -22.3812   24.0938 H   0  0  0  0  0  0
  -30.8264  -17.4307   22.2901 H   0  0  0  0  0  0
  -31.7934  -17.3076   20.7922 H   0  0  0  0  0  0
  -28.5778  -16.5222   19.4070 H   0  0  0  0  0  0
  -28.0708  -16.7708   21.1098 H   0  0  0  0  0  0
  -30.0920  -21.0784   23.6856 H   0  0  0  0  0  0
  -30.1093  -18.3968   19.4800 H   0  0  0  0  0  0
  -26.8938  -24.6244   20.1661 H   0  0  0  0  0  0
  -27.8723  -24.8109   18.7325 H   0  0  0  0  0  0
  1 25  1  0  0  0
  1 30  2  0  0  0
  1 84  1  0  0  0
  2  3  1  0  0  0
  2 25  1  0  0  0
  2 86  1  0  0  0
  2 87  1  0  0  0
  3  4  1  0  0  0
  3 88  1  0  0  0
  3 89  1  0  0  0
  4  5  1  0  0  0
  4 90  1  0  0  0
  4 91  1  0  0  0
  5  6  1  0  0  0
  5 26  1  0  0  0
  5 92  1  0  0  0
  6 25  1  0  0  0
  6 93  1  0  0  0
  6 94  1  0  0  0
  7  8  2  0  0  0
  7 26  1  0  0  0
  7 29  1  0  0  0
  8  9  1  0  0  0
  8 22  1  0  0  0
  9 10  1  0  0  0
  9 27  2  0  0  0
 10 11  2  0  0  0
 10 15  1  0  0  0
 11 12  1  0  0  0
 11 95  1  0  0  0
 12 13  2  0  0  0
 12 96  1  0  0  0
 13 14  1  0  0  0
 13 31  1  0  0  0
 14 15  2  0  0  0
 14 97  1  0  0  0
 15 98  1  0  0  0
 16 17  2  0  0  0
 16 21  1  0  0  0
 16 31  1  0  0  0
 17 18  1  0  0  0
 17 99  1  0  0  0
 18 19  2  0  0  0
 18100  1  0  0  0
 19 20  1  0  0  0
 19 24  1  0  0  0
 20 21  2  0  0  0
 20101  1  0  0  0
 21 23  1  0  0  0
 22 28  1  0  0  0
 22 32  2  0  0  0
 26 27  1  0  0  0
 28102  1  0  0  0
 28103  1  0  0  0
 29104  1  0  0  0
 29105  1  0  0  0
 33 34  1  0  0  0
 33 66  1  0  0  0
 33 70  2  0  0  0
 34 36  1  0  0  0
 34 59  1  0  0  0
 34106  1  0  0  0
 35 44  2  0  0  0
 35 45  1  0  0  0
 35 68  1  0  0  0
 36 56  1  0  0  0
 36107  1  0  0  0
 37 39  1  0  0  0
 37 47  1  0  0  0
 37 66  1  0  0  0
 37108  1  0  0  0
 38 43  2  0  0  0
 38 46  1  0  0  0
 38 47  1  0  0  0
 39 64  1  0  0  0
 39 67  2  0  0  0
 40 52  1  0  0  0
 40 53  2  0  0  0
 40 58  1  0  0  0
 41109  1  0  0  0
 41110  1  0  0  0
 41111  1  0  0  0
 41 48  1  0  0  0
 42 43  1  0  0  0
 42 66  1  0  0  0
 42112  1  0  0  0
 42113  1  0  0  0
 43 44  1  0  0  0
 44114  1  0  0  0
 45 46  2  0  0  0
 45115  1  0  0  0
 46116  1  0  0  0
 47117  1  0  0  0
 47118  1  0  0  0
 48 56  1  0  0  0
 48 65  1  0  0  0
 48119  1  0  0  0
 49 50  1  0  0  0
 49 53  1  0  0  0
 49 64  1  0  0  0
 49120  1  0  0  0
 50 51  1  0  0  0
 50121  1  0  0  0
 50122  1  0  0  0
 51 52  1  0  0  0
 51123  1  0  0  0
 51124  1  0  0  0
 52125  1  0  0  0
 52126  1  0  0  0
 53 54  1  0  0  0
 54 55  2  0  0  0
 54127  1  0  0  0
 55 57  1  0  0  0
 55128  1  0  0  0
 56 69  2  0  0  0
 57 58  2  0  0  0
 57129  1  0  0  0
 58130  1  0  0  0
 59 60  1  0  0  0
 59 61  1  0  0  0
 59 62  1  0  0  0
 60131  1  0  0  0
 60132  1  0  0  0
 60133  1  0  0  0
 61134  1  0  0  0
 61135  1  0  0  0
 61136  1  0  0  0
 62137  1  0  0  0
 62138  1  0  0  0
 62139  1  0  0  0
 63 65  1  0  0  0
 63140  1  0  0  0
 63141  1  0  0  0
 63142  1  0  0  0
 64143  1  0  0  0
 65144  1  0  0  0
 68 82  1  0  0  0
 71 73  2  0  0  0
 71 74  1  0  0  0
 71145  1  0  0  0
 72 74  2  0  0  0
 72 83  1  0  0  0
 72146  1  0  0  0
 73 75  1  0  0  0
 73 80  1  0  0  0
 74 82  1  0  0  0
 75 83  2  0  0  0
 75 85  1  0  0  0
 76 77  1  0  0  0
 76 80  1  0  0  0
 76147  1  0  0  0
 76148  1  0  0  0
 77 80  1  0  0  0
 77149  1  0  0  0
 77150  1  0  0  0
 78 81  1  0  0  0
 78 84  1  0  0  0
 78151  1  0  0  0
 78152  1  0  0  0
 79 81  1  0  0  0
 79 84  1  0  0  0
 79153  1  0  0  0
 79154  1  0  0  0
 80155  1  0  0  0
 81 85  1  0  0  0
 81156  1  0  0  0
 82157  1  0  0  0
 82158  1  0  0  0
M  ISO  4   1 100  68 101  82 101  84 100
M  END
> <chiral flag>
0

> <version>
0

> <s_m_source_file>
/data/baiqing/PycharmProjects/Reinvent-master-3.2/result/LINK_invent/BTK/process_docking_weight1_custom_sum_contain_oxygen_bond_distance_aromatic_linkinvent_7_9_3/rearranged_h_0188.sdf

> <i_m_source_file_index>
22

> <r_mmod_Potential_Energy-OPLS-2005>
211.898834228516

> <r_mmod_Stretch_Energy-OPLS-2005>
125.85701751709

> <r_mmod_Bend_Energy-OPLS-2005>
234.666534423828

> <r_mmod_Torsional_Energy-OPLS-2005>
303.418029785156

> <r_mmod_Improper_Torsional_Energy-OPLS-2005>
9.5108003616333

> <r_mmod_Van_der_Waal_Energy-OPLS-2005>
140.473770141602

> <r_mmod_Electrostatic_Energy-OPLS-2005>
-496.156463623047

> <r_mmod_Solvation_Energy-OPLS-2005>
-217.413040161133

> <b_mmod_Minimization_Converged-OPLS-2005>
0

> <r_mmod_RMS_Derivative-OPLS-2005>
0.651951491832733

$$$$
22
                    3D
 Structure written by MMmdl.
158167  0  0  1  0            999 V2000
  -30.7359  -14.4819   20.5825 C   0  0  0  0  0  0
  -30.4172  -12.3191   19.4342 C   0  0  0  0  0  0
  -29.4924  -12.5008   18.2139 C   0  0  0  0  0  0
  -28.0174  -12.3498   18.6290 C   0  0  0  0  0  0
  -27.6591  -13.2060   19.8716 C   0  0  2  0  0  0
  -28.7022  -13.0220   20.9997 C   0  0  0  0  0  0
  -25.2568  -13.8155   20.5665 C   0  0  0  0  0  0
  -24.1833  -13.0431   20.9194 C   0  0  0  0  0  0
  -24.6392  -11.6901   20.8756 C   0  0  0  0  0  0
  -23.9062  -10.4288   21.0417 C   0  0  0  0  0  0
  -24.3614   -9.4202   21.9189 C   0  0  0  0  0  0
  -23.6289   -8.2238   22.0757 C   0  0  0  0  0  0
  -22.4274   -8.0279   21.3542 C   0  0  0  0  0  0
  -21.9910   -9.0255   20.4646 C   0  0  0  0  0  0
  -22.7240  -10.2134   20.3059 C   0  0  0  0  0  0
  -21.6849   -6.0735   22.5280 C   0  0  0  0  0  0
  -21.4013   -6.5639   23.8213 C   0  0  0  0  0  0
  -21.3657   -5.6791   24.9175 C   0  0  0  0  0  0
  -21.6044   -4.3055   24.7225 C   0  0  0  0  0  0
  -21.8819   -3.8148   23.4346 C   0  0  0  0  0  0
  -21.9192   -4.6963   22.3403 C   0  0  0  0  0  0
  -22.7854  -13.5229   21.1848 C   0  0  0  0  0  0
  -22.1659   -4.2150   21.0980 F   0  0  0  0  0  0
  -21.5629   -3.4537   25.7738 F   0  0  0  0  0  0
  -30.0344  -13.3185   20.4478 N   0  0  0  0  0  0
  -26.3013  -12.9329   20.3361 N   0  0  0  0  0  0
  -25.9319  -11.6492   20.5791 N   0  0  0  0  0  0
  -22.0493  -12.8224   22.0407 N   0  0  0  0  0  0
  -25.4238  -15.1868   20.4000 N   0  0  0  0  0  0
  -31.8471  -14.6366   20.0679 O   0  0  0  0  0  0
  -21.6634   -6.8879   21.4242 O   0  0  0  0  0  0
  -22.3541  -14.5533   20.6692 O   0  0  0  0  0  0
  -24.6176  -31.8681   23.2119 C   0  0  0  0  0  0
  -25.9065  -32.4825   23.8406 C   0  0  1  0  0  0
  -27.2210  -27.4047   20.0962 C   0  0  0  0  0  0
  -25.5920  -33.8623   24.2332 N   0  0  0  0  0  0
  -23.4065  -30.4968   21.5537 C   0  0  2  0  0  0
  -24.8512  -28.9734   20.1077 C   0  0  0  0  0  0
  -22.7438  -29.4667   22.4979 C   0  0  0  0  0  0
  -18.0284  -28.1375   22.8491 C   0  0  0  0  0  0
  -24.1493  -36.7307   23.2637 C   0  0  0  0  0  0
  -25.9416  -30.8255   21.3720 C   0  0  0  0  0  0
  -26.0177  -29.4625   20.7103 C   0  0  0  0  0  0
  -27.2070  -28.6875   20.7019 C   0  0  0  0  0  0
  -26.0358  -26.9636   19.4540 C   0  0  0  0  0  0
  -24.8577  -27.7238   19.4742 C   0  0  0  0  0  0
  -23.6151  -29.8412   20.1648 C   0  0  0  0  0  0
  -25.4115  -36.3109   24.0335 C   0  0  1  0  0  0
  -20.5876  -28.3669   23.1305 C   0  0  2  0  0  0
  -20.6774  -26.9405   22.5411 C   0  0  0  0  0  0
  -19.5751  -26.6385   21.5213 C   0  0  0  0  0  0
  -18.1930  -26.7921   22.1627 C   0  0  0  0  0  0
  -19.1533  -28.8841   23.2894 C   0  0  0  0  0  0
  -18.9460  -30.1444   23.8907 C   0  0  0  0  0  0
  -17.6461  -30.6581   24.0569 C   0  0  0  0  0  0
  -25.9046  -34.9476   23.5130 C   0  0  0  0  0  0
  -16.5354  -29.9082   23.6328 C   0  0  0  0  0  0
  -16.7275  -28.6500   23.0350 C   0  0  0  0  0  0
  -26.4485  -31.6601   25.0733 C   0  0  0  0  0  0
  -25.3743  -31.3707   26.1472 C   0  0  0  0  0  0
  -27.0320  -30.3045   24.6113 C   0  0  0  0  0  0
  -27.6060  -32.4318   25.7493 C   0  0  0  0  0  0
  -27.5585  -37.1807   24.8468 C   0  0  0  0  0  0
  -21.4161  -29.3039   22.3714 N   0  0  0  0  0  0
  -26.4301  -37.3791   23.9408 N   0  0  0  0  0  0
  -24.6737  -31.0768   22.1038 N   0  0  0  0  0  0
  -23.4203  -28.8193   23.3012 O   0  0  0  0  0  0
  -28.3398  -26.5795   20.1711 O   0  0  0  0  0  0
  -26.5601  -34.8925   22.4688 O   0  0  0  0  0  0
  -23.5366  -32.1445   23.7504 O   0  0  0  0  0  0
  -27.8863  -19.3016   21.7099 C   0  0  0  0  0  0
  -27.5743  -20.6637   21.5615 C   0  0  0  0  0  0
  -30.1792  -19.8790   21.2540 C   0  0  0  0  0  0
  -29.2200  -18.8841   21.5618 C   0  0  0  0  0  0
  -28.5914  -21.5862   21.2665 C   0  0  0  0  0  0
  -29.0433  -16.3013   20.8561 C   0  0  0  0  0  0
  -30.9130  -16.7365   21.6165 C   0  0  0  0  0  0
  -29.5517  -17.4017   21.7857 C   0  0  0  0  0  0
  -29.7119  -24.6756   22.0550 C   0  0  0  0  0  0
  -28.0220  -25.1614   20.1933 C   0  0  0  0  0  0
  -29.0045  -24.1195   20.8110 C   0  0  2  0  0  0
  -29.8759  -21.2007   21.1051 N   0  0  0  0  0  0
  -30.1831  -15.4846   21.3089 N   0  0  0  0  0  0
  -28.2078  -22.9322   21.1569 N   0  0  0  0  0  0
  -31.4620  -12.4039   19.1301 H   0  0  0  0  0  0
  -30.3140  -11.3145   19.8467 H   0  0  0  0  0  0
  -29.7389  -11.7689   17.4433 H   0  0  0  0  0  0
  -29.6523  -13.4834   17.7677 H   0  0  0  0  0  0
  -27.8417  -11.2952   18.8435 H   0  0  0  0  0  0
  -27.3619  -12.6019   17.7945 H   0  0  0  0  0  0
  -27.6910  -14.2434   19.5436 H   0  0  0  0  0  0
  -28.6819  -11.9970   21.3722 H   0  0  0  0  0  0
  -28.4613  -13.6489   21.8590 H   0  0  0  0  0  0
  -25.2758   -9.5675   22.4766 H   0  0  0  0  0  0
  -23.9995   -7.4629   22.7475 H   0  0  0  0  0  0
  -21.0843   -8.8778   19.8949 H   0  0  0  0  0  0
  -22.3703  -10.9675   19.6171 H   0  0  0  0  0  0
  -21.2006   -7.6146   23.9718 H   0  0  0  0  0  0
  -21.1478   -6.0520   25.9076 H   0  0  0  0  0  0
  -22.0600   -2.7611   23.2846 H   0  0  0  0  0  0
  -22.4102  -11.9885   22.4798 H   0  0  0  0  0  0
  -21.1114  -13.1256   22.2610 H   0  0  0  0  0  0
  -24.6485  -15.8343   20.4917 H   0  0  0  0  0  0
  -26.2592  -15.6205   20.0302 H   0  0  0  0  0  0
  -26.7136  -32.5533   23.1168 H   0  0  0  0  0  0
  -25.0095  -33.9785   25.0495 H   0  0  0  0  0  0
  -22.6965  -31.3156   21.4201 H   0  0  0  0  0  0
  -23.3755  -35.9641   23.3309 H   0  0  0  0  0  0
  -24.3591  -36.8909   22.2049 H   0  0  0  0  0  0
  -23.7237  -37.6512   23.6647 H   0  0  0  0  0  0
  -26.0631  -31.5959   20.6093 H   0  0  0  0  0  0
  -26.8258  -30.8718   21.9955 H   0  0  0  0  0  0
  -28.0992  -29.0525   21.1921 H   0  0  0  0  0  0
  -25.9854  -26.0154   18.9402 H   0  0  0  0  0  0
  -23.9655  -27.3450   18.9944 H   0  0  0  0  0  0
  -23.7251  -30.6225   19.4118 H   0  0  0  0  0  0
  -22.7374  -29.2657   19.8647 H   0  0  0  0  0  0
  -25.1288  -36.1983   25.0827 H   0  0  0  0  0  0
  -20.9973  -28.3237   24.1424 H   0  0  0  0  0  0
  -20.5696  -26.2279   23.3602 H   0  0  0  0  0  0
  -21.6643  -26.7460   22.1192 H   0  0  0  0  0  0
  -19.6923  -25.6302   21.1230 H   0  0  0  0  0  0
  -19.6685  -27.3208   20.6750 H   0  0  0  0  0  0
  -17.4203  -26.6678   21.4026 H   0  0  0  0  0  0
  -18.0327  -26.0056   22.9014 H   0  0  0  0  0  0
  -19.7936  -30.7250   24.2289 H   0  0  0  0  0  0
  -17.5018  -31.6266   24.5160 H   0  0  0  0  0  0
  -15.5355  -30.2989   23.7642 H   0  0  0  0  0  0
  -15.8677  -28.0826   22.7057 H   0  0  0  0  0  0
  -24.5921  -30.7058   25.7794 H   0  0  0  0  0  0
  -24.8935  -32.2865   26.4921 H   0  0  0  0  0  0
  -25.8082  -30.8867   27.0231 H   0  0  0  0  0  0
  -26.2867  -29.6802   24.1173 H   0  0  0  0  0  0
  -27.4099  -29.7286   25.4570 H   0  0  0  0  0  0
  -27.8704  -30.4363   23.9267 H   0  0  0  0  0  0
  -27.2688  -33.3619   26.2083 H   0  0  0  0  0  0
  -28.3865  -32.6873   25.0312 H   0  0  0  0  0  0
  -28.0737  -31.8432   26.5398 H   0  0  0  0  0  0
  -28.2603  -38.0102   24.7514 H   0  0  0  0  0  0
  -28.1076  -36.2632   24.6300 H   0  0  0  0  0  0
  -27.2301  -37.1462   25.8870 H   0  0  0  0  0  0
  -20.9328  -29.8768   21.6940 H   0  0  0  0  0  0
  -26.0197  -38.2873   24.1402 H   0  0  0  0  0  0
  -27.1096  -18.5896   21.9508 H   0  0  0  0  0  0
  -26.5481  -20.9822   21.6870 H   0  0  0  0  0  0
  -31.2201  -19.6182   21.1339 H   0  0  0  0  0  0
  -29.0801  -16.5628   19.7959 H   0  0  0  0  0  0
  -28.0582  -15.9354   21.1435 H   0  0  0  0  0  0
  -31.5088  -16.7158   22.5302 H   0  0  0  0  0  0
  -31.4911  -17.1326   20.7781 H   0  0  0  0  0  0
  -29.2007  -17.1841   22.7986 H   0  0  0  0  0  0
  -30.3054  -25.5556   21.8036 H   0  0  0  0  0  0
  -30.3886  -23.9384   22.4877 H   0  0  0  0  0  0
  -28.9975  -24.9705   22.8238 H   0  0  0  0  0  0
  -27.0956  -25.0543   20.7642 H   0  0  0  0  0  0
  -27.8003  -24.8353   19.1758 H   0  0  0  0  0  0
  -29.7575  -23.8487   20.0689 H   0  0  0  0  0  0
  -27.2199  -23.1128   21.2933 H   0  0  0  0  0  0
  1 25  1  0  0  0
  1 30  2  0  0  0
  1 83  1  0  0  0
  2  3  1  0  0  0
  2 25  1  0  0  0
  2 85  1  0  0  0
  2 86  1  0  0  0
  3  4  1  0  0  0
  3 87  1  0  0  0
  3 88  1  0  0  0
  4  5  1  0  0  0
  4 89  1  0  0  0
  4 90  1  0  0  0
  5  6  1  0  0  0
  5 26  1  0  0  0
  5 91  1  0  0  0
  6 25  1  0  0  0
  6 92  1  0  0  0
  6 93  1  0  0  0
  7  8  2  0  0  0
  7 26  1  0  0  0
  7 29  1  0  0  0
  8  9  1  0  0  0
  8 22  1  0  0  0
  9 10  1  0  0  0
  9 27  2  0  0  0
 10 11  2  0  0  0
 10 15  1  0  0  0
 11 12  1  0  0  0
 11 94  1  0  0  0
 12 13  2  0  0  0
 12 95  1  0  0  0
 13 14  1  0  0  0
 13 31  1  0  0  0
 14 15  2  0  0  0
 14 96  1  0  0  0
 15 97  1  0  0  0
 16 17  2  0  0  0
 16 21  1  0  0  0
 16 31  1  0  0  0
 17 18  1  0  0  0
 17 98  1  0  0  0
 18 19  2  0  0  0
 18 99  1  0  0  0
 19 20  1  0  0  0
 19 24  1  0  0  0
 20 21  2  0  0  0
 20100  1  0  0  0
 21 23  1  0  0  0
 22 28  1  0  0  0
 22 32  2  0  0  0
 26 27  1  0  0  0
 28101  1  0  0  0
 28102  1  0  0  0
 29103  1  0  0  0
 29104  1  0  0  0
 33 34  1  0  0  0
 33 66  1  0  0  0
 33 70  2  0  0  0
 34 36  1  0  0  0
 34 59  1  0  0  0
 34105  1  0  0  0
 35 44  2  0  0  0
 35 45  1  0  0  0
 35 68  1  0  0  0
 36 56  1  0  0  0
 36106  1  0  0  0
 37 39  1  0  0  0
 37 47  1  0  0  0
 37 66  1  0  0  0
 37107  1  0  0  0
 38 43  2  0  0  0
 38 46  1  0  0  0
 38 47  1  0  0  0
 39 64  1  0  0  0
 39 67  2  0  0  0
 40 52  1  0  0  0
 40 53  2  0  0  0
 40 58  1  0  0  0
 41108  1  0  0  0
 41109  1  0  0  0
 41110  1  0  0  0
 41 48  1  0  0  0
 42 43  1  0  0  0
 42 66  1  0  0  0
 42111  1  0  0  0
 42112  1  0  0  0
 43 44  1  0  0  0
 44113  1  0  0  0
 45 46  2  0  0  0
 45114  1  0  0  0
 46115  1  0  0  0
 47116  1  0  0  0
 47117  1  0  0  0
 48 56  1  0  0  0
 48 65  1  0  0  0
 48118  1  0  0  0
 49 50  1  0  0  0
 49 53  1  0  0  0
 49 64  1  0  0  0
 49119  1  0  0  0
 50 51  1  0  0  0
 50120  1  0  0  0
 50121  1  0  0  0
 51 52  1  0  0  0
 51122  1  0  0  0
 51123  1  0  0  0
 52124  1  0  0  0
 52125  1  0  0  0
 53 54  1  0  0  0
 54 55  2  0  0  0
 54126  1  0  0  0
 55 57  1  0  0  0
 55127  1  0  0  0
 56 69  2  0  0  0
 57 58  2  0  0  0
 57128  1  0  0  0
 58129  1  0  0  0
 59 60  1  0  0  0
 59 61  1  0  0  0
 59 62  1  0  0  0
 60130  1  0  0  0
 60131  1  0  0  0
 60132  1  0  0  0
 61133  1  0  0  0
 61134  1  0  0  0
 61135  1  0  0  0
 62136  1  0  0  0
 62137  1  0  0  0
 62138  1  0  0  0
 63 65  1  0  0  0
 63139  1  0  0  0
 63140  1  0  0  0
 63141  1  0  0  0
 64142  1  0  0  0
 65143  1  0  0  0
 68 80  1  0  0  0
 71 72  2  0  0  0
 71 74  1  0  0  0
 71144  1  0  0  0
 72 75  1  0  0  0
 72145  1  0  0  0
 73 74  2  0  0  0
 73 82  1  0  0  0
 73146  1  0  0  0
 74 78  1  0  0  0
 75 82  2  0  0  0
 75 84  1  0  0  0
 76 78  1  0  0  0
 76 83  1  0  0  0
 76147  1  0  0  0
 76148  1  0  0  0
 77 78  1  0  0  0
 77 83  1  0  0  0
 77149  1  0  0  0
 77150  1  0  0  0
 78151  1  0  0  0
 79152  1  0  0  0
 79153  1  0  0  0
 79154  1  0  0  0
 79 81  1  0  0  0
 80 81  1  0  0  0
 80155  1  0  0  0
 80156  1  0  0  0
 81 84  1  0  0  0
 81157  1  0  0  0
 84158  1  0  0  0
M  ISO  4   1 100  68 101  80 101  83 100
M  END
> <chiral flag>
0

> <version>
0

> <s_m_source_file>
/data/baiqing/PycharmProjects/Reinvent-master-3.2/result/LINK_invent/BTK/process_docking_weight1_custom_sum_contain_oxygen_bond_distance_aromatic_linkinvent_7_9_3/rearranged_h_0188.sdf

> <i_m_source_file_index>
23

> <r_mmod_Potential_Energy-OPLS-2005>
-149.824325561523

> <r_mmod_Stretch_Energy-OPLS-2005>
43.0536193847656

> <r_mmod_Bend_Energy-OPLS-2005>
143.8984375

> <r_mmod_Torsional_Energy-OPLS-2005>
255.998596191406

> <r_mmod_Improper_Torsional_Energy-OPLS-2005>
9.18738746643066

> <r_mmod_Van_der_Waal_Energy-OPLS-2005>
160.514785766602

> <r_mmod_Electrostatic_Energy-OPLS-2005>
-550.662109375

> <r_mmod_Solvation_Energy-OPLS-2005>
-231.969116210938

> <b_mmod_Minimization_Converged-OPLS-2005>
0

> <r_mmod_RMS_Derivative-OPLS-2005>
0.812105059623718

$$$$
23
                    3D
 Structure written by MMmdl.
163173  0  0  1  0            999 V2000
  -30.6858  -14.7423   20.4695 C   0  0  0  0  0  0
  -30.4150  -12.4760   19.4567 C   0  0  0  0  0  0
  -29.4905  -12.5009   18.2242 C   0  0  0  0  0  0
  -28.0237  -12.3120   18.6517 C   0  0  0  0  0  0
  -27.6313  -13.2219   19.8449 C   0  0  2  0  0  0
  -28.6881  -13.1823   20.9739 C   0  0  0  0  0  0
  -25.2454  -13.8158   20.5688 C   0  0  0  0  0  0
  -24.1759  -13.0414   20.9236 C   0  0  0  0  0  0
  -24.6339  -11.6891   20.8785 C   0  0  0  0  0  0
  -23.9023  -10.4276   21.0432 C   0  0  0  0  0  0
  -24.3586   -9.4192   21.9198 C   0  0  0  0  0  0
  -23.6272   -8.2220   22.0758 C   0  0  0  0  0  0
  -22.4256   -8.0251   21.3540 C   0  0  0  0  0  0
  -21.9880   -9.0231   20.4655 C   0  0  0  0  0  0
  -22.7201  -10.2116   20.3076 C   0  0  0  0  0  0
  -21.6850   -6.0717   22.5268 C   0  0  0  0  0  0
  -21.4015   -6.5620   23.8198 C   0  0  0  0  0  0
  -21.3662   -5.6773   24.9164 C   0  0  0  0  0  0
  -21.6037   -4.3041   24.7224 C   0  0  0  0  0  0
  -21.8823   -3.8130   23.4347 C   0  0  0  0  0  0
  -21.9193   -4.6941   22.3400 C   0  0  0  0  0  0
  -22.7786  -13.5212   21.1886 C   0  0  0  0  0  0
  -22.1671   -4.2130   21.0986 F   0  0  0  0  0  0
  -21.5626   -3.4523   25.7742 F   0  0  0  0  0  0
  -29.9671  -13.5650   20.3649 N   0  0  0  0  0  0
  -26.2874  -12.9340   20.3297 N   0  0  0  0  0  0
  -25.9270  -11.6502   20.5798 N   0  0  0  0  0  0
  -22.0421  -12.8232   22.0446 N   0  0  0  0  0  0
  -25.4090  -15.1866   20.4000 N   0  0  0  0  0  0
  -31.8937  -14.6822   20.2212 O   0  0  0  0  0  0
  -21.6634   -6.8846   21.4224 O   0  0  0  0  0  0
  -22.3503  -14.5526   20.6721 O   0  0  0  0  0  0
  -24.6290  -31.8573   23.1995 C   0  0  0  0  0  0
  -25.9125  -32.4757   23.8321 C   0  0  1  0  0  0
  -27.2036  -27.2775   20.1289 C   0  0  0  0  0  0
  -25.5916  -33.8553   24.2248 N   0  0  0  0  0  0
  -23.4232  -30.4821   21.5441 C   0  0  2  0  0  0
  -24.8673  -28.9359   20.1043 C   0  0  0  0  0  0
  -22.7490  -29.4609   22.4920 C   0  0  0  0  0  0
  -18.0291  -28.1401   22.8486 C   0  0  0  0  0  0
  -24.1495  -36.7290   23.2633 C   0  0  0  0  0  0
  -25.9677  -30.7778   21.3748 C   0  0  0  0  0  0
  -26.0391  -29.4026   20.7151 C   0  0  0  0  0  0
  -27.2133  -28.5850   20.7169 C   0  0  0  0  0  0
  -26.0182  -26.8861   19.4703 C   0  0  0  0  0  0
  -24.8609  -27.6852   19.4694 C   0  0  0  0  0  0
  -23.6375  -29.8203   20.1582 C   0  0  0  0  0  0
  -25.4112  -36.3069   24.0330 C   0  0  1  0  0  0
  -20.5894  -28.3697   23.1286 C   0  0  2  0  0  0
  -20.6781  -26.9417   22.5425 C   0  0  0  0  0  0
  -19.5757  -26.6393   21.5229 C   0  0  0  0  0  0
  -18.1933  -26.7944   22.1628 C   0  0  0  0  0  0
  -19.1545  -28.8864   23.2881 C   0  0  0  0  0  0
  -18.9465  -30.1480   23.8887 C   0  0  0  0  0  0
  -17.6459  -30.6595   24.0572 C   0  0  0  0  0  0
  -25.9047  -34.9440   23.5084 C   0  0  0  0  0  0
  -16.5350  -29.9095   23.6345 C   0  0  0  0  0  0
  -16.7277  -28.6524   23.0337 C   0  0  0  0  0  0
  -26.4482  -31.6565   25.0699 C   0  0  0  0  0  0
  -25.3707  -31.3763   26.1431 C   0  0  0  0  0  0
  -27.0299  -30.2963   24.6181 C   0  0  0  0  0  0
  -27.6055  -32.4285   25.7467 C   0  0  0  0  0  0
  -27.5586  -37.1795   24.8456 C   0  0  0  0  0  0
  -21.4199  -29.3037   22.3665 N   0  0  0  0  0  0
  -26.4286  -37.3773   23.9413 N   0  0  0  0  0  0
  -24.6922  -31.0560   22.0959 N   0  0  0  0  0  0
  -23.4213  -28.8153   23.3000 O   0  0  0  0  0  0
  -28.2708  -26.3594   20.2114 O   0  0  0  0  0  0
  -26.5631  -34.8914   22.4669 O   0  0  0  0  0  0
  -23.5441  -32.1366   23.7316 O   0  0  0  0  0  0
  -28.5993  -20.3284   20.6466 C   0  0  0  0  0  0
  -28.2156  -23.7851   19.3819 C   0  0  0  0  0  0
  -28.7493  -23.9804   21.3557 C   0  0  0  0  0  0
  -28.3716  -17.8510   21.2259 C   0  0  0  0  0  0
  -30.5895  -18.7320   20.6461 C   0  0  0  0  0  0
  -28.7183  -16.4795   20.5378 C   0  0  0  0  0  0
  -31.0639  -17.2065   20.6280 C   0  0  0  0  0  0
  -27.1366  -20.6165   20.7819 C   0  0  2  0  0  0
  -27.9097  -24.9152   20.4249 C   0  0  1  0  0  0
  -28.2463  -22.7233   20.5487 C   0  0  1  0  0  0
  -26.4208  -20.2049   19.4853 C   0  0  0  0  0  0
  -26.9808  -22.0689   20.9528 N   0  0  0  0  0  0
  -29.1430  -19.0356   20.7465 N   0  0  0  0  0  0
  -30.1244  -16.0267   20.6477 N   0  0  0  0  0  0
  -29.1989  -21.5457   20.4396 N   0  3  0  0  0  0
  -31.4502  -12.5852   19.1304 H   0  0  0  0  0  0
  -30.3680  -11.5095   19.9612 H   0  0  0  0  0  0
  -29.7787  -11.7226   17.5152 H   0  0  0  0  0  0
  -29.5982  -13.4521   17.7007 H   0  0  0  0  0  0
  -27.8928  -11.2666   18.9305 H   0  0  0  0  0  0
  -27.3573  -12.4882   17.8062 H   0  0  0  0  0  0
  -27.6097  -14.2257   19.4269 H   0  0  0  0  0  0
  -28.7527  -12.1808   21.4026 H   0  0  0  0  0  0
  -28.4311  -13.8317   21.8100 H   0  0  0  0  0  0
  -25.2736   -9.5678   22.4769 H   0  0  0  0  0  0
  -23.9976   -7.4612   22.7478 H   0  0  0  0  0  0
  -21.0805   -8.8748   19.8975 H   0  0  0  0  0  0
  -22.3645  -10.9650   19.6188 H   0  0  0  0  0  0
  -21.2015   -7.6128   23.9692 H   0  0  0  0  0  0
  -21.1486   -6.0517   25.9064 H   0  0  0  0  0  0
  -22.0610   -2.7593   23.2854 H   0  0  0  0  0  0
  -22.4026  -11.9883   22.4832 H   0  0  0  0  0  0
  -21.1052  -13.1289   22.2667 H   0  0  0  0  0  0
  -24.6232  -15.8233   20.4804 H   0  0  0  0  0  0
  -26.2221  -15.6104   19.9758 H   0  0  0  0  0  0
  -26.7191  -32.5433   23.1069 H   0  0  0  0  0  0
  -25.0036  -33.9676   25.0365 H   0  0  0  0  0  0
  -22.7171  -31.3034   21.4039 H   0  0  0  0  0  0
  -23.3749  -35.9631   23.3277 H   0  0  0  0  0  0
  -24.3591  -36.8923   22.2050 H   0  0  0  0  0  0
  -23.7255  -37.6491   23.6661 H   0  0  0  0  0  0
  -26.0994  -31.5393   20.6043 H   0  0  0  0  0  0
  -26.8484  -30.8271   22.0042 H   0  0  0  0  0  0
  -28.1069  -28.9298   21.2169 H   0  0  0  0  0  0
  -25.9658  -25.9296   18.9703 H   0  0  0  0  0  0
  -23.9678  -27.3255   18.9774 H   0  0  0  0  0  0
  -23.7557  -30.5980   19.4033 H   0  0  0  0  0  0
  -22.7561  -29.2522   19.8571 H   0  0  0  0  0  0
  -25.1296  -36.1920   25.0824 H   0  0  0  0  0  0
  -20.9990  -28.3289   24.1404 H   0  0  0  0  0  0
  -20.5693  -26.2300   23.3621 H   0  0  0  0  0  0
  -21.6648  -26.7448   22.1219 H   0  0  0  0  0  0
  -19.6903  -25.6308   21.1254 H   0  0  0  0  0  0
  -19.6707  -27.3213   20.6772 H   0  0  0  0  0  0
  -17.4211  -26.6708   21.4022 H   0  0  0  0  0  0
  -18.0306  -26.0097   22.9031 H   0  0  0  0  0  0
  -19.7939  -30.7317   24.2224 H   0  0  0  0  0  0
  -17.5011  -31.6269   24.5192 H   0  0  0  0  0  0
  -15.5349  -30.2983   23.7680 H   0  0  0  0  0  0
  -15.8680  -28.0857   22.7012 H   0  0  0  0  0  0
  -24.5887  -30.7081   25.7800 H   0  0  0  0  0  0
  -24.8880  -32.2949   26.4777 H   0  0  0  0  0  0
  -25.8011  -30.9021   27.0255 H   0  0  0  0  0  0
  -26.2866  -29.6737   24.1177 H   0  0  0  0  0  0
  -27.3921  -29.7208   25.4711 H   0  0  0  0  0  0
  -27.8781  -30.4197   23.9443 H   0  0  0  0  0  0
  -27.2668  -33.3584   26.2051 H   0  0  0  0  0  0
  -28.3860  -32.6834   25.0286 H   0  0  0  0  0  0
  -28.0720  -31.8396   26.5374 H   0  0  0  0  0  0
  -28.2601  -38.0096   24.7502 H   0  0  0  0  0  0
  -28.1085  -36.2623   24.6272 H   0  0  0  0  0  0
  -27.2311  -37.1452   25.8863 H   0  0  0  0  0  0
  -20.9364  -29.8746   21.6871 H   0  0  0  0  0  0
  -26.0164  -38.2850   24.1406 H   0  0  0  0  0  0
  -29.1732  -23.9084   18.8725 H   0  0  0  0  0  0
  -27.4084  -23.6448   18.6613 H   0  0  0  0  0  0
  -28.4192  -24.0130   22.3940 H   0  0  0  0  0  0
  -29.8271  -24.1465   21.2902 H   0  0  0  0  0  0
  -28.5486  -17.7645   22.2988 H   0  0  0  0  0  0
  -27.3032  -18.0237   21.1217 H   0  0  0  0  0  0
  -30.9533  -19.2210   19.7423 H   0  0  0  0  0  0
  -31.0866  -19.2448   21.4716 H   0  0  0  0  0  0
  -28.4518  -16.5247   19.4810 H   0  0  0  0  0  0
  -28.0582  -15.7533   20.9961 H   0  0  0  0  0  0
  -31.7528  -17.0746   21.4637 H   0  0  0  0  0  0
  -31.6857  -17.1103   19.7360 H   0  0  0  0  0  0
  -26.7096  -20.0991   21.6423 H   0  0  0  0  0  0
  -26.8728  -24.8374   20.7603 H   0  0  0  0  0  0
  -26.8700  -20.6916   18.6199 H   0  0  0  0  0  0
  -25.3643  -20.4729   19.5101 H   0  0  0  0  0  0
  -26.4782  -19.1301   19.3175 H   0  0  0  0  0  0
  -26.8301  -22.2245   21.9448 H   0  0  0  0  0  0
  -30.1884  -21.6684   20.2643 H   0  0  0  0  0  0
  1 25  1  0  0  0
  1 30  2  0  0  0
  1 84  1  0  0  0
  2  3  1  0  0  0
  2 25  1  0  0  0
  2 86  1  0  0  0
  2 87  1  0  0  0
  3  4  1  0  0  0
  3 88  1  0  0  0
  3 89  1  0  0  0
  4  5  1  0  0  0
  4 90  1  0  0  0
  4 91  1  0  0  0
  5  6  1  0  0  0
  5 26  1  0  0  0
  5 92  1  0  0  0
  6 25  1  0  0  0
  6 93  1  0  0  0
  6 94  1  0  0  0
  7  8  2  0  0  0
  7 26  1  0  0  0
  7 29  1  0  0  0
  8  9  1  0  0  0
  8 22  1  0  0  0
  9 10  1  0  0  0
  9 27  2  0  0  0
 10 11  2  0  0  0
 10 15  1  0  0  0
 11 12  1  0  0  0
 11 95  1  0  0  0
 12 13  2  0  0  0
 12 96  1  0  0  0
 13 14  1  0  0  0
 13 31  1  0  0  0
 14 15  2  0  0  0
 14 97  1  0  0  0
 15 98  1  0  0  0
 16 17  2  0  0  0
 16 21  1  0  0  0
 16 31  1  0  0  0
 17 18  1  0  0  0
 17 99  1  0  0  0
 18 19  2  0  0  0
 18100  1  0  0  0
 19 20  1  0  0  0
 19 24  1  0  0  0
 20 21  2  0  0  0
 20101  1  0  0  0
 21 23  1  0  0  0
 22 28  1  0  0  0
 22 32  2  0  0  0
 26 27  1  0  0  0
 28102  1  0  0  0
 28103  1  0  0  0
 29104  1  0  0  0
 29105  1  0  0  0
 33 34  1  0  0  0
 33 66  1  0  0  0
 33 70  2  0  0  0
 34 36  1  0  0  0
 34 59  1  0  0  0
 34106  1  0  0  0
 35 44  2  0  0  0
 35 45  1  0  0  0
 35 68  1  0  0  0
 36 56  1  0  0  0
 36107  1  0  0  0
 37 39  1  0  0  0
 37 47  1  0  0  0
 37 66  1  0  0  0
 37108  1  0  0  0
 38 43  2  0  0  0
 38 46  1  0  0  0
 38 47  1  0  0  0
 39 64  1  0  0  0
 39 67  2  0  0  0
 40 52  1  0  0  0
 40 53  2  0  0  0
 40 58  1  0  0  0
 41109  1  0  0  0
 41110  1  0  0  0
 41111  1  0  0  0
 41 48  1  0  0  0
 42 43  1  0  0  0
 42 66  1  0  0  0
 42112  1  0  0  0
 42113  1  0  0  0
 43 44  1  0  0  0
 44114  1  0  0  0
 45 46  2  0  0  0
 45115  1  0  0  0
 46116  1  0  0  0
 47117  1  0  0  0
 47118  1  0  0  0
 48 56  1  0  0  0
 48 65  1  0  0  0
 48119  1  0  0  0
 49 50  1  0  0  0
 49 53  1  0  0  0
 49 64  1  0  0  0
 49120  1  0  0  0
 50 51  1  0  0  0
 50121  1  0  0  0
 50122  1  0  0  0
 51 52  1  0  0  0
 51123  1  0  0  0
 51124  1  0  0  0
 52125  1  0  0  0
 52126  1  0  0  0
 53 54  1  0  0  0
 54 55  2  0  0  0
 54127  1  0  0  0
 55 57  1  0  0  0
 55128  1  0  0  0
 56 69  2  0  0  0
 57 58  2  0  0  0
 57129  1  0  0  0
 58130  1  0  0  0
 59 60  1  0  0  0
 59 61  1  0  0  0
 59 62  1  0  0  0
 60131  1  0  0  0
 60132  1  0  0  0
 60133  1  0  0  0
 61134  1  0  0  0
 61135  1  0  0  0
 61136  1  0  0  0
 62137  1  0  0  0
 62138  1  0  0  0
 62139  1  0  0  0
 63 65  1  0  0  0
 63140  1  0  0  0
 63141  1  0  0  0
 63142  1  0  0  0
 64143  1  0  0  0
 65144  1  0  0  0
 68 79  1  0  0  0
 71 78  1  0  0  0
 71 83  1  0  0  0
 71 85  2  0  0  0
 72 79  1  0  0  0
 72145  1  0  0  0
 72146  1  0  0  0
 72 80  1  0  0  0
 73 79  1  0  0  0
 73 80  1  0  0  0
 73147  1  0  0  0
 73148  1  0  0  0
 74 76  1  0  0  0
 74 83  1  0  0  0
 74149  1  0  0  0
 74150  1  0  0  0
 75 77  1  0  0  0
 75 83  1  0  0  0
 75151  1  0  0  0
 75152  1  0  0  0
 76 84  1  0  0  0
 76153  1  0  0  0
 76154  1  0  0  0
 77 84  1  0  0  0
 77155  1  0  0  0
 77156  1  0  0  0
 78 81  1  0  0  0
 78 82  1  0  0  0
 78157  1  0  0  0
 79158  1  0  0  0
 80 82  1  0  0  0
 80 85  1  0  0  0
 81159  1  0  0  0
 81160  1  0  0  0
 81161  1  0  0  0
 82162  1  0  0  0
 85163  1  0  0  0
M  CHG  1  85   1
M  ISO  4   1 100  68 101  79 101  84 100
M  END
> <chiral flag>
0

> <version>
0

> <s_m_source_file>
/data/baiqing/PycharmProjects/Reinvent-master-3.2/result/LINK_invent/BTK/process_docking_weight1_custom_sum_contain_oxygen_bond_distance_aromatic_linkinvent_7_9_3/rearranged_h_0188.sdf

> <i_m_source_file_index>
24

> <r_mmod_Potential_Energy-OPLS-2005>
387.448516845703

> <r_mmod_Stretch_Energy-OPLS-2005>
107.359596252441

> <r_mmod_Bend_Energy-OPLS-2005>
265.946350097656

> <r_mmod_Torsional_Energy-OPLS-2005>
380.516845703125

> <r_mmod_Improper_Torsional_Energy-OPLS-2005>
5.42562103271484

> <r_mmod_Van_der_Waal_Energy-OPLS-2005>
138.369598388672

> <r_mmod_Electrostatic_Energy-OPLS-2005>
-155.908874511719

> <r_mmod_Solvation_Energy-OPLS-2005>
-443.850769042969

> <b_mmod_Minimization_Converged-OPLS-2005>
0

> <r_mmod_RMS_Derivative-OPLS-2005>
2.34362936019897

$$$$
24
                    3D
 Structure written by MMmdl.
159167  0  0  1  0            999 V2000
  -30.6059  -14.7448   20.4890 C   0  0  0  0  0  0
  -30.4318  -12.4584   19.4774 C   0  0  0  0  0  0
  -29.5104  -12.5139   18.2389 C   0  0  0  0  0  0
  -28.0362  -12.3371   18.6496 C   0  0  0  0  0  0
  -27.6434  -13.2308   19.8556 C   0  0  2  0  0  0
  -28.6838  -13.1487   20.9916 C   0  0  0  0  0  0
  -25.2524  -13.8202   20.5710 C   0  0  0  0  0  0
  -24.1803  -13.0446   20.9188 C   0  0  0  0  0  0
  -24.6390  -11.6922   20.8733 C   0  0  0  0  0  0
  -23.9071  -10.4293   21.0397 C   0  0  0  0  0  0
  -24.3622   -9.4209   21.9177 C   0  0  0  0  0  0
  -23.6295   -8.2246   22.0754 C   0  0  0  0  0  0
  -22.4278   -8.0282   21.3544 C   0  0  0  0  0  0
  -21.9912   -9.0255   20.4647 C   0  0  0  0  0  0
  -22.7242  -10.2133   20.3050 C   0  0  0  0  0  0
  -21.6854   -6.0735   22.5278 C   0  0  0  0  0  0
  -21.4014   -6.5642   23.8211 C   0  0  0  0  0  0
  -21.3660   -5.6796   24.9174 C   0  0  0  0  0  0
  -21.6046   -4.3058   24.7225 C   0  0  0  0  0  0
  -21.8818   -3.8149   23.4345 C   0  0  0  0  0  0
  -21.9194   -4.6964   22.3400 C   0  0  0  0  0  0
  -22.7828  -13.5228   21.1860 C   0  0  0  0  0  0
  -22.1664   -4.2150   21.0978 F   0  0  0  0  0  0
  -21.5625   -3.4543   25.7736 F   0  0  0  0  0  0
  -29.9857  -13.5139   20.4190 N   0  0  0  0  0  0
  -26.2944  -12.9402   20.3300 N   0  0  0  0  0  0
  -25.9321  -11.6545   20.5747 N   0  0  0  0  0  0
  -22.0482  -12.8208   22.0418 N   0  0  0  0  0  0
  -25.4255  -15.1928   20.4175 N   0  0  0  0  0  0
  -31.7601  -14.8651   20.0624 O   0  0  0  0  0  0
  -21.6645   -6.8877   21.4238 O   0  0  0  0  0  0
  -22.3505  -14.5536   20.6716 O   0  0  0  0  0  0
  -24.6310  -31.8530   23.1950 C   0  0  0  0  0  0
  -25.9132  -32.4743   23.8308 C   0  0  1  0  0  0
  -27.2270  -27.2560   20.1278 C   0  0  0  0  0  0
  -25.5921  -33.8547   24.2234 N   0  0  0  0  0  0
  -23.4285  -30.4731   21.5373 C   0  0  2  0  0  0
  -24.8762  -28.9122   20.1060 C   0  0  0  0  0  0
  -22.7497  -29.4592   22.4900 C   0  0  0  0  0  0
  -18.0288  -28.1386   22.8489 C   0  0  0  0  0  0
  -24.1490  -36.7279   23.2643 C   0  0  0  0  0  0
  -25.9722  -30.7633   21.3745 C   0  0  0  0  0  0
  -26.0436  -29.3841   20.7172 C   0  0  0  0  0  0
  -27.2161  -28.5659   20.7181 C   0  0  0  0  0  0
  -26.0359  -26.8428   19.4932 C   0  0  0  0  0  0
  -24.8776  -27.6509   19.4847 C   0  0  0  0  0  0
  -23.6466  -29.8007   20.1542 C   0  0  0  0  0  0
  -25.4119  -36.3062   24.0324 C   0  0  1  0  0  0
  -20.5891  -28.3701   23.1266 C   0  0  2  0  0  0
  -20.6779  -26.9414   22.5409 C   0  0  0  0  0  0
  -19.5752  -26.6367   21.5222 C   0  0  0  0  0  0
  -18.1933  -26.7923   22.1637 C   0  0  0  0  0  0
  -19.1542  -28.8862   23.2873 C   0  0  0  0  0  0
  -18.9461  -30.1464   23.8894 C   0  0  0  0  0  0
  -17.6459  -30.6592   24.0557 C   0  0  0  0  0  0
  -25.9059  -34.9432   23.5086 C   0  0  0  0  0  0
  -16.5352  -29.9085   23.6331 C   0  0  0  0  0  0
  -16.7274  -28.6503   23.0352 C   0  0  0  0  0  0
  -26.4500  -31.6578   25.0707 C   0  0  0  0  0  0
  -25.3715  -31.3731   26.1421 C   0  0  0  0  0  0
  -27.0359  -30.2994   24.6210 C   0  0  0  0  0  0
  -27.6046  -32.4329   25.7487 C   0  0  0  0  0  0
  -27.5578  -37.1798   24.8467 C   0  0  0  0  0  0
  -21.4203  -29.3051   22.3652 N   0  0  0  0  0  0
  -26.4292  -37.3763   23.9405 N   0  0  0  0  0  0
  -24.6962  -31.0490   22.0921 N   0  0  0  0  0  0
  -23.4192  -28.8137   23.3011 O   0  0  0  0  0  0
  -28.3513  -26.4056   20.2260 O   0  0  0  0  0  0
  -26.5640  -34.8912   22.4660 O   0  0  0  0  0  0
  -23.5456  -32.1352   23.7242 O   0  0  0  0  0  0
  -29.1800  -17.6976   22.2916 C   0  0  0  0  0  0
  -29.8466  -16.3088   22.2303 C   0  0  0  0  0  0
  -29.6624  -17.1758   20.0562 C   0  0  0  0  0  0
  -29.5517  -18.4668   21.0099 C   0  0  1  0  0  0
  -27.8880  -20.2962   21.9951 C   0  0  0  0  0  0
  -28.1278  -23.6235   20.3811 C   0  0  0  0  0  0
  -29.0523  -21.0886   19.8498 C   0  0  0  0  0  0
  -28.4830  -25.0266   19.6334 C   0  0  0  0  0  0
  -28.5959  -19.7854   20.7188 C   0  0  1  0  0  0
  -29.8544  -15.8736   20.8330 N   0  0  0  0  0  0
  -29.1907  -22.5000   20.4697 N   0  3  0  0  0  0
  -31.4730  -12.5821   19.1756 H   0  0  0  0  0  0
  -30.3787  -11.4783   19.9541 H   0  0  0  0  0  0
  -29.7928  -11.7416   17.5226 H   0  0  0  0  0  0
  -29.6381  -13.4691   17.7270 H   0  0  0  0  0  0
  -27.8917  -11.2873   18.9067 H   0  0  0  0  0  0
  -27.3799  -12.5345   17.8010 H   0  0  0  0  0  0
  -27.6440  -14.2568   19.4866 H   0  0  0  0  0  0
  -28.7198  -12.1443   21.4159 H   0  0  0  0  0  0
  -28.4035  -13.8130   21.8082 H   0  0  0  0  0  0
  -25.2763   -9.5690   22.4758 H   0  0  0  0  0  0
  -24.0005   -7.4638   22.7478 H   0  0  0  0  0  0
  -21.0842   -8.8771   19.8953 H   0  0  0  0  0  0
  -22.3694  -10.9673   19.6164 H   0  0  0  0  0  0
  -21.2008   -7.6152   23.9712 H   0  0  0  0  0  0
  -21.1484   -6.0528   25.9077 H   0  0  0  0  0  0
  -22.0598   -2.7612   23.2846 H   0  0  0  0  0  0
  -22.4101  -11.9857   22.4780 H   0  0  0  0  0  0
  -21.1102  -13.1224   22.2643 H   0  0  0  0  0  0
  -24.6677  -15.8548   20.5429 H   0  0  0  0  0  0
  -26.2948  -15.6325   20.1418 H   0  0  0  0  0  0
  -26.7194  -32.5385   23.1044 H   0  0  0  0  0  0
  -25.0048  -33.9681   25.0365 H   0  0  0  0  0  0
  -22.7253  -31.2950   21.3881 H   0  0  0  0  0  0
  -23.3750  -35.9613   23.3309 H   0  0  0  0  0  0
  -24.3573  -36.8902   22.2055 H   0  0  0  0  0  0
  -23.7249  -37.6483   23.6670 H   0  0  0  0  0  0
  -26.1119  -31.5233   20.6046 H   0  0  0  0  0  0
  -26.8494  -30.8123   22.0086 H   0  0  0  0  0  0
  -28.1102  -28.9209   21.2116 H   0  0  0  0  0  0
  -25.9686  -25.8703   19.0284 H   0  0  0  0  0  0
  -23.9798  -27.2827   19.0074 H   0  0  0  0  0  0
  -23.7698  -30.5745   19.3954 H   0  0  0  0  0  0
  -22.7651  -29.2325   19.8520 H   0  0  0  0  0  0
  -25.1306  -36.1907   25.0818 H   0  0  0  0  0  0
  -20.9987  -28.3286   24.1386 H   0  0  0  0  0  0
  -20.5687  -26.2312   23.3621 H   0  0  0  0  0  0
  -21.6647  -26.7442   22.1203 H   0  0  0  0  0  0
  -19.6913  -25.6266   21.1277 H   0  0  0  0  0  0
  -19.6685  -27.3157   20.6733 H   0  0  0  0  0  0
  -17.4197  -26.6658   21.4045 H   0  0  0  0  0  0
  -18.0345  -26.0073   22.9044 H   0  0  0  0  0  0
  -19.7934  -30.7285   24.2263 H   0  0  0  0  0  0
  -17.5008  -31.6268   24.5168 H   0  0  0  0  0  0
  -15.5351  -30.2986   23.7657 H   0  0  0  0  0  0
  -15.8678  -28.0819   22.7071 H   0  0  0  0  0  0
  -24.5891  -30.7086   25.7740 H   0  0  0  0  0  0
  -24.8904  -32.2900   26.4834 H   0  0  0  0  0  0
  -25.8017  -30.8910   27.0207 H   0  0  0  0  0  0
  -26.2951  -29.6731   24.1227 H   0  0  0  0  0  0
  -27.4028  -29.7276   25.4745 H   0  0  0  0  0  0
  -27.8831  -30.4273   23.9469 H   0  0  0  0  0  0
  -27.2647  -33.3629   26.2058 H   0  0  0  0  0  0
  -28.3861  -32.6892   25.0322 H   0  0  0  0  0  0
  -28.0713  -31.8462   26.5412 H   0  0  0  0  0  0
  -28.2600  -38.0088   24.7498 H   0  0  0  0  0  0
  -28.1067  -36.2618   24.6314 H   0  0  0  0  0  0
  -27.2291  -37.1472   25.8868 H   0  0  0  0  0  0
  -20.9386  -29.8770   21.6855 H   0  0  0  0  0  0
  -26.0169  -38.2839   24.1391 H   0  0  0  0  0  0
  -29.4541  -18.2375   23.1993 H   0  0  0  0  0  0
  -28.1025  -17.5322   22.3226 H   0  0  0  0  0  0
  -30.8765  -16.3788   22.5877 H   0  0  0  0  0  0
  -29.3311  -15.5966   22.8756 H   0  0  0  0  0  0
  -28.7426  -17.0709   19.4797 H   0  0  0  0  0  0
  -30.4669  -17.3055   19.3302 H   0  0  0  0  0  0
  -30.5656  -18.8415   21.1594 H   0  0  0  0  0  0
  -28.6034  -20.6297   22.7472 H   0  0  0  0  0  0
  -27.2526  -19.5384   22.4516 H   0  0  0  0  0  0
  -27.2204  -21.1291   21.7739 H   0  0  0  0  0  0
  -27.2165  -23.2114   19.9472 H   0  0  0  0  0  0
  -27.8598  -23.8675   21.4092 H   0  0  0  0  0  0
  -28.3950  -21.1826   18.9845 H   0  0  0  0  0  0
  -30.0261  -20.8513   19.4203 H   0  0  0  0  0  0
  -28.0102  -25.0226   18.6514 H   0  0  0  0  0  0
  -29.5437  -24.9687   19.3899 H   0  0  0  0  0  0
  -27.7837  -19.3610   20.1261 H   0  0  0  0  0  0
  -29.4322  -22.3757   21.4397 H   0  0  0  0  0  0
  -30.0236  -22.8804   20.0474 H   0  0  0  0  0  0
  1 25  1  0  0  0
  1 30  2  0  0  0
  1 80  1  0  0  0
  2  3  1  0  0  0
  2 25  1  0  0  0
  2 82  1  0  0  0
  2 83  1  0  0  0
  3  4  1  0  0  0
  3 84  1  0  0  0
  3 85  1  0  0  0
  4  5  1  0  0  0
  4 86  1  0  0  0
  4 87  1  0  0  0
  5  6  1  0  0  0
  5 26  1  0  0  0
  5 88  1  0  0  0
  6 25  1  0  0  0
  6 89  1  0  0  0
  6 90  1  0  0  0
  7  8  2  0  0  0
  7 26  1  0  0  0
  7 29  1  0  0  0
  8  9  1  0  0  0
  8 22  1  0  0  0
  9 10  1  0  0  0
  9 27  2  0  0  0
 10 11  2  0  0  0
 10 15  1  0  0  0
 11 12  1  0  0  0
 11 91  1  0  0  0
 12 13  2  0  0  0
 12 92  1  0  0  0
 13 14  1  0  0  0
 13 31  1  0  0  0
 14 15  2  0  0  0
 14 93  1  0  0  0
 15 94  1  0  0  0
 16 17  2  0  0  0
 16 21  1  0  0  0
 16 31  1  0  0  0
 17 18  1  0  0  0
 17 95  1  0  0  0
 18 19  2  0  0  0
 18 96  1  0  0  0
 19 20  1  0  0  0
 19 24  1  0  0  0
 20 21  2  0  0  0
 20 97  1  0  0  0
 21 23  1  0  0  0
 22 28  1  0  0  0
 22 32  2  0  0  0
 26 27  1  0  0  0
 28 98  1  0  0  0
 28 99  1  0  0  0
 29100  1  0  0  0
 29101  1  0  0  0
 33 34  1  0  0  0
 33 66  1  0  0  0
 33 70  2  0  0  0
 34 36  1  0  0  0
 34 59  1  0  0  0
 34102  1  0  0  0
 35 44  2  0  0  0
 35 45  1  0  0  0
 35 68  1  0  0  0
 36 56  1  0  0  0
 36103  1  0  0  0
 37 39  1  0  0  0
 37 47  1  0  0  0
 37 66  1  0  0  0
 37104  1  0  0  0
 38 43  2  0  0  0
 38 46  1  0  0  0
 38 47  1  0  0  0
 39 64  1  0  0  0
 39 67  2  0  0  0
 40 52  1  0  0  0
 40 53  2  0  0  0
 40 58  1  0  0  0
 41105  1  0  0  0
 41106  1  0  0  0
 41107  1  0  0  0
 41 48  1  0  0  0
 42 43  1  0  0  0
 42 66  1  0  0  0
 42108  1  0  0  0
 42109  1  0  0  0
 43 44  1  0  0  0
 44110  1  0  0  0
 45 46  2  0  0  0
 45111  1  0  0  0
 46112  1  0  0  0
 47113  1  0  0  0
 47114  1  0  0  0
 48 56  1  0  0  0
 48 65  1  0  0  0
 48115  1  0  0  0
 49 50  1  0  0  0
 49 53  1  0  0  0
 49 64  1  0  0  0
 49116  1  0  0  0
 50 51  1  0  0  0
 50117  1  0  0  0
 50118  1  0  0  0
 51 52  1  0  0  0
 51119  1  0  0  0
 51120  1  0  0  0
 52121  1  0  0  0
 52122  1  0  0  0
 53 54  1  0  0  0
 54 55  2  0  0  0
 54123  1  0  0  0
 55 57  1  0  0  0
 55124  1  0  0  0
 56 69  2  0  0  0
 57 58  2  0  0  0
 57125  1  0  0  0
 58126  1  0  0  0
 59 60  1  0  0  0
 59 61  1  0  0  0
 59 62  1  0  0  0
 60127  1  0  0  0
 60128  1  0  0  0
 60129  1  0  0  0
 61130  1  0  0  0
 61131  1  0  0  0
 61132  1  0  0  0
 62133  1  0  0  0
 62134  1  0  0  0
 62135  1  0  0  0
 63 65  1  0  0  0
 63136  1  0  0  0
 63137  1  0  0  0
 63138  1  0  0  0
 64139  1  0  0  0
 65140  1  0  0  0
 68 78  1  0  0  0
 71 72  1  0  0  0
 71141  1  0  0  0
 71142  1  0  0  0
 71 74  1  0  0  0
 72 80  1  0  0  0
 72143  1  0  0  0
 72144  1  0  0  0
 73 74  1  0  0  0
 73 80  1  0  0  0
 73145  1  0  0  0
 73146  1  0  0  0
 74 79  1  0  0  0
 74147  1  0  0  0
 75148  1  0  0  0
 75149  1  0  0  0
 75150  1  0  0  0
 75 79  1  0  0  0
 76 78  1  0  0  0
 76 81  1  0  0  0
 76151  1  0  0  0
 76152  1  0  0  0
 77 79  1  0  0  0
 77 81  1  0  0  0
 77153  1  0  0  0
 77154  1  0  0  0
 78155  1  0  0  0
 78156  1  0  0  0
 79157  1  0  0  0
 81158  1  0  0  0
 81159  1  0  0  0
M  CHG  1  81   1
M  ISO  4   1 100  68 101  78 101  80 100
M  END
> <chiral flag>
0

> <version>
0

> <s_m_source_file>
/data/baiqing/PycharmProjects/Reinvent-master-3.2/result/LINK_invent/BTK/process_docking_weight1_custom_sum_contain_oxygen_bond_distance_aromatic_linkinvent_7_9_3/rearranged_h_0188.sdf

> <i_m_source_file_index>
25

> <r_mmod_Potential_Energy-OPLS-2005>
378.682067871094

> <r_mmod_Stretch_Energy-OPLS-2005>
140.303497314453

> <r_mmod_Bend_Energy-OPLS-2005>
252.958190917969

> <r_mmod_Torsional_Energy-OPLS-2005>
386.680297851562

> <r_mmod_Improper_Torsional_Energy-OPLS-2005>
7.89580726623535

> <r_mmod_Van_der_Waal_Energy-OPLS-2005>
114.429801940918

> <r_mmod_Electrostatic_Energy-OPLS-2005>
-169.302505493164

> <r_mmod_Solvation_Energy-OPLS-2005>
-437.613983154297

> <b_mmod_Minimization_Converged-OPLS-2005>
0

> <r_mmod_RMS_Derivative-OPLS-2005>
0.775915622711182

$$$$
25
                    3D
 Structure written by MMmdl.
154163  0  0  1  0            999 V2000
  -30.6118  -14.6909   20.4883 C   0  0  0  0  0  0
  -30.4366  -12.4237   19.4614 C   0  0  0  0  0  0
  -29.5137  -12.5122   18.2253 C   0  0  0  0  0  0
  -28.0333  -12.3546   18.6313 C   0  0  0  0  0  0
  -27.6468  -13.2295   19.8538 C   0  0  2  0  0  0
  -28.6908  -13.1169   20.9867 C   0  0  0  0  0  0
  -25.2526  -13.8193   20.5694 C   0  0  0  0  0  0
  -24.1818  -13.0437   20.9215 C   0  0  0  0  0  0
  -24.6408  -11.6914   20.8746 C   0  0  0  0  0  0
  -23.9087  -10.4286   21.0401 C   0  0  0  0  0  0
  -24.3631   -9.4200   21.9176 C   0  0  0  0  0  0
  -23.6313   -8.2239   22.0753 C   0  0  0  0  0  0
  -22.4293   -8.0291   21.3547 C   0  0  0  0  0  0
  -21.9925   -9.0260   20.4644 C   0  0  0  0  0  0
  -22.7260  -10.2133   20.3050 C   0  0  0  0  0  0
  -21.6852   -6.0747   22.5277 C   0  0  0  0  0  0
  -21.4017   -6.5638   23.8211 C   0  0  0  0  0  0
  -21.3662   -5.6786   24.9167 C   0  0  0  0  0  0
  -21.6051   -4.3049   24.7215 C   0  0  0  0  0  0
  -21.8809   -3.8147   23.4326 C   0  0  0  0  0  0
  -21.9185   -4.6976   22.3390 C   0  0  0  0  0  0
  -22.7829  -13.5225   21.1849 C   0  0  0  0  0  0
  -22.1649   -4.2165   21.0969 F   0  0  0  0  0  0
  -21.5633   -3.4529   25.7715 F   0  0  0  0  0  0
  -29.9952  -13.4660   20.4114 N   0  0  0  0  0  0
  -26.2956  -12.9400   20.3277 N   0  0  0  0  0  0
  -25.9329  -11.6539   20.5727 N   0  0  0  0  0  0
  -22.0448  -12.8244   22.0408 N   0  0  0  0  0  0
  -25.4207  -15.1920   20.4087 N   0  0  0  0  0  0
  -31.7963  -14.8184   20.1708 O   0  0  0  0  0  0
  -21.6646   -6.8896   21.4246 O   0  0  0  0  0  0
  -22.3514  -14.5525   20.6679 O   0  0  0  0  0  0
  -24.6295  -31.8554   23.1986 C   0  0  0  0  0  0
  -25.9120  -32.4749   23.8331 C   0  0  1  0  0  0
  -27.2274  -27.2775   20.1379 C   0  0  0  0  0  0
  -25.5918  -33.8554   24.2253 N   0  0  0  0  0  0
  -23.4247  -30.4758   21.5407 C   0  0  2  0  0  0
  -24.8700  -28.9111   20.1199 C   0  0  0  0  0  0
  -22.7481  -29.4604   22.4918 C   0  0  0  0  0  0
  -18.0297  -28.1381   22.8480 C   0  0  0  0  0  0
  -24.1486  -36.7298   23.2639 C   0  0  0  0  0  0
  -25.9664  -30.7701   21.3778 C   0  0  0  0  0  0
  -26.0362  -29.3891   20.7301 C   0  0  0  0  0  0
  -27.2144  -28.5835   20.7282 C   0  0  0  0  0  0
  -26.0398  -26.8562   19.4996 C   0  0  0  0  0  0
  -24.8732  -27.6506   19.4986 C   0  0  0  0  0  0
  -23.6427  -29.8011   20.1592 C   0  0  0  0  0  0
  -25.4111  -36.3071   24.0321 C   0  0  1  0  0  0
  -20.5890  -28.3710   23.1261 C   0  0  2  0  0  0
  -20.6777  -26.9422   22.5415 C   0  0  0  0  0  0
  -19.5750  -26.6380   21.5213 C   0  0  0  0  0  0
  -18.1931  -26.7928   22.1627 C   0  0  0  0  0  0
  -19.1545  -28.8863   23.2870 C   0  0  0  0  0  0
  -18.9472  -30.1462   23.8878 C   0  0  0  0  0  0
  -17.6471  -30.6581   24.0565 C   0  0  0  0  0  0
  -25.9046  -34.9436   23.5094 C   0  0  0  0  0  0
  -16.5362  -29.9082   23.6327 C   0  0  0  0  0  0
  -16.7288  -28.6508   23.0340 C   0  0  0  0  0  0
  -26.4484  -31.6579   25.0725 C   0  0  0  0  0  0
  -25.3700  -31.3750   26.1449 C   0  0  0  0  0  0
  -27.0333  -30.2990   24.6229 C   0  0  0  0  0  0
  -27.6027  -32.4323   25.7512 C   0  0  0  0  0  0
  -27.5579  -37.1802   24.8454 C   0  0  0  0  0  0
  -21.4195  -29.3058   22.3649 N   0  0  0  0  0  0
  -26.4290  -37.3766   23.9395 N   0  0  0  0  0  0
  -24.6918  -31.0536   22.0952 N   0  0  0  0  0  0
  -23.4192  -28.8153   23.3014 O   0  0  0  0  0  0
  -28.3884  -26.4799   20.1042 O   0  0  0  0  0  0
  -26.5626  -34.8914   22.4667 O   0  0  0  0  0  0
  -23.5444  -32.1371   23.7293 O   0  0  0  0  0  0
  -29.3596  -23.0976   19.3957 C   0  0  0  0  0  0
  -28.5762  -22.3247   20.2947 C   0  0  0  0  0  0
  -28.3820  -25.0827   20.1362 C   0  0  0  0  0  0
  -30.8324  -17.9300   19.6018 C   0  0  0  0  0  0
  -30.6023  -19.4731   19.7366 C   0  0  0  0  0  0
  -28.9535  -18.3097   20.9647 C   0  0  0  0  0  0
  -30.1432  -17.2785   20.8119 C   0  0  1  0  0  0
  -28.4081  -20.7373   20.2110 C   0  0  0  0  0  0
  -29.2738  -24.4657   19.3372 N   0  0  0  0  0  0
  -27.7172  -23.0378   21.0958 N   0  0  0  0  0  0
  -27.6238  -24.3994   21.0291 N   0  0  0  0  0  0
  -29.8109  -15.7898   20.7287 N   0  0  0  0  0  0
  -29.4570  -19.7094   20.6601 N   0  3  2  0  0  0
  -31.4803  -12.5472   19.1658 H   0  0  0  0  0  0
  -30.3712  -11.4368   19.9231 H   0  0  0  0  0  0
  -29.7860  -11.7473   17.4970 H   0  0  0  0  0  0
  -29.6579  -13.4727   17.7286 H   0  0  0  0  0  0
  -27.8607  -11.3023   18.8603 H   0  0  0  0  0  0
  -27.3859  -12.5888   17.7848 H   0  0  0  0  0  0
  -27.6523  -14.2602   19.4976 H   0  0  0  0  0  0
  -28.7108  -12.1056   21.3948 H   0  0  0  0  0  0
  -28.4348  -13.7733   21.8194 H   0  0  0  0  0  0
  -25.2773   -9.5676   22.4746 H   0  0  0  0  0  0
  -24.0007   -7.4632   22.7481 H   0  0  0  0  0  0
  -21.0843   -8.8791   19.8958 H   0  0  0  0  0  0
  -22.3724  -10.9673   19.6152 H   0  0  0  0  0  0
  -21.2024   -7.6141   23.9723 H   0  0  0  0  0  0
  -21.1500   -6.0508   25.9070 H   0  0  0  0  0  0
  -22.0594   -2.7614   23.2808 H   0  0  0  0  0  0
  -22.4038  -11.9939   22.4871 H   0  0  0  0  0  0
  -21.1058  -13.1287   22.2556 H   0  0  0  0  0  0
  -24.6456  -15.8401   20.5112 H   0  0  0  0  0  0
  -26.2522  -15.6247   20.0299 H   0  0  0  0  0  0
  -26.7179  -32.5392   23.1070 H   0  0  0  0  0  0
  -25.0021  -33.9677   25.0363 H   0  0  0  0  0  0
  -22.7231  -31.2983   21.3913 H   0  0  0  0  0  0
  -23.3735  -35.9644   23.3297 H   0  0  0  0  0  0
  -24.3573  -36.8930   22.2055 H   0  0  0  0  0  0
  -23.7257  -37.6501   23.6676 H   0  0  0  0  0  0
  -26.1027  -31.5263   20.6036 H   0  0  0  0  0  0
  -26.8458  -30.8211   22.0087 H   0  0  0  0  0  0
  -28.1170  -28.9535   21.1932 H   0  0  0  0  0  0
  -26.0042  -25.8987   18.9992 H   0  0  0  0  0  0
  -23.9794  -27.2826   19.0132 H   0  0  0  0  0  0
  -23.7723  -30.5725   19.3989 H   0  0  0  0  0  0
  -22.7611  -29.2341   19.8553 H   0  0  0  0  0  0
  -25.1293  -36.1918   25.0815 H   0  0  0  0  0  0
  -20.9998  -28.3303   24.1373 H   0  0  0  0  0  0
  -20.5665  -26.2326   23.3629 H   0  0  0  0  0  0
  -21.6644  -26.7424   22.1210 H   0  0  0  0  0  0
  -19.6910  -25.6286   21.1247 H   0  0  0  0  0  0
  -19.6676  -27.3184   20.6729 H   0  0  0  0  0  0
  -17.4202  -26.6677   21.4025 H   0  0  0  0  0  0
  -18.0330  -26.0063   22.9017 H   0  0  0  0  0  0
  -19.7949  -30.7288   24.2221 H   0  0  0  0  0  0
  -17.5026  -31.6246   24.5199 H   0  0  0  0  0  0
  -15.5359  -30.2987   23.7644 H   0  0  0  0  0  0
  -15.8690  -28.0829   22.7044 H   0  0  0  0  0  0
  -24.5856  -30.7119   25.7787 H   0  0  0  0  0  0
  -24.8913  -32.2929   26.4867 H   0  0  0  0  0  0
  -25.8012  -30.8928   27.0230 H   0  0  0  0  0  0
  -26.2935  -29.6738   24.1222 H   0  0  0  0  0  0
  -27.3956  -29.7259   25.4775 H   0  0  0  0  0  0
  -27.8835  -30.4247   23.9521 H   0  0  0  0  0  0
  -27.2615  -33.3607   26.2108 H   0  0  0  0  0  0
  -28.3846  -32.6907   25.0357 H   0  0  0  0  0  0
  -28.0690  -31.8432   26.5421 H   0  0  0  0  0  0
  -28.2582  -38.0111   24.7498 H   0  0  0  0  0  0
  -28.1087  -36.2637   24.6281 H   0  0  0  0  0  0
  -27.2295  -37.1459   25.8857 H   0  0  0  0  0  0
  -20.9389  -29.8787   21.6844 H   0  0  0  0  0  0
  -26.0167  -38.2840   24.1386 H   0  0  0  0  0  0
  -30.0184  -22.6193   18.6850 H   0  0  0  0  0  0
  -31.8936  -17.6838   19.5472 H   0  0  0  0  0  0
  -30.3686  -17.5765   18.6801 H   0  0  0  0  0  0
  -30.4354  -19.9204   18.7560 H   0  0  0  0  0  0
  -31.4880  -19.9541   20.1563 H   0  0  0  0  0  0
  -28.5028  -18.2648   21.9567 H   0  0  0  0  0  0
  -28.1677  -18.0589   20.2518 H   0  0  0  0  0  0
  -30.7924  -17.4011   21.6810 H   0  0  0  0  0  0
  -28.1280  -20.4990   19.1850 H   0  0  0  0  0  0
  -27.5133  -20.5131   20.7915 H   0  0  0  0  0  0
  -28.8464  -15.5567   20.9136 H   0  0  0  0  0  0
  -29.8454  -20.0532   21.5248 H   0  0  0  0  0  0
  1 25  1  0  0  0
  1 30  2  0  0  0
  1 82  1  0  0  0
  2  3  1  0  0  0
  2 25  1  0  0  0
  2 84  1  0  0  0
  2 85  1  0  0  0
  3  4  1  0  0  0
  3 86  1  0  0  0
  3 87  1  0  0  0
  4  5  1  0  0  0
  4 88  1  0  0  0
  4 89  1  0  0  0
  5  6  1  0  0  0
  5 26  1  0  0  0
  5 90  1  0  0  0
  6 25  1  0  0  0
  6 91  1  0  0  0
  6 92  1  0  0  0
  7  8  2  0  0  0
  7 26  1  0  0  0
  7 29  1  0  0  0
  8  9  1  0  0  0
  8 22  1  0  0  0
  9 10  1  0  0  0
  9 27  2  0  0  0
 10 11  2  0  0  0
 10 15  1  0  0  0
 11 12  1  0  0  0
 11 93  1  0  0  0
 12 13  2  0  0  0
 12 94  1  0  0  0
 13 14  1  0  0  0
 13 31  1  0  0  0
 14 15  2  0  0  0
 14 95  1  0  0  0
 15 96  1  0  0  0
 16 17  2  0  0  0
 16 21  1  0  0  0
 16 31  1  0  0  0
 17 18  1  0  0  0
 17 97  1  0  0  0
 18 19  2  0  0  0
 18 98  1  0  0  0
 19 20  1  0  0  0
 19 24  1  0  0  0
 20 21  2  0  0  0
 20 99  1  0  0  0
 21 23  1  0  0  0
 22 28  1  0  0  0
 22 32  2  0  0  0
 26 27  1  0  0  0
 28100  1  0  0  0
 28101  1  0  0  0
 29102  1  0  0  0
 29103  1  0  0  0
 33 34  1  0  0  0
 33 66  1  0  0  0
 33 70  2  0  0  0
 34 36  1  0  0  0
 34 59  1  0  0  0
 34104  1  0  0  0
 35 44  2  0  0  0
 35 45  1  0  0  0
 35 68  1  0  0  0
 36 56  1  0  0  0
 36105  1  0  0  0
 37 39  1  0  0  0
 37 47  1  0  0  0
 37 66  1  0  0  0
 37106  1  0  0  0
 38 43  2  0  0  0
 38 46  1  0  0  0
 38 47  1  0  0  0
 39 64  1  0  0  0
 39 67  2  0  0  0
 40 52  1  0  0  0
 40 53  2  0  0  0
 40 58  1  0  0  0
 41107  1  0  0  0
 41108  1  0  0  0
 41109  1  0  0  0
 41 48  1  0  0  0
 42 43  1  0  0  0
 42 66  1  0  0  0
 42110  1  0  0  0
 42111  1  0  0  0
 43 44  1  0  0  0
 44112  1  0  0  0
 45 46  2  0  0  0
 45113  1  0  0  0
 46114  1  0  0  0
 47115  1  0  0  0
 47116  1  0  0  0
 48 56  1  0  0  0
 48 65  1  0  0  0
 48117  1  0  0  0
 49 50  1  0  0  0
 49 53  1  0  0  0
 49 64  1  0  0  0
 49118  1  0  0  0
 50 51  1  0  0  0
 50119  1  0  0  0
 50120  1  0  0  0
 51 52  1  0  0  0
 51121  1  0  0  0
 51122  1  0  0  0
 52123  1  0  0  0
 52124  1  0  0  0
 53 54  1  0  0  0
 54 55  2  0  0  0
 54125  1  0  0  0
 55 57  1  0  0  0
 55126  1  0  0  0
 56 69  2  0  0  0
 57 58  2  0  0  0
 57127  1  0  0  0
 58128  1  0  0  0
 59 60  1  0  0  0
 59 61  1  0  0  0
 59 62  1  0  0  0
 60129  1  0  0  0
 60130  1  0  0  0
 60131  1  0  0  0
 61132  1  0  0  0
 61133  1  0  0  0
 61134  1  0  0  0
 62135  1  0  0  0
 62136  1  0  0  0
 62137  1  0  0  0
 63 65  1  0  0  0
 63138  1  0  0  0
 63139  1  0  0  0
 63140  1  0  0  0
 64141  1  0  0  0
 65142  1  0  0  0
 68 73  1  0  0  0
 71 72  2  0  0  0
 71 79  1  0  0  0
 71143  1  0  0  0
 72 78  1  0  0  0
 72 80  1  0  0  0
 73 79  2  0  0  0
 73 81  1  0  0  0
 74 75  1  0  0  0
 74 77  1  0  0  0
 74144  1  0  0  0
 74145  1  0  0  0
 75 83  1  0  0  0
 75146  1  0  0  0
 75147  1  0  0  0
 76 77  1  0  0  0
 76 83  1  0  0  0
 76148  1  0  0  0
 76149  1  0  0  0
 77 82  1  0  0  0
 77150  1  0  0  0
 78151  1  0  0  0
 78152  1  0  0  0
 78 83  1  0  0  0
 80 81  2  0  0  0
 82153  1  0  0  0
 83154  1  0  0  0
M  CHG  1  83   1
M  ISO  4   1 100  68 101  73 101  82 100
M  END
> <chiral flag>
0

> <version>
0

> <s_m_source_file>
/data/baiqing/PycharmProjects/Reinvent-master-3.2/result/LINK_invent/BTK/process_docking_weight1_custom_sum_contain_oxygen_bond_distance_aromatic_linkinvent_7_9_3/rearranged_h_0188.sdf

> <i_m_source_file_index>
26

> <r_mmod_Potential_Energy-OPLS-2005>
-1.26596784591675

> <r_mmod_Stretch_Energy-OPLS-2005>
98.5476913452148

> <r_mmod_Bend_Energy-OPLS-2005>
198.700805664062

> <r_mmod_Torsional_Energy-OPLS-2005>
265.932678222656

> <r_mmod_Improper_Torsional_Energy-OPLS-2005>
7.00792360305786

> <r_mmod_Van_der_Waal_Energy-OPLS-2005>
136.693740844727

> <r_mmod_Electrostatic_Energy-OPLS-2005>
-251.30419921875

> <r_mmod_Solvation_Energy-OPLS-2005>
-518.73046875

> <b_mmod_Minimization_Converged-OPLS-2005>
0

> <r_mmod_RMS_Derivative-OPLS-2005>
2.45723938941956

$$$$
26
                    3D
 Structure written by MMmdl.
155164  0  0  1  0            999 V2000
  -30.4908  -15.0792   20.3974 C   0  0  0  0  0  0
  -30.4391  -12.6782   19.5103 C   0  0  0  0  0  0
  -29.5276  -12.5544   18.2660 C   0  0  0  0  0  0
  -28.0655  -12.3145   18.6844 C   0  0  0  0  0  0
  -27.6217  -13.2602   19.8308 C   0  0  2  0  0  0
  -28.6597  -13.3435   20.9690 C   0  0  0  0  0  0
  -25.2431  -13.8226   20.5715 C   0  0  0  0  0  0
  -24.1766  -13.0435   20.9234 C   0  0  0  0  0  0
  -24.6400  -11.6925   20.8745 C   0  0  0  0  0  0
  -23.9087  -10.4289   21.0402 C   0  0  0  0  0  0
  -24.3636   -9.4208   21.9185 C   0  0  0  0  0  0
  -23.6300   -8.2252   22.0761 C   0  0  0  0  0  0
  -22.4283   -8.0286   21.3552 C   0  0  0  0  0  0
  -21.9923   -9.0257   20.4651 C   0  0  0  0  0  0
  -22.7257  -10.2131   20.3054 C   0  0  0  0  0  0
  -21.6860   -6.0734   22.5279 C   0  0  0  0  0  0
  -21.4021   -6.5638   23.8210 C   0  0  0  0  0  0
  -21.3665   -5.6790   24.9174 C   0  0  0  0  0  0
  -21.6047   -4.3055   24.7221 C   0  0  0  0  0  0
  -21.8816   -3.8145   23.4342 C   0  0  0  0  0  0
  -21.9194   -4.6963   22.3397 C   0  0  0  0  0  0
  -22.7786  -13.5204   21.1879 C   0  0  0  0  0  0
  -22.1663   -4.2151   21.0972 F   0  0  0  0  0  0
  -21.5631   -3.4542   25.7737 F   0  0  0  0  0  0
  -29.9160  -13.7970   20.3592 N   0  0  0  0  0  0
  -26.2854  -12.9476   20.3213 N   0  0  0  0  0  0
  -25.9334  -11.6593   20.5711 N   0  0  0  0  0  0
  -22.0442  -12.8194   22.0438 N   0  0  0  0  0  0
  -25.4064  -15.1960   20.4136 N   0  0  0  0  0  0
  -31.7020  -15.1215   20.1497 O   0  0  0  0  0  0
  -21.6649   -6.8884   21.4243 O   0  0  0  0  0  0
  -22.3461  -14.5500   20.6709 O   0  0  0  0  0  0
  -24.6524  -31.8337   23.1780 C   0  0  0  0  0  0
  -25.9254  -32.4638   23.8214 C   0  0  1  0  0  0
  -27.2159  -27.0332   20.1671 C   0  0  0  0  0  0
  -25.5964  -33.8448   24.2131 N   0  0  0  0  0  0
  -23.4615  -30.4482   21.5256 C   0  0  2  0  0  0
  -24.9108  -28.8514   20.1105 C   0  0  0  0  0  0
  -22.7610  -29.4492   22.4823 C   0  0  0  0  0  0
  -18.0311  -28.1398   22.8464 C   0  0  0  0  0  0
  -24.1493  -36.7234   23.2644 C   0  0  0  0  0  0
  -26.0228  -30.6738   21.3913 C   0  0  0  0  0  0
  -26.0909  -29.2739   20.7352 C   0  0  0  0  0  0
  -27.2399  -28.3825   20.7404 C   0  0  0  0  0  0
  -26.0074  -26.7316   19.5040 C   0  0  0  0  0  0
  -24.8877  -27.5981   19.4779 C   0  0  0  0  0  0
  -23.6933  -29.7679   20.1487 C   0  0  0  0  0  0
  -25.4131  -36.3001   24.0306 C   0  0  1  0  0  0
  -20.5929  -28.3735   23.1209 C   0  0  2  0  0  0
  -20.6789  -26.9427   22.5403 C   0  0  0  0  0  0
  -19.5767  -26.6374   21.5209 C   0  0  0  0  0  0
  -18.1948  -26.7933   22.1616 C   0  0  0  0  0  0
  -19.1568  -28.8885   23.2827 C   0  0  0  0  0  0
  -18.9484  -30.1478   23.8861 C   0  0  0  0  0  0
  -17.6479  -30.6589   24.0557 C   0  0  0  0  0  0
  -25.9087  -34.9377   23.5038 C   0  0  0  0  0  0
  -16.5371  -29.9080   23.6336 C   0  0  0  0  0  0
  -16.7295  -28.6501   23.0352 C   0  0  0  0  0  0
  -26.4535  -31.6541   25.0703 C   0  0  0  0  0  0
  -25.3687  -31.3767   26.1377 C   0  0  0  0  0  0
  -27.0416  -30.2919   24.6368 C   0  0  0  0  0  0
  -27.6044  -32.4325   25.7507 C   0  0  0  0  0  0
  -27.5578  -37.1773   24.8462 C   0  0  0  0  0  0
  -21.4291  -29.3048   22.3572 N   0  0  0  0  0  0
  -26.4286  -37.3723   23.9406 N   0  0  0  0  0  0
  -24.7329  -31.0096   22.0865 N   0  0  0  0  0  0
  -23.4203  -28.8055   23.3025 O   0  0  0  0  0  0
  -28.2686  -26.0181   20.2414 O   0  0  0  0  0  0
  -26.5688  -34.8891   22.4627 O   0  0  0  0  0  0
  -23.5618  -32.1262   23.6937 O   0  0  0  0  0  0
  -29.5133  -21.9740   19.3693 C   0  0  0  0  0  0
  -27.7196  -21.7706   20.9026 C   0  0  0  0  0  0
  -29.5050  -23.6095   19.6078 C   0  0  0  0  0  0
  -27.7100  -23.4026   21.1509 C   0  0  0  0  0  0
  -30.2327  -18.2619   18.9244 C   0  0  0  0  0  0
  -29.0602  -20.9521   20.5265 C   0  0  1  0  0  0
  -30.0502  -17.8835   20.3974 C   0  0  1  0  0  0
  -28.9715  -19.2124   20.2969 C   0  0  2  0  0  0
  -28.1718  -24.4307   20.0054 C   0  0  1  0  0  0
  -29.7149  -16.2976   20.5072 N   0  0  0  0  0  0
  -28.9790  -19.0229   18.8604 O   0  0  0  0  0  0
  -31.4688  -12.8535   19.1957 H   0  0  0  0  0  0
  -30.4578  -11.7416   20.0701 H   0  0  0  0  0  0
  -29.8711  -11.7464   17.6188 H   0  0  0  0  0  0
  -29.5943  -13.4695   17.6753 H   0  0  0  0  0  0
  -27.9824  -11.2766   19.0089 H   0  0  0  0  0  0
  -27.4017  -12.4195   17.8253 H   0  0  0  0  0  0
  -27.5651  -14.2510   19.3782 H   0  0  0  0  0  0
  -28.7818  -12.3801   21.4667 H   0  0  0  0  0  0
  -28.3350  -14.0516   21.7330 H   0  0  0  0  0  0
  -25.2783   -9.5687   22.4759 H   0  0  0  0  0  0
  -24.0010   -7.4644   22.7483 H   0  0  0  0  0  0
  -21.0858   -8.8771   19.8946 H   0  0  0  0  0  0
  -22.3719  -10.9669   19.6161 H   0  0  0  0  0  0
  -21.2018   -7.6148   23.9714 H   0  0  0  0  0  0
  -21.1496   -6.0523   25.9076 H   0  0  0  0  0  0
  -22.0590   -2.7606   23.2838 H   0  0  0  0  0  0
  -22.4068  -11.9876   22.4855 H   0  0  0  0  0  0
  -21.1052  -13.1201   22.2620 H   0  0  0  0  0  0
  -24.6315  -15.8410   20.5214 H   0  0  0  0  0  0
  -26.2362  -15.6376   20.0395 H   0  0  0  0  0  0
  -26.7327  -32.5204   23.0938 H   0  0  0  0  0  0
  -25.0068  -33.9545   25.0251 H   0  0  0  0  0  0
  -22.7699  -31.2770   21.3622 H   0  0  0  0  0  0
  -23.3766  -35.9554   23.3276 H   0  0  0  0  0  0
  -24.3579  -36.8903   22.2065 H   0  0  0  0  0  0
  -23.7237  -37.6412   23.6713 H   0  0  0  0  0  0
  -26.1907  -31.4211   20.6145 H   0  0  0  0  0  0
  -26.8883  -30.7268   22.0402 H   0  0  0  0  0  0
  -28.1387  -28.7022   21.2487 H   0  0  0  0  0  0
  -25.8938  -25.7734   19.0207 H   0  0  0  0  0  0
  -23.9876  -27.2691   18.9771 H   0  0  0  0  0  0
  -23.8387  -30.5379   19.3903 H   0  0  0  0  0  0
  -22.8052  -29.2162   19.8361 H   0  0  0  0  0  0
  -25.1323  -36.1814   25.0799 H   0  0  0  0  0  0
  -21.0018  -28.3335   24.1332 H   0  0  0  0  0  0
  -20.5665  -26.2355   23.3635 H   0  0  0  0  0  0
  -21.6655  -26.7408   22.1215 H   0  0  0  0  0  0
  -19.6928  -25.6273   21.1265 H   0  0  0  0  0  0
  -19.6706  -27.3162   20.6720 H   0  0  0  0  0  0
  -17.4216  -26.6670   21.4023 H   0  0  0  0  0  0
  -18.0350  -26.0087   22.9025 H   0  0  0  0  0  0
  -19.7963  -30.7305   24.2211 H   0  0  0  0  0  0
  -17.5032  -31.6266   24.5170 H   0  0  0  0  0  0
  -15.5371  -30.2971   23.7682 H   0  0  0  0  0  0
  -15.8693  -28.0812   22.7081 H   0  0  0  0  0  0
  -24.5879  -30.7102   25.7696 H   0  0  0  0  0  0
  -24.8867  -32.2961   26.4712 H   0  0  0  0  0  0
  -25.7937  -30.8998   27.0218 H   0  0  0  0  0  0
  -26.3057  -29.6609   24.1371 H   0  0  0  0  0  0
  -27.3979  -29.7260   25.4989 H   0  0  0  0  0  0
  -27.8987  -30.4122   23.9737 H   0  0  0  0  0  0
  -27.2617  -33.3644   26.2014 H   0  0  0  0  0  0
  -28.3897  -32.6846   25.0371 H   0  0  0  0  0  0
  -28.0665  -31.8500   26.5487 H   0  0  0  0  0  0
  -28.2568  -38.0094   24.7520 H   0  0  0  0  0  0
  -28.1098  -36.2621   24.6271 H   0  0  0  0  0  0
  -27.2297  -37.1395   25.8864 H   0  0  0  0  0  0
  -20.9522  -29.8753   21.6726 H   0  0  0  0  0  0
  -26.0143  -38.2786   24.1412 H   0  0  0  0  0  0
  -30.5190  -21.6867   19.0611 H   0  0  0  0  0  0
  -28.8925  -21.7728   18.4953 H   0  0  0  0  0  0
  -26.9814  -21.5602   20.1274 H   0  0  0  0  0  0
  -27.3075  -21.3073   21.7994 H   0  0  0  0  0  0
  -29.9007  -24.0682   18.7009 H   0  0  0  0  0  0
  -30.2553  -23.8218   20.3700 H   0  0  0  0  0  0
  -28.3163  -23.5980   22.0360 H   0  0  0  0  0  0
  -26.6979  -23.6826   21.4428 H   0  0  0  0  0  0
  -30.2454  -17.4131   18.2391 H   0  0  0  0  0  0
  -31.1052  -18.8967   18.7536 H   0  0  0  0  0  0
  -29.7470  -21.1080   21.3590 H   0  0  0  0  0  0
  -30.9313  -18.1513   20.9816 H   0  0  0  0  0  0
  -28.0291  -18.8587   20.7185 H   0  0  0  0  0  0
  -27.4902  -24.2985   19.1666 H   0  0  0  0  0  0
  -28.7357  -16.1123   20.6657 H   0  0  0  0  0  0
  1 25  1  0  0  0
  1 30  2  0  0  0
  1 80  1  0  0  0
  2  3  1  0  0  0
  2 25  1  0  0  0
  2 82  1  0  0  0
  2 83  1  0  0  0
  3  4  1  0  0  0
  3 84  1  0  0  0
  3 85  1  0  0  0
  4  5  1  0  0  0
  4 86  1  0  0  0
  4 87  1  0  0  0
  5  6  1  0  0  0
  5 26  1  0  0  0
  5 88  1  0  0  0
  6 25  1  0  0  0
  6 89  1  0  0  0
  6 90  1  0  0  0
  7  8  2  0  0  0
  7 26  1  0  0  0
  7 29  1  0  0  0
  8  9  1  0  0  0
  8 22  1  0  0  0
  9 10  1  0  0  0
  9 27  2  0  0  0
 10 11  2  0  0  0
 10 15  1  0  0  0
 11 12  1  0  0  0
 11 91  1  0  0  0
 12 13  2  0  0  0
 12 92  1  0  0  0
 13 14  1  0  0  0
 13 31  1  0  0  0
 14 15  2  0  0  0
 14 93  1  0  0  0
 15 94  1  0  0  0
 16 17  2  0  0  0
 16 21  1  0  0  0
 16 31  1  0  0  0
 17 18  1  0  0  0
 17 95  1  0  0  0
 18 19  2  0  0  0
 18 96  1  0  0  0
 19 20  1  0  0  0
 19 24  1  0  0  0
 20 21  2  0  0  0
 20 97  1  0  0  0
 21 23  1  0  0  0
 22 28  1  0  0  0
 22 32  2  0  0  0
 26 27  1  0  0  0
 28 98  1  0  0  0
 28 99  1  0  0  0
 29100  1  0  0  0
 29101  1  0  0  0
 33 34  1  0  0  0
 33 66  1  0  0  0
 33 70  2  0  0  0
 34 36  1  0  0  0
 34 59  1  0  0  0
 34102  1  0  0  0
 35 44  2  0  0  0
 35 45  1  0  0  0
 35 68  1  0  0  0
 36 56  1  0  0  0
 36103  1  0  0  0
 37 39  1  0  0  0
 37 47  1  0  0  0
 37 66  1  0  0  0
 37104  1  0  0  0
 38 43  2  0  0  0
 38 46  1  0  0  0
 38 47  1  0  0  0
 39 64  1  0  0  0
 39 67  2  0  0  0
 40 52  1  0  0  0
 40 53  2  0  0  0
 40 58  1  0  0  0
 41105  1  0  0  0
 41106  1  0  0  0
 41107  1  0  0  0
 41 48  1  0  0  0
 42 43  1  0  0  0
 42 66  1  0  0  0
 42108  1  0  0  0
 42109  1  0  0  0
 43 44  1  0  0  0
 44110  1  0  0  0
 45 46  2  0  0  0
 45111  1  0  0  0
 46112  1  0  0  0
 47113  1  0  0  0
 47114  1  0  0  0
 48 56  1  0  0  0
 48 65  1  0  0  0
 48115  1  0  0  0
 49 50  1  0  0  0
 49 53  1  0  0  0
 49 64  1  0  0  0
 49116  1  0  0  0
 50 51  1  0  0  0
 50117  1  0  0  0
 50118  1  0  0  0
 51 52  1  0  0  0
 51119  1  0  0  0
 51120  1  0  0  0
 52121  1  0  0  0
 52122  1  0  0  0
 53 54  1  0  0  0
 54 55  2  0  0  0
 54123  1  0  0  0
 55 57  1  0  0  0
 55124  1  0  0  0
 56 69  2  0  0  0
 57 58  2  0  0  0
 57125  1  0  0  0
 58126  1  0  0  0
 59 60  1  0  0  0
 59 61  1  0  0  0
 59 62  1  0  0  0
 60127  1  0  0  0
 60128  1  0  0  0
 60129  1  0  0  0
 61130  1  0  0  0
 61131  1  0  0  0
 61132  1  0  0  0
 62133  1  0  0  0
 62134  1  0  0  0
 62135  1  0  0  0
 63 65  1  0  0  0
 63136  1  0  0  0
 63137  1  0  0  0
 63138  1  0  0  0
 64139  1  0  0  0
 65140  1  0  0  0
 68 79  1  0  0  0
 71 73  1  0  0  0
 71141  1  0  0  0
 71142  1  0  0  0
 71 76  1  0  0  0
 72 74  1  0  0  0
 72 76  1  0  0  0
 72143  1  0  0  0
 72144  1  0  0  0
 73 79  1  0  0  0
 73145  1  0  0  0
 73146  1  0  0  0
 74 79  1  0  0  0
 74147  1  0  0  0
 74148  1  0  0  0
 75 77  1  0  0  0
 75 81  1  0  0  0
 75149  1  0  0  0
 75150  1  0  0  0
 76 78  1  0  0  0
 76151  1  0  0  0
 77 78  1  0  0  0
 77 80  1  0  0  0
 77152  1  0  0  0
 78 81  1  0  0  0
 78153  1  0  0  0
 79154  1  0  0  0
 80155  1  0  0  0
M  ISO  4   1 100  68 101  79 101  80 100
M  END
> <chiral flag>
0

> <version>
0

> <s_m_source_file>
/data/baiqing/PycharmProjects/Reinvent-master-3.2/result/LINK_invent/BTK/process_docking_weight1_custom_sum_contain_oxygen_bond_distance_aromatic_linkinvent_7_9_3/rearranged_h_0188.sdf

> <i_m_source_file_index>
27

> <r_mmod_Potential_Energy-OPLS-2005>
794.570617675781

> <r_mmod_Stretch_Energy-OPLS-2005>
368.319885253906

> <r_mmod_Bend_Energy-OPLS-2005>
372.117553710938

> <r_mmod_Torsional_Energy-OPLS-2005>
255.250259399414

> <r_mmod_Improper_Torsional_Energy-OPLS-2005>
4.22387170791626

> <r_mmod_Van_der_Waal_Energy-OPLS-2005>
109.883415222168

> <r_mmod_Electrostatic_Energy-OPLS-2005>
-393.470336914062

> <r_mmod_Solvation_Energy-OPLS-2005>
-214.036346435547

> <b_mmod_Minimization_Converged-OPLS-2005>
0

> <r_mmod_RMS_Derivative-OPLS-2005>
1.01963698863983

$$$$
27
                    3D
 Structure written by MMmdl.
157166  0  0  1  0            999 V2000
  -30.6549  -14.6948   20.4894 C   0  0  0  0  0  0
  -30.4265  -12.4336   19.4591 C   0  0  0  0  0  0
  -29.5016  -12.5144   18.2260 C   0  0  0  0  0  0
  -28.0254  -12.3507   18.6385 C   0  0  0  0  0  0
  -27.6461  -13.2274   19.8624 C   0  0  2  0  0  0
  -28.6964  -13.1087   20.9880 C   0  0  0  0  0  0
  -25.2507  -13.8176   20.5675 C   0  0  0  0  0  0
  -24.1802  -13.0427   20.9203 C   0  0  0  0  0  0
  -24.6401  -11.6909   20.8766 C   0  0  0  0  0  0
  -23.9075  -10.4291   21.0415 C   0  0  0  0  0  0
  -24.3619   -9.4200   21.9192 C   0  0  0  0  0  0
  -23.6291   -8.2238   22.0752 C   0  0  0  0  0  0
  -22.4274   -8.0284   21.3541 C   0  0  0  0  0  0
  -21.9917   -9.0258   20.4641 C   0  0  0  0  0  0
  -22.7250  -10.2137   20.3056 C   0  0  0  0  0  0
  -21.6846   -6.0742   22.5277 C   0  0  0  0  0  0
  -21.4007   -6.5648   23.8212 C   0  0  0  0  0  0
  -21.3659   -5.6794   24.9173 C   0  0  0  0  0  0
  -21.6043   -4.3059   24.7220 C   0  0  0  0  0  0
  -21.8814   -3.8154   23.4338 C   0  0  0  0  0  0
  -21.9189   -4.6969   22.3395 C   0  0  0  0  0  0
  -22.7823  -13.5213   21.1853 C   0  0  0  0  0  0
  -22.1658   -4.2160   21.0975 F   0  0  0  0  0  0
  -21.5630   -3.4543   25.7729 F   0  0  0  0  0  0
  -29.9917  -13.4871   20.4066 N   0  0  0  0  0  0
  -26.2961  -12.9388   20.3352 N   0  0  0  0  0  0
  -25.9338  -11.6531   20.5805 N   0  0  0  0  0  0
  -22.0473  -12.8206   22.0413 N   0  0  0  0  0  0
  -25.4147  -15.1893   20.4001 N   0  0  0  0  0  0
  -31.8348  -14.7522   20.1267 O   0  0  0  0  0  0
  -21.6631   -6.8887   21.4242 O   0  0  0  0  0  0
  -22.3504  -14.5522   20.6708 O   0  0  0  0  0  0
  -24.6287  -31.8583   23.2019 C   0  0  0  0  0  0
  -25.9133  -32.4766   23.8355 C   0  0  1  0  0  0
  -27.2200  -27.3030   20.1213 C   0  0  0  0  0  0
  -25.5948  -33.8568   24.2288 N   0  0  0  0  0  0
  -23.4242  -30.4820   21.5438 C   0  0  2  0  0  0
  -24.8732  -28.9363   20.1090 C   0  0  0  0  0  0
  -22.7488  -29.4621   22.4920 C   0  0  0  0  0  0
  -18.0289  -28.1385   22.8481 C   0  0  0  0  0  0
  -24.1483  -36.7273   23.2640 C   0  0  0  0  0  0
  -25.9676  -30.7824   21.3775 C   0  0  0  0  0  0
  -26.0436  -29.4093   20.7188 C   0  0  0  0  0  0
  -27.2247  -28.6042   20.7164 C   0  0  0  0  0  0
  -26.0346  -26.8931   19.4764 C   0  0  0  0  0  0
  -24.8712  -27.6837   19.4766 C   0  0  0  0  0  0
  -23.6418  -29.8178   20.1590 C   0  0  0  0  0  0
  -25.4111  -36.3072   24.0335 C   0  0  1  0  0  0
  -20.5890  -28.3692   23.1268 C   0  0  2  0  0  0
  -20.6775  -26.9410   22.5405 C   0  0  0  0  0  0
  -19.5757  -26.6383   21.5203 C   0  0  0  0  0  0
  -18.1935  -26.7935   22.1604 C   0  0  0  0  0  0
  -19.1542  -28.8853   23.2875 C   0  0  0  0  0  0
  -18.9466  -30.1450   23.8898 C   0  0  0  0  0  0
  -17.6466  -30.6585   24.0560 C   0  0  0  0  0  0
  -25.9052  -34.9446   23.5105 C   0  0  0  0  0  0
  -16.5356  -29.9082   23.6335 C   0  0  0  0  0  0
  -16.7273  -28.6498   23.0358 C   0  0  0  0  0  0
  -26.4517  -31.6575   25.0729 C   0  0  0  0  0  0
  -25.3746  -31.3702   26.1451 C   0  0  0  0  0  0
  -27.0361  -30.2999   24.6187 C   0  0  0  0  0  0
  -27.6077  -32.4310   25.7502 C   0  0  0  0  0  0
  -27.5579  -37.1791   24.8466 C   0  0  0  0  0  0
  -21.4198  -29.3045   22.3661 N   0  0  0  0  0  0
  -26.4283  -37.3777   23.9420 N   0  0  0  0  0  0
  -24.6921  -31.0579   22.0978 N   0  0  0  0  0  0
  -23.4201  -28.8162   23.3010 O   0  0  0  0  0  0
  -28.2868  -26.3888   20.1574 O   0  0  0  0  0  0
  -26.5610  -34.8920   22.4663 O   0  0  0  0  0  0
  -23.5446  -32.1386   23.7335 O   0  0  0  0  0  0
  -29.8884  -23.3137   20.9358 C   0  0  0  0  0  0
  -28.5953  -23.7082   20.5289 C   0  0  0  0  0  0
  -27.8283  -22.6095   20.0413 C   0  0  0  0  0  0
  -29.5114  -21.0610   20.4696 C   0  0  0  0  0  0
  -28.9425  -17.8049   21.7486 C   0  0  0  0  0  0
  -28.9571  -16.2572   21.6117 C   0  0  0  0  0  0
  -30.3734  -17.1915   19.9715 C   0  0  0  0  0  0
  -29.4191  -18.3735   20.4096 C   0  0  2  0  0  0
  -26.4069  -22.7937   19.5457 C   0  0  0  0  0  0
  -27.9850  -25.1309   20.8904 C   0  0  0  0  0  0
  -30.3300  -22.0200   20.8942 N   0  0  0  0  0  0
  -28.2848  -21.3147   20.0223 N   0  0  0  0  0  0
  -29.9378  -15.8869   20.5815 N   0  0  0  0  0  0
  -30.0356  -19.7408   20.5050 N   0  0  0  0  0  0
  -31.4676  -12.5440   19.1514 H   0  0  0  0  0  0
  -30.3649  -11.4483   19.9241 H   0  0  0  0  0  0
  -29.7734  -11.7514   17.4960 H   0  0  0  0  0  0
  -29.6387  -13.4750   17.7268 H   0  0  0  0  0  0
  -27.8635  -11.2982   18.8741 H   0  0  0  0  0  0
  -27.3694  -12.5768   17.7971 H   0  0  0  0  0  0
  -27.6529  -14.2597   19.5115 H   0  0  0  0  0  0
  -28.7349  -12.0852   21.3648 H   0  0  0  0  0  0
  -28.4347  -13.7189   21.8488 H   0  0  0  0  0  0
  -25.2756   -9.5678   22.4779 H   0  0  0  0  0  0
  -23.9997   -7.4624   22.7466 H   0  0  0  0  0  0
  -21.0854   -8.8778   19.8937 H   0  0  0  0  0  0
  -22.3710  -10.9680   19.6169 H   0  0  0  0  0  0
  -21.1997   -7.6152   23.9721 H   0  0  0  0  0  0
  -21.1485   -6.0522   25.9078 H   0  0  0  0  0  0
  -22.0594   -2.7616   23.2828 H   0  0  0  0  0  0
  -22.4087  -11.9857   22.4781 H   0  0  0  0  0  0
  -21.1094  -13.1231   22.2631 H   0  0  0  0  0  0
  -24.6373  -15.8354   20.4819 H   0  0  0  0  0  0
  -26.2586  -15.6277   20.0554 H   0  0  0  0  0  0
  -26.7203  -32.5431   23.1105 H   0  0  0  0  0  0
  -25.0141  -33.9710   25.0466 H   0  0  0  0  0  0
  -22.7196  -31.3035   21.3991 H   0  0  0  0  0  0
  -23.3757  -35.9589   23.3291 H   0  0  0  0  0  0
  -24.3581  -36.8896   22.2055 H   0  0  0  0  0  0
  -23.7219  -37.6467   23.6662 H   0  0  0  0  0  0
  -26.1032  -31.5449   20.6097 H   0  0  0  0  0  0
  -26.8465  -30.8308   22.0081 H   0  0  0  0  0  0
  -28.1201  -28.9577   21.2083 H   0  0  0  0  0  0
  -25.9985  -25.9298   18.9888 H   0  0  0  0  0  0
  -23.9776  -27.3176   18.9899 H   0  0  0  0  0  0
  -23.7646  -30.5958   19.4046 H   0  0  0  0  0  0
  -22.7611  -29.2500   19.8524 H   0  0  0  0  0  0
  -25.1292  -36.1916   25.0827 H   0  0  0  0  0  0
  -20.9981  -28.3264   24.1386 H   0  0  0  0  0  0
  -20.5656  -26.2303   23.3610 H   0  0  0  0  0  0
  -21.6645  -26.7431   22.1200 H   0  0  0  0  0  0
  -19.6913  -25.6291   21.1242 H   0  0  0  0  0  0
  -19.6703  -27.3188   20.6732 H   0  0  0  0  0  0
  -17.4206  -26.6686   21.4004 H   0  0  0  0  0  0
  -18.0327  -26.0072   22.8991 H   0  0  0  0  0  0
  -19.7943  -30.7266   24.2270 H   0  0  0  0  0  0
  -17.5023  -31.6272   24.5154 H   0  0  0  0  0  0
  -15.5360  -30.2983   23.7673 H   0  0  0  0  0  0
  -15.8667  -28.0820   22.7085 H   0  0  0  0  0  0
  -24.5962  -30.7002   25.7787 H   0  0  0  0  0  0
  -24.8890  -32.2849   26.4854 H   0  0  0  0  0  0
  -25.8083  -30.8916   27.0239 H   0  0  0  0  0  0
  -26.2931  -29.6740   24.1231 H   0  0  0  0  0  0
  -27.4082  -29.7270   25.4691 H   0  0  0  0  0  0
  -27.8795  -30.4288   23.9399 H   0  0  0  0  0  0
  -27.2705  -33.3631   26.2049 H   0  0  0  0  0  0
  -28.3909  -32.6828   25.0338 H   0  0  0  0  0  0
  -28.0718  -31.8444   26.5441 H   0  0  0  0  0  0
  -28.2582  -38.0102   24.7534 H   0  0  0  0  0  0
  -28.1089  -36.2639   24.6261 H   0  0  0  0  0  0
  -27.2304  -37.1391   25.8869 H   0  0  0  0  0  0
  -20.9381  -29.8767   21.6869 H   0  0  0  0  0  0
  -26.0158  -38.2842   24.1444 H   0  0  0  0  0  0
  -30.5638  -24.0322   21.3761 H   0  0  0  0  0  0
  -29.6369  -18.0947   22.5387 H   0  0  0  0  0  0
  -27.9604  -18.1854   22.0327 H   0  0  0  0  0  0
  -27.9715  -15.9123   21.3040 H   0  0  0  0  0  0
  -29.1912  -15.7898   22.5697 H   0  0  0  0  0  0
  -31.3921  -17.3937   20.3054 H   0  0  0  0  0  0
  -30.4096  -17.1065   18.8845 H   0  0  0  0  0  0
  -28.5713  -18.4180   19.7231 H   0  0  0  0  0  0
  -26.3703  -23.5669   18.7792 H   0  0  0  0  0  0
  -25.7460  -23.0811   20.3626 H   0  0  0  0  0  0
  -26.0149  -21.8759   19.1071 H   0  0  0  0  0  0
  -28.3123  -25.3265   21.9123 H   0  0  0  0  0  0
  -26.9098  -24.9995   21.0037 H   0  0  0  0  0  0
  -31.0002  -19.7273   20.8103 H   0  0  0  0  0  0
  1 25  1  0  0  0
  1 30  2  0  0  0
  1 83  1  0  0  0
  2  3  1  0  0  0
  2 25  1  0  0  0
  2 85  1  0  0  0
  2 86  1  0  0  0
  3  4  1  0  0  0
  3 87  1  0  0  0
  3 88  1  0  0  0
  4  5  1  0  0  0
  4 89  1  0  0  0
  4 90  1  0  0  0
  5  6  1  0  0  0
  5 26  1  0  0  0
  5 91  1  0  0  0
  6 25  1  0  0  0
  6 92  1  0  0  0
  6 93  1  0  0  0
  7  8  2  0  0  0
  7 26  1  0  0  0
  7 29  1  0  0  0
  8  9  1  0  0  0
  8 22  1  0  0  0
  9 10  1  0  0  0
  9 27  2  0  0  0
 10 11  2  0  0  0
 10 15  1  0  0  0
 11 12  1  0  0  0
 11 94  1  0  0  0
 12 13  2  0  0  0
 12 95  1  0  0  0
 13 14  1  0  0  0
 13 31  1  0  0  0
 14 15  2  0  0  0
 14 96  1  0  0  0
 15 97  1  0  0  0
 16 17  2  0  0  0
 16 21  1  0  0  0
 16 31  1  0  0  0
 17 18  1  0  0  0
 17 98  1  0  0  0
 18 19  2  0  0  0
 18 99  1  0  0  0
 19 20  1  0  0  0
 19 24  1  0  0  0
 20 21  2  0  0  0
 20100  1  0  0  0
 21 23  1  0  0  0
 22 28  1  0  0  0
 22 32  2  0  0  0
 26 27  1  0  0  0
 28101  1  0  0  0
 28102  1  0  0  0
 29103  1  0  0  0
 29104  1  0  0  0
 33 34  1  0  0  0
 33 66  1  0  0  0
 33 70  2  0  0  0
 34 36  1  0  0  0
 34 59  1  0  0  0
 34105  1  0  0  0
 35 44  2  0  0  0
 35 45  1  0  0  0
 35 68  1  0  0  0
 36 56  1  0  0  0
 36106  1  0  0  0
 37 39  1  0  0  0
 37 47  1  0  0  0
 37 66  1  0  0  0
 37107  1  0  0  0
 38 43  2  0  0  0
 38 46  1  0  0  0
 38 47  1  0  0  0
 39 64  1  0  0  0
 39 67  2  0  0  0
 40 52  1  0  0  0
 40 53  2  0  0  0
 40 58  1  0  0  0
 41108  1  0  0  0
 41109  1  0  0  0
 41110  1  0  0  0
 41 48  1  0  0  0
 42 43  1  0  0  0
 42 66  1  0  0  0
 42111  1  0  0  0
 42112  1  0  0  0
 43 44  1  0  0  0
 44113  1  0  0  0
 45 46  2  0  0  0
 45114  1  0  0  0
 46115  1  0  0  0
 47116  1  0  0  0
 47117  1  0  0  0
 48 56  1  0  0  0
 48 65  1  0  0  0
 48118  1  0  0  0
 49 50  1  0  0  0
 49 53  1  0  0  0
 49 64  1  0  0  0
 49119  1  0  0  0
 50 51  1  0  0  0
 50120  1  0  0  0
 50121  1  0  0  0
 51 52  1  0  0  0
 51122  1  0  0  0
 51123  1  0  0  0
 52124  1  0  0  0
 52125  1  0  0  0
 53 54  1  0  0  0
 54 55  2  0  0  0
 54126  1  0  0  0
 55 57  1  0  0  0
 55127  1  0  0  0
 56 69  2  0  0  0
 57 58  2  0  0  0
 57128  1  0  0  0
 58129  1  0  0  0
 59 60  1  0  0  0
 59 61  1  0  0  0
 59 62  1  0  0  0
 60130  1  0  0  0
 60131  1  0  0  0
 60132  1  0  0  0
 61133  1  0  0  0
 61134  1  0  0  0
 61135  1  0  0  0
 62136  1  0  0  0
 62137  1  0  0  0
 62138  1  0  0  0
 63 65  1  0  0  0
 63139  1  0  0  0
 63140  1  0  0  0
 63141  1  0  0  0
 64142  1  0  0  0
 65143  1  0  0  0
 68 80  1  0  0  0
 71 72  2  0  0  0
 71 81  1  0  0  0
 71144  1  0  0  0
 72 73  1  0  0  0
 72 80  1  0  0  0
 73 79  1  0  0  0
 73 82  2  0  0  0
 74 81  2  0  0  0
 74 82  1  0  0  0
 74 84  1  0  0  0
 75 76  1  0  0  0
 75 78  1  0  0  0
 75145  1  0  0  0
 75146  1  0  0  0
 76 83  1  0  0  0
 76147  1  0  0  0
 76148  1  0  0  0
 77 78  1  0  0  0
 77 83  1  0  0  0
 77149  1  0  0  0
 77150  1  0  0  0
 78 84  1  0  0  0
 78151  1  0  0  0
 79152  1  0  0  0
 79153  1  0  0  0
 79154  1  0  0  0
 80155  1  0  0  0
 80156  1  0  0  0
 84157  1  0  0  0
M  ISO  4   1 100  68 101  80 101  83 100
M  END
> <chiral flag>
0

> <version>
0

> <s_m_source_file>
/data/baiqing/PycharmProjects/Reinvent-master-3.2/result/LINK_invent/BTK/process_docking_weight1_custom_sum_contain_oxygen_bond_distance_aromatic_linkinvent_7_9_3/rearranged_h_0188.sdf

> <i_m_source_file_index>
28

> <r_mmod_Potential_Energy-OPLS-2005>
-214.688247680664

> <r_mmod_Stretch_Energy-OPLS-2005>
86.5154876708984

> <r_mmod_Bend_Energy-OPLS-2005>
190.556076049805

> <r_mmod_Torsional_Energy-OPLS-2005>
338.353942871094

> <r_mmod_Improper_Torsional_Energy-OPLS-2005>
15.0767135620117

> <r_mmod_Van_der_Waal_Energy-OPLS-2005>
142.029724121094

> <r_mmod_Electrostatic_Energy-OPLS-2005>
-818.404357910156

> <r_mmod_Solvation_Energy-OPLS-2005>
-233.702056884766

> <b_mmod_Minimization_Converged-OPLS-2005>
0

> <r_mmod_RMS_Derivative-OPLS-2005>
1.25563061237335

$$$$
28
                    3D
 Structure written by MMmdl.
166175  0  0  1  0            999 V2000
  -30.6336  -14.6063   20.4949 C   0  0  0  0  0  0
  -30.4359  -12.3651   19.4630 C   0  0  0  0  0  0
  -29.5126  -12.4998   18.2309 C   0  0  0  0  0  0
  -28.0321  -12.3509   18.6352 C   0  0  0  0  0  0
  -27.6579  -13.2150   19.8694 C   0  0  2  0  0  0
  -28.6995  -13.0578   21.0023 C   0  0  0  0  0  0
  -25.2568  -13.8173   20.5676 C   0  0  0  0  0  0
  -24.1829  -13.0441   20.9178 C   0  0  0  0  0  0
  -24.6395  -11.6910   20.8728 C   0  0  0  0  0  0
  -23.9052  -10.4290   21.0396 C   0  0  0  0  0  0
  -24.3609   -9.4209   21.9177 C   0  0  0  0  0  0
  -23.6292   -8.2241   22.0750 C   0  0  0  0  0  0
  -22.4275   -8.0278   21.3541 C   0  0  0  0  0  0
  -21.9900   -9.0250   20.4647 C   0  0  0  0  0  0
  -22.7220  -10.2131   20.3053 C   0  0  0  0  0  0
  -21.6856   -6.0732   22.5276 C   0  0  0  0  0  0
  -21.4015   -6.5634   23.8208 C   0  0  0  0  0  0
  -21.3660   -5.6788   24.9170 C   0  0  0  0  0  0
  -21.6045   -4.3049   24.7220 C   0  0  0  0  0  0
  -21.8821   -3.8139   23.4341 C   0  0  0  0  0  0
  -21.9186   -4.6957   22.3397 C   0  0  0  0  0  0
  -22.7848  -13.5233   21.1830 C   0  0  0  0  0  0
  -22.1662   -4.2140   21.0979 F   0  0  0  0  0  0
  -21.5631   -3.4535   25.7734 F   0  0  0  0  0  0
  -30.0222  -13.3834   20.4472 N   0  0  0  0  0  0
  -26.3012  -12.9353   20.3333 N   0  0  0  0  0  0
  -25.9324  -11.6512   20.5761 N   0  0  0  0  0  0
  -22.0479  -12.8242   22.0396 N   0  0  0  0  0  0
  -25.4283  -15.1894   20.4091 N   0  0  0  0  0  0
  -31.7788  -14.7764   20.0658 O   0  0  0  0  0  0
  -21.6644   -6.8872   21.4239 O   0  0  0  0  0  0
  -22.3529  -14.5536   20.6674 O   0  0  0  0  0  0
  -24.6230  -31.8623   23.2054 C   0  0  0  0  0  0
  -25.9095  -32.4789   23.8368 C   0  0  1  0  0  0
  -27.2263  -27.3419   20.1083 C   0  0  0  0  0  0
  -25.5925  -33.8592   24.2295 N   0  0  0  0  0  0
  -23.4144  -30.4871   21.5478 C   0  0  2  0  0  0
  -24.8599  -28.9465   20.1102 C   0  0  0  0  0  0
  -22.7456  -29.4640   22.4956 C   0  0  0  0  0  0
  -18.0285  -28.1377   22.8493 C   0  0  0  0  0  0
  -24.1491  -36.7302   23.2638 C   0  0  0  0  0  0
  -25.9532  -30.7984   21.3750 C   0  0  0  0  0  0
  -26.0252  -29.4276   20.7179 C   0  0  0  0  0  0
  -27.2058  -28.6339   20.7135 C   0  0  0  0  0  0
  -26.0394  -26.9153   19.4644 C   0  0  0  0  0  0
  -24.8681  -27.6953   19.4768 C   0  0  0  0  0  0
  -23.6266  -29.8235   20.1616 C   0  0  0  0  0  0
  -25.4112  -36.3092   24.0332 C   0  0  1  0  0  0
  -20.5884  -28.3680   23.1297 C   0  0  2  0  0  0
  -20.6774  -26.9406   22.5420 C   0  0  0  0  0  0
  -19.5752  -26.6384   21.5216 C   0  0  0  0  0  0
  -18.1927  -26.7926   22.1620 C   0  0  0  0  0  0
  -19.1535  -28.8844   23.2893 C   0  0  0  0  0  0
  -18.9457  -30.1448   23.8903 C   0  0  0  0  0  0
  -17.6457  -30.6580   24.0564 C   0  0  0  0  0  0
  -25.9049  -34.9457   23.5113 C   0  0  0  0  0  0
  -16.5349  -29.9079   23.6328 C   0  0  0  0  0  0
  -16.7273  -28.6497   23.0348 C   0  0  0  0  0  0
  -26.4489  -31.6590   25.0727 C   0  0  0  0  0  0
  -25.3735  -31.3730   26.1467 C   0  0  0  0  0  0
  -27.0325  -30.3013   24.6169 C   0  0  0  0  0  0
  -27.6053  -32.4324   25.7493 C   0  0  0  0  0  0
  -27.5583  -37.1807   24.8460 C   0  0  0  0  0  0
  -21.4174  -29.3035   22.3691 N   0  0  0  0  0  0
  -26.4291  -37.3782   23.9409 N   0  0  0  0  0  0
  -24.6822  -31.0655   22.0998 N   0  0  0  0  0  0
  -23.4197  -28.8170   23.3017 O   0  0  0  0  0  0
  -28.3759  -26.5443   20.1777 O   0  0  0  0  0  0
  -26.5610  -34.8920   22.4675 O   0  0  0  0  0  0
  -23.5403  -32.1413   23.7399 O   0  0  0  0  0  0
  -30.9481  -18.0238   20.4865 C   0  0  0  0  0  0
  -28.9340  -18.1150   20.7861 C   0  0  0  0  0  0
  -29.0009  -21.5064   20.7074 C   0  0  0  0  0  0
  -30.1228  -20.4007   20.8535 C   0  0  2  0  0  0
  -29.8305  -17.0078   20.1419 C   0  0  0  0  0  0
  -31.3400  -21.1268   20.2423 C   0  0  1  0  0  0
  -31.0620  -22.6464   20.3310 C   0  0  1  0  0  0
  -33.3393  -23.4437   19.3532 C   0  0  0  0  0  0
  -31.8048  -23.4903   19.2651 C   0  0  0  0  0  0
  -29.0744  -24.1240   20.8001 C   0  0  0  0  0  0
  -28.3709  -25.1190   19.7957 C   0  0  0  0  0  0
  -29.9163  -19.0493   20.2182 N   0  0  0  0  0  0
  -29.8320  -15.6642   20.8036 N   0  0  0  0  0  0
  -29.5918  -22.8074   20.2194 N   0  3  2  0  0  0
  -32.5248  -20.7686   20.9440 O   0  0  0  0  0  0
  -31.4807  -12.4747   19.1663 H   0  0  0  0  0  0
  -30.3551  -11.3677   19.8979 H   0  0  0  0  0  0
  -29.7725  -11.7486   17.4837 H   0  0  0  0  0  0
  -29.6681  -13.4699   17.7557 H   0  0  0  0  0  0
  -27.8551  -11.2973   18.8559 H   0  0  0  0  0  0
  -27.3845  -12.5969   17.7933 H   0  0  0  0  0  0
  -27.6818  -14.2527   19.5371 H   0  0  0  0  0  0
  -28.6973  -12.0365   21.3863 H   0  0  0  0  0  0
  -28.4524  -13.6933   21.8532 H   0  0  0  0  0  0
  -25.2757   -9.5697   22.4738 H   0  0  0  0  0  0
  -24.0006   -7.4640   22.7476 H   0  0  0  0  0  0
  -21.0824   -8.8764   19.8962 H   0  0  0  0  0  0
  -22.3670  -10.9672   19.6162 H   0  0  0  0  0  0
  -21.2017   -7.6144   23.9706 H   0  0  0  0  0  0
  -21.1485   -6.0521   25.9072 H   0  0  0  0  0  0
  -22.0600   -2.7602   23.2838 H   0  0  0  0  0  0
  -22.4096  -11.9923   22.4820 H   0  0  0  0  0  0
  -21.1095  -13.1279   22.2578 H   0  0  0  0  0  0
  -24.6602  -15.8431   20.5146 H   0  0  0  0  0  0
  -26.2745  -15.6247   20.0659 H   0  0  0  0  0  0
  -26.7160  -32.5462   23.1115 H   0  0  0  0  0  0
  -25.0082  -33.9741   25.0445 H   0  0  0  0  0  0
  -22.7072  -31.3074   21.4085 H   0  0  0  0  0  0
  -23.3752  -35.9636   23.3295 H   0  0  0  0  0  0
  -24.3585  -36.8925   22.2053 H   0  0  0  0  0  0
  -23.7241  -37.6504   23.6656 H   0  0  0  0  0  0
  -26.0832  -31.5625   20.6071 H   0  0  0  0  0  0
  -26.8347  -30.8450   22.0028 H   0  0  0  0  0  0
  -28.0990  -28.9988   21.2014 H   0  0  0  0  0  0
  -25.9700  -25.9795   18.9345 H   0  0  0  0  0  0
  -23.9770  -27.3267   18.9877 H   0  0  0  0  0  0
  -23.7410  -30.6012   19.4054 H   0  0  0  0  0  0
  -22.7467  -29.2511   19.8618 H   0  0  0  0  0  0
  -25.1288  -36.1948   25.0824 H   0  0  0  0  0  0
  -20.9982  -28.3251   24.1416 H   0  0  0  0  0  0
  -20.5675  -26.2286   23.3615 H   0  0  0  0  0  0
  -21.6642  -26.7436   22.1213 H   0  0  0  0  0  0
  -19.6911  -25.6297   21.1237 H   0  0  0  0  0  0
  -19.6689  -27.3206   20.6754 H   0  0  0  0  0  0
  -17.4205  -26.6693   21.4011 H   0  0  0  0  0  0
  -18.0310  -26.0058   22.9004 H   0  0  0  0  0  0
  -19.7931  -30.7264   24.2275 H   0  0  0  0  0  0
  -17.5009  -31.6260   24.5166 H   0  0  0  0  0  0
  -15.5348  -30.2976   23.7648 H   0  0  0  0  0  0
  -15.8678  -28.0816   22.7053 H   0  0  0  0  0  0
  -24.5912  -30.7066   25.7814 H   0  0  0  0  0  0
  -24.8920  -32.2897   26.4884 H   0  0  0  0  0  0
  -25.8076  -30.8928   27.0246 H   0  0  0  0  0  0
  -26.2893  -29.6774   24.1191 H   0  0  0  0  0  0
  -27.4023  -29.7257   25.4665 H   0  0  0  0  0  0
  -27.8765  -30.4297   23.9388 H   0  0  0  0  0  0
  -27.2660  -33.3619   26.2075 H   0  0  0  0  0  0
  -28.3857  -32.6893   25.0317 H   0  0  0  0  0  0
  -28.0730  -31.8450   26.5404 H   0  0  0  0  0  0
  -28.2599  -38.0106   24.7506 H   0  0  0  0  0  0
  -28.1079  -36.2637   24.6277 H   0  0  0  0  0  0
  -27.2306  -37.1453   25.8865 H   0  0  0  0  0  0
  -20.9341  -29.8759   21.6910 H   0  0  0  0  0  0
  -26.0177  -38.2862   24.1400 H   0  0  0  0  0  0
  -31.7849  -18.0527   19.7864 H   0  0  0  0  0  0
  -31.2759  -17.9981   21.5291 H   0  0  0  0  0  0
  -28.9240  -18.1101   21.8790 H   0  0  0  0  0  0
  -27.9344  -18.2204   20.3601 H   0  0  0  0  0  0
  -28.5142  -21.6455   21.6734 H   0  0  0  0  0  0
  -28.2246  -21.1880   20.0112 H   0  0  0  0  0  0
  -30.2960  -20.2711   21.9236 H   0  0  0  0  0  0
  -29.6678  -16.9329   19.0619 H   0  0  0  0  0  0
  -31.4385  -20.8452   19.1911 H   0  0  0  0  0  0
  -31.3543  -22.9765   21.3307 H   0  0  0  0  0  0
  -33.7841  -24.1407   18.6418 H   0  0  0  0  0  0
  -33.7305  -22.4547   19.1149 H   0  0  0  0  0  0
  -33.6932  -23.7207   20.3472 H   0  0  0  0  0  0
  -31.5036  -24.5339   19.3603 H   0  0  0  0  0  0
  -31.4978  -23.1818   18.2647 H   0  0  0  0  0  0
  -28.4035  -23.9305   21.6373 H   0  0  0  0  0  0
  -29.9094  -24.6691   21.2413 H   0  0  0  0  0  0
  -27.3767  -24.7108   19.6413 H   0  0  0  0  0  0
  -28.8695  -25.0647   18.8278 H   0  0  0  0  0  0
  -28.9520  -15.3995   21.2211 H   0  0  0  0  0  0
  -29.3965  -22.8123   19.2286 H   0  0  0  0  0  0
  -33.2568  -21.2049   20.5194 H   0  0  0  0  0  0
  1 25  1  0  0  0
  1 30  2  0  0  0
  1 83  1  0  0  0
  2  3  1  0  0  0
  2 25  1  0  0  0
  2 86  1  0  0  0
  2 87  1  0  0  0
  3  4  1  0  0  0
  3 88  1  0  0  0
  3 89  1  0  0  0
  4  5  1  0  0  0
  4 90  1  0  0  0
  4 91  1  0  0  0
  5  6  1  0  0  0
  5 26  1  0  0  0
  5 92  1  0  0  0
  6 25  1  0  0  0
  6 93  1  0  0  0
  6 94  1  0  0  0
  7  8  2  0  0  0
  7 26  1  0  0  0
  7 29  1  0  0  0
  8  9  1  0  0  0
  8 22  1  0  0  0
  9 10  1  0  0  0
  9 27  2  0  0  0
 10 11  2  0  0  0
 10 15  1  0  0  0
 11 12  1  0  0  0
 11 95  1  0  0  0
 12 13  2  0  0  0
 12 96  1  0  0  0
 13 14  1  0  0  0
 13 31  1  0  0  0
 14 15  2  0  0  0
 14 97  1  0  0  0
 15 98  1  0  0  0
 16 17  2  0  0  0
 16 21  1  0  0  0
 16 31  1  0  0  0
 17 18  1  0  0  0
 17 99  1  0  0  0
 18 19  2  0  0  0
 18100  1  0  0  0
 19 20  1  0  0  0
 19 24  1  0  0  0
 20 21  2  0  0  0
 20101  1  0  0  0
 21 23  1  0  0  0
 22 28  1  0  0  0
 22 32  2  0  0  0
 26 27  1  0  0  0
 28102  1  0  0  0
 28103  1  0  0  0
 29104  1  0  0  0
 29105  1  0  0  0
 33 34  1  0  0  0
 33 66  1  0  0  0
 33 70  2  0  0  0
 34 36  1  0  0  0
 34 59  1  0  0  0
 34106  1  0  0  0
 35 44  2  0  0  0
 35 45  1  0  0  0
 35 68  1  0  0  0
 36 56  1  0  0  0
 36107  1  0  0  0
 37 39  1  0  0  0
 37 47  1  0  0  0
 37 66  1  0  0  0
 37108  1  0  0  0
 38 43  2  0  0  0
 38 46  1  0  0  0
 38 47  1  0  0  0
 39 64  1  0  0  0
 39 67  2  0  0  0
 40 52  1  0  0  0
 40 53  2  0  0  0
 40 58  1  0  0  0
 41109  1  0  0  0
 41110  1  0  0  0
 41111  1  0  0  0
 41 48  1  0  0  0
 42 43  1  0  0  0
 42 66  1  0  0  0
 42112  1  0  0  0
 42113  1  0  0  0
 43 44  1  0  0  0
 44114  1  0  0  0
 45 46  2  0  0  0
 45115  1  0  0  0
 46116  1  0  0  0
 47117  1  0  0  0
 47118  1  0  0  0
 48 56  1  0  0  0
 48 65  1  0  0  0
 48119  1  0  0  0
 49 50  1  0  0  0
 49 53  1  0  0  0
 49 64  1  0  0  0
 49120  1  0  0  0
 50 51  1  0  0  0
 50121  1  0  0  0
 50122  1  0  0  0
 51 52  1  0  0  0
 51123  1  0  0  0
 51124  1  0  0  0
 52125  1  0  0  0
 52126  1  0  0  0
 53 54  1  0  0  0
 54 55  2  0  0  0
 54127  1  0  0  0
 55 57  1  0  0  0
 55128  1  0  0  0
 56 69  2  0  0  0
 57 58  2  0  0  0
 57129  1  0  0  0
 58130  1  0  0  0
 59 60  1  0  0  0
 59 61  1  0  0  0
 59 62  1  0  0  0
 60131  1  0  0  0
 60132  1  0  0  0
 60133  1  0  0  0
 61134  1  0  0  0
 61135  1  0  0  0
 61136  1  0  0  0
 62137  1  0  0  0
 62138  1  0  0  0
 62139  1  0  0  0
 63 65  1  0  0  0
 63140  1  0  0  0
 63141  1  0  0  0
 63142  1  0  0  0
 64143  1  0  0  0
 65144  1  0  0  0
 68 81  1  0  0  0
 71 75  1  0  0  0
 71145  1  0  0  0
 71146  1  0  0  0
 71 82  1  0  0  0
 72 75  1  0  0  0
 72 82  1  0  0  0
 72147  1  0  0  0
 72148  1  0  0  0
 73 74  1  0  0  0
 73 84  1  0  0  0
 73149  1  0  0  0
 73150  1  0  0  0
 74 76  1  0  0  0
 74 82  1  0  0  0
 74151  1  0  0  0
 75 83  1  0  0  0
 75152  1  0  0  0
 76 77  1  0  0  0
 76 85  1  0  0  0
 76153  1  0  0  0
 77 79  1  0  0  0
 77 84  1  0  0  0
 77154  1  0  0  0
 78 79  1  0  0  0
 78155  1  0  0  0
 78156  1  0  0  0
 78157  1  0  0  0
 79158  1  0  0  0
 79159  1  0  0  0
 80 81  1  0  0  0
 80160  1  0  0  0
 80161  1  0  0  0
 80 84  1  0  0  0
 81162  1  0  0  0
 81163  1  0  0  0
 83164  1  0  0  0
 84165  1  0  0  0
 85166  1  0  0  0
M  CHG  1  84   1
M  ISO  4   1 100  68 101  81 101  83 100
M  END
> <chiral flag>
0

> <version>
0

> <s_m_source_file>
/data/baiqing/PycharmProjects/Reinvent-master-3.2/result/LINK_invent/BTK/process_docking_weight1_custom_sum_contain_oxygen_bond_distance_aromatic_linkinvent_7_9_3/rearranged_h_0188.sdf

> <i_m_source_file_index>
29

> <r_mmod_Potential_Energy-OPLS-2005>
105.52604675293

> <r_mmod_Stretch_Energy-OPLS-2005>
70.0722808837891

> <r_mmod_Bend_Energy-OPLS-2005>
191.764373779297

> <r_mmod_Torsional_Energy-OPLS-2005>
338.885681152344

> <r_mmod_Improper_Torsional_Energy-OPLS-2005>
7.57315111160278

> <r_mmod_Van_der_Waal_Energy-OPLS-2005>
127.872085571289

> <r_mmod_Electrostatic_Energy-OPLS-2005>
-208.831237792969

> <r_mmod_Solvation_Energy-OPLS-2005>
-460.095397949219

> <b_mmod_Minimization_Converged-OPLS-2005>
0

> <r_mmod_RMS_Derivative-OPLS-2005>
1.20950961112976

$$$$
29
                    3D
 Structure written by MMmdl.
163172  0  0  1  0            999 V2000
  -30.4828  -15.0050   20.3818 C   0  0  0  0  0  0
  -30.4467  -12.6260   19.4700 C   0  0  0  0  0  0
  -29.5109  -12.5140   18.2441 C   0  0  0  0  0  0
  -28.0517  -12.2823   18.6851 C   0  0  0  0  0  0
  -27.6210  -13.2385   19.8257 C   0  0  2  0  0  0
  -28.6715  -13.2938   20.9504 C   0  0  0  0  0  0
  -25.2444  -13.8195   20.5682 C   0  0  0  0  0  0
  -24.1775  -13.0433   20.9254 C   0  0  0  0  0  0
  -24.6385  -11.6909   20.8813 C   0  0  0  0  0  0
  -23.9061  -10.4301   21.0441 C   0  0  0  0  0  0
  -24.3616   -9.4206   21.9202 C   0  0  0  0  0  0
  -23.6293   -8.2239   22.0766 C   0  0  0  0  0  0
  -22.4284   -8.0284   21.3548 C   0  0  0  0  0  0
  -21.9927   -9.0251   20.4644 C   0  0  0  0  0  0
  -22.7251  -10.2127   20.3062 C   0  0  0  0  0  0
  -21.6853   -6.0739   22.5275 C   0  0  0  0  0  0
  -21.4006   -6.5638   23.8206 C   0  0  0  0  0  0
  -21.3661   -5.6796   24.9173 C   0  0  0  0  0  0
  -21.6033   -4.3057   24.7228 C   0  0  0  0  0  0
  -21.8820   -3.8154   23.4345 C   0  0  0  0  0  0
  -21.9183   -4.6969   22.3399 C   0  0  0  0  0  0
  -22.7796  -13.5201   21.1895 C   0  0  0  0  0  0
  -22.1663   -4.2156   21.0977 F   0  0  0  0  0  0
  -21.5627   -3.4546   25.7744 F   0  0  0  0  0  0
  -29.9277  -13.7273   20.3262 N   0  0  0  0  0  0
  -26.2851  -12.9389   20.3227 N   0  0  0  0  0  0
  -25.9305  -11.6529   20.5780 N   0  0  0  0  0  0
  -22.0434  -12.8179   22.0438 N   0  0  0  0  0  0
  -25.4122  -15.1899   20.4017 N   0  0  0  0  0  0
  -31.7084  -15.0948   20.2663 O   0  0  0  0  0  0
  -21.6635   -6.8880   21.4232 O   0  0  0  0  0  0
  -22.3491  -14.5517   20.6768 O   0  0  0  0  0  0
  -24.6468  -31.8354   23.1832 C   0  0  0  0  0  0
  -25.9219  -32.4637   23.8223 C   0  0  1  0  0  0
  -27.2180  -27.1056   20.1384 C   0  0  0  0  0  0
  -25.5987  -33.8450   24.2147 N   0  0  0  0  0  0
  -23.4498  -30.4533   21.5309 C   0  0  2  0  0  0
  -24.8960  -28.8646   20.1184 C   0  0  0  0  0  0
  -22.7555  -29.4514   22.4872 C   0  0  0  0  0  0
  -18.0281  -28.1404   22.8474 C   0  0  0  0  0  0
  -24.1488  -36.7238   23.2639 C   0  0  0  0  0  0
  -26.0080  -30.7029   21.3772 C   0  0  0  0  0  0
  -26.0792  -29.3081   20.7228 C   0  0  0  0  0  0
  -27.2436  -28.4473   20.7046 C   0  0  0  0  0  0
  -26.0036  -26.7567   19.5164 C   0  0  0  0  0  0
  -24.8702  -27.6011   19.5065 C   0  0  0  0  0  0
  -23.6729  -29.7686   20.1569 C   0  0  0  0  0  0
  -25.4116  -36.2980   24.0296 C   0  0  1  0  0  0
  -20.5905  -28.3714   23.1255 C   0  0  2  0  0  0
  -20.6793  -26.9406   22.5418 C   0  0  0  0  0  0
  -19.5764  -26.6382   21.5224 C   0  0  0  0  0  0
  -18.1929  -26.7940   22.1604 C   0  0  0  0  0  0
  -19.1547  -28.8871   23.2850 C   0  0  0  0  0  0
  -18.9476  -30.1481   23.8840 C   0  0  0  0  0  0
  -17.6490  -30.6588   24.0570 C   0  0  0  0  0  0
  -25.9078  -34.9363   23.5017 C   0  0  0  0  0  0
  -16.5379  -29.9080   23.6372 C   0  0  0  0  0  0
  -16.7279  -28.6519   23.0346 C   0  0  0  0  0  0
  -26.4541  -31.6518   25.0681 C   0  0  0  0  0  0
  -25.3708  -31.3710   26.1368 C   0  0  0  0  0  0
  -27.0417  -30.2913   24.6271 C   0  0  0  0  0  0
  -27.6058  -32.4314   25.7455 C   0  0  0  0  0  0
  -27.5548  -37.1748   24.8451 C   0  0  0  0  0  0
  -21.4254  -29.3047   22.3643 N   0  0  0  0  0  0
  -26.4255  -37.3716   23.9410 N   0  0  0  0  0  0
  -24.7219  -31.0199   22.0873 N   0  0  0  0  0  0
  -23.4187  -28.8047   23.2999 O   0  0  0  0  0  0
  -28.2948  -26.1391   20.1099 O   0  0  0  0  0  0
  -26.5655  -34.8861   22.4594 O   0  0  0  0  0  0
  -23.5586  -32.1246   23.7069 O   0  0  0  0  0  0
  -25.7347  -18.5007   18.1682 C   0  0  0  0  0  0
  -27.1102  -17.9164   17.9953 C   0  0  0  0  0  0
  -29.3457  -22.5695   21.4822 C   0  0  0  0  0  0
  -29.3446  -24.1402   21.3582 C   0  0  0  0  0  0
  -28.1817  -23.2391   19.5118 C   0  0  0  0  0  0
  -26.8228  -18.8267   19.1750 C   0  0  0  0  0  0
  -29.0682  -21.9386   20.0966 C   0  0  2  0  0  0
  -28.1772  -24.6054   20.4532 C   0  0  2  0  0  0
  -27.4128  -20.2319   19.2526 C   0  0  0  0  0  0
  -29.5802  -17.6814   20.7903 C   0  0  0  0  0  0
  -29.6019  -19.1306   19.8862 C   0  0  0  0  0  0
  -29.6234  -16.1471   20.3347 N   0  0  0  0  0  0
  -28.6169  -20.3857   20.1199 N   0  3  1  0  0  0
  -31.4695  -12.8227   19.1456 H   0  0  0  0  0  0
  -30.4812  -11.6897   20.0273 H   0  0  0  0  0  0
  -29.8361  -11.7027   17.5922 H   0  0  0  0  0  0
  -29.5681  -13.4271   17.6504 H   0  0  0  0  0  0
  -27.9788  -11.2510   19.0301 H   0  0  0  0  0  0
  -27.3723  -12.3668   17.8361 H   0  0  0  0  0  0
  -27.5712  -14.2267   19.3683 H   0  0  0  0  0  0
  -28.7843  -12.3256   21.4383 H   0  0  0  0  0  0
  -28.3716  -14.0012   21.7257 H   0  0  0  0  0  0
  -25.2739   -9.5684   22.4807 H   0  0  0  0  0  0
  -23.9986   -7.4632   22.7512 H   0  0  0  0  0  0
  -21.0854   -8.8767   19.8953 H   0  0  0  0  0  0
  -22.3703  -10.9677   19.6196 H   0  0  0  0  0  0
  -21.2002   -7.6147   23.9717 H   0  0  0  0  0  0
  -21.1475   -6.0528   25.9071 H   0  0  0  0  0  0
  -22.0589   -2.7620   23.2847 H   0  0  0  0  0  0
  -22.4037  -11.9795   22.4731 H   0  0  0  0  0  0
  -21.1069  -13.1206   22.2696 H   0  0  0  0  0  0
  -24.6300  -15.8302   20.4733 H   0  0  0  0  0  0
  -26.2226  -15.6057   19.9648 H   0  0  0  0  0  0
  -26.7269  -32.5223   23.0936 H   0  0  0  0  0  0
  -25.0209  -33.9584   25.0348 H   0  0  0  0  0  0
  -22.7529  -31.2789   21.3659 H   0  0  0  0  0  0
  -23.3746  -35.9568   23.3243 H   0  0  0  0  0  0
  -24.3582  -36.8953   22.2066 H   0  0  0  0  0  0
  -23.7247  -37.6405   23.6752 H   0  0  0  0  0  0
  -26.1482  -31.4505   20.5942 H   0  0  0  0  0  0
  -26.8870  -30.7688   22.0068 H   0  0  0  0  0  0
  -28.1559  -28.7933   21.1711 H   0  0  0  0  0  0
  -25.9150  -25.7883   19.0432 H   0  0  0  0  0  0
  -23.9613  -27.2498   19.0372 H   0  0  0  0  0  0
  -23.7982  -30.5347   19.3904 H   0  0  0  0  0  0
  -22.7900  -29.2007   19.8587 H   0  0  0  0  0  0
  -25.1288  -36.1781   25.0781 H   0  0  0  0  0  0
  -21.0002  -28.3309   24.1375 H   0  0  0  0  0  0
  -20.5750  -26.2286   23.3625 H   0  0  0  0  0  0
  -21.6640  -26.7443   22.1162 H   0  0  0  0  0  0
  -19.6957  -25.6292   21.1242 H   0  0  0  0  0  0
  -19.6748  -27.3202   20.6765 H   0  0  0  0  0  0
  -17.4231  -26.6738   21.3967 H   0  0  0  0  0  0
  -18.0272  -26.0050   22.8961 H   0  0  0  0  0  0
  -19.7958  -30.7342   24.2132 H   0  0  0  0  0  0
  -17.5028  -31.6258   24.5203 H   0  0  0  0  0  0
  -15.5378  -30.2976   23.7740 H   0  0  0  0  0  0
  -15.8668  -28.0873   22.7044 H   0  0  0  0  0  0
  -24.6036  -30.6867   25.7745 H   0  0  0  0  0  0
  -24.8720  -32.2863   26.4574 H   0  0  0  0  0  0
  -25.8014  -30.9124   27.0284 H   0  0  0  0  0  0
  -26.3051  -29.6603   24.1311 H   0  0  0  0  0  0
  -27.4059  -29.7237   25.4848 H   0  0  0  0  0  0
  -27.8910  -30.4124   23.9546 H   0  0  0  0  0  0
  -27.2705  -33.3788   26.1688 H   0  0  0  0  0  0
  -28.4030  -32.6586   25.0361 H   0  0  0  0  0  0
  -28.0492  -31.8630   26.5634 H   0  0  0  0  0  0
  -28.2501  -38.0099   24.7553 H   0  0  0  0  0  0
  -28.1116  -36.2634   24.6229 H   0  0  0  0  0  0
  -27.2276  -37.1325   25.8852 H   0  0  0  0  0  0
  -20.9470  -29.8761   21.6826 H   0  0  0  0  0  0
  -26.0093  -38.2750   24.1510 H   0  0  0  0  0  0
  -24.9415  -17.8149   18.4683 H   0  0  0  0  0  0
  -25.4334  -19.2705   17.4601 H   0  0  0  0  0  0
  -27.7064  -18.3082   17.1738 H   0  0  0  0  0  0
  -27.2506  -16.8561   18.1970 H   0  0  0  0  0  0
  -28.5579  -22.2759   22.1760 H   0  0  0  0  0  0
  -30.2902  -22.2089   21.8910 H   0  0  0  0  0  0
  -30.2817  -24.4584   20.8998 H   0  0  0  0  0  0
  -29.3008  -24.6093   22.3424 H   0  0  0  0  0  0
  -27.1448  -22.9678   19.3208 H   0  0  0  0  0  0
  -28.5766  -23.4965   18.5287 H   0  0  0  0  0  0
  -26.6702  -18.3615   20.1464 H   0  0  0  0  0  0
  -30.0033  -21.9503   19.5343 H   0  0  0  0  0  0
  -27.2687  -24.5322   21.0564 H   0  0  0  0  0  0
  -26.6239  -20.8833   19.6269 H   0  0  0  0  0  0
  -27.6540  -20.5739   18.2436 H   0  0  0  0  0  0
  -28.6956  -17.7423   21.4272 H   0  0  0  0  0  0
  -30.3992  -17.7722   21.5043 H   0  0  0  0  0  0
  -29.6056  -18.8887   18.8229 H   0  0  0  0  0  0
  -30.6012  -19.5338   20.0454 H   0  0  0  0  0  0
  -28.6851  -15.8256   20.1521 H   0  0  0  0  0  0
  -28.2709  -20.2452   21.0573 H   0  0  0  0  0  0
  1 25  1  0  0  0
  1 30  2  0  0  0
  1 82  1  0  0  0
  2  3  1  0  0  0
  2 25  1  0  0  0
  2 84  1  0  0  0
  2 85  1  0  0  0
  3  4  1  0  0  0
  3 86  1  0  0  0
  3 87  1  0  0  0
  4  5  1  0  0  0
  4 88  1  0  0  0
  4 89  1  0  0  0
  5  6  1  0  0  0
  5 26  1  0  0  0
  5 90  1  0  0  0
  6 25  1  0  0  0
  6 91  1  0  0  0
  6 92  1  0  0  0
  7  8  2  0  0  0
  7 26  1  0  0  0
  7 29  1  0  0  0
  8  9  1  0  0  0
  8 22  1  0  0  0
  9 10  1  0  0  0
  9 27  2  0  0  0
 10 11  2  0  0  0
 10 15  1  0  0  0
 11 12  1  0  0  0
 11 93  1  0  0  0
 12 13  2  0  0  0
 12 94  1  0  0  0
 13 14  1  0  0  0
 13 31  1  0  0  0
 14 15  2  0  0  0
 14 95  1  0  0  0
 15 96  1  0  0  0
 16 17  2  0  0  0
 16 21  1  0  0  0
 16 31  1  0  0  0
 17 18  1  0  0  0
 17 97  1  0  0  0
 18 19  2  0  0  0
 18 98  1  0  0  0
 19 20  1  0  0  0
 19 24  1  0  0  0
 20 21  2  0  0  0
 20 99  1  0  0  0
 21 23  1  0  0  0
 22 28  1  0  0  0
 22 32  2  0  0  0
 26 27  1  0  0  0
 28100  1  0  0  0
 28101  1  0  0  0
 29102  1  0  0  0
 29103  1  0  0  0
 33 34  1  0  0  0
 33 66  1  0  0  0
 33 70  2  0  0  0
 34 36  1  0  0  0
 34 59  1  0  0  0
 34104  1  0  0  0
 35 44  2  0  0  0
 35 45  1  0  0  0
 35 68  1  0  0  0
 36 56  1  0  0  0
 36105  1  0  0  0
 37 39  1  0  0  0
 37 47  1  0  0  0
 37 66  1  0  0  0
 37106  1  0  0  0
 38 43  2  0  0  0
 38 46  1  0  0  0
 38 47  1  0  0  0
 39 64  1  0  0  0
 39 67  2  0  0  0
 40 52  1  0  0  0
 40 53  2  0  0  0
 40 58  1  0  0  0
 41107  1  0  0  0
 41108  1  0  0  0
 41109  1  0  0  0
 41 48  1  0  0  0
 42 43  1  0  0  0
 42 66  1  0  0  0
 42110  1  0  0  0
 42111  1  0  0  0
 43 44  1  0  0  0
 44112  1  0  0  0
 45 46  2  0  0  0
 45113  1  0  0  0
 46114  1  0  0  0
 47115  1  0  0  0
 47116  1  0  0  0
 48 56  1  0  0  0
 48 65  1  0  0  0
 48117  1  0  0  0
 49 50  1  0  0  0
 49 53  1  0  0  0
 49 64  1  0  0  0
 49118  1  0  0  0
 50 51  1  0  0  0
 50119  1  0  0  0
 50120  1  0  0  0
 51 52  1  0  0  0
 51121  1  0  0  0
 51122  1  0  0  0
 52123  1  0  0  0
 52124  1  0  0  0
 53 54  1  0  0  0
 54 55  2  0  0  0
 54125  1  0  0  0
 55 57  1  0  0  0
 55126  1  0  0  0
 56 69  2  0  0  0
 57 58  2  0  0  0
 57127  1  0  0  0
 58128  1  0  0  0
 59 60  1  0  0  0
 59 61  1  0  0  0
 59 62  1  0  0  0
 60129  1  0  0  0
 60130  1  0  0  0
 60131  1  0  0  0
 61132  1  0  0  0
 61133  1  0  0  0
 61134  1  0  0  0
 62135  1  0  0  0
 62136  1  0  0  0
 62137  1  0  0  0
 63 65  1  0  0  0
 63138  1  0  0  0
 63139  1  0  0  0
 63140  1  0  0  0
 64141  1  0  0  0
 65142  1  0  0  0
 68 78  1  0  0  0
 71 72  1  0  0  0
 71 76  1  0  0  0
 71143  1  0  0  0
 71144  1  0  0  0
 72 76  1  0  0  0
 72145  1  0  0  0
 72146  1  0  0  0
 73 74  1  0  0  0
 73147  1  0  0  0
 73148  1  0  0  0
 73 77  1  0  0  0
 74 78  1  0  0  0
 74149  1  0  0  0
 74150  1  0  0  0
 75 77  1  0  0  0
 75 78  1  0  0  0
 75151  1  0  0  0
 75152  1  0  0  0
 76 79  1  0  0  0
 76153  1  0  0  0
 77 83  1  0  0  0
 77154  1  0  0  0
 78155  1  0  0  0
 79156  1  0  0  0
 79157  1  0  0  0
 79 83  1  0  0  0
 80 81  1  0  0  0
 80 82  1  0  0  0
 80158  1  0  0  0
 80159  1  0  0  0
 81 83  1  0  0  0
 81160  1  0  0  0
 81161  1  0  0  0
 82162  1  0  0  0
 83163  1  0  0  0
M  CHG  1  83   1
M  ISO  4   1 100  68 101  78 101  82 100
M  END
> <chiral flag>
0

> <version>
0

> <s_m_source_file>
/data/baiqing/PycharmProjects/Reinvent-master-3.2/result/LINK_invent/BTK/process_docking_weight1_custom_sum_contain_oxygen_bond_distance_aromatic_linkinvent_7_9_3/rearranged_h_0188.sdf

> <i_m_source_file_index>
30

> <r_mmod_Potential_Energy-OPLS-2005>
670.171936035156

> <r_mmod_Stretch_Energy-OPLS-2005>
300.632446289062

> <r_mmod_Bend_Energy-OPLS-2005>
367.189208984375

> <r_mmod_Torsional_Energy-OPLS-2005>
373.811309814453

> <r_mmod_Improper_Torsional_Energy-OPLS-2005>
6.40361452102661

> <r_mmod_Van_der_Waal_Energy-OPLS-2005>
98.7014999389648

> <r_mmod_Electrostatic_Energy-OPLS-2005>
-247.806671142578

> <r_mmod_Solvation_Energy-OPLS-2005>
-459.283508300781

> <b_mmod_Minimization_Converged-OPLS-2005>
0

> <r_mmod_RMS_Derivative-OPLS-2005>
4.3776421546936

$$$$
30
                    3D
 Structure written by MMmdl.
161170  0  0  1  0            999 V2000
  -30.7350  -14.4835   20.4614 C   0  0  0  0  0  0
  -30.4063  -12.2787   19.4398 C   0  0  0  0  0  0
  -29.4919  -12.4288   18.2077 C   0  0  0  0  0  0
  -28.0088  -12.3461   18.6181 C   0  0  0  0  0  0
  -27.6507  -13.2232   19.8518 C   0  0  2  0  0  0
  -28.7003  -13.0859   20.9777 C   0  0  0  0  0  0
  -25.2543  -13.8202   20.5714 C   0  0  0  0  0  0
  -24.1828  -13.0462   20.9212 C   0  0  0  0  0  0
  -24.6404  -11.6924   20.8765 C   0  0  0  0  0  0
  -23.9076  -10.4304   21.0407 C   0  0  0  0  0  0
  -24.3634   -9.4204   21.9163 C   0  0  0  0  0  0
  -23.6315   -8.2233   22.0732 C   0  0  0  0  0  0
  -22.4283   -8.0278   21.3538 C   0  0  0  0  0  0
  -21.9911   -9.0270   20.4667 C   0  0  0  0  0  0
  -22.7243  -10.2149   20.3068 C   0  0  0  0  0  0
  -21.6865   -6.0741   22.5280 C   0  0  0  0  0  0
  -21.4022   -6.5642   23.8217 C   0  0  0  0  0  0
  -21.3666   -5.6787   24.9174 C   0  0  0  0  0  0
  -21.6048   -4.3051   24.7224 C   0  0  0  0  0  0
  -21.8827   -3.8149   23.4344 C   0  0  0  0  0  0
  -21.9186   -4.6965   22.3397 C   0  0  0  0  0  0
  -22.7841  -13.5248   21.1858 C   0  0  0  0  0  0
  -22.1654   -4.2147   21.0975 F   0  0  0  0  0  0
  -21.5621   -3.4541   25.7742 F   0  0  0  0  0  0
  -30.0238  -13.3304   20.3888 N   0  0  0  0  0  0
  -26.2997  -12.9430   20.3329 N   0  0  0  0  0  0
  -25.9334  -11.6564   20.5776 N   0  0  0  0  0  0
  -22.0447  -12.8270   22.0418 N   0  0  0  0  0  0
  -25.4205  -15.1940   20.4137 N   0  0  0  0  0  0
  -31.9427  -14.5401   20.2191 O   0  0  0  0  0  0
  -21.6641   -6.8887   21.4243 O   0  0  0  0  0  0
  -22.3533  -14.5535   20.6666 O   0  0  0  0  0  0
  -24.6080  -31.8709   23.2102 C   0  0  0  0  0  0
  -25.8996  -32.4842   23.8372 C   0  0  1  0  0  0
  -27.2506  -27.4636   20.0905 C   0  0  0  0  0  0
  -25.5873  -33.8635   24.2322 N   0  0  0  0  0  0
  -23.3954  -30.4912   21.5512 C   0  0  2  0  0  0
  -24.8454  -28.9592   20.1157 C   0  0  0  0  0  0
  -22.7368  -29.4675   22.5021 C   0  0  0  0  0  0
  -18.0256  -28.1375   22.8483 C   0  0  0  0  0  0
  -24.1492  -36.7321   23.2640 C   0  0  0  0  0  0
  -25.9190  -30.8440   21.3590 C   0  0  0  0  0  0
  -26.0002  -29.4785   20.7109 C   0  0  0  0  0  0
  -27.1983  -28.7358   20.6998 C   0  0  0  0  0  0
  -26.0785  -26.9591   19.4749 C   0  0  0  0  0  0
  -24.8781  -27.6965   19.4983 C   0  0  0  0  0  0
  -23.6010  -29.8166   20.1674 C   0  0  0  0  0  0
  -25.4113  -36.3122   24.0340 C   0  0  1  0  0  0
  -20.5836  -28.3653   23.1337 C   0  0  2  0  0  0
  -20.6760  -26.9396   22.5423 C   0  0  0  0  0  0
  -19.5747  -26.6390   21.5209 C   0  0  0  0  0  0
  -18.1922  -26.7919   22.1617 C   0  0  0  0  0  0
  -19.1503  -28.8831   23.2902 C   0  0  0  0  0  0
  -18.9442  -30.1438   23.8909 C   0  0  0  0  0  0
  -17.6451  -30.6592   24.0560 C   0  0  0  0  0  0
  -25.9032  -34.9486   23.5135 C   0  0  0  0  0  0
  -16.5337  -29.9085   23.6334 C   0  0  0  0  0  0
  -16.7251  -28.6502   23.0352 C   0  0  0  0  0  0
  -26.4431  -31.6604   25.0685 C   0  0  0  0  0  0
  -25.3709  -31.3705   26.1443 C   0  0  0  0  0  0
  -27.0261  -30.3051   24.6040 C   0  0  0  0  0  0
  -27.6019  -32.4318   25.7441 C   0  0  0  0  0  0
  -27.5584  -37.1821   24.8459 C   0  0  0  0  0  0
  -21.4104  -29.3020   22.3742 N   0  0  0  0  0  0
  -26.4300  -37.3802   23.9404 N   0  0  0  0  0  0
  -24.6590  -31.0823   22.0999 N   0  0  0  0  0  0
  -23.4154  -28.8231   23.3063 O   0  0  0  0  0  0
  -28.4555  -26.7947   20.1220 O   0  0  0  0  0  0
  -26.5602  -34.8930   22.4702 O   0  0  0  0  0  0
  -23.5289  -32.1469   23.7519 O   0  0  0  0  0  0
  -29.0996  -22.3071   20.2701 C   0  0  0  0  0  0
  -29.1686  -20.5512   18.4242 C   0  0  0  0  0  0
  -30.1357  -16.2730   19.0202 C   0  0  0  0  0  0
  -30.1299  -16.6130   21.4393 C   0  0  0  0  0  0
  -29.2142  -17.4872   18.8354 C   0  0  0  0  0  0
  -29.2886  -17.9020   21.2237 C   0  0  0  0  0  0
  -29.6782  -21.0252   19.7688 C   0  0  2  0  0  0
  -28.7840  -19.7897   19.6781 C   0  0  2  0  0  0
  -29.5984  -24.7297   20.5812 C   0  0  0  0  0  0
  -28.5366  -25.4291   19.7177 C   0  0  0  0  0  0
  -30.0113  -15.6267   20.3471 N   0  0  0  0  0  0
  -29.8927  -23.3749   20.1133 N   0  0  0  0  0  0
  -29.4970  -18.4956   19.8796 N   0  3  0  0  0  0
  -27.9797  -22.3804   20.7791 O   0  0  0  0  0  0
  -31.4555  -12.3291   19.1460 H   0  0  0  0  0  0
  -30.2744  -11.2979   19.8993 H   0  0  0  0  0  0
  -29.7155  -11.6407   17.4865 H   0  0  0  0  0  0
  -29.6904  -13.3670   17.6932 H   0  0  0  0  0  0
  -27.7950  -11.2986   18.8355 H   0  0  0  0  0  0
  -27.3739  -12.6124   17.7726 H   0  0  0  0  0  0
  -27.6729  -14.2583   19.5107 H   0  0  0  0  0  0
  -28.6666  -12.0937   21.4273 H   0  0  0  0  0  0
  -28.4889  -13.7982   21.7760 H   0  0  0  0  0  0
  -25.2778   -9.5679   22.4738 H   0  0  0  0  0  0
  -24.0026   -7.4636   22.7456 H   0  0  0  0  0  0
  -21.0820   -8.8829   19.9020 H   0  0  0  0  0  0
  -22.3679  -10.9705   19.6208 H   0  0  0  0  0  0
  -21.2004   -7.6149   23.9727 H   0  0  0  0  0  0
  -21.1483   -6.0503   25.9079 H   0  0  0  0  0  0
  -22.0585   -2.7605   23.2836 H   0  0  0  0  0  0
  -22.4058  -11.9971   22.4884 H   0  0  0  0  0  0
  -21.1073  -13.1339   22.2614 H   0  0  0  0  0  0
  -24.6476  -15.8439   20.5112 H   0  0  0  0  0  0
  -26.2683  -15.6352   20.0843 H   0  0  0  0  0  0
  -26.7059  -32.5571   23.1130 H   0  0  0  0  0  0
  -24.9965  -33.9798   25.0422 H   0  0  0  0  0  0
  -22.6806  -31.3053   21.4106 H   0  0  0  0  0  0
  -23.3756  -35.9654   23.3324 H   0  0  0  0  0  0
  -24.3573  -36.8912   22.2047 H   0  0  0  0  0  0
  -23.7249  -37.6535   23.6635 H   0  0  0  0  0  0
  -26.0232  -31.6100   20.5895 H   0  0  0  0  0  0
  -26.8102  -30.8995   21.9733 H   0  0  0  0  0  0
  -28.0898  -29.1425   21.1582 H   0  0  0  0  0  0
  -26.0729  -26.0125   18.9576 H   0  0  0  0  0  0
  -23.9903  -27.2929   19.0311 H   0  0  0  0  0  0
  -23.6942  -30.5872   19.4015 H   0  0  0  0  0  0
  -22.7307  -29.2233   19.8839 H   0  0  0  0  0  0
  -25.1296  -36.1983   25.0833 H   0  0  0  0  0  0
  -20.9918  -28.3226   24.1463 H   0  0  0  0  0  0
  -20.5681  -26.2253   23.3598 H   0  0  0  0  0  0
  -21.6634  -26.7469   22.1210 H   0  0  0  0  0  0
  -19.6919  -25.6309   21.1222 H   0  0  0  0  0  0
  -19.6709  -27.3218   20.6755 H   0  0  0  0  0  0
  -17.4196  -26.6654   21.4019 H   0  0  0  0  0  0
  -18.0336  -26.0061   22.9016 H   0  0  0  0  0  0
  -19.7927  -30.7233   24.2299 H   0  0  0  0  0  0
  -17.5021  -31.6279   24.5149 H   0  0  0  0  0  0
  -15.5339  -30.3000   23.7674 H   0  0  0  0  0  0
  -15.8642  -28.0837   22.7069 H   0  0  0  0  0  0
  -24.5839  -30.7112   25.7757 H   0  0  0  0  0  0
  -24.8954  -32.2872   26.4941 H   0  0  0  0  0  0
  -25.8057  -30.8803   27.0160 H   0  0  0  0  0  0
  -26.2808  -29.6834   24.1068 H   0  0  0  0  0  0
  -27.4013  -29.7249   25.4476 H   0  0  0  0  0  0
  -27.8638  -30.4382   23.9195 H   0  0  0  0  0  0
  -27.2637  -33.3595   26.2061 H   0  0  0  0  0  0
  -28.3790  -32.6917   25.0246 H   0  0  0  0  0  0
  -28.0719  -31.8415   26.5312 H   0  0  0  0  0  0
  -28.2605  -38.0112   24.7502 H   0  0  0  0  0  0
  -28.1070  -36.2644   24.6293 H   0  0  0  0  0  0
  -27.2290  -37.1487   25.8856 H   0  0  0  0  0  0
  -20.9261  -29.8691   21.6932 H   0  0  0  0  0  0
  -26.0192  -38.2881   24.1401 H   0  0  0  0  0  0
  -29.9186  -20.1506   17.7461 H   0  0  0  0  0  0
  -28.3956  -21.1474   17.9405 H   0  0  0  0  0  0
  -31.1696  -16.5985   18.8657 H   0  0  0  0  0  0
  -29.9308  -15.5566   18.2248 H   0  0  0  0  0  0
  -29.8385  -16.1537   22.3866 H   0  0  0  0  0  0
  -31.1823  -16.8903   21.5528 H   0  0  0  0  0  0
  -28.1647  -17.1864   18.8758 H   0  0  0  0  0  0
  -29.3817  -17.9017   17.8403 H   0  0  0  0  0  0
  -29.5364  -18.6410   21.9866 H   0  0  0  0  0  0
  -28.2302  -17.6723   21.3525 H   0  0  0  0  0  0
  -30.7405  -20.8857   19.9625 H   0  0  0  0  0  0
  -27.7445  -19.8146   20.0017 H   0  0  0  0  0  0
  -29.2545  -24.6927   21.6166 H   0  0  0  0  0  0
  -30.5271  -25.3019   20.5800 H   0  0  0  0  0  0
  -27.6012  -24.8872   19.8461 H   0  0  0  0  0  0
  -28.8203  -25.3921   18.6656 H   0  0  0  0  0  0
  -30.7855  -23.2455   19.6520 H   0  0  0  0  0  0
  -30.4821  -18.7008   19.8093 H   0  0  0  0  0  0
  1 25  1  0  0  0
  1 30  2  0  0  0
  1 81  1  0  0  0
  2  3  1  0  0  0
  2 25  1  0  0  0
  2 85  1  0  0  0
  2 86  1  0  0  0
  3  4  1  0  0  0
  3 87  1  0  0  0
  3 88  1  0  0  0
  4  5  1  0  0  0
  4 89  1  0  0  0
  4 90  1  0  0  0
  5  6  1  0  0  0
  5 26  1  0  0  0
  5 91  1  0  0  0
  6 25  1  0  0  0
  6 92  1  0  0  0
  6 93  1  0  0  0
  7  8  2  0  0  0
  7 26  1  0  0  0
  7 29  1  0  0  0
  8  9  1  0  0  0
  8 22  1  0  0  0
  9 10  1  0  0  0
  9 27  2  0  0  0
 10 11  2  0  0  0
 10 15  1  0  0  0
 11 12  1  0  0  0
 11 94  1  0  0  0
 12 13  2  0  0  0
 12 95  1  0  0  0
 13 14  1  0  0  0
 13 31  1  0  0  0
 14 15  2  0  0  0
 14 96  1  0  0  0
 15 97  1  0  0  0
 16 17  2  0  0  0
 16 21  1  0  0  0
 16 31  1  0  0  0
 17 18  1  0  0  0
 17 98  1  0  0  0
 18 19  2  0  0  0
 18 99  1  0  0  0
 19 20  1  0  0  0
 19 24  1  0  0  0
 20 21  2  0  0  0
 20100  1  0  0  0
 21 23  1  0  0  0
 22 28  1  0  0  0
 22 32  2  0  0  0
 26 27  1  0  0  0
 28101  1  0  0  0
 28102  1  0  0  0
 29103  1  0  0  0
 29104  1  0  0  0
 33 34  1  0  0  0
 33 66  1  0  0  0
 33 70  2  0  0  0
 34 36  1  0  0  0
 34 59  1  0  0  0
 34105  1  0  0  0
 35 44  2  0  0  0
 35 45  1  0  0  0
 35 68  1  0  0  0
 36 56  1  0  0  0
 36106  1  0  0  0
 37 39  1  0  0  0
 37 47  1  0  0  0
 37 66  1  0  0  0
 37107  1  0  0  0
 38 43  2  0  0  0
 38 46  1  0  0  0
 38 47  1  0  0  0
 39 64  1  0  0  0
 39 67  2  0  0  0
 40 52  1  0  0  0
 40 53  2  0  0  0
 40 58  1  0  0  0
 41108  1  0  0  0
 41109  1  0  0  0
 41110  1  0  0  0
 41 48  1  0  0  0
 42 43  1  0  0  0
 42 66  1  0  0  0
 42111  1  0  0  0
 42112  1  0  0  0
 43 44  1  0  0  0
 44113  1  0  0  0
 45 46  2  0  0  0
 45114  1  0  0  0
 46115  1  0  0  0
 47116  1  0  0  0
 47117  1  0  0  0
 48 56  1  0  0  0
 48 65  1  0  0  0
 48118  1  0  0  0
 49 50  1  0  0  0
 49 53  1  0  0  0
 49 64  1  0  0  0
 49119  1  0  0  0
 50 51  1  0  0  0
 50120  1  0  0  0
 50121  1  0  0  0
 51 52  1  0  0  0
 51122  1  0  0  0
 51123  1  0  0  0
 52124  1  0  0  0
 52125  1  0  0  0
 53 54  1  0  0  0
 54 55  2  0  0  0
 54126  1  0  0  0
 55 57  1  0  0  0
 55127  1  0  0  0
 56 69  2  0  0  0
 57 58  2  0  0  0
 57128  1  0  0  0
 58129  1  0  0  0
 59 60  1  0  0  0
 59 61  1  0  0  0
 59 62  1  0  0  0
 60130  1  0  0  0
 60131  1  0  0  0
 60132  1  0  0  0
 61133  1  0  0  0
 61134  1  0  0  0
 61135  1  0  0  0
 62136  1  0  0  0
 62137  1  0  0  0
 62138  1  0  0  0
 63 65  1  0  0  0
 63139  1  0  0  0
 63140  1  0  0  0
 63141  1  0  0  0
 64142  1  0  0  0
 65143  1  0  0  0
 68 80  1  0  0  0
 71 82  1  0  0  0
 71 84  2  0  0  0
 71 77  1  0  0  0
 72 77  1  0  0  0
 72144  1  0  0  0
 72145  1  0  0  0
 72 78  1  0  0  0
 73 75  1  0  0  0
 73 81  1  0  0  0
 73146  1  0  0  0
 73147  1  0  0  0
 74 76  1  0  0  0
 74 81  1  0  0  0
 74148  1  0  0  0
 74149  1  0  0  0
 75150  1  0  0  0
 75151  1  0  0  0
 75 83  1  0  0  0
 76 83  1  0  0  0
 76152  1  0  0  0
 76153  1  0  0  0
 77 78  1  0  0  0
 77154  1  0  0  0
 78 83  1  0  0  0
 78155  1  0  0  0
 79 80  1  0  0  0
 79 82  1  0  0  0
 79156  1  0  0  0
 79157  1  0  0  0
 80158  1  0  0  0
 80159  1  0  0  0
 82160  1  0  0  0
 83161  1  0  0  0
M  CHG  1  83   1
M  ISO  4   1 100  68 101  80 101  81 100
M  END
> <chiral flag>
0

> <version>
0

> <s_m_source_file>
/data/baiqing/PycharmProjects/Reinvent-master-3.2/result/LINK_invent/BTK/process_docking_weight1_custom_sum_contain_oxygen_bond_distance_aromatic_linkinvent_7_9_3/rearranged_h_0188.sdf

> <i_m_source_file_index>
31

> <r_mmod_Potential_Energy-OPLS-2005>
-14.8371934890747

> <r_mmod_Stretch_Energy-OPLS-2005>
35.370288848877

> <r_mmod_Bend_Energy-OPLS-2005>
114.606155395508

> <r_mmod_Torsional_Energy-OPLS-2005>
408.988403320312

> <r_mmod_Improper_Torsional_Energy-OPLS-2005>
17.9463062286377

> <r_mmod_Van_der_Waal_Energy-OPLS-2005>
137.649688720703

> <r_mmod_Electrostatic_Energy-OPLS-2005>
-283.528106689453

> <r_mmod_Solvation_Energy-OPLS-2005>
-472.247253417969

> <b_mmod_Minimization_Converged-OPLS-2005>
0

> <r_mmod_RMS_Derivative-OPLS-2005>
3.75694608688354

$$$$
31
                    3D
 Structure written by MMmdl.
160169  0  0  1  0            999 V2000
  -30.7114  -14.4086   20.5919 C   0  0  0  0  0  0
  -30.4107  -12.2690   19.4073 C   0  0  0  0  0  0
  -29.4875  -12.5113   18.1959 C   0  0  0  0  0  0
  -28.0061  -12.3826   18.6056 C   0  0  0  0  0  0
  -27.6633  -13.1996   19.8805 C   0  0  2  0  0  0
  -28.7030  -12.9375   20.9923 C   0  0  0  0  0  0
  -25.2612  -13.8167   20.5728 C   0  0  0  0  0  0
  -24.1841  -13.0458   20.9171 C   0  0  0  0  0  0
  -24.6364  -11.6914   20.8703 C   0  0  0  0  0  0
  -23.9047  -10.4294   21.0388 C   0  0  0  0  0  0
  -24.3602   -9.4212   21.9177 C   0  0  0  0  0  0
  -23.6286   -8.2244   22.0748 C   0  0  0  0  0  0
  -22.4263   -8.0289   21.3545 C   0  0  0  0  0  0
  -21.9895   -9.0258   20.4639 C   0  0  0  0  0  0
  -22.7213  -10.2141   20.3046 C   0  0  0  0  0  0
  -21.6853   -6.0736   22.5281 C   0  0  0  0  0  0
  -21.4020   -6.5643   23.8208 C   0  0  0  0  0  0
  -21.3661   -5.6792   24.9179 C   0  0  0  0  0  0
  -21.6038   -4.3050   24.7226 C   0  0  0  0  0  0
  -21.8815   -3.8148   23.4348 C   0  0  0  0  0  0
  -21.9191   -4.6968   22.3402 C   0  0  0  0  0  0
  -22.7857  -13.5250   21.1847 C   0  0  0  0  0  0
  -22.1652   -4.2150   21.0981 F   0  0  0  0  0  0
  -21.5630   -3.4535   25.7742 F   0  0  0  0  0  0
  -30.0357  -13.2386   20.4448 N   0  0  0  0  0  0
  -26.3030  -12.9308   20.3389 N   0  0  0  0  0  0
  -25.9288  -11.6475   20.5749 N   0  0  0  0  0  0
  -22.0507  -12.8238   22.0410 N   0  0  0  0  0  0
  -25.4437  -15.1894   20.4246 N   0  0  0  0  0  0
  -31.8369  -14.6010   20.1198 O   0  0  0  0  0  0
  -21.6639   -6.8884   21.4237 O   0  0  0  0  0  0
  -22.3548  -14.5556   20.6710 O   0  0  0  0  0  0
  -24.6107  -31.8697   23.2139 C   0  0  0  0  0  0
  -25.9022  -32.4842   23.8385 C   0  0  1  0  0  0
  -27.2393  -27.4697   20.0643 C   0  0  0  0  0  0
  -25.5882  -33.8631   24.2349 N   0  0  0  0  0  0
  -23.3940  -30.4986   21.5544 C   0  0  2  0  0  0
  -24.8389  -28.9706   20.1172 C   0  0  0  0  0  0
  -22.7384  -29.4676   22.5003 C   0  0  0  0  0  0
  -18.0296  -28.1319   22.8520 C   0  0  0  0  0  0
  -24.1474  -36.7323   23.2646 C   0  0  0  0  0  0
  -25.9194  -30.8480   21.3593 C   0  0  0  0  0  0
  -25.9987  -29.4827   20.7110 C   0  0  0  0  0  0
  -27.1961  -28.7345   20.6928 C   0  0  0  0  0  0
  -26.0538  -26.9684   19.4709 C   0  0  0  0  0  0
  -24.8616  -27.7099   19.5014 C   0  0  0  0  0  0
  -23.5971  -29.8317   20.1682 C   0  0  0  0  0  0
  -25.4099  -36.3129   24.0353 C   0  0  1  0  0  0
  -20.5890  -28.3616   23.1364 C   0  0  2  0  0  0
  -20.6781  -26.9370   22.5372 C   0  0  0  0  0  0
  -19.5748  -26.6416   21.5159 C   0  0  0  0  0  0
  -18.1933  -26.7881   22.1605 C   0  0  0  0  0  0
  -19.1539  -28.8763   23.2966 C   0  0  0  0  0  0
  -18.9456  -30.1387   23.8944 C   0  0  0  0  0  0
  -17.6450  -30.6535   24.0527 C   0  0  0  0  0  0
  -25.9028  -34.9491   23.5159 C   0  0  0  0  0  0
  -16.5352  -29.9026   23.6287 C   0  0  0  0  0  0
  -16.7279  -28.6433   23.0357 C   0  0  0  0  0  0
  -26.4485  -31.6601   25.0675 C   0  0  0  0  0  0
  -25.3772  -31.3648   26.1433 C   0  0  0  0  0  0
  -27.0301  -30.3067   24.5964 C   0  0  0  0  0  0
  -27.6086  -32.4286   25.7420 C   0  0  0  0  0  0
  -27.5579  -37.1821   24.8471 C   0  0  0  0  0  0
  -21.4113  -29.3055   22.3792 N   0  0  0  0  0  0
  -26.4291  -37.3813   23.9416 N   0  0  0  0  0  0
  -24.6593  -31.0852   22.1018 N   0  0  0  0  0  0
  -23.4203  -28.8193   23.2973 O   0  0  0  0  0  0
  -28.4430  -26.7951   20.0536 O   0  0  0  0  0  0
  -26.5587  -34.8940   22.4715 O   0  0  0  0  0  0
  -23.5327  -32.1408   23.7612 O   0  0  0  0  0  0
  -27.3665  -18.1208   22.4184 C   0  0  0  0  0  0
  -26.8180  -19.3742   22.4112 C   0  0  0  0  0  0
  -28.7351  -18.3303   22.0808 C   0  0  0  0  0  0
  -29.7116  -15.8669   22.3582 C   0  0  0  0  0  0
  -30.1483  -16.8250   20.5023 C   0  0  0  0  0  0
  -29.8460  -17.3212   21.9078 C   0  0  0  0  0  0
  -27.7460  -21.6886   21.8454 C   0  0  0  0  0  0
  -27.2603  -22.0110   20.4174 C   0  0  0  0  0  0
  -27.9262  -24.4250   20.3461 C   0  0  0  0  0  0
  -28.5293  -25.5136   19.4334 C   0  0  0  0  0  0
  -28.9924  -19.6122   21.8548 N   0  0  0  0  0  0
  -27.8211  -20.2541   22.0634 N   0  0  0  0  0  0
  -29.9442  -15.4496   20.9700 N   0  0  0  0  0  0
  -28.0411  -23.0743   19.7488 N   0  3  0  0  0  0
  -31.4561  -12.3519   19.1100 H   0  0  0  0  0  0
  -30.2854  -11.2517   19.7809 H   0  0  0  0  0  0
  -29.7148  -11.8054   17.3957 H   0  0  0  0  0  0
  -29.6679  -13.5076   17.7889 H   0  0  0  0  0  0
  -27.7970  -11.3264   18.7750 H   0  0  0  0  0  0
  -27.3598  -12.6893   17.7807 H   0  0  0  0  0  0
  -27.7195  -14.2538   19.6106 H   0  0  0  0  0  0
  -28.6641  -11.8930   21.3087 H   0  0  0  0  0  0
  -28.4693  -13.5148   21.8848 H   0  0  0  0  0  0
  -25.2761   -9.5701   22.4737 H   0  0  0  0  0  0
  -24.0004   -7.4643   22.7469 H   0  0  0  0  0  0
  -21.0826   -8.8769   19.8958 H   0  0  0  0  0  0
  -22.3668  -10.9677   19.6152 H   0  0  0  0  0  0
  -21.2012   -7.6152   23.9718 H   0  0  0  0  0  0
  -21.1485   -6.0526   25.9080 H   0  0  0  0  0  0
  -22.0592   -2.7613   23.2846 H   0  0  0  0  0  0
  -22.4131  -11.9891   22.4765 H   0  0  0  0  0  0
  -21.1145  -13.1281   22.2643 H   0  0  0  0  0  0
  -24.7010  -15.8628   20.5766 H   0  0  0  0  0  0
  -26.3256  -15.6215   20.1785 H   0  0  0  0  0  0
  -26.7089  -32.5602   23.1151 H   0  0  0  0  0  0
  -24.9962  -33.9761   25.0454 H   0  0  0  0  0  0
  -22.6836  -31.3177   21.4221 H   0  0  0  0  0  0
  -23.3734  -35.9659   23.3318 H   0  0  0  0  0  0
  -24.3574  -36.8908   22.2053 H   0  0  0  0  0  0
  -23.7221  -37.6543   23.6632 H   0  0  0  0  0  0
  -26.0185  -31.6135   20.5892 H   0  0  0  0  0  0
  -26.8140  -30.9124   21.9650 H   0  0  0  0  0  0
  -28.0951  -29.1308   21.1448 H   0  0  0  0  0  0
  -26.0149  -26.0152   18.9672 H   0  0  0  0  0  0
  -23.9695  -27.3099   19.0411 H   0  0  0  0  0  0
  -23.6992  -30.6030   19.4047 H   0  0  0  0  0  0
  -22.7210  -29.2465   19.8770 H   0  0  0  0  0  0
  -25.1278  -36.2003   25.0845 H   0  0  0  0  0  0
  -21.0027  -28.3111   24.1469 H   0  0  0  0  0  0
  -20.5677  -26.2192   23.3506 H   0  0  0  0  0  0
  -21.6638  -26.7405   22.1161 H   0  0  0  0  0  0
  -19.6919  -25.6408   21.1028 H   0  0  0  0  0  0
  -19.6665  -27.3350   20.6797 H   0  0  0  0  0  0
  -17.4203  -26.6684   21.3978 H   0  0  0  0  0  0
  -18.0371  -25.9949   22.8926 H   0  0  0  0  0  0
  -19.7919  -30.7188   24.2357 H   0  0  0  0  0  0
  -17.4989  -31.6235   24.5081 H   0  0  0  0  0  0
  -15.5352  -30.2938   23.7578 H   0  0  0  0  0  0
  -15.8680  -28.0738   22.7072 H   0  0  0  0  0  0
  -24.5965  -30.6985   25.7750 H   0  0  0  0  0  0
  -24.8933  -32.2763   26.4928 H   0  0  0  0  0  0
  -25.8146  -30.8774   27.0150 H   0  0  0  0  0  0
  -26.2779  -29.6821   24.1114 H   0  0  0  0  0  0
  -27.4235  -29.7315   25.4359 H   0  0  0  0  0  0
  -27.8552  -30.4435   23.8969 H   0  0  0  0  0  0
  -27.2742  -33.3577   26.2046 H   0  0  0  0  0  0
  -28.3860  -32.6848   25.0210 H   0  0  0  0  0  0
  -28.0777  -31.8349   26.5275 H   0  0  0  0  0  0
  -28.2639  -38.0081   24.7509 H   0  0  0  0  0  0
  -28.1030  -36.2625   24.6308 H   0  0  0  0  0  0
  -27.2291  -37.1480   25.8872 H   0  0  0  0  0  0
  -20.9262  -29.8840   21.7071 H   0  0  0  0  0  0
  -26.0192  -38.2900   24.1416 H   0  0  0  0  0  0
  -26.8556  -17.1891   22.6250 H   0  0  0  0  0  0
  -25.8045  -19.7048   22.5985 H   0  0  0  0  0  0
  -28.7219  -15.6179   22.7411 H   0  0  0  0  0  0
  -30.4944  -15.5583   23.0557 H   0  0  0  0  0  0
  -31.1638  -17.0601   20.1774 H   0  0  0  0  0  0
  -29.4160  -17.1428   19.7596 H   0  0  0  0  0  0
  -30.7608  -17.7269   22.3428 H   0  0  0  0  0  0
  -27.0780  -22.1314   22.5859 H   0  0  0  0  0  0
  -28.7320  -22.1126   22.0349 H   0  0  0  0  0  0
  -26.1975  -22.2596   20.4229 H   0  0  0  0  0  0
  -27.3479  -21.1238   19.7900 H   0  0  0  0  0  0
  -26.8775  -24.6362   20.5477 H   0  0  0  0  0  0
  -28.4324  -24.4401   21.3111 H   0  0  0  0  0  0
  -29.5867  -25.3096   19.2584 H   0  0  0  0  0  0
  -28.0751  -25.5215   18.4424 H   0  0  0  0  0  0
  -27.7134  -23.1171   18.7950 H   0  0  0  0  0  0
  -29.0086  -22.7906   19.7181 H   0  0  0  0  0  0
  1 25  1  0  0  0
  1 30  2  0  0  0
  1 83  1  0  0  0
  2  3  1  0  0  0
  2 25  1  0  0  0
  2 85  1  0  0  0
  2 86  1  0  0  0
  3  4  1  0  0  0
  3 87  1  0  0  0
  3 88  1  0  0  0
  4  5  1  0  0  0
  4 89  1  0  0  0
  4 90  1  0  0  0
  5  6  1  0  0  0
  5 26  1  0  0  0
  5 91  1  0  0  0
  6 25  1  0  0  0
  6 92  1  0  0  0
  6 93  1  0  0  0
  7  8  2  0  0  0
  7 26  1  0  0  0
  7 29  1  0  0  0
  8  9  1  0  0  0
  8 22  1  0  0  0
  9 10  1  0  0  0
  9 27  2  0  0  0
 10 11  2  0  0  0
 10 15  1  0  0  0
 11 12  1  0  0  0
 11 94  1  0  0  0
 12 13  2  0  0  0
 12 95  1  0  0  0
 13 14  1  0  0  0
 13 31  1  0  0  0
 14 15  2  0  0  0
 14 96  1  0  0  0
 15 97  1  0  0  0
 16 17  2  0  0  0
 16 21  1  0  0  0
 16 31  1  0  0  0
 17 18  1  0  0  0
 17 98  1  0  0  0
 18 19  2  0  0  0
 18 99  1  0  0  0
 19 20  1  0  0  0
 19 24  1  0  0  0
 20 21  2  0  0  0
 20100  1  0  0  0
 21 23  1  0  0  0
 22 28  1  0  0  0
 22 32  2  0  0  0
 26 27  1  0  0  0
 28101  1  0  0  0
 28102  1  0  0  0
 29103  1  0  0  0
 29104  1  0  0  0
 33 34  1  0  0  0
 33 66  1  0  0  0
 33 70  2  0  0  0
 34 36  1  0  0  0
 34 59  1  0  0  0
 34105  1  0  0  0
 35 44  2  0  0  0
 35 45  1  0  0  0
 35 68  1  0  0  0
 36 56  1  0  0  0
 36106  1  0  0  0
 37 39  1  0  0  0
 37 47  1  0  0  0
 37 66  1  0  0  0
 37107  1  0  0  0
 38 43  2  0  0  0
 38 46  1  0  0  0
 38 47  1  0  0  0
 39 64  1  0  0  0
 39 67  2  0  0  0
 40 52  1  0  0  0
 40 53  2  0  0  0
 40 58  1  0  0  0
 41108  1  0  0  0
 41109  1  0  0  0
 41110  1  0  0  0
 41 48  1  0  0  0
 42 43  1  0  0  0
 42 66  1  0  0  0
 42111  1  0  0  0
 42112  1  0  0  0
 43 44  1  0  0  0
 44113  1  0  0  0
 45 46  2  0  0  0
 45114  1  0  0  0
 46115  1  0  0  0
 47116  1  0  0  0
 47117  1  0  0  0
 48 56  1  0  0  0
 48 65  1  0  0  0
 48118  1  0  0  0
 49 50  1  0  0  0
 49 53  1  0  0  0
 49 64  1  0  0  0
 49119  1  0  0  0
 50 51  1  0  0  0
 50120  1  0  0  0
 50121  1  0  0  0
 51 52  1  0  0  0
 51122  1  0  0  0
 51123  1  0  0  0
 52124  1  0  0  0
 52125  1  0  0  0
 53 54  1  0  0  0
 54 55  2  0  0  0
 54126  1  0  0  0
 55 57  1  0  0  0
 55127  1  0  0  0
 56 69  2  0  0  0
 57 58  2  0  0  0
 57128  1  0  0  0
 58129  1  0  0  0
 59 60  1  0  0  0
 59 61  1  0  0  0
 59 62  1  0  0  0
 60130  1  0  0  0
 60131  1  0  0  0
 60132  1  0  0  0
 61133  1  0  0  0
 61134  1  0  0  0
 61135  1  0  0  0
 62136  1  0  0  0
 62137  1  0  0  0
 62138  1  0  0  0
 63 65  1  0  0  0
 63139  1  0  0  0
 63140  1  0  0  0
 63141  1  0  0  0
 64142  1  0  0  0
 65143  1  0  0  0
 68 80  1  0  0  0
 71 72  2  0  0  0
 71 73  1  0  0  0
 71144  1  0  0  0
 72 82  1  0  0  0
 72145  1  0  0  0
 73 81  2  0  0  0
 73 76  1  0  0  0
 74 76  1  0  0  0
 74 83  1  0  0  0
 74146  1  0  0  0
 74147  1  0  0  0
 75 76  1  0  0  0
 75 83  1  0  0  0
 75148  1  0  0  0
 75149  1  0  0  0
 76150  1  0  0  0
 77 78  1  0  0  0
 77 82  1  0  0  0
 77151  1  0  0  0
 77152  1  0  0  0
 78 84  1  0  0  0
 78153  1  0  0  0
 78154  1  0  0  0
 79 80  1  0  0  0
 79 84  1  0  0  0
 79155  1  0  0  0
 79156  1  0  0  0
 80157  1  0  0  0
 80158  1  0  0  0
 81 82  1  0  0  0
 84159  1  0  0  0
 84160  1  0  0  0
M  CHG  1  84   1
M  ISO  4   1 100  68 101  80 101  83 100
M  END
> <chiral flag>
0

> <version>
0

> <s_m_source_file>
/data/baiqing/PycharmProjects/Reinvent-master-3.2/result/LINK_invent/BTK/process_docking_weight1_custom_sum_contain_oxygen_bond_distance_aromatic_linkinvent_7_9_3/rearranged_h_0188.sdf

> <i_m_source_file_index>
32

> <r_mmod_Potential_Energy-OPLS-2005>
-143.907867431641

> <r_mmod_Stretch_Energy-OPLS-2005>
31.8084373474121

> <r_mmod_Bend_Energy-OPLS-2005>
99.296012878418

> <r_mmod_Torsional_Energy-OPLS-2005>
280.227966308594

> <r_mmod_Improper_Torsional_Energy-OPLS-2005>
14.7704067230225

> <r_mmod_Van_der_Waal_Energy-OPLS-2005>
130.624404907227

> <r_mmod_Electrostatic_Energy-OPLS-2005>
-248.703475952148

> <r_mmod_Solvation_Energy-OPLS-2005>
-461.639678955078

> <b_mmod_Minimization_Converged-OPLS-2005>
0

> <r_mmod_RMS_Derivative-OPLS-2005>
3.52315616607666

$$$$
32
                    3D
 Structure written by MMmdl.
152161  0  0  1  0            999 V2000
  -30.4691  -15.1041   20.3810 C   0  0  0  0  0  0
  -30.4332  -12.6878   19.5152 C   0  0  0  0  0  0
  -29.5366  -12.5601   18.2630 C   0  0  0  0  0  0
  -28.0618  -12.3460   18.6610 C   0  0  0  0  0  0
  -27.6172  -13.2736   19.8252 C   0  0  2  0  0  0
  -28.6518  -13.3496   20.9628 C   0  0  0  0  0  0
  -25.2387  -13.8238   20.5668 C   0  0  0  0  0  0
  -24.1750  -13.0398   20.9197 C   0  0  0  0  0  0
  -24.6423  -11.6907   20.8731 C   0  0  0  0  0  0
  -23.9117  -10.4260   21.0395 C   0  0  0  0  0  0
  -24.3666   -9.4165   21.9165 C   0  0  0  0  0  0
  -23.6307   -8.2221   22.0760 C   0  0  0  0  0  0
  -22.4274   -8.0298   21.3563 C   0  0  0  0  0  0
  -21.9920   -9.0278   20.4656 C   0  0  0  0  0  0
  -22.7284  -10.2130   20.3048 C   0  0  0  0  0  0
  -21.6839   -6.0742   22.5275 C   0  0  0  0  0  0
  -21.4013   -6.5648   23.8211 C   0  0  0  0  0  0
  -21.3653   -5.6803   24.9176 C   0  0  0  0  0  0
  -21.6037   -4.3066   24.7229 C   0  0  0  0  0  0
  -21.8808   -3.8155   23.4351 C   0  0  0  0  0  0
  -21.9174   -4.6965   22.3400 C   0  0  0  0  0  0
  -22.7761  -13.5152   21.1837 C   0  0  0  0  0  0
  -22.1641   -4.2155   21.0974 F   0  0  0  0  0  0
  -21.5619   -3.4542   25.7739 F   0  0  0  0  0  0
  -29.9025  -13.8148   20.3511 N   0  0  0  0  0  0
  -26.2826  -12.9513   20.3161 N   0  0  0  0  0  0
  -25.9361  -11.6616   20.5679 N   0  0  0  0  0  0
  -22.0405  -12.8194   22.0432 N   0  0  0  0  0  0
  -25.3920  -15.1977   20.4083 N   0  0  0  0  0  0
  -31.6878  -15.1296   20.1471 O   0  0  0  0  0  0
  -21.6628   -6.8907   21.4255 O   0  0  0  0  0  0
  -22.3410  -14.5407   20.6629 O   0  0  0  0  0  0
  -24.6580  -31.8339   23.1729 C   0  0  0  0  0  0
  -25.9303  -32.4629   23.8173 C   0  0  1  0  0  0
  -27.2083  -27.0105   20.1625 C   0  0  0  0  0  0
  -25.6000  -33.8450   24.2095 N   0  0  0  0  0  0
  -23.4656  -30.4509   21.5231 C   0  0  2  0  0  0
  -24.9143  -28.8511   20.1137 C   0  0  0  0  0  0
  -22.7640  -29.4524   22.4821 C   0  0  0  0  0  0
  -18.0328  -28.1438   22.8480 C   0  0  0  0  0  0
  -24.1495  -36.7223   23.2631 C   0  0  0  0  0  0
  -26.0297  -30.6701   21.3844 C   0  0  0  0  0  0
  -26.0995  -29.2652   20.7355 C   0  0  0  0  0  0
  -27.2502  -28.3659   20.7335 C   0  0  0  0  0  0
  -25.9979  -26.7355   19.4935 C   0  0  0  0  0  0
  -24.8831  -27.6045   19.4711 C   0  0  0  0  0  0
  -23.6984  -29.7718   20.1474 C   0  0  0  0  0  0
  -25.4133  -36.2990   24.0291 C   0  0  1  0  0  0
  -20.5948  -28.3780   23.1202 C   0  0  2  0  0  0
  -20.6805  -26.9476   22.5411 C   0  0  0  0  0  0
  -19.5765  -26.6396   21.5235 C   0  0  0  0  0  0
  -18.1947  -26.7961   22.1658 C   0  0  0  0  0  0
  -19.1586  -28.8939   23.2827 C   0  0  0  0  0  0
  -18.9481  -30.1519   23.8866 C   0  0  0  0  0  0
  -17.6472  -30.6614   24.0575 C   0  0  0  0  0  0
  -25.9111  -34.9374   23.5016 C   0  0  0  0  0  0
  -16.5375  -29.9104   23.6329 C   0  0  0  0  0  0
  -16.7308  -28.6540   23.0333 C   0  0  0  0  0  0
  -26.4545  -31.6513   25.0658 C   0  0  0  0  0  0
  -25.3685  -31.3794   26.1326 C   0  0  0  0  0  0
  -27.0352  -30.2863   24.6285 C   0  0  0  0  0  0
  -27.6070  -32.4256   25.7479 C   0  0  0  0  0  0
  -27.5573  -37.1781   24.8456 C   0  0  0  0  0  0
  -21.4326  -29.3064   22.3566 N   0  0  0  0  0  0
  -26.4269  -37.3730   23.9406 N   0  0  0  0  0  0
  -24.7385  -31.0095   22.0809 N   0  0  0  0  0  0
  -23.4211  -28.8092   23.3050 O   0  0  0  0  0  0
  -28.2194  -25.9405   20.1650 O   0  0  0  0  0  0
  -26.5702  -34.8895   22.4592 O   0  0  0  0  0  0
  -23.5676  -32.1264   23.6888 O   0  0  0  0  0  0
  -28.5217  -21.5258   20.5447 C   0  0  0  0  0  0
  -29.1928  -20.3065   19.9791 C   0  0  0  0  0  0
  -28.6563  -22.9277   20.0018 C   0  0  0  0  0  0
  -30.0045  -21.8589   18.4108 C   0  0  0  0  0  0
  -29.2902  -17.3414   19.4201 C   0  0  0  0  0  0
  -30.1831  -17.6639   21.1734 C   0  0  0  0  0  0
  -29.1758  -18.6343   20.3752 C   0  0  0  0  0  0
  -30.7790  -22.0161   17.1148 C   0  0  0  0  0  0
  -27.8884  -24.3881   20.4680 C   0  0  0  0  0  0
  -29.9441  -20.6057   18.8947 N   0  0  0  0  0  0
  -29.4264  -22.9757   18.8909 N   0  0  0  0  0  0
  -29.7123  -16.3483   20.5182 N   0  0  0  0  0  0
  -31.4697  -12.8532   19.2154 H   0  0  0  0  0  0
  -30.4404  -11.7527   20.0763 H   0  0  0  0  0  0
  -29.8819  -11.7433   17.6287 H   0  0  0  0  0  0
  -29.6296  -13.4678   17.6633 H   0  0  0  0  0  0
  -27.9405  -11.3026   18.9507 H   0  0  0  0  0  0
  -27.4164  -12.4983   17.7932 H   0  0  0  0  0  0
  -27.5620  -14.2739   19.3926 H   0  0  0  0  0  0
  -28.7721  -12.3770   21.4474 H   0  0  0  0  0  0
  -28.3318  -14.0533   21.7333 H   0  0  0  0  0  0
  -25.2828   -9.5599   22.4717 H   0  0  0  0  0  0
  -23.9994   -7.4588   22.7458 H   0  0  0  0  0  0
  -21.0833   -8.8825   19.8974 H   0  0  0  0  0  0
  -22.3760  -10.9684   19.6159 H   0  0  0  0  0  0
  -21.2038   -7.6160   23.9726 H   0  0  0  0  0  0
  -21.1474   -6.0533   25.9084 H   0  0  0  0  0  0
  -22.0590   -2.7617   23.2841 H   0  0  0  0  0  0
  -22.4065  -11.9987   22.5028 H   0  0  0  0  0  0
  -21.0985  -13.1195   22.2517 H   0  0  0  0  0  0
  -24.6004  -15.8264   20.4892 H   0  0  0  0  0  0
  -26.2295  -15.6537   20.0720 H   0  0  0  0  0  0
  -26.7407  -32.5209   23.0938 H   0  0  0  0  0  0
  -25.0155  -33.9547   25.0240 H   0  0  0  0  0  0
  -22.7763  -31.2814   21.3564 H   0  0  0  0  0  0
  -23.3762  -35.9558   23.3282 H   0  0  0  0  0  0
  -24.3582  -36.8874   22.2054 H   0  0  0  0  0  0
  -23.7237  -37.6408   23.6680 H   0  0  0  0  0  0
  -26.1950  -31.4119   20.6011 H   0  0  0  0  0  0
  -26.9011  -30.7385   22.0235 H   0  0  0  0  0  0
  -28.1608  -28.6821   21.2206 H   0  0  0  0  0  0
  -25.8962  -25.7921   18.9781 H   0  0  0  0  0  0
  -23.9859  -27.2857   18.9586 H   0  0  0  0  0  0
  -23.8551  -30.5369   19.3853 H   0  0  0  0  0  0
  -22.8086  -29.2250   19.8281 H   0  0  0  0  0  0
  -25.1330  -36.1815   25.0781 H   0  0  0  0  0  0
  -21.0067  -28.3426   24.1315 H   0  0  0  0  0  0
  -20.5677  -26.2444   23.3682 H   0  0  0  0  0  0
  -21.6666  -26.7441   22.1231 H   0  0  0  0  0  0
  -19.6898  -25.6286   21.1308 H   0  0  0  0  0  0
  -19.6654  -27.3191   20.6747 H   0  0  0  0  0  0
  -17.4210  -26.6711   21.4063 H   0  0  0  0  0  0
  -18.0322  -26.0110   22.9064 H   0  0  0  0  0  0
  -19.7946  -30.7351   24.2203 H   0  0  0  0  0  0
  -17.5013  -31.6265   24.5232 H   0  0  0  0  0  0
  -15.5375  -30.3000   23.7622 H   0  0  0  0  0  0
  -15.8716  -28.0844   22.7021 H   0  0  0  0  0  0
  -24.5996  -30.6945   25.7736 H   0  0  0  0  0  0
  -24.8695  -32.2984   26.4413 H   0  0  0  0  0  0
  -25.7966  -30.9299   27.0292 H   0  0  0  0  0  0
  -26.2950  -29.6629   24.1252 H   0  0  0  0  0  0
  -27.3869  -29.7141   25.4877 H   0  0  0  0  0  0
  -27.8924  -30.4026   23.9657 H   0  0  0  0  0  0
  -27.2721  -33.3696   26.1793 H   0  0  0  0  0  0
  -28.4065  -32.6541   25.0418 H   0  0  0  0  0  0
  -28.0489  -31.8481   26.5609 H   0  0  0  0  0  0
  -28.2570  -38.0092   24.7526 H   0  0  0  0  0  0
  -28.1085  -36.2626   24.6266 H   0  0  0  0  0  0
  -27.2301  -37.1432   25.8857 H   0  0  0  0  0  0
  -20.9600  -29.8806   21.6738 H   0  0  0  0  0  0
  -26.0126  -38.2798   24.1378 H   0  0  0  0  0  0
  -27.8682  -21.3930   21.3991 H   0  0  0  0  0  0
  -28.3469  -17.0913   18.9333 H   0  0  0  0  0  0
  -30.0600  -17.4749   18.6575 H   0  0  0  0  0  0
  -30.0173  -17.6977   22.2529 H   0  0  0  0  0  0
  -31.2286  -17.8915   20.9677 H   0  0  0  0  0  0
  -28.2043  -18.5367   20.8586 H   0  0  0  0  0  0
  -31.6347  -21.3401   17.0773 H   0  0  0  0  0  0
  -31.1622  -23.0282   17.0007 H   0  0  0  0  0  0
  -30.1378  -21.7972   16.2603 H   0  0  0  0  0  0
  -26.8399  -24.2399   20.2195 H   0  0  0  0  0  0
  -27.8896  -24.3346   21.5582 H   0  0  0  0  0  0
  1 25  1  0  0  0
  1 30  2  0  0  0
  1 82  1  0  0  0
  2  3  1  0  0  0
  2 25  1  0  0  0
  2 83  1  0  0  0
  2 84  1  0  0  0
  3  4  1  0  0  0
  3 85  1  0  0  0
  3 86  1  0  0  0
  4  5  1  0  0  0
  4 87  1  0  0  0
  4 88  1  0  0  0
  5  6  1  0  0  0
  5 26  1  0  0  0
  5 89  1  0  0  0
  6 25  1  0  0  0
  6 90  1  0  0  0
  6 91  1  0  0  0
  7  8  2  0  0  0
  7 26  1  0  0  0
  7 29  1  0  0  0
  8  9  1  0  0  0
  8 22  1  0  0  0
  9 10  1  0  0  0
  9 27  2  0  0  0
 10 11  2  0  0  0
 10 15  1  0  0  0
 11 12  1  0  0  0
 11 92  1  0  0  0
 12 13  2  0  0  0
 12 93  1  0  0  0
 13 14  1  0  0  0
 13 31  1  0  0  0
 14 15  2  0  0  0
 14 94  1  0  0  0
 15 95  1  0  0  0
 16 17  2  0  0  0
 16 21  1  0  0  0
 16 31  1  0  0  0
 17 18  1  0  0  0
 17 96  1  0  0  0
 18 19  2  0  0  0
 18 97  1  0  0  0
 19 20  1  0  0  0
 19 24  1  0  0  0
 20 21  2  0  0  0
 20 98  1  0  0  0
 21 23  1  0  0  0
 22 28  1  0  0  0
 22 32  2  0  0  0
 26 27  1  0  0  0
 28 99  1  0  0  0
 28100  1  0  0  0
 29101  1  0  0  0
 29102  1  0  0  0
 33 34  1  0  0  0
 33 66  1  0  0  0
 33 70  2  0  0  0
 34 36  1  0  0  0
 34 59  1  0  0  0
 34103  1  0  0  0
 35 44  2  0  0  0
 35 45  1  0  0  0
 35 68  1  0  0  0
 36 56  1  0  0  0
 36104  1  0  0  0
 37 39  1  0  0  0
 37 47  1  0  0  0
 37 66  1  0  0  0
 37105  1  0  0  0
 38 43  2  0  0  0
 38 46  1  0  0  0
 38 47  1  0  0  0
 39 64  1  0  0  0
 39 67  2  0  0  0
 40 52  1  0  0  0
 40 53  2  0  0  0
 40 58  1  0  0  0
 41106  1  0  0  0
 41107  1  0  0  0
 41108  1  0  0  0
 41 48  1  0  0  0
 42 43  1  0  0  0
 42 66  1  0  0  0
 42109  1  0  0  0
 42110  1  0  0  0
 43 44  1  0  0  0
 44111  1  0  0  0
 45 46  2  0  0  0
 45112  1  0  0  0
 46113  1  0  0  0
 47114  1  0  0  0
 47115  1  0  0  0
 48 56  1  0  0  0
 48 65  1  0  0  0
 48116  1  0  0  0
 49 50  1  0  0  0
 49 53  1  0  0  0
 49 64  1  0  0  0
 49117  1  0  0  0
 50 51  1  0  0  0
 50118  1  0  0  0
 50119  1  0  0  0
 51 52  1  0  0  0
 51120  1  0  0  0
 51121  1  0  0  0
 52122  1  0  0  0
 52123  1  0  0  0
 53 54  1  0  0  0
 54 55  2  0  0  0
 54124  1  0  0  0
 55 57  1  0  0  0
 55125  1  0  0  0
 56 69  2  0  0  0
 57 58  2  0  0  0
 57126  1  0  0  0
 58127  1  0  0  0
 59 60  1  0  0  0
 59 61  1  0  0  0
 59 62  1  0  0  0
 60128  1  0  0  0
 60129  1  0  0  0
 60130  1  0  0  0
 61131  1  0  0  0
 61132  1  0  0  0
 61133  1  0  0  0
 62134  1  0  0  0
 62135  1  0  0  0
 62136  1  0  0  0
 63 65  1  0  0  0
 63137  1  0  0  0
 63138  1  0  0  0
 63139  1  0  0  0
 64140  1  0  0  0
 65141  1  0  0  0
 68 79  1  0  0  0
 71 72  2  0  0  0
 71 73  1  0  0  0
 71142  1  0  0  0
 72 80  1  0  0  0
 72 77  1  0  0  0
 73 79  1  0  0  0
 73 81  2  0  0  0
 74 78  1  0  0  0
 74 80  2  0  0  0
 74 81  1  0  0  0
 75 77  1  0  0  0
 75 82  1  0  0  0
 75143  1  0  0  0
 75144  1  0  0  0
 76 77  1  0  0  0
 76 82  1  0  0  0
 76145  1  0  0  0
 76146  1  0  0  0
 77147  1  0  0  0
 78148  1  0  0  0
 78149  1  0  0  0
 78150  1  0  0  0
 79151  1  0  0  0
 79152  1  0  0  0
M  ISO  4   1 100  68 101  79 101  82 100
M  END
> <chiral flag>
0

> <version>
0

> <s_m_source_file>
/data/baiqing/PycharmProjects/Reinvent-master-3.2/result/LINK_invent/BTK/process_docking_weight1_custom_sum_contain_oxygen_bond_distance_aromatic_linkinvent_7_9_3/rearranged_h_0188.sdf

> <i_m_source_file_index>
33

> <r_mmod_Potential_Energy-OPLS-2005>
508.634979248047

> <r_mmod_Stretch_Energy-OPLS-2005>
377.104675292969

> <r_mmod_Bend_Energy-OPLS-2005>
342.3291015625

> <r_mmod_Torsional_Energy-OPLS-2005>
274.774688720703

> <r_mmod_Improper_Torsional_Energy-OPLS-2005>
10.730993270874

> <r_mmod_Van_der_Waal_Energy-OPLS-2005>
132.306671142578

> <r_mmod_Electrostatic_Energy-OPLS-2005>
-706.251953125

> <r_mmod_Solvation_Energy-OPLS-2005>
-240.799499511719

> <b_mmod_Minimization_Converged-OPLS-2005>
0

> <r_mmod_RMS_Derivative-OPLS-2005>
4.84475708007812

$$$$
33
                    3D
 Structure written by MMmdl.
153162  0  0  1  0            999 V2000
  -30.6284  -14.7584   20.4602 C   0  0  0  0  0  0
  -30.4292  -12.4650   19.4775 C   0  0  0  0  0  0
  -29.5110  -12.5142   18.2371 C   0  0  0  0  0  0
  -28.0368  -12.3404   18.6492 C   0  0  0  0  0  0
  -27.6421  -13.2404   19.8513 C   0  0  2  0  0  0
  -28.6881  -13.1914   20.9865 C   0  0  0  0  0  0
  -25.2520  -13.8215   20.5722 C   0  0  0  0  0  0
  -24.1807  -13.0449   20.9195 C   0  0  0  0  0  0
  -24.6408  -11.6930   20.8736 C   0  0  0  0  0  0
  -23.9085  -10.4303   21.0399 C   0  0  0  0  0  0
  -24.3633   -9.4217   21.9180 C   0  0  0  0  0  0
  -23.6304   -8.2255   22.0754 C   0  0  0  0  0  0
  -22.4288   -8.0291   21.3543 C   0  0  0  0  0  0
  -21.9923   -9.0267   20.4646 C   0  0  0  0  0  0
  -22.7252  -10.2146   20.3053 C   0  0  0  0  0  0
  -21.6857   -6.0744   22.5280 C   0  0  0  0  0  0
  -21.4011   -6.5644   23.8214 C   0  0  0  0  0  0
  -21.3664   -5.6797   24.9175 C   0  0  0  0  0  0
  -21.6046   -4.3062   24.7222 C   0  0  0  0  0  0
  -21.8819   -3.8153   23.4343 C   0  0  0  0  0  0
  -21.9190   -4.6971   22.3399 C   0  0  0  0  0  0
  -22.7827  -13.5227   21.1853 C   0  0  0  0  0  0
  -22.1659   -4.2157   21.0980 F   0  0  0  0  0  0
  -21.5631   -3.4544   25.7733 F   0  0  0  0  0  0
  -29.9871  -13.5381   20.3993 N   0  0  0  0  0  0
  -26.2955  -12.9439   20.3307 N   0  0  0  0  0  0
  -25.9347  -11.6573   20.5756 N   0  0  0  0  0  0
  -22.0478  -12.8215   22.0413 N   0  0  0  0  0  0
  -25.4227  -15.1942   20.4178 N   0  0  0  0  0  0
  -31.8191  -14.8299   20.1400 O   0  0  0  0  0  0
  -21.6647   -6.8888   21.4244 O   0  0  0  0  0  0
  -22.3506  -14.5538   20.6708 O   0  0  0  0  0  0
  -24.6365  -31.8546   23.2000 C   0  0  0  0  0  0
  -25.9181  -32.4748   23.8353 C   0  0  1  0  0  0
  -27.2067  -27.2241   20.1209 C   0  0  0  0  0  0
  -25.5969  -33.8552   24.2269 N   0  0  0  0  0  0
  -23.4340  -30.4816   21.5450 C   0  0  2  0  0  0
  -24.8789  -28.9352   20.1068 C   0  0  0  0  0  0
  -22.7528  -29.4615   22.4907 C   0  0  0  0  0  0
  -18.0297  -28.1392   22.8489 C   0  0  0  0  0  0
  -24.1492  -36.7273   23.2638 C   0  0  0  0  0  0
  -25.9872  -30.7525   21.3904 C   0  0  0  0  0  0
  -26.0556  -29.3755   20.7264 C   0  0  0  0  0  0
  -27.2213  -28.5327   20.7273 C   0  0  0  0  0  0
  -26.0080  -26.8868   19.4433 C   0  0  0  0  0  0
  -24.8636  -27.6997   19.4535 C   0  0  0  0  0  0
  -23.6526  -29.8252   20.1589 C   0  0  0  0  0  0
  -25.4119  -36.3066   24.0325 C   0  0  1  0  0  0
  -20.5909  -28.3717   23.1250 C   0  0  2  0  0  0
  -20.6787  -26.9426   22.5403 C   0  0  0  0  0  0
  -19.5754  -26.6382   21.5216 C   0  0  0  0  0  0
  -18.1936  -26.7930   22.1633 C   0  0  0  0  0  0
  -19.1553  -28.8871   23.2864 C   0  0  0  0  0  0
  -18.9470  -30.1468   23.8886 C   0  0  0  0  0  0
  -17.6467  -30.6590   24.0563 C   0  0  0  0  0  0
  -25.9067  -34.9436   23.5099 C   0  0  0  0  0  0
  -16.5360  -29.9084   23.6333 C   0  0  0  0  0  0
  -16.7281  -28.6499   23.0363 C   0  0  0  0  0  0
  -26.4516  -31.6578   25.0757 C   0  0  0  0  0  0
  -25.3721  -31.3761   26.1468 C   0  0  0  0  0  0
  -27.0352  -30.2974   24.6295 C   0  0  0  0  0  0
  -27.6083  -32.4311   25.7515 C   0  0  0  0  0  0
  -27.5581  -37.1796   24.8463 C   0  0  0  0  0  0
  -21.4234  -29.3063   22.3639 N   0  0  0  0  0  0
  -26.4290  -37.3770   23.9407 N   0  0  0  0  0  0
  -24.7055  -31.0476   22.1004 N   0  0  0  0  0  0
  -23.4209  -28.8142   23.3012 O   0  0  0  0  0  0
  -28.2522  -26.2526   20.2101 O   0  0  0  0  0  0
  -26.5637  -34.8911   22.4666 O   0  0  0  0  0  0
  -23.5500  -32.1393   23.7264 O   0  0  0  0  0  0
  -29.9298  -23.0481   19.7544 C   0  0  0  0  0  0
  -28.6502  -23.4428   20.2403 C   0  0  0  0  0  0
  -29.5508  -20.7959   20.3241 C   0  0  0  0  0  0
  -29.6018  -16.9293   19.6081 C   0  0  0  0  0  0
  -30.4162  -17.1034   21.4512 C   0  0  0  0  0  0
  -29.4869  -18.0759   20.6606 C   0  0  0  0  0  0
  -30.8514  -24.0416   19.0767 C   0  0  0  0  0  0
  -27.8720  -24.8137   19.8947 C   0  0  0  0  0  0
  -30.3664  -21.7394   19.8129 N   0  0  0  0  0  0
  -27.9013  -22.4137   20.7723 N   0  0  0  0  0  0
  -28.3356  -21.1147   20.8211 N   0  0  0  0  0  0
  -29.8922  -15.9238   20.6841 N   0  0  0  0  0  0
  -30.0408  -19.4434   20.2910 N   0  0  0  0  0  0
  -31.4717  -12.5791   19.1770 H   0  0  0  0  0  0
  -30.3656  -11.4921   19.9674 H   0  0  0  0  0  0
  -29.7940  -11.7388   17.5243 H   0  0  0  0  0  0
  -29.6393  -13.4665   17.7200 H   0  0  0  0  0  0
  -27.8898  -11.2913   18.9079 H   0  0  0  0  0  0
  -27.3819  -12.5368   17.7997 H   0  0  0  0  0  0
  -27.6319  -14.2612   19.4690 H   0  0  0  0  0  0
  -28.7254  -12.2024   21.4455 H   0  0  0  0  0  0
  -28.4247  -13.8931   21.7798 H   0  0  0  0  0  0
  -25.2780   -9.5692   22.4755 H   0  0  0  0  0  0
  -24.0012   -7.4648   22.7476 H   0  0  0  0  0  0
  -21.0850   -8.8786   19.8954 H   0  0  0  0  0  0
  -22.3708  -10.9686   19.6164 H   0  0  0  0  0  0
  -21.2003   -7.6151   23.9721 H   0  0  0  0  0  0
  -21.1485   -6.0523   25.9078 H   0  0  0  0  0  0
  -22.0592   -2.7614   23.2839 H   0  0  0  0  0  0
  -22.4096  -11.9872   22.4793 H   0  0  0  0  0  0
  -21.1100  -13.1243   22.2634 H   0  0  0  0  0  0
  -24.6633  -15.8546   20.5437 H   0  0  0  0  0  0
  -26.2921  -15.6356   20.1458 H   0  0  0  0  0  0
  -26.7256  -32.5371   23.1096 H   0  0  0  0  0  0
  -25.0118  -33.9692   25.0416 H   0  0  0  0  0  0
  -22.7332  -31.3068   21.4022 H   0  0  0  0  0  0
  -23.3767  -35.9595   23.3284 H   0  0  0  0  0  0
  -24.3589  -36.8909   22.2058 H   0  0  0  0  0  0
  -23.7227  -37.6462   23.6670 H   0  0  0  0  0  0
  -26.1381  -31.5137   20.6237 H   0  0  0  0  0  0
  -26.8609  -30.7953   22.0290 H   0  0  0  0  0  0
  -28.1129  -28.8589   21.2442 H   0  0  0  0  0  0
  -25.8942  -25.9588   18.9054 H   0  0  0  0  0  0
  -23.9683  -27.3618   18.9497 H   0  0  0  0  0  0
  -23.7806  -30.6066   19.4091 H   0  0  0  0  0  0
  -22.7687  -29.2643   19.8493 H   0  0  0  0  0  0
  -25.1298  -36.1919   25.0819 H   0  0  0  0  0  0
  -21.0003  -28.3296   24.1371 H   0  0  0  0  0  0
  -20.5692  -26.2328   23.3621 H   0  0  0  0  0  0
  -21.6652  -26.7448   22.1188 H   0  0  0  0  0  0
  -19.6917  -25.6287   21.1254 H   0  0  0  0  0  0
  -19.6681  -27.3189   20.6742 H   0  0  0  0  0  0
  -17.4205  -26.6685   21.4034 H   0  0  0  0  0  0
  -18.0335  -26.0068   22.9026 H   0  0  0  0  0  0
  -19.7943  -30.7292   24.2249 H   0  0  0  0  0  0
  -17.5015  -31.6267   24.5167 H   0  0  0  0  0  0
  -15.5360  -30.2985   23.7653 H   0  0  0  0  0  0
  -15.8680  -28.0803   22.7097 H   0  0  0  0  0  0
  -24.5896  -30.7109   25.7799 H   0  0  0  0  0  0
  -24.8911  -32.2939   26.4864 H   0  0  0  0  0  0
  -25.8014  -30.8956   27.0268 H   0  0  0  0  0  0
  -26.2951  -29.6724   24.1286 H   0  0  0  0  0  0
  -27.3951  -29.7249   25.4854 H   0  0  0  0  0  0
  -27.8872  -30.4210   23.9608 H   0  0  0  0  0  0
  -27.2723  -33.3644   26.2048 H   0  0  0  0  0  0
  -28.3912  -32.6812   25.0340 H   0  0  0  0  0  0
  -28.0727  -31.8452   26.5457 H   0  0  0  0  0  0
  -28.2595  -38.0099   24.7519 H   0  0  0  0  0  0
  -28.1081  -36.2630   24.6276 H   0  0  0  0  0  0
  -27.2299  -37.1426   25.8867 H   0  0  0  0  0  0
  -20.9428  -29.8785   21.6839 H   0  0  0  0  0  0
  -26.0164  -38.2842   24.1413 H   0  0  0  0  0  0
  -30.4239  -17.0586   18.8993 H   0  0  0  0  0  0
  -28.6692  -16.7529   19.0701 H   0  0  0  0  0  0
  -30.1951  -17.0758   22.5192 H   0  0  0  0  0  0
  -31.4825  -17.2881   21.2956 H   0  0  0  0  0  0
  -28.4879  -18.1326   21.0968 H   0  0  0  0  0  0
  -30.4896  -24.2716   18.0747 H   0  0  0  0  0  0
  -31.8667  -23.6534   18.9938 H   0  0  0  0  0  0
  -30.8935  -24.9703   19.6462 H   0  0  0  0  0  0
  -26.8908  -24.6479   20.3419 H   0  0  0  0  0  0
  -27.7279  -24.7664   18.8149 H   0  0  0  0  0  0
  -30.9686  -19.4075   19.8906 H   0  0  0  0  0  0
  1 25  1  0  0  0
  1 30  2  0  0  0
  1 82  1  0  0  0
  2  3  1  0  0  0
  2 25  1  0  0  0
  2 84  1  0  0  0
  2 85  1  0  0  0
  3  4  1  0  0  0
  3 86  1  0  0  0
  3 87  1  0  0  0
  4  5  1  0  0  0
  4 88  1  0  0  0
  4 89  1  0  0  0
  5  6  1  0  0  0
  5 26  1  0  0  0
  5 90  1  0  0  0
  6 25  1  0  0  0
  6 91  1  0  0  0
  6 92  1  0  0  0
  7  8  2  0  0  0
  7 26  1  0  0  0
  7 29  1  0  0  0
  8  9  1  0  0  0
  8 22  1  0  0  0
  9 10  1  0  0  0
  9 27  2  0  0  0
 10 11  2  0  0  0
 10 15  1  0  0  0
 11 12  1  0  0  0
 11 93  1  0  0  0
 12 13  2  0  0  0
 12 94  1  0  0  0
 13 14  1  0  0  0
 13 31  1  0  0  0
 14 15  2  0  0  0
 14 95  1  0  0  0
 15 96  1  0  0  0
 16 17  2  0  0  0
 16 21  1  0  0  0
 16 31  1  0  0  0
 17 18  1  0  0  0
 17 97  1  0  0  0
 18 19  2  0  0  0
 18 98  1  0  0  0
 19 20  1  0  0  0
 19 24  1  0  0  0
 20 21  2  0  0  0
 20 99  1  0  0  0
 21 23  1  0  0  0
 22 28  1  0  0  0
 22 32  2  0  0  0
 26 27  1  0  0  0
 28100  1  0  0  0
 28101  1  0  0  0
 29102  1  0  0  0
 29103  1  0  0  0
 33 34  1  0  0  0
 33 66  1  0  0  0
 33 70  2  0  0  0
 34 36  1  0  0  0
 34 59  1  0  0  0
 34104  1  0  0  0
 35 44  2  0  0  0
 35 45  1  0  0  0
 35 68  1  0  0  0
 36 56  1  0  0  0
 36105  1  0  0  0
 37 39  1  0  0  0
 37 47  1  0  0  0
 37 66  1  0  0  0
 37106  1  0  0  0
 38 43  2  0  0  0
 38 46  1  0  0  0
 38 47  1  0  0  0
 39 64  1  0  0  0
 39 67  2  0  0  0
 40 52  1  0  0  0
 40 53  2  0  0  0
 40 58  1  0  0  0
 41107  1  0  0  0
 41108  1  0  0  0
 41109  1  0  0  0
 41 48  1  0  0  0
 42 43  1  0  0  0
 42 66  1  0  0  0
 42110  1  0  0  0
 42111  1  0  0  0
 43 44  1  0  0  0
 44112  1  0  0  0
 45 46  2  0  0  0
 45113  1  0  0  0
 46114  1  0  0  0
 47115  1  0  0  0
 47116  1  0  0  0
 48 56  1  0  0  0
 48 65  1  0  0  0
 48117  1  0  0  0
 49 50  1  0  0  0
 49 53  1  0  0  0
 49 64  1  0  0  0
 49118  1  0  0  0
 50 51  1  0  0  0
 50119  1  0  0  0
 50120  1  0  0  0
 51 52  1  0  0  0
 51121  1  0  0  0
 51122  1  0  0  0
 52123  1  0  0  0
 52124  1  0  0  0
 53 54  1  0  0  0
 54 55  2  0  0  0
 54125  1  0  0  0
 55 57  1  0  0  0
 55126  1  0  0  0
 56 69  2  0  0  0
 57 58  2  0  0  0
 57127  1  0  0  0
 58128  1  0  0  0
 59 60  1  0  0  0
 59 61  1  0  0  0
 59 62  1  0  0  0
 60129  1  0  0  0
 60130  1  0  0  0
 60131  1  0  0  0
 61132  1  0  0  0
 61133  1  0  0  0
 61134  1  0  0  0
 62135  1  0  0  0
 62136  1  0  0  0
 62137  1  0  0  0
 63 65  1  0  0  0
 63138  1  0  0  0
 63139  1  0  0  0
 63140  1  0  0  0
 64141  1  0  0  0
 65142  1  0  0  0
 68 78  1  0  0  0
 71 72  2  0  0  0
 71 77  1  0  0  0
 71 79  1  0  0  0
 72 78  1  0  0  0
 72 80  1  0  0  0
 73 79  2  0  0  0
 73 81  1  0  0  0
 73 83  1  0  0  0
 74 76  1  0  0  0
 74 82  1  0  0  0
 74143  1  0  0  0
 74144  1  0  0  0
 75 76  1  0  0  0
 75 82  1  0  0  0
 75145  1  0  0  0
 75146  1  0  0  0
 76 83  1  0  0  0
 76147  1  0  0  0
 77148  1  0  0  0
 77149  1  0  0  0
 77150  1  0  0  0
 78151  1  0  0  0
 78152  1  0  0  0
 80 81  2  0  0  0
 83153  1  0  0  0
M  ISO  4   1 100  68 101  78 101  82 100
M  END
> <chiral flag>
0

> <version>
0

> <s_m_source_file>
/data/baiqing/PycharmProjects/Reinvent-master-3.2/result/LINK_invent/BTK/process_docking_weight1_custom_sum_contain_oxygen_bond_distance_aromatic_linkinvent_7_9_3/rearranged_h_0188.sdf

> <i_m_source_file_index>
34

> <r_mmod_Potential_Energy-OPLS-2005>
208.858703613281

> <r_mmod_Stretch_Energy-OPLS-2005>
129.191696166992

> <r_mmod_Bend_Energy-OPLS-2005>
220.192611694336

> <r_mmod_Torsional_Energy-OPLS-2005>
262.469024658203

> <r_mmod_Improper_Torsional_Energy-OPLS-2005>
14.1521253585815

> <r_mmod_Van_der_Waal_Energy-OPLS-2005>
149.400268554688

> <r_mmod_Electrostatic_Energy-OPLS-2005>
-441.81591796875

> <r_mmod_Solvation_Energy-OPLS-2005>
-231.231674194336

> <b_mmod_Minimization_Converged-OPLS-2005>
0

> <r_mmod_RMS_Derivative-OPLS-2005>
0.981553792953491

$$$$
34
                    3D
 Structure written by MMmdl.
163172  0  0  1  0            999 V2000
  -30.7066  -14.4981   20.5812 C   0  0  0  0  0  0
  -30.4257  -12.3296   19.4249 C   0  0  0  0  0  0
  -29.4957  -12.5085   18.2078 C   0  0  0  0  0  0
  -28.0176  -12.3614   18.6206 C   0  0  0  0  0  0
  -27.6584  -13.2085   19.8701 C   0  0  2  0  0  0
  -28.7017  -13.0134   20.9927 C   0  0  0  0  0  0
  -25.2570  -13.8158   20.5668 C   0  0  0  0  0  0
  -24.1831  -13.0431   20.9177 C   0  0  0  0  0  0
  -24.6391  -11.6902   20.8733 C   0  0  0  0  0  0
  -23.9058  -10.4291   21.0397 C   0  0  0  0  0  0
  -24.3613   -9.4207   21.9172 C   0  0  0  0  0  0
  -23.6290   -8.2244   22.0749 C   0  0  0  0  0  0
  -22.4268   -8.0282   21.3546 C   0  0  0  0  0  0
  -21.9901   -9.0253   20.4647 C   0  0  0  0  0  0
  -22.7228  -10.2133   20.3048 C   0  0  0  0  0  0
  -21.6854   -6.0733   22.5280 C   0  0  0  0  0  0
  -21.4018   -6.5636   23.8214 C   0  0  0  0  0  0
  -21.3658   -5.6789   24.9175 C   0  0  0  0  0  0
  -21.6040   -4.3052   24.7225 C   0  0  0  0  0  0
  -21.8820   -3.8145   23.4347 C   0  0  0  0  0  0
  -21.9195   -4.6962   22.3403 C   0  0  0  0  0  0
  -22.7852  -13.5230   21.1838 C   0  0  0  0  0  0
  -22.1661   -4.2148   21.0980 F   0  0  0  0  0  0
  -21.5626   -3.4535   25.7738 F   0  0  0  0  0  0
  -30.0312  -13.3223   20.4379 N   0  0  0  0  0  0
  -26.3008  -12.9331   20.3345 N   0  0  0  0  0  0
  -25.9318  -11.6490   20.5759 N   0  0  0  0  0  0
  -22.0494  -12.8233   22.0405 N   0  0  0  0  0  0
  -25.4277  -15.1876   20.4045 N   0  0  0  0  0  0
  -31.8328  -14.6808   20.1109 O   0  0  0  0  0  0
  -21.6635   -6.8877   21.4242 O   0  0  0  0  0  0
  -22.3533  -14.5534   20.6683 O   0  0  0  0  0  0
  -24.6180  -31.8670   23.2092 C   0  0  0  0  0  0
  -25.9066  -32.4817   23.8392 C   0  0  1  0  0  0
  -27.2278  -27.3997   20.0938 C   0  0  0  0  0  0
  -25.5909  -33.8617   24.2318 N   0  0  0  0  0  0
  -23.4066  -30.4928   21.5507 C   0  0  2  0  0  0
  -24.8509  -28.9597   20.1129 C   0  0  0  0  0  0
  -22.7428  -29.4660   22.4975 C   0  0  0  0  0  0
  -18.0276  -28.1385   22.8489 C   0  0  0  0  0  0
  -24.1490  -36.7312   23.2635 C   0  0  0  0  0  0
  -25.9414  -30.8209   21.3693 C   0  0  0  0  0  0
  -26.0155  -29.4549   20.7119 C   0  0  0  0  0  0
  -27.2057  -28.6843   20.6977 C   0  0  0  0  0  0
  -26.0392  -26.9382   19.4763 C   0  0  0  0  0  0
  -24.8600  -27.7023   19.4912 C   0  0  0  0  0  0
  -23.6159  -29.8308   20.1643 C   0  0  0  0  0  0
  -25.4111  -36.3106   24.0334 C   0  0  1  0  0  0
  -20.5869  -28.3677   23.1302 C   0  0  2  0  0  0
  -20.6772  -26.9411   22.5406 C   0  0  0  0  0  0
  -19.5748  -26.6392   21.5206 C   0  0  0  0  0  0
  -18.1928  -26.7927   22.1625 C   0  0  0  0  0  0
  -19.1525  -28.8845   23.2892 C   0  0  0  0  0  0
  -18.9456  -30.1452   23.8905 C   0  0  0  0  0  0
  -17.6461  -30.6590   24.0567 C   0  0  0  0  0  0
  -25.9041  -34.9473   23.5123 C   0  0  0  0  0  0
  -16.5350  -29.9094   23.6328 C   0  0  0  0  0  0
  -16.7267  -28.6507   23.0348 C   0  0  0  0  0  0
  -26.4474  -31.6601   25.0730 C   0  0  0  0  0  0
  -25.3740  -31.3747   26.1487 C   0  0  0  0  0  0
  -27.0281  -30.3027   24.6132 C   0  0  0  0  0  0
  -27.6067  -32.4306   25.7476 C   0  0  0  0  0  0
  -27.5585  -37.1805   24.8461 C   0  0  0  0  0  0
  -21.4151  -29.3043   22.3710 N   0  0  0  0  0  0
  -26.4292  -37.3796   23.9412 N   0  0  0  0  0  0
  -24.6738  -31.0751   22.1005 N   0  0  0  0  0  0
  -23.4192  -28.8193   23.3014 O   0  0  0  0  0  0
  -28.3824  -26.6252   20.1299 O   0  0  0  0  0  0
  -26.5605  -34.8924   22.4685 O   0  0  0  0  0  0
  -23.5363  -32.1436   23.7468 O   0  0  0  0  0  0
  -28.1544  -20.6465   20.2346 C   0  0  0  0  0  0
  -30.5932  -20.7183   19.4807 C   0  0  0  0  0  0
  -30.6827  -16.6116   21.9799 C   0  0  0  0  0  0
  -29.1750  -16.4896   20.5678 C   0  0  0  0  0  0
  -28.3417  -22.0883   20.7827 C   0  0  0  0  0  0
  -30.6570  -22.1571   20.0690 C   0  0  0  0  0  0
  -29.4513  -19.8134   20.0227 C   0  0  1  0  0  0
  -30.2636  -17.5346   20.8312 C   0  0  0  0  0  0
  -29.4396  -24.3284   20.3669 C   0  0  0  0  0  0
  -28.2346  -25.1998   19.8972 C   0  0  0  0  0  0
  -30.0541  -15.4968   21.2310 N   0  0  0  0  0  0
  -29.3464  -22.8662   20.0026 N   0  3  2  0  0  0
  -29.8344  -18.9335   21.1773 N   0  3  0  0  0  0
  -31.4689  -12.4346   19.1211 H   0  0  0  0  0  0
  -30.3363  -11.3227   19.8345 H   0  0  0  0  0  0
  -29.7413  -11.7785   17.4352 H   0  0  0  0  0  0
  -29.6571  -13.4908   17.7614 H   0  0  0  0  0  0
  -27.8338  -11.3060   18.8246 H   0  0  0  0  0  0
  -27.3670  -12.6269   17.7864 H   0  0  0  0  0  0
  -27.6925  -14.2514   19.5589 H   0  0  0  0  0  0
  -28.6841  -11.9845   21.3533 H   0  0  0  0  0  0
  -28.4569  -13.6320   21.8574 H   0  0  0  0  0  0
  -25.2763   -9.5685   22.4736 H   0  0  0  0  0  0
  -24.0007   -7.4634   22.7465 H   0  0  0  0  0  0
  -21.0830   -8.8766   19.8955 H   0  0  0  0  0  0
  -22.3682  -10.9666   19.6154 H   0  0  0  0  0  0
  -21.2012   -7.6144   23.9715 H   0  0  0  0  0  0
  -21.1475   -6.0517   25.9076 H   0  0  0  0  0  0
  -22.0600   -2.7607   23.2843 H   0  0  0  0  0  0
  -22.4106  -11.9907   22.4818 H   0  0  0  0  0  0
  -21.1111  -13.1264   22.2603 H   0  0  0  0  0  0
  -24.6565  -15.8402   20.4959 H   0  0  0  0  0  0
  -26.2724  -15.6193   20.0545 H   0  0  0  0  0  0
  -26.7137  -32.5508   23.1151 H   0  0  0  0  0  0
  -25.0058  -33.9783   25.0459 H   0  0  0  0  0  0
  -22.6961  -31.3105   21.4135 H   0  0  0  0  0  0
  -23.3755  -35.9638   23.3286 H   0  0  0  0  0  0
  -24.3591  -36.8941   22.2052 H   0  0  0  0  0  0
  -23.7232  -37.6509   23.6658 H   0  0  0  0  0  0
  -26.0637  -31.5871   20.6024 H   0  0  0  0  0  0
  -26.8256  -30.8689   21.9932 H   0  0  0  0  0  0
  -28.1018  -29.0631   21.1695 H   0  0  0  0  0  0
  -25.9894  -25.9843   18.9732 H   0  0  0  0  0  0
  -23.9664  -27.3184   19.0181 H   0  0  0  0  0  0
  -23.7289  -30.6082   19.4075 H   0  0  0  0  0  0
  -22.7378  -29.2556   19.8651 H   0  0  0  0  0  0
  -25.1284  -36.1971   25.0827 H   0  0  0  0  0  0
  -20.9959  -28.3248   24.1423 H   0  0  0  0  0  0
  -20.5679  -26.2286   23.3597 H   0  0  0  0  0  0
  -21.6644  -26.7463   22.1196 H   0  0  0  0  0  0
  -19.6912  -25.6304   21.1234 H   0  0  0  0  0  0
  -19.6679  -27.3204   20.6735 H   0  0  0  0  0  0
  -17.4191  -26.6657   21.4037 H   0  0  0  0  0  0
  -18.0345  -26.0075   22.9030 H   0  0  0  0  0  0
  -19.7935  -30.7262   24.2278 H   0  0  0  0  0  0
  -17.5019  -31.6272   24.5169 H   0  0  0  0  0  0
  -15.5352  -30.3003   23.7647 H   0  0  0  0  0  0
  -15.8664  -28.0835   22.7061 H   0  0  0  0  0  0
  -24.5841  -30.7182   25.7819 H   0  0  0  0  0  0
  -24.9024  -32.2929   26.4997 H   0  0  0  0  0  0
  -25.8071  -30.8836   27.0211 H   0  0  0  0  0  0
  -26.2819  -29.6803   24.1179 H   0  0  0  0  0  0
  -27.4016  -29.7258   25.4602 H   0  0  0  0  0  0
  -27.8679  -30.4315   23.9302 H   0  0  0  0  0  0
  -27.2717  -33.3619   26.2054 H   0  0  0  0  0  0
  -28.3870  -32.6841   25.0288 H   0  0  0  0  0  0
  -28.0734  -31.8423   26.5386 H   0  0  0  0  0  0
  -28.2597  -38.0110   24.7533 H   0  0  0  0  0  0
  -28.1088  -36.2646   24.6251 H   0  0  0  0  0  0
  -27.2312  -37.1421   25.8865 H   0  0  0  0  0  0
  -20.9311  -29.8770   21.6936 H   0  0  0  0  0  0
  -26.0180  -38.2870   24.1424 H   0  0  0  0  0  0
  -27.6642  -20.7366   19.2640 H   0  0  0  0  0  0
  -27.4419  -20.1006   20.8537 H   0  0  0  0  0  0
  -31.5597  -20.2249   19.5921 H   0  0  0  0  0  0
  -30.4538  -20.8162   18.4030 H   0  0  0  0  0  0
  -30.1938  -16.8185   22.9342 H   0  0  0  0  0  0
  -31.7648  -16.5387   22.1069 H   0  0  0  0  0  0
  -28.9968  -16.3174   19.5046 H   0  0  0  0  0  0
  -28.2379  -16.6611   21.1012 H   0  0  0  0  0  0
  -28.6367  -22.0571   21.8328 H   0  0  0  0  0  0
  -27.3756  -22.5920   20.7560 H   0  0  0  0  0  0
  -31.4087  -22.7251   19.5187 H   0  0  0  0  0  0
  -31.0015  -22.1259   21.1040 H   0  0  0  0  0  0
  -29.2084  -19.1107   19.2225 H   0  0  0  0  0  0
  -31.0227  -17.5409   20.0448 H   0  0  0  0  0  0
  -29.5775  -24.4330   21.4435 H   0  0  0  0  0  0
  -30.3354  -24.7450   19.9047 H   0  0  0  0  0  0
  -27.3444  -24.8440   20.4165 H   0  0  0  0  0  0
  -28.0745  -25.0424   18.8296 H   0  0  0  0  0  0
  -29.0629  -22.8461   19.0321 H   0  0  0  0  0  0
  -29.0517  -18.8677   21.8088 H   0  0  0  0  0  0
  -30.5770  -19.3786   21.6935 H   0  0  0  0  0  0
  1 25  1  0  0  0
  1 30  2  0  0  0
  1 81  1  0  0  0
  2  3  1  0  0  0
  2 25  1  0  0  0
  2 84  1  0  0  0
  2 85  1  0  0  0
  3  4  1  0  0  0
  3 86  1  0  0  0
  3 87  1  0  0  0
  4  5  1  0  0  0
  4 88  1  0  0  0
  4 89  1  0  0  0
  5  6  1  0  0  0
  5 26  1  0  0  0
  5 90  1  0  0  0
  6 25  1  0  0  0
  6 91  1  0  0  0
  6 92  1  0  0  0
  7  8  2  0  0  0
  7 26  1  0  0  0
  7 29  1  0  0  0
  8  9  1  0  0  0
  8 22  1  0  0  0
  9 10  1  0  0  0
  9 27  2  0  0  0
 10 11  2  0  0  0
 10 15  1  0  0  0
 11 12  1  0  0  0
 11 93  1  0  0  0
 12 13  2  0  0  0
 12 94  1  0  0  0
 13 14  1  0  0  0
 13 31  1  0  0  0
 14 15  2  0  0  0
 14 95  1  0  0  0
 15 96  1  0  0  0
 16 17  2  0  0  0
 16 21  1  0  0  0
 16 31  1  0  0  0
 17 18  1  0  0  0
 17 97  1  0  0  0
 18 19  2  0  0  0
 18 98  1  0  0  0
 19 20  1  0  0  0
 19 24  1  0  0  0
 20 21  2  0  0  0
 20 99  1  0  0  0
 21 23  1  0  0  0
 22 28  1  0  0  0
 22 32  2  0  0  0
 26 27  1  0  0  0
 28100  1  0  0  0
 28101  1  0  0  0
 29102  1  0  0  0
 29103  1  0  0  0
 33 34  1  0  0  0
 33 66  1  0  0  0
 33 70  2  0  0  0
 34 36  1  0  0  0
 34 59  1  0  0  0
 34104  1  0  0  0
 35 44  2  0  0  0
 35 45  1  0  0  0
 35 68  1  0  0  0
 36 56  1  0  0  0
 36105  1  0  0  0
 37 39  1  0  0  0
 37 47  1  0  0  0
 37 66  1  0  0  0
 37106  1  0  0  0
 38 43  2  0  0  0
 38 46  1  0  0  0
 38 47  1  0  0  0
 39 64  1  0  0  0
 39 67  2  0  0  0
 40 52  1  0  0  0
 40 53  2  0  0  0
 40 58  1  0  0  0
 41107  1  0  0  0
 41108  1  0  0  0
 41109  1  0  0  0
 41 48  1  0  0  0
 42 43  1  0  0  0
 42 66  1  0  0  0
 42110  1  0  0  0
 42111  1  0  0  0
 43 44  1  0  0  0
 44112  1  0  0  0
 45 46  2  0  0  0
 45113  1  0  0  0
 46114  1  0  0  0
 47115  1  0  0  0
 47116  1  0  0  0
 48 56  1  0  0  0
 48 65  1  0  0  0
 48117  1  0  0  0
 49 50  1  0  0  0
 49 53  1  0  0  0
 49 64  1  0  0  0
 49118  1  0  0  0
 50 51  1  0  0  0
 50119  1  0  0  0
 50120  1  0  0  0
 51 52  1  0  0  0
 51121  1  0  0  0
 51122  1  0  0  0
 52123  1  0  0  0
 52124  1  0  0  0
 53 54  1  0  0  0
 54 55  2  0  0  0
 54125  1  0  0  0
 55 57  1  0  0  0
 55126  1  0  0  0
 56 69  2  0  0  0
 57 58  2  0  0  0
 57127  1  0  0  0
 58128  1  0  0  0
 59 60  1  0  0  0
 59 61  1  0  0  0
 59 62  1  0  0  0
 60129  1  0  0  0
 60130  1  0  0  0
 60131  1  0  0  0
 61132  1  0  0  0
 61133  1  0  0  0
 61134  1  0  0  0
 62135  1  0  0  0
 62136  1  0  0  0
 62137  1  0  0  0
 63 65  1  0  0  0
 63138  1  0  0  0
 63139  1  0  0  0
 63140  1  0  0  0
 64141  1  0  0  0
 65142  1  0  0  0
 68 80  1  0  0  0
 71 75  1  0  0  0
 71 77  1  0  0  0
 71143  1  0  0  0
 71144  1  0  0  0
 72 76  1  0  0  0
 72 77  1  0  0  0
 72145  1  0  0  0
 72146  1  0  0  0
 73 78  1  0  0  0
 73 81  1  0  0  0
 73147  1  0  0  0
 73148  1  0  0  0
 74 78  1  0  0  0
 74 81  1  0  0  0
 74149  1  0  0  0
 74150  1  0  0  0
 75 82  1  0  0  0
 75151  1  0  0  0
 75152  1  0  0  0
 76 82  1  0  0  0
 76153  1  0  0  0
 76154  1  0  0  0
 77 83  1  0  0  0
 77155  1  0  0  0
 78 83  1  0  0  0
 78156  1  0  0  0
 79 80  1  0  0  0
 79157  1  0  0  0
 79158  1  0  0  0
 79 82  1  0  0  0
 80159  1  0  0  0
 80160  1  0  0  0
 82161  1  0  0  0
 83162  1  0  0  0
 83163  1  0  0  0
M  CHG  2  82   1  83   1
M  ISO  4   1 100  68 101  80 101  81 100
M  END
> <chiral flag>
0

> <version>
0

> <s_m_source_file>
/data/baiqing/PycharmProjects/Reinvent-master-3.2/result/LINK_invent/BTK/process_docking_weight1_custom_sum_contain_oxygen_bond_distance_aromatic_linkinvent_7_9_3/rearranged_h_0188.sdf

> <i_m_source_file_index>
35

> <r_mmod_Potential_Energy-OPLS-2005>
-166.556976318359

> <r_mmod_Stretch_Energy-OPLS-2005>
49.2588768005371

> <r_mmod_Bend_Energy-OPLS-2005>
124.375373840332

> <r_mmod_Torsional_Energy-OPLS-2005>
343.813293457031

> <r_mmod_Improper_Torsional_Energy-OPLS-2005>
8.6744909286499

> <r_mmod_Van_der_Waal_Energy-OPLS-2005>
136.613754272461

> <r_mmod_Electrostatic_Energy-OPLS-2005>
166.423645019531

> <r_mmod_Solvation_Energy-OPLS-2005>
-1013.73901367188

> <b_mmod_Minimization_Converged-OPLS-2005>
0

> <r_mmod_RMS_Derivative-OPLS-2005>
0.837984979152679

$$$$
35
                    3D
 Structure written by MMmdl.
159168  0  0  1  0            999 V2000
  -30.6132  -14.8110   20.4377 C   0  0  0  0  0  0
  -30.4244  -12.4994   19.4514 C   0  0  0  0  0  0
  -29.4988  -12.5193   18.2168 C   0  0  0  0  0  0
  -28.0265  -12.3086   18.6272 C   0  0  0  0  0  0
  -27.6249  -13.1885   19.8336 C   0  0  2  0  0  0
  -28.6876  -13.1708   20.9620 C   0  0  0  0  0  0
  -25.2436  -13.8019   20.5611 C   0  0  0  0  0  0
  -24.1767  -13.0332   20.9210 C   0  0  0  0  0  0
  -24.6352  -11.6802   20.8785 C   0  0  0  0  0  0
  -23.9045  -10.4208   21.0455 C   0  0  0  0  0  0
  -24.3586   -9.4148   21.9231 C   0  0  0  0  0  0
  -23.6263   -8.2187   22.0784 C   0  0  0  0  0  0
  -22.4252   -8.0250   21.3550 C   0  0  0  0  0  0
  -21.9890   -9.0244   20.4645 C   0  0  0  0  0  0
  -22.7236  -10.2113   20.3092 C   0  0  0  0  0  0
  -21.6838   -6.0708   22.5286 C   0  0  0  0  0  0
  -21.4009   -6.5637   23.8214 C   0  0  0  0  0  0
  -21.3641   -5.6804   24.9168 C   0  0  0  0  0  0
  -21.6061   -4.3067   24.7240 C   0  0  0  0  0  0
  -21.8805   -3.8135   23.4366 C   0  0  0  0  0  0
  -21.9188   -4.6940   22.3412 C   0  0  0  0  0  0
  -22.7804  -13.5145   21.1891 C   0  0  0  0  0  0
  -22.1666   -4.2133   21.0980 F   0  0  0  0  0  0
  -21.5626   -3.4552   25.7745 F   0  0  0  0  0  0
  -29.9616  -13.5845   20.3568 N   0  0  0  0  0  0
  -26.2841  -12.9159   20.3200 N   0  0  0  0  0  0
  -25.9252  -11.6371   20.5765 N   0  0  0  0  0  0
  -22.0486  -12.8122   22.0450 N   0  0  0  0  0  0
  -25.3946  -15.1763   20.3926 N   0  0  0  0  0  0
  -31.8253  -14.8347   20.1988 O   0  0  0  0  0  0
  -21.6614   -6.8872   21.4252 O   0  0  0  0  0  0
  -22.3496  -14.5494   20.6812 O   0  0  0  0  0  0
  -24.6322  -31.8551   23.1972 C   0  0  0  0  0  0
  -25.9147  -32.4746   23.8320 C   0  0  1  0  0  0
  -27.2217  -27.2396   20.1332 C   0  0  0  0  0  0
  -25.5955  -33.8563   24.2231 N   0  0  0  0  0  0
  -23.4283  -30.4784   21.5457 C   0  0  2  0  0  0
  -24.8775  -28.9239   20.1101 C   0  0  0  0  0  0
  -22.7505  -29.4598   22.4933 C   0  0  0  0  0  0
  -18.0289  -28.1369   22.8479 C   0  0  0  0  0  0
  -24.1495  -36.7255   23.2636 C   0  0  0  0  0  0
  -25.9786  -30.7594   21.3841 C   0  0  0  0  0  0
  -26.0525  -29.3827   20.7184 C   0  0  0  0  0  0
  -27.2276  -28.5584   20.7099 C   0  0  0  0  0  0
  -26.0238  -26.8584   19.4831 C   0  0  0  0  0  0
  -24.8710  -27.6726   19.4770 C   0  0  0  0  0  0
  -23.6450  -29.8131   20.1614 C   0  0  0  0  0  0
  -25.4134  -36.3073   24.0321 C   0  0  1  0  0  0
  -20.5890  -28.3674   23.1256 C   0  0  2  0  0  0
  -20.6769  -26.9384   22.5416 C   0  0  0  0  0  0
  -19.5750  -26.6349   21.5212 C   0  0  0  0  0  0
  -18.1931  -26.7911   22.1623 C   0  0  0  0  0  0
  -19.1544  -28.8850   23.2853 C   0  0  0  0  0  0
  -18.9475  -30.1457   23.8832 C   0  0  0  0  0  0
  -17.6473  -30.6570   24.0557 C   0  0  0  0  0  0
  -25.9082  -34.9441   23.5078 C   0  0  0  0  0  0
  -16.5358  -29.9060   23.6347 C   0  0  0  0  0  0
  -16.7277  -28.6491   23.0341 C   0  0  0  0  0  0
  -26.4504  -31.6583   25.0717 C   0  0  0  0  0  0
  -25.3694  -31.3755   26.1407 C   0  0  0  0  0  0
  -27.0354  -30.2989   24.6217 C   0  0  0  0  0  0
  -27.6030  -32.4347   25.7496 C   0  0  0  0  0  0
  -27.5591  -37.1794   24.8467 C   0  0  0  0  0  0
  -21.4209  -29.3016   22.3652 N   0  0  0  0  0  0
  -26.4303  -37.3775   23.9406 N   0  0  0  0  0  0
  -24.6991  -31.0485   22.0967 N   0  0  0  0  0  0
  -23.4212  -28.8137   23.3014 O   0  0  0  0  0  0
  -28.3100  -26.3233   20.1586 O   0  0  0  0  0  0
  -26.5658  -34.8916   22.4646 O   0  0  0  0  0  0
  -23.5466  -32.1403   23.7239 O   0  0  0  0  0  0
  -30.5629  -21.5945   19.3764 C   0  0  0  0  0  0
  -29.5335  -21.2814   20.3029 C   0  0  0  0  0  0
  -28.9846  -23.6339   20.2180 C   0  0  0  0  0  0
  -28.1695  -17.7670   20.6542 C   0  0  0  0  0  0
  -28.5013  -16.2945   20.3523 C   0  0  0  0  0  0
  -30.4973  -17.4560   20.6761 C   0  0  0  0  0  0
  -29.4036  -18.5718   20.2791 C   0  0  2  0  0  0
  -32.7585  -20.3804   19.8205 C   0  0  0  0  0  0
  -31.5805  -20.5853   18.8579 C   0  0  0  0  0  0
  -28.0403  -24.8875   20.5923 C   0  0  0  0  0  0
  -30.7720  -22.8721   18.9533 N   0  0  0  0  0  0
  -28.7448  -22.3585   20.7132 N   0  0  0  0  0  0
  -29.9884  -23.8844   19.3610 N   0  0  0  0  0  0
  -29.9249  -16.0401   20.5885 N   0  0  0  0  0  0
  -29.3739  -19.9645   20.9103 N   0  0  0  0  0  0
  -31.4650  -12.6246   19.1453 H   0  0  0  0  0  0
  -30.3728  -11.5295   19.9486 H   0  0  0  0  0  0
  -29.7971  -11.7536   17.5012 H   0  0  0  0  0  0
  -29.6025  -13.4745   17.7007 H   0  0  0  0  0  0
  -27.8762  -11.2538   18.8598 H   0  0  0  0  0  0
  -27.3740  -12.5326   17.7805 H   0  0  0  0  0  0
  -27.5679  -14.1673   19.3893 H   0  0  0  0  0  0
  -28.7693  -12.1690   21.3857 H   0  0  0  0  0  0
  -28.4187  -13.8122   21.7994 H   0  0  0  0  0  0
  -25.2767   -9.5596   22.4761 H   0  0  0  0  0  0
  -23.9982   -7.4560   22.7480 H   0  0  0  0  0  0
  -21.0835   -8.8785   19.8935 H   0  0  0  0  0  0
  -22.3761  -10.9654   19.6173 H   0  0  0  0  0  0
  -21.2013   -7.6151   23.9712 H   0  0  0  0  0  0
  -21.1485   -6.0531   25.9077 H   0  0  0  0  0  0
  -22.0605   -2.7602   23.2861 H   0  0  0  0  0  0
  -22.4153  -11.9766   22.4739 H   0  0  0  0  0  0
  -21.1117  -13.1113   22.2731 H   0  0  0  0  0  0
  -24.6203  -15.8160   20.5270 H   0  0  0  0  0  0
  -26.2389  -15.6356   20.0767 H   0  0  0  0  0  0
  -26.7194  -32.5378   23.1040 H   0  0  0  0  0  0
  -25.0141  -33.9716   25.0403 H   0  0  0  0  0  0
  -22.7227  -31.3025   21.4060 H   0  0  0  0  0  0
  -23.3796  -35.9550   23.3306 H   0  0  0  0  0  0
  -24.3565  -36.8880   22.2048 H   0  0  0  0  0  0
  -23.7211  -37.6433   23.6664 H   0  0  0  0  0  0
  -26.1283  -31.5262   20.6248 H   0  0  0  0  0  0
  -26.8486  -30.7957   22.0262 H   0  0  0  0  0  0
  -28.1293  -28.9160   21.1863 H   0  0  0  0  0  0
  -25.9555  -25.9107   18.9698 H   0  0  0  0  0  0
  -23.9752  -27.3219   18.9804 H   0  0  0  0  0  0
  -23.7600  -30.5955   19.4113 H   0  0  0  0  0  0
  -22.7579  -29.2541   19.8563 H   0  0  0  0  0  0
  -25.1319  -36.1928   25.0818 H   0  0  0  0  0  0
  -20.9965  -28.3259   24.1379 H   0  0  0  0  0  0
  -20.5635  -26.2292   23.3628 H   0  0  0  0  0  0
  -21.6642  -26.7383   22.1228 H   0  0  0  0  0  0
  -19.6908  -25.6252   21.1254 H   0  0  0  0  0  0
  -19.6684  -27.3148   20.6731 H   0  0  0  0  0  0
  -17.4197  -26.6641   21.4029 H   0  0  0  0  0  0
  -18.0329  -26.0049   22.9011 H   0  0  0  0  0  0
  -19.7951  -30.7308   24.2133 H   0  0  0  0  0  0
  -17.5022  -31.6233   24.5185 H   0  0  0  0  0  0
  -15.5350  -30.2942   23.7694 H   0  0  0  0  0  0
  -15.8677  -28.0801   22.7042 H   0  0  0  0  0  0
  -24.5864  -30.7117   25.7729 H   0  0  0  0  0  0
  -24.8880  -32.2932   26.4780 H   0  0  0  0  0  0
  -25.7968  -30.8953   27.0213 H   0  0  0  0  0  0
  -26.2948  -29.6738   24.1198 H   0  0  0  0  0  0
  -27.3994  -29.7244   25.4749 H   0  0  0  0  0  0
  -27.8852  -30.4265   23.9503 H   0  0  0  0  0  0
  -27.2614  -33.3668   26.2005 H   0  0  0  0  0  0
  -28.3860  -32.6881   25.0340 H   0  0  0  0  0  0
  -28.0659  -31.8517   26.5460 H   0  0  0  0  0  0
  -28.2605  -38.0099   24.7550 H   0  0  0  0  0  0
  -28.1104  -36.2636   24.6282 H   0  0  0  0  0  0
  -27.2297  -37.1412   25.8864 H   0  0  0  0  0  0
  -20.9391  -29.8774   21.6883 H   0  0  0  0  0  0
  -26.0194  -38.2849   24.1422 H   0  0  0  0  0  0
  -27.9869  -17.8565   21.7264 H   0  0  0  0  0  0
  -27.2636  -18.0913   20.1370 H   0  0  0  0  0  0
  -27.8712  -15.6769   20.9796 H   0  0  0  0  0  0
  -28.2926  -16.1076   19.2959 H   0  0  0  0  0  0
  -30.8317  -17.6172   21.7013 H   0  0  0  0  0  0
  -31.3816  -17.5488   20.0422 H   0  0  0  0  0  0
  -29.3717  -18.6651   19.1941 H   0  0  0  0  0  0
  -33.4573  -19.6524   19.4082 H   0  0  0  0  0  0
  -32.4278  -20.0106   20.7930 H   0  0  0  0  0  0
  -33.3013  -21.3117   19.9821 H   0  0  0  0  0  0
  -31.9567  -20.9380   17.8984 H   0  0  0  0  0  0
  -31.1082  -19.6388   18.6231 H   0  0  0  0  0  0
  -28.0208  -24.9250   21.6814 H   0  0  0  0  0  0
  -27.0363  -24.5856   20.3057 H   0  0  0  0  0  0
  -28.8220  -19.9941   21.7596 H   0  0  0  0  0  0
  1 25  1  0  0  0
  1 30  2  0  0  0
  1 84  1  0  0  0
  2  3  1  0  0  0
  2 25  1  0  0  0
  2 86  1  0  0  0
  2 87  1  0  0  0
  3  4  1  0  0  0
  3 88  1  0  0  0
  3 89  1  0  0  0
  4  5  1  0  0  0
  4 90  1  0  0  0
  4 91  1  0  0  0
  5  6  1  0  0  0
  5 26  1  0  0  0
  5 92  1  0  0  0
  6 25  1  0  0  0
  6 93  1  0  0  0
  6 94  1  0  0  0
  7  8  2  0  0  0
  7 26  1  0  0  0
  7 29  1  0  0  0
  8  9  1  0  0  0
  8 22  1  0  0  0
  9 10  1  0  0  0
  9 27  2  0  0  0
 10 11  2  0  0  0
 10 15  1  0  0  0
 11 12  1  0  0  0
 11 95  1  0  0  0
 12 13  2  0  0  0
 12 96  1  0  0  0
 13 14  1  0  0  0
 13 31  1  0  0  0
 14 15  2  0  0  0
 14 97  1  0  0  0
 15 98  1  0  0  0
 16 17  2  0  0  0
 16 21  1  0  0  0
 16 31  1  0  0  0
 17 18  1  0  0  0
 17 99  1  0  0  0
 18 19  2  0  0  0
 18100  1  0  0  0
 19 20  1  0  0  0
 19 24  1  0  0  0
 20 21  2  0  0  0
 20101  1  0  0  0
 21 23  1  0  0  0
 22 28  1  0  0  0
 22 32  2  0  0  0
 26 27  1  0  0  0
 28102  1  0  0  0
 28103  1  0  0  0
 29104  1  0  0  0
 29105  1  0  0  0
 33 34  1  0  0  0
 33 66  1  0  0  0
 33 70  2  0  0  0
 34 36  1  0  0  0
 34 59  1  0  0  0
 34106  1  0  0  0
 35 44  2  0  0  0
 35 45  1  0  0  0
 35 68  1  0  0  0
 36 56  1  0  0  0
 36107  1  0  0  0
 37 39  1  0  0  0
 37 47  1  0  0  0
 37 66  1  0  0  0
 37108  1  0  0  0
 38 43  2  0  0  0
 38 46  1  0  0  0
 38 47  1  0  0  0
 39 64  1  0  0  0
 39 67  2  0  0  0
 40 52  1  0  0  0
 40 53  2  0  0  0
 40 58  1  0  0  0
 41109  1  0  0  0
 41110  1  0  0  0
 41111  1  0  0  0
 41 48  1  0  0  0
 42 43  1  0  0  0
 42 66  1  0  0  0
 42112  1  0  0  0
 42113  1  0  0  0
 43 44  1  0  0  0
 44114  1  0  0  0
 45 46  2  0  0  0
 45115  1  0  0  0
 46116  1  0  0  0
 47117  1  0  0  0
 47118  1  0  0  0
 48 56  1  0  0  0
 48 65  1  0  0  0
 48119  1  0  0  0
 49 50  1  0  0  0
 49 53  1  0  0  0
 49 64  1  0  0  0
 49120  1  0  0  0
 50 51  1  0  0  0
 50121  1  0  0  0
 50122  1  0  0  0
 51 52  1  0  0  0
 51123  1  0  0  0
 51124  1  0  0  0
 52125  1  0  0  0
 52126  1  0  0  0
 53 54  1  0  0  0
 54 55  2  0  0  0
 54127  1  0  0  0
 55 57  1  0  0  0
 55128  1  0  0  0
 56 69  2  0  0  0
 57 58  2  0  0  0
 57129  1  0  0  0
 58130  1  0  0  0
 59 60  1  0  0  0
 59 61  1  0  0  0
 59 62  1  0  0  0
 60131  1  0  0  0
 60132  1  0  0  0
 60133  1  0  0  0
 61134  1  0  0  0
 61135  1  0  0  0
 61136  1  0  0  0
 62137  1  0  0  0
 62138  1  0  0  0
 62139  1  0  0  0
 63 65  1  0  0  0
 63140  1  0  0  0
 63141  1  0  0  0
 63142  1  0  0  0
 64143  1  0  0  0
 65144  1  0  0  0
 68 80  1  0  0  0
 71 72  2  0  0  0
 71 79  1  0  0  0
 71 81  1  0  0  0
 72 82  1  0  0  0
 72 85  1  0  0  0
 73 80  1  0  0  0
 73 82  2  0  0  0
 73 83  1  0  0  0
 74 75  1  0  0  0
 74 77  1  0  0  0
 74145  1  0  0  0
 74146  1  0  0  0
 75 84  1  0  0  0
 75147  1  0  0  0
 75148  1  0  0  0
 76 77  1  0  0  0
 76 84  1  0  0  0
 76149  1  0  0  0
 76150  1  0  0  0
 77 85  1  0  0  0
 77151  1  0  0  0
 78 79  1  0  0  0
 78152  1  0  0  0
 78153  1  0  0  0
 78154  1  0  0  0
 79155  1  0  0  0
 79156  1  0  0  0
 80157  1  0  0  0
 80158  1  0  0  0
 81 83  2  0  0  0
 85159  1  0  0  0
M  ISO  4   1 100  68 101  80 101  84 100
M  END
> <chiral flag>
0

> <version>
0

> <s_m_source_file>
/data/baiqing/PycharmProjects/Reinvent-master-3.2/result/LINK_invent/BTK/process_docking_weight1_custom_sum_contain_oxygen_bond_distance_aromatic_linkinvent_7_9_3/rearranged_h_0188.sdf

> <i_m_source_file_index>
36

> <r_mmod_Potential_Energy-OPLS-2005>
409.478729248047

> <r_mmod_Stretch_Energy-OPLS-2005>
150.838897705078

> <r_mmod_Bend_Energy-OPLS-2005>
241.906433105469

> <r_mmod_Torsional_Energy-OPLS-2005>
317.512145996094

> <r_mmod_Improper_Torsional_Energy-OPLS-2005>
6.81496238708496

> <r_mmod_Van_der_Waal_Energy-OPLS-2005>
149.337631225586

> <r_mmod_Electrostatic_Energy-OPLS-2005>
-325.384674072266

> <r_mmod_Solvation_Energy-OPLS-2005>
-238.351684570312

> <b_mmod_Minimization_Converged-OPLS-2005>
0

> <r_mmod_RMS_Derivative-OPLS-2005>
5.28269147872925

$$$$
37
                    3D
 Structure written by MMmdl.
153162  0  0  1  0            999 V2000
  -30.5567  -14.9210   20.4177 C   0  0  0  0  0  0
  -30.4428  -12.5653   19.4932 C   0  0  0  0  0  0
  -29.5293  -12.5390   18.2461 C   0  0  0  0  0  0
  -28.0580  -12.3285   18.6584 C   0  0  0  0  0  0
  -27.6332  -13.2496   19.8327 C   0  0  2  0  0  0
  -28.6754  -13.2666   20.9698 C   0  0  0  0  0  0
  -25.2478  -13.8208   20.5700 C   0  0  0  0  0  0
  -24.1794  -13.0454   20.9253 C   0  0  0  0  0  0
  -24.6381  -11.6935   20.8725 C   0  0  0  0  0  0
  -23.9055  -10.4310   21.0399 C   0  0  0  0  0  0
  -24.3604   -9.4220   21.9188 C   0  0  0  0  0  0
  -23.6287   -8.2250   22.0746 C   0  0  0  0  0  0
  -22.4260   -8.0279   21.3547 C   0  0  0  0  0  0
  -21.9894   -9.0273   20.4669 C   0  0  0  0  0  0
  -22.7222  -10.2156   20.3078 C   0  0  0  0  0  0
  -21.6856   -6.0721   22.5283 C   0  0  0  0  0  0
  -21.4023   -6.5619   23.8212 C   0  0  0  0  0  0
  -21.3674   -5.6772   24.9186 C   0  0  0  0  0  0
  -21.6024   -4.3046   24.7234 C   0  0  0  0  0  0
  -21.8813   -3.8139   23.4351 C   0  0  0  0  0  0
  -21.9198   -4.6943   22.3403 C   0  0  0  0  0  0
  -22.7806  -13.5256   21.1888 C   0  0  0  0  0  0
  -22.1665   -4.2134   21.0976 F   0  0  0  0  0  0
  -21.5635   -3.4501   25.7738 F   0  0  0  0  0  0
  -29.9554  -13.6660   20.3689 N   0  0  0  0  0  0
  -26.2896  -12.9453   20.3186 N   0  0  0  0  0  0
  -25.9293  -11.6569   20.5639 N   0  0  0  0  0  0
  -22.0434  -12.8294   22.0456 N   0  0  0  0  0  0
  -25.4117  -15.1926   20.4118 N   0  0  0  0  0  0
  -31.7662  -14.9845   20.1833 O   0  0  0  0  0  0
  -21.6634   -6.8866   21.4244 O   0  0  0  0  0  0
  -22.3497  -14.5546   20.6696 O   0  0  0  0  0  0
  -24.6390  -31.8468   23.1905 C   0  0  0  0  0  0
  -25.9183  -32.4701   23.8282 C   0  0  1  0  0  0
  -27.2301  -27.1707   20.1468 C   0  0  0  0  0  0
  -25.5932  -33.8504   24.2182 N   0  0  0  0  0  0
  -23.4430  -30.4662   21.5338 C   0  0  2  0  0  0
  -24.8951  -28.8917   20.1171 C   0  0  0  0  0  0
  -22.7554  -29.4572   22.4864 C   0  0  0  0  0  0
  -18.0303  -28.1393   22.8462 C   0  0  0  0  0  0
  -24.1516  -36.7293   23.2651 C   0  0  0  0  0  0
  -25.9977  -30.7305   21.3863 C   0  0  0  0  0  0
  -26.0704  -29.3428   20.7314 C   0  0  0  0  0  0
  -27.2415  -28.4994   20.7261 C   0  0  0  0  0  0
  -26.0290  -26.8125   19.5005 C   0  0  0  0  0  0
  -24.8832  -27.6370   19.4885 C   0  0  0  0  0  0
  -23.6693  -29.7903   20.1552 C   0  0  0  0  0  0
  -25.4147  -36.3050   24.0309 C   0  0  1  0  0  0
  -20.5915  -28.3728   23.1237 C   0  0  2  0  0  0
  -20.6790  -26.9433   22.5420 C   0  0  0  0  0  0
  -19.5776  -26.6372   21.5211 C   0  0  0  0  0  0
  -18.1951  -26.7922   22.1620 C   0  0  0  0  0  0
  -19.1560  -28.8883   23.2837 C   0  0  0  0  0  0
  -18.9469  -30.1465   23.8876 C   0  0  0  0  0  0
  -17.6467  -30.6585   24.0556 C   0  0  0  0  0  0
  -25.9065  -34.9411   23.5053 C   0  0  0  0  0  0
  -16.5356  -29.9087   23.6321 C   0  0  0  0  0  0
  -16.7292  -28.6493   23.0342 C   0  0  0  0  0  0
  -26.4486  -31.6563   25.0729 C   0  0  0  0  0  0
  -25.3668  -31.3855   26.1448 C   0  0  0  0  0  0
  -27.0256  -30.2907   24.6359 C   0  0  0  0  0  0
  -27.6062  -32.4296   25.7462 C   0  0  0  0  0  0
  -27.5563  -37.1853   24.8477 C   0  0  0  0  0  0
  -21.4253  -29.3040   22.3604 N   0  0  0  0  0  0
  -26.4352  -37.3715   23.9311 N   0  0  0  0  0  0
  -24.7125  -31.0361   22.0908 N   0  0  0  0  0  0
  -23.4203  -28.8124   23.3022 O   0  0  0  0  0  0
  -28.3093  -26.2253   20.1355 O   0  0  0  0  0  0
  -26.5648  -34.8901   22.4632 O   0  0  0  0  0  0
  -23.5519  -32.1309   23.7143 O   0  0  0  0  0  0
  -29.9908  -22.6438   18.1367 C   0  0  0  0  0  0
  -28.8612  -23.4535   19.8855 C   0  0  0  0  0  0
  -29.5068  -21.1436   19.7836 C   0  0  0  0  0  0
  -28.9904  -18.7294   20.9796 C   0  0  0  0  0  0
  -30.3216  -18.6134   19.4542 C   0  0  0  0  0  0
  -30.1251  -17.6335   20.6807 C   0  0  0  0  0  0
  -30.6686  -22.9104   16.8009 C   0  0  0  0  0  0
  -28.0852  -24.7439   20.5322 C   0  0  0  0  0  0
  -29.4297  -23.7000   18.7132 N   0  0  0  0  0  0
  -30.0567  -21.3954   18.5988 N   0  0  0  0  0  0
  -28.8822  -22.1779   20.4610 N   0  0  0  0  0  0
  -29.8431  -19.7499   20.3079 N   0  0  0  0  0  0
  -29.7761  -16.1010   20.5206 N   0  0  0  0  0  0
  -31.4833  -12.7143   19.1978 H   0  0  0  0  0  0
  -30.4112  -11.6073   20.0167 H   0  0  0  0  0  0
  -29.8474  -11.7526   17.5600 H   0  0  0  0  0  0
  -29.6288  -13.4801   17.7013 H   0  0  0  0  0  0
  -27.9432  -11.2855   18.9543 H   0  0  0  0  0  0
  -27.4022  -12.4822   17.8017 H   0  0  0  0  0  0
  -27.6013  -14.2550   19.4103 H   0  0  0  0  0  0
  -28.7506  -12.2911   21.4548 H   0  0  0  0  0  0
  -28.3793  -13.9740   21.7481 H   0  0  0  0  0  0
  -25.2761   -9.5686   22.4735 H   0  0  0  0  0  0
  -24.0014   -7.4629   22.7432 H   0  0  0  0  0  0
  -21.0821   -8.8801   19.8984 H   0  0  0  0  0  0
  -22.3690  -10.9683   19.6168 H   0  0  0  0  0  0
  -21.2024   -7.6126   23.9723 H   0  0  0  0  0  0
  -21.1491   -6.0502   25.9091 H   0  0  0  0  0  0
  -22.0580   -2.7603   23.2845 H   0  0  0  0  0  0
  -22.4062  -12.0034   22.4966 H   0  0  0  0  0  0
  -21.1054  -13.1368   22.2610 H   0  0  0  0  0  0
  -24.6346  -15.8364   20.5179 H   0  0  0  0  0  0
  -26.2381  -15.6338   20.0290 H   0  0  0  0  0  0
  -26.7263  -32.5317   23.1020 H   0  0  0  0  0  0
  -25.0057  -33.9605   25.0320 H   0  0  0  0  0  0
  -22.7422  -31.2908   21.3779 H   0  0  0  0  0  0
  -23.3676  -35.9754   23.3521 H   0  0  0  0  0  0
  -24.3544  -36.8695   22.2021 H   0  0  0  0  0  0
  -23.7452  -37.6638   23.6535 H   0  0  0  0  0  0
  -26.1584  -31.4882   20.6170 H   0  0  0  0  0  0
  -26.8627  -30.7732   22.0369 H   0  0  0  0  0  0
  -28.1409  -28.8460   21.2131 H   0  0  0  0  0  0
  -25.9611  -25.8589   18.9988 H   0  0  0  0  0  0
  -23.9882  -27.2895   18.9901 H   0  0  0  0  0  0
  -23.8048  -30.5573   19.3916 H   0  0  0  0  0  0
  -22.7845  -29.2275   19.8502 H   0  0  0  0  0  0
  -25.1377  -36.1913   25.0818 H   0  0  0  0  0  0
  -21.0005  -28.3349   24.1364 H   0  0  0  0  0  0
  -20.5674  -26.2367   23.3653 H   0  0  0  0  0  0
  -21.6669  -26.7445   22.1254 H   0  0  0  0  0  0
  -19.6955  -25.6264   21.1294 H   0  0  0  0  0  0
  -19.6727  -27.3142   20.6704 H   0  0  0  0  0  0
  -17.4237  -26.6662   21.4000 H   0  0  0  0  0  0
  -18.0348  -26.0070   22.9029 H   0  0  0  0  0  0
  -19.7948  -30.7271   24.2262 H   0  0  0  0  0  0
  -17.5024  -31.6265   24.5162 H   0  0  0  0  0  0
  -15.5347  -30.2975   23.7653 H   0  0  0  0  0  0
  -15.8698  -28.0806   22.7067 H   0  0  0  0  0  0
  -24.5777  -30.7264   25.7794 H   0  0  0  0  0  0
  -24.8924  -32.3092   26.4779 H   0  0  0  0  0  0
  -25.7916  -30.9073   27.0286 H   0  0  0  0  0  0
  -26.2830  -29.6679   24.1360 H   0  0  0  0  0  0
  -27.3740  -29.7191   25.4967 H   0  0  0  0  0  0
  -27.8824  -30.4000   23.9717 H   0  0  0  0  0  0
  -27.2674  -33.3570   26.2081 H   0  0  0  0  0  0
  -28.3817  -32.6908   25.0253 H   0  0  0  0  0  0
  -28.0806  -31.8416   26.5324 H   0  0  0  0  0  0
  -28.2798  -37.9918   24.7190 H   0  0  0  0  0  0
  -28.0838  -36.2453   24.6748 H   0  0  0  0  0  0
  -27.2249  -37.2060   25.8879 H   0  0  0  0  0  0
  -20.9476  -29.8729   21.6760 H   0  0  0  0  0  0
  -26.0246  -38.2857   24.1061 H   0  0  0  0  0  0
  -28.8222  -18.9356   22.0371 H   0  0  0  0  0  0
  -28.0522  -18.5698   20.4436 H   0  0  0  0  0  0
  -29.6500  -18.4201   18.6126 H   0  0  0  0  0  0
  -31.3564  -18.7202   19.1284 H   0  0  0  0  0  0
  -30.9534  -17.7620   21.3838 H   0  0  0  0  0  0
  -30.1677  -23.7071   16.2495 H   0  0  0  0  0  0
  -30.6605  -22.0238   16.1649 H   0  0  0  0  0  0
  -31.7063  -23.2129   16.9515 H   0  0  0  0  0  0
  -28.3078  -24.7046   21.5984 H   0  0  0  0  0  0
  -27.0219  -24.5132   20.4790 H   0  0  0  0  0  0
  -28.7899  -15.9083   20.6192 H   0  0  0  0  0  0
  1 25  1  0  0  0
  1 30  2  0  0  0
  1 83  1  0  0  0
  2  3  1  0  0  0
  2 25  1  0  0  0
  2 84  1  0  0  0
  2 85  1  0  0  0
  3  4  1  0  0  0
  3 86  1  0  0  0
  3 87  1  0  0  0
  4  5  1  0  0  0
  4 88  1  0  0  0
  4 89  1  0  0  0
  5  6  1  0  0  0
  5 26  1  0  0  0
  5 90  1  0  0  0
  6 25  1  0  0  0
  6 91  1  0  0  0
  6 92  1  0  0  0
  7  8  2  0  0  0
  7 26  1  0  0  0
  7 29  1  0  0  0
  8  9  1  0  0  0
  8 22  1  0  0  0
  9 10  1  0  0  0
  9 27  2  0  0  0
 10 11  2  0  0  0
 10 15  1  0  0  0
 11 12  1  0  0  0
 11 93  1  0  0  0
 12 13  2  0  0  0
 12 94  1  0  0  0
 13 14  1  0  0  0
 13 31  1  0  0  0
 14 15  2  0  0  0
 14 95  1  0  0  0
 15 96  1  0  0  0
 16 17  2  0  0  0
 16 21  1  0  0  0
 16 31  1  0  0  0
 17 18  1  0  0  0
 17 97  1  0  0  0
 18 19  2  0  0  0
 18 98  1  0  0  0
 19 20  1  0  0  0
 19 24  1  0  0  0
 20 21  2  0  0  0
 20 99  1  0  0  0
 21 23  1  0  0  0
 22 28  1  0  0  0
 22 32  2  0  0  0
 26 27  1  0  0  0
 28100  1  0  0  0
 28101  1  0  0  0
 29102  1  0  0  0
 29103  1  0  0  0
 33 34  1  0  0  0
 33 66  1  0  0  0
 33 70  2  0  0  0
 34 36  1  0  0  0
 34 59  1  0  0  0
 34104  1  0  0  0
 35 44  2  0  0  0
 35 45  1  0  0  0
 35 68  1  0  0  0
 36 56  1  0  0  0
 36105  1  0  0  0
 37 39  1  0  0  0
 37 47  1  0  0  0
 37 66  1  0  0  0
 37106  1  0  0  0
 38 43  2  0  0  0
 38 46  1  0  0  0
 38 47  1  0  0  0
 39 64  1  0  0  0
 39 67  2  0  0  0
 40 52  1  0  0  0
 40 53  2  0  0  0
 40 58  1  0  0  0
 41107  1  0  0  0
 41108  1  0  0  0
 41109  1  0  0  0
 41 48  1  0  0  0
 42 43  1  0  0  0
 42 66  1  0  0  0
 42110  1  0  0  0
 42111  1  0  0  0
 43 44  1  0  0  0
 44112  1  0  0  0
 45 46  2  0  0  0
 45113  1  0  0  0
 46114  1  0  0  0
 47115  1  0  0  0
 47116  1  0  0  0
 48 56  1  0  0  0
 48 65  1  0  0  0
 48117  1  0  0  0
 49 50  1  0  0  0
 49 53  1  0  0  0
 49 64  1  0  0  0
 49118  1  0  0  0
 50 51  1  0  0  0
 50119  1  0  0  0
 50120  1  0  0  0
 51 52  1  0  0  0
 51121  1  0  0  0
 51122  1  0  0  0
 52123  1  0  0  0
 52124  1  0  0  0
 53 54  1  0  0  0
 54 55  2  0  0  0
 54125  1  0  0  0
 55 57  1  0  0  0
 55126  1  0  0  0
 56 69  2  0  0  0
 57 58  2  0  0  0
 57127  1  0  0  0
 58128  1  0  0  0
 59 60  1  0  0  0
 59 61  1  0  0  0
 59 62  1  0  0  0
 60129  1  0  0  0
 60130  1  0  0  0
 60131  1  0  0  0
 61132  1  0  0  0
 61133  1  0  0  0
 61134  1  0  0  0
 62135  1  0  0  0
 62136  1  0  0  0
 62137  1  0  0  0
 63 65  1  0  0  0
 63138  1  0  0  0
 63139  1  0  0  0
 63140  1  0  0  0
 64141  1  0  0  0
 65142  1  0  0  0
 68 78  1  0  0  0
 71 77  1  0  0  0
 71 79  2  0  0  0
 71 80  1  0  0  0
 72 78  1  0  0  0
 72 79  1  0  0  0
 72 81  2  0  0  0
 73 80  2  0  0  0
 73 81  1  0  0  0
 73 82  1  0  0  0
 74 76  1  0  0  0
 74 82  1  0  0  0
 74143  1  0  0  0
 74144  1  0  0  0
 75 76  1  0  0  0
 75 82  1  0  0  0
 75145  1  0  0  0
 75146  1  0  0  0
 76 83  1  0  0  0
 76147  1  0  0  0
 77148  1  0  0  0
 77149  1  0  0  0
 77150  1  0  0  0
 78151  1  0  0  0
 78152  1  0  0  0
 83153  1  0  0  0
M  ISO  4   1 100  68 101  78 101  83 100
M  END
> <chiral flag>
0

> <version>
0

> <s_m_source_file>
/data/baiqing/PycharmProjects/Reinvent-master-3.2/result/LINK_invent/BTK/process_docking_weight1_custom_sum_contain_oxygen_bond_distance_aromatic_linkinvent_7_9_3/rearranged_h_0188.sdf

> <i_m_source_file_index>
37

> <r_mmod_Potential_Energy-OPLS-2005>
-308.9697265625

> <r_mmod_Stretch_Energy-OPLS-2005>
202.876983642578

> <r_mmod_Bend_Energy-OPLS-2005>
296.150817871094

> <r_mmod_Torsional_Energy-OPLS-2005>
246.080001831055

> <r_mmod_Improper_Torsional_Energy-OPLS-2005>
12.2893524169922

> <r_mmod_Van_der_Waal_Energy-OPLS-2005>
148.897964477539

> <r_mmod_Electrostatic_Energy-OPLS-2005>
-1109.560546875

> <r_mmod_Solvation_Energy-OPLS-2005>
-270.820861816406

> <b_mmod_Minimization_Converged-OPLS-2005>
0

> <r_mmod_RMS_Derivative-OPLS-2005>
4.43769216537476

$$$$
38
                    3D
 Structure written by MMmdl.
160169  0  0  1  0            999 V2000
  -30.6467  -14.6960   20.4703 C   0  0  0  0  0  0
  -30.4253  -12.4221   19.4732 C   0  0  0  0  0  0
  -29.5112  -12.4941   18.2318 C   0  0  0  0  0  0
  -28.0320  -12.3400   18.6378 C   0  0  0  0  0  0
  -27.6416  -13.2323   19.8480 C   0  0  2  0  0  0
  -28.6867  -13.1641   20.9826 C   0  0  0  0  0  0
  -25.2521  -13.8192   20.5674 C   0  0  0  0  0  0
  -24.1810  -13.0440   20.9183 C   0  0  0  0  0  0
  -24.6396  -11.6918   20.8725 C   0  0  0  0  0  0
  -23.9071  -10.4285   21.0376 C   0  0  0  0  0  0
  -24.3631   -9.4203   21.9157 C   0  0  0  0  0  0
  -23.6309   -8.2239   22.0736 C   0  0  0  0  0  0
  -22.4285   -8.0276   21.3541 C   0  0  0  0  0  0
  -21.9917   -9.0245   20.4642 C   0  0  0  0  0  0
  -22.7240  -10.2125   20.3031 C   0  0  0  0  0  0
  -21.6852   -6.0728   22.5278 C   0  0  0  0  0  0
  -21.4008   -6.5630   23.8215 C   0  0  0  0  0  0
  -21.3668   -5.6781   24.9177 C   0  0  0  0  0  0
  -21.6062   -4.3047   24.7217 C   0  0  0  0  0  0
  -21.8828   -3.8134   23.4328 C   0  0  0  0  0  0
  -21.9193   -4.6955   22.3387 C   0  0  0  0  0  0
  -22.7841  -13.5230   21.1863 C   0  0  0  0  0  0
  -22.1663   -4.2139   21.0971 F   0  0  0  0  0  0
  -21.5634   -3.4539   25.7726 F   0  0  0  0  0  0
  -29.9913  -13.4910   20.3972 N   0  0  0  0  0  0
  -26.2948  -12.9399   20.3275 N   0  0  0  0  0  0
  -25.9330  -11.6535   20.5742 N   0  0  0  0  0  0
  -22.0498  -12.8220   22.0430 N   0  0  0  0  0  0
  -25.4230  -15.1919   20.4091 N   0  0  0  0  0  0
  -31.8423  -14.7702   20.1673 O   0  0  0  0  0  0
  -21.6635   -6.8883   21.4244 O   0  0  0  0  0  0
  -22.3516  -14.5531   20.6706 O   0  0  0  0  0  0
  -24.6302  -31.8585   23.2007 C   0  0  0  0  0  0
  -25.9130  -32.4776   23.8343 C   0  0  1  0  0  0
  -27.2115  -27.2777   20.1212 C   0  0  0  0  0  0
  -25.5929  -33.8580   24.2265 N   0  0  0  0  0  0
  -23.4245  -30.4839   21.5467 C   0  0  2  0  0  0
  -24.8676  -28.9393   20.1097 C   0  0  0  0  0  0
  -22.7499  -29.4616   22.4927 C   0  0  0  0  0  0
  -18.0293  -28.1408   22.8474 C   0  0  0  0  0  0
  -24.1492  -36.7295   23.2637 C   0  0  0  0  0  0
  -25.9702  -30.7770   21.3767 C   0  0  0  0  0  0
  -26.0420  -29.4023   20.7173 C   0  0  0  0  0  0
  -27.2175  -28.5858   20.7124 C   0  0  0  0  0  0
  -26.0114  -26.8880   19.4786 C   0  0  0  0  0  0
  -24.8577  -27.6893   19.4785 C   0  0  0  0  0  0
  -23.6381  -29.8237   20.1608 C   0  0  0  0  0  0
  -25.4117  -36.3085   24.0329 C   0  0  1  0  0  0
  -20.5895  -28.3705   23.1279 C   0  0  2  0  0  0
  -20.6783  -26.9429   22.5411 C   0  0  0  0  0  0
  -19.5762  -26.6404   21.5208 C   0  0  0  0  0  0
  -18.1942  -26.7947   22.1620 C   0  0  0  0  0  0
  -19.1546  -28.8874   23.2865 C   0  0  0  0  0  0
  -18.9462  -30.1476   23.8882 C   0  0  0  0  0  0
  -17.6461  -30.6596   24.0581 C   0  0  0  0  0  0
  -25.9059  -34.9455   23.5094 C   0  0  0  0  0  0
  -16.5352  -29.9100   23.6343 C   0  0  0  0  0  0
  -16.7279  -28.6530   23.0336 C   0  0  0  0  0  0
  -26.4499  -31.6592   25.0719 C   0  0  0  0  0  0
  -25.3730  -31.3737   26.1441 C   0  0  0  0  0  0
  -27.0343  -30.3015   24.6188 C   0  0  0  0  0  0
  -27.6056  -32.4333   25.7488 C   0  0  0  0  0  0
  -27.5594  -37.1794   24.8459 C   0  0  0  0  0  0
  -21.4215  -29.3045   22.3670 N   0  0  0  0  0  0
  -26.4295  -37.3787   23.9423 N   0  0  0  0  0  0
  -24.6945  -31.0564   22.0978 N   0  0  0  0  0  0
  -23.4207  -28.8151   23.3018 O   0  0  0  0  0  0
  -28.2970  -26.3729   20.1912 O   0  0  0  0  0  0
  -26.5640  -34.8934   22.4673 O   0  0  0  0  0  0
  -23.5453  -32.1401   23.7313 O   0  0  0  0  0  0
  -30.3654  -23.8781   20.6263 C   0  0  0  0  0  0
  -29.0232  -23.7983   20.3493 C   0  0  0  0  0  0
  -29.8889  -21.6765   20.5804 C   0  0  0  0  0  0
  -29.4031  -18.1497   21.8124 C   0  0  0  0  0  0
  -29.8346  -18.1498   19.3749 C   0  0  0  0  0  0
  -30.2633  -16.8213   21.7371 C   0  0  0  0  0  0
  -29.4205  -16.6261   19.4650 C   0  0  0  0  0  0
  -29.3510  -19.0673   20.5418 C   0  0  0  0  0  0
  -32.2606  -22.2381   21.0213 C   0  0  0  0  0  0
  -27.9725  -24.9145   20.0666 C   0  0  0  0  0  0
  -30.8621  -22.5950   20.7468 N   0  0  0  0  0  0
  -28.7692  -22.4080   20.3355 N   0  3  0  0  0  0
  -29.9091  -15.8617   20.6526 N   0  0  0  0  0  0
  -30.1629  -20.3208   20.6713 N   0  0  0  0  0  0
  -31.4719  -12.5257   19.1804 H   0  0  0  0  0  0
  -30.3465  -11.4473   19.9567 H   0  0  0  0  0  0
  -29.7869  -11.7172   17.5185 H   0  0  0  0  0  0
  -29.6575  -13.4462   17.7199 H   0  0  0  0  0  0
  -27.8699  -11.2906   18.8873 H   0  0  0  0  0  0
  -27.3830  -12.5538   17.7877 H   0  0  0  0  0  0
  -27.6358  -14.2540   19.4705 H   0  0  0  0  0  0
  -28.7099  -12.1733   21.4357 H   0  0  0  0  0  0
  -28.4344  -13.8650   21.7801 H   0  0  0  0  0  0
  -25.2771   -9.5683   22.4737 H   0  0  0  0  0  0
  -24.0027   -7.4620   22.7449 H   0  0  0  0  0  0
  -21.0843   -8.8750   19.8958 H   0  0  0  0  0  0
  -22.3682  -10.9655   19.6137 H   0  0  0  0  0  0
  -21.1996   -7.6134   23.9722 H   0  0  0  0  0  0
  -21.1498   -6.0498   25.9090 H   0  0  0  0  0  0
  -22.0605   -2.7590   23.2815 H   0  0  0  0  0  0
  -22.4107  -11.9880   22.4821 H   0  0  0  0  0  0
  -21.1116  -13.1242   22.2644 H   0  0  0  0  0  0
  -24.6646  -15.8533   20.5349 H   0  0  0  0  0  0
  -26.2889  -15.6307   20.1242 H   0  0  0  0  0  0
  -26.7193  -32.5428   23.1083 H   0  0  0  0  0  0
  -25.0064  -33.9733   25.0396 H   0  0  0  0  0  0
  -22.7188  -31.3054   21.4066 H   0  0  0  0  0  0
  -23.3770  -35.9609   23.3270 H   0  0  0  0  0  0
  -24.3586  -36.8953   22.2058 H   0  0  0  0  0  0
  -23.7227  -37.6480   23.6678 H   0  0  0  0  0  0
  -26.1037  -31.5361   20.6046 H   0  0  0  0  0  0
  -26.8509  -30.8260   22.0059 H   0  0  0  0  0  0
  -28.1133  -28.9349   21.2068 H   0  0  0  0  0  0
  -25.9138  -25.9382   18.9769 H   0  0  0  0  0  0
  -23.9619  -27.3276   18.9926 H   0  0  0  0  0  0
  -23.7594  -30.6023   19.4075 H   0  0  0  0  0  0
  -22.7550  -29.2581   19.8563 H   0  0  0  0  0  0
  -25.1291  -36.1938   25.0821 H   0  0  0  0  0  0
  -20.9980  -28.3285   24.1405 H   0  0  0  0  0  0
  -20.5699  -26.2314   23.3611 H   0  0  0  0  0  0
  -21.6650  -26.7475   22.1193 H   0  0  0  0  0  0
  -19.6925  -25.6318   21.1237 H   0  0  0  0  0  0
  -19.6706  -27.3220   20.6743 H   0  0  0  0  0  0
  -17.4216  -26.6692   21.4021 H   0  0  0  0  0  0
  -18.0334  -26.0095   22.9021 H   0  0  0  0  0  0
  -19.7939  -30.7300   24.2229 H   0  0  0  0  0  0
  -17.5021  -31.6270   24.5199 H   0  0  0  0  0  0
  -15.5353  -30.2998   23.7687 H   0  0  0  0  0  0
  -15.8678  -28.0869   22.7023 H   0  0  0  0  0  0
  -24.5861  -30.7147   25.7749 H   0  0  0  0  0  0
  -24.8969  -32.2908   26.4917 H   0  0  0  0  0  0
  -25.8032  -30.8850   27.0192 H   0  0  0  0  0  0
  -26.2918  -29.6765   24.1208 H   0  0  0  0  0  0
  -27.4028  -29.7272   25.4700 H   0  0  0  0  0  0
  -27.8793  -30.4297   23.9420 H   0  0  0  0  0  0
  -27.2648  -33.3607   26.2110 H   0  0  0  0  0  0
  -28.3830  -32.6956   25.0296 H   0  0  0  0  0  0
  -28.0769  -31.8444   26.5370 H   0  0  0  0  0  0
  -28.2583  -38.0121   24.7549 H   0  0  0  0  0  0
  -28.1120  -36.2656   24.6217 H   0  0  0  0  0  0
  -27.2325  -37.1359   25.8864 H   0  0  0  0  0  0
  -20.9397  -29.8769   21.6878 H   0  0  0  0  0  0
  -26.0174  -38.2859   24.1449 H   0  0  0  0  0  0
  -30.9960  -24.7491   20.7327 H   0  0  0  0  0  0
  -29.7062  -18.7323   22.6835 H   0  0  0  0  0  0
  -28.3785  -17.8463   22.0321 H   0  0  0  0  0  0
  -29.4831  -18.5633   18.4282 H   0  0  0  0  0  0
  -30.9233  -18.1891   19.3175 H   0  0  0  0  0  0
  -30.1681  -16.2956   22.6890 H   0  0  0  0  0  0
  -31.3179  -17.0875   21.6448 H   0  0  0  0  0  0
  -29.7489  -16.1308   18.5500 H   0  0  0  0  0  0
  -28.3336  -16.5594   19.4580 H   0  0  0  0  0  0
  -28.3098  -19.3503   20.3721 H   0  0  0  0  0  0
  -32.8916  -23.1227   20.9333 H   0  0  0  0  0  0
  -32.6001  -21.4920   20.3003 H   0  0  0  0  0  0
  -32.3354  -21.8369   22.0330 H   0  0  0  0  0  0
  -27.1218  -24.7042   20.7176 H   0  0  0  0  0  0
  -27.6440  -24.7328   19.0433 H   0  0  0  0  0  0
  -27.8614  -22.0020   20.1541 H   0  0  0  0  0  0
  -31.1277  -20.0879   20.8692 H   0  0  0  0  0  0
  1 25  1  0  0  0
  1 30  2  0  0  0
  1 83  1  0  0  0
  2  3  1  0  0  0
  2 25  1  0  0  0
  2 85  1  0  0  0
  2 86  1  0  0  0
  3  4  1  0  0  0
  3 87  1  0  0  0
  3 88  1  0  0  0
  4  5  1  0  0  0
  4 89  1  0  0  0
  4 90  1  0  0  0
  5  6  1  0  0  0
  5 26  1  0  0  0
  5 91  1  0  0  0
  6 25  1  0  0  0
  6 92  1  0  0  0
  6 93  1  0  0  0
  7  8  2  0  0  0
  7 26  1  0  0  0
  7 29  1  0  0  0
  8  9  1  0  0  0
  8 22  1  0  0  0
  9 10  1  0  0  0
  9 27  2  0  0  0
 10 11  2  0  0  0
 10 15  1  0  0  0
 11 12  1  0  0  0
 11 94  1  0  0  0
 12 13  2  0  0  0
 12 95  1  0  0  0
 13 14  1  0  0  0
 13 31  1  0  0  0
 14 15  2  0  0  0
 14 96  1  0  0  0
 15 97  1  0  0  0
 16 17  2  0  0  0
 16 21  1  0  0  0
 16 31  1  0  0  0
 17 18  1  0  0  0
 17 98  1  0  0  0
 18 19  2  0  0  0
 18 99  1  0  0  0
 19 20  1  0  0  0
 19 24  1  0  0  0
 20 21  2  0  0  0
 20100  1  0  0  0
 21 23  1  0  0  0
 22 28  1  0  0  0
 22 32  2  0  0  0
 26 27  1  0  0  0
 28101  1  0  0  0
 28102  1  0  0  0
 29103  1  0  0  0
 29104  1  0  0  0
 33 34  1  0  0  0
 33 66  1  0  0  0
 33 70  2  0  0  0
 34 36  1  0  0  0
 34 59  1  0  0  0
 34105  1  0  0  0
 35 44  2  0  0  0
 35 45  1  0  0  0
 35 68  1  0  0  0
 36 56  1  0  0  0
 36106  1  0  0  0
 37 39  1  0  0  0
 37 47  1  0  0  0
 37 66  1  0  0  0
 37107  1  0  0  0
 38 43  2  0  0  0
 38 46  1  0  0  0
 38 47  1  0  0  0
 39 64  1  0  0  0
 39 67  2  0  0  0
 40 52  1  0  0  0
 40 53  2  0  0  0
 40 58  1  0  0  0
 41108  1  0  0  0
 41109  1  0  0  0
 41110  1  0  0  0
 41 48  1  0  0  0
 42 43  1  0  0  0
 42 66  1  0  0  0
 42111  1  0  0  0
 42112  1  0  0  0
 43 44  1  0  0  0
 44113  1  0  0  0
 45 46  2  0  0  0
 45114  1  0  0  0
 46115  1  0  0  0
 47116  1  0  0  0
 47117  1  0  0  0
 48 56  1  0  0  0
 48 65  1  0  0  0
 48118  1  0  0  0
 49 50  1  0  0  0
 49 53  1  0  0  0
 49 64  1  0  0  0
 49119  1  0  0  0
 50 51  1  0  0  0
 50120  1  0  0  0
 50121  1  0  0  0
 51 52  1  0  0  0
 51122  1  0  0  0
 51123  1  0  0  0
 52124  1  0  0  0
 52125  1  0  0  0
 53 54  1  0  0  0
 54 55  2  0  0  0
 54126  1  0  0  0
 55 57  1  0  0  0
 55127  1  0  0  0
 56 69  2  0  0  0
 57 58  2  0  0  0
 57128  1  0  0  0
 58129  1  0  0  0
 59 60  1  0  0  0
 59 61  1  0  0  0
 59 62  1  0  0  0
 60130  1  0  0  0
 60131  1  0  0  0
 60132  1  0  0  0
 61133  1  0  0  0
 61134  1  0  0  0
 61135  1  0  0  0
 62136  1  0  0  0
 62137  1  0  0  0
 62138  1  0  0  0
 63 65  1  0  0  0
 63139  1  0  0  0
 63140  1  0  0  0
 63141  1  0  0  0
 64142  1  0  0  0
 65143  1  0  0  0
 68 80  1  0  0  0
 71 72  2  0  0  0
 71 81  1  0  0  0
 71144  1  0  0  0
 72 80  1  0  0  0
 72 82  1  0  0  0
 73 81  1  0  0  0
 73 82  2  0  0  0
 73 84  1  0  0  0
 74 76  1  0  0  0
 74 78  1  0  0  0
 74145  1  0  0  0
 74146  1  0  0  0
 75 77  1  0  0  0
 75 78  1  0  0  0
 75147  1  0  0  0
 75148  1  0  0  0
 76 83  1  0  0  0
 76149  1  0  0  0
 76150  1  0  0  0
 77 83  1  0  0  0
 77151  1  0  0  0
 77152  1  0  0  0
 78 84  1  0  0  0
 78153  1  0  0  0
 79 81  1  0  0  0
 79154  1  0  0  0
 79155  1  0  0  0
 79156  1  0  0  0
 80157  1  0  0  0
 80158  1  0  0  0
 82159  1  0  0  0
 84160  1  0  0  0
M  CHG  1  82   1
M  ISO  4   1 100  68 101  80 101  83 100
M  END
> <chiral flag>
0

> <version>
0

> <s_m_source_file>
/data/baiqing/PycharmProjects/Reinvent-master-3.2/result/LINK_invent/BTK/process_docking_weight1_custom_sum_contain_oxygen_bond_distance_aromatic_linkinvent_7_9_3/rearranged_h_0188.sdf

> <i_m_source_file_index>
38

> <r_mmod_Potential_Energy-OPLS-2005>
221.103912353516

> <r_mmod_Stretch_Energy-OPLS-2005>
95.353141784668

> <r_mmod_Bend_Energy-OPLS-2005>
191.76628112793

> <r_mmod_Torsional_Energy-OPLS-2005>
354.995239257812

> <r_mmod_Improper_Torsional_Energy-OPLS-2005>
8.29322814941406

> <r_mmod_Van_der_Waal_Energy-OPLS-2005>
131.531463623047

> <r_mmod_Electrostatic_Energy-OPLS-2005>
-222.415496826172

> <r_mmod_Solvation_Energy-OPLS-2005>
-412.699981689453

> <b_mmod_Minimization_Converged-OPLS-2005>
0

> <r_mmod_RMS_Derivative-OPLS-2005>
2.25841116905212

$$$$
39
                    3D
 Structure written by MMmdl.
155164  0  0  1  0            999 V2000
  -30.5825  -14.8026   20.4449 C   0  0  0  0  0  0
  -30.4320  -12.4950   19.4818 C   0  0  0  0  0  0
  -29.5092  -12.5146   18.2434 C   0  0  0  0  0  0
  -28.0391  -12.3207   18.6616 C   0  0  0  0  0  0
  -27.6332  -13.2378   19.8462 C   0  0  2  0  0  0
  -28.6754  -13.2051   20.9838 C   0  0  0  0  0  0
  -25.2464  -13.8221   20.5724 C   0  0  0  0  0  0
  -24.1757  -13.0447   20.9217 C   0  0  0  0  0  0
  -24.6359  -11.6928   20.8747 C   0  0  0  0  0  0
  -23.9043  -10.4295   21.0395 C   0  0  0  0  0  0
  -24.3594   -9.4211   21.9170 C   0  0  0  0  0  0
  -23.6273   -8.2247   22.0746 C   0  0  0  0  0  0
  -22.4258   -8.0275   21.3541 C   0  0  0  0  0  0
  -21.9894   -9.0246   20.4640 C   0  0  0  0  0  0
  -22.7219  -10.2127   20.3044 C   0  0  0  0  0  0
  -21.6848   -6.0726   22.5274 C   0  0  0  0  0  0
  -21.4020   -6.5635   23.8207 C   0  0  0  0  0  0
  -21.3660   -5.6787   24.9173 C   0  0  0  0  0  0
  -21.6040   -4.3050   24.7226 C   0  0  0  0  0  0
  -21.8817   -3.8141   23.4350 C   0  0  0  0  0  0
  -21.9193   -4.6956   22.3404 C   0  0  0  0  0  0
  -22.7778  -13.5221   21.1881 C   0  0  0  0  0  0
  -22.1656   -4.2138   21.0981 F   0  0  0  0  0  0
  -21.5619   -3.4539   25.7741 F   0  0  0  0  0  0
  -29.9675  -13.5687   20.3926 N   0  0  0  0  0  0
  -26.2880  -12.9430   20.3276 N   0  0  0  0  0  0
  -25.9286  -11.6567   20.5747 N   0  0  0  0  0  0
  -22.0436  -12.8197   22.0446 N   0  0  0  0  0  0
  -25.4182  -15.1945   20.4172 N   0  0  0  0  0  0
  -31.7818  -14.8848   20.1577 O   0  0  0  0  0  0
  -21.6637   -6.8864   21.4233 O   0  0  0  0  0  0
  -22.3454  -14.5531   20.6743 O   0  0  0  0  0  0
  -24.6345  -31.8505   23.1919 C   0  0  0  0  0  0
  -25.9158  -32.4718   23.8280 C   0  0  1  0  0  0
  -27.2223  -27.2282   20.1442 C   0  0  0  0  0  0
  -25.5930  -33.8515   24.2207 N   0  0  0  0  0  0
  -23.4321  -30.4715   21.5358 C   0  0  2  0  0  0
  -24.8800  -28.9012   20.1167 C   0  0  0  0  0  0
  -22.7494  -29.4592   22.4877 C   0  0  0  0  0  0
  -18.0305  -28.1402   22.8495 C   0  0  0  0  0  0
  -24.1499  -36.7273   23.2634 C   0  0  0  0  0  0
  -25.9787  -30.7559   21.3720 C   0  0  0  0  0  0
  -26.0523  -29.3715   20.7217 C   0  0  0  0  0  0
  -27.2292  -28.5502   20.7157 C   0  0  0  0  0  0
  -26.0253  -26.8197   19.5241 C   0  0  0  0  0  0
  -24.8716  -27.6344   19.5068 C   0  0  0  0  0  0
  -23.6533  -29.7963   20.1562 C   0  0  0  0  0  0
  -25.4126  -36.3033   24.0304 C   0  0  1  0  0  0
  -20.5906  -28.3718   23.1270 C   0  0  2  0  0  0
  -20.6792  -26.9431   22.5418 C   0  0  0  0  0  0
  -19.5766  -26.6398   21.5224 C   0  0  0  0  0  0
  -18.1945  -26.7948   22.1634 C   0  0  0  0  0  0
  -19.1552  -28.8879   23.2882 C   0  0  0  0  0  0
  -18.9464  -30.1478   23.8905 C   0  0  0  0  0  0
  -17.6458  -30.6597   24.0573 C   0  0  0  0  0  0
  -25.9070  -34.9407   23.5061 C   0  0  0  0  0  0
  -16.5358  -29.9093   23.6329 C   0  0  0  0  0  0
  -16.7284  -28.6510   23.0352 C   0  0  0  0  0  0
  -26.4516  -31.6555   25.0683 C   0  0  0  0  0  0
  -25.3730  -31.3711   26.1396 C   0  0  0  0  0  0
  -27.0360  -30.2960   24.6184 C   0  0  0  0  0  0
  -27.6044  -32.4307   25.7485 C   0  0  0  0  0  0
  -27.5570  -37.1798   24.8457 C   0  0  0  0  0  0
  -21.4199  -29.3051   22.3625 N   0  0  0  0  0  0
  -26.4292  -37.3736   23.9388 N   0  0  0  0  0  0
  -24.7009  -31.0452   22.0897 N   0  0  0  0  0  0
  -23.4178  -28.8130   23.2992 O   0  0  0  0  0  0
  -28.3387  -26.3557   20.1106 O   0  0  0  0  0  0
  -26.5644  -34.8891   22.4634 O   0  0  0  0  0  0
  -23.5491  -32.1333   23.7213 O   0  0  0  0  0  0
  -28.7275  -20.8421   20.2686 C   0  0  0  0  0  0
  -29.6645  -19.7275   20.3810 C   0  0  0  0  0  0
  -29.1999  -22.2183   20.1422 C   0  0  0  0  0  0
  -31.3389  -21.3190   20.2318 C   0  0  0  0  0  0
  -29.6915  -17.0043   19.4855 C   0  0  0  0  0  0
  -30.1475  -17.1381   21.4493 C   0  0  0  0  0  0
  -29.3801  -18.1368   20.5170 C   0  0  0  0  0  0
  -32.8276  -21.5899   20.1767 C   0  0  0  0  0  0
  -28.3766  -23.5563   19.7399 C   0  0  0  0  0  0
  -28.2975  -24.9285   20.6385 C   0  0  0  0  0  0
  -30.9728  -20.0430   20.3441 N   0  0  0  0  0  0
  -30.5383  -22.3826   20.1314 N   0  0  0  0  0  0
  -29.7994  -15.9615   20.5728 N   0  0  0  0  0  0
  -31.4698  -12.6349   19.1741 H   0  0  0  0  0  0
  -30.3934  -11.5259   19.9819 H   0  0  0  0  0  0
  -29.8036  -11.7366   17.5384 H   0  0  0  0  0  0
  -29.6181  -13.4648   17.7180 H   0  0  0  0  0  0
  -27.9162  -11.2756   18.9499 H   0  0  0  0  0  0
  -27.3759  -12.4834   17.8112 H   0  0  0  0  0  0
  -27.6178  -14.2542   19.4491 H   0  0  0  0  0  0
  -28.7255  -12.2194   21.4491 H   0  0  0  0  0  0
  -28.4017  -13.9073   21.7732 H   0  0  0  0  0  0
  -25.2727   -9.5700   22.4753 H   0  0  0  0  0  0
  -23.9980   -7.4646   22.7463 H   0  0  0  0  0  0
  -21.0823   -8.8756   19.8948 H   0  0  0  0  0  0
  -22.3655  -10.9660   19.6158 H   0  0  0  0  0  0
  -21.2025   -7.6148   23.9711 H   0  0  0  0  0  0
  -21.1474   -6.0523   25.9075 H   0  0  0  0  0  0
  -22.0600   -2.7602   23.2857 H   0  0  0  0  0  0
  -22.4049  -11.9850   22.4822 H   0  0  0  0  0  0
  -21.1059  -13.1208   22.2673 H   0  0  0  0  0  0
  -24.6590  -15.8557   20.5378 H   0  0  0  0  0  0
  -26.2832  -15.6333   20.1286 H   0  0  0  0  0  0
  -26.7216  -32.5372   23.1015 H   0  0  0  0  0  0
  -25.0055  -33.9642   25.0336 H   0  0  0  0  0  0
  -22.7318  -31.2951   21.3828 H   0  0  0  0  0  0
  -23.3729  -35.9642   23.3322 H   0  0  0  0  0  0
  -24.3580  -36.8878   22.2043 H   0  0  0  0  0  0
  -23.7313  -37.6495   23.6669 H   0  0  0  0  0  0
  -26.1193  -31.5115   20.5975 H   0  0  0  0  0  0
  -26.8552  -30.8110   22.0056 H   0  0  0  0  0  0
  -28.1347  -28.9120   21.1820 H   0  0  0  0  0  0
  -25.9802  -25.8501   19.0466 H   0  0  0  0  0  0
  -23.9729  -27.2695   19.0291 H   0  0  0  0  0  0
  -23.7811  -30.5677   19.3953 H   0  0  0  0  0  0
  -22.7702  -29.2308   19.8520 H   0  0  0  0  0  0
  -25.1328  -36.1851   25.0797 H   0  0  0  0  0  0
  -21.0030  -28.3327   24.1379 H   0  0  0  0  0  0
  -20.5716  -26.2322   23.3626 H   0  0  0  0  0  0
  -21.6656  -26.7463   22.1197 H   0  0  0  0  0  0
  -19.6921  -25.6303   21.1259 H   0  0  0  0  0  0
  -19.6711  -27.3209   20.6756 H   0  0  0  0  0  0
  -17.4218  -26.6707   21.4032 H   0  0  0  0  0  0
  -18.0332  -26.0093   22.9033 H   0  0  0  0  0  0
  -19.7936  -30.7299   24.2271 H   0  0  0  0  0  0
  -17.5009  -31.6278   24.5174 H   0  0  0  0  0  0
  -15.5355  -30.2997   23.7644 H   0  0  0  0  0  0
  -15.8689  -28.0832   22.7060 H   0  0  0  0  0  0
  -24.5949  -30.7003   25.7735 H   0  0  0  0  0  0
  -24.8875  -32.2879   26.4745 H   0  0  0  0  0  0
  -25.8054  -30.8961   27.0213 H   0  0  0  0  0  0
  -26.2939  -29.6705   24.1203 H   0  0  0  0  0  0
  -27.4017  -29.7223   25.4711 H   0  0  0  0  0  0
  -27.8830  -30.4200   23.9432 H   0  0  0  0  0  0
  -27.2612  -33.3599   26.2045 H   0  0  0  0  0  0
  -28.3880  -32.6879   25.0347 H   0  0  0  0  0  0
  -28.0687  -31.8448   26.5427 H   0  0  0  0  0  0
  -28.2585  -38.0089   24.7463 H   0  0  0  0  0  0
  -28.1068  -36.2614   24.6346 H   0  0  0  0  0  0
  -27.2278  -37.1508   25.8856 H   0  0  0  0  0  0
  -20.9372  -29.8728   21.6796 H   0  0  0  0  0  0
  -26.0151  -38.2800   24.1380 H   0  0  0  0  0  0
  -27.6652  -20.6378   20.2419 H   0  0  0  0  0  0
  -30.6271  -17.1702   18.9468 H   0  0  0  0  0  0
  -28.8784  -16.8415   18.7774 H   0  0  0  0  0  0
  -31.2206  -17.3420   21.4919 H   0  0  0  0  0  0
  -29.7347  -17.1032   22.4576 H   0  0  0  0  0  0
  -28.3224  -18.0677   20.7741 H   0  0  0  0  0  0
  -33.1041  -22.3596   20.8971 H   0  0  0  0  0  0
  -33.1132  -21.9346   19.1828 H   0  0  0  0  0  0
  -33.4101  -20.6948   20.3982 H   0  0  0  0  0  0
  -27.3580  -23.2521   19.5046 H   0  0  0  0  0  0
  -28.7877  -23.8566   18.7767 H   0  0  0  0  0  0
  -29.1690  -24.8880   21.2913 H   0  0  0  0  0  0
  -27.4538  -24.8385   21.3237 H   0  0  0  0  0  0
  1 25  1  0  0  0
  1 30  2  0  0  0
  1 83  1  0  0  0
  2  3  1  0  0  0
  2 25  1  0  0  0
  2 84  1  0  0  0
  2 85  1  0  0  0
  3  4  1  0  0  0
  3 86  1  0  0  0
  3 87  1  0  0  0
  4  5  1  0  0  0
  4 88  1  0  0  0
  4 89  1  0  0  0
  5  6  1  0  0  0
  5 26  1  0  0  0
  5 90  1  0  0  0
  6 25  1  0  0  0
  6 91  1  0  0  0
  6 92  1  0  0  0
  7  8  2  0  0  0
  7 26  1  0  0  0
  7 29  1  0  0  0
  8  9  1  0  0  0
  8 22  1  0  0  0
  9 10  1  0  0  0
  9 27  2  0  0  0
 10 11  2  0  0  0
 10 15  1  0  0  0
 11 12  1  0  0  0
 11 93  1  0  0  0
 12 13  2  0  0  0
 12 94  1  0  0  0
 13 14  1  0  0  0
 13 31  1  0  0  0
 14 15  2  0  0  0
 14 95  1  0  0  0
 15 96  1  0  0  0
 16 17  2  0  0  0
 16 21  1  0  0  0
 16 31  1  0  0  0
 17 18  1  0  0  0
 17 97  1  0  0  0
 18 19  2  0  0  0
 18 98  1  0  0  0
 19 20  1  0  0  0
 19 24  1  0  0  0
 20 21  2  0  0  0
 20 99  1  0  0  0
 21 23  1  0  0  0
 22 28  1  0  0  0
 22 32  2  0  0  0
 26 27  1  0  0  0
 28100  1  0  0  0
 28101  1  0  0  0
 29102  1  0  0  0
 29103  1  0  0  0
 33 34  1  0  0  0
 33 66  1  0  0  0
 33 70  2  0  0  0
 34 36  1  0  0  0
 34 59  1  0  0  0
 34104  1  0  0  0
 35 44  2  0  0  0
 35 45  1  0  0  0
 35 68  1  0  0  0
 36 56  1  0  0  0
 36105  1  0  0  0
 37 39  1  0  0  0
 37 47  1  0  0  0
 37 66  1  0  0  0
 37106  1  0  0  0
 38 43  2  0  0  0
 38 46  1  0  0  0
 38 47  1  0  0  0
 39 64  1  0  0  0
 39 67  2  0  0  0
 40 52  1  0  0  0
 40 53  2  0  0  0
 40 58  1  0  0  0
 41107  1  0  0  0
 41108  1  0  0  0
 41109  1  0  0  0
 41 48  1  0  0  0
 42 43  1  0  0  0
 42 66  1  0  0  0
 42110  1  0  0  0
 42111  1  0  0  0
 43 44  1  0  0  0
 44112  1  0  0  0
 45 46  2  0  0  0
 45113  1  0  0  0
 46114  1  0  0  0
 47115  1  0  0  0
 47116  1  0  0  0
 48 56  1  0  0  0
 48 65  1  0  0  0
 48117  1  0  0  0
 49 50  1  0  0  0
 49 53  1  0  0  0
 49 64  1  0  0  0
 49118  1  0  0  0
 50 51  1  0  0  0
 50119  1  0  0  0
 50120  1  0  0  0
 51 52  1  0  0  0
 51121  1  0  0  0
 51122  1  0  0  0
 52123  1  0  0  0
 52124  1  0  0  0
 53 54  1  0  0  0
 54 55  2  0  0  0
 54125  1  0  0  0
 55 57  1  0  0  0
 55126  1  0  0  0
 56 69  2  0  0  0
 57 58  2  0  0  0
 57127  1  0  0  0
 58128  1  0  0  0
 59 60  1  0  0  0
 59 61  1  0  0  0
 59 62  1  0  0  0
 60129  1  0  0  0
 60130  1  0  0  0
 60131  1  0  0  0
 61132  1  0  0  0
 61133  1  0  0  0
 61134  1  0  0  0
 62135  1  0  0  0
 62136  1  0  0  0
 62137  1  0  0  0
 63 65  1  0  0  0
 63138  1  0  0  0
 63139  1  0  0  0
 63140  1  0  0  0
 64141  1  0  0  0
 65142  1  0  0  0
 68 80  1  0  0  0
 71 72  2  0  0  0
 71 73  1  0  0  0
 71143  1  0  0  0
 72 81  1  0  0  0
 72 77  1  0  0  0
 73 79  1  0  0  0
 73 82  2  0  0  0
 74 78  1  0  0  0
 74 81  2  0  0  0
 74 82  1  0  0  0
 75 77  1  0  0  0
 75 83  1  0  0  0
 75144  1  0  0  0
 75145  1  0  0  0
 76 77  1  0  0  0
 76 83  1  0  0  0
 76146  1  0  0  0
 76147  1  0  0  0
 77148  1  0  0  0
 78149  1  0  0  0
 78150  1  0  0  0
 78151  1  0  0  0
 79 80  1  0  0  0
 79152  1  0  0  0
 79153  1  0  0  0
 80154  1  0  0  0
 80155  1  0  0  0
M  ISO  4   1 100  68 101  80 101  83 100
M  END
> <chiral flag>
0

> <version>
0

> <s_m_source_file>
/data/baiqing/PycharmProjects/Reinvent-master-3.2/result/LINK_invent/BTK/process_docking_weight1_custom_sum_contain_oxygen_bond_distance_aromatic_linkinvent_7_9_3/rearranged_h_0188.sdf

> <i_m_source_file_index>
39

> <r_mmod_Potential_Energy-OPLS-2005>
-54.9604148864746

> <r_mmod_Stretch_Energy-OPLS-2005>
147.589248657227

> <r_mmod_Bend_Energy-OPLS-2005>
209.349945068359

> <r_mmod_Torsional_Energy-OPLS-2005>
278.116729736328

> <r_mmod_Improper_Torsional_Energy-OPLS-2005>
14.2887592315674

> <r_mmod_Van_der_Waal_Energy-OPLS-2005>
134.109786987305

> <r_mmod_Electrostatic_Energy-OPLS-2005>
-713.111389160156

> <r_mmod_Solvation_Energy-OPLS-2005>
-231.15837097168

> <b_mmod_Minimization_Converged-OPLS-2005>
0

> <r_mmod_RMS_Derivative-OPLS-2005>
1.76980364322662

$$$$
40
                    3D
 Structure written by MMmdl.
166175  0  0  1  0            999 V2000
  -30.5904  -14.9061   20.4227 C   0  0  0  0  0  0
  -30.4259  -12.5600   19.4964 C   0  0  0  0  0  0
  -29.5139  -12.5247   18.2505 C   0  0  0  0  0  0
  -28.0444  -12.3246   18.6671 C   0  0  0  0  0  0
  -27.6283  -13.2534   19.8390 C   0  0  2  0  0  0
  -28.6715  -13.2827   20.9758 C   0  0  0  0  0  0
  -25.2458  -13.8228   20.5719 C   0  0  0  0  0  0
  -24.1778  -13.0448   20.9229 C   0  0  0  0  0  0
  -24.6396  -11.6936   20.8749 C   0  0  0  0  0  0
  -23.9085  -10.4300   21.0396 C   0  0  0  0  0  0
  -24.3635   -9.4211   21.9176 C   0  0  0  0  0  0
  -23.6311   -8.2244   22.0746 C   0  0  0  0  0  0
  -22.4289   -8.0287   21.3540 C   0  0  0  0  0  0
  -21.9930   -9.0257   20.4640 C   0  0  0  0  0  0
  -22.7256  -10.2137   20.3045 C   0  0  0  0  0  0
  -21.6856   -6.0739   22.5280 C   0  0  0  0  0  0
  -21.4008   -6.5638   23.8216 C   0  0  0  0  0  0
  -21.3662   -5.6792   24.9179 C   0  0  0  0  0  0
  -21.6052   -4.3054   24.7221 C   0  0  0  0  0  0
  -21.8820   -3.8146   23.4339 C   0  0  0  0  0  0
  -21.9189   -4.6966   22.3398 C   0  0  0  0  0  0
  -22.7801  -13.5217   21.1887 C   0  0  0  0  0  0
  -22.1666   -4.2148   21.0975 F   0  0  0  0  0  0
  -21.5631   -3.4538   25.7733 F   0  0  0  0  0  0
  -29.9476  -13.6725   20.3667 N   0  0  0  0  0  0
  -26.2884  -12.9472   20.3266 N   0  0  0  0  0  0
  -25.9332  -11.6596   20.5748 N   0  0  0  0  0  0
  -22.0438  -12.8201   22.0429 N   0  0  0  0  0  0
  -25.4141  -15.1958   20.4144 N   0  0  0  0  0  0
  -31.7948  -14.9095   20.1423 O   0  0  0  0  0  0
  -21.6644   -6.8888   21.4245 O   0  0  0  0  0  0
  -22.3488  -14.5523   20.6737 O   0  0  0  0  0  0
  -24.6430  -31.8458   23.1912 C   0  0  0  0  0  0
  -25.9207  -32.4700   23.8295 C   0  0  1  0  0  0
  -27.2118  -27.1485   20.1360 C   0  0  0  0  0  0
  -25.5964  -33.8508   24.2206 N   0  0  0  0  0  0
  -23.4449  -30.4682   21.5372 C   0  0  2  0  0  0
  -24.8929  -28.9022   20.1089 C   0  0  0  0  0  0
  -22.7566  -29.4560   22.4866 C   0  0  0  0  0  0
  -18.0303  -28.1394   22.8477 C   0  0  0  0  0  0
  -24.1492  -36.7257   23.2642 C   0  0  0  0  0  0
  -26.0025  -30.7219   21.3907 C   0  0  0  0  0  0
  -26.0725  -29.3364   20.7277 C   0  0  0  0  0  0
  -27.2339  -28.4756   20.7267 C   0  0  0  0  0  0
  -26.0046  -26.8208   19.4760 C   0  0  0  0  0  0
  -24.8711  -27.6564   19.4694 C   0  0  0  0  0  0
  -23.6707  -29.8038   20.1548 C   0  0  0  0  0  0
  -25.4125  -36.3035   24.0317 C   0  0  1  0  0  0
  -20.5917  -28.3719   23.1233 C   0  0  2  0  0  0
  -20.6785  -26.9423   22.5400 C   0  0  0  0  0  0
  -19.5758  -26.6381   21.5209 C   0  0  0  0  0  0
  -18.1942  -26.7933   22.1622 C   0  0  0  0  0  0
  -19.1560  -28.8873   23.2848 C   0  0  0  0  0  0
  -18.9478  -30.1468   23.8873 C   0  0  0  0  0  0
  -17.6475  -30.6589   24.0558 C   0  0  0  0  0  0
  -25.9077  -34.9410   23.5069 C   0  0  0  0  0  0
  -16.5365  -29.9083   23.6337 C   0  0  0  0  0  0
  -16.7286  -28.6502   23.0357 C   0  0  0  0  0  0
  -26.4532  -31.6565   25.0732 C   0  0  0  0  0  0
  -25.3719  -31.3750   26.1429 C   0  0  0  0  0  0
  -27.0400  -30.2958   24.6313 C   0  0  0  0  0  0
  -27.6062  -32.4333   25.7517 C   0  0  0  0  0  0
  -27.5582  -37.1780   24.8461 C   0  0  0  0  0  0
  -21.4259  -29.3047   22.3608 N   0  0  0  0  0  0
  -26.4283  -37.3752   23.9416 N   0  0  0  0  0  0
  -24.7166  -31.0328   22.0945 N   0  0  0  0  0  0
  -23.4217  -28.8101   23.3005 O   0  0  0  0  0  0
  -28.2505  -26.1495   20.2054 O   0  0  0  0  0  0
  -26.5658  -34.8904   22.4644 O   0  0  0  0  0  0
  -23.5553  -32.1335   23.7132 O   0  0  0  0  0  0
  -28.4488  -21.8974   20.1778 C   0  0  0  0  0  0
  -28.8339  -23.3276   20.2570 C   0  0  0  0  0  0
  -29.4363  -20.8315   20.3769 C   0  0  0  0  0  0
  -30.9773  -22.5454   20.6544 C   0  0  0  0  0  0
  -30.2447  -18.6433   19.4099 C   0  0  0  0  0  0
  -29.2913  -18.5193   21.5047 C   0  0  0  0  0  0
  -30.0194  -17.0774   19.1588 C   0  0  0  0  0  0
  -29.1361  -16.9021   21.3855 C   0  0  0  0  0  0
  -32.4341  -22.8944   20.8688 C   0  0  0  0  0  0
  -25.3371  -20.6279   18.3016 C   0  0  0  0  0  0
  -26.9932  -21.4993   19.9219 C   0  0  0  0  0  0
  -27.8831  -24.6506   20.0200 C   0  0  0  0  0  0
  -30.1383  -23.5741   20.4952 N   0  0  0  0  0  0
  -30.6936  -21.2394   20.6121 N   0  0  0  0  0  0
  -29.2602  -19.3582   20.2663 N   0  0  0  0  0  0
  -29.8740  -16.1360   20.3209 N   0  0  0  0  0  0
  -26.7368  -21.0322   18.5404 N   0  3  0  0  0  0
  -31.4638  -12.6878   19.1871 H   0  0  0  0  0  0
  -30.3931  -11.6088   20.0309 H   0  0  0  0  0  0
  -29.8260  -11.7267   17.5752 H   0  0  0  0  0  0
  -29.6169  -13.4576   17.6926 H   0  0  0  0  0  0
  -27.9275  -11.2821   18.9654 H   0  0  0  0  0  0
  -27.3829  -12.4699   17.8120 H   0  0  0  0  0  0
  -27.5941  -14.2588   19.4181 H   0  0  0  0  0  0
  -28.7489  -12.3131   21.4700 H   0  0  0  0  0  0
  -28.3812  -14.0031   21.7417 H   0  0  0  0  0  0
  -25.2764   -9.5694   22.4771 H   0  0  0  0  0  0
  -24.0014   -7.4629   22.7463 H   0  0  0  0  0  0
  -21.0856   -8.8772   19.8951 H   0  0  0  0  0  0
  -22.3696  -10.9679   19.6164 H   0  0  0  0  0  0
  -21.2003   -7.6149   23.9723 H   0  0  0  0  0  0
  -21.1488   -6.0516   25.9086 H   0  0  0  0  0  0
  -22.0599   -2.7608   23.2830 H   0  0  0  0  0  0
  -22.4057  -11.9860   22.4821 H   0  0  0  0  0  0
  -21.1055  -13.1222   22.2624 H   0  0  0  0  0  0
  -24.6492  -15.8505   20.5324 H   0  0  0  0  0  0
  -26.2679  -15.6331   20.0919 H   0  0  0  0  0  0
  -26.7272  -32.5309   23.1026 H   0  0  0  0  0  0
  -25.0095  -33.9627   25.0340 H   0  0  0  0  0  0
  -22.7472  -31.2948   21.3861 H   0  0  0  0  0  0
  -23.3765  -35.9577   23.3276 H   0  0  0  0  0  0
  -24.3585  -36.8914   22.2062 H   0  0  0  0  0  0
  -23.7225  -37.6437   23.6694 H   0  0  0  0  0  0
  -26.1614  -31.4788   20.6215 H   0  0  0  0  0  0
  -26.8720  -30.7669   22.0351 H   0  0  0  0  0  0
  -28.1312  -28.8018   21.2339 H   0  0  0  0  0  0
  -25.8875  -25.8773   18.9672 H   0  0  0  0  0  0
  -23.9717  -27.3197   18.9729 H   0  0  0  0  0  0
  -23.8093  -30.5813   19.4027 H   0  0  0  0  0  0
  -22.7849  -29.2489   19.8414 H   0  0  0  0  0  0
  -25.1307  -36.1866   25.0807 H   0  0  0  0  0  0
  -21.0009  -28.3304   24.1355 H   0  0  0  0  0  0
  -20.5674  -26.2337   23.3621 H   0  0  0  0  0  0
  -21.6651  -26.7427   22.1200 H   0  0  0  0  0  0
  -19.6922  -25.6287   21.1252 H   0  0  0  0  0  0
  -19.6694  -27.3180   20.6730 H   0  0  0  0  0  0
  -17.4213  -26.6673   21.4025 H   0  0  0  0  0  0
  -18.0345  -26.0078   22.9021 H   0  0  0  0  0  0
  -19.7955  -30.7286   24.2234 H   0  0  0  0  0  0
  -17.5031  -31.6267   24.5163 H   0  0  0  0  0  0
  -15.5365  -30.2976   23.7672 H   0  0  0  0  0  0
  -15.8689  -28.0811   22.7086 H   0  0  0  0  0  0
  -24.5894  -30.7108   25.7744 H   0  0  0  0  0  0
  -24.8919  -32.2933   26.4819 H   0  0  0  0  0  0
  -25.8006  -30.8940   27.0230 H   0  0  0  0  0  0
  -26.3019  -29.6676   24.1313 H   0  0  0  0  0  0
  -27.4001  -29.7261   25.4890 H   0  0  0  0  0  0
  -27.8935  -30.4189   23.9642 H   0  0  0  0  0  0
  -27.2652  -33.3651   26.2040 H   0  0  0  0  0  0
  -28.3902  -32.6864   25.0368 H   0  0  0  0  0  0
  -28.0700  -31.8497   26.5478 H   0  0  0  0  0  0
  -28.2566  -38.0108   24.7542 H   0  0  0  0  0  0
  -28.1105  -36.2638   24.6241 H   0  0  0  0  0  0
  -27.2309  -37.1370   25.8863 H   0  0  0  0  0  0
  -20.9469  -29.8773   21.6798 H   0  0  0  0  0  0
  -26.0150  -38.2815   24.1436 H   0  0  0  0  0  0
  -30.2752  -19.1467   18.4419 H   0  0  0  0  0  0
  -31.2413  -18.7827   19.8341 H   0  0  0  0  0  0
  -30.2346  -18.7291   22.0131 H   0  0  0  0  0  0
  -28.5224  -18.8912   22.1834 H   0  0  0  0  0  0
  -30.8253  -16.7251   18.5136 H   0  0  0  0  0  0
  -29.1152  -16.9603   18.5611 H   0  0  0  0  0  0
  -28.0800  -16.6832   21.2280 H   0  0  0  0  0  0
  -29.3737  -16.4580   22.3539 H   0  0  0  0  0  0
  -32.5606  -23.9445   21.1333 H   0  0  0  0  0  0
  -33.0014  -22.7032   19.9576 H   0  0  0  0  0  0
  -32.8608  -22.2909   21.6698 H   0  0  0  0  0  0
  -25.2079  -20.2984   17.2705 H   0  0  0  0  0  0
  -24.6519  -21.4577   18.4777 H   0  0  0  0  0  0
  -25.0509  -19.8021   18.9540 H   0  0  0  0  0  0
  -26.3260  -22.3300   20.1517 H   0  0  0  0  0  0
  -26.7271  -20.7053   20.6226 H   0  0  0  0  0  0
  -26.9915  -24.4802   20.6231 H   0  0  0  0  0  0
  -27.5727  -24.5465   18.9807 H   0  0  0  0  0  0
  -26.9663  -21.7529   17.8748 H   0  0  0  0  0  0
  -27.3139  -20.2305   18.3407 H   0  0  0  0  0  0
  1 25  1  0  0  0
  1 30  2  0  0  0
  1 86  1  0  0  0
  2  3  1  0  0  0
  2 25  1  0  0  0
  2 88  1  0  0  0
  2 89  1  0  0  0
  3  4  1  0  0  0
  3 90  1  0  0  0
  3 91  1  0  0  0
  4  5  1  0  0  0
  4 92  1  0  0  0
  4 93  1  0  0  0
  5  6  1  0  0  0
  5 26  1  0  0  0
  5 94  1  0  0  0
  6 25  1  0  0  0
  6 95  1  0  0  0
  6 96  1  0  0  0
  7  8  2  0  0  0
  7 26  1  0  0  0
  7 29  1  0  0  0
  8  9  1  0  0  0
  8 22  1  0  0  0
  9 10  1  0  0  0
  9 27  2  0  0  0
 10 11  2  0  0  0
 10 15  1  0  0  0
 11 12  1  0  0  0
 11 97  1  0  0  0
 12 13  2  0  0  0
 12 98  1  0  0  0
 13 14  1  0  0  0
 13 31  1  0  0  0
 14 15  2  0  0  0
 14 99  1  0  0  0
 15100  1  0  0  0
 16 17  2  0  0  0
 16 21  1  0  0  0
 16 31  1  0  0  0
 17 18  1  0  0  0
 17101  1  0  0  0
 18 19  2  0  0  0
 18102  1  0  0  0
 19 20  1  0  0  0
 19 24  1  0  0  0
 20 21  2  0  0  0
 20103  1  0  0  0
 21 23  1  0  0  0
 22 28  1  0  0  0
 22 32  2  0  0  0
 26 27  1  0  0  0
 28104  1  0  0  0
 28105  1  0  0  0
 29106  1  0  0  0
 29107  1  0  0  0
 33 34  1  0  0  0
 33 66  1  0  0  0
 33 70  2  0  0  0
 34 36  1  0  0  0
 34 59  1  0  0  0
 34108  1  0  0  0
 35 44  2  0  0  0
 35 45  1  0  0  0
 35 68  1  0  0  0
 36 56  1  0  0  0
 36109  1  0  0  0
 37 39  1  0  0  0
 37 47  1  0  0  0
 37 66  1  0  0  0
 37110  1  0  0  0
 38 43  2  0  0  0
 38 46  1  0  0  0
 38 47  1  0  0  0
 39 64  1  0  0  0
 39 67  2  0  0  0
 40 52  1  0  0  0
 40 53  2  0  0  0
 40 58  1  0  0  0
 41111  1  0  0  0
 41112  1  0  0  0
 41113  1  0  0  0
 41 48  1  0  0  0
 42 43  1  0  0  0
 42 66  1  0  0  0
 42114  1  0  0  0
 42115  1  0  0  0
 43 44  1  0  0  0
 44116  1  0  0  0
 45 46  2  0  0  0
 45117  1  0  0  0
 46118  1  0  0  0
 47119  1  0  0  0
 47120  1  0  0  0
 48 56  1  0  0  0
 48 65  1  0  0  0
 48121  1  0  0  0
 49 50  1  0  0  0
 49 53  1  0  0  0
 49 64  1  0  0  0
 49122  1  0  0  0
 50 51  1  0  0  0
 50123  1  0  0  0
 50124  1  0  0  0
 51 52  1  0  0  0
 51125  1  0  0  0
 51126  1  0  0  0
 52127  1  0  0  0
 52128  1  0  0  0
 53 54  1  0  0  0
 54 55  2  0  0  0
 54129  1  0  0  0
 55 57  1  0  0  0
 55130  1  0  0  0
 56 69  2  0  0  0
 57 58  2  0  0  0
 57131  1  0  0  0
 58132  1  0  0  0
 59 60  1  0  0  0
 59 61  1  0  0  0
 59 62  1  0  0  0
 60133  1  0  0  0
 60134  1  0  0  0
 60135  1  0  0  0
 61136  1  0  0  0
 61137  1  0  0  0
 61138  1  0  0  0
 62139  1  0  0  0
 62140  1  0  0  0
 62141  1  0  0  0
 63 65  1  0  0  0
 63142  1  0  0  0
 63143  1  0  0  0
 63144  1  0  0  0
 64145  1  0  0  0
 65146  1  0  0  0
 68 82  1  0  0  0
 71 72  2  0  0  0
 71 73  1  0  0  0
 71 81  1  0  0  0
 72 82  1  0  0  0
 72 83  1  0  0  0
 73 84  2  0  0  0
 73 85  1  0  0  0
 74 79  1  0  0  0
 74 83  2  0  0  0
 74 84  1  0  0  0
 75 77  1  0  0  0
 75 85  1  0  0  0
 75147  1  0  0  0
 75148  1  0  0  0
 76 78  1  0  0  0
 76 85  1  0  0  0
 76149  1  0  0  0
 76150  1  0  0  0
 77 86  1  0  0  0
 77151  1  0  0  0
 77152  1  0  0  0
 78 86  1  0  0  0
 78153  1  0  0  0
 78154  1  0  0  0
 79155  1  0  0  0
 79156  1  0  0  0
 79157  1  0  0  0
 80 87  1  0  0  0
 80158  1  0  0  0
 80159  1  0  0  0
 80160  1  0  0  0
 81 87  1  0  0  0
 81161  1  0  0  0
 81162  1  0  0  0
 82163  1  0  0  0
 82164  1  0  0  0
 87165  1  0  0  0
 87166  1  0  0  0
M  CHG  1  87   1
M  ISO  4   1 100  68 101  82 101  86 100
M  END
> <chiral flag>
0

> <version>
0

> <s_m_source_file>
/data/baiqing/PycharmProjects/Reinvent-master-3.2/result/LINK_invent/BTK/process_docking_weight1_custom_sum_contain_oxygen_bond_distance_aromatic_linkinvent_7_9_3/rearranged_h_0188.sdf

> <i_m_source_file_index>
40

> <r_mmod_Potential_Energy-OPLS-2005>
-9.30988311767578

> <r_mmod_Stretch_Energy-OPLS-2005>
204.334014892578

> <r_mmod_Bend_Energy-OPLS-2005>
244.958892822266

> <r_mmod_Torsional_Energy-OPLS-2005>
355.259552001953

> <r_mmod_Improper_Torsional_Energy-OPLS-2005>
21.3643188476562

> <r_mmod_Van_der_Waal_Energy-OPLS-2005>
141.993087768555

> <r_mmod_Electrostatic_Energy-OPLS-2005>
-667.508178710938

> <r_mmod_Solvation_Energy-OPLS-2005>
-483.497039794922

> <b_mmod_Minimization_Converged-OPLS-2005>
0

> <r_mmod_RMS_Derivative-OPLS-2005>
1.35656094551086

$$$$
41
                    3D
 Structure written by MMmdl.
158167  0  0  1  0            999 V2000
  -30.5944  -14.9086   20.4158 C   0  0  0  0  0  0
  -30.4192  -12.5634   19.4898 C   0  0  0  0  0  0
  -29.5084  -12.5358   18.2434 C   0  0  0  0  0  0
  -28.0362  -12.3446   18.6560 C   0  0  0  0  0  0
  -27.6251  -13.2587   19.8413 C   0  0  2  0  0  0
  -28.6715  -13.2785   20.9745 C   0  0  0  0  0  0
  -25.2424  -13.8233   20.5741 C   0  0  0  0  0  0
  -24.1756  -13.0440   20.9246 C   0  0  0  0  0  0
  -24.6390  -11.6936   20.8747 C   0  0  0  0  0  0
  -23.9091  -10.4291   21.0388 C   0  0  0  0  0  0
  -24.3627   -9.4209   21.9172 C   0  0  0  0  0  0
  -23.6310   -8.2241   22.0750 C   0  0  0  0  0  0
  -22.4291   -8.0277   21.3538 C   0  0  0  0  0  0
  -21.9933   -9.0252   20.4644 C   0  0  0  0  0  0
  -22.7255  -10.2133   20.3042 C   0  0  0  0  0  0
  -21.6861   -6.0730   22.5275 C   0  0  0  0  0  0
  -21.4017   -6.5635   23.8208 C   0  0  0  0  0  0
  -21.3670   -5.6788   24.9171 C   0  0  0  0  0  0
  -21.6048   -4.3049   24.7214 C   0  0  0  0  0  0
  -21.8816   -3.8141   23.4336 C   0  0  0  0  0  0
  -21.9191   -4.6957   22.3392 C   0  0  0  0  0  0
  -22.7781  -13.5209   21.1893 C   0  0  0  0  0  0
  -22.1655   -4.2137   21.0973 F   0  0  0  0  0  0
  -21.5642   -3.4537   25.7728 F   0  0  0  0  0  0
  -29.9436  -13.6778   20.3604 N   0  0  0  0  0  0
  -26.2865  -12.9490   20.3287 N   0  0  0  0  0  0
  -25.9324  -11.6605   20.5741 N   0  0  0  0  0  0
  -22.0427  -12.8199   22.0453 N   0  0  0  0  0  0
  -25.4068  -15.1963   20.4168 N   0  0  0  0  0  0
  -31.8016  -14.8940   20.1495 O   0  0  0  0  0  0
  -21.6650   -6.8876   21.4242 O   0  0  0  0  0  0
  -22.3459  -14.5514   20.6742 O   0  0  0  0  0  0
  -24.6411  -31.8461   23.1913 C   0  0  0  0  0  0
  -25.9181  -32.4707   23.8296 C   0  0  1  0  0  0
  -27.2125  -27.1480   20.1424 C   0  0  0  0  0  0
  -25.5941  -33.8518   24.2201 N   0  0  0  0  0  0
  -23.4456  -30.4662   21.5366 C   0  0  2  0  0  0
  -24.8956  -28.9026   20.1065 C   0  0  0  0  0  0
  -22.7567  -29.4544   22.4869 C   0  0  0  0  0  0
  -18.0306  -28.1401   22.8495 C   0  0  0  0  0  0
  -24.1483  -36.7252   23.2640 C   0  0  0  0  0  0
  -26.0021  -30.7210   21.3944 C   0  0  0  0  0  0
  -26.0718  -29.3353   20.7317 C   0  0  0  0  0  0
  -27.2301  -28.4717   20.7391 C   0  0  0  0  0  0
  -26.0136  -26.8250   19.4652 C   0  0  0  0  0  0
  -24.8797  -27.6611   19.4566 C   0  0  0  0  0  0
  -23.6721  -29.8021   20.1532 C   0  0  0  0  0  0
  -25.4114  -36.3039   24.0320 C   0  0  1  0  0  0
  -20.5920  -28.3717   23.1255 C   0  0  2  0  0  0
  -20.6791  -26.9419   22.5419 C   0  0  0  0  0  0
  -19.5756  -26.6380   21.5236 C   0  0  0  0  0  0
  -18.1937  -26.7942   22.1641 C   0  0  0  0  0  0
  -19.1563  -28.8879   23.2866 C   0  0  0  0  0  0
  -18.9473  -30.1480   23.8882 C   0  0  0  0  0  0
  -17.6470  -30.6597   24.0562 C   0  0  0  0  0  0
  -25.9073  -34.9419   23.5075 C   0  0  0  0  0  0
  -16.5360  -29.9087   23.6340 C   0  0  0  0  0  0
  -16.7288  -28.6511   23.0363 C   0  0  0  0  0  0
  -26.4496  -31.6581   25.0744 C   0  0  0  0  0  0
  -25.3673  -31.3789   26.1435 C   0  0  0  0  0  0
  -27.0361  -30.2971   24.6343 C   0  0  0  0  0  0
  -27.6015  -32.4366   25.7529 C   0  0  0  0  0  0
  -27.5595  -37.1757   24.8438 C   0  0  0  0  0  0
  -21.4267  -29.3029   22.3613 N   0  0  0  0  0  0
  -26.4260  -37.3772   23.9449 N   0  0  0  0  0  0
  -24.7150  -31.0319   22.0957 N   0  0  0  0  0  0
  -23.4217  -28.8092   23.3016 O   0  0  0  0  0  0
  -28.2511  -26.1522   20.2348 O   0  0  0  0  0  0
  -26.5664  -34.8912   22.4653 O   0  0  0  0  0  0
  -23.5523  -32.1342   23.7129 O   0  0  0  0  0  0
  -30.5240  -22.4888   21.6502 C   0  0  0  0  0  0
  -28.5400  -21.9358   19.9943 C   0  0  0  0  0  0
  -28.8032  -23.3383   20.3793 C   0  0  0  0  0  0
  -29.3608  -20.8319   20.5302 C   0  0  0  0  0  0
  -30.3795  -18.7128   19.5703 C   0  0  0  0  0  0
  -29.1118  -18.4441   21.4732 C   0  0  0  0  0  0
  -30.2013  -17.1593   19.2019 C   0  0  0  0  0  0
  -28.9432  -16.8503   21.2045 C   0  0  0  0  0  0
  -27.7691  -20.9851   17.9610 C   0  0  0  0  0  0
  -27.9440  -24.6603   19.9211 C   0  0  0  0  0  0
  -29.8323  -23.5483   21.2217 N   0  0  0  0  0  0
  -30.3492  -21.1941   21.3637 N   0  0  0  0  0  0
  -29.2596  -19.3640   20.3001 N   0  0  0  0  0  0
  -29.9036  -16.1532   20.2825 N   0  0  0  0  0  0
  -27.4784  -21.7146   19.1479 O   0  0  0  0  0  0
  -31.4584  -12.6836   19.1840 H   0  0  0  0  0  0
  -30.3804  -11.6091   20.0181 H   0  0  0  0  0  0
  -29.8177  -11.7428   17.5619 H   0  0  0  0  0  0
  -29.6142  -13.4727   17.6917 H   0  0  0  0  0  0
  -27.9053  -11.2986   18.9340 H   0  0  0  0  0  0
  -27.3793  -12.5161   17.8015 H   0  0  0  0  0  0
  -27.5914  -14.2693   19.4335 H   0  0  0  0  0  0
  -28.7513  -12.3013   21.4529 H   0  0  0  0  0  0
  -28.3835  -13.9824   21.7554 H   0  0  0  0  0  0
  -25.2751   -9.5702   22.4768 H   0  0  0  0  0  0
  -24.0019   -7.4635   22.7470 H   0  0  0  0  0  0
  -21.0860   -8.8772   19.8952 H   0  0  0  0  0  0
  -22.3698  -10.9678   19.6168 H   0  0  0  0  0  0
  -21.2011   -7.6140   23.9717 H   0  0  0  0  0  0
  -21.1510   -6.0507   25.9081 H   0  0  0  0  0  0
  -22.0592   -2.7604   23.2824 H   0  0  0  0  0  0
  -22.4041  -11.9856   22.4835 H   0  0  0  0  0  0
  -21.1045  -13.1220   22.2639 H   0  0  0  0  0  0
  -24.6419  -15.8491   20.5428 H   0  0  0  0  0  0
  -26.2537  -15.6388   20.0865 H   0  0  0  0  0  0
  -26.7257  -32.5322   23.1035 H   0  0  0  0  0  0
  -25.0045  -33.9640   25.0318 H   0  0  0  0  0  0
  -22.7477  -31.2926   21.3857 H   0  0  0  0  0  0
  -23.3793  -35.9526   23.3195 H   0  0  0  0  0  0
  -24.3596  -36.8993   22.2077 H   0  0  0  0  0  0
  -23.7154  -37.6380   23.6747 H   0  0  0  0  0  0
  -26.1634  -31.4808   20.6283 H   0  0  0  0  0  0
  -26.8694  -30.7656   22.0408 H   0  0  0  0  0  0
  -28.1208  -28.7913   21.2617 H   0  0  0  0  0  0
  -25.9079  -25.8832   18.9484 H   0  0  0  0  0  0
  -23.9849  -27.3332   18.9443 H   0  0  0  0  0  0
  -23.8081  -30.5801   19.4004 H   0  0  0  0  0  0
  -22.7885  -29.2433   19.8401 H   0  0  0  0  0  0
  -25.1284  -36.1855   25.0804 H   0  0  0  0  0  0
  -21.0018  -28.3304   24.1375 H   0  0  0  0  0  0
  -20.5717  -26.2323   23.3633 H   0  0  0  0  0  0
  -21.6651  -26.7442   22.1193 H   0  0  0  0  0  0
  -19.6910  -25.6291   21.1273 H   0  0  0  0  0  0
  -19.6692  -27.3185   20.6763 H   0  0  0  0  0  0
  -17.4214  -26.6709   21.4030 H   0  0  0  0  0  0
  -18.0308  -26.0086   22.9034 H   0  0  0  0  0  0
  -19.7950  -30.7306   24.2237 H   0  0  0  0  0  0
  -17.5020  -31.6273   24.5170 H   0  0  0  0  0  0
  -15.5361  -30.2977   23.7679 H   0  0  0  0  0  0
  -15.8693  -28.0819   22.7081 H   0  0  0  0  0  0
  -24.5787  -30.7228   25.7732 H   0  0  0  0  0  0
  -24.8939  -32.2992   26.4871 H   0  0  0  0  0  0
  -25.7917  -30.8908   27.0217 H   0  0  0  0  0  0
  -26.2976  -29.6696   24.1341 H   0  0  0  0  0  0
  -27.3945  -29.7275   25.4928 H   0  0  0  0  0  0
  -27.8903  -30.4194   23.9680 H   0  0  0  0  0  0
  -27.2570  -33.3663   26.2074 H   0  0  0  0  0  0
  -28.3830  -32.6947   25.0371 H   0  0  0  0  0  0
  -28.0682  -31.8532   26.5476 H   0  0  0  0  0  0
  -28.2491  -38.0175   24.7665 H   0  0  0  0  0  0
  -28.1210  -36.2720   24.6022 H   0  0  0  0  0  0
  -27.2358  -37.1105   25.8840 H   0  0  0  0  0  0
  -20.9480  -29.8713   21.6767 H   0  0  0  0  0  0
  -26.0118  -38.2811   24.1561 H   0  0  0  0  0  0
  -31.3302  -22.7091   22.3339 H   0  0  0  0  0  0
  -30.5577  -19.2751   18.6520 H   0  0  0  0  0  0
  -31.2926  -18.8279   20.1588 H   0  0  0  0  0  0
  -29.9829  -18.5837   22.1176 H   0  0  0  0  0  0
  -28.2666  -18.7906   22.0695 H   0  0  0  0  0  0
  -31.0767  -16.8357   18.6362 H   0  0  0  0  0  0
  -29.3771  -17.0870   18.4912 H   0  0  0  0  0  0
  -27.9491  -16.6928   20.7858 H   0  0  0  0  0  0
  -28.9391  -16.3279   22.1612 H   0  0  0  0  0  0
  -26.9708  -21.1649   17.2377 H   0  0  0  0  0  0
  -27.8107  -19.9103   18.1377 H   0  0  0  0  0  0
  -28.7049  -21.3130   17.5022 H   0  0  0  0  0  0
  -26.9459  -24.4496   20.3043 H   0  0  0  0  0  0
  -27.8650  -24.5899   18.8356 H   0  0  0  0  0  0
  1 25  1  0  0  0
  1 30  2  0  0  0
  1 84  1  0  0  0
  2  3  1  0  0  0
  2 25  1  0  0  0
  2 86  1  0  0  0
  2 87  1  0  0  0
  3  4  1  0  0  0
  3 88  1  0  0  0
  3 89  1  0  0  0
  4  5  1  0  0  0
  4 90  1  0  0  0
  4 91  1  0  0  0
  5  6  1  0  0  0
  5 26  1  0  0  0
  5 92  1  0  0  0
  6 25  1  0  0  0
  6 93  1  0  0  0
  6 94  1  0  0  0
  7  8  2  0  0  0
  7 26  1  0  0  0
  7 29  1  0  0  0
  8  9  1  0  0  0
  8 22  1  0  0  0
  9 10  1  0  0  0
  9 27  2  0  0  0
 10 11  2  0  0  0
 10 15  1  0  0  0
 11 12  1  0  0  0
 11 95  1  0  0  0
 12 13  2  0  0  0
 12 96  1  0  0  0
 13 14  1  0  0  0
 13 31  1  0  0  0
 14 15  2  0  0  0
 14 97  1  0  0  0
 15 98  1  0  0  0
 16 17  2  0  0  0
 16 21  1  0  0  0
 16 31  1  0  0  0
 17 18  1  0  0  0
 17 99  1  0  0  0
 18 19  2  0  0  0
 18100  1  0  0  0
 19 20  1  0  0  0
 19 24  1  0  0  0
 20 21  2  0  0  0
 20101  1  0  0  0
 21 23  1  0  0  0
 22 28  1  0  0  0
 22 32  2  0  0  0
 26 27  1  0  0  0
 28102  1  0  0  0
 28103  1  0  0  0
 29104  1  0  0  0
 29105  1  0  0  0
 33 34  1  0  0  0
 33 66  1  0  0  0
 33 70  2  0  0  0
 34 36  1  0  0  0
 34 59  1  0  0  0
 34106  1  0  0  0
 35 44  2  0  0  0
 35 45  1  0  0  0
 35 68  1  0  0  0
 36 56  1  0  0  0
 36107  1  0  0  0
 37 39  1  0  0  0
 37 47  1  0  0  0
 37 66  1  0  0  0
 37108  1  0  0  0
 38 43  2  0  0  0
 38 46  1  0  0  0
 38 47  1  0  0  0
 39 64  1  0  0  0
 39 67  2  0  0  0
 40 52  1  0  0  0
 40 53  2  0  0  0
 40 58  1  0  0  0
 41109  1  0  0  0
 41110  1  0  0  0
 41111  1  0  0  0
 41 48  1  0  0  0
 42 43  1  0  0  0
 42 66  1  0  0  0
 42112  1  0  0  0
 42113  1  0  0  0
 43 44  1  0  0  0
 44114  1  0  0  0
 45 46  2  0  0  0
 45115  1  0  0  0
 46116  1  0  0  0
 47117  1  0  0  0
 47118  1  0  0  0
 48 56  1  0  0  0
 48 65  1  0  0  0
 48119  1  0  0  0
 49 50  1  0  0  0
 49 53  1  0  0  0
 49 64  1  0  0  0
 49120  1  0  0  0
 50 51  1  0  0  0
 50121  1  0  0  0
 50122  1  0  0  0
 51 52  1  0  0  0
 51123  1  0  0  0
 51124  1  0  0  0
 52125  1  0  0  0
 52126  1  0  0  0
 53 54  1  0  0  0
 54 55  2  0  0  0
 54127  1  0  0  0
 55 57  1  0  0  0
 55128  1  0  0  0
 56 69  2  0  0  0
 57 58  2  0  0  0
 57129  1  0  0  0
 58130  1  0  0  0
 59 60  1  0  0  0
 59 61  1  0  0  0
 59 62  1  0  0  0
 60131  1  0  0  0
 60132  1  0  0  0
 60133  1  0  0  0
 61134  1  0  0  0
 61135  1  0  0  0
 61136  1  0  0  0
 62137  1  0  0  0
 62138  1  0  0  0
 62139  1  0  0  0
 63 65  1  0  0  0
 63140  1  0  0  0
 63141  1  0  0  0
 63142  1  0  0  0
 64143  1  0  0  0
 65144  1  0  0  0
 68 80  1  0  0  0
 71 81  2  0  0  0
 71 82  1  0  0  0
 71145  1  0  0  0
 72 73  2  0  0  0
 72 74  1  0  0  0
 72 85  1  0  0  0
 73 80  1  0  0  0
 73 81  1  0  0  0
 74 82  2  0  0  0
 74 83  1  0  0  0
 75 77  1  0  0  0
 75 83  1  0  0  0
 75146  1  0  0  0
 75147  1  0  0  0
 76 78  1  0  0  0
 76 83  1  0  0  0
 76148  1  0  0  0
 76149  1  0  0  0
 77 84  1  0  0  0
 77150  1  0  0  0
 77151  1  0  0  0
 78 84  1  0  0  0
 78152  1  0  0  0
 78153  1  0  0  0
 79 85  1  0  0  0
 79154  1  0  0  0
 79155  1  0  0  0
 79156  1  0  0  0
 80157  1  0  0  0
 80158  1  0  0  0
M  ISO  4   1 100  68 101  80 101  84 100
M  END
> <chiral flag>
0

> <version>
0

> <s_m_source_file>
/data/baiqing/PycharmProjects/Reinvent-master-3.2/result/LINK_invent/BTK/process_docking_weight1_custom_sum_contain_oxygen_bond_distance_aromatic_linkinvent_7_9_3/rearranged_h_0188.sdf

> <i_m_source_file_index>
41

> <r_mmod_Potential_Energy-OPLS-2005>
238.035842895508

> <r_mmod_Stretch_Energy-OPLS-2005>
205.277236938477

> <r_mmod_Bend_Energy-OPLS-2005>
247.884460449219

> <r_mmod_Torsional_Energy-OPLS-2005>
377.068817138672

> <r_mmod_Improper_Torsional_Energy-OPLS-2005>
21.4368839263916

> <r_mmod_Van_der_Waal_Energy-OPLS-2005>
147.11669921875

> <r_mmod_Electrostatic_Energy-OPLS-2005>
-702.561462402344

> <r_mmod_Solvation_Energy-OPLS-2005>
-233.316223144531

> <b_mmod_Minimization_Converged-OPLS-2005>
0

> <r_mmod_RMS_Derivative-OPLS-2005>
2.25568652153015

$$$$
42
                    3D
 Structure written by MMmdl.
159168  0  0  1  0            999 V2000
  -30.7205  -14.4927   20.5114 C   0  0  0  0  0  0
  -30.4097  -12.3034   19.4404 C   0  0  0  0  0  0
  -29.4955  -12.4907   18.2133 C   0  0  0  0  0  0
  -28.0160  -12.3563   18.6232 C   0  0  0  0  0  0
  -27.6549  -13.2168   19.8649 C   0  0  2  0  0  0
  -28.6989  -13.0552   20.9943 C   0  0  0  0  0  0
  -25.2560  -13.8181   20.5686 C   0  0  0  0  0  0
  -24.1829  -13.0441   20.9195 C   0  0  0  0  0  0
  -24.6393  -11.6917   20.8735 C   0  0  0  0  0  0
  -23.9058  -10.4294   21.0398 C   0  0  0  0  0  0
  -24.3613   -9.4210   21.9175 C   0  0  0  0  0  0
  -23.6292   -8.2243   22.0751 C   0  0  0  0  0  0
  -22.4269   -8.0276   21.3547 C   0  0  0  0  0  0
  -21.9904   -9.0247   20.4648 C   0  0  0  0  0  0
  -22.7231  -10.2126   20.3051 C   0  0  0  0  0  0
  -21.6851   -6.0730   22.5278 C   0  0  0  0  0  0
  -21.4015   -6.5635   23.8210 C   0  0  0  0  0  0
  -21.3666   -5.6793   24.9173 C   0  0  0  0  0  0
  -21.6048   -4.3054   24.7227 C   0  0  0  0  0  0
  -21.8821   -3.8145   23.4348 C   0  0  0  0  0  0
  -21.9194   -4.6959   22.3403 C   0  0  0  0  0  0
  -22.7845  -13.5226   21.1855 C   0  0  0  0  0  0
  -22.1659   -4.2147   21.0983 F   0  0  0  0  0  0
  -21.5639   -3.4540   25.7739 F   0  0  0  0  0  0
  -30.0258  -13.3265   20.4262 N   0  0  0  0  0  0
  -26.2995  -12.9373   20.3332 N   0  0  0  0  0  0
  -25.9324  -11.6522   20.5762 N   0  0  0  0  0  0
  -22.0492  -12.8220   22.0414 N   0  0  0  0  0  0
  -25.4259  -15.1898   20.4089 N   0  0  0  0  0  0
  -31.8957  -14.5855   20.1526 O   0  0  0  0  0  0
  -21.6640   -6.8869   21.4236 O   0  0  0  0  0  0
  -22.3528  -14.5529   20.6692 O   0  0  0  0  0  0
  -24.6168  -31.8678   23.2113 C   0  0  0  0  0  0
  -25.9052  -32.4822   23.8408 C   0  0  1  0  0  0
  -27.2213  -27.4057   20.0966 C   0  0  0  0  0  0
  -25.5908  -33.8624   24.2333 N   0  0  0  0  0  0
  -23.4052  -30.4938   21.5536 C   0  0  2  0  0  0
  -24.8491  -28.9658   20.1132 C   0  0  0  0  0  0
  -22.7429  -29.4648   22.4991 C   0  0  0  0  0  0
  -18.0274  -28.1371   22.8491 C   0  0  0  0  0  0
  -24.1490  -36.7315   23.2634 C   0  0  0  0  0  0
  -25.9391  -30.8249   21.3697 C   0  0  0  0  0  0
  -26.0144  -29.4601   20.7120 C   0  0  0  0  0  0
  -27.2048  -28.6899   20.6984 C   0  0  0  0  0  0
  -26.0326  -26.9464   19.4769 C   0  0  0  0  0  0
  -24.8551  -27.7102   19.4907 C   0  0  0  0  0  0
  -23.6140  -29.8346   20.1660 C   0  0  0  0  0  0
  -25.4110  -36.3112   24.0333 C   0  0  1  0  0  0
  -20.5867  -28.3657   23.1322 C   0  0  2  0  0  0
  -20.6767  -26.9394   22.5421 C   0  0  0  0  0  0
  -19.5746  -26.6380   21.5218 C   0  0  0  0  0  0
  -18.1922  -26.7919   22.1622 C   0  0  0  0  0  0
  -19.1523  -28.8833   23.2899 C   0  0  0  0  0  0
  -18.9446  -30.1442   23.8903 C   0  0  0  0  0  0
  -17.6447  -30.6576   24.0563 C   0  0  0  0  0  0
  -25.9038  -34.9475   23.5127 C   0  0  0  0  0  0
  -16.5339  -29.9074   23.6329 C   0  0  0  0  0  0
  -16.7261  -28.6494   23.0346 C   0  0  0  0  0  0
  -26.4479  -31.6596   25.0731 C   0  0  0  0  0  0
  -25.3750  -31.3701   26.1484 C   0  0  0  0  0  0
  -27.0290  -30.3031   24.6101 C   0  0  0  0  0  0
  -27.6063  -32.4307   25.7486 C   0  0  0  0  0  0
  -27.5585  -37.1809   24.8461 C   0  0  0  0  0  0
  -21.4153  -29.3024   22.3733 N   0  0  0  0  0  0
  -26.4294  -37.3797   23.9410 N   0  0  0  0  0  0
  -24.6721  -31.0763   22.1026 N   0  0  0  0  0  0
  -23.4202  -28.8173   23.3018 O   0  0  0  0  0  0
  -28.3639  -26.6169   20.1392 O   0  0  0  0  0  0
  -26.5597  -34.8924   22.4687 O   0  0  0  0  0  0
  -23.5352  -32.1435   23.7495 O   0  0  0  0  0  0
  -30.7630  -17.1814   18.9362 C   0  0  0  0  0  0
  -29.7949  -21.4899   18.8054 C   0  0  0  0  0  0
  -30.1807  -18.5584   18.6264 C   0  0  0  0  0  0
  -29.6132  -18.1733   20.7980 C   0  0  0  0  0  0
  -29.3209  -20.4632   19.8277 C   0  0  2  0  0  0
  -30.5188  -16.9689   20.4364 C   0  0  1  0  0  0
  -29.8992  -21.8202   20.2668 C   0  0  2  0  0  0
  -29.3308  -24.2780   20.4873 C   0  0  0  0  0  0
  -28.1303  -25.1859   20.1200 C   0  0  0  0  0  0
  -30.1313  -19.2366   19.9216 N   0  0  0  0  0  0
  -30.0037  -15.6141   20.7476 N   0  0  0  0  0  0
  -28.9116  -22.8533   20.6831 N   0  3  0  0  0  0
  -31.4590  -12.3702   19.1469 H   0  0  0  0  0  0
  -30.2834  -11.3063   19.8659 H   0  0  0  0  0  0
  -29.7401  -11.7562   17.4450 H   0  0  0  0  0  0
  -29.6698  -13.4709   17.7662 H   0  0  0  0  0  0
  -27.8301  -11.3028   18.8357 H   0  0  0  0  0  0
  -27.3667  -12.6143   17.7859 H   0  0  0  0  0  0
  -27.6805  -14.2556   19.5351 H   0  0  0  0  0  0
  -28.6741  -12.0432   21.4010 H   0  0  0  0  0  0
  -28.4770  -13.7222   21.8291 H   0  0  0  0  0  0
  -25.2756   -9.5695   22.4747 H   0  0  0  0  0  0
  -24.0010   -7.4638   22.7469 H   0  0  0  0  0  0
  -21.0836   -8.8753   19.8951 H   0  0  0  0  0  0
  -22.3679  -10.9659   19.6158 H   0  0  0  0  0  0
  -21.1997   -7.6141   23.9714 H   0  0  0  0  0  0
  -21.1491   -6.0519   25.9078 H   0  0  0  0  0  0
  -22.0594   -2.7607   23.2847 H   0  0  0  0  0  0
  -22.4097  -11.9873   22.4797 H   0  0  0  0  0  0
  -21.1107  -13.1243   22.2621 H   0  0  0  0  0  0
  -24.6567  -15.8420   20.5180 H   0  0  0  0  0  0
  -26.2718  -15.6294   20.0703 H   0  0  0  0  0  0
  -26.7117  -32.5526   23.1165 H   0  0  0  0  0  0
  -25.0090  -33.9797   25.0500 H   0  0  0  0  0  0
  -22.6934  -31.3107   21.4182 H   0  0  0  0  0  0
  -23.3753  -35.9646   23.3294 H   0  0  0  0  0  0
  -24.3587  -36.8933   22.2048 H   0  0  0  0  0  0
  -23.7239  -37.6516   23.6654 H   0  0  0  0  0  0
  -26.0561  -31.5908   20.6021 H   0  0  0  0  0  0
  -26.8256  -30.8754   21.9899 H   0  0  0  0  0  0
  -28.1006  -29.0639   21.1744 H   0  0  0  0  0  0
  -25.9772  -25.9943   18.9719 H   0  0  0  0  0  0
  -23.9607  -27.3278   19.0177 H   0  0  0  0  0  0
  -23.7264  -30.6127   19.4104 H   0  0  0  0  0  0
  -22.7370  -29.2580   19.8664 H   0  0  0  0  0  0
  -25.1287  -36.1975   25.0825 H   0  0  0  0  0  0
  -20.9950  -28.3215   24.1446 H   0  0  0  0  0  0
  -20.5679  -26.2260   23.3605 H   0  0  0  0  0  0
  -21.6636  -26.7444   22.1206 H   0  0  0  0  0  0
  -19.6907  -25.6296   21.1234 H   0  0  0  0  0  0
  -19.6687  -27.3205   20.6762 H   0  0  0  0  0  0
  -17.4199  -26.6673   21.4016 H   0  0  0  0  0  0
  -18.0311  -26.0054   22.9010 H   0  0  0  0  0  0
  -19.7920  -30.7262   24.2269 H   0  0  0  0  0  0
  -17.4997  -31.6256   24.5162 H   0  0  0  0  0  0
  -15.5339  -30.2973   23.7651 H   0  0  0  0  0  0
  -15.8661  -28.0817   22.7051 H   0  0  0  0  0  0
  -24.5921  -30.7047   25.7827 H   0  0  0  0  0  0
  -24.8947  -32.2855   26.4950 H   0  0  0  0  0  0
  -25.8110  -30.8861   27.0232 H   0  0  0  0  0  0
  -26.2816  -29.6803   24.1167 H   0  0  0  0  0  0
  -27.4067  -29.7254   25.4547 H   0  0  0  0  0  0
  -27.8662  -30.4339   23.9239 H   0  0  0  0  0  0
  -27.2699  -33.3615   26.2064 H   0  0  0  0  0  0
  -28.3872  -32.6843   25.0305 H   0  0  0  0  0  0
  -28.0727  -31.8423   26.5398 H   0  0  0  0  0  0
  -28.2597  -38.0112   24.7522 H   0  0  0  0  0  0
  -28.1086  -36.2644   24.6270 H   0  0  0  0  0  0
  -27.2306  -37.1436   25.8864 H   0  0  0  0  0  0
  -20.9312  -29.8764   21.6973 H   0  0  0  0  0  0
  -26.0181  -38.2871   24.1423 H   0  0  0  0  0  0
  -31.8317  -17.1522   18.7192 H   0  0  0  0  0  0
  -30.2838  -16.4252   18.3116 H   0  0  0  0  0  0
  -29.0297  -21.9826   18.2074 H   0  0  0  0  0  0
  -30.7385  -21.3282   18.2873 H   0  0  0  0  0  0
  -29.1734  -18.4517   18.2180 H   0  0  0  0  0  0
  -30.7820  -19.0899   17.8881 H   0  0  0  0  0  0
  -29.6809  -18.4469   21.8520 H   0  0  0  0  0  0
  -28.5672  -17.9620   20.5660 H   0  0  0  0  0  0
  -28.2374  -20.3602   19.8849 H   0  0  0  0  0  0
  -31.4661  -17.1034   20.9641 H   0  0  0  0  0  0
  -30.8761  -21.8789   20.7447 H   0  0  0  0  0  0
  -29.8061  -24.6304   21.4025 H   0  0  0  0  0  0
  -30.0800  -24.3468   19.6983 H   0  0  0  0  0  0
  -27.3149  -24.9634   20.8113 H   0  0  0  0  0  0
  -27.8001  -24.8924   19.1229 H   0  0  0  0  0  0
  -29.0351  -15.5133   21.0079 H   0  0  0  0  0  0
  -28.6854  -22.7103   21.6558 H   0  0  0  0  0  0
  -28.0644  -22.6887   20.1644 H   0  0  0  0  0  0
  1 25  1  0  0  0
  1 30  2  0  0  0
  1 81  1  0  0  0
  2  3  1  0  0  0
  2 25  1  0  0  0
  2 83  1  0  0  0
  2 84  1  0  0  0
  3  4  1  0  0  0
  3 85  1  0  0  0
  3 86  1  0  0  0
  4  5  1  0  0  0
  4 87  1  0  0  0
  4 88  1  0  0  0
  5  6  1  0  0  0
  5 26  1  0  0  0
  5 89  1  0  0  0
  6 25  1  0  0  0
  6 90  1  0  0  0
  6 91  1  0  0  0
  7  8  2  0  0  0
  7 26  1  0  0  0
  7 29  1  0  0  0
  8  9  1  0  0  0
  8 22  1  0  0  0
  9 10  1  0  0  0
  9 27  2  0  0  0
 10 11  2  0  0  0
 10 15  1  0  0  0
 11 12  1  0  0  0
 11 92  1  0  0  0
 12 13  2  0  0  0
 12 93  1  0  0  0
 13 14  1  0  0  0
 13 31  1  0  0  0
 14 15  2  0  0  0
 14 94  1  0  0  0
 15 95  1  0  0  0
 16 17  2  0  0  0
 16 21  1  0  0  0
 16 31  1  0  0  0
 17 18  1  0  0  0
 17 96  1  0  0  0
 18 19  2  0  0  0
 18 97  1  0  0  0
 19 20  1  0  0  0
 19 24  1  0  0  0
 20 21  2  0  0  0
 20 98  1  0  0  0
 21 23  1  0  0  0
 22 28  1  0  0  0
 22 32  2  0  0  0
 26 27  1  0  0  0
 28 99  1  0  0  0
 28100  1  0  0  0
 29101  1  0  0  0
 29102  1  0  0  0
 33 34  1  0  0  0
 33 66  1  0  0  0
 33 70  2  0  0  0
 34 36  1  0  0  0
 34 59  1  0  0  0
 34103  1  0  0  0
 35 44  2  0  0  0
 35 45  1  0  0  0
 35 68  1  0  0  0
 36 56  1  0  0  0
 36104  1  0  0  0
 37 39  1  0  0  0
 37 47  1  0  0  0
 37 66  1  0  0  0
 37105  1  0  0  0
 38 43  2  0  0  0
 38 46  1  0  0  0
 38 47  1  0  0  0
 39 64  1  0  0  0
 39 67  2  0  0  0
 40 52  1  0  0  0
 40 53  2  0  0  0
 40 58  1  0  0  0
 41106  1  0  0  0
 41107  1  0  0  0
 41108  1  0  0  0
 41 48  1  0  0  0
 42 43  1  0  0  0
 42 66  1  0  0  0
 42109  1  0  0  0
 42110  1  0  0  0
 43 44  1  0  0  0
 44111  1  0  0  0
 45 46  2  0  0  0
 45112  1  0  0  0
 46113  1  0  0  0
 47114  1  0  0  0
 47115  1  0  0  0
 48 56  1  0  0  0
 48 65  1  0  0  0
 48116  1  0  0  0
 49 50  1  0  0  0
 49 53  1  0  0  0
 49 64  1  0  0  0
 49117  1  0  0  0
 50 51  1  0  0  0
 50118  1  0  0  0
 50119  1  0  0  0
 51 52  1  0  0  0
 51120  1  0  0  0
 51121  1  0  0  0
 52122  1  0  0  0
 52123  1  0  0  0
 53 54  1  0  0  0
 54 55  2  0  0  0
 54124  1  0  0  0
 55 57  1  0  0  0
 55125  1  0  0  0
 56 69  2  0  0  0
 57 58  2  0  0  0
 57126  1  0  0  0
 58127  1  0  0  0
 59 60  1  0  0  0
 59 61  1  0  0  0
 59 62  1  0  0  0
 60128  1  0  0  0
 60129  1  0  0  0
 60130  1  0  0  0
 61131  1  0  0  0
 61132  1  0  0  0
 61133  1  0  0  0
 62134  1  0  0  0
 62135  1  0  0  0
 62136  1  0  0  0
 63 65  1  0  0  0
 63137  1  0  0  0
 63138  1  0  0  0
 63139  1  0  0  0
 64140  1  0  0  0
 65141  1  0  0  0
 68 79  1  0  0  0
 71 73  1  0  0  0
 71 76  1  0  0  0
 71142  1  0  0  0
 71143  1  0  0  0
 72 75  1  0  0  0
 72 77  1  0  0  0
 72144  1  0  0  0
 72145  1  0  0  0
 73146  1  0  0  0
 73147  1  0  0  0
 73 80  1  0  0  0
 74 76  1  0  0  0
 74 80  1  0  0  0
 74148  1  0  0  0
 74149  1  0  0  0
 75 77  1  0  0  0
 75 80  1  0  0  0
 75150  1  0  0  0
 76 81  1  0  0  0
 76151  1  0  0  0
 77 82  1  0  0  0
 77152  1  0  0  0
 78 79  1  0  0  0
 78 82  1  0  0  0
 78153  1  0  0  0
 78154  1  0  0  0
 79155  1  0  0  0
 79156  1  0  0  0
 81157  1  0  0  0
 82158  1  0  0  0
 82159  1  0  0  0
M  CHG  1  82   1
M  ISO  4   1 100  68 101  79 101  81 100
M  END
> <chiral flag>
0

> <version>
0

> <s_m_source_file>
/data/baiqing/PycharmProjects/Reinvent-master-3.2/result/LINK_invent/BTK/process_docking_weight1_custom_sum_contain_oxygen_bond_distance_aromatic_linkinvent_7_9_3/rearranged_h_0188.sdf

> <i_m_source_file_index>
42

> <r_mmod_Potential_Energy-OPLS-2005>
-119.204727172852

> <r_mmod_Stretch_Energy-OPLS-2005>
41.4213638305664

> <r_mmod_Bend_Energy-OPLS-2005>
127.856285095215

> <r_mmod_Torsional_Energy-OPLS-2005>
306.589477539062

> <r_mmod_Improper_Torsional_Energy-OPLS-2005>
6.42344379425049

> <r_mmod_Van_der_Waal_Energy-OPLS-2005>
137.419128417969

> <r_mmod_Electrostatic_Energy-OPLS-2005>
-288.693664550781

> <r_mmod_Solvation_Energy-OPLS-2005>
-472.985473632812

> <b_mmod_Minimization_Converged-OPLS-2005>
0

> <r_mmod_RMS_Derivative-OPLS-2005>
0.993541240692139

$$$$
43
                    3D
 Structure written by MMmdl.
162171  0  0  1  0            999 V2000
  -30.7361  -14.4134   20.6382 C   0  0  0  0  0  0
  -30.4191  -12.2886   19.4292 C   0  0  0  0  0  0
  -29.4991  -12.5110   18.2133 C   0  0  0  0  0  0
  -28.0204  -12.3704   18.6188 C   0  0  0  0  0  0
  -27.6662  -13.2075   19.8764 C   0  0  2  0  0  0
  -28.6964  -12.9825   21.0050 C   0  0  0  0  0  0
  -25.2633  -13.8188   20.5653 C   0  0  0  0  0  0
  -24.1892  -13.0468   20.9179 C   0  0  0  0  0  0
  -24.6425  -11.6933   20.8755 C   0  0  0  0  0  0
  -23.9070  -10.4316   21.0436 C   0  0  0  0  0  0
  -24.3633   -9.4200   21.9198 C   0  0  0  0  0  0
  -23.6302   -8.2230   22.0772 C   0  0  0  0  0  0
  -22.4291   -8.0282   21.3547 C   0  0  0  0  0  0
  -21.9898   -9.0267   20.4677 C   0  0  0  0  0  0
  -22.7228  -10.2154   20.3076 C   0  0  0  0  0  0
  -21.6865   -6.0718   22.5268 C   0  0  0  0  0  0
  -21.4031   -6.5623   23.8200 C   0  0  0  0  0  0
  -21.3659   -5.6787   24.9165 C   0  0  0  0  0  0
  -21.6076   -4.3057   24.7226 C   0  0  0  0  0  0
  -21.8837   -3.8138   23.4349 C   0  0  0  0  0  0
  -21.9215   -4.6952   22.3397 C   0  0  0  0  0  0
  -22.7914  -13.5267   21.1822 C   0  0  0  0  0  0
  -22.1677   -4.2125   21.0975 F   0  0  0  0  0  0
  -21.5617   -3.4537   25.7739 F   0  0  0  0  0  0
  -30.0380  -13.2599   20.4643 N   0  0  0  0  0  0
  -26.3068  -12.9353   20.3370 N   0  0  0  0  0  0
  -25.9342  -11.6513   20.5783 N   0  0  0  0  0  0
  -22.0617  -12.8304   22.0469 N   0  0  0  0  0  0
  -25.4308  -15.1872   20.3937 N   0  0  0  0  0  0
  -31.8082  -14.6470   20.0734 O   0  0  0  0  0  0
  -21.6664   -6.8867   21.4222 O   0  0  0  0  0  0
  -22.3519  -14.5497   20.6581 O   0  0  0  0  0  0
  -24.6097  -31.8695   23.2147 C   0  0  0  0  0  0
  -25.9011  -32.4844   23.8432 C   0  0  1  0  0  0
  -27.2355  -27.4618   20.1129 C   0  0  0  0  0  0
  -25.5885  -33.8648   24.2363 N   0  0  0  0  0  0
  -23.3994  -30.4948   21.5493 C   0  0  2  0  0  0
  -24.8502  -28.9675   20.1145 C   0  0  0  0  0  0
  -22.7397  -29.4665   22.4982 C   0  0  0  0  0  0
  -18.0296  -28.1361   22.8512 C   0  0  0  0  0  0
  -24.1494  -36.7321   23.2639 C   0  0  0  0  0  0
  -25.9267  -30.8429   21.3684 C   0  0  0  0  0  0
  -26.0038  -29.4783   20.7230 C   0  0  0  0  0  0
  -27.1985  -28.7276   20.7297 C   0  0  0  0  0  0
  -26.0799  -26.9693   19.4737 C   0  0  0  0  0  0
  -24.8825  -27.7099   19.4861 C   0  0  0  0  0  0
  -23.6102  -29.8290   20.1631 C   0  0  0  0  0  0
  -25.4105  -36.3126   24.0349 C   0  0  1  0  0  0
  -20.5876  -28.3684   23.1340 C   0  0  2  0  0  0
  -20.6799  -26.9388   22.5537 C   0  0  0  0  0  0
  -19.5815  -26.6317   21.5304 C   0  0  0  0  0  0
  -18.1992  -26.7860   22.1698 C   0  0  0  0  0  0
  -19.1526  -28.8848   23.2887 C   0  0  0  0  0  0
  -18.9423  -30.1475   23.8865 C   0  0  0  0  0  0
  -17.6411  -30.6599   24.0492 C   0  0  0  0  0  0
  -25.9020  -34.9494   23.5149 C   0  0  0  0  0  0
  -16.5316  -29.9061   23.6289 C   0  0  0  0  0  0
  -16.7278  -28.6457   23.0352 C   0  0  0  0  0  0
  -26.4459  -31.6612   25.0752 C   0  0  0  0  0  0
  -25.3728  -31.3749   26.1514 C   0  0  0  0  0  0
  -27.0270  -30.3038   24.6137 C   0  0  0  0  0  0
  -27.6057  -32.4329   25.7493 C   0  0  0  0  0  0
  -27.5591  -37.1801   24.8468 C   0  0  0  0  0  0
  -21.4146  -29.3008   22.3686 N   0  0  0  0  0  0
  -26.4299  -37.3798   23.9421 N   0  0  0  0  0  0
  -24.6626  -31.0828   22.1015 N   0  0  0  0  0  0
  -23.4180  -28.8251   23.3066 O   0  0  0  0  0  0
  -28.3812  -26.7062   20.1265 O   0  0  0  0  0  0
  -26.5596  -34.8913   22.4719 O   0  0  0  0  0  0
  -23.5292  -32.1439   23.7520 O   0  0  0  0  0  0
  -29.6667  -18.9810   22.2457 C   0  0  0  0  0  0
  -28.8015  -23.5175   22.1075 C   0  0  0  0  0  0
  -27.2653  -17.7675   22.7956 C   0  0  0  0  0  0
  -27.3837  -19.1566   23.0082 C   0  0  0  0  0  0
  -28.6059  -19.7936   22.6833 C   0  0  0  0  0  0
  -29.4584  -17.6006   22.0728 C   0  0  0  0  0  0
  -28.2083  -24.4909   21.2789 C   0  0  0  0  0  0
  -28.3142  -22.2035   22.0055 C   0  0  0  0  0  0
  -26.8739  -22.8741   20.3607 C   0  0  0  0  0  0
  -26.2009  -19.9157   23.5906 C   0  0  0  0  0  0
  -25.8309  -22.5024   19.3327 C   0  0  0  0  0  0
  -30.5783  -16.7147   21.5441 C   0  0  0  0  0  0
  -28.5936  -25.9764   21.3489 C   0  0  0  0  0  0
  -28.2747  -17.0007   22.3355 N   0  0  0  0  0  0
  -27.2458  -24.1449   20.4028 N   0  0  0  0  0  0
  -27.3504  -21.8979   21.1226 N   0  0  0  0  0  0
  -28.8186  -21.1778   22.8180 N   0  0  0  0  0  0
  -30.1526  -15.3278   21.4115 N   0  0  0  0  0  0
  -31.4670  -12.3811   19.1372 H   0  0  0  0  0  0
  -30.3106  -11.2754   19.8182 H   0  0  0  0  0  0
  -29.7471  -11.7936   17.4315 H   0  0  0  0  0  0
  -29.6647  -13.5029   17.7882 H   0  0  0  0  0  0
  -27.8361  -11.3135   18.8122 H   0  0  0  0  0  0
  -27.3728  -12.6420   17.7847 H   0  0  0  0  0  0
  -27.7161  -14.2574   19.5794 H   0  0  0  0  0  0
  -28.6547  -11.9559   21.3719 H   0  0  0  0  0  0
  -28.4461  -13.6027   21.8675 H   0  0  0  0  0  0
  -25.2788   -9.5681   22.4735 H   0  0  0  0  0  0
  -24.0045   -7.4623   22.7477 H   0  0  0  0  0  0
  -21.0829   -8.8795   19.8973 H   0  0  0  0  0  0
  -22.3702  -10.9687   19.6184 H   0  0  0  0  0  0
  -21.2006   -7.6133   23.9671 H   0  0  0  0  0  0
  -21.1458   -6.0541   25.9070 H   0  0  0  0  0  0
  -22.0608   -2.7590   23.2856 H   0  0  0  0  0  0
  -22.4244  -11.9938   22.4812 H   0  0  0  0  0  0
  -21.1192  -13.1259   22.2602 H   0  0  0  0  0  0
  -24.6541  -15.8362   20.4528 H   0  0  0  0  0  0
  -26.3049  -15.6246   20.1254 H   0  0  0  0  0  0
  -26.7112  -32.5579   23.1230 H   0  0  0  0  0  0
  -25.0042  -33.9839   25.0510 H   0  0  0  0  0  0
  -22.6899  -31.3124   21.4130 H   0  0  0  0  0  0
  -23.3748  -35.9665   23.3306 H   0  0  0  0  0  0
  -24.3597  -36.8904   22.2053 H   0  0  0  0  0  0
  -23.7248  -37.6534   23.6629 H   0  0  0  0  0  0
  -26.0401  -31.6060   20.5963 H   0  0  0  0  0  0
  -26.8162  -30.8986   21.9851 H   0  0  0  0  0  0
  -28.0865  -29.1132   21.2098 H   0  0  0  0  0  0
  -26.1051  -26.0112   18.9730 H   0  0  0  0  0  0
  -24.0042  -27.3145   18.9971 H   0  0  0  0  0  0
  -23.7164  -30.6047   19.4056 H   0  0  0  0  0  0
  -22.7371  -29.2451   19.8678 H   0  0  0  0  0  0
  -25.1266  -36.2013   25.0842 H   0  0  0  0  0  0
  -20.9950  -28.3366   24.1471 H   0  0  0  0  0  0
  -20.5682  -26.2314   23.3772 H   0  0  0  0  0  0
  -21.6691  -26.7417   22.1383 H   0  0  0  0  0  0
  -19.6938  -25.6208   21.1385 H   0  0  0  0  0  0
  -19.6763  -27.3106   20.6828 H   0  0  0  0  0  0
  -17.4233  -26.6492   21.4144 H   0  0  0  0  0  0
  -18.0482  -26.0051   22.9167 H   0  0  0  0  0  0
  -19.7875  -30.7338   24.2217 H   0  0  0  0  0  0
  -17.4930  -31.6303   24.5034 H   0  0  0  0  0  0
  -15.5311  -30.2937   23.7580 H   0  0  0  0  0  0
  -15.8693  -28.0728   22.7100 H   0  0  0  0  0  0
  -24.5890  -30.7110   25.7871 H   0  0  0  0  0  0
  -24.8937  -32.2914   26.4958 H   0  0  0  0  0  0
  -25.8058  -30.8925   27.0283 H   0  0  0  0  0  0
  -26.2804  -29.6828   24.1173 H   0  0  0  0  0  0
  -27.4002  -29.7270   25.4612 H   0  0  0  0  0  0
  -27.8674  -30.4365   23.9320 H   0  0  0  0  0  0
  -27.2691  -33.3607   26.2140 H   0  0  0  0  0  0
  -28.3803  -32.6916   25.0265 H   0  0  0  0  0  0
  -28.0809  -31.8418   26.5334 H   0  0  0  0  0  0
  -28.2611  -38.0090   24.7481 H   0  0  0  0  0  0
  -28.1059  -36.2610   24.6298 H   0  0  0  0  0  0
  -27.2313  -37.1474   25.8871 H   0  0  0  0  0  0
  -20.9322  -29.8621   21.6807 H   0  0  0  0  0  0
  -26.0187  -38.2886   24.1383 H   0  0  0  0  0  0
  -30.6312  -19.4121   22.0104 H   0  0  0  0  0  0
  -29.6000  -23.7830   22.7893 H   0  0  0  0  0  0
  -26.3407  -17.2507   23.0117 H   0  0  0  0  0  0
  -25.4616  -19.2386   24.0231 H   0  0  0  0  0  0
  -25.7113  -20.5136   22.8229 H   0  0  0  0  0  0
  -26.5309  -20.5816   24.3878 H   0  0  0  0  0  0
  -25.8429  -23.2004   18.4954 H   0  0  0  0  0  0
  -24.8372  -22.5119   19.7752 H   0  0  0  0  0  0
  -26.0210  -21.5052   18.9375 H   0  0  0  0  0  0
  -31.4436  -16.7796   22.2026 H   0  0  0  0  0  0
  -30.8894  -17.1002   20.5706 H   0  0  0  0  0  0
  -29.6428  -26.0737   21.6330 H   0  0  0  0  0  0
  -28.0285  -26.4156   22.1731 H   0  0  0  0  0  0
  -29.6942  -21.4260   23.2637 H   0  0  0  0  0  0
  -29.2509  -15.1355   21.8277 H   0  0  0  0  0  0
  1 25  1  0  0  0
  1 30  2  0  0  0
  1 88  1  0  0  0
  2  3  1  0  0  0
  2 25  1  0  0  0
  2 89  1  0  0  0
  2 90  1  0  0  0
  3  4  1  0  0  0
  3 91  1  0  0  0
  3 92  1  0  0  0
  4  5  1  0  0  0
  4 93  1  0  0  0
  4 94  1  0  0  0
  5  6  1  0  0  0
  5 26  1  0  0  0
  5 95  1  0  0  0
  6 25  1  0  0  0
  6 96  1  0  0  0
  6 97  1  0  0  0
  7  8  2  0  0  0
  7 26  1  0  0  0
  7 29  1  0  0  0
  8  9  1  0  0  0
  8 22  1  0  0  0
  9 10  1  0  0  0
  9 27  2  0  0  0
 10 11  2  0  0  0
 10 15  1  0  0  0
 11 12  1  0  0  0
 11 98  1  0  0  0
 12 13  2  0  0  0
 12 99  1  0  0  0
 13 14  1  0  0  0
 13 31  1  0  0  0
 14 15  2  0  0  0
 14100  1  0  0  0
 15101  1  0  0  0
 16 17  2  0  0  0
 16 21  1  0  0  0
 16 31  1  0  0  0
 17 18  1  0  0  0
 17102  1  0  0  0
 18 19  2  0  0  0
 18103  1  0  0  0
 19 20  1  0  0  0
 19 24  1  0  0  0
 20 21  2  0  0  0
 20104  1  0  0  0
 21 23  1  0  0  0
 22 28  1  0  0  0
 22 32  2  0  0  0
 26 27  1  0  0  0
 28105  1  0  0  0
 28106  1  0  0  0
 29107  1  0  0  0
 29108  1  0  0  0
 33 34  1  0  0  0
 33 66  1  0  0  0
 33 70  2  0  0  0
 34 36  1  0  0  0
 34 59  1  0  0  0
 34109  1  0  0  0
 35 44  2  0  0  0
 35 45  1  0  0  0
 35 68  1  0  0  0
 36 56  1  0  0  0
 36110  1  0  0  0
 37 39  1  0  0  0
 37 47  1  0  0  0
 37 66  1  0  0  0
 37111  1  0  0  0
 38 43  2  0  0  0
 38 46  1  0  0  0
 38 47  1  0  0  0
 39 64  1  0  0  0
 39 67  2  0  0  0
 40 52  1  0  0  0
 40 53  2  0  0  0
 40 58  1  0  0  0
 41112  1  0  0  0
 41113  1  0  0  0
 41114  1  0  0  0
 41 48  1  0  0  0
 42 43  1  0  0  0
 42 66  1  0  0  0
 42115  1  0  0  0
 42116  1  0  0  0
 43 44  1  0  0  0
 44117  1  0  0  0
 45 46  2  0  0  0
 45118  1  0  0  0
 46119  1  0  0  0
 47120  1  0  0  0
 47121  1  0  0  0
 48 56  1  0  0  0
 48 65  1  0  0  0
 48122  1  0  0  0
 49 50  1  0  0  0
 49 53  1  0  0  0
 49 64  1  0  0  0
 49123  1  0  0  0
 50 51  1  0  0  0
 50124  1  0  0  0
 50125  1  0  0  0
 51 52  1  0  0  0
 51126  1  0  0  0
 51127  1  0  0  0
 52128  1  0  0  0
 52129  1  0  0  0
 53 54  1  0  0  0
 54 55  2  0  0  0
 54130  1  0  0  0
 55 57  1  0  0  0
 55131  1  0  0  0
 56 69  2  0  0  0
 57 58  2  0  0  0
 57132  1  0  0  0
 58133  1  0  0  0
 59 60  1  0  0  0
 59 61  1  0  0  0
 59 62  1  0  0  0
 60134  1  0  0  0
 60135  1  0  0  0
 60136  1  0  0  0
 61137  1  0  0  0
 61138  1  0  0  0
 61139  1  0  0  0
 62140  1  0  0  0
 62141  1  0  0  0
 62142  1  0  0  0
 63 65  1  0  0  0
 63143  1  0  0  0
 63144  1  0  0  0
 63145  1  0  0  0
 64146  1  0  0  0
 65147  1  0  0  0
 68 83  1  0  0  0
 71 75  2  0  0  0
 71 76  1  0  0  0
 71148  1  0  0  0
 72 77  2  0  0  0
 72 78  1  0  0  0
 72149  1  0  0  0
 73 74  2  0  0  0
 73 84  1  0  0  0
 73150  1  0  0  0
 74 75  1  0  0  0
 74 80  1  0  0  0
 75 87  1  0  0  0
 76 82  1  0  0  0
 76 84  2  0  0  0
 77 83  1  0  0  0
 77 85  1  0  0  0
 78 86  2  0  0  0
 78 87  1  0  0  0
 79 81  1  0  0  0
 79 85  2  0  0  0
 79 86  1  0  0  0
 80151  1  0  0  0
 80152  1  0  0  0
 80153  1  0  0  0
 81154  1  0  0  0
 81155  1  0  0  0
 81156  1  0  0  0
 82 88  1  0  0  0
 82157  1  0  0  0
 82158  1  0  0  0
 83159  1  0  0  0
 83160  1  0  0  0
 87161  1  0  0  0
 88162  1  0  0  0
M  ISO  4   1 100  68 101  83 101  88 100
M  END
> <chiral flag>
0

> <version>
0

> <s_m_source_file>
/data/baiqing/PycharmProjects/Reinvent-master-3.2/result/LINK_invent/BTK/process_docking_weight1_custom_sum_contain_oxygen_bond_distance_aromatic_linkinvent_7_9_3/rearranged_h_0188.sdf

> <i_m_source_file_index>
43

> <r_mmod_Potential_Energy-OPLS-2005>
-818.648254394531

> <r_mmod_Stretch_Energy-OPLS-2005>
33.6677131652832

> <r_mmod_Bend_Energy-OPLS-2005>
90.9437561035156

> <r_mmod_Torsional_Energy-OPLS-2005>
245.5693359375

> <r_mmod_Improper_Torsional_Energy-OPLS-2005>
4.37195634841919

> <r_mmod_Van_der_Waal_Energy-OPLS-2005>
183.671157836914

> <r_mmod_Electrostatic_Energy-OPLS-2005>
-1149.84594726562

> <r_mmod_Solvation_Energy-OPLS-2005>
-236.342147827148

> <b_mmod_Minimization_Converged-OPLS-2005>
0

> <r_mmod_RMS_Derivative-OPLS-2005>
5.19507884979248

$$$$
44
                    3D
 Structure written by MMmdl.
161170  0  0  1  0            999 V2000
  -30.6170  -14.6257   20.6121 C   0  0  0  0  0  0
  -30.4576  -12.4152   19.4707 C   0  0  0  0  0  0
  -29.5151  -12.5057   18.2475 C   0  0  0  0  0  0
  -28.0441  -12.3202   18.6641 C   0  0  0  0  0  0
  -27.6588  -13.2050   19.8761 C   0  0  2  0  0  0
  -28.6896  -13.0481   21.0150 C   0  0  0  0  0  0
  -25.2584  -13.8191   20.5619 C   0  0  0  0  0  0
  -24.1816  -13.0457   20.9223 C   0  0  0  0  0  0
  -24.6425  -11.6959   20.8817 C   0  0  0  0  0  0
  -23.9087  -10.4325   21.0470 C   0  0  0  0  0  0
  -24.3648   -9.4234   21.9237 C   0  0  0  0  0  0
  -23.6335   -8.2248   22.0763 C   0  0  0  0  0  0
  -22.4302   -8.0316   21.3557 C   0  0  0  0  0  0
  -21.9962   -9.0297   20.4643 C   0  0  0  0  0  0
  -22.7292  -10.2179   20.3091 C   0  0  0  0  0  0
  -21.6876   -6.0775   22.5282 C   0  0  0  0  0  0
  -21.4017   -6.5666   23.8219 C   0  0  0  0  0  0
  -21.3666   -5.6809   24.9169 C   0  0  0  0  0  0
  -21.6035   -4.3070   24.7207 C   0  0  0  0  0  0
  -21.8847   -3.8185   23.4329 C   0  0  0  0  0  0
  -21.9196   -4.6999   22.3393 C   0  0  0  0  0  0
  -22.7858  -13.5254   21.1874 C   0  0  0  0  0  0
  -22.1672   -4.2198   21.0971 F   0  0  0  0  0  0
  -21.5639   -3.4555   25.7726 F   0  0  0  0  0  0
  -30.0157  -13.4021   20.4753 N   0  0  0  0  0  0
  -26.2963  -12.9313   20.3303 N   0  0  0  0  0  0
  -25.9320  -11.6502   20.5785 N   0  0  0  0  0  0
  -22.0484  -12.8211   22.0405 N   0  0  0  0  0  0
  -25.4334  -15.1849   20.3843 N   0  0  0  0  0  0
  -31.7396  -14.8586   20.1658 O   0  0  0  0  0  0
  -21.6666   -6.8918   21.4246 O   0  0  0  0  0  0
  -22.3535  -14.5507   20.6657 O   0  0  0  0  0  0
  -24.6126  -31.8636   23.1990 C   0  0  0  0  0  0
  -25.8962  -32.4805   23.8358 C   0  0  1  0  0  0
  -27.2617  -27.3688   20.1710 C   0  0  0  0  0  0
  -25.5803  -33.8597   24.2268 N   0  0  0  0  0  0
  -23.4060  -30.4792   21.5345 C   0  0  2  0  0  0
  -24.8705  -28.9424   20.1000 C   0  0  0  0  0  0
  -22.7321  -29.4623   22.4905 C   0  0  0  0  0  0
  -18.0125  -28.1482   22.8530 C   0  0  0  0  0  0
  -24.1475  -36.7243   23.2672 C   0  0  0  0  0  0
  -25.9401  -30.8174   21.3705 C   0  0  0  0  0  0
  -26.0284  -29.4534   20.6996 C   0  0  0  0  0  0
  -27.2137  -28.6772   20.7228 C   0  0  0  0  0  0
  -26.0860  -26.8824   19.5507 C   0  0  0  0  0  0
  -24.9036  -27.6567   19.5217 C   0  0  0  0  0  0
  -23.6165  -29.8066   20.1482 C   0  0  0  0  0  0
  -25.4119  -36.3090   24.0344 C   0  0  1  0  0  0
  -20.5752  -28.3568   23.1039 C   0  0  2  0  0  0
  -20.6438  -26.9227   22.5353 C   0  0  0  0  0  0
  -19.5238  -26.6041   21.5382 C   0  0  0  0  0  0
  -18.1518  -26.7941   22.1859 C   0  0  0  0  0  0
  -19.1480  -28.8886   23.2712 C   0  0  0  0  0  0
  -18.9572  -30.1569   23.8579 C   0  0  0  0  0  0
  -17.6651  -30.6892   24.0234 C   0  0  0  0  0  0
  -25.9063  -34.9459   23.5135 C   0  0  0  0  0  0
  -16.5442  -29.9479   23.6179 C   0  0  0  0  0  0
  -16.7187  -28.6749   23.0435 C   0  0  0  0  0  0
  -26.4405  -31.6626   25.0706 C   0  0  0  0  0  0
  -25.3609  -31.3762   26.1372 C   0  0  0  0  0  0
  -27.0301  -30.3034   24.6276 C   0  0  0  0  0  0
  -27.5950  -32.4410   25.7450 C   0  0  0  0  0  0
  -27.5573  -37.1748   24.8447 C   0  0  0  0  0  0
  -21.4144  -29.2657   22.3209 N   0  0  0  0  0  0
  -26.4322  -37.3761   23.9375 N   0  0  0  0  0  0
  -24.6687  -31.0604   22.0945 N   0  0  0  0  0  0
  -23.3958  -28.8544   23.3351 O   0  0  0  0  0  0
  -28.4459  -26.6389   20.3223 O   0  0  0  0  0  0
  -26.5642  -34.8896   22.4734 O   0  0  0  0  0  0
  -23.5240  -32.1503   23.7256 O   0  0  0  0  0  0
  -29.1731  -20.5749   21.5513 C   0  0  0  0  0  0
  -27.0963  -21.0704   23.2731 C   0  0  0  0  0  0
  -28.5918  -19.4465   22.2212 C   0  0  0  0  0  0
  -27.5082  -19.7364   23.0995 C   0  0  0  0  0  0
  -28.6295  -21.8952   21.7212 C   0  0  0  0  0  0
  -28.4831  -17.5802   20.6105 C   0  0  0  0  0  0
  -28.9293  -17.9447   21.9911 C   0  0  1  0  0  0
  -29.8240  -17.0693   21.0396 C   0  0  1  0  0  0
  -26.7074  -18.6404   23.8010 C   0  0  0  0  0  0
  -27.4312  -23.2309   19.2457 C   0  0  0  0  0  0
  -28.6871  -25.3283   19.7531 C   0  0  0  0  0  0
  -28.0847  -24.0105   20.4033 C   0  0  2  0  0  0
  -27.6171  -22.1039   22.5808 N   0  0  0  0  0  0
  -29.0702  -23.0659   21.0276 N   0  0  0  0  0  0
  -29.7978  -15.5986   21.1118 N   0  0  0  0  0  0
  -31.4866  -12.5894   19.1570 H   0  0  0  0  0  0
  -30.4458  -11.4176   19.9138 H   0  0  0  0  0  0
  -29.7986  -11.7572   17.5051 H   0  0  0  0  0  0
  -29.6296  -13.4731   17.7609 H   0  0  0  0  0  0
  -27.9065  -11.2699   18.9261 H   0  0  0  0  0  0
  -27.3842  -12.5090   17.8179 H   0  0  0  0  0  0
  -27.6903  -14.2397   19.5362 H   0  0  0  0  0  0
  -28.6980  -12.0276   21.3989 H   0  0  0  0  0  0
  -28.3996  -13.6653   21.8687 H   0  0  0  0  0  0
  -25.2808   -9.5706   22.4801 H   0  0  0  0  0  0
  -24.0094   -7.4632   22.7455 H   0  0  0  0  0  0
  -21.0932   -8.8829   19.8914 H   0  0  0  0  0  0
  -22.3809  -10.9743   19.6194 H   0  0  0  0  0  0
  -21.2014   -7.6186   23.9731 H   0  0  0  0  0  0
  -21.1444   -6.0542   25.9075 H   0  0  0  0  0  0
  -22.0612   -2.7657   23.2813 H   0  0  0  0  0  0
  -22.4129  -11.9819   22.4656 H   0  0  0  0  0  0
  -21.1087  -13.1148   22.2601 H   0  0  0  0  0  0
  -24.6659  -15.8448   20.4312 H   0  0  0  0  0  0
  -26.2471  -15.5646   19.9155 H   0  0  0  0  0  0
  -26.7049  -32.5406   23.1113 H   0  0  0  0  0  0
  -24.9796  -33.9882   25.0274 H   0  0  0  0  0  0
  -22.7065  -31.3062   21.3899 H   0  0  0  0  0  0
  -23.3815  -35.9517   23.3374 H   0  0  0  0  0  0
  -24.3575  -36.8825   22.2099 H   0  0  0  0  0  0
  -23.7183  -37.6411   23.6697 H   0  0  0  0  0  0
  -26.0739  -31.6264   20.6492 H   0  0  0  0  0  0
  -26.8062  -30.8383   22.0203 H   0  0  0  0  0  0
  -28.1036  -29.0710   21.1931 H   0  0  0  0  0  0
  -26.0290  -25.9021   19.0988 H   0  0  0  0  0  0
  -24.0094  -27.2415   19.0781 H   0  0  0  0  0  0
  -23.6623  -30.5768   19.3734 H   0  0  0  0  0  0
  -22.7460  -29.2079   19.8751 H   0  0  0  0  0  0
  -25.1328  -36.2041   25.0858 H   0  0  0  0  0  0
  -20.9941  -28.3151   24.1121 H   0  0  0  0  0  0
  -20.5349  -26.2262   23.3677 H   0  0  0  0  0  0
  -21.6197  -26.7215   22.0972 H   0  0  0  0  0  0
  -19.6118  -25.5813   21.1746 H   0  0  0  0  0  0
  -19.6162  -27.2452   20.6628 H   0  0  0  0  0  0
  -17.3659  -26.6579   21.4407 H   0  0  0  0  0  0
  -17.9741  -26.0271   22.9447 H   0  0  0  0  0  0
  -19.8052  -30.7540   24.1667 H   0  0  0  0  0  0
  -17.5466  -31.6777   24.4464 H   0  0  0  0  0  0
  -15.5517  -30.3665   23.7406 H   0  0  0  0  0  0
  -15.8547  -28.1066   22.7187 H   0  0  0  0  0  0
  -24.5785  -30.7185   25.7548 H   0  0  0  0  0  0
  -24.8812  -32.2949   26.4763 H   0  0  0  0  0  0
  -25.7833  -30.8855   27.0161 H   0  0  0  0  0  0
  -26.2935  -29.6772   24.1226 H   0  0  0  0  0  0
  -27.3837  -29.7316   25.4882 H   0  0  0  0  0  0
  -27.8869  -30.4246   23.9643 H   0  0  0  0  0  0
  -27.2545  -33.3727   26.1995 H   0  0  0  0  0  0
  -28.3718  -32.6996   25.0229 H   0  0  0  0  0  0
  -28.0691  -31.8607   26.5380 H   0  0  0  0  0  0
  -28.2569  -38.0042   24.7481 H   0  0  0  0  0  0
  -28.1089  -36.2575   24.6351 H   0  0  0  0  0  0
  -27.2226  -37.1402   25.8818 H   0  0  0  0  0  0
  -20.9596  -29.7392   21.5518 H   0  0  0  0  0  0
  -26.0233  -38.2845   24.1429 H   0  0  0  0  0  0
  -30.0182  -20.4122   20.8900 H   0  0  0  0  0  0
  -26.2861  -21.3169   23.9485 H   0  0  0  0  0  0
  -28.4906  -18.3857   19.8759 H   0  0  0  0  0  0
  -27.6126  -16.9345   20.5842 H   0  0  0  0  0  0
  -28.6059  -17.3560   22.8474 H   0  0  0  0  0  0
  -30.7252  -17.5673   20.6865 H   0  0  0  0  0  0
  -25.7987  -19.0371   24.2631 H   0  0  0  0  0  0
  -27.2991  -18.1442   24.5792 H   0  0  0  0  0  0
  -26.3908  -17.8890   23.0688 H   0  0  0  0  0  0
  -28.1902  -22.6961   18.6611 H   0  0  0  0  0  0
  -26.9002  -23.8936   18.5653 H   0  0  0  0  0  0
  -26.7098  -22.5009   19.5943 H   0  0  0  0  0  0
  -28.3226  -25.4473   18.7379 H   0  0  0  0  0  0
  -29.7608  -25.2073   19.5916 H   0  0  0  0  0  0
  -27.3122  -24.3435   21.1132 H   0  0  0  0  0  0
  -29.8776  -22.9202   20.4272 H   0  0  0  0  0  0
  -28.9116  -15.2280   21.4130 H   0  0  0  0  0  0
  1 25  1  0  0  0
  1 30  2  0  0  0
  1 85  1  0  0  0
  2  3  1  0  0  0
  2 25  1  0  0  0
  2 86  1  0  0  0
  2 87  1  0  0  0
  3  4  1  0  0  0
  3 88  1  0  0  0
  3 89  1  0  0  0
  4  5  1  0  0  0
  4 90  1  0  0  0
  4 91  1  0  0  0
  5  6  1  0  0  0
  5 26  1  0  0  0
  5 92  1  0  0  0
  6 25  1  0  0  0
  6 93  1  0  0  0
  6 94  1  0  0  0
  7  8  2  0  0  0
  7 26  1  0  0  0
  7 29  1  0  0  0
  8  9  1  0  0  0
  8 22  1  0  0  0
  9 10  1  0  0  0
  9 27  2  0  0  0
 10 11  2  0  0  0
 10 15  1  0  0  0
 11 12  1  0  0  0
 11 95  1  0  0  0
 12 13  2  0  0  0
 12 96  1  0  0  0
 13 14  1  0  0  0
 13 31  1  0  0  0
 14 15  2  0  0  0
 14 97  1  0  0  0
 15 98  1  0  0  0
 16 17  2  0  0  0
 16 21  1  0  0  0
 16 31  1  0  0  0
 17 18  1  0  0  0
 17 99  1  0  0  0
 18 19  2  0  0  0
 18100  1  0  0  0
 19 20  1  0  0  0
 19 24  1  0  0  0
 20 21  2  0  0  0
 20101  1  0  0  0
 21 23  1  0  0  0
 22 28  1  0  0  0
 22 32  2  0  0  0
 26 27  1  0  0  0
 28102  1  0  0  0
 28103  1  0  0  0
 29104  1  0  0  0
 29105  1  0  0  0
 33 34  1  0  0  0
 33 66  1  0  0  0
 33 70  2  0  0  0
 34 36  1  0  0  0
 34 59  1  0  0  0
 34106  1  0  0  0
 35 44  2  0  0  0
 35 45  1  0  0  0
 35 68  1  0  0  0
 36 56  1  0  0  0
 36107  1  0  0  0
 37 39  1  0  0  0
 37 47  1  0  0  0
 37 66  1  0  0  0
 37108  1  0  0  0
 38 43  2  0  0  0
 38 46  1  0  0  0
 38 47  1  0  0  0
 39 64  1  0  0  0
 39 67  2  0  0  0
 40 52  1  0  0  0
 40 53  2  0  0  0
 40 58  1  0  0  0
 41109  1  0  0  0
 41110  1  0  0  0
 41111  1  0  0  0
 41 48  1  0  0  0
 42 43  1  0  0  0
 42 66  1  0  0  0
 42112  1  0  0  0
 42113  1  0  0  0
 43 44  1  0  0  0
 44114  1  0  0  0
 45 46  2  0  0  0
 45115  1  0  0  0
 46116  1  0  0  0
 47117  1  0  0  0
 47118  1  0  0  0
 48 56  1  0  0  0
 48 65  1  0  0  0
 48119  1  0  0  0
 49 50  1  0  0  0
 49 53  1  0  0  0
 49 64  1  0  0  0
 49120  1  0  0  0
 50 51  1  0  0  0
 50121  1  0  0  0
 50122  1  0  0  0
 51 52  1  0  0  0
 51123  1  0  0  0
 51124  1  0  0  0
 52125  1  0  0  0
 52126  1  0  0  0
 53 54  1  0  0  0
 54 55  2  0  0  0
 54127  1  0  0  0
 55 57  1  0  0  0
 55128  1  0  0  0
 56 69  2  0  0  0
 57 58  2  0  0  0
 57129  1  0  0  0
 58130  1  0  0  0
 59 60  1  0  0  0
 59 61  1  0  0  0
 59 62  1  0  0  0
 60131  1  0  0  0
 60132  1  0  0  0
 60133  1  0  0  0
 61134  1  0  0  0
 61135  1  0  0  0
 61136  1  0  0  0
 62137  1  0  0  0
 62138  1  0  0  0
 62139  1  0  0  0
 63 65  1  0  0  0
 63140  1  0  0  0
 63141  1  0  0  0
 63142  1  0  0  0
 64143  1  0  0  0
 65144  1  0  0  0
 68 81  1  0  0  0
 71 73  2  0  0  0
 71 75  1  0  0  0
 71145  1  0  0  0
 72 74  2  0  0  0
 72 83  1  0  0  0
 72146  1  0  0  0
 73 74  1  0  0  0
 73 77  1  0  0  0
 74 79  1  0  0  0
 75 83  2  0  0  0
 75 84  1  0  0  0
 76 77  1  0  0  0
 76 78  1  0  0  0
 76147  1  0  0  0
 76148  1  0  0  0
 77 78  1  0  0  0
 77149  1  0  0  0
 78 85  1  0  0  0
 78150  1  0  0  0
 79151  1  0  0  0
 79152  1  0  0  0
 79153  1  0  0  0
 80154  1  0  0  0
 80155  1  0  0  0
 80156  1  0  0  0
 80 82  1  0  0  0
 81 82  1  0  0  0
 81157  1  0  0  0
 81158  1  0  0  0
 82 84  1  0  0  0
 82159  1  0  0  0
 84160  1  0  0  0
 85161  1  0  0  0
M  ISO  4   1 100  68 101  81 101  85 100
M  END
> <chiral flag>
0

> <version>
0

> <s_m_source_file>
/data/baiqing/PycharmProjects/Reinvent-master-3.2/result/LINK_invent/BTK/process_docking_weight1_custom_sum_contain_oxygen_bond_distance_aromatic_linkinvent_7_9_3/rearranged_h_0188.sdf

> <i_m_source_file_index>
44

> <r_mmod_Potential_Energy-OPLS-2005>
-63.1533813476562

> <r_mmod_Stretch_Energy-OPLS-2005>
72.2069473266602

> <r_mmod_Bend_Energy-OPLS-2005>
206.893051147461

> <r_mmod_Torsional_Energy-OPLS-2005>
261.640075683594

> <r_mmod_Improper_Torsional_Energy-OPLS-2005>
10.0816402435303

> <r_mmod_Van_der_Waal_Energy-OPLS-2005>
152.588958740234

> <r_mmod_Electrostatic_Energy-OPLS-2005>
-566.051574707031

> <r_mmod_Solvation_Energy-OPLS-2005>
-248.851928710938

> <b_mmod_Minimization_Converged-OPLS-2005>
0

> <r_mmod_RMS_Derivative-OPLS-2005>
12.4259958267212

$$$$
45
                    3D
 Structure written by MMmdl.
164173  0  0  1  0            999 V2000
  -30.5804  -14.9853   20.4097 C   0  0  0  0  0  0
  -30.4300  -12.6151   19.5039 C   0  0  0  0  0  0
  -29.5217  -12.5375   18.2562 C   0  0  0  0  0  0
  -28.0538  -12.3267   18.6707 C   0  0  0  0  0  0
  -27.6246  -13.2644   19.8301 C   0  0  2  0  0  0
  -28.6679  -13.3326   20.9659 C   0  0  0  0  0  0
  -25.2425  -13.8241   20.5721 C   0  0  0  0  0  0
  -24.1761  -13.0440   20.9224 C   0  0  0  0  0  0
  -24.6417  -11.6939   20.8747 C   0  0  0  0  0  0
  -23.9110  -10.4295   21.0378 C   0  0  0  0  0  0
  -24.3648   -9.4212   21.9159 C   0  0  0  0  0  0
  -23.6326   -8.2248   22.0734 C   0  0  0  0  0  0
  -22.4308   -8.0281   21.3528 C   0  0  0  0  0  0
  -21.9940   -9.0257   20.4630 C   0  0  0  0  0  0
  -22.7275  -10.2134   20.3039 C   0  0  0  0  0  0
  -21.6861   -6.0734   22.5274 C   0  0  0  0  0  0
  -21.4014   -6.5631   23.8207 C   0  0  0  0  0  0
  -21.3665   -5.6784   24.9165 C   0  0  0  0  0  0
  -21.6059   -4.3047   24.7214 C   0  0  0  0  0  0
  -21.8820   -3.8135   23.4330 C   0  0  0  0  0  0
  -21.9186   -4.6956   22.3389 C   0  0  0  0  0  0
  -22.7775  -13.5193   21.1860 C   0  0  0  0  0  0
  -22.1661   -4.2139   21.0971 F   0  0  0  0  0  0
  -21.5641   -3.4535   25.7724 F   0  0  0  0  0  0
  -29.9423  -13.7408   20.3582 N   0  0  0  0  0  0
  -26.2868  -12.9521   20.3229 N   0  0  0  0  0  0
  -25.9360  -11.6632   20.5728 N   0  0  0  0  0  0
  -22.0439  -12.8188   22.0431 N   0  0  0  0  0  0
  -25.4066  -15.1967   20.4166 N   0  0  0  0  0  0
  -31.7899  -14.9823   20.1560 O   0  0  0  0  0  0
  -21.6660   -6.8885   21.4239 O   0  0  0  0  0  0
  -22.3457  -14.5484   20.6682 O   0  0  0  0  0  0
  -24.6500  -31.8402   23.1868 C   0  0  0  0  0  0
  -25.9252  -32.4668   23.8266 C   0  0  1  0  0  0
  -27.1996  -27.0743   20.1667 C   0  0  0  0  0  0
  -25.5974  -33.8484   24.2167 N   0  0  0  0  0  0
  -23.4553  -30.4624   21.5332 C   0  0  2  0  0  0
  -24.9038  -28.8879   20.1094 C   0  0  0  0  0  0
  -22.7596  -29.4541   22.4832 C   0  0  0  0  0  0
  -18.0304  -28.1415   22.8465 C   0  0  0  0  0  0
  -24.1490  -36.7240   23.2639 C   0  0  0  0  0  0
  -26.0181  -30.6958   21.3965 C   0  0  0  0  0  0
  -26.0862  -29.3038   20.7345 C   0  0  0  0  0  0
  -27.2365  -28.4171   20.7425 C   0  0  0  0  0  0
  -25.9919  -26.7876   19.4872 C   0  0  0  0  0  0
  -24.8745  -27.6455   19.4650 C   0  0  0  0  0  0
  -23.6856  -29.7979   20.1513 C   0  0  0  0  0  0
  -25.4124  -36.3015   24.0306 C   0  0  1  0  0  0
  -20.5926  -28.3749   23.1213 C   0  0  2  0  0  0
  -20.6792  -26.9449   22.5398 C   0  0  0  0  0  0
  -19.5771  -26.6391   21.5210 C   0  0  0  0  0  0
  -18.1949  -26.7943   22.1618 C   0  0  0  0  0  0
  -19.1560  -28.8896   23.2828 C   0  0  0  0  0  0
  -18.9478  -30.1487   23.8862 C   0  0  0  0  0  0
  -17.6477  -30.6602   24.0562 C   0  0  0  0  0  0
  -25.9086  -34.9393   23.5046 C   0  0  0  0  0  0
  -16.5368  -29.9092   23.6347 C   0  0  0  0  0  0
  -16.7287  -28.6514   23.0353 C   0  0  0  0  0  0
  -26.4546  -31.6548   25.0733 C   0  0  0  0  0  0
  -25.3706  -31.3762   26.1411 C   0  0  0  0  0  0
  -27.0412  -30.2916   24.6382 C   0  0  0  0  0  0
  -27.6057  -32.4334   25.7532 C   0  0  0  0  0  0
  -27.5581  -37.1764   24.8451 C   0  0  0  0  0  0
  -21.4284  -29.3056   22.3569 N   0  0  0  0  0  0
  -26.4274  -37.3744   23.9424 N   0  0  0  0  0  0
  -24.7284  -31.0216   22.0930 N   0  0  0  0  0  0
  -23.4219  -28.8090   23.3001 O   0  0  0  0  0  0
  -28.1921  -26.0100   20.2693 O   0  0  0  0  0  0
  -26.5672  -34.8904   22.4624 O   0  0  0  0  0  0
  -23.5605  -32.1303   23.7052 O   0  0  0  0  0  0
  -29.3636  -20.1190   20.3334 C   0  0  0  0  0  0
  -30.1044  -21.2775   19.8331 C   0  0  0  0  0  0
  -27.7355  -21.8359   20.9345 C   0  0  0  0  0  0
  -28.4398  -22.9983   20.3936 C   0  0  0  0  0  0
  -30.4919  -17.5079   21.3043 C   0  0  0  0  0  0
  -29.0060  -17.1544   19.8928 C   0  0  0  0  0  0
  -29.8013  -18.4885   20.2667 C   0  0  0  0  0  0
  -26.3594  -21.9416   21.5687 C   0  0  0  0  0  0
  -30.8480  -23.0685   15.9863 C   0  0  0  0  0  0
  -27.7277  -24.5071   20.1166 C   0  0  0  0  0  0
  -31.5474  -21.4082   17.7167 C   0  0  0  0  0  0
  -31.5072  -21.1380   19.2333 C   0  0  1  0  0  0
  -28.1831  -20.5056   20.9185 N   0  0  0  0  0  0
  -29.6482  -22.6168   19.8470 N   0  0  0  0  0  0
  -29.9238  -16.2345   20.6875 N   0  0  0  0  0  0
  -31.1310  -22.7931   17.4070 N   0  3  0  0  0  0
  -32.3405  -21.9899   19.8418 F   0  0  0  0  0  0
  -31.4658  -12.7513   19.1910 H   0  0  0  0  0  0
  -30.4125  -11.6740   20.0566 H   0  0  0  0  0  0
  -29.8488  -11.7320   17.5979 H   0  0  0  0  0  0
  -29.6094  -13.4587   17.6778 H   0  0  0  0  0  0
  -27.9453  -11.2878   18.9798 H   0  0  0  0  0  0
  -27.3952  -12.4568   17.8112 H   0  0  0  0  0  0
  -27.5774  -14.2619   19.3925 H   0  0  0  0  0  0
  -28.7591  -12.3732   21.4793 H   0  0  0  0  0  0
  -28.3627  -14.0609   21.7179 H   0  0  0  0  0  0
  -25.2794   -9.5697   22.4734 H   0  0  0  0  0  0
  -24.0022   -7.4648   22.7477 H   0  0  0  0  0  0
  -21.0857   -8.8791   19.8955 H   0  0  0  0  0  0
  -22.3718  -10.9680   19.6152 H   0  0  0  0  0  0
  -21.2019   -7.6146   23.9710 H   0  0  0  0  0  0
  -21.1490   -6.0511   25.9073 H   0  0  0  0  0  0
  -22.0595   -2.7599   23.2825 H   0  0  0  0  0  0
  -22.4092  -11.9889   22.4880 H   0  0  0  0  0  0
  -21.1035  -13.1184   22.2600 H   0  0  0  0  0  0
  -24.6407  -15.8501   20.5449 H   0  0  0  0  0  0
  -26.2664  -15.6403   20.1242 H   0  0  0  0  0  0
  -26.7324  -32.5256   23.0995 H   0  0  0  0  0  0
  -25.0063  -33.9587   25.0275 H   0  0  0  0  0  0
  -22.7600  -31.2908   21.3792 H   0  0  0  0  0  0
  -23.3774  -35.9549   23.3258 H   0  0  0  0  0  0
  -24.3583  -36.8923   22.2063 H   0  0  0  0  0  0
  -23.7218  -37.6409   23.6712 H   0  0  0  0  0  0
  -26.1871  -31.4508   20.6274 H   0  0  0  0  0  0
  -26.8837  -30.7397   22.0458 H   0  0  0  0  0  0
  -28.1334  -28.7314   21.2580 H   0  0  0  0  0  0
  -25.8537  -25.8429   18.9847 H   0  0  0  0  0  0
  -23.9757  -27.3237   18.9568 H   0  0  0  0  0  0
  -23.8291  -30.5760   19.4003 H   0  0  0  0  0  0
  -22.7979  -29.2472   19.8353 H   0  0  0  0  0  0
  -25.1311  -36.1820   25.0795 H   0  0  0  0  0  0
  -21.0011  -28.3355   24.1343 H   0  0  0  0  0  0
  -20.5697  -26.2371   23.3626 H   0  0  0  0  0  0
  -21.6658  -26.7454   22.1201 H   0  0  0  0  0  0
  -19.6941  -25.6292   21.1264 H   0  0  0  0  0  0
  -19.6712  -27.3181   20.6724 H   0  0  0  0  0  0
  -17.4221  -26.6675   21.4024 H   0  0  0  0  0  0
  -18.0358  -26.0098   22.9028 H   0  0  0  0  0  0
  -19.7954  -30.7298   24.2236 H   0  0  0  0  0  0
  -17.5033  -31.6284   24.5168 H   0  0  0  0  0  0
  -15.5365  -30.2983   23.7703 H   0  0  0  0  0  0
  -15.8683  -28.0828   22.7089 H   0  0  0  0  0  0
  -24.5888  -30.7111   25.7725 H   0  0  0  0  0  0
  -24.8896  -32.2953   26.4765 H   0  0  0  0  0  0
  -25.7969  -30.8972   27.0233 H   0  0  0  0  0  0
  -26.3042  -29.6625   24.1376 H   0  0  0  0  0  0
  -27.3949  -29.7241   25.5002 H   0  0  0  0  0  0
  -27.8996  -30.4099   23.9767 H   0  0  0  0  0  0
  -27.2622  -33.3651   26.2044 H   0  0  0  0  0  0
  -28.3909  -32.6870   25.0396 H   0  0  0  0  0  0
  -28.0684  -31.8503   26.5505 H   0  0  0  0  0  0
  -28.2537  -38.0121   24.7575 H   0  0  0  0  0  0
  -28.1132  -36.2650   24.6171 H   0  0  0  0  0  0
  -27.2314  -37.1285   25.8854 H   0  0  0  0  0  0
  -20.9509  -29.8735   21.6706 H   0  0  0  0  0  0
  -26.0124  -38.2797   24.1476 H   0  0  0  0  0  0
  -30.1359  -17.6752   22.3216 H   0  0  0  0  0  0
  -31.5809  -17.5746   21.2863 H   0  0  0  0  0  0
  -28.9818  -16.9562   18.8215 H   0  0  0  0  0  0
  -27.9896  -17.1666   20.2901 H   0  0  0  0  0  0
  -30.5159  -18.5306   19.4460 H   0  0  0  0  0  0
  -26.4553  -22.0859   22.6452 H   0  0  0  0  0  0
  -25.7975  -21.0192   21.4139 H   0  0  0  0  0  0
  -25.7462  -22.7384   21.1580 H   0  0  0  0  0  0
  -30.4324  -24.0699   15.8761 H   0  0  0  0  0  0
  -30.1223  -22.3636   15.5812 H   0  0  0  0  0  0
  -31.7578  -23.0134   15.3895 H   0  0  0  0  0  0
  -26.7984  -24.4850   20.6800 H   0  0  0  0  0  0
  -27.4380  -24.4175   19.0697 H   0  0  0  0  0  0
  -30.8909  -20.6998   17.2112 H   0  0  0  0  0  0
  -32.5543  -21.2448   17.3312 H   0  0  0  0  0  0
  -31.9238  -20.1550   19.4425 H   0  0  0  0  0  0
  -30.3015  -22.9694   17.9596 H   0  0  0  0  0  0
  -31.8367  -23.4269   17.7452 H   0  0  0  0  0  0
  1 25  1  0  0  0
  1 30  2  0  0  0
  1 85  1  0  0  0
  2  3  1  0  0  0
  2 25  1  0  0  0
  2 88  1  0  0  0
  2 89  1  0  0  0
  3  4  1  0  0  0
  3 90  1  0  0  0
  3 91  1  0  0  0
  4  5  1  0  0  0
  4 92  1  0  0  0
  4 93  1  0  0  0
  5  6  1  0  0  0
  5 26  1  0  0  0
  5 94  1  0  0  0
  6 25  1  0  0  0
  6 95  1  0  0  0
  6 96  1  0  0  0
  7  8  2  0  0  0
  7 26  1  0  0  0
  7 29  1  0  0  0
  8  9  1  0  0  0
  8 22  1  0  0  0
  9 10  1  0  0  0
  9 27  2  0  0  0
 10 11  2  0  0  0
 10 15  1  0  0  0
 11 12  1  0  0  0
 11 97  1  0  0  0
 12 13  2  0  0  0
 12 98  1  0  0  0
 13 14  1  0  0  0
 13 31  1  0  0  0
 14 15  2  0  0  0
 14 99  1  0  0  0
 15100  1  0  0  0
 16 17  2  0  0  0
 16 21  1  0  0  0
 16 31  1  0  0  0
 17 18  1  0  0  0
 17101  1  0  0  0
 18 19  2  0  0  0
 18102  1  0  0  0
 19 20  1  0  0  0
 19 24  1  0  0  0
 20 21  2  0  0  0
 20103  1  0  0  0
 21 23  1  0  0  0
 22 28  1  0  0  0
 22 32  2  0  0  0
 26 27  1  0  0  0
 28104  1  0  0  0
 28105  1  0  0  0
 29106  1  0  0  0
 29107  1  0  0  0
 33 34  1  0  0  0
 33 66  1  0  0  0
 33 70  2  0  0  0
 34 36  1  0  0  0
 34 59  1  0  0  0
 34108  1  0  0  0
 35 44  2  0  0  0
 35 45  1  0  0  0
 35 68  1  0  0  0
 36 56  1  0  0  0
 36109  1  0  0  0
 37 39  1  0  0  0
 37 47  1  0  0  0
 37 66  1  0  0  0
 37110  1  0  0  0
 38 43  2  0  0  0
 38 46  1  0  0  0
 38 47  1  0  0  0
 39 64  1  0  0  0
 39 67  2  0  0  0
 40 52  1  0  0  0
 40 53  2  0  0  0
 40 58  1  0  0  0
 41111  1  0  0  0
 41112  1  0  0  0
 41113  1  0  0  0
 41 48  1  0  0  0
 42 43  1  0  0  0
 42 66  1  0  0  0
 42114  1  0  0  0
 42115  1  0  0  0
 43 44  1  0  0  0
 44116  1  0  0  0
 45 46  2  0  0  0
 45117  1  0  0  0
 46118  1  0  0  0
 47119  1  0  0  0
 47120  1  0  0  0
 48 56  1  0  0  0
 48 65  1  0  0  0
 48121  1  0  0  0
 49 50  1  0  0  0
 49 53  1  0  0  0
 49 64  1  0  0  0
 49122  1  0  0  0
 50 51  1  0  0  0
 50123  1  0  0  0
 50124  1  0  0  0
 51 52  1  0  0  0
 51125  1  0  0  0
 51126  1  0  0  0
 52127  1  0  0  0
 52128  1  0  0  0
 53 54  1  0  0  0
 54 55  2  0  0  0
 54129  1  0  0  0
 55 57  1  0  0  0
 55130  1  0  0  0
 56 69  2  0  0  0
 57 58  2  0  0  0
 57131  1  0  0  0
 58132  1  0  0  0
 59 60  1  0  0  0
 59 61  1  0  0  0
 59 62  1  0  0  0
 60133  1  0  0  0
 60134  1  0  0  0
 60135  1  0  0  0
 61136  1  0  0  0
 61137  1  0  0  0
 61138  1  0  0  0
 62139  1  0  0  0
 62140  1  0  0  0
 62141  1  0  0  0
 63 65  1  0  0  0
 63142  1  0  0  0
 63143  1  0  0  0
 63144  1  0  0  0
 64145  1  0  0  0
 65146  1  0  0  0
 68 80  1  0  0  0
 71 72  2  0  0  0
 71 83  1  0  0  0
 71 77  1  0  0  0
 72 82  1  0  0  0
 72 84  1  0  0  0
 73 74  1  0  0  0
 73 78  1  0  0  0
 73 83  2  0  0  0
 74 80  1  0  0  0
 74 84  2  0  0  0
 75 77  1  0  0  0
 75 85  1  0  0  0
 75147  1  0  0  0
 75148  1  0  0  0
 76 77  1  0  0  0
 76 85  1  0  0  0
 76149  1  0  0  0
 76150  1  0  0  0
 77151  1  0  0  0
 78152  1  0  0  0
 78153  1  0  0  0
 78154  1  0  0  0
 79 86  1  0  0  0
 79155  1  0  0  0
 79156  1  0  0  0
 79157  1  0  0  0
 80158  1  0  0  0
 80159  1  0  0  0
 81 82  1  0  0  0
 81 86  1  0  0  0
 81160  1  0  0  0
 81161  1  0  0  0
 82 87  1  0  0  0
 82162  1  0  0  0
 86163  1  0  0  0
 86164  1  0  0  0
M  CHG  1  86   1
M  ISO  4   1 100  68 101  80 101  85 100
M  END
> <chiral flag>
0

> <version>
0

> <s_m_source_file>
/data/baiqing/PycharmProjects/Reinvent-master-3.2/result/LINK_invent/BTK/process_docking_weight1_custom_sum_contain_oxygen_bond_distance_aromatic_linkinvent_7_9_3/rearranged_h_0188.sdf

> <i_m_source_file_index>
45

> <r_mmod_Potential_Energy-OPLS-2005>
585.354125976562

> <r_mmod_Stretch_Energy-OPLS-2005>
287.338653564453

> <r_mmod_Bend_Energy-OPLS-2005>
337.060180664062

> <r_mmod_Torsional_Energy-OPLS-2005>
282.079650878906

> <r_mmod_Improper_Torsional_Energy-OPLS-2005>
8.24052715301514

> <r_mmod_Van_der_Waal_Energy-OPLS-2005>
142.326751708984

> <r_mmod_Electrostatic_Energy-OPLS-2005>
-249.678237915039

> <r_mmod_Solvation_Energy-OPLS-2005>
-464.401458740234

> <b_mmod_Minimization_Converged-OPLS-2005>
0

> <r_mmod_RMS_Derivative-OPLS-2005>
2.48249578475952

$$$$
46
                    3D
 Structure written by MMmdl.
168178  0  0  1  0            999 V2000
  -30.6773  -14.5658   20.5505 C   0  0  0  0  0  0
  -30.4211  -12.3593   19.4403 C   0  0  0  0  0  0
  -29.4955  -12.5079   18.2159 C   0  0  0  0  0  0
  -28.0197  -12.3508   18.6320 C   0  0  0  0  0  0
  -27.6516  -13.2175   19.8659 C   0  0  2  0  0  0
  -28.6940  -13.0633   20.9942 C   0  0  0  0  0  0
  -25.2543  -13.8174   20.5705 C   0  0  0  0  0  0
  -24.1810  -13.0417   20.9192 C   0  0  0  0  0  0
  -24.6390  -11.6899   20.8750 C   0  0  0  0  0  0
  -23.9071  -10.4275   21.0407 C   0  0  0  0  0  0
  -24.3623   -9.4189   21.9183 C   0  0  0  0  0  0
  -23.6290   -8.2229   22.0756 C   0  0  0  0  0  0
  -22.4281   -8.0268   21.3537 C   0  0  0  0  0  0
  -21.9915   -9.0240   20.4652 C   0  0  0  0  0  0
  -22.7243  -10.2114   20.3054 C   0  0  0  0  0  0
  -21.6848   -6.0727   22.5275 C   0  0  0  0  0  0
  -21.4006   -6.5631   23.8208 C   0  0  0  0  0  0
  -21.3667   -5.6792   24.9175 C   0  0  0  0  0  0
  -21.6046   -4.3055   24.7226 C   0  0  0  0  0  0
  -21.8821   -3.8138   23.4348 C   0  0  0  0  0  0
  -21.9190   -4.6953   22.3400 C   0  0  0  0  0  0
  -22.7833  -13.5204   21.1841 C   0  0  0  0  0  0
  -22.1663   -4.2136   21.0982 F   0  0  0  0  0  0
  -21.5633   -3.4545   25.7744 F   0  0  0  0  0  0
  -30.0146  -13.3767   20.4294 N   0  0  0  0  0  0
  -26.2978  -12.9365   20.3348 N   0  0  0  0  0  0
  -25.9316  -11.6514   20.5764 N   0  0  0  0  0  0
  -22.0493  -12.8181   22.0416 N   0  0  0  0  0  0
  -25.4229  -15.1886   20.4107 N   0  0  0  0  0  0
  -31.8024  -14.7350   20.0790 O   0  0  0  0  0  0
  -21.6631   -6.8864   21.4241 O   0  0  0  0  0  0
  -22.3501  -14.5502   20.6692 O   0  0  0  0  0  0
  -24.6237  -31.8597   23.2028 C   0  0  0  0  0  0
  -25.9090  -32.4776   23.8351 C   0  0  1  0  0  0
  -27.2227  -27.3429   20.1039 C   0  0  0  0  0  0
  -25.5903  -33.8577   24.2287 N   0  0  0  0  0  0
  -23.4183  -30.4829   21.5443 C   0  0  2  0  0  0
  -24.8637  -28.9449   20.1006 C   0  0  0  0  0  0
  -22.7465  -29.4614   22.4921 C   0  0  0  0  0  0
  -18.0300  -28.1360   22.8457 C   0  0  0  0  0  0
  -24.1496  -36.7300   23.2644 C   0  0  0  0  0  0
  -25.9548  -30.7974   21.3722 C   0  0  0  0  0  0
  -26.0267  -29.4264   20.7133 C   0  0  0  0  0  0
  -27.2055  -28.6314   20.7133 C   0  0  0  0  0  0
  -26.0492  -26.9208   19.4400 C   0  0  0  0  0  0
  -24.8755  -27.6974   19.4572 C   0  0  0  0  0  0
  -23.6295  -29.8194   20.1567 C   0  0  0  0  0  0
  -25.4119  -36.3081   24.0331 C   0  0  1  0  0  0
  -20.5899  -28.3669   23.1269 C   0  0  2  0  0  0
  -20.6817  -26.9421   22.5336 C   0  0  0  0  0  0
  -19.5815  -26.6462   21.5114 C   0  0  0  0  0  0
  -18.1969  -26.7967   22.1478 C   0  0  0  0  0  0
  -19.1539  -28.8792   23.2931 C   0  0  0  0  0  0
  -18.9469  -30.1398   23.8963 C   0  0  0  0  0  0
  -17.6474  -30.6562   24.0602 C   0  0  0  0  0  0
  -25.9043  -34.9452   23.5113 C   0  0  0  0  0  0
  -16.5379  -29.9094   23.6279 C   0  0  0  0  0  0
  -16.7293  -28.6534   23.0253 C   0  0  0  0  0  0
  -26.4496  -31.6583   25.0718 C   0  0  0  0  0  0
  -25.3741  -31.3712   26.1446 C   0  0  0  0  0  0
  -27.0334  -30.3016   24.6158 C   0  0  0  0  0  0
  -27.6054  -32.4309   25.7495 C   0  0  0  0  0  0
  -27.5575  -37.1807   24.8463 C   0  0  0  0  0  0
  -21.4176  -29.3088   22.3698 N   0  0  0  0  0  0
  -26.4298  -37.3770   23.9393 N   0  0  0  0  0  0
  -24.6838  -31.0636   22.0964 N   0  0  0  0  0  0
  -23.4198  -28.8104   23.2952 O   0  0  0  0  0  0
  -28.3555  -26.5305   20.2085 O   0  0  0  0  0  0
  -26.5615  -34.8914   22.4686 O   0  0  0  0  0  0
  -23.5394  -32.1369   23.7360 O   0  0  0  0  0  0
  -26.5041  -24.2650   21.2173 C   0  0  0  0  0  0
  -27.4918  -21.7035   21.2083 C   0  0  0  0  0  0
  -27.7252  -23.9916   20.5743 C   0  0  0  0  0  0
  -26.2023  -22.0314   21.7395 C   0  0  0  0  0  0
  -22.0973  -21.6059   23.5933 C   0  0  0  0  0  0
  -22.7093  -20.7777   22.4634 C   0  0  0  0  0  0
  -23.5439  -21.8882   23.9958 C   0  0  0  0  0  0
  -27.2956  -19.1331   20.8420 C   0  0  0  0  0  0
  -28.0613  -20.2743   21.4878 C   0  0  1  0  0  0
  -25.2301  -21.0014   22.3372 C   0  0  0  0  0  0
  -28.4076  -25.1291   19.7452 C   0  0  0  0  0  0
  -29.3574  -16.7359   20.4451 C   0  0  0  0  0  0
  -29.5620  -18.1766   21.0861 C   0  0  0  0  0  0
  -25.7377  -23.3036   21.7548 N   0  0  0  0  0  0
  -28.2349  -22.6968   20.5893 N   0  0  0  0  0  0
  -30.0333  -15.5994   21.1521 N   0  0  0  0  0  0
  -23.9036  -21.6087   22.6069 N   0  3  0  0  0  0
  -28.6977  -19.3066   20.5464 N   0  3  1  0  0  0
  -31.4660  -12.4611   19.1405 H   0  0  0  0  0  0
  -30.3335  -11.3588   19.8714 H   0  0  0  0  0  0
  -29.7488  -11.7694   17.4534 H   0  0  0  0  0  0
  -29.6483  -13.4852   17.7574 H   0  0  0  0  0  0
  -27.8529  -11.2972   18.8620 H   0  0  0  0  0  0
  -27.3635  -12.5897   17.7943 H   0  0  0  0  0  0
  -27.6767  -14.2550   19.5328 H   0  0  0  0  0  0
  -28.6912  -12.0445   21.3842 H   0  0  0  0  0  0
  -28.4464  -13.7092   21.8378 H   0  0  0  0  0  0
  -25.2776   -9.5646   22.4746 H   0  0  0  0  0  0
  -23.9993   -7.4620   22.7478 H   0  0  0  0  0  0
  -21.0835   -8.8745   19.8975 H   0  0  0  0  0  0
  -22.3695  -10.9638   19.6151 H   0  0  0  0  0  0
  -21.1999   -7.6140   23.9697 H   0  0  0  0  0  0
  -21.1494   -6.0533   25.9073 H   0  0  0  0  0  0
  -22.0602   -2.7600   23.2854 H   0  0  0  0  0  0
  -22.4116  -11.9831   22.4770 H   0  0  0  0  0  0
  -21.1109  -13.1170   22.2663 H   0  0  0  0  0  0
  -24.6476  -15.8373   20.4988 H   0  0  0  0  0  0
  -26.2676  -15.6182   20.0612 H   0  0  0  0  0  0
  -26.7159  -32.5470   23.1095 H   0  0  0  0  0  0
  -25.0032  -33.9720   25.0417 H   0  0  0  0  0  0
  -22.7128  -31.3035   21.4056 H   0  0  0  0  0  0
  -23.3734  -35.9651   23.3315 H   0  0  0  0  0  0
  -24.3594  -36.8908   22.2054 H   0  0  0  0  0  0
  -23.7269  -37.6519   23.6659 H   0  0  0  0  0  0
  -26.0792  -31.5644   20.6050 H   0  0  0  0  0  0
  -26.8384  -30.8464   21.9986 H   0  0  0  0  0  0
  -28.0965  -28.9866   21.2120 H   0  0  0  0  0  0
  -26.0068  -25.9678   18.9374 H   0  0  0  0  0  0
  -23.9858  -27.3301   18.9644 H   0  0  0  0  0  0
  -23.7358  -30.5933   19.3958 H   0  0  0  0  0  0
  -22.7526  -29.2391   19.8646 H   0  0  0  0  0  0
  -25.1300  -36.1938   25.0821 H   0  0  0  0  0  0
  -20.9997  -28.3221   24.1384 H   0  0  0  0  0  0
  -20.5759  -26.2225   23.3458 H   0  0  0  0  0  0
  -21.6682  -26.7548   22.1071 H   0  0  0  0  0  0
  -19.6977  -25.6398   21.1106 H   0  0  0  0  0  0
  -19.6780  -27.3349   20.6695 H   0  0  0  0  0  0
  -17.4368  -26.6869   21.3746 H   0  0  0  0  0  0
  -18.0215  -25.9977   22.8706 H   0  0  0  0  0  0
  -19.7956  -30.7182   24.2394 H   0  0  0  0  0  0
  -17.4981  -31.6199   24.5280 H   0  0  0  0  0  0
  -15.5385  -30.3004   23.7584 H   0  0  0  0  0  0
  -15.8682  -28.0981   22.6794 H   0  0  0  0  0  0
  -24.5920  -30.7062   25.7773 H   0  0  0  0  0  0
  -24.8928  -32.2869   26.4880 H   0  0  0  0  0  0
  -25.8056  -30.8885   27.0221 H   0  0  0  0  0  0
  -26.2899  -29.6774   24.1194 H   0  0  0  0  0  0
  -27.4044  -29.7262   25.4646 H   0  0  0  0  0  0
  -27.8758  -30.4303   23.9363 H   0  0  0  0  0  0
  -27.2667  -33.3595   26.2101 H   0  0  0  0  0  0
  -28.3857  -32.6889   25.0326 H   0  0  0  0  0  0
  -28.0737  -31.8422   26.5391 H   0  0  0  0  0  0
  -28.2603  -38.0097   24.7491 H   0  0  0  0  0  0
  -28.1058  -36.2618   24.6312 H   0  0  0  0  0  0
  -27.2288  -37.1493   25.8870 H   0  0  0  0  0  0
  -20.9360  -29.8885   21.6964 H   0  0  0  0  0  0
  -26.0170  -38.2841   24.1388 H   0  0  0  0  0  0
  -26.0884  -25.2531   21.2824 H   0  0  0  0  0  0
  -21.5162  -21.0395   24.3210 H   0  0  0  0  0  0
  -21.5561  -22.4870   23.2376 H   0  0  0  0  0  0
  -22.2083  -20.8870   21.5009 H   0  0  0  0  0  0
  -22.8772  -19.7309   22.7261 H   0  0  0  0  0  0
  -23.9352  -21.1572   24.7054 H   0  0  0  0  0  0
  -23.7590  -22.9102   24.3078 H   0  0  0  0  0  0
  -26.7441  -19.2670   19.9141 H   0  0  0  0  0  0
  -27.1001  -18.2334   21.4202 H   0  0  0  0  0  0
  -28.4159  -20.1597   22.5098 H   0  0  0  0  0  0
  -25.6541  -20.5404   23.2301 H   0  0  0  0  0  0
  -25.0700  -20.2104   21.6068 H   0  0  0  0  0  0
  -28.0477  -25.0686   18.7177 H   0  0  0  0  0  0
  -29.4652  -24.8719   19.6796 H   0  0  0  0  0  0
  -29.6709  -16.7596   19.4015 H   0  0  0  0  0  0
  -28.2951  -16.4923   20.4219 H   0  0  0  0  0  0
  -30.6019  -18.4775   20.9548 H   0  0  0  0  0  0
  -29.4123  -18.0940   22.1638 H   0  0  0  0  0  0
  -30.6168  -15.9608   21.8939 H   0  0  0  0  0  0
  -23.8369  -22.4523   22.0543 H   0  0  0  0  0  0
  -28.8818  -19.6740   19.6257 H   0  0  0  0  0  0
  1 25  1  0  0  0
  1 30  2  0  0  0
  1 86  1  0  0  0
  2  3  1  0  0  0
  2 25  1  0  0  0
  2 89  1  0  0  0
  2 90  1  0  0  0
  3  4  1  0  0  0
  3 91  1  0  0  0
  3 92  1  0  0  0
  4  5  1  0  0  0
  4 93  1  0  0  0
  4 94  1  0  0  0
  5  6  1  0  0  0
  5 26  1  0  0  0
  5 95  1  0  0  0
  6 25  1  0  0  0
  6 96  1  0  0  0
  6 97  1  0  0  0
  7  8  2  0  0  0
  7 26  1  0  0  0
  7 29  1  0  0  0
  8  9  1  0  0  0
  8 22  1  0  0  0
  9 10  1  0  0  0
  9 27  2  0  0  0
 10 11  2  0  0  0
 10 15  1  0  0  0
 11 12  1  0  0  0
 11 98  1  0  0  0
 12 13  2  0  0  0
 12 99  1  0  0  0
 13 14  1  0  0  0
 13 31  1  0  0  0
 14 15  2  0  0  0
 14100  1  0  0  0
 15101  1  0  0  0
 16 17  2  0  0  0
 16 21  1  0  0  0
 16 31  1  0  0  0
 17 18  1  0  0  0
 17102  1  0  0  0
 18 19  2  0  0  0
 18103  1  0  0  0
 19 20  1  0  0  0
 19 24  1  0  0  0
 20 21  2  0  0  0
 20104  1  0  0  0
 21 23  1  0  0  0
 22 28  1  0  0  0
 22 32  2  0  0  0
 26 27  1  0  0  0
 28105  1  0  0  0
 28106  1  0  0  0
 29107  1  0  0  0
 29108  1  0  0  0
 33 34  1  0  0  0
 33 66  1  0  0  0
 33 70  2  0  0  0
 34 36  1  0  0  0
 34 59  1  0  0  0
 34109  1  0  0  0
 35 44  2  0  0  0
 35 45  1  0  0  0
 35 68  1  0  0  0
 36 56  1  0  0  0
 36110  1  0  0  0
 37 39  1  0  0  0
 37 47  1  0  0  0
 37 66  1  0  0  0
 37111  1  0  0  0
 38 43  2  0  0  0
 38 46  1  0  0  0
 38 47  1  0  0  0
 39 64  1  0  0  0
 39 67  2  0  0  0
 40 52  1  0  0  0
 40 53  2  0  0  0
 40 58  1  0  0  0
 41112  1  0  0  0
 41113  1  0  0  0
 41114  1  0  0  0
 41 48  1  0  0  0
 42 43  1  0  0  0
 42 66  1  0  0  0
 42115  1  0  0  0
 42116  1  0  0  0
 43 44  1  0  0  0
 44117  1  0  0  0
 45 46  2  0  0  0
 45118  1  0  0  0
 46119  1  0  0  0
 47120  1  0  0  0
 47121  1  0  0  0
 48 56  1  0  0  0
 48 65  1  0  0  0
 48122  1  0  0  0
 49 50  1  0  0  0
 49 53  1  0  0  0
 49 64  1  0  0  0
 49123  1  0  0  0
 50 51  1  0  0  0
 50124  1  0  0  0
 50125  1  0  0  0
 51 52  1  0  0  0
 51126  1  0  0  0
 51127  1  0  0  0
 52128  1  0  0  0
 52129  1  0  0  0
 53 54  1  0  0  0
 54 55  2  0  0  0
 54130  1  0  0  0
 55 57  1  0  0  0
 55131  1  0  0  0
 56 69  2  0  0  0
 57 58  2  0  0  0
 57132  1  0  0  0
 58133  1  0  0  0
 59 60  1  0  0  0
 59 61  1  0  0  0
 59 62  1  0  0  0
 60134  1  0  0  0
 60135  1  0  0  0
 60136  1  0  0  0
 61137  1  0  0  0
 61138  1  0  0  0
 61139  1  0  0  0
 62140  1  0  0  0
 62141  1  0  0  0
 62142  1  0  0  0
 63 65  1  0  0  0
 63143  1  0  0  0
 63144  1  0  0  0
 63145  1  0  0  0
 64146  1  0  0  0
 65147  1  0  0  0
 68 81  1  0  0  0
 71 73  2  0  0  0
 71 84  1  0  0  0
 71148  1  0  0  0
 72 74  1  0  0  0
 72 85  2  0  0  0
 72 79  1  0  0  0
 73 81  1  0  0  0
 73 85  1  0  0  0
 74 80  1  0  0  0
 74 84  2  0  0  0
 75 76  1  0  0  0
 75 77  1  0  0  0
 75149  1  0  0  0
 75150  1  0  0  0
 76 87  1  0  0  0
 76151  1  0  0  0
 76152  1  0  0  0
 77 87  1  0  0  0
 77153  1  0  0  0
 77154  1  0  0  0
 78 79  1  0  0  0
 78 88  1  0  0  0
 78155  1  0  0  0
 78156  1  0  0  0
 79 88  1  0  0  0
 79157  1  0  0  0
 80158  1  0  0  0
 80159  1  0  0  0
 80 87  1  0  0  0
 81160  1  0  0  0
 81161  1  0  0  0
 82 83  1  0  0  0
 82 86  1  0  0  0
 82162  1  0  0  0
 82163  1  0  0  0
 83164  1  0  0  0
 83165  1  0  0  0
 83 88  1  0  0  0
 86166  1  0  0  0
 87167  1  0  0  0
 88168  1  0  0  0
M  CHG  2  87   1  88   1
M  ISO  4   1 100  68 101  81 101  86 100
M  END
> <chiral flag>
0

> <version>
0

> <s_m_source_file>
/data/baiqing/PycharmProjects/Reinvent-master-3.2/result/LINK_invent/BTK/process_docking_weight1_custom_sum_contain_oxygen_bond_distance_aromatic_linkinvent_7_9_3/rearranged_h_0188.sdf

> <i_m_source_file_index>
46

> <r_mmod_Potential_Energy-OPLS-2005>
-148.728729248047

> <r_mmod_Stretch_Energy-OPLS-2005>
80.546142578125

> <r_mmod_Bend_Energy-OPLS-2005>
212.422805786133

> <r_mmod_Torsional_Energy-OPLS-2005>
340.893249511719

> <r_mmod_Improper_Torsional_Energy-OPLS-2005>
7.55172491073608

> <r_mmod_Van_der_Waal_Energy-OPLS-2005>
154.447463989258

> <r_mmod_Electrostatic_Energy-OPLS-2005>
13.3146190643311

> <r_mmod_Solvation_Energy-OPLS-2005>
-992.892150878906

> <b_mmod_Minimization_Converged-OPLS-2005>
0

> <r_mmod_RMS_Derivative-OPLS-2005>
3.45069241523743

$$$$
47
                    3D
 Structure written by MMmdl.
147156  0  0  1  0            999 V2000
  -30.4002  -15.4415   20.3541 C   0  0  0  0  0  0
  -30.4214  -12.9329   19.5445 C   0  0  0  0  0  0
  -29.5384  -12.6134   18.3099 C   0  0  0  0  0  0
  -28.0982  -12.3026   18.7428 C   0  0  0  0  0  0
  -27.6008  -13.2963   19.8197 C   0  0  2  0  0  0
  -28.6233  -13.5594   20.9491 C   0  0  0  0  0  0
  -25.2335  -13.8291   20.5787 C   0  0  0  0  0  0
  -24.1710  -13.0441   20.9260 C   0  0  0  0  0  0
  -24.6398  -11.6951   20.8755 C   0  0  0  0  0  0
  -23.9104  -10.4298   21.0399 C   0  0  0  0  0  0
  -24.3647   -9.4210   21.9178 C   0  0  0  0  0  0
  -23.6310   -8.2250   22.0754 C   0  0  0  0  0  0
  -22.4288   -8.0287   21.3547 C   0  0  0  0  0  0
  -21.9931   -9.0261   20.4646 C   0  0  0  0  0  0
  -22.7272  -10.2132   20.3052 C   0  0  0  0  0  0
  -21.6855   -6.0745   22.5287 C   0  0  0  0  0  0
  -21.4023   -6.5647   23.8222 C   0  0  0  0  0  0
  -21.3661   -5.6796   24.9180 C   0  0  0  0  0  0
  -21.6039   -4.3058   24.7226 C   0  0  0  0  0  0
  -21.8815   -3.8153   23.4346 C   0  0  0  0  0  0
  -21.9192   -4.6973   22.3405 C   0  0  0  0  0  0
  -22.7724  -13.5171   21.1902 C   0  0  0  0  0  0
  -22.1655   -4.2158   21.0980 F   0  0  0  0  0  0
  -21.5623   -3.4540   25.7736 F   0  0  0  0  0  0
  -29.8332  -14.1127   20.3114 N   0  0  0  0  0  0
  -26.2774  -12.9600   20.3247 N   0  0  0  0  0  0
  -25.9341  -11.6680   20.5718 N   0  0  0  0  0  0
  -22.0393  -12.8151   22.0464 N   0  0  0  0  0  0
  -25.3962  -15.2036   20.4272 N   0  0  0  0  0  0
  -31.6124  -15.3733   20.0825 O   0  0  0  0  0  0
  -21.6644   -6.8888   21.4247 O   0  0  0  0  0  0
  -22.3398  -14.5473   20.6747 O   0  0  0  0  0  0
  -24.6727  -31.8103   23.1599 C   0  0  0  0  0  0
  -25.9361  -32.4514   23.8105 C   0  0  1  0  0  0
  -27.2228  -26.8132   20.1950 C   0  0  0  0  0  0
  -25.5980  -33.8334   24.1992 N   0  0  0  0  0  0
  -23.4932  -30.4169   21.5101 C   0  0  2  0  0  0
  -24.9493  -28.7802   20.1077 C   0  0  0  0  0  0
  -22.7715  -29.4365   22.4730 C   0  0  0  0  0  0
  -18.0332  -28.1415   22.8459 C   0  0  0  0  0  0
  -24.1497  -36.7184   23.2652 C   0  0  0  0  0  0
  -26.0669  -30.5779   21.4092 C   0  0  0  0  0  0
  -26.1316  -29.1557   20.7555 C   0  0  0  0  0  0
  -27.2534  -28.1932   20.7767 C   0  0  0  0  0  0
  -26.0139  -26.6213   19.4847 C   0  0  0  0  0  0
  -24.9223  -27.5368   19.4512 C   0  0  0  0  0  0
  -23.7398  -29.7218   20.1399 C   0  0  0  0  0  0
  -25.4143  -36.2923   24.0288 C   0  0  1  0  0  0
  -20.5960  -28.3765   23.1162 C   0  0  2  0  0  0
  -20.6801  -26.9434   22.5402 C   0  0  0  0  0  0
  -19.5776  -26.6369   21.5215 C   0  0  0  0  0  0
  -18.1959  -26.7942   22.1621 C   0  0  0  0  0  0
  -19.1595  -28.8915   23.2795 C   0  0  0  0  0  0
  -18.9503  -30.1500   23.8837 C   0  0  0  0  0  0
  -17.6494  -30.6600   24.0555 C   0  0  0  0  0  0
  -25.9111  -34.9308   23.4971 C   0  0  0  0  0  0
  -16.5385  -29.9084   23.6345 C   0  0  0  0  0  0
  -16.7313  -28.6506   23.0362 C   0  0  0  0  0  0
  -26.4573  -31.6514   25.0689 C   0  0  0  0  0  0
  -25.3667  -31.3809   26.1325 C   0  0  0  0  0  0
  -27.0491  -30.2862   24.6521 C   0  0  0  0  0  0
  -27.6031  -32.4362   25.7508 C   0  0  0  0  0  0
  -27.5563  -37.1754   24.8468 C   0  0  0  0  0  0
  -21.4373  -29.3030   22.3492 N   0  0  0  0  0  0
  -26.4277  -37.3672   23.9397 N   0  0  0  0  0  0
  -24.7663  -30.9655   22.0794 N   0  0  0  0  0  0
  -23.4209  -28.7956   23.3028 O   0  0  0  0  0  0
  -28.2097  -25.6597   20.3251 O   0  0  0  0  0  0
  -26.5744  -34.8869   22.4581 O   0  0  0  0  0  0
  -23.5774  -32.1129   23.6624 O   0  0  0  0  0  0
  -28.1460  -22.2073   18.9669 C   0  0  0  0  0  0
  -28.1872  -24.0994   20.0815 C   0  0  0  0  0  0
  -31.0436  -18.4087   21.0242 C   0  0  0  0  0  0
  -30.2676  -17.3679   21.8510 C   0  0  0  0  0  0
  -29.8012  -18.4955   20.1710 C   0  0  2  0  0  0
  -28.7982  -20.0174   20.6047 C   0  0  0  0  0  0
  -27.8620  -23.5594   18.8554 N   0  0  0  0  0  0
  -28.6991  -23.0046   20.8657 N   0  0  0  0  0  0
  -28.6645  -21.6893   20.1179 N   0  0  0  0  0  0
  -29.7239  -16.8034   20.5960 N   0  0  0  0  0  0
  -31.4368  -13.1371   19.2025 H   0  0  0  0  0  0
  -30.5130  -12.0570   20.1890 H   0  0  0  0  0  0
  -29.9527  -11.7743   17.7492 H   0  0  0  0  0  0
  -29.5413  -13.4684   17.6326 H   0  0  0  0  0  0
  -28.0863  -11.2898   19.1470 H   0  0  0  0  0  0
  -27.4288  -12.2976   17.8816 H   0  0  0  0  0  0
  -27.4878  -14.2404   19.2845 H   0  0  0  0  0  0
  -28.8306  -12.6568   21.5258 H   0  0  0  0  0  0
  -28.2258  -14.2934   21.6517 H   0  0  0  0  0  0
  -25.2791   -9.5682   22.4755 H   0  0  0  0  0  0
  -24.0015   -7.4641   22.7479 H   0  0  0  0  0  0
  -21.0859   -8.8790   19.8953 H   0  0  0  0  0  0
  -22.3736  -10.9671   19.6163 H   0  0  0  0  0  0
  -21.2029   -7.6157   23.9730 H   0  0  0  0  0  0
  -21.1479   -6.0524   25.9083 H   0  0  0  0  0  0
  -22.0592   -2.7615   23.2844 H   0  0  0  0  0  0
  -22.4023  -11.9831   22.4872 H   0  0  0  0  0  0
  -21.1003  -13.1156   22.2671 H   0  0  0  0  0  0
  -24.6335  -15.8578   20.5639 H   0  0  0  0  0  0
  -26.2572  -15.6531   20.1412 H   0  0  0  0  0  0
  -26.7435  -32.5012   23.0814 H   0  0  0  0  0  0
  -25.0043  -33.9392   25.0088 H   0  0  0  0  0  0
  -22.8127  -31.2516   21.3296 H   0  0  0  0  0  0
  -23.3758  -35.9515   23.3288 H   0  0  0  0  0  0
  -24.3563  -36.8865   22.2070 H   0  0  0  0  0  0
  -23.7264  -37.6366   23.6738 H   0  0  0  0  0  0
  -26.2601  -31.3116   20.6257 H   0  0  0  0  0  0
  -26.9216  -30.6388   22.0706 H   0  0  0  0  0  0
  -28.1402  -28.4772   21.3248 H   0  0  0  0  0  0
  -25.8721  -25.6728   18.9864 H   0  0  0  0  0  0
  -24.0266  -27.2439   18.9200 H   0  0  0  0  0  0
  -23.9050  -30.4859   19.3799 H   0  0  0  0  0  0
  -22.8469  -29.1823   19.8193 H   0  0  0  0  0  0
  -25.1350  -36.1699   25.0781 H   0  0  0  0  0  0
  -21.0049  -28.3388   24.1286 H   0  0  0  0  0  0
  -20.5669  -26.2391   23.3656 H   0  0  0  0  0  0
  -21.6665  -26.7392   22.1219 H   0  0  0  0  0  0
  -19.6934  -25.6262   21.1288 H   0  0  0  0  0  0
  -19.6715  -27.3146   20.6717 H   0  0  0  0  0  0
  -17.4226  -26.6683   21.4027 H   0  0  0  0  0  0
  -18.0355  -26.0102   22.9034 H   0  0  0  0  0  0
  -19.7981  -30.7334   24.2175 H   0  0  0  0  0  0
  -17.5046  -31.6274   24.5169 H   0  0  0  0  0  0
  -15.5381  -30.2967   23.7705 H   0  0  0  0  0  0
  -15.8714  -28.0808   22.7102 H   0  0  0  0  0  0
  -24.5859  -30.7149   25.7633 H   0  0  0  0  0  0
  -24.8851  -32.3027   26.4594 H   0  0  0  0  0  0
  -25.7872  -30.9074   27.0204 H   0  0  0  0  0  0
  -26.3180  -29.6494   24.1528 H   0  0  0  0  0  0
  -27.3963  -29.7287   25.5230 H   0  0  0  0  0  0
  -27.9147  -30.4002   23.9995 H   0  0  0  0  0  0
  -27.2560  -33.3707   26.1927 H   0  0  0  0  0  0
  -28.3928  -32.6854   25.0409 H   0  0  0  0  0  0
  -28.0602  -31.8601   26.5561 H   0  0  0  0  0  0
  -28.2568  -38.0059   24.7485 H   0  0  0  0  0  0
  -28.1070  -36.2579   24.6330 H   0  0  0  0  0  0
  -27.2273  -37.1439   25.8870 H   0  0  0  0  0  0
  -20.9651  -29.8706   21.6595 H   0  0  0  0  0  0
  -26.0111  -38.2728   24.1387 H   0  0  0  0  0  0
  -27.9028  -21.5374   18.1540 H   0  0  0  0  0  0
  -31.9189  -18.0131   20.5047 H   0  0  0  0  0  0
  -31.2903  -19.3216   21.5675 H   0  0  0  0  0  0
  -29.5066  -17.7949   22.5082 H   0  0  0  0  0  0
  -30.9287  -16.7247   22.4372 H   0  0  0  0  0  0
  -30.0912  -18.5780   19.1225 H   0  0  0  0  0  0
  -28.8745  -20.0976   21.6887 H   0  0  0  0  0  0
  -27.7708  -19.6773   20.4785 H   0  0  0  0  0  0
  1 25  1  0  0  0
  1 30  2  0  0  0
  1 80  1  0  0  0
  2  3  1  0  0  0
  2 25  1  0  0  0
  2 81  1  0  0  0
  2 82  1  0  0  0
  3  4  1  0  0  0
  3 83  1  0  0  0
  3 84  1  0  0  0
  4  5  1  0  0  0
  4 85  1  0  0  0
  4 86  1  0  0  0
  5  6  1  0  0  0
  5 26  1  0  0  0
  5 87  1  0  0  0
  6 25  1  0  0  0
  6 88  1  0  0  0
  6 89  1  0  0  0
  7  8  2  0  0  0
  7 26  1  0  0  0
  7 29  1  0  0  0
  8  9  1  0  0  0
  8 22  1  0  0  0
  9 10  1  0  0  0
  9 27  2  0  0  0
 10 11  2  0  0  0
 10 15  1  0  0  0
 11 12  1  0  0  0
 11 90  1  0  0  0
 12 13  2  0  0  0
 12 91  1  0  0  0
 13 14  1  0  0  0
 13 31  1  0  0  0
 14 15  2  0  0  0
 14 92  1  0  0  0
 15 93  1  0  0  0
 16 17  2  0  0  0
 16 21  1  0  0  0
 16 31  1  0  0  0
 17 18  1  0  0  0
 17 94  1  0  0  0
 18 19  2  0  0  0
 18 95  1  0  0  0
 19 20  1  0  0  0
 19 24  1  0  0  0
 20 21  2  0  0  0
 20 96  1  0  0  0
 21 23  1  0  0  0
 22 28  1  0  0  0
 22 32  2  0  0  0
 26 27  1  0  0  0
 28 97  1  0  0  0
 28 98  1  0  0  0
 29 99  1  0  0  0
 29100  1  0  0  0
 33 34  1  0  0  0
 33 66  1  0  0  0
 33 70  2  0  0  0
 34 36  1  0  0  0
 34 59  1  0  0  0
 34101  1  0  0  0
 35 44  2  0  0  0
 35 45  1  0  0  0
 35 68  1  0  0  0
 36 56  1  0  0  0
 36102  1  0  0  0
 37 39  1  0  0  0
 37 47  1  0  0  0
 37 66  1  0  0  0
 37103  1  0  0  0
 38 43  2  0  0  0
 38 46  1  0  0  0
 38 47  1  0  0  0
 39 64  1  0  0  0
 39 67  2  0  0  0
 40 52  1  0  0  0
 40 53  2  0  0  0
 40 58  1  0  0  0
 41104  1  0  0  0
 41105  1  0  0  0
 41106  1  0  0  0
 41 48  1  0  0  0
 42 43  1  0  0  0
 42 66  1  0  0  0
 42107  1  0  0  0
 42108  1  0  0  0
 43 44  1  0  0  0
 44109  1  0  0  0
 45 46  2  0  0  0
 45110  1  0  0  0
 46111  1  0  0  0
 47112  1  0  0  0
 47113  1  0  0  0
 48 56  1  0  0  0
 48 65  1  0  0  0
 48114  1  0  0  0
 49 50  1  0  0  0
 49 53  1  0  0  0
 49 64  1  0  0  0
 49115  1  0  0  0
 50 51  1  0  0  0
 50116  1  0  0  0
 50117  1  0  0  0
 51 52  1  0  0  0
 51118  1  0  0  0
 51119  1  0  0  0
 52120  1  0  0  0
 52121  1  0  0  0
 53 54  1  0  0  0
 54 55  2  0  0  0
 54122  1  0  0  0
 55 57  1  0  0  0
 55123  1  0  0  0
 56 69  2  0  0  0
 57 58  2  0  0  0
 57124  1  0  0  0
 58125  1  0  0  0
 59 60  1  0  0  0
 59 61  1  0  0  0
 59 62  1  0  0  0
 60126  1  0  0  0
 60127  1  0  0  0
 60128  1  0  0  0
 61129  1  0  0  0
 61130  1  0  0  0
 61131  1  0  0  0
 62132  1  0  0  0
 62133  1  0  0  0
 62134  1  0  0  0
 63 65  1  0  0  0
 63135  1  0  0  0
 63136  1  0  0  0
 63137  1  0  0  0
 64138  1  0  0  0
 65139  1  0  0  0
 68 72  1  0  0  0
 71 77  2  0  0  0
 71 79  1  0  0  0
 71140  1  0  0  0
 72 77  1  0  0  0
 72 78  2  0  0  0
 73 74  1  0  0  0
 73 75  1  0  0  0
 73141  1  0  0  0
 73142  1  0  0  0
 74 80  1  0  0  0
 74143  1  0  0  0
 74144  1  0  0  0
 75 76  1  0  0  0
 75 80  1  0  0  0
 75145  1  0  0  0
 76 79  1  0  0  0
 76146  1  0  0  0
 76147  1  0  0  0
 78 79  1  0  0  0
M  ISO  4   1 100  68 101  72 101  80 100
M  END
> <chiral flag>
0

> <version>
0

> <s_m_source_file>
/data/baiqing/PycharmProjects/Reinvent-master-3.2/result/LINK_invent/BTK/process_docking_weight1_custom_sum_contain_oxygen_bond_distance_aromatic_linkinvent_7_9_3/rearranged_h_0188.sdf

> <i_m_source_file_index>
47

> <r_mmod_Potential_Energy-OPLS-2005>
1931.50927734375

> <r_mmod_Stretch_Energy-OPLS-2005>
796.715454101562

> <r_mmod_Bend_Energy-OPLS-2005>
573.882080078125

> <r_mmod_Torsional_Energy-OPLS-2005>
292.391937255859

> <r_mmod_Improper_Torsional_Energy-OPLS-2005>
13.7411851882935

> <r_mmod_Van_der_Waal_Energy-OPLS-2005>
115.264083862305

> <r_mmod_Electrostatic_Energy-OPLS-2005>
-283.636413574219

> <r_mmod_Solvation_Energy-OPLS-2005>
-227.560943603516

> <b_mmod_Minimization_Converged-OPLS-2005>
0

> <r_mmod_RMS_Derivative-OPLS-2005>
0.904084801673889

$$$$
48
                    3D
 Structure written by MMmdl.
162171  0  0  1  0            999 V2000
  -30.6603  -14.5618   20.4700 C   0  0  0  0  0  0
  -30.4234  -12.3358   19.4391 C   0  0  0  0  0  0
  -29.4963  -12.4831   18.2141 C   0  0  0  0  0  0
  -28.0187  -12.3372   18.6303 C   0  0  0  0  0  0
  -27.6497  -13.2060   19.8630 C   0  0  2  0  0  0
  -28.6979  -13.0667   20.9887 C   0  0  0  0  0  0
  -25.2559  -13.8145   20.5706 C   0  0  0  0  0  0
  -24.1808  -13.0427   20.9193 C   0  0  0  0  0  0
  -24.6365  -11.6894   20.8747 C   0  0  0  0  0  0
  -23.9040  -10.4286   21.0411 C   0  0  0  0  0  0
  -24.3602   -9.4203   21.9185 C   0  0  0  0  0  0
  -23.6285   -8.2234   22.0750 C   0  0  0  0  0  0
  -22.4266   -8.0270   21.3542 C   0  0  0  0  0  0
  -21.9897   -9.0242   20.4643 C   0  0  0  0  0  0
  -22.7219  -10.2125   20.3058 C   0  0  0  0  0  0
  -21.6851   -6.0730   22.5282 C   0  0  0  0  0  0
  -21.4012   -6.5635   23.8212 C   0  0  0  0  0  0
  -21.3660   -5.6793   24.9178 C   0  0  0  0  0  0
  -21.6044   -4.3055   24.7231 C   0  0  0  0  0  0
  -21.8821   -3.8147   23.4350 C   0  0  0  0  0  0
  -21.9192   -4.6961   22.3405 C   0  0  0  0  0  0
  -22.7839  -13.5231   21.1857 C   0  0  0  0  0  0
  -22.1662   -4.2148   21.0982 F   0  0  0  0  0  0
  -21.5624   -3.4542   25.7743 F   0  0  0  0  0  0
  -30.0163  -13.3618   20.4115 N   0  0  0  0  0  0
  -26.2971  -12.9301   20.3351 N   0  0  0  0  0  0
  -25.9289  -11.6469   20.5776 N   0  0  0  0  0  0
  -22.0480  -12.8226   22.0414 N   0  0  0  0  0  0
  -25.4302  -15.1864   20.4141 N   0  0  0  0  0  0
  -31.8561  -14.6823   20.1891 O   0  0  0  0  0  0
  -21.6628   -6.8871   21.4243 O   0  0  0  0  0  0
  -22.3533  -14.5542   20.6708 O   0  0  0  0  0  0
  -24.6182  -31.8651   23.2061 C   0  0  0  0  0  0
  -25.9061  -32.4809   23.8373 C   0  0  1  0  0  0
  -27.2313  -27.3970   20.1110 C   0  0  0  0  0  0
  -25.5905  -33.8607   24.2307 N   0  0  0  0  0  0
  -23.4076  -30.4870   21.5473 C   0  0  2  0  0  0
  -24.8541  -28.9440   20.1168 C   0  0  0  0  0  0
  -22.7431  -29.4646   22.4976 C   0  0  0  0  0  0
  -18.0275  -28.1379   22.8488 C   0  0  0  0  0  0
  -24.1486  -36.7311   23.2638 C   0  0  0  0  0  0
  -25.9390  -30.8214   21.3605 C   0  0  0  0  0  0
  -26.0171  -29.4518   20.7101 C   0  0  0  0  0  0
  -27.2115  -28.6895   20.6949 C   0  0  0  0  0  0
  -26.0511  -26.9092   19.5121 C   0  0  0  0  0  0
  -24.8684  -27.6745   19.5118 C   0  0  0  0  0  0
  -23.6176  -29.8152   20.1638 C   0  0  0  0  0  0
  -25.4106  -36.3105   24.0336 C   0  0  1  0  0  0
  -20.5868  -28.3668   23.1314 C   0  0  2  0  0  0
  -20.6766  -26.9401   22.5419 C   0  0  0  0  0  0
  -19.5745  -26.6387   21.5216 C   0  0  0  0  0  0
  -18.1923  -26.7926   22.1625 C   0  0  0  0  0  0
  -19.1523  -28.8841   23.2898 C   0  0  0  0  0  0
  -18.9453  -30.1447   23.8907 C   0  0  0  0  0  0
  -17.6453  -30.6584   24.0565 C   0  0  0  0  0  0
  -25.9036  -34.9470   23.5120 C   0  0  0  0  0  0
  -16.5345  -29.9085   23.6327 C   0  0  0  0  0  0
  -16.7264  -28.6505   23.0345 C   0  0  0  0  0  0
  -26.4474  -31.6597   25.0714 C   0  0  0  0  0  0
  -25.3733  -31.3706   26.1457 C   0  0  0  0  0  0
  -27.0300  -30.3035   24.6100 C   0  0  0  0  0  0
  -27.6050  -32.4311   25.7477 C   0  0  0  0  0  0
  -27.5577  -37.1809   24.8466 C   0  0  0  0  0  0
  -21.4155  -29.3037   22.3722 N   0  0  0  0  0  0
  -26.4292  -37.3791   23.9409 N   0  0  0  0  0  0
  -24.6738  -31.0728   22.0967 N   0  0  0  0  0  0
  -23.4190  -28.8187   23.3030 O   0  0  0  0  0  0
  -28.3869  -26.6359   20.0966 O   0  0  0  0  0  0
  -26.5601  -34.8931   22.4685 O   0  0  0  0  0  0
  -23.5366  -32.1411   23.7441 O   0  0  0  0  0  0
  -27.1428  -20.0281   20.2139 C   0  0  0  0  0  0
  -27.0183  -21.2447   19.2916 C   0  0  0  0  0  0
  -30.2520  -16.9783   21.0924 C   0  0  0  0  0  0
  -29.6026  -16.3779   19.2655 C   0  0  0  0  0  0
  -28.6799  -20.1268   20.1597 C   0  0  2  0  0  0
  -29.3111  -17.6485   20.0755 C   0  0  0  0  0  0
  -28.4971  -21.5762   19.5430 C   0  0  2  0  0  0
  -29.1742  -18.9836   18.0726 C   0  0  0  0  0  0
  -28.4403  -24.1019   19.7542 C   0  0  0  0  0  0
  -28.3294  -25.3247   20.7225 C   0  0  0  0  0  0
  -29.8523  -15.6594   20.5307 N   0  0  0  0  0  0
  -29.4893  -19.0355   19.5042 N   0  0  0  0  0  0
  -28.6773  -22.7743   20.4299 N   0  3  0  0  0  0
  -31.4678  -12.4377   19.1376 H   0  0  0  0  0  0
  -30.3311  -11.3413   19.8782 H   0  0  0  0  0  0
  -29.7464  -11.7345   17.4616 H   0  0  0  0  0  0
  -29.6529  -13.4552   17.7429 H   0  0  0  0  0  0
  -27.8447  -11.2846   18.8559 H   0  0  0  0  0  0
  -27.3645  -12.5776   17.7916 H   0  0  0  0  0  0
  -27.6607  -14.2384   19.5231 H   0  0  0  0  0  0
  -28.6892  -12.0592   21.4067 H   0  0  0  0  0  0
  -28.4697  -13.7442   21.8137 H   0  0  0  0  0  0
  -25.2747   -9.5680   22.4759 H   0  0  0  0  0  0
  -23.9996   -7.4623   22.7465 H   0  0  0  0  0  0
  -21.0827   -8.8759   19.8949 H   0  0  0  0  0  0
  -22.3677  -10.9658   19.6169 H   0  0  0  0  0  0
  -21.2002   -7.6143   23.9713 H   0  0  0  0  0  0
  -21.1482   -6.0526   25.9078 H   0  0  0  0  0  0
  -22.0601   -2.7608   23.2854 H   0  0  0  0  0  0
  -22.4095  -11.9879   22.4792 H   0  0  0  0  0  0
  -21.1095  -13.1249   22.2621 H   0  0  0  0  0  0
  -24.6719  -15.8487   20.5372 H   0  0  0  0  0  0
  -26.3021  -15.6235   20.1452 H   0  0  0  0  0  0
  -26.7134  -32.5505   23.1135 H   0  0  0  0  0  0
  -25.0067  -33.9763   25.0461 H   0  0  0  0  0  0
  -22.6985  -31.3048   21.4050 H   0  0  0  0  0  0
  -23.3747  -35.9645   23.3307 H   0  0  0  0  0  0
  -24.3578  -36.8917   22.2051 H   0  0  0  0  0  0
  -23.7241  -37.6520   23.6646 H   0  0  0  0  0  0
  -26.0528  -31.5843   20.5886 H   0  0  0  0  0  0
  -26.8271  -30.8785   21.9787 H   0  0  0  0  0  0
  -28.1119  -29.0811   21.1479 H   0  0  0  0  0  0
  -26.0414  -25.9380   19.0378 H   0  0  0  0  0  0
  -23.9753  -27.2798   19.0477 H   0  0  0  0  0  0
  -23.7280  -30.5877   19.4019 H   0  0  0  0  0  0
  -22.7409  -29.2358   19.8687 H   0  0  0  0  0  0
  -25.1283  -36.1969   25.0830 H   0  0  0  0  0  0
  -20.9960  -28.3234   24.1436 H   0  0  0  0  0  0
  -20.5677  -26.2273   23.3608 H   0  0  0  0  0  0
  -21.6634  -26.7448   22.1205 H   0  0  0  0  0  0
  -19.6907  -25.6304   21.1233 H   0  0  0  0  0  0
  -19.6684  -27.3210   20.6756 H   0  0  0  0  0  0
  -17.4195  -26.6678   21.4025 H   0  0  0  0  0  0
  -18.0317  -26.0066   22.9019 H   0  0  0  0  0  0
  -19.7928  -30.7261   24.2282 H   0  0  0  0  0  0
  -17.5008  -31.6264   24.5164 H   0  0  0  0  0  0
  -15.5346  -30.2990   23.7644 H   0  0  0  0  0  0
  -15.8665  -28.0830   22.7047 H   0  0  0  0  0  0
  -24.5910  -30.7048   25.7796 H   0  0  0  0  0  0
  -24.8919  -32.2862   26.4905 H   0  0  0  0  0  0
  -25.8081  -30.8880   27.0218 H   0  0  0  0  0  0
  -26.2848  -29.6806   24.1139 H   0  0  0  0  0  0
  -27.4050  -29.7262   25.4562 H   0  0  0  0  0  0
  -27.8691  -30.4350   23.9264 H   0  0  0  0  0  0
  -27.2672  -33.3604   26.2076 H   0  0  0  0  0  0
  -28.3847  -32.6879   25.0294 H   0  0  0  0  0  0
  -28.0732  -31.8420   26.5373 H   0  0  0  0  0  0
  -28.2604  -38.0097   24.7506 H   0  0  0  0  0  0
  -28.1062  -36.2630   24.6297 H   0  0  0  0  0  0
  -27.2296  -37.1465   25.8870 H   0  0  0  0  0  0
  -20.9321  -29.8757   21.6938 H   0  0  0  0  0  0
  -26.0182  -38.2872   24.1404 H   0  0  0  0  0  0
  -26.7130  -19.1182   19.7934 H   0  0  0  0  0  0
  -26.7450  -20.2181   21.2121 H   0  0  0  0  0  0
  -26.2967  -21.9888   19.6317 H   0  0  0  0  0  0
  -26.8270  -20.9613   18.2556 H   0  0  0  0  0  0
  -29.9519  -17.1404   22.1282 H   0  0  0  0  0  0
  -31.3057  -17.2320   20.9493 H   0  0  0  0  0  0
  -30.4827  -16.4535   18.6204 H   0  0  0  0  0  0
  -28.7440  -16.0256   18.6939 H   0  0  0  0  0  0
  -29.0641  -20.2031   21.1786 H   0  0  0  0  0  0
  -28.2833  -17.5809   20.4373 H   0  0  0  0  0  0
  -29.0532  -21.7294   18.6188 H   0  0  0  0  0  0
  -29.3239  -19.9402   17.5770 H   0  0  0  0  0  0
  -28.1427  -18.6729   17.8999 H   0  0  0  0  0  0
  -29.8251  -18.2882   17.5443 H   0  0  0  0  0  0
  -29.2576  -24.2734   19.0532 H   0  0  0  0  0  0
  -27.5318  -24.0487   19.1548 H   0  0  0  0  0  0
  -29.1666  -25.2925   21.4200 H   0  0  0  0  0  0
  -27.4343  -25.2287   21.3406 H   0  0  0  0  0  0
  -29.6208  -22.7659   20.7881 H   0  0  0  0  0  0
  -28.0630  -22.6842   21.2238 H   0  0  0  0  0  0
  1 25  1  0  0  0
  1 30  2  0  0  0
  1 81  1  0  0  0
  2  3  1  0  0  0
  2 25  1  0  0  0
  2 84  1  0  0  0
  2 85  1  0  0  0
  3  4  1  0  0  0
  3 86  1  0  0  0
  3 87  1  0  0  0
  4  5  1  0  0  0
  4 88  1  0  0  0
  4 89  1  0  0  0
  5  6  1  0  0  0
  5 26  1  0  0  0
  5 90  1  0  0  0
  6 25  1  0  0  0
  6 91  1  0  0  0
  6 92  1  0  0  0
  7  8  2  0  0  0
  7 26  1  0  0  0
  7 29  1  0  0  0
  8  9  1  0  0  0
  8 22  1  0  0  0
  9 10  1  0  0  0
  9 27  2  0  0  0
 10 11  2  0  0  0
 10 15  1  0  0  0
 11 12  1  0  0  0
 11 93  1  0  0  0
 12 13  2  0  0  0
 12 94  1  0  0  0
 13 14  1  0  0  0
 13 31  1  0  0  0
 14 15  2  0  0  0
 14 95  1  0  0  0
 15 96  1  0  0  0
 16 17  2  0  0  0
 16 21  1  0  0  0
 16 31  1  0  0  0
 17 18  1  0  0  0
 17 97  1  0  0  0
 18 19  2  0  0  0
 18 98  1  0  0  0
 19 20  1  0  0  0
 19 24  1  0  0  0
 20 21  2  0  0  0
 20 99  1  0  0  0
 21 23  1  0  0  0
 22 28  1  0  0  0
 22 32  2  0  0  0
 26 27  1  0  0  0
 28100  1  0  0  0
 28101  1  0  0  0
 29102  1  0  0  0
 29103  1  0  0  0
 33 34  1  0  0  0
 33 66  1  0  0  0
 33 70  2  0  0  0
 34 36  1  0  0  0
 34 59  1  0  0  0
 34104  1  0  0  0
 35 44  2  0  0  0
 35 45  1  0  0  0
 35 68  1  0  0  0
 36 56  1  0  0  0
 36105  1  0  0  0
 37 39  1  0  0  0
 37 47  1  0  0  0
 37 66  1  0  0  0
 37106  1  0  0  0
 38 43  2  0  0  0
 38 46  1  0  0  0
 38 47  1  0  0  0
 39 64  1  0  0  0
 39 67  2  0  0  0
 40 52  1  0  0  0
 40 53  2  0  0  0
 40 58  1  0  0  0
 41107  1  0  0  0
 41108  1  0  0  0
 41109  1  0  0  0
 41 48  1  0  0  0
 42 43  1  0  0  0
 42 66  1  0  0  0
 42110  1  0  0  0
 42111  1  0  0  0
 43 44  1  0  0  0
 44112  1  0  0  0
 45 46  2  0  0  0
 45113  1  0  0  0
 46114  1  0  0  0
 47115  1  0  0  0
 47116  1  0  0  0
 48 56  1  0  0  0
 48 65  1  0  0  0
 48117  1  0  0  0
 49 50  1  0  0  0
 49 53  1  0  0  0
 49 64  1  0  0  0
 49118  1  0  0  0
 50 51  1  0  0  0
 50119  1  0  0  0
 50120  1  0  0  0
 51 52  1  0  0  0
 51121  1  0  0  0
 51122  1  0  0  0
 52123  1  0  0  0
 52124  1  0  0  0
 53 54  1  0  0  0
 54 55  2  0  0  0
 54125  1  0  0  0
 55 57  1  0  0  0
 55126  1  0  0  0
 56 69  2  0  0  0
 57 58  2  0  0  0
 57127  1  0  0  0
 58128  1  0  0  0
 59 60  1  0  0  0
 59 61  1  0  0  0
 59 62  1  0  0  0
 60129  1  0  0  0
 60130  1  0  0  0
 60131  1  0  0  0
 61132  1  0  0  0
 61133  1  0  0  0
 61134  1  0  0  0
 62135  1  0  0  0
 62136  1  0  0  0
 62137  1  0  0  0
 63 65  1  0  0  0
 63138  1  0  0  0
 63139  1  0  0  0
 63140  1  0  0  0
 64141  1  0  0  0
 65142  1  0  0  0
 68 80  1  0  0  0
 71 72  1  0  0  0
 71 75  1  0  0  0
 71143  1  0  0  0
 71144  1  0  0  0
 72 77  1  0  0  0
 72145  1  0  0  0
 72146  1  0  0  0
 73 76  1  0  0  0
 73 81  1  0  0  0
 73147  1  0  0  0
 73148  1  0  0  0
 74 76  1  0  0  0
 74 81  1  0  0  0
 74149  1  0  0  0
 74150  1  0  0  0
 75 77  1  0  0  0
 75 82  1  0  0  0
 75151  1  0  0  0
 76 82  1  0  0  0
 76152  1  0  0  0
 77 83  1  0  0  0
 77153  1  0  0  0
 78 82  1  0  0  0
 78154  1  0  0  0
 78155  1  0  0  0
 78156  1  0  0  0
 79 80  1  0  0  0
 79 83  1  0  0  0
 79157  1  0  0  0
 79158  1  0  0  0
 80159  1  0  0  0
 80160  1  0  0  0
 83161  1  0  0  0
 83162  1  0  0  0
M  CHG  1  83   1
M  ISO  4   1 100  68 101  80 101  81 100
M  END
> <chiral flag>
0

> <version>
0

> <s_m_source_file>
/data/baiqing/PycharmProjects/Reinvent-master-3.2/result/LINK_invent/BTK/process_docking_weight1_custom_sum_contain_oxygen_bond_distance_aromatic_linkinvent_7_9_3/rearranged_h_0188.sdf

> <i_m_source_file_index>
48

> <r_mmod_Potential_Energy-OPLS-2005>
-1.51025831699371

> <r_mmod_Stretch_Energy-OPLS-2005>
55.1154632568359

> <r_mmod_Bend_Energy-OPLS-2005>
127.519752502441

> <r_mmod_Torsional_Energy-OPLS-2005>
345.12353515625

> <r_mmod_Improper_Torsional_Energy-OPLS-2005>
15.6863222122192

> <r_mmod_Van_der_Waal_Energy-OPLS-2005>
130.093368530273

> <r_mmod_Electrostatic_Energy-OPLS-2005>
-246.288436889648

> <r_mmod_Solvation_Energy-OPLS-2005>
-456.379974365234

> <b_mmod_Minimization_Converged-OPLS-2005>
0

> <r_mmod_RMS_Derivative-OPLS-2005>
0.888964951038361

$$$$
49
                    3D
 Structure written by MMmdl.
154163  0  0  1  0            999 V2000
  -30.4618  -15.3167   20.3869 C   0  0  0  0  0  0
  -30.4331  -12.8482   19.5386 C   0  0  0  0  0  0
  -29.5399  -12.6011   18.2967 C   0  0  0  0  0  0
  -28.0899  -12.3160   18.7208 C   0  0  0  0  0  0
  -27.6125  -13.2870   19.8303 C   0  0  2  0  0  0
  -28.6464  -13.4791   20.9638 C   0  0  0  0  0  0
  -25.2349  -13.8252   20.5716 C   0  0  0  0  0  0
  -24.1729  -13.0428   20.9264 C   0  0  0  0  0  0
  -24.6415  -11.6935   20.8769 C   0  0  0  0  0  0
  -23.9108  -10.4295   21.0403 C   0  0  0  0  0  0
  -24.3642   -9.4206   21.9181 C   0  0  0  0  0  0
  -23.6309   -8.2244   22.0754 C   0  0  0  0  0  0
  -22.4291   -8.0276   21.3538 C   0  0  0  0  0  0
  -21.9936   -9.0258   20.4647 C   0  0  0  0  0  0
  -22.7274  -10.2134   20.3054 C   0  0  0  0  0  0
  -21.6861   -6.0736   22.5276 C   0  0  0  0  0  0
  -21.4022   -6.5635   23.8211 C   0  0  0  0  0  0
  -21.3667   -5.6787   24.9169 C   0  0  0  0  0  0
  -21.6048   -4.3050   24.7223 C   0  0  0  0  0  0
  -21.8813   -3.8142   23.4340 C   0  0  0  0  0  0
  -21.9191   -4.6961   22.3398 C   0  0  0  0  0  0
  -22.7746  -13.5180   21.1891 C   0  0  0  0  0  0
  -22.1658   -4.2146   21.0977 F   0  0  0  0  0  0
  -21.5627   -3.4533   25.7735 F   0  0  0  0  0  0
  -29.8692  -14.0108   20.3332 N   0  0  0  0  0  0
  -26.2823  -12.9569   20.3256 N   0  0  0  0  0  0
  -25.9364  -11.6663   20.5755 N   0  0  0  0  0  0
  -22.0395  -12.8191   22.0456 N   0  0  0  0  0  0
  -25.3875  -15.1976   20.4031 N   0  0  0  0  0  0
  -31.6738  -15.2648   20.1199 O   0  0  0  0  0  0
  -21.6644   -6.8882   21.4240 O   0  0  0  0  0  0
  -22.3437  -14.5479   20.6717 O   0  0  0  0  0  0
  -24.6634  -31.8213   23.1673 C   0  0  0  0  0  0
  -25.9301  -32.4580   23.8152 C   0  0  1  0  0  0
  -27.2265  -26.9058   20.1963 C   0  0  0  0  0  0
  -25.5958  -33.8397   24.2059 N   0  0  0  0  0  0
  -23.4806  -30.4295   21.5169 C   0  0  2  0  0  0
  -24.9374  -28.8104   20.1118 C   0  0  0  0  0  0
  -22.7674  -29.4422   22.4775 C   0  0  0  0  0  0
  -18.0318  -28.1406   22.8469 C   0  0  0  0  0  0
  -24.1495  -36.7212   23.2650 C   0  0  0  0  0  0
  -26.0493  -30.6217   21.4006 C   0  0  0  0  0  0
  -26.1189  -29.2075   20.7490 C   0  0  0  0  0  0
  -27.2549  -28.2763   20.7670 C   0  0  0  0  0  0
  -26.0185  -26.6686   19.5007 C   0  0  0  0  0  0
  -24.9145  -27.5627   19.4656 C   0  0  0  0  0  0
  -23.7224  -29.7390   20.1450 C   0  0  0  0  0  0
  -25.4138  -36.2970   24.0297 C   0  0  1  0  0  0
  -20.5946  -28.3750   23.1190 C   0  0  2  0  0  0
  -20.6793  -26.9430   22.5407 C   0  0  0  0  0  0
  -19.5768  -26.6372   21.5218 C   0  0  0  0  0  0
  -18.1951  -26.7937   22.1628 C   0  0  0  0  0  0
  -19.1581  -28.8900   23.2812 C   0  0  0  0  0  0
  -18.9489  -30.1488   23.8848 C   0  0  0  0  0  0
  -17.6484  -30.6598   24.0551 C   0  0  0  0  0  0
  -25.9098  -34.9346   23.5007 C   0  0  0  0  0  0
  -16.5373  -29.9086   23.6339 C   0  0  0  0  0  0
  -16.7301  -28.6504   23.0364 C   0  0  0  0  0  0
  -26.4548  -31.6532   25.0689 C   0  0  0  0  0  0
  -25.3664  -31.3791   26.1338 C   0  0  0  0  0  0
  -27.0442  -30.2896   24.6430 C   0  0  0  0  0  0
  -27.6039  -32.4338   25.7497 C   0  0  0  0  0  0
  -27.5567  -37.1774   24.8469 C   0  0  0  0  0  0
  -21.4344  -29.3035   22.3534 N   0  0  0  0  0  0
  -26.4289  -37.3699   23.9393 N   0  0  0  0  0  0
  -24.7524  -30.9854   22.0820 N   0  0  0  0  0  0
  -23.4213  -28.8002   23.3025 O   0  0  0  0  0  0
  -28.2294  -25.7968   20.3140 O   0  0  0  0  0  0
  -26.5722  -34.8887   22.4611 O   0  0  0  0  0  0
  -23.5699  -32.1186   23.6757 O   0  0  0  0  0  0
  -28.0868  -18.5805   20.9264 C   0  0  0  0  0  0
  -30.3810  -22.6039   20.5560 C   0  0  0  0  0  0
  -28.5597  -17.0584   21.1980 C   0  0  0  0  0  0
  -30.1389  -18.1754   19.9797 C   0  0  0  0  0  0
  -30.2385  -21.6080   19.3934 C   0  0  0  0  0  0
  -29.2875  -19.5323   20.6414 C   0  0  1  0  0  0
  -28.8607  -22.6348   20.6409 C   0  0  1  0  0  0
  -28.0858  -24.1631   20.0126 C   0  0  0  0  0  0
  -29.7782  -16.6604   20.4411 N   0  0  0  0  0  0
  -29.0117  -21.0733   19.9888 N   0  3  1  0  0  0
  -31.4545  -13.0398   19.2071 H   0  0  0  0  0  0
  -30.4981  -11.9482   20.1522 H   0  0  0  0  0  0
  -29.9327  -11.7744   17.7031 H   0  0  0  0  0  0
  -29.5658  -13.4811   17.6524 H   0  0  0  0  0  0
  -28.0501  -11.2909   19.0895 H   0  0  0  0  0  0
  -27.4248  -12.3584   17.8577 H   0  0  0  0  0  0
  -27.5227  -14.2536   19.3335 H   0  0  0  0  0  0
  -28.8313  -12.5466   21.5000 H   0  0  0  0  0  0
  -28.2772  -14.1875   21.7053 H   0  0  0  0  0  0
  -25.2777   -9.5684   22.4769 H   0  0  0  0  0  0
  -24.0004   -7.4645   22.7483 H   0  0  0  0  0  0
  -21.0861   -8.8787   19.8965 H   0  0  0  0  0  0
  -22.3722  -10.9673   19.6170 H   0  0  0  0  0  0
  -21.2019   -7.6146   23.9722 H   0  0  0  0  0  0
  -21.1500   -6.0511   25.9077 H   0  0  0  0  0  0
  -22.0588   -2.7604   23.2840 H   0  0  0  0  0  0
  -22.4016  -11.9872   22.4877 H   0  0  0  0  0  0
  -21.1004  -13.1223   22.2634 H   0  0  0  0  0  0
  -24.6022  -15.8337   20.4843 H   0  0  0  0  0  0
  -26.2137  -15.6344   20.0167 H   0  0  0  0  0  0
  -26.7370  -32.5117   23.0870 H   0  0  0  0  0  0
  -25.0020  -33.9468   25.0153 H   0  0  0  0  0  0
  -22.7944  -31.2604   21.3424 H   0  0  0  0  0  0
  -23.3756  -35.9546   23.3314 H   0  0  0  0  0  0
  -24.3558  -36.8857   22.2062 H   0  0  0  0  0  0
  -23.7262  -37.6406   23.6706 H   0  0  0  0  0  0
  -26.2266  -31.3590   20.6163 H   0  0  0  0  0  0
  -26.9101  -30.6860   22.0540 H   0  0  0  0  0  0
  -28.1455  -28.5779   21.3005 H   0  0  0  0  0  0
  -25.8907  -25.7154   19.0083 H   0  0  0  0  0  0
  -24.0177  -27.2539   18.9460 H   0  0  0  0  0  0
  -23.8765  -30.5039   19.3832 H   0  0  0  0  0  0
  -22.8325  -29.1909   19.8303 H   0  0  0  0  0  0
  -25.1345  -36.1776   25.0790 H   0  0  0  0  0  0
  -21.0030  -28.3357   24.1315 H   0  0  0  0  0  0
  -20.5671  -26.2370   23.3650 H   0  0  0  0  0  0
  -21.6656  -26.7404   22.1216 H   0  0  0  0  0  0
  -19.6929  -25.6269   21.1280 H   0  0  0  0  0  0
  -19.6708  -27.3152   20.6725 H   0  0  0  0  0  0
  -17.4222  -26.6674   21.4032 H   0  0  0  0  0  0
  -18.0347  -26.0092   22.9036 H   0  0  0  0  0  0
  -19.7964  -30.7310   24.2206 H   0  0  0  0  0  0
  -17.5035  -31.6274   24.5157 H   0  0  0  0  0  0
  -15.5371  -30.2971   23.7689 H   0  0  0  0  0  0
  -15.8702  -28.0802   22.7116 H   0  0  0  0  0  0
  -24.5851  -30.7146   25.7634 H   0  0  0  0  0  0
  -24.8846  -32.2997   26.4641 H   0  0  0  0  0  0
  -25.7873  -30.9024   27.0199 H   0  0  0  0  0  0
  -26.3107  -29.6568   24.1424 H   0  0  0  0  0  0
  -27.3953  -29.7268   25.5089 H   0  0  0  0  0  0
  -27.9057  -30.4070   23.9855 H   0  0  0  0  0  0
  -27.2610  -33.3683   26.1951 H   0  0  0  0  0  0
  -28.3918  -32.6828   25.0377 H   0  0  0  0  0  0
  -28.0632  -31.8543   26.5516 H   0  0  0  0  0  0
  -28.2597  -38.0055   24.7469 H   0  0  0  0  0  0
  -28.1051  -36.2579   24.6368 H   0  0  0  0  0  0
  -27.2269  -37.1498   25.8869 H   0  0  0  0  0  0
  -20.9607  -29.8712   21.6651 H   0  0  0  0  0  0
  -26.0144  -38.2771   24.1357 H   0  0  0  0  0  0
  -27.4823  -18.9535   21.7541 H   0  0  0  0  0  0
  -27.4350  -18.5833   20.0516 H   0  0  0  0  0  0
  -30.8430  -23.5550   20.2894 H   0  0  0  0  0  0
  -30.8515  -22.1714   21.4412 H   0  0  0  0  0  0
  -27.7469  -16.3695   20.9808 H   0  0  0  0  0  0
  -28.7887  -16.9389   22.2584 H   0  0  0  0  0  0
  -31.2090  -18.3265   20.1249 H   0  0  0  0  0  0
  -29.9942  -18.1939   18.8987 H   0  0  0  0  0  0
  -31.0621  -20.8985   19.3092 H   0  0  0  0  0  0
  -30.0471  -22.1007   18.4380 H   0  0  0  0  0  0
  -29.7699  -19.7384   21.5976 H   0  0  0  0  0  0
  -28.5643  -22.4968   21.6807 H   0  0  0  0  0  0
  -27.0162  -23.9951   20.1350 H   0  0  0  0  0  0
  -28.2208  -24.1288   18.9317 H   0  0  0  0  0  0
  -28.3221  -20.9663   19.2611 H   0  0  0  0  0  0
  1 25  1  0  0  0
  1 30  2  0  0  0
  1 79  1  0  0  0
  2  3  1  0  0  0
  2 25  1  0  0  0
  2 81  1  0  0  0
  2 82  1  0  0  0
  3  4  1  0  0  0
  3 83  1  0  0  0
  3 84  1  0  0  0
  4  5  1  0  0  0
  4 85  1  0  0  0
  4 86  1  0  0  0
  5  6  1  0  0  0
  5 26  1  0  0  0
  5 87  1  0  0  0
  6 25  1  0  0  0
  6 88  1  0  0  0
  6 89  1  0  0  0
  7  8  2  0  0  0
  7 26  1  0  0  0
  7 29  1  0  0  0
  8  9  1  0  0  0
  8 22  1  0  0  0
  9 10  1  0  0  0
  9 27  2  0  0  0
 10 11  2  0  0  0
 10 15  1  0  0  0
 11 12  1  0  0  0
 11 90  1  0  0  0
 12 13  2  0  0  0
 12 91  1  0  0  0
 13 14  1  0  0  0
 13 31  1  0  0  0
 14 15  2  0  0  0
 14 92  1  0  0  0
 15 93  1  0  0  0
 16 17  2  0  0  0
 16 21  1  0  0  0
 16 31  1  0  0  0
 17 18  1  0  0  0
 17 94  1  0  0  0
 18 19  2  0  0  0
 18 95  1  0  0  0
 19 20  1  0  0  0
 19 24  1  0  0  0
 20 21  2  0  0  0
 20 96  1  0  0  0
 21 23  1  0  0  0
 22 28  1  0  0  0
 22 32  2  0  0  0
 26 27  1  0  0  0
 28 97  1  0  0  0
 28 98  1  0  0  0
 29 99  1  0  0  0
 29100  1  0  0  0
 33 34  1  0  0  0
 33 66  1  0  0  0
 33 70  2  0  0  0
 34 36  1  0  0  0
 34 59  1  0  0  0
 34101  1  0  0  0
 35 44  2  0  0  0
 35 45  1  0  0  0
 35 68  1  0  0  0
 36 56  1  0  0  0
 36102  1  0  0  0
 37 39  1  0  0  0
 37 47  1  0  0  0
 37 66  1  0  0  0
 37103  1  0  0  0
 38 43  2  0  0  0
 38 46  1  0  0  0
 38 47  1  0  0  0
 39 64  1  0  0  0
 39 67  2  0  0  0
 40 52  1  0  0  0
 40 53  2  0  0  0
 40 58  1  0  0  0
 41104  1  0  0  0
 41105  1  0  0  0
 41106  1  0  0  0
 41 48  1  0  0  0
 42 43  1  0  0  0
 42 66  1  0  0  0
 42107  1  0  0  0
 42108  1  0  0  0
 43 44  1  0  0  0
 44109  1  0  0  0
 45 46  2  0  0  0
 45110  1  0  0  0
 46111  1  0  0  0
 47112  1  0  0  0
 47113  1  0  0  0
 48 56  1  0  0  0
 48 65  1  0  0  0
 48114  1  0  0  0
 49 50  1  0  0  0
 49 53  1  0  0  0
 49 64  1  0  0  0
 49115  1  0  0  0
 50 51  1  0  0  0
 50116  1  0  0  0
 50117  1  0  0  0
 51 52  1  0  0  0
 51118  1  0  0  0
 51119  1  0  0  0
 52120  1  0  0  0
 52121  1  0  0  0
 53 54  1  0  0  0
 54 55  2  0  0  0
 54122  1  0  0  0
 55 57  1  0  0  0
 55123  1  0  0  0
 56 69  2  0  0  0
 57 58  2  0  0  0
 57124  1  0  0  0
 58125  1  0  0  0
 59 60  1  0  0  0
 59 61  1  0  0  0
 59 62  1  0  0  0
 60126  1  0  0  0
 60127  1  0  0  0
 60128  1  0  0  0
 61129  1  0  0  0
 61130  1  0  0  0
 61131  1  0  0  0
 62132  1  0  0  0
 62133  1  0  0  0
 62134  1  0  0  0
 63 65  1  0  0  0
 63135  1  0  0  0
 63136  1  0  0  0
 63137  1  0  0  0
 64138  1  0  0  0
 65139  1  0  0  0
 68 78  1  0  0  0
 71 73  1  0  0  0
 71140  1  0  0  0
 71141  1  0  0  0
 71 76  1  0  0  0
 72 75  1  0  0  0
 72 77  1  0  0  0
 72142  1  0  0  0
 72143  1  0  0  0
 73 79  1  0  0  0
 73144  1  0  0  0
 73145  1  0  0  0
 74 76  1  0  0  0
 74 79  1  0  0  0
 74146  1  0  0  0
 74147  1  0  0  0
 75148  1  0  0  0
 75149  1  0  0  0
 75 80  1  0  0  0
 76 80  1  0  0  0
 76150  1  0  0  0
 77 78  1  0  0  0
 77 80  1  0  0  0
 77151  1  0  0  0
 78152  1  0  0  0
 78153  1  0  0  0
 80154  1  0  0  0
M  CHG  1  80   1
M  ISO  4   1 100  68 101  78 101  79 100
M  END
> <chiral flag>
0

> <version>
0

> <s_m_source_file>
/data/baiqing/PycharmProjects/Reinvent-master-3.2/result/LINK_invent/BTK/process_docking_weight1_custom_sum_contain_oxygen_bond_distance_aromatic_linkinvent_7_9_3/rearranged_h_0188.sdf

> <i_m_source_file_index>
49

> <r_mmod_Potential_Energy-OPLS-2005>
1450.63134765625

> <r_mmod_Stretch_Energy-OPLS-2005>
638.486633300781

> <r_mmod_Bend_Energy-OPLS-2005>
524.227111816406

> <r_mmod_Torsional_Energy-OPLS-2005>
348.988372802734

> <r_mmod_Improper_Torsional_Energy-OPLS-2005>
7.4404764175415

> <r_mmod_Van_der_Waal_Energy-OPLS-2005>
102.89794921875

> <r_mmod_Electrostatic_Energy-OPLS-2005>
-197.115432739258

> <r_mmod_Solvation_Energy-OPLS-2005>
-470.819793701172

> <b_mmod_Minimization_Converged-OPLS-2005>
0

> <r_mmod_RMS_Derivative-OPLS-2005>
1.20525646209717

$$$$
50
                    3D
 Structure written by MMmdl.
160169  0  0  1  0            999 V2000
  -30.6228  -14.9574   20.4066 C   0  0  0  0  0  0
  -30.4193  -12.6047   19.4922 C   0  0  0  0  0  0
  -29.5070  -12.5173   18.2507 C   0  0  0  0  0  0
  -28.0489  -12.2908   18.6831 C   0  0  0  0  0  0
  -27.6172  -13.2490   19.8225 C   0  0  2  0  0  0
  -28.6639  -13.3480   20.9551 C   0  0  0  0  0  0
  -25.2394  -13.8206   20.5692 C   0  0  0  0  0  0
  -24.1733  -13.0428   20.9247 C   0  0  0  0  0  0
  -24.6359  -11.6917   20.8769 C   0  0  0  0  0  0
  -23.9053  -10.4285   21.0404 C   0  0  0  0  0  0
  -24.3608   -9.4202   21.9185 C   0  0  0  0  0  0
  -23.6274   -8.2241   22.0764 C   0  0  0  0  0  0
  -22.4260   -8.0272   21.3548 C   0  0  0  0  0  0
  -21.9890   -9.0249   20.4658 C   0  0  0  0  0  0
  -22.7220  -10.2127   20.3055 C   0  0  0  0  0  0
  -21.6852   -6.0718   22.5271 C   0  0  0  0  0  0
  -21.4015   -6.5626   23.8202 C   0  0  0  0  0  0
  -21.3657   -5.6779   24.9166 C   0  0  0  0  0  0
  -21.6041   -4.3045   24.7221 C   0  0  0  0  0  0
  -21.8821   -3.8133   23.4345 C   0  0  0  0  0  0
  -21.9197   -4.6944   22.3400 C   0  0  0  0  0  0
  -22.7752  -13.5199   21.1886 C   0  0  0  0  0  0
  -22.1668   -4.2130   21.0975 F   0  0  0  0  0  0
  -21.5627   -3.4532   25.7740 F   0  0  0  0  0  0
  -29.9331  -13.7434   20.3322 N   0  0  0  0  0  0
  -26.2819  -12.9448   20.3206 N   0  0  0  0  0  0
  -25.9290  -11.6586   20.5753 N   0  0  0  0  0  0
  -22.0401  -12.8195   22.0443 N   0  0  0  0  0  0
  -25.3982  -15.1927   20.4034 N   0  0  0  0  0  0
  -31.8415  -14.8807   20.2142 O   0  0  0  0  0  0
  -21.6630   -6.8863   21.4236 O   0  0  0  0  0  0
  -22.3443  -14.5507   20.6733 O   0  0  0  0  0  0
  -24.6403  -31.8443   23.1853 C   0  0  0  0  0  0
  -25.9176  -32.4700   23.8251 C   0  0  1  0  0  0
  -27.2244  -27.1450   20.1569 C   0  0  0  0  0  0
  -25.5913  -33.8503   24.2167 N   0  0  0  0  0  0
  -23.4445  -30.4602   21.5312 C   0  0  2  0  0  0
  -24.8957  -28.8787   20.1174 C   0  0  0  0  0  0
  -22.7555  -29.4545   22.4862 C   0  0  0  0  0  0
  -18.0309  -28.1396   22.8496 C   0  0  0  0  0  0
  -24.1482  -36.7259   23.2645 C   0  0  0  0  0  0
  -25.9987  -30.7217   21.3804 C   0  0  0  0  0  0
  -26.0729  -29.3305   20.7269 C   0  0  0  0  0  0
  -27.2395  -28.4813   20.7224 C   0  0  0  0  0  0
  -26.0193  -26.7797   19.5236 C   0  0  0  0  0  0
  -24.8807  -27.6158   19.5010 C   0  0  0  0  0  0
  -23.6715  -29.7793   20.1547 C   0  0  0  0  0  0
  -25.4119  -36.3033   24.0314 C   0  0  1  0  0  0
  -20.5914  -28.3722   23.1248 C   0  0  2  0  0  0
  -20.6772  -26.9423   22.5415 C   0  0  0  0  0  0
  -19.5750  -26.6388   21.5218 C   0  0  0  0  0  0
  -18.1936  -26.7938   22.1635 C   0  0  0  0  0  0
  -19.1562  -28.8882   23.2863 C   0  0  0  0  0  0
  -18.9477  -30.1479   23.8888 C   0  0  0  0  0  0
  -17.6470  -30.6593   24.0571 C   0  0  0  0  0  0
  -25.9077  -34.9414   23.5060 C   0  0  0  0  0  0
  -16.5364  -29.9089   23.6338 C   0  0  0  0  0  0
  -16.7291  -28.6504   23.0370 C   0  0  0  0  0  0
  -26.4492  -31.6575   25.0701 C   0  0  0  0  0  0
  -25.3673  -31.3779   26.1402 C   0  0  0  0  0  0
  -27.0351  -30.2965   24.6282 C   0  0  0  0  0  0
  -27.6025  -32.4340   25.7483 C   0  0  0  0  0  0
  -27.5569  -37.1784   24.8467 C   0  0  0  0  0  0
  -21.4250  -29.3042   22.3612 N   0  0  0  0  0  0
  -26.4278  -37.3750   23.9414 N   0  0  0  0  0  0
  -24.7146  -31.0306   22.0874 N   0  0  0  0  0  0
  -23.4206  -28.8113   23.3019 O   0  0  0  0  0  0
  -28.2973  -26.1896   20.1824 O   0  0  0  0  0  0
  -26.5683  -34.8908   22.4649 O   0  0  0  0  0  0
  -23.5529  -32.1315   23.7078 O   0  0  0  0  0  0
  -29.2767  -23.7604   20.9781 C   0  0  0  0  0  0
  -27.9516  -23.4872   19.4176 C   0  0  0  0  0  0
  -28.7216  -16.7888   20.0482 C   0  0  0  0  0  0
  -30.9408  -17.4957   20.5861 C   0  0  0  0  0  0
  -28.2256  -18.3203   20.3192 C   0  0  0  0  0  0
  -30.3910  -18.9535   21.0180 C   0  0  0  0  0  0
  -28.9549  -22.4405   20.1192 C   0  0  2  0  0  0
  -28.0836  -24.6743   20.4678 C   0  0  2  0  0  0
  -28.4779  -21.0043   22.2693 C   0  0  0  0  0  0
  -28.5594  -20.9162   20.7340 C   0  0  2  0  0  0
  -30.0468  -16.2736   20.5315 N   0  0  0  0  0  0
  -29.1887  -19.5034   20.2871 N   0  3  0  0  0  0
  -31.4543  -12.7288   19.1686 H   0  0  0  0  0  0
  -30.4006  -11.6713   20.0570 H   0  0  0  0  0  0
  -29.8334  -11.7107   17.5929 H   0  0  0  0  0  0
  -29.5821  -13.4385   17.6689 H   0  0  0  0  0  0
  -27.9630  -11.2572   19.0205 H   0  0  0  0  0  0
  -27.3791  -12.3873   17.8278 H   0  0  0  0  0  0
  -27.5561  -14.2250   19.3444 H   0  0  0  0  0  0
  -28.7624  -12.4013   21.4886 H   0  0  0  0  0  0
  -28.3610  -14.0917   21.6942 H   0  0  0  0  0  0
  -25.2757   -9.5676   22.4754 H   0  0  0  0  0  0
  -23.9986   -7.4625   22.7475 H   0  0  0  0  0  0
  -21.0827   -8.8761   19.8953 H   0  0  0  0  0  0
  -22.3679  -10.9663   19.6163 H   0  0  0  0  0  0
  -21.2008   -7.6134   23.9700 H   0  0  0  0  0  0
  -21.1476   -6.0511   25.9068 H   0  0  0  0  0  0
  -22.0603   -2.7593   23.2846 H   0  0  0  0  0  0
  -22.4039  -11.9885   22.4861 H   0  0  0  0  0  0
  -21.1020  -13.1220   22.2648 H   0  0  0  0  0  0
  -24.6111  -15.8269   20.4902 H   0  0  0  0  0  0
  -26.2095  -15.6191   19.9796 H   0  0  0  0  0  0
  -26.7245  -32.5307   23.0986 H   0  0  0  0  0  0
  -24.9964  -33.9614   25.0243 H   0  0  0  0  0  0
  -22.7462  -31.2839   21.3722 H   0  0  0  0  0  0
  -23.3741  -35.9591   23.3312 H   0  0  0  0  0  0
  -24.3558  -36.8899   22.2059 H   0  0  0  0  0  0
  -23.7246  -37.6458   23.6688 H   0  0  0  0  0  0
  -26.1492  -31.4731   20.6035 H   0  0  0  0  0  0
  -26.8698  -30.7781   22.0219 H   0  0  0  0  0  0
  -28.1433  -28.8279   21.2052 H   0  0  0  0  0  0
  -25.9453  -25.8078   19.0565 H   0  0  0  0  0  0
  -23.9799  -27.2622   19.0206 H   0  0  0  0  0  0
  -23.8065  -30.5470   19.3927 H   0  0  0  0  0  0
  -22.7866  -29.2180   19.8494 H   0  0  0  0  0  0
  -25.1305  -36.1863   25.0806 H   0  0  0  0  0  0
  -21.0016  -28.3311   24.1365 H   0  0  0  0  0  0
  -20.5649  -26.2332   23.3633 H   0  0  0  0  0  0
  -21.6639  -26.7411   22.1225 H   0  0  0  0  0  0
  -19.6900  -25.6297   21.1257 H   0  0  0  0  0  0
  -19.6676  -27.3182   20.6737 H   0  0  0  0  0  0
  -17.4194  -26.6700   21.4044 H   0  0  0  0  0  0
  -18.0333  -26.0075   22.9025 H   0  0  0  0  0  0
  -19.7953  -30.7308   24.2228 H   0  0  0  0  0  0
  -17.5028  -31.6270   24.5177 H   0  0  0  0  0  0
  -15.5364  -30.2988   23.7671 H   0  0  0  0  0  0
  -15.8695  -28.0819   22.7095 H   0  0  0  0  0  0
  -24.5836  -30.7143   25.7728 H   0  0  0  0  0  0
  -24.8868  -32.2971   26.4770 H   0  0  0  0  0  0
  -25.7942  -30.8989   27.0223 H   0  0  0  0  0  0
  -26.2962  -29.6700   24.1268 H   0  0  0  0  0  0
  -27.3939  -29.7262   25.4864 H   0  0  0  0  0  0
  -27.8886  -30.4196   23.9608 H   0  0  0  0  0  0
  -27.2608  -33.3649   26.2022 H   0  0  0  0  0  0
  -28.3851  -32.6899   25.0326 H   0  0  0  0  0  0
  -28.0674  -31.8498   26.5439 H   0  0  0  0  0  0
  -28.2597  -38.0068   24.7493 H   0  0  0  0  0  0
  -28.1056  -36.2604   24.6312 H   0  0  0  0  0  0
  -27.2292  -37.1460   25.8871 H   0  0  0  0  0  0
  -20.9453  -29.8737   21.6780 H   0  0  0  0  0  0
  -26.0152  -38.2821   24.1406 H   0  0  0  0  0  0
  -30.2416  -24.1849   20.6974 H   0  0  0  0  0  0
  -29.2611  -23.6187   22.0576 H   0  0  0  0  0  0
  -26.9304  -23.1146   19.3342 H   0  0  0  0  0  0
  -28.3072  -23.7863   18.4310 H   0  0  0  0  0  0
  -28.7024  -16.6160   18.9717 H   0  0  0  0  0  0
  -27.9602  -16.1356   20.4644 H   0  0  0  0  0  0
  -31.7757  -17.2653   21.2514 H   0  0  0  0  0  0
  -31.3898  -17.5925   19.5960 H   0  0  0  0  0  0
  -27.7694  -18.3179   21.3085 H   0  0  0  0  0  0
  -27.4041  -18.5395   19.6365 H   0  0  0  0  0  0
  -31.1986  -19.6815   20.9303 H   0  0  0  0  0  0
  -30.1580  -18.9014   22.0817 H   0  0  0  0  0  0
  -29.7871  -22.3052   19.4271 H   0  0  0  0  0  0
  -27.2630  -24.5903   21.1825 H   0  0  0  0  0  0
  -27.8253  -21.8216   22.5754 H   0  0  0  0  0  0
  -29.4584  -21.1849   22.7095 H   0  0  0  0  0  0
  -28.0717  -20.0981   22.7164 H   0  0  0  0  0  0
  -27.5230  -20.7923   20.4171 H   0  0  0  0  0  0
  -29.4590  -19.6140   19.3204 H   0  0  0  0  0  0
  1 25  1  0  0  0
  1 30  2  0  0  0
  1 81  1  0  0  0
  2  3  1  0  0  0
  2 25  1  0  0  0
  2 83  1  0  0  0
  2 84  1  0  0  0
  3  4  1  0  0  0
  3 85  1  0  0  0
  3 86  1  0  0  0
  4  5  1  0  0  0
  4 87  1  0  0  0
  4 88  1  0  0  0
  5  6  1  0  0  0
  5 26  1  0  0  0
  5 89  1  0  0  0
  6 25  1  0  0  0
  6 90  1  0  0  0
  6 91  1  0  0  0
  7  8  2  0  0  0
  7 26  1  0  0  0
  7 29  1  0  0  0
  8  9  1  0  0  0
  8 22  1  0  0  0
  9 10  1  0  0  0
  9 27  2  0  0  0
 10 11  2  0  0  0
 10 15  1  0  0  0
 11 12  1  0  0  0
 11 92  1  0  0  0
 12 13  2  0  0  0
 12 93  1  0  0  0
 13 14  1  0  0  0
 13 31  1  0  0  0
 14 15  2  0  0  0
 14 94  1  0  0  0
 15 95  1  0  0  0
 16 17  2  0  0  0
 16 21  1  0  0  0
 16 31  1  0  0  0
 17 18  1  0  0  0
 17 96  1  0  0  0
 18 19  2  0  0  0
 18 97  1  0  0  0
 19 20  1  0  0  0
 19 24  1  0  0  0
 20 21  2  0  0  0
 20 98  1  0  0  0
 21 23  1  0  0  0
 22 28  1  0  0  0
 22 32  2  0  0  0
 26 27  1  0  0  0
 28 99  1  0  0  0
 28100  1  0  0  0
 29101  1  0  0  0
 29102  1  0  0  0
 33 34  1  0  0  0
 33 66  1  0  0  0
 33 70  2  0  0  0
 34 36  1  0  0  0
 34 59  1  0  0  0
 34103  1  0  0  0
 35 44  2  0  0  0
 35 45  1  0  0  0
 35 68  1  0  0  0
 36 56  1  0  0  0
 36104  1  0  0  0
 37 39  1  0  0  0
 37 47  1  0  0  0
 37 66  1  0  0  0
 37105  1  0  0  0
 38 43  2  0  0  0
 38 46  1  0  0  0
 38 47  1  0  0  0
 39 64  1  0  0  0
 39 67  2  0  0  0
 40 52  1  0  0  0
 40 53  2  0  0  0
 40 58  1  0  0  0
 41106  1  0  0  0
 41107  1  0  0  0
 41108  1  0  0  0
 41 48  1  0  0  0
 42 43  1  0  0  0
 42 66  1  0  0  0
 42109  1  0  0  0
 42110  1  0  0  0
 43 44  1  0  0  0
 44111  1  0  0  0
 45 46  2  0  0  0
 45112  1  0  0  0
 46113  1  0  0  0
 47114  1  0  0  0
 47115  1  0  0  0
 48 56  1  0  0  0
 48 65  1  0  0  0
 48116  1  0  0  0
 49 50  1  0  0  0
 49 53  1  0  0  0
 49 64  1  0  0  0
 49117  1  0  0  0
 50 51  1  0  0  0
 50118  1  0  0  0
 50119  1  0  0  0
 51 52  1  0  0  0
 51120  1  0  0  0
 51121  1  0  0  0
 52122  1  0  0  0
 52123  1  0  0  0
 53 54  1  0  0  0
 54 55  2  0  0  0
 54124  1  0  0  0
 55 57  1  0  0  0
 55125  1  0  0  0
 56 69  2  0  0  0
 57 58  2  0  0  0
 57126  1  0  0  0
 58127  1  0  0  0
 59 60  1  0  0  0
 59 61  1  0  0  0
 59 62  1  0  0  0
 60128  1  0  0  0
 60129  1  0  0  0
 60130  1  0  0  0
 61131  1  0  0  0
 61132  1  0  0  0
 61133  1  0  0  0
 62134  1  0  0  0
 62135  1  0  0  0
 62136  1  0  0  0
 63 65  1  0  0  0
 63137  1  0  0  0
 63138  1  0  0  0
 63139  1  0  0  0
 64140  1  0  0  0
 65141  1  0  0  0
 68 78  1  0  0  0
 71 78  1  0  0  0
 71142  1  0  0  0
 71143  1  0  0  0
 71 77  1  0  0  0
 72 77  1  0  0  0
 72 78  1  0  0  0
 72144  1  0  0  0
 72145  1  0  0  0
 73 75  1  0  0  0
 73 81  1  0  0  0
 73146  1  0  0  0
 73147  1  0  0  0
 74 76  1  0  0  0
 74 81  1  0  0  0
 74148  1  0  0  0
 74149  1  0  0  0
 75150  1  0  0  0
 75151  1  0  0  0
 75 82  1  0  0  0
 76 82  1  0  0  0
 76152  1  0  0  0
 76153  1  0  0  0
 77 80  1  0  0  0
 77154  1  0  0  0
 78155  1  0  0  0
 79156  1  0  0  0
 79157  1  0  0  0
 79158  1  0  0  0
 79 80  1  0  0  0
 80 82  1  0  0  0
 80159  1  0  0  0
 82160  1  0  0  0
M  CHG  1  82   1
M  ISO  4   1 100  68 101  78 101  81 100
M  END
> <chiral flag>
0

> <version>
0

> <s_m_source_file>
/data/baiqing/PycharmProjects/Reinvent-master-3.2/result/LINK_invent/BTK/process_docking_weight1_custom_sum_contain_oxygen_bond_distance_aromatic_linkinvent_7_9_3/rearranged_h_0188.sdf

> <i_m_source_file_index>
50

> <r_mmod_Potential_Energy-OPLS-2005>
657.478149414062

> <r_mmod_Stretch_Energy-OPLS-2005>
234.588928222656

> <r_mmod_Bend_Energy-OPLS-2005>
330.664398193359

> <r_mmod_Torsional_Energy-OPLS-2005>
430.933746337891

> <r_mmod_Improper_Torsional_Energy-OPLS-2005>
5.46504640579224

> <r_mmod_Van_der_Waal_Energy-OPLS-2005>
117.861114501953

> <r_mmod_Electrostatic_Energy-OPLS-2005>
-203.621627807617

> <r_mmod_Solvation_Energy-OPLS-2005>
-451.268218994141

> <b_mmod_Minimization_Converged-OPLS-2005>
0

> <r_mmod_RMS_Derivative-OPLS-2005>
2.01140761375427

$$$$
51
                    3D
 Structure written by MMmdl.
152161  0  0  1  0            999 V2000
  -30.6584  -14.6362   20.5140 C   0  0  0  0  0  0
  -30.4315  -12.3990   19.4493 C   0  0  0  0  0  0
  -29.5034  -12.5042   18.2205 C   0  0  0  0  0  0
  -28.0283  -12.3400   18.6361 C   0  0  0  0  0  0
  -27.6497  -13.2209   19.8567 C   0  0  2  0  0  0
  -28.6967  -13.1011   20.9861 C   0  0  0  0  0  0
  -25.2542  -13.8180   20.5680 C   0  0  0  0  0  0
  -24.1817  -13.0440   20.9192 C   0  0  0  0  0  0
  -24.6394  -11.6911   20.8745 C   0  0  0  0  0  0
  -23.9062  -10.4291   21.0404 C   0  0  0  0  0  0
  -24.3615   -9.4208   21.9179 C   0  0  0  0  0  0
  -23.6292   -8.2243   22.0753 C   0  0  0  0  0  0
  -22.4274   -8.0279   21.3542 C   0  0  0  0  0  0
  -21.9907   -9.0250   20.4642 C   0  0  0  0  0  0
  -22.7237  -10.2131   20.3050 C   0  0  0  0  0  0
  -21.6851   -6.0732   22.5278 C   0  0  0  0  0  0
  -21.4012   -6.5638   23.8211 C   0  0  0  0  0  0
  -21.3660   -5.6790   24.9173 C   0  0  0  0  0  0
  -21.6048   -4.3054   24.7221 C   0  0  0  0  0  0
  -21.8819   -3.8143   23.4343 C   0  0  0  0  0  0
  -21.9193   -4.6960   22.3401 C   0  0  0  0  0  0
  -22.7838  -13.5227   21.1859 C   0  0  0  0  0  0
  -22.1661   -4.2148   21.0978 F   0  0  0  0  0  0
  -21.5632   -3.4537   25.7733 F   0  0  0  0  0  0
  -30.0078  -13.4348   20.4118 N   0  0  0  0  0  0
  -26.2973  -12.9370   20.3302 N   0  0  0  0  0  0
  -25.9324  -11.6523   20.5755 N   0  0  0  0  0  0
  -22.0480  -12.8214   22.0411 N   0  0  0  0  0  0
  -25.4245  -15.1900   20.4075 N   0  0  0  0  0  0
  -31.8327  -14.7600   20.1581 O   0  0  0  0  0  0
  -21.6641   -6.8874   21.4239 O   0  0  0  0  0  0
  -22.3524  -14.5535   20.6710 O   0  0  0  0  0  0
  -24.6310  -31.8608   23.2070 C   0  0  0  0  0  0
  -25.9159  -32.4780   23.8384 C   0  0  1  0  0  0
  -27.2072  -27.2966   20.1004 C   0  0  0  0  0  0
  -25.5985  -33.8582   24.2307 N   0  0  0  0  0  0
  -23.4235  -30.4925   21.5497 C   0  0  2  0  0  0
  -24.8659  -28.9615   20.1072 C   0  0  0  0  0  0
  -22.7505  -29.4647   22.4921 C   0  0  0  0  0  0
  -18.0300  -28.1386   22.8495 C   0  0  0  0  0  0
  -24.1488  -36.7277   23.2634 C   0  0  0  0  0  0
  -25.9726  -30.7817   21.3877 C   0  0  0  0  0  0
  -26.0404  -29.4117   20.7231 C   0  0  0  0  0  0
  -27.2133  -28.5893   20.7202 C   0  0  0  0  0  0
  -26.0075  -26.9369   19.4307 C   0  0  0  0  0  0
  -24.8523  -27.7281   19.4532 C   0  0  0  0  0  0
  -23.6376  -29.8442   20.1605 C   0  0  0  0  0  0
  -25.4110  -36.3075   24.0329 C   0  0  1  0  0  0
  -20.5909  -28.3697   23.1264 C   0  0  2  0  0  0
  -20.6785  -26.9412   22.5402 C   0  0  0  0  0  0
  -19.5746  -26.6383   21.5214 C   0  0  0  0  0  0
  -18.1930  -26.7932   22.1628 C   0  0  0  0  0  0
  -19.1557  -28.8854   23.2877 C   0  0  0  0  0  0
  -18.9475  -30.1461   23.8882 C   0  0  0  0  0  0
  -17.6471  -30.6582   24.0568 C   0  0  0  0  0  0
  -25.9060  -34.9448   23.5106 C   0  0  0  0  0  0
  -16.5363  -29.9080   23.6338 C   0  0  0  0  0  0
  -16.7287  -28.6504   23.0353 C   0  0  0  0  0  0
  -26.4529  -31.6593   25.0757 C   0  0  0  0  0  0
  -25.3763  -31.3739   26.1485 C   0  0  0  0  0  0
  -27.0386  -30.3011   24.6242 C   0  0  0  0  0  0
  -27.6084  -32.4335   25.7520 C   0  0  0  0  0  0
  -27.5576  -37.1787   24.8462 C   0  0  0  0  0  0
  -21.4218  -29.3055   22.3664 N   0  0  0  0  0  0
  -26.4277  -37.3781   23.9427 N   0  0  0  0  0  0
  -24.6943  -31.0617   22.1033 N   0  0  0  0  0  0
  -23.4233  -28.8154   23.2974 O   0  0  0  0  0  0
  -28.2784  -26.3707   20.1727 O   0  0  0  0  0  0
  -26.5608  -34.8917   22.4656 O   0  0  0  0  0  0
  -23.5470  -32.1421   23.7384 O   0  0  0  0  0  0
  -29.7620  -23.4605   21.0135 C   0  0  0  0  0  0
  -30.2829  -22.1448   21.2174 C   0  0  0  0  0  0
  -28.2601  -22.4687   19.4485 C   0  0  0  0  0  0
  -28.7123  -23.6545   20.0883 C   0  0  0  0  0  0
  -29.7684  -21.0189   20.5197 C   0  0  0  0  0  0
  -30.7208  -19.1166   19.4200 C   0  0  0  0  0  0
  -29.8073  -18.3809   20.3508 C   0  0  1  0  0  0
  -27.9168  -24.9766   19.7897 C   0  0  0  0  0  0
  -30.3736  -17.1410   21.1401 C   0  0  0  0  0  0
  -28.7505  -21.2102   19.6467 N   0  0  0  0  0  0
  -30.3726  -19.7240   20.7052 N   0  0  0  0  0  0
  -29.9143  -15.7316   20.8612 N   0  0  0  0  0  0
  -31.4736  -12.5152   19.1463 H   0  0  0  0  0  0
  -30.3605  -11.4098   19.9047 H   0  0  0  0  0  0
  -29.7699  -11.7486   17.4802 H   0  0  0  0  0  0
  -29.6420  -13.4712   17.7341 H   0  0  0  0  0  0
  -27.8696  -11.2877   18.8759 H   0  0  0  0  0  0
  -27.3716  -12.5596   17.7935 H   0  0  0  0  0  0
  -27.6608  -14.2525   19.5035 H   0  0  0  0  0  0
  -28.7125  -12.0884   21.3916 H   0  0  0  0  0  0
  -28.4451  -13.7562   21.8220 H   0  0  0  0  0  0
  -25.2758   -9.5686   22.4753 H   0  0  0  0  0  0
  -24.0004   -7.4632   22.7468 H   0  0  0  0  0  0
  -21.0842   -8.8758   19.8942 H   0  0  0  0  0  0
  -22.3690  -10.9663   19.6154 H   0  0  0  0  0  0
  -21.2001   -7.6147   23.9712 H   0  0  0  0  0  0
  -21.1486   -6.0521   25.9076 H   0  0  0  0  0  0
  -22.0599   -2.7605   23.2841 H   0  0  0  0  0  0
  -22.4096  -11.9870   22.4789 H   0  0  0  0  0  0
  -21.1095  -13.1231   22.2618 H   0  0  0  0  0  0
  -24.6564  -15.8440   20.5109 H   0  0  0  0  0  0
  -26.2693  -15.6261   20.0602 H   0  0  0  0  0  0
  -26.7222  -32.5441   23.1123 H   0  0  0  0  0  0
  -25.0204  -33.9734   25.0500 H   0  0  0  0  0  0
  -22.7182  -31.3151   21.4140 H   0  0  0  0  0  0
  -23.3755  -35.9607   23.3302 H   0  0  0  0  0  0
  -24.3588  -36.8882   22.2049 H   0  0  0  0  0  0
  -23.7225  -37.6473   23.6650 H   0  0  0  0  0  0
  -26.1197  -31.5474   20.6250 H   0  0  0  0  0  0
  -26.8484  -30.8188   22.0239 H   0  0  0  0  0  0
  -28.1051  -28.9246   21.2306 H   0  0  0  0  0  0
  -25.8941  -26.0170   18.8798 H   0  0  0  0  0  0
  -23.9594  -27.3830   18.9503 H   0  0  0  0  0  0
  -23.7638  -30.6294   19.4144 H   0  0  0  0  0  0
  -22.7557  -29.2820   19.8480 H   0  0  0  0  0  0
  -25.1276  -36.1917   25.0816 H   0  0  0  0  0  0
  -21.0012  -28.3264   24.1381 H   0  0  0  0  0  0
  -20.5690  -26.2302   23.3605 H   0  0  0  0  0  0
  -21.6647  -26.7434   22.1175 H   0  0  0  0  0  0
  -19.6900  -25.6297   21.1232 H   0  0  0  0  0  0
  -19.6666  -27.3210   20.6758 H   0  0  0  0  0  0
  -17.4195  -26.6701   21.4031 H   0  0  0  0  0  0
  -18.0317  -26.0072   22.9016 H   0  0  0  0  0  0
  -19.7949  -30.7299   24.2225 H   0  0  0  0  0  0
  -17.5019  -31.6257   24.5176 H   0  0  0  0  0  0
  -15.5361  -30.2971   23.7665 H   0  0  0  0  0  0
  -15.8694  -28.0823   22.7055 H   0  0  0  0  0  0
  -24.5954  -30.7059   25.7829 H   0  0  0  0  0  0
  -24.8945  -32.2907   26.4889 H   0  0  0  0  0  0
  -25.8097  -30.8944   27.0271 H   0  0  0  0  0  0
  -26.2979  -29.6748   24.1258 H   0  0  0  0  0  0
  -27.4058  -29.7278   25.4763 H   0  0  0  0  0  0
  -27.8862  -30.4282   23.9507 H   0  0  0  0  0  0
  -27.2692  -33.3643   26.2081 H   0  0  0  0  0  0
  -28.3903  -32.6881   25.0354 H   0  0  0  0  0  0
  -28.0752  -31.8477   26.5450 H   0  0  0  0  0  0
  -28.2565  -38.0115   24.7557 H   0  0  0  0  0  0
  -28.1089  -36.2644   24.6211 H   0  0  0  0  0  0
  -27.2310  -37.1340   25.8868 H   0  0  0  0  0  0
  -20.9390  -29.8814   21.6908 H   0  0  0  0  0  0
  -26.0146  -38.2837   24.1480 H   0  0  0  0  0  0
  -30.1580  -24.2979   21.5691 H   0  0  0  0  0  0
  -31.0944  -22.0050   21.9188 H   0  0  0  0  0  0
  -27.4371  -22.5241   18.7506 H   0  0  0  0  0  0
  -30.3091  -19.6221   18.5487 H   0  0  0  0  0  0
  -31.7843  -18.8872   19.4021 H   0  0  0  0  0  0
  -28.7277  -18.4623   20.2359 H   0  0  0  0  0  0
  -26.9562  -24.7419   20.2506 H   0  0  0  0  0  0
  -27.7727  -24.9760   18.7082 H   0  0  0  0  0  0
  -30.1446  -17.3145   22.1924 H   0  0  0  0  0  0
  -31.4634  -17.1729   21.0867 H   0  0  0  0  0  0
  -28.9420  -15.5413   21.0548 H   0  0  0  0  0  0
  1 25  1  0  0  0
  1 30  2  0  0  0
  1 82  1  0  0  0
  2  3  1  0  0  0
  2 25  1  0  0  0
  2 83  1  0  0  0
  2 84  1  0  0  0
  3  4  1  0  0  0
  3 85  1  0  0  0
  3 86  1  0  0  0
  4  5  1  0  0  0
  4 87  1  0  0  0
  4 88  1  0  0  0
  5  6  1  0  0  0
  5 26  1  0  0  0
  5 89  1  0  0  0
  6 25  1  0  0  0
  6 90  1  0  0  0
  6 91  1  0  0  0
  7  8  2  0  0  0
  7 26  1  0  0  0
  7 29  1  0  0  0
  8  9  1  0  0  0
  8 22  1  0  0  0
  9 10  1  0  0  0
  9 27  2  0  0  0
 10 11  2  0  0  0
 10 15  1  0  0  0
 11 12  1  0  0  0
 11 92  1  0  0  0
 12 13  2  0  0  0
 12 93  1  0  0  0
 13 14  1  0  0  0
 13 31  1  0  0  0
 14 15  2  0  0  0
 14 94  1  0  0  0
 15 95  1  0  0  0
 16 17  2  0  0  0
 16 21  1  0  0  0
 16 31  1  0  0  0
 17 18  1  0  0  0
 17 96  1  0  0  0
 18 19  2  0  0  0
 18 97  1  0  0  0
 19 20  1  0  0  0
 19 24  1  0  0  0
 20 21  2  0  0  0
 20 98  1  0  0  0
 21 23  1  0  0  0
 22 28  1  0  0  0
 22 32  2  0  0  0
 26 27  1  0  0  0
 28 99  1  0  0  0
 28100  1  0  0  0
 29101  1  0  0  0
 29102  1  0  0  0
 33 34  1  0  0  0
 33 66  1  0  0  0
 33 70  2  0  0  0
 34 36  1  0  0  0
 34 59  1  0  0  0
 34103  1  0  0  0
 35 44  2  0  0  0
 35 45  1  0  0  0
 35 68  1  0  0  0
 36 56  1  0  0  0
 36104  1  0  0  0
 37 39  1  0  0  0
 37 47  1  0  0  0
 37 66  1  0  0  0
 37105  1  0  0  0
 38 43  2  0  0  0
 38 46  1  0  0  0
 38 47  1  0  0  0
 39 64  1  0  0  0
 39 67  2  0  0  0
 40 52  1  0  0  0
 40 53  2  0  0  0
 40 58  1  0  0  0
 41106  1  0  0  0
 41107  1  0  0  0
 41108  1  0  0  0
 41 48  1  0  0  0
 42 43  1  0  0  0
 42 66  1  0  0  0
 42109  1  0  0  0
 42110  1  0  0  0
 43 44  1  0  0  0
 44111  1  0  0  0
 45 46  2  0  0  0
 45112  1  0  0  0
 46113  1  0  0  0
 47114  1  0  0  0
 47115  1  0  0  0
 48 56  1  0  0  0
 48 65  1  0  0  0
 48116  1  0  0  0
 49 50  1  0  0  0
 49 53  1  0  0  0
 49 64  1  0  0  0
 49117  1  0  0  0
 50 51  1  0  0  0
 50118  1  0  0  0
 50119  1  0  0  0
 51 52  1  0  0  0
 51120  1  0  0  0
 51121  1  0  0  0
 52122  1  0  0  0
 52123  1  0  0  0
 53 54  1  0  0  0
 54 55  2  0  0  0
 54124  1  0  0  0
 55 57  1  0  0  0
 55125  1  0  0  0
 56 69  2  0  0  0
 57 58  2  0  0  0
 57126  1  0  0  0
 58127  1  0  0  0
 59 60  1  0  0  0
 59 61  1  0  0  0
 59 62  1  0  0  0
 60128  1  0  0  0
 60129  1  0  0  0
 60130  1  0  0  0
 61131  1  0  0  0
 61132  1  0  0  0
 61133  1  0  0  0
 62134  1  0  0  0
 62135  1  0  0  0
 62136  1  0  0  0
 63 65  1  0  0  0
 63137  1  0  0  0
 63138  1  0  0  0
 63139  1  0  0  0
 64140  1  0  0  0
 65141  1  0  0  0
 68 78  1  0  0  0
 71 72  2  0  0  0
 71 74  1  0  0  0
 71142  1  0  0  0
 72 75  1  0  0  0
 72143  1  0  0  0
 73 74  2  0  0  0
 73 80  1  0  0  0
 73144  1  0  0  0
 74 78  1  0  0  0
 75 80  2  0  0  0
 75 81  1  0  0  0
 76 77  1  0  0  0
 76 81  1  0  0  0
 76145  1  0  0  0
 76146  1  0  0  0
 77 79  1  0  0  0
 77 81  1  0  0  0
 77147  1  0  0  0
 78148  1  0  0  0
 78149  1  0  0  0
 79 82  1  0  0  0
 79150  1  0  0  0
 79151  1  0  0  0
 82152  1  0  0  0
M  ISO  4   1 100  68 101  78 101  82 100
M  END
> <chiral flag>
0

> <version>
0

> <s_m_source_file>
/data/baiqing/PycharmProjects/Reinvent-master-3.2/result/LINK_invent/BTK/process_docking_weight1_custom_sum_contain_oxygen_bond_distance_aromatic_linkinvent_7_9_3/rearranged_h_0188.sdf

> <i_m_source_file_index>
51

> <r_mmod_Potential_Energy-OPLS-2005>
-90.509033203125

> <r_mmod_Stretch_Energy-OPLS-2005>
81.9178466796875

> <r_mmod_Bend_Energy-OPLS-2005>
174.169082641602

> <r_mmod_Torsional_Energy-OPLS-2005>
230.387008666992

> <r_mmod_Improper_Torsional_Energy-OPLS-2005>
11.4895830154419

> <r_mmod_Van_der_Waal_Energy-OPLS-2005>
165.380035400391

> <r_mmod_Electrostatic_Energy-OPLS-2005>
-575.060974121094

> <r_mmod_Solvation_Energy-OPLS-2005>
-239.546463012695

> <b_mmod_Minimization_Converged-OPLS-2005>
0

> <r_mmod_RMS_Derivative-OPLS-2005>
1.21715831756592

$$$$
52
                    3D
 Structure written by MMmdl.
163172  0  0  1  0            999 V2000
  -30.7545  -14.4213   20.6184 C   0  0  0  0  0  0
  -30.4300  -12.2946   19.4155 C   0  0  0  0  0  0
  -29.5079  -12.5017   18.1981 C   0  0  0  0  0  0
  -28.0233  -12.3756   18.6027 C   0  0  0  0  0  0
  -27.6683  -13.2006   19.8689 C   0  0  2  0  0  0
  -28.7102  -12.9772   20.9878 C   0  0  0  0  0  0
  -25.2655  -13.8162   20.5617 C   0  0  0  0  0  0
  -24.1893  -13.0466   20.9166 C   0  0  0  0  0  0
  -24.6444  -11.6931   20.8749 C   0  0  0  0  0  0
  -23.9141  -10.4317   21.0432 C   0  0  0  0  0  0
  -24.3683   -9.4223   21.9203 C   0  0  0  0  0  0
  -23.6347   -8.2274   22.0767 C   0  0  0  0  0  0
  -22.4317   -8.0343   21.3565 C   0  0  0  0  0  0
  -21.9964   -9.0326   20.4660 C   0  0  0  0  0  0
  -22.7315  -10.2193   20.3077 C   0  0  0  0  0  0
  -21.6865   -6.0792   22.5314 C   0  0  0  0  0  0
  -21.4023   -6.5666   23.8258 C   0  0  0  0  0  0
  -21.3645   -5.6803   24.9192 C   0  0  0  0  0  0
  -21.6043   -4.3069   24.7216 C   0  0  0  0  0  0
  -21.8819   -3.8184   23.4327 C   0  0  0  0  0  0
  -21.9198   -4.7028   22.3399 C   0  0  0  0  0  0
  -22.7914  -13.5289   21.1825 C   0  0  0  0  0  0
  -22.1667   -4.2221   21.0969 F   0  0  0  0  0  0
  -21.5617   -3.4539   25.7711 F   0  0  0  0  0  0
  -30.0450  -13.2755   20.4408 N   0  0  0  0  0  0
  -26.3078  -12.9315   20.3323 N   0  0  0  0  0  0
  -25.9343  -11.6492   20.5737 N   0  0  0  0  0  0
  -22.0507  -12.8330   22.0384 N   0  0  0  0  0  0
  -25.4382  -15.1856   20.3949 N   0  0  0  0  0  0
  -31.8593  -14.6109   20.0974 O   0  0  0  0  0  0
  -21.6647   -6.8955   21.4288 O   0  0  0  0  0  0
  -22.3617  -14.5573   20.6644 O   0  0  0  0  0  0
  -24.6172  -31.8639   23.2065 C   0  0  0  0  0  0
  -25.9075  -32.4793   23.8353 C   0  0  1  0  0  0
  -27.2480  -27.4124   20.0936 C   0  0  0  0  0  0
  -25.5951  -33.8598   24.2262 N   0  0  0  0  0  0
  -23.4059  -30.4865   21.5434 C   0  0  2  0  0  0
  -24.8563  -28.9454   20.1161 C   0  0  0  0  0  0
  -22.7424  -29.4650   22.4959 C   0  0  0  0  0  0
  -18.0269  -28.1416   22.8465 C   0  0  0  0  0  0
  -24.1473  -36.7265   23.2642 C   0  0  0  0  0  0
  -25.9371  -30.8167   21.3695 C   0  0  0  0  0  0
  -26.0152  -29.4489   20.7220 C   0  0  0  0  0  0
  -27.2083  -28.6876   20.7154 C   0  0  0  0  0  0
  -26.0643  -26.9326   19.4798 C   0  0  0  0  0  0
  -24.8778  -27.6868   19.4944 C   0  0  0  0  0  0
  -23.6186  -29.8138   20.1601 C   0  0  0  0  0  0
  -25.4109  -36.3065   24.0312 C   0  0  1  0  0  0
  -20.5860  -28.3719   23.1308 C   0  0  2  0  0  0
  -20.6795  -26.9449   22.5457 C   0  0  0  0  0  0
  -19.5781  -26.6400   21.5253 C   0  0  0  0  0  0
  -18.1929  -26.7953   22.1603 C   0  0  0  0  0  0
  -19.1520  -28.8875   23.2868 C   0  0  0  0  0  0
  -18.9486  -30.1477   23.8884 C   0  0  0  0  0  0
  -17.6509  -30.6626   24.0586 C   0  0  0  0  0  0
  -25.9063  -34.9452   23.5067 C   0  0  0  0  0  0
  -16.5383  -29.9150   23.6360 C   0  0  0  0  0  0
  -16.7268  -28.6572   23.0344 C   0  0  0  0  0  0
  -26.4522  -31.6613   25.0724 C   0  0  0  0  0  0
  -25.3822  -31.3780   26.1506 C   0  0  0  0  0  0
  -27.0356  -30.3036   24.6140 C   0  0  0  0  0  0
  -27.6020  -32.4406   25.7523 C   0  0  0  0  0  0
  -27.5538  -37.1786   24.8453 C   0  0  0  0  0  0
  -21.4153  -29.3038   22.3689 N   0  0  0  0  0  0
  -26.4246  -37.3797   23.9435 N   0  0  0  0  0  0
  -24.6696  -31.0735   22.0959 N   0  0  0  0  0  0
  -23.4179  -28.8229   23.3048 O   0  0  0  0  0  0
  -28.4256  -26.6782   20.1072 O   0  0  0  0  0  0
  -26.5584  -34.8922   22.4612 O   0  0  0  0  0  0
  -23.5367  -32.1405   23.7456 O   0  0  0  0  0  0
  -32.0515  -20.1241   20.2722 C   0  0  0  0  0  0
  -29.1579  -16.2606   20.8994 C   0  0  0  0  0  0
  -31.0705  -16.0215   22.4110 C   0  0  0  0  0  0
  -29.3800  -17.7728   21.1982 C   0  0  0  0  0  0
  -31.7271  -17.3035   21.8457 C   0  0  0  0  0  0
  -30.6570  -20.7169   20.2991 C   0  0  1  0  0  0
  -31.0814  -19.6234   21.3068 C   0  0  1  0  0  0
  -30.6568  -22.2258   20.6261 C   0  0  0  0  0  0
  -29.6076  -24.4815   20.2688 C   0  0  0  0  0  0
  -28.3409  -25.2619   19.8303 C   0  0  0  0  0  0
  -30.2148  -15.3675   21.4203 N   0  0  0  0  0  0
  -30.8046  -18.1756   21.0572 N   0  3  0  0  0  0
  -29.4574  -22.9918   20.1905 N   0  3  0  0  0  0
  -31.4754  -12.3860   19.1176 H   0  0  0  0  0  0
  -30.3307  -11.2814   19.8082 H   0  0  0  0  0  0
  -29.7542  -11.7762   17.4204 H   0  0  0  0  0  0
  -29.6897  -13.4866   17.7655 H   0  0  0  0  0  0
  -27.8134  -11.3199   18.7806 H   0  0  0  0  0  0
  -27.3892  -12.6725   17.7681 H   0  0  0  0  0  0
  -27.7130  -14.2448   19.5748 H   0  0  0  0  0  0
  -28.6813  -11.9407   21.3275 H   0  0  0  0  0  0
  -28.4679  -13.5735   21.8643 H   0  0  0  0  0  0
  -25.2847   -9.5693   22.4750 H   0  0  0  0  0  0
  -24.0088   -7.4646   22.7434 H   0  0  0  0  0  0
  -21.0927   -8.8866   19.8925 H   0  0  0  0  0  0
  -22.3826  -10.9752   19.6177 H   0  0  0  0  0  0
  -21.2025   -7.6178   23.9810 H   0  0  0  0  0  0
  -21.1452   -6.0487   25.9105 H   0  0  0  0  0  0
  -22.0599   -2.7664   23.2790 H   0  0  0  0  0  0
  -22.4095  -12.0006   22.4827 H   0  0  0  0  0  0
  -21.1107  -13.1380   22.2500 H   0  0  0  0  0  0
  -24.6642  -15.8373   20.4766 H   0  0  0  0  0  0
  -26.2782  -15.6160   20.0335 H   0  0  0  0  0  0
  -26.7145  -32.5506   23.1110 H   0  0  0  0  0  0
  -25.0307  -33.9802   25.0529 H   0  0  0  0  0  0
  -22.6957  -31.3036   21.4001 H   0  0  0  0  0  0
  -23.3726  -35.9601   23.3342 H   0  0  0  0  0  0
  -24.3559  -36.8881   22.2054 H   0  0  0  0  0  0
  -23.7250  -37.6487   23.6644 H   0  0  0  0  0  0
  -26.0551  -31.5722   20.5925 H   0  0  0  0  0  0
  -26.8193  -30.8721   21.9925 H   0  0  0  0  0  0
  -28.0937  -29.0620   21.2128 H   0  0  0  0  0  0
  -26.0312  -25.9765   18.9773 H   0  0  0  0  0  0
  -23.9922  -27.2998   19.0101 H   0  0  0  0  0  0
  -23.7285  -30.5832   19.3959 H   0  0  0  0  0  0
  -22.7451  -29.2305   19.8637 H   0  0  0  0  0  0
  -25.1291  -36.1898   25.0798 H   0  0  0  0  0  0
  -20.9925  -28.3330   24.1438 H   0  0  0  0  0  0
  -20.5791  -26.2325   23.3652 H   0  0  0  0  0  0
  -21.6662  -26.7565   22.1193 H   0  0  0  0  0  0
  -19.6985  -25.6320   21.1266 H   0  0  0  0  0  0
  -19.6734  -27.3233   20.6807 H   0  0  0  0  0  0
  -17.4235  -26.6729   21.3963 H   0  0  0  0  0  0
  -18.0275  -26.0088   22.8989 H   0  0  0  0  0  0
  -19.7996  -30.7264   24.2229 H   0  0  0  0  0  0
  -17.5121  -31.6306   24.5207 H   0  0  0  0  0  0
  -15.5401  -30.3088   23.7739 H   0  0  0  0  0  0
  -15.8637  -28.0950   22.7035 H   0  0  0  0  0  0
  -24.5962  -30.7130   25.7937 H   0  0  0  0  0  0
  -24.9060  -32.2974   26.4916 H   0  0  0  0  0  0
  -25.8250  -30.9025   27.0276 H   0  0  0  0  0  0
  -26.2913  -29.6804   24.1168 H   0  0  0  0  0  0
  -27.4113  -29.7292   25.4633 H   0  0  0  0  0  0
  -27.8734  -30.4332   23.9282 H   0  0  0  0  0  0
  -27.2511  -33.3699   26.2021 H   0  0  0  0  0  0
  -28.3843  -32.7041   25.0394 H   0  0  0  0  0  0
  -28.0621  -31.8614   26.5534 H   0  0  0  0  0  0
  -28.2550  -38.0094   24.7523 H   0  0  0  0  0  0
  -28.1034  -36.2632   24.6216 H   0  0  0  0  0  0
  -27.2251  -37.1353   25.8856 H   0  0  0  0  0  0
  -20.9371  -29.8686   21.6808 H   0  0  0  0  0  0
  -26.0088  -38.2837   24.1558 H   0  0  0  0  0  0
  -32.8709  -20.7461   20.6217 H   0  0  0  0  0  0
  -32.2833  -19.5104   19.4014 H   0  0  0  0  0  0
  -28.1944  -15.9592   21.3134 H   0  0  0  0  0  0
  -29.0825  -16.1387   19.8160 H   0  0  0  0  0  0
  -30.4619  -16.2551   23.2873 H   0  0  0  0  0  0
  -31.8454  -15.3412   22.7714 H   0  0  0  0  0  0
  -29.0399  -18.0013   22.2091 H   0  0  0  0  0  0
  -28.7595  -18.3676   20.5261 H   0  0  0  0  0  0
  -32.5662  -17.0366   21.1996 H   0  0  0  0  0  0
  -32.1604  -17.8462   22.6856 H   0  0  0  0  0  0
  -30.0329  -20.4255   19.4573 H   0  0  0  0  0  0
  -31.2093  -19.8894   22.3554 H   0  0  0  0  0  0
  -31.5260  -22.6625   20.1300 H   0  0  0  0  0  0
  -30.8247  -22.3635   21.6960 H   0  0  0  0  0  0
  -29.8502  -24.7564   21.2944 H   0  0  0  0  0  0
  -30.4540  -24.7975   19.6525 H   0  0  0  0  0  0
  -27.4839  -24.8402   20.3571 H   0  0  0  0  0  0
  -28.1790  -25.1124   18.7605 H   0  0  0  0  0  0
  -31.0354  -18.0044   20.0893 H   0  0  0  0  0  0
  -28.6749  -22.7025   20.7570 H   0  0  0  0  0  0
  -29.2530  -22.7321   19.2397 H   0  0  0  0  0  0
  1 25  1  0  0  0
  1 30  2  0  0  0
  1 81  1  0  0  0
  2  3  1  0  0  0
  2 25  1  0  0  0
  2 84  1  0  0  0
  2 85  1  0  0  0
  3  4  1  0  0  0
  3 86  1  0  0  0
  3 87  1  0  0  0
  4  5  1  0  0  0
  4 88  1  0  0  0
  4 89  1  0  0  0
  5  6  1  0  0  0
  5 26  1  0  0  0
  5 90  1  0  0  0
  6 25  1  0  0  0
  6 91  1  0  0  0
  6 92  1  0  0  0
  7  8  2  0  0  0
  7 26  1  0  0  0
  7 29  1  0  0  0
  8  9  1  0  0  0
  8 22  1  0  0  0
  9 10  1  0  0  0
  9 27  2  0  0  0
 10 11  2  0  0  0
 10 15  1  0  0  0
 11 12  1  0  0  0
 11 93  1  0  0  0
 12 13  2  0  0  0
 12 94  1  0  0  0
 13 14  1  0  0  0
 13 31  1  0  0  0
 14 15  2  0  0  0
 14 95  1  0  0  0
 15 96  1  0  0  0
 16 17  2  0  0  0
 16 21  1  0  0  0
 16 31  1  0  0  0
 17 18  1  0  0  0
 17 97  1  0  0  0
 18 19  2  0  0  0
 18 98  1  0  0  0
 19 20  1  0  0  0
 19 24  1  0  0  0
 20 21  2  0  0  0
 20 99  1  0  0  0
 21 23  1  0  0  0
 22 28  1  0  0  0
 22 32  2  0  0  0
 26 27  1  0  0  0
 28100  1  0  0  0
 28101  1  0  0  0
 29102  1  0  0  0
 29103  1  0  0  0
 33 34  1  0  0  0
 33 66  1  0  0  0
 33 70  2  0  0  0
 34 36  1  0  0  0
 34 59  1  0  0  0
 34104  1  0  0  0
 35 44  2  0  0  0
 35 45  1  0  0  0
 35 68  1  0  0  0
 36 56  1  0  0  0
 36105  1  0  0  0
 37 39  1  0  0  0
 37 47  1  0  0  0
 37 66  1  0  0  0
 37106  1  0  0  0
 38 43  2  0  0  0
 38 46  1  0  0  0
 38 47  1  0  0  0
 39 64  1  0  0  0
 39 67  2  0  0  0
 40 52  1  0  0  0
 40 53  2  0  0  0
 40 58  1  0  0  0
 41107  1  0  0  0
 41108  1  0  0  0
 41109  1  0  0  0
 41 48  1  0  0  0
 42 43  1  0  0  0
 42 66  1  0  0  0
 42110  1  0  0  0
 42111  1  0  0  0
 43 44  1  0  0  0
 44112  1  0  0  0
 45 46  2  0  0  0
 45113  1  0  0  0
 46114  1  0  0  0
 47115  1  0  0  0
 47116  1  0  0  0
 48 56  1  0  0  0
 48 65  1  0  0  0
 48117  1  0  0  0
 49 50  1  0  0  0
 49 53  1  0  0  0
 49 64  1  0  0  0
 49118  1  0  0  0
 50 51  1  0  0  0
 50119  1  0  0  0
 50120  1  0  0  0
 51 52  1  0  0  0
 51121  1  0  0  0
 51122  1  0  0  0
 52123  1  0  0  0
 52124  1  0  0  0
 53 54  1  0  0  0
 54 55  2  0  0  0
 54125  1  0  0  0
 55 57  1  0  0  0
 55126  1  0  0  0
 56 69  2  0  0  0
 57 58  2  0  0  0
 57127  1  0  0  0
 58128  1  0  0  0
 59 60  1  0  0  0
 59 61  1  0  0  0
 59 62  1  0  0  0
 60129  1  0  0  0
 60130  1  0  0  0
 60131  1  0  0  0
 61132  1  0  0  0
 61133  1  0  0  0
 61134  1  0  0  0
 62135  1  0  0  0
 62136  1  0  0  0
 62137  1  0  0  0
 63 65  1  0  0  0
 63138  1  0  0  0
 63139  1  0  0  0
 63140  1  0  0  0
 64141  1  0  0  0
 65142  1  0  0  0
 68 80  1  0  0  0
 71 76  1  0  0  0
 71143  1  0  0  0
 71144  1  0  0  0
 71 77  1  0  0  0
 72 74  1  0  0  0
 72 81  1  0  0  0
 72145  1  0  0  0
 72146  1  0  0  0
 73 75  1  0  0  0
 73 81  1  0  0  0
 73147  1  0  0  0
 73148  1  0  0  0
 74149  1  0  0  0
 74150  1  0  0  0
 74 82  1  0  0  0
 75 82  1  0  0  0
 75151  1  0  0  0
 75152  1  0  0  0
 76 77  1  0  0  0
 76 78  1  0  0  0
 76153  1  0  0  0
 77 82  1  0  0  0
 77154  1  0  0  0
 78 83  1  0  0  0
 78155  1  0  0  0
 78156  1  0  0  0
 79 80  1  0  0  0
 79 83  1  0  0  0
 79157  1  0  0  0
 79158  1  0  0  0
 80159  1  0  0  0
 80160  1  0  0  0
 82161  1  0  0  0
 83162  1  0  0  0
 83163  1  0  0  0
M  CHG  2  82   1  83   1
M  ISO  4   1 100  68 101  80 101  81 100
M  END
> <chiral flag>
0

> <version>
0

> <s_m_source_file>
/data/baiqing/PycharmProjects/Reinvent-master-3.2/result/LINK_invent/BTK/process_docking_weight1_custom_sum_contain_oxygen_bond_distance_aromatic_linkinvent_7_9_3/rearranged_h_0188.sdf

> <i_m_source_file_index>
52

> <r_mmod_Potential_Energy-OPLS-2005>
-34.2714881896973

> <r_mmod_Stretch_Energy-OPLS-2005>
43.468635559082

> <r_mmod_Bend_Energy-OPLS-2005>
121.461837768555

> <r_mmod_Torsional_Energy-OPLS-2005>
426.887664794922

> <r_mmod_Improper_Torsional_Energy-OPLS-2005>
4.51200771331787

> <r_mmod_Van_der_Waal_Energy-OPLS-2005>
145.167877197266

> <r_mmod_Electrostatic_Energy-OPLS-2005>
138.528701782227

> <r_mmod_Solvation_Energy-OPLS-2005>
-927.1220703125

> <b_mmod_Minimization_Converged-OPLS-2005>
0

> <r_mmod_RMS_Derivative-OPLS-2005>
4.78047180175781

$$$$
53
                    3D
 Structure written by MMmdl.
146155  0  0  1  0            999 V2000
  -30.3823  -15.5053   20.3526 C   0  0  0  0  0  0
  -30.4201  -12.9834   19.5438 C   0  0  0  0  0  0
  -29.5410  -12.6265   18.3154 C   0  0  0  0  0  0
  -28.1061  -12.2998   18.7532 C   0  0  0  0  0  0
  -27.5982  -13.3004   19.8179 C   0  0  2  0  0  0
  -28.6185  -13.5925   20.9433 C   0  0  0  0  0  0
  -25.2337  -13.8290   20.5800 C   0  0  0  0  0  0
  -24.1712  -13.0445   20.9280 C   0  0  0  0  0  0
  -24.6400  -11.6951   20.8766 C   0  0  0  0  0  0
  -23.9106  -10.4298   21.0400 C   0  0  0  0  0  0
  -24.3646   -9.4210   21.9180 C   0  0  0  0  0  0
  -23.6311   -8.2249   22.0752 C   0  0  0  0  0  0
  -22.4292   -8.0287   21.3543 C   0  0  0  0  0  0
  -21.9935   -9.0262   20.4643 C   0  0  0  0  0  0
  -22.7274  -10.2136   20.3051 C   0  0  0  0  0  0
  -21.6859   -6.0741   22.5278 C   0  0  0  0  0  0
  -21.4019   -6.5643   23.8212 C   0  0  0  0  0  0
  -21.3661   -5.6794   24.9173 C   0  0  0  0  0  0
  -21.6044   -4.3057   24.7224 C   0  0  0  0  0  0
  -21.8818   -3.8149   23.4344 C   0  0  0  0  0  0
  -21.9194   -4.6967   22.3401 C   0  0  0  0  0  0
  -22.7726  -13.5178   21.1916 C   0  0  0  0  0  0
  -22.1662   -4.2152   21.0978 F   0  0  0  0  0  0
  -21.5628   -3.4540   25.7736 F   0  0  0  0  0  0
  -29.8141  -14.1699   20.2944 N   0  0  0  0  0  0
  -26.2771  -12.9604   20.3249 N   0  0  0  0  0  0
  -25.9345  -11.6682   20.5719 N   0  0  0  0  0  0
  -22.0392  -12.8151   22.0467 N   0  0  0  0  0  0
  -25.3971  -15.2031   20.4265 N   0  0  0  0  0  0
  -31.6020  -15.4178   20.1142 O   0  0  0  0  0  0
  -21.6649   -6.8887   21.4242 O   0  0  0  0  0  0
  -22.3401  -14.5476   20.6753 O   0  0  0  0  0  0
  -24.6770  -31.8068   23.1574 C   0  0  0  0  0  0
  -25.9383  -32.4500   23.8094 C   0  0  1  0  0  0
  -27.2219  -26.7710   20.2009 C   0  0  0  0  0  0
  -25.5990  -33.8323   24.1985 N   0  0  0  0  0  0
  -23.5001  -30.4116   21.5090 C   0  0  2  0  0  0
  -24.9579  -28.7697   20.1099 C   0  0  0  0  0  0
  -22.7737  -29.4348   22.4723 C   0  0  0  0  0  0
  -18.0334  -28.1418   22.8459 C   0  0  0  0  0  0
  -24.1495  -36.7167   23.2651 C   0  0  0  0  0  0
  -26.0770  -30.5604   21.4140 C   0  0  0  0  0  0
  -26.1425  -29.1339   20.7604 C   0  0  0  0  0  0
  -27.2596  -28.1575   20.7823 C   0  0  0  0  0  0
  -26.0126  -26.6057   19.4818 C   0  0  0  0  0  0
  -24.9282  -27.5304   19.4479 C   0  0  0  0  0  0
  -23.7500  -29.7155   20.1402 C   0  0  0  0  0  0
  -25.4142  -36.2915   24.0286 C   0  0  1  0  0  0
  -20.5967  -28.3773   23.1155 C   0  0  2  0  0  0
  -20.6803  -26.9438   22.5403 C   0  0  0  0  0  0
  -19.5778  -26.6372   21.5216 C   0  0  0  0  0  0
  -18.1961  -26.7947   22.1621 C   0  0  0  0  0  0
  -19.1599  -28.8919   23.2789 C   0  0  0  0  0  0
  -18.9506  -30.1505   23.8832 C   0  0  0  0  0  0
  -17.6497  -30.6602   24.0552 C   0  0  0  0  0  0
  -25.9118  -34.9303   23.4968 C   0  0  0  0  0  0
  -16.5387  -29.9085   23.6349 C   0  0  0  0  0  0
  -16.7315  -28.6508   23.0366 C   0  0  0  0  0  0
  -26.4584  -31.6511   25.0691 C   0  0  0  0  0  0
  -25.3667  -31.3811   26.1316 C   0  0  0  0  0  0
  -27.0511  -30.2856   24.6550 C   0  0  0  0  0  0
  -27.6043  -32.4361   25.7504 C   0  0  0  0  0  0
  -27.5565  -37.1741   24.8466 C   0  0  0  0  0  0
  -21.4390  -29.3031   22.3480 N   0  0  0  0  0  0
  -26.4273  -37.3669   23.9408 N   0  0  0  0  0  0
  -24.7739  -30.9577   22.0794 N   0  0  0  0  0  0
  -23.4213  -28.7939   23.3036 O   0  0  0  0  0  0
  -28.1722  -25.5716   20.3336 O   0  0  0  0  0  0
  -26.5750  -34.8868   22.4580 O   0  0  0  0  0  0
  -23.5805  -32.1114   23.6568 O   0  0  0  0  0  0
  -28.0499  -21.6041   21.6021 C   0  0  0  0  0  0
  -28.7686  -19.2850   21.2166 C   0  0  0  0  0  0
  -29.3243  -19.7104   20.0457 C   0  0  0  0  0  0
  -28.5510  -22.2332   20.3919 C   0  0  0  0  0  0
  -28.9521  -17.6784   21.4504 C   0  0  0  0  0  0
  -29.9791  -18.2638   19.5020 C   0  0  0  0  0  0
  -28.0225  -23.9162   19.8758 C   0  0  0  0  0  0
  -28.1424  -20.2456   21.9942 N   0  0  0  0  0  0
  -29.2043  -21.1376   19.6217 N   0  0  0  0  0  0
  -29.7007  -16.8896   20.3336 N   0  0  0  0  0  0
  -31.4290  -13.2017   19.1924 H   0  0  0  0  0  0
  -30.5336  -12.1195   20.2011 H   0  0  0  0  0  0
  -29.9694  -11.7858   17.7681 H   0  0  0  0  0  0
  -29.5282  -13.4702   17.6238 H   0  0  0  0  0  0
  -28.1091  -11.2928   19.1721 H   0  0  0  0  0  0
  -27.4363  -12.2738   17.8928 H   0  0  0  0  0  0
  -27.4755  -14.2350   19.2686 H   0  0  0  0  0  0
  -28.8457  -12.6993   21.5272 H   0  0  0  0  0  0
  -28.2072  -14.3228   21.6419 H   0  0  0  0  0  0
  -25.2786   -9.5686   22.4763 H   0  0  0  0  0  0
  -24.0015   -7.4641   22.7476 H   0  0  0  0  0  0
  -21.0865   -8.8786   19.8950 H   0  0  0  0  0  0
  -22.3729  -10.9677   19.6163 H   0  0  0  0  0  0
  -21.2013   -7.6151   23.9716 H   0  0  0  0  0  0
  -21.1483   -6.0524   25.9076 H   0  0  0  0  0  0
  -22.0596   -2.7611   23.2844 H   0  0  0  0  0  0
  -22.4036  -11.9828   22.4861 H   0  0  0  0  0  0
  -21.0998  -13.1145   22.2667 H   0  0  0  0  0  0
  -24.6281  -15.8539   20.5437 H   0  0  0  0  0  0
  -26.2444  -15.6461   20.0959 H   0  0  0  0  0  0
  -26.7459  -32.4989   23.0804 H   0  0  0  0  0  0
  -25.0062  -33.9374   25.0086 H   0  0  0  0  0  0
  -22.8217  -31.2475   21.3255 H   0  0  0  0  0  0
  -23.3774  -35.9479   23.3267 H   0  0  0  0  0  0
  -24.3565  -36.8871   22.2074 H   0  0  0  0  0  0
  -23.7237  -37.6330   23.6751 H   0  0  0  0  0  0
  -26.2758  -31.2910   20.6287 H   0  0  0  0  0  0
  -26.9297  -30.6229   22.0777 H   0  0  0  0  0  0
  -28.1450  -28.4330   21.3376 H   0  0  0  0  0  0
  -25.8560  -25.6657   18.9732 H   0  0  0  0  0  0
  -24.0335  -27.2459   18.9112 H   0  0  0  0  0  0
  -23.9173  -30.4793   19.3799 H   0  0  0  0  0  0
  -22.8566  -29.1775   19.8183 H   0  0  0  0  0  0
  -25.1348  -36.1686   25.0777 H   0  0  0  0  0  0
  -21.0053  -28.3395   24.1279 H   0  0  0  0  0  0
  -20.5670  -26.2396   23.3660 H   0  0  0  0  0  0
  -21.6664  -26.7388   22.1219 H   0  0  0  0  0  0
  -19.6934  -25.6266   21.1288 H   0  0  0  0  0  0
  -19.6720  -27.3147   20.6718 H   0  0  0  0  0  0
  -17.4230  -26.6690   21.4025 H   0  0  0  0  0  0
  -18.0350  -26.0105   22.9032 H   0  0  0  0  0  0
  -19.7981  -30.7339   24.2171 H   0  0  0  0  0  0
  -17.5047  -31.6276   24.5167 H   0  0  0  0  0  0
  -15.5384  -30.2966   23.7711 H   0  0  0  0  0  0
  -15.8716  -28.0804   22.7118 H   0  0  0  0  0  0
  -24.5874  -30.7136   25.7619 H   0  0  0  0  0  0
  -24.8831  -32.3027   26.4562 H   0  0  0  0  0  0
  -25.7858  -30.9094   27.0213 H   0  0  0  0  0  0
  -26.3217  -29.6484   24.1539 H   0  0  0  0  0  0
  -27.3957  -29.7284   25.5272 H   0  0  0  0  0  0
  -27.9190  -30.3996   24.0054 H   0  0  0  0  0  0
  -27.2587  -33.3724   26.1900 H   0  0  0  0  0  0
  -28.3946  -32.6825   25.0401 H   0  0  0  0  0  0
  -28.0610  -31.8614   26.5572 H   0  0  0  0  0  0
  -28.2553  -38.0063   24.7515 H   0  0  0  0  0  0
  -28.1090  -36.2586   24.6292 H   0  0  0  0  0  0
  -27.2280  -37.1376   25.8868 H   0  0  0  0  0  0
  -20.9680  -29.8698   21.6565 H   0  0  0  0  0  0
  -26.0105  -38.2719   24.1421 H   0  0  0  0  0  0
  -27.4747  -22.2163   22.2815 H   0  0  0  0  0  0
  -27.9648  -17.2341   21.5781 H   0  0  0  0  0  0
  -29.4824  -17.5276   22.3910 H   0  0  0  0  0  0
  -31.0594  -18.3939   19.4332 H   0  0  0  0  0  0
  -29.6321  -18.1057   18.4809 H   0  0  0  0  0  0
  -26.9411  -23.7884   19.8404 H   0  0  0  0  0  0
  -28.3107  -23.9390   18.8251 H   0  0  0  0  0  0
  1 25  1  0  0  0
  1 30  2  0  0  0
  1 80  1  0  0  0
  2  3  1  0  0  0
  2 25  1  0  0  0
  2 81  1  0  0  0
  2 82  1  0  0  0
  3  4  1  0  0  0
  3 83  1  0  0  0
  3 84  1  0  0  0
  4  5  1  0  0  0
  4 85  1  0  0  0
  4 86  1  0  0  0
  5  6  1  0  0  0
  5 26  1  0  0  0
  5 87  1  0  0  0
  6 25  1  0  0  0
  6 88  1  0  0  0
  6 89  1  0  0  0
  7  8  2  0  0  0
  7 26  1  0  0  0
  7 29  1  0  0  0
  8  9  1  0  0  0
  8 22  1  0  0  0
  9 10  1  0  0  0
  9 27  2  0  0  0
 10 11  2  0  0  0
 10 15  1  0  0  0
 11 12  1  0  0  0
 11 90  1  0  0  0
 12 13  2  0  0  0
 12 91  1  0  0  0
 13 14  1  0  0  0
 13 31  1  0  0  0
 14 15  2  0  0  0
 14 92  1  0  0  0
 15 93  1  0  0  0
 16 17  2  0  0  0
 16 21  1  0  0  0
 16 31  1  0  0  0
 17 18  1  0  0  0
 17 94  1  0  0  0
 18 19  2  0  0  0
 18 95  1  0  0  0
 19 20  1  0  0  0
 19 24  1  0  0  0
 20 21  2  0  0  0
 20 96  1  0  0  0
 21 23  1  0  0  0
 22 28  1  0  0  0
 22 32  2  0  0  0
 26 27  1  0  0  0
 28 97  1  0  0  0
 28 98  1  0  0  0
 29 99  1  0  0  0
 29100  1  0  0  0
 33 34  1  0  0  0
 33 66  1  0  0  0
 33 70  2  0  0  0
 34 36  1  0  0  0
 34 59  1  0  0  0
 34101  1  0  0  0
 35 44  2  0  0  0
 35 45  1  0  0  0
 35 68  1  0  0  0
 36 56  1  0  0  0
 36102  1  0  0  0
 37 39  1  0  0  0
 37 47  1  0  0  0
 37 66  1  0  0  0
 37103  1  0  0  0
 38 43  2  0  0  0
 38 46  1  0  0  0
 38 47  1  0  0  0
 39 64  1  0  0  0
 39 67  2  0  0  0
 40 52  1  0  0  0
 40 53  2  0  0  0
 40 58  1  0  0  0
 41104  1  0  0  0
 41105  1  0  0  0
 41106  1  0  0  0
 41 48  1  0  0  0
 42 43  1  0  0  0
 42 66  1  0  0  0
 42107  1  0  0  0
 42108  1  0  0  0
 43 44  1  0  0  0
 44109  1  0  0  0
 45 46  2  0  0  0
 45110  1  0  0  0
 46111  1  0  0  0
 47112  1  0  0  0
 47113  1  0  0  0
 48 56  1  0  0  0
 48 65  1  0  0  0
 48114  1  0  0  0
 49 50  1  0  0  0
 49 53  1  0  0  0
 49 64  1  0  0  0
 49115  1  0  0  0
 50 51  1  0  0  0
 50116  1  0  0  0
 50117  1  0  0  0
 51 52  1  0  0  0
 51118  1  0  0  0
 51119  1  0  0  0
 52120  1  0  0  0
 52121  1  0  0  0
 53 54  1  0  0  0
 54 55  2  0  0  0
 54122  1  0  0  0
 55 57  1  0  0  0
 55123  1  0  0  0
 56 69  2  0  0  0
 57 58  2  0  0  0
 57124  1  0  0  0
 58125  1  0  0  0
 59 60  1  0  0  0
 59 61  1  0  0  0
 59 62  1  0  0  0
 60126  1  0  0  0
 60127  1  0  0  0
 60128  1  0  0  0
 61129  1  0  0  0
 61130  1  0  0  0
 61131  1  0  0  0
 62132  1  0  0  0
 62133  1  0  0  0
 62134  1  0  0  0
 63 65  1  0  0  0
 63135  1  0  0  0
 63136  1  0  0  0
 63137  1  0  0  0
 64138  1  0  0  0
 65139  1  0  0  0
 68 77  1  0  0  0
 71 74  2  0  0  0
 71 78  1  0  0  0
 71140  1  0  0  0
 72 73  1  0  0  0
 72 75  1  0  0  0
 72 78  2  0  0  0
 73 76  1  0  0  0
 73 79  2  0  0  0
 74 77  1  0  0  0
 74 79  1  0  0  0
 75 80  1  0  0  0
 75141  1  0  0  0
 75142  1  0  0  0
 76 80  1  0  0  0
 76143  1  0  0  0
 76144  1  0  0  0
 77145  1  0  0  0
 77146  1  0  0  0
M  ISO  4   1 100  68 101  77 101  80 100
M  END
> <chiral flag>
0

> <version>
0

> <s_m_source_file>
/data/baiqing/PycharmProjects/Reinvent-master-3.2/result/LINK_invent/BTK/process_docking_weight1_custom_sum_contain_oxygen_bond_distance_aromatic_linkinvent_7_9_3/rearranged_h_0188.sdf

> <i_m_source_file_index>
53

> <r_mmod_Potential_Energy-OPLS-2005>
1988.72058105469

> <r_mmod_Stretch_Energy-OPLS-2005>
774.833740234375

> <r_mmod_Bend_Energy-OPLS-2005>
605.795227050781

> <r_mmod_Torsional_Energy-OPLS-2005>
267.110900878906

> <r_mmod_Improper_Torsional_Energy-OPLS-2005>
13.4753284454346

> <r_mmod_Van_der_Waal_Energy-OPLS-2005>
120.583267211914

> <r_mmod_Electrostatic_Energy-OPLS-2005>
-294.260772705078

> <r_mmod_Solvation_Energy-OPLS-2005>
-235.960739135742

> <b_mmod_Minimization_Converged-OPLS-2005>
0

> <r_mmod_RMS_Derivative-OPLS-2005>
0.0706550180912018

$$$$
54
                    3D
 Structure written by MMmdl.
162171  0  0  1  0            999 V2000
  -30.6748  -14.5703   20.4996 C   0  0  0  0  0  0
  -30.4223  -12.3501   19.4454 C   0  0  0  0  0  0
  -29.4997  -12.4949   18.2176 C   0  0  0  0  0  0
  -28.0211  -12.3500   18.6291 C   0  0  0  0  0  0
  -27.6516  -13.2183   19.8622 C   0  0  2  0  0  0
  -28.6963  -13.0775   20.9912 C   0  0  0  0  0  0
  -25.2554  -13.8180   20.5703 C   0  0  0  0  0  0
  -24.1818  -13.0442   20.9190 C   0  0  0  0  0  0
  -24.6389  -11.6915   20.8736 C   0  0  0  0  0  0
  -23.9060  -10.4295   21.0396 C   0  0  0  0  0  0
  -24.3610   -9.4211   21.9173 C   0  0  0  0  0  0
  -23.6294   -8.2243   22.0745 C   0  0  0  0  0  0
  -22.4277   -8.0278   21.3537 C   0  0  0  0  0  0
  -21.9911   -9.0250   20.4640 C   0  0  0  0  0  0
  -22.7234  -10.2133   20.3049 C   0  0  0  0  0  0
  -21.6854   -6.0738   22.5278 C   0  0  0  0  0  0
  -21.4012   -6.5642   23.8212 C   0  0  0  0  0  0
  -21.3659   -5.6793   24.9172 C   0  0  0  0  0  0
  -21.6045   -4.3056   24.7219 C   0  0  0  0  0  0
  -21.8818   -3.8147   23.4340 C   0  0  0  0  0  0
  -21.9194   -4.6965   22.3399 C   0  0  0  0  0  0
  -22.7843  -13.5234   21.1855 C   0  0  0  0  0  0
  -22.1662   -4.2153   21.0977 F   0  0  0  0  0  0
  -21.5632   -3.4538   25.7731 F   0  0  0  0  0  0
  -30.0149  -13.3782   20.4186 N   0  0  0  0  0  0
  -26.2983  -12.9365   20.3332 N   0  0  0  0  0  0
  -25.9316  -11.6515   20.5755 N   0  0  0  0  0  0
  -22.0484  -12.8227   22.0410 N   0  0  0  0  0  0
  -25.4288  -15.1901   20.4142 N   0  0  0  0  0  0
  -31.8538  -14.6861   20.1541 O   0  0  0  0  0  0
  -21.6639   -6.8878   21.4238 O   0  0  0  0  0  0
  -22.3527  -14.5539   20.6705 O   0  0  0  0  0  0
  -24.6212  -31.8638   23.2066 C   0  0  0  0  0  0
  -25.9081  -32.4799   23.8381 C   0  0  1  0  0  0
  -27.2213  -27.3683   20.1144 C   0  0  0  0  0  0
  -25.5916  -33.8597   24.2307 N   0  0  0  0  0  0
  -23.4123  -30.4889   21.5480 C   0  0  2  0  0  0
  -24.8583  -28.9515   20.1115 C   0  0  0  0  0  0
  -22.7447  -29.4644   22.4954 C   0  0  0  0  0  0
  -18.0280  -28.1380   22.8487 C   0  0  0  0  0  0
  -24.1489  -36.7309   23.2639 C   0  0  0  0  0  0
  -25.9487  -30.8105   21.3706 C   0  0  0  0  0  0
  -26.0241  -29.4414   20.7149 C   0  0  0  0  0  0
  -27.2114  -28.6602   20.7087 C   0  0  0  0  0  0
  -26.0423  -26.9258   19.4748 C   0  0  0  0  0  0
  -24.8664  -27.6964   19.4832 C   0  0  0  0  0  0
  -23.6243  -29.8252   20.1621 C   0  0  0  0  0  0
  -25.4110  -36.3097   24.0335 C   0  0  1  0  0  0
  -20.5877  -28.3677   23.1295 C   0  0  2  0  0  0
  -20.6767  -26.9406   22.5409 C   0  0  0  0  0  0
  -19.5745  -26.6384   21.5209 C   0  0  0  0  0  0
  -18.1926  -26.7925   22.1622 C   0  0  0  0  0  0
  -19.1531  -28.8844   23.2887 C   0  0  0  0  0  0
  -18.9455  -30.1448   23.8900 C   0  0  0  0  0  0
  -17.6456  -30.6583   24.0561 C   0  0  0  0  0  0
  -25.9043  -34.9463   23.5118 C   0  0  0  0  0  0
  -16.5348  -29.9083   23.6326 C   0  0  0  0  0  0
  -16.7269  -28.6501   23.0347 C   0  0  0  0  0  0
  -26.4485  -31.6591   25.0730 C   0  0  0  0  0  0
  -25.3740  -31.3711   26.1473 C   0  0  0  0  0  0
  -27.0323  -30.3024   24.6147 C   0  0  0  0  0  0
  -27.6054  -32.4318   25.7497 C   0  0  0  0  0  0
  -27.5578  -37.1811   24.8465 C   0  0  0  0  0  0
  -21.4168  -29.3041   22.3698 N   0  0  0  0  0  0
  -26.4293  -37.3785   23.9408 N   0  0  0  0  0  0
  -24.6794  -31.0697   22.0994 N   0  0  0  0  0  0
  -23.4195  -28.8179   23.3011 O   0  0  0  0  0  0
  -28.3421  -26.5434   20.1423 O   0  0  0  0  0  0
  -26.5605  -34.8922   22.4681 O   0  0  0  0  0  0
  -23.5390  -32.1414   23.7427 O   0  0  0  0  0  0
  -27.8211  -20.5780   20.5746 C   0  0  0  0  0  0
  -27.7127  -22.0644   20.1779 C   0  0  0  0  0  0
  -29.6386  -16.6078   19.5957 C   0  0  0  0  0  0
  -30.4597  -16.8874   21.4294 C   0  0  0  0  0  0
  -29.2997  -20.3138   20.9011 C   0  0  2  0  0  0
  -29.4665  -17.7349   20.6201 C   0  0  0  0  0  0
  -29.9533  -21.6955   20.5418 C   0  0  2  0  0  0
  -31.1800  -22.0161   21.4123 C   0  0  0  0  0  0
  -29.1450  -24.0783   20.1775 C   0  0  0  0  0  0
  -28.1196  -25.1804   20.6329 C   0  0  0  0  0  0
  -29.9165  -15.6855   20.7302 N   0  0  0  0  0  0
  -28.8963  -22.7151   20.7390 N   0  0  0  0  0  0
  -29.8765  -19.1230   20.1813 N   0  3  0  0  0  0
  -31.4675  -12.4474   19.1468 H   0  0  0  0  0  0
  -30.3277  -11.3565   19.8850 H   0  0  0  0  0  0
  -29.7532  -11.7463   17.4658 H   0  0  0  0  0  0
  -29.6581  -13.4666   17.7476 H   0  0  0  0  0  0
  -27.8447  -11.2976   18.8532 H   0  0  0  0  0  0
  -27.3702  -12.5938   17.7885 H   0  0  0  0  0  0
  -27.6696  -14.2539   19.5243 H   0  0  0  0  0  0
  -28.6882  -12.0680   21.4037 H   0  0  0  0  0  0
  -28.4610  -13.7485   21.8191 H   0  0  0  0  0  0
  -25.2751   -9.5697   22.4750 H   0  0  0  0  0  0
  -24.0008   -7.4637   22.7467 H   0  0  0  0  0  0
  -21.0841   -8.8766   19.8949 H   0  0  0  0  0  0
  -22.3682  -10.9668   19.6161 H   0  0  0  0  0  0
  -21.1998   -7.6148   23.9718 H   0  0  0  0  0  0
  -21.1486   -6.0518   25.9076 H   0  0  0  0  0  0
  -22.0598   -2.7612   23.2834 H   0  0  0  0  0  0
  -22.4094  -11.9881   22.4789 H   0  0  0  0  0  0
  -21.1100  -13.1244   22.2609 H   0  0  0  0  0  0
  -24.6690  -15.8510   20.5322 H   0  0  0  0  0  0
  -26.2955  -15.6264   20.1276 H   0  0  0  0  0  0
  -26.7151  -32.5490   23.1140 H   0  0  0  0  0  0
  -25.0070  -33.9752   25.0455 H   0  0  0  0  0  0
  -22.7039  -31.3079   21.4077 H   0  0  0  0  0  0
  -23.3744  -35.9649   23.3309 H   0  0  0  0  0  0
  -24.3579  -36.8917   22.2051 H   0  0  0  0  0  0
  -23.7249  -37.6520   23.6648 H   0  0  0  0  0  0
  -26.0724  -31.5750   20.6024 H   0  0  0  0  0  0
  -26.8323  -30.8601   21.9953 H   0  0  0  0  0  0
  -28.1077  -29.0302   21.1872 H   0  0  0  0  0  0
  -26.0188  -25.9746   18.9627 H   0  0  0  0  0  0
  -23.9759  -27.3195   18.9992 H   0  0  0  0  0  0
  -23.7394  -30.6020   19.4053 H   0  0  0  0  0  0
  -22.7463  -29.2511   19.8610 H   0  0  0  0  0  0
  -25.1287  -36.1959   25.0829 H   0  0  0  0  0  0
  -20.9969  -28.3242   24.1415 H   0  0  0  0  0  0
  -20.5662  -26.2287   23.3603 H   0  0  0  0  0  0
  -21.6636  -26.7436   22.1205 H   0  0  0  0  0  0
  -19.6904  -25.6295   21.1235 H   0  0  0  0  0  0
  -19.6683  -27.3196   20.6740 H   0  0  0  0  0  0
  -17.4195  -26.6670   21.4026 H   0  0  0  0  0  0
  -18.0328  -26.0064   22.9016 H   0  0  0  0  0  0
  -19.7931  -30.7259   24.2273 H   0  0  0  0  0  0
  -17.5014  -31.6265   24.5161 H   0  0  0  0  0  0
  -15.5349  -30.2986   23.7650 H   0  0  0  0  0  0
  -15.8669  -28.0825   22.7056 H   0  0  0  0  0  0
  -24.5912  -30.7059   25.7809 H   0  0  0  0  0  0
  -24.8936  -32.2870   26.4923 H   0  0  0  0  0  0
  -25.8089  -30.8877   27.0231 H   0  0  0  0  0  0
  -26.2881  -29.6780   24.1190 H   0  0  0  0  0  0
  -27.4057  -29.7270   25.4629 H   0  0  0  0  0  0
  -27.8735  -30.4321   23.9335 H   0  0  0  0  0  0
  -27.2668  -33.3613   26.2087 H   0  0  0  0  0  0
  -28.3862  -32.6885   25.0324 H   0  0  0  0  0  0
  -28.0727  -31.8435   26.5406 H   0  0  0  0  0  0
  -28.2602  -38.0101   24.7501 H   0  0  0  0  0  0
  -28.1067  -36.2633   24.6303 H   0  0  0  0  0  0
  -27.2298  -37.1476   25.8869 H   0  0  0  0  0  0
  -20.9333  -29.8782   21.6935 H   0  0  0  0  0  0
  -26.0180  -38.2867   24.1395 H   0  0  0  0  0  0
  -27.4409  -19.9438   19.7725 H   0  0  0  0  0  0
  -27.2085  -20.3755   21.4540 H   0  0  0  0  0  0
  -26.7846  -22.5138   20.5352 H   0  0  0  0  0  0
  -27.7224  -22.1517   19.0890 H   0  0  0  0  0  0
  -30.4789  -16.7429   18.9083 H   0  0  0  0  0  0
  -28.7245  -16.3873   19.0430 H   0  0  0  0  0  0
  -30.2693  -16.9098   22.5034 H   0  0  0  0  0  0
  -31.5119  -17.0982   21.2203 H   0  0  0  0  0  0
  -29.3972  -20.1445   21.9750 H   0  0  0  0  0  0
  -28.4612  -17.7239   21.0483 H   0  0  0  0  0  0
  -30.2376  -21.6975   19.4868 H   0  0  0  0  0  0
  -30.9096  -22.1139   22.4646 H   0  0  0  0  0  0
  -31.6678  -22.9411   21.1064 H   0  0  0  0  0  0
  -31.9304  -21.2288   21.3381 H   0  0  0  0  0  0
  -30.1344  -24.4153   20.4862 H   0  0  0  0  0  0
  -29.1718  -24.0280   19.0878 H   0  0  0  0  0  0
  -28.1373  -25.2347   21.7222 H   0  0  0  0  0  0
  -27.1235  -24.8180   20.3897 H   0  0  0  0  0  0
  -30.8798  -19.1860   20.2397 H   0  0  0  0  0  0
  -29.6460  -19.2279   19.2065 H   0  0  0  0  0  0
  1 25  1  0  0  0
  1 30  2  0  0  0
  1 81  1  0  0  0
  2  3  1  0  0  0
  2 25  1  0  0  0
  2 84  1  0  0  0
  2 85  1  0  0  0
  3  4  1  0  0  0
  3 86  1  0  0  0
  3 87  1  0  0  0
  4  5  1  0  0  0
  4 88  1  0  0  0
  4 89  1  0  0  0
  5  6  1  0  0  0
  5 26  1  0  0  0
  5 90  1  0  0  0
  6 25  1  0  0  0
  6 91  1  0  0  0
  6 92  1  0  0  0
  7  8  2  0  0  0
  7 26  1  0  0  0
  7 29  1  0  0  0
  8  9  1  0  0  0
  8 22  1  0  0  0
  9 10  1  0  0  0
  9 27  2  0  0  0
 10 11  2  0  0  0
 10 15  1  0  0  0
 11 12  1  0  0  0
 11 93  1  0  0  0
 12 13  2  0  0  0
 12 94  1  0  0  0
 13 14  1  0  0  0
 13 31  1  0  0  0
 14 15  2  0  0  0
 14 95  1  0  0  0
 15 96  1  0  0  0
 16 17  2  0  0  0
 16 21  1  0  0  0
 16 31  1  0  0  0
 17 18  1  0  0  0
 17 97  1  0  0  0
 18 19  2  0  0  0
 18 98  1  0  0  0
 19 20  1  0  0  0
 19 24  1  0  0  0
 20 21  2  0  0  0
 20 99  1  0  0  0
 21 23  1  0  0  0
 22 28  1  0  0  0
 22 32  2  0  0  0
 26 27  1  0  0  0
 28100  1  0  0  0
 28101  1  0  0  0
 29102  1  0  0  0
 29103  1  0  0  0
 33 34  1  0  0  0
 33 66  1  0  0  0
 33 70  2  0  0  0
 34 36  1  0  0  0
 34 59  1  0  0  0
 34104  1  0  0  0
 35 44  2  0  0  0
 35 45  1  0  0  0
 35 68  1  0  0  0
 36 56  1  0  0  0
 36105  1  0  0  0
 37 39  1  0  0  0
 37 47  1  0  0  0
 37 66  1  0  0  0
 37106  1  0  0  0
 38 43  2  0  0  0
 38 46  1  0  0  0
 38 47  1  0  0  0
 39 64  1  0  0  0
 39 67  2  0  0  0
 40 52  1  0  0  0
 40 53  2  0  0  0
 40 58  1  0  0  0
 41107  1  0  0  0
 41108  1  0  0  0
 41109  1  0  0  0
 41 48  1  0  0  0
 42 43  1  0  0  0
 42 66  1  0  0  0
 42110  1  0  0  0
 42111  1  0  0  0
 43 44  1  0  0  0
 44112  1  0  0  0
 45 46  2  0  0  0
 45113  1  0  0  0
 46114  1  0  0  0
 47115  1  0  0  0
 47116  1  0  0  0
 48 56  1  0  0  0
 48 65  1  0  0  0
 48117  1  0  0  0
 49 50  1  0  0  0
 49 53  1  0  0  0
 49 64  1  0  0  0
 49118  1  0  0  0
 50 51  1  0  0  0
 50119  1  0  0  0
 50120  1  0  0  0
 51 52  1  0  0  0
 51121  1  0  0  0
 51122  1  0  0  0
 52123  1  0  0  0
 52124  1  0  0  0
 53 54  1  0  0  0
 54 55  2  0  0  0
 54125  1  0  0  0
 55 57  1  0  0  0
 55126  1  0  0  0
 56 69  2  0  0  0
 57 58  2  0  0  0
 57127  1  0  0  0
 58128  1  0  0  0
 59 60  1  0  0  0
 59 61  1  0  0  0
 59 62  1  0  0  0
 60129  1  0  0  0
 60130  1  0  0  0
 60131  1  0  0  0
 61132  1  0  0  0
 61133  1  0  0  0
 61134  1  0  0  0
 62135  1  0  0  0
 62136  1  0  0  0
 62137  1  0  0  0
 63 65  1  0  0  0
 63138  1  0  0  0
 63139  1  0  0  0
 63140  1  0  0  0
 64141  1  0  0  0
 65142  1  0  0  0
 68 80  1  0  0  0
 71 72  1  0  0  0
 71 75  1  0  0  0
 71143  1  0  0  0
 71144  1  0  0  0
 72 82  1  0  0  0
 72145  1  0  0  0
 72146  1  0  0  0
 73 76  1  0  0  0
 73 81  1  0  0  0
 73147  1  0  0  0
 73148  1  0  0  0
 74 76  1  0  0  0
 74 81  1  0  0  0
 74149  1  0  0  0
 74150  1  0  0  0
 75 77  1  0  0  0
 75 83  1  0  0  0
 75151  1  0  0  0
 76 83  1  0  0  0
 76152  1  0  0  0
 77 78  1  0  0  0
 77 82  1  0  0  0
 77153  1  0  0  0
 78154  1  0  0  0
 78155  1  0  0  0
 78156  1  0  0  0
 79 80  1  0  0  0
 79 82  1  0  0  0
 79157  1  0  0  0
 79158  1  0  0  0
 80159  1  0  0  0
 80160  1  0  0  0
 83161  1  0  0  0
 83162  1  0  0  0
M  CHG  1  83   1
M  ISO  4   1 100  68 101  80 101  81 100
M  END
> <chiral flag>
0

> <version>
0

> <s_m_source_file>
/data/baiqing/PycharmProjects/Reinvent-master-3.2/result/LINK_invent/BTK/process_docking_weight1_custom_sum_contain_oxygen_bond_distance_aromatic_linkinvent_7_9_3/rearranged_h_0188.sdf

> <i_m_source_file_index>
54

> <r_mmod_Potential_Energy-OPLS-2005>
16.3593921661377

> <r_mmod_Stretch_Energy-OPLS-2005>
58.5621604919434

> <r_mmod_Bend_Energy-OPLS-2005>
145.743927001953

> <r_mmod_Torsional_Energy-OPLS-2005>
371.839294433594

> <r_mmod_Improper_Torsional_Energy-OPLS-2005>
13.4579925537109

> <r_mmod_Van_der_Waal_Energy-OPLS-2005>
126.043571472168

> <r_mmod_Electrostatic_Energy-OPLS-2005>
-247.517837524414

> <r_mmod_Solvation_Energy-OPLS-2005>
-484.356475830078

> <b_mmod_Minimization_Converged-OPLS-2005>
0

> <r_mmod_RMS_Derivative-OPLS-2005>
0.744927704334259

$$$$
55
                    3D
 Structure written by MMmdl.
161169  0  0  1  0            999 V2000
  -30.6978  -14.5169   20.4607 C   0  0  0  0  0  0
  -30.4176  -12.3088   19.4271 C   0  0  0  0  0  0
  -29.4899  -12.4753   18.2065 C   0  0  0  0  0  0
  -28.0119  -12.3375   18.6228 C   0  0  0  0  0  0
  -27.6487  -13.1945   19.8651 C   0  0  2  0  0  0
  -28.7063  -13.0577   20.9852 C   0  0  0  0  0  0
  -25.2568  -13.8106   20.5719 C   0  0  0  0  0  0
  -24.1818  -13.0407   20.9201 C   0  0  0  0  0  0
  -24.6358  -11.6866   20.8761 C   0  0  0  0  0  0
  -23.9018  -10.4265   21.0415 C   0  0  0  0  0  0
  -24.3583   -9.4181   21.9186 C   0  0  0  0  0  0
  -23.6268   -8.2216   22.0743 C   0  0  0  0  0  0
  -22.4253   -8.0258   21.3535 C   0  0  0  0  0  0
  -21.9883   -9.0228   20.4633 C   0  0  0  0  0  0
  -22.7201  -10.2107   20.3050 C   0  0  0  0  0  0
  -21.6851   -6.0709   22.5267 C   0  0  0  0  0  0
  -21.4019   -6.5617   23.8200 C   0  0  0  0  0  0
  -21.3667   -5.6777   24.9165 C   0  0  0  0  0  0
  -21.6053   -4.3038   24.7221 C   0  0  0  0  0  0
  -21.8824   -3.8122   23.4345 C   0  0  0  0  0  0
  -21.9192   -4.6938   22.3396 C   0  0  0  0  0  0
  -22.7841  -13.5219   21.1843 C   0  0  0  0  0  0
  -22.1658   -4.2121   21.0973 F   0  0  0  0  0  0
  -21.5635   -3.4525   25.7735 F   0  0  0  0  0  0
  -30.0254  -13.3353   20.3997 N   0  0  0  0  0  0
  -26.2973  -12.9232   20.3395 N   0  0  0  0  0  0
  -25.9281  -11.6413   20.5809 N   0  0  0  0  0  0
  -22.0470  -12.8229   22.0406 N   0  0  0  0  0  0
  -25.4311  -15.1829   20.4130 N   0  0  0  0  0  0
  -31.8987  -14.6201   20.1980 O   0  0  0  0  0  0
  -21.6633   -6.8849   21.4226 O   0  0  0  0  0  0
  -22.3538  -14.5522   20.6668 O   0  0  0  0  0  0
  -24.6165  -31.8673   23.2123 C   0  0  0  0  0  0
  -25.9060  -32.4819   23.8412 C   0  0  1  0  0  0
  -27.2268  -27.4169   20.0955 C   0  0  0  0  0  0
  -25.5914  -33.8621   24.2345 N   0  0  0  0  0  0
  -23.4040  -30.4949   21.5522 C   0  0  2  0  0  0
  -24.8494  -28.9674   20.1098 C   0  0  0  0  0  0
  -22.7410  -29.4657   22.4970 C   0  0  0  0  0  0
  -18.0276  -28.1377   22.8491 C   0  0  0  0  0  0
  -24.1481  -36.7307   23.2644 C   0  0  0  0  0  0
  -25.9366  -30.8276   21.3703 C   0  0  0  0  0  0
  -26.0121  -29.4644   20.7114 C   0  0  0  0  0  0
  -27.2029  -28.6971   20.7029 C   0  0  0  0  0  0
  -26.0441  -26.9541   19.4686 C   0  0  0  0  0  0
  -24.8622  -27.7122   19.4849 C   0  0  0  0  0  0
  -23.6130  -29.8357   20.1639 C   0  0  0  0  0  0
  -25.4102  -36.3110   24.0340 C   0  0  1  0  0  0
  -20.5866  -28.3658   23.1311 C   0  0  2  0  0  0
  -20.6768  -26.9393   22.5418 C   0  0  0  0  0  0
  -19.5748  -26.6383   21.5213 C   0  0  0  0  0  0
  -18.1922  -26.7923   22.1621 C   0  0  0  0  0  0
  -19.1526  -28.8832   23.2898 C   0  0  0  0  0  0
  -18.9461  -30.1440   23.8907 C   0  0  0  0  0  0
  -17.6465  -30.6582   24.0562 C   0  0  0  0  0  0
  -25.9039  -34.9473   23.5136 C   0  0  0  0  0  0
  -16.5352  -29.9084   23.6339 C   0  0  0  0  0  0
  -16.7266  -28.6505   23.0352 C   0  0  0  0  0  0
  -26.4484  -31.6602   25.0743 C   0  0  0  0  0  0
  -25.3752  -31.3712   26.1494 C   0  0  0  0  0  0
  -27.0337  -30.3054   24.6134 C   0  0  0  0  0  0
  -27.6061  -32.4317   25.7498 C   0  0  0  0  0  0
  -27.5570  -37.1807   24.8467 C   0  0  0  0  0  0
  -21.4137  -29.3026   22.3713 N   0  0  0  0  0  0
  -26.4286  -37.3795   23.9408 N   0  0  0  0  0  0
  -24.6707  -31.0766   22.1033 N   0  0  0  0  0  0
  -23.4185  -28.8190   23.3004 O   0  0  0  0  0  0
  -28.3784  -26.6447   20.1425 O   0  0  0  0  0  0
  -26.5583  -34.8910   22.4688 O   0  0  0  0  0  0
  -23.5352  -32.1425   23.7509 O   0  0  0  0  0  0
  -29.7860  -17.7124   19.1823 C   0  0  0  0  0  0
  -29.5745  -16.1975   19.1298 C   0  0  0  0  0  0
  -30.2284  -16.7928   21.3192 C   0  0  0  0  0  0
  -29.5675  -18.0186   20.6513 C   0  0  1  0  0  0
  -29.5697  -22.0231   22.6415 C   0  0  0  0  0  0
  -29.3040  -24.3245   20.5758 C   0  0  0  0  0  0
  -29.2464  -20.5028   20.5972 C   0  0  0  0  0  0
  -28.1969  -25.2229   19.9740 C   0  0  0  0  0  0
  -29.7090  -21.9027   21.1110 C   0  0  1  0  0  0
  -29.9206  -15.6318   20.4548 N   0  0  0  0  0  0
  -28.8699  -22.9218   20.4664 N   0  0  0  0  0  0
  -30.0582  -19.3566   21.0898 N   0  3  0  0  0  0
  -31.4634  -12.3961   19.1260 H   0  0  0  0  0  0
  -30.3121  -11.3155   19.8650 H   0  0  0  0  0  0
  -29.7337  -11.7330   17.4464 H   0  0  0  0  0  0
  -29.6519  -13.4478   17.7396 H   0  0  0  0  0  0
  -27.8264  -11.2831   18.8322 H   0  0  0  0  0  0
  -27.3614  -12.5969   17.7859 H   0  0  0  0  0  0
  -27.6461  -14.2234   19.5296 H   0  0  0  0  0  0
  -28.6943  -12.0505   21.4045 H   0  0  0  0  0  0
  -28.4894  -13.7395   21.8092 H   0  0  0  0  0  0
  -25.2725   -9.5668   22.4764 H   0  0  0  0  0  0
  -23.9984   -7.4606   22.7462 H   0  0  0  0  0  0
  -21.0813   -8.8735   19.8937 H   0  0  0  0  0  0
  -22.3656  -10.9646   19.6158 H   0  0  0  0  0  0
  -21.2014   -7.6123   23.9696 H   0  0  0  0  0  0
  -21.1494   -6.0502   25.9069 H   0  0  0  0  0  0
  -22.0604   -2.7580   23.2848 H   0  0  0  0  0  0
  -22.4072  -11.9899   22.4825 H   0  0  0  0  0  0
  -21.1077  -13.1243   22.2571 H   0  0  0  0  0  0
  -24.6700  -15.8433   20.5309 H   0  0  0  0  0  0
  -26.2949  -15.6218   20.1223 H   0  0  0  0  0  0
  -26.7122  -32.5523   23.1163 H   0  0  0  0  0  0
  -25.0089  -33.9786   25.0509 H   0  0  0  0  0  0
  -22.6932  -31.3126   21.4167 H   0  0  0  0  0  0
  -23.3737  -35.9646   23.3329 H   0  0  0  0  0  0
  -24.3592  -36.8899   22.2057 H   0  0  0  0  0  0
  -23.7220  -37.6513   23.6644 H   0  0  0  0  0  0
  -26.0550  -31.5961   20.6053 H   0  0  0  0  0  0
  -26.8233  -30.8745   21.9915 H   0  0  0  0  0  0
  -28.0946  -29.0719   21.1857 H   0  0  0  0  0  0
  -26.0054  -26.0010   18.9601 H   0  0  0  0  0  0
  -23.9717  -27.3251   19.0099 H   0  0  0  0  0  0
  -23.7221  -30.6158   19.4104 H   0  0  0  0  0  0
  -22.7352  -29.2610   19.8638 H   0  0  0  0  0  0
  -25.1274  -36.1988   25.0831 H   0  0  0  0  0  0
  -20.9966  -28.3228   24.1425 H   0  0  0  0  0  0
  -20.5685  -26.2257   23.3601 H   0  0  0  0  0  0
  -21.6635  -26.7442   22.1197 H   0  0  0  0  0  0
  -19.6914  -25.6302   21.1222 H   0  0  0  0  0  0
  -19.6698  -27.3206   20.6754 H   0  0  0  0  0  0
  -17.4198  -26.6678   21.4016 H   0  0  0  0  0  0
  -18.0318  -26.0059   22.9013 H   0  0  0  0  0  0
  -19.7942  -30.7247   24.2279 H   0  0  0  0  0  0
  -17.5028  -31.6269   24.5151 H   0  0  0  0  0  0
  -15.5355  -30.2989   23.7667 H   0  0  0  0  0  0
  -15.8663  -28.0831   22.7060 H   0  0  0  0  0  0
  -24.5923  -30.7053   25.7844 H   0  0  0  0  0  0
  -24.8941  -32.2869   26.4950 H   0  0  0  0  0  0
  -25.8113  -30.8887   27.0252 H   0  0  0  0  0  0
  -26.2904  -29.6781   24.1201 H   0  0  0  0  0  0
  -27.4135  -29.7319   25.4600 H   0  0  0  0  0  0
  -27.8715  -30.4391   23.9282 H   0  0  0  0  0  0
  -27.2701  -33.3614   26.2097 H   0  0  0  0  0  0
  -28.3864  -32.6877   25.0319 H   0  0  0  0  0  0
  -28.0732  -31.8422   26.5400 H   0  0  0  0  0  0
  -28.2600  -38.0092   24.7512 H   0  0  0  0  0  0
  -28.1050  -36.2627   24.6303 H   0  0  0  0  0  0
  -27.2293  -37.1461   25.8871 H   0  0  0  0  0  0
  -20.9291  -29.8775   21.6960 H   0  0  0  0  0  0
  -26.0180  -38.2872   24.1427 H   0  0  0  0  0  0
  -29.1034  -18.2506   18.5223 H   0  0  0  0  0  0
  -30.8076  -17.9554   18.8866 H   0  0  0  0  0  0
  -30.1517  -15.7628   18.3103 H   0  0  0  0  0  0
  -28.5261  -16.0118   18.9086 H   0  0  0  0  0  0
  -29.8524  -16.6376   22.3315 H   0  0  0  0  0  0
  -31.3097  -16.9305   21.3854 H   0  0  0  0  0  0
  -28.4974  -17.9662   20.8603 H   0  0  0  0  0  0
  -30.1719  -21.2729   23.1551 H   0  0  0  0  0  0
  -28.5371  -21.8905   22.9673 H   0  0  0  0  0  0
  -29.9112  -22.9880   23.0130 H   0  0  0  0  0  0
  -29.4532  -24.6040   21.6192 H   0  0  0  0  0  0
  -30.2532  -24.4753   20.0581 H   0  0  0  0  0  0
  -29.2748  -20.4977   19.5065 H   0  0  0  0  0  0
  -28.2041  -20.3365   20.8762 H   0  0  0  0  0  0
  -27.2680  -24.9166   20.4595 H   0  0  0  0  0  0
  -28.0923  -25.0070   18.9093 H   0  0  0  0  0  0
  -30.7487  -22.0685   20.8207 H   0  0  0  0  0  0
  -27.9223  -22.8469   20.8254 H   0  0  0  0  0  0
  -31.0132  -19.4844   20.7954 H   0  0  0  0  0  0
  -30.0422  -19.3811   22.0960 H   0  0  0  0  0  0
  1 25  1  0  0  0
  1 30  2  0  0  0
  1 80  1  0  0  0
  2  3  1  0  0  0
  2 25  1  0  0  0
  2 83  1  0  0  0
  2 84  1  0  0  0
  3  4  1  0  0  0
  3 85  1  0  0  0
  3 86  1  0  0  0
  4  5  1  0  0  0
  4 87  1  0  0  0
  4 88  1  0  0  0
  5  6  1  0  0  0
  5 26  1  0  0  0
  5 89  1  0  0  0
  6 25  1  0  0  0
  6 90  1  0  0  0
  6 91  1  0  0  0
  7  8  2  0  0  0
  7 26  1  0  0  0
  7 29  1  0  0  0
  8  9  1  0  0  0
  8 22  1  0  0  0
  9 10  1  0  0  0
  9 27  2  0  0  0
 10 11  2  0  0  0
 10 15  1  0  0  0
 11 12  1  0  0  0
 11 92  1  0  0  0
 12 13  2  0  0  0
 12 93  1  0  0  0
 13 14  1  0  0  0
 13 31  1  0  0  0
 14 15  2  0  0  0
 14 94  1  0  0  0
 15 95  1  0  0  0
 16 17  2  0  0  0
 16 21  1  0  0  0
 16 31  1  0  0  0
 17 18  1  0  0  0
 17 96  1  0  0  0
 18 19  2  0  0  0
 18 97  1  0  0  0
 19 20  1  0  0  0
 19 24  1  0  0  0
 20 21  2  0  0  0
 20 98  1  0  0  0
 21 23  1  0  0  0
 22 28  1  0  0  0
 22 32  2  0  0  0
 26 27  1  0  0  0
 28 99  1  0  0  0
 28100  1  0  0  0
 29101  1  0  0  0
 29102  1  0  0  0
 33 34  1  0  0  0
 33 66  1  0  0  0
 33 70  2  0  0  0
 34 36  1  0  0  0
 34 59  1  0  0  0
 34103  1  0  0  0
 35 44  2  0  0  0
 35 45  1  0  0  0
 35 68  1  0  0  0
 36 56  1  0  0  0
 36104  1  0  0  0
 37 39  1  0  0  0
 37 47  1  0  0  0
 37 66  1  0  0  0
 37105  1  0  0  0
 38 43  2  0  0  0
 38 46  1  0  0  0
 38 47  1  0  0  0
 39 64  1  0  0  0
 39 67  2  0  0  0
 40 52  1  0  0  0
 40 53  2  0  0  0
 40 58  1  0  0  0
 41106  1  0  0  0
 41107  1  0  0  0
 41108  1  0  0  0
 41 48  1  0  0  0
 42 43  1  0  0  0
 42 66  1  0  0  0
 42109  1  0  0  0
 42110  1  0  0  0
 43 44  1  0  0  0
 44111  1  0  0  0
 45 46  2  0  0  0
 45112  1  0  0  0
 46113  1  0  0  0
 47114  1  0  0  0
 47115  1  0  0  0
 48 56  1  0  0  0
 48 65  1  0  0  0
 48116  1  0  0  0
 49 50  1  0  0  0
 49 53  1  0  0  0
 49 64  1  0  0  0
 49117  1  0  0  0
 50 51  1  0  0  0
 50118  1  0  0  0
 50119  1  0  0  0
 51 52  1  0  0  0
 51120  1  0  0  0
 51121  1  0  0  0
 52122  1  0  0  0
 52123  1  0  0  0
 53 54  1  0  0  0
 54 55  2  0  0  0
 54124  1  0  0  0
 55 57  1  0  0  0
 55125  1  0  0  0
 56 69  2  0  0  0
 57 58  2  0  0  0
 57126  1  0  0  0
 58127  1  0  0  0
 59 60  1  0  0  0
 59 61  1  0  0  0
 59 62  1  0  0  0
 60128  1  0  0  0
 60129  1  0  0  0
 60130  1  0  0  0
 61131  1  0  0  0
 61132  1  0  0  0
 61133  1  0  0  0
 62134  1  0  0  0
 62135  1  0  0  0
 62136  1  0  0  0
 63 65  1  0  0  0
 63137  1  0  0  0
 63138  1  0  0  0
 63139  1  0  0  0
 64140  1  0  0  0
 65141  1  0  0  0
 68 78  1  0  0  0
 71 72  1  0  0  0
 71 74  1  0  0  0
 71142  1  0  0  0
 71143  1  0  0  0
 72 80  1  0  0  0
 72144  1  0  0  0
 72145  1  0  0  0
 73 74  1  0  0  0
 73 80  1  0  0  0
 73146  1  0  0  0
 73147  1  0  0  0
 74 82  1  0  0  0
 74148  1  0  0  0
 75149  1  0  0  0
 75150  1  0  0  0
 75151  1  0  0  0
 75 79  1  0  0  0
 76 78  1  0  0  0
 76 81  1  0  0  0
 76152  1  0  0  0
 76153  1  0  0  0
 77 79  1  0  0  0
 77 82  1  0  0  0
 77154  1  0  0  0
 77155  1  0  0  0
 78156  1  0  0  0
 78157  1  0  0  0
 79 81  1  0  0  0
 79158  1  0  0  0
 81159  1  0  0  0
 82160  1  0  0  0
 82161  1  0  0  0
M  CHG  1  82   1
M  ISO  4   1 100  68 101  78 101  80 100
M  END
> <chiral flag>
0

> <version>
0

> <s_m_source_file>
/data/baiqing/PycharmProjects/Reinvent-master-3.2/result/LINK_invent/BTK/process_docking_weight1_custom_sum_contain_oxygen_bond_distance_aromatic_linkinvent_7_9_3/rearranged_h_0188.sdf

> <i_m_source_file_index>
55

> <r_mmod_Potential_Energy-OPLS-2005>
32.7781448364258

> <r_mmod_Stretch_Energy-OPLS-2005>
40.5576782226562

> <r_mmod_Bend_Energy-OPLS-2005>
132.670028686523

> <r_mmod_Torsional_Energy-OPLS-2005>
345.525970458984

> <r_mmod_Improper_Torsional_Energy-OPLS-2005>
14.1413116455078

> <r_mmod_Van_der_Waal_Energy-OPLS-2005>
136.105316162109

> <r_mmod_Electrostatic_Energy-OPLS-2005>
-202.263870239258

> <r_mmod_Solvation_Energy-OPLS-2005>
-459.985107421875

> <b_mmod_Minimization_Converged-OPLS-2005>
0

> <r_mmod_RMS_Derivative-OPLS-2005>
1.97646880149841

$$$$
56
                    3D
 Structure written by MMmdl.
165174  0  0  1  0            999 V2000
  -30.6714  -14.5877   20.5222 C   0  0  0  0  0  0
  -30.4271  -12.3736   19.4365 C   0  0  0  0  0  0
  -29.5029  -12.5222   18.2097 C   0  0  0  0  0  0
  -28.0211  -12.3727   18.6139 C   0  0  0  0  0  0
  -27.6524  -13.2145   19.8658 C   0  0  2  0  0  0
  -28.6999  -13.0207   20.9831 C   0  0  0  0  0  0
  -25.2531  -13.8148   20.5658 C   0  0  0  0  0  0
  -24.1822  -13.0424   20.9231 C   0  0  0  0  0  0
  -24.6398  -11.6899   20.8776 C   0  0  0  0  0  0
  -23.9075  -10.4279   21.0415 C   0  0  0  0  0  0
  -24.3620   -9.4185   21.9182 C   0  0  0  0  0  0
  -23.6287   -8.2229   22.0753 C   0  0  0  0  0  0
  -22.4264   -8.0276   21.3549 C   0  0  0  0  0  0
  -21.9908   -9.0255   20.4658 C   0  0  0  0  0  0
  -22.7249  -10.2126   20.3061 C   0  0  0  0  0  0
  -21.6857   -6.0730   22.5278 C   0  0  0  0  0  0
  -21.4012   -6.5633   23.8214 C   0  0  0  0  0  0
  -21.3661   -5.6780   24.9177 C   0  0  0  0  0  0
  -21.6038   -4.3043   24.7219 C   0  0  0  0  0  0
  -21.8814   -3.8138   23.4343 C   0  0  0  0  0  0
  -21.9193   -4.6957   22.3400 C   0  0  0  0  0  0
  -22.7840  -13.5221   21.1856 C   0  0  0  0  0  0
  -22.1652   -4.2148   21.0977 F   0  0  0  0  0  0
  -21.5635   -3.4527   25.7733 F   0  0  0  0  0  0
  -30.0081  -13.3905   20.4217 N   0  0  0  0  0  0
  -26.2970  -12.9340   20.3324 N   0  0  0  0  0  0
  -25.9321  -11.6497   20.5773 N   0  0  0  0  0  0
  -22.0470  -12.8234   22.0418 N   0  0  0  0  0  0
  -25.4168  -15.1857   20.3926 N   0  0  0  0  0  0
  -31.8510  -14.6720   20.1625 O   0  0  0  0  0  0
  -21.6631   -6.8867   21.4240 O   0  0  0  0  0  0
  -22.3531  -14.5526   20.6690 O   0  0  0  0  0  0
  -24.6212  -31.8638   23.2041 C   0  0  0  0  0  0
  -25.9079  -32.4793   23.8351 C   0  0  1  0  0  0
  -27.2273  -27.3719   20.1060 C   0  0  0  0  0  0
  -25.5897  -33.8588   24.2286 N   0  0  0  0  0  0
  -23.4127  -30.4859   21.5467 C   0  0  2  0  0  0
  -24.8600  -28.9419   20.1158 C   0  0  0  0  0  0
  -22.7440  -29.4659   22.4968 C   0  0  0  0  0  0
  -18.0281  -28.1397   22.8485 C   0  0  0  0  0  0
  -24.1471  -36.7301   23.2645 C   0  0  0  0  0  0
  -25.9497  -30.8082   21.3698 C   0  0  0  0  0  0
  -26.0260  -29.4393   20.7114 C   0  0  0  0  0  0
  -27.2188  -28.6656   20.6954 C   0  0  0  0  0  0
  -26.0432  -26.9018   19.5038 C   0  0  0  0  0  0
  -24.8653  -27.6747   19.5063 C   0  0  0  0  0  0
  -23.6250  -29.8164   20.1629 C   0  0  0  0  0  0
  -25.4091  -36.3089   24.0340 C   0  0  1  0  0  0
  -20.5876  -28.3700   23.1299 C   0  0  2  0  0  0
  -20.6778  -26.9428   22.5426 C   0  0  0  0  0  0
  -19.5755  -26.6390   21.5222 C   0  0  0  0  0  0
  -18.1932  -26.7941   22.1624 C   0  0  0  0  0  0
  -19.1532  -28.8857   23.2890 C   0  0  0  0  0  0
  -18.9466  -30.1457   23.8915 C   0  0  0  0  0  0
  -17.6470  -30.6598   24.0568 C   0  0  0  0  0  0
  -25.9025  -34.9462   23.5109 C   0  0  0  0  0  0
  -16.5356  -29.9108   23.6328 C   0  0  0  0  0  0
  -16.7268  -28.6523   23.0342 C   0  0  0  0  0  0
  -26.4468  -31.6586   25.0707 C   0  0  0  0  0  0
  -25.3711  -31.3720   26.1443 C   0  0  0  0  0  0
  -27.0312  -30.3012   24.6151 C   0  0  0  0  0  0
  -27.6026  -32.4318   25.7483 C   0  0  0  0  0  0
  -27.5565  -37.1802   24.8457 C   0  0  0  0  0  0
  -21.4168  -29.3056   22.3703 N   0  0  0  0  0  0
  -26.4267  -37.3775   23.9409 N   0  0  0  0  0  0
  -24.6794  -31.0679   22.0977 N   0  0  0  0  0  0
  -23.4182  -28.8210   23.3042 O   0  0  0  0  0  0
  -28.3537  -26.5585   20.0931 O   0  0  0  0  0  0
  -26.5597  -34.8936   22.4682 O   0  0  0  0  0  0
  -23.5386  -32.1420   23.7391 O   0  0  0  0  0  0
  -28.9907  -21.2622   20.4753 C   0  0  0  0  0  0
  -28.6216  -22.6671   21.0617 C   0  0  0  0  0  0
  -28.3186  -21.7821   23.2656 C   0  0  0  0  0  0
  -28.9680  -16.1202   21.6177 C   0  0  0  0  0  0
  -30.1451  -16.8372   19.5761 C   0  0  0  0  0  0
  -28.9911  -17.6120   22.0845 C   0  0  0  0  0  0
  -30.2917  -18.2682   20.1799 C   0  0  0  0  0  0
  -29.1352  -20.1003   21.5521 C   0  0  1  0  0  0
  -28.0802  -20.3739   22.6700 C   0  0  2  0  0  0
  -26.6039  -20.1793   22.2368 C   0  0  0  0  0  0
  -28.6111  -23.9290   20.1266 C   0  0  0  0  0  0
  -28.2477  -25.3028   20.8358 C   0  0  0  0  0  0
  -28.2932  -22.8606   22.2850 N   0  0  0  0  0  0
  -29.9168  -15.7414   20.5537 N   0  0  0  0  0  0
  -29.1197  -18.6611   21.0142 N   0  3  0  0  0  0
  -29.1480  -21.0866   19.2620 O   0  0  0  0  0  0
  -31.4704  -12.4810   19.1346 H   0  0  0  0  0  0
  -30.3443  -11.3700   19.8562 H   0  0  0  0  0  0
  -29.7609  -11.7853   17.4476 H   0  0  0  0  0  0
  -29.6573  -13.5010   17.7523 H   0  0  0  0  0  0
  -27.8347  -11.3176   18.8131 H   0  0  0  0  0  0
  -27.3782  -12.6465   17.7768 H   0  0  0  0  0  0
  -27.6786  -14.2581   19.5561 H   0  0  0  0  0  0
  -28.7140  -11.9770   21.3005 H   0  0  0  0  0  0
  -28.4440  -13.5783   21.8798 H   0  0  0  0  0  0
  -25.2767   -9.5656   22.4761 H   0  0  0  0  0  0
  -24.0007   -7.4605   22.7457 H   0  0  0  0  0  0
  -21.0842   -8.8774   19.8958 H   0  0  0  0  0  0
  -22.3709  -10.9669   19.6172 H   0  0  0  0  0  0
  -21.1993   -7.6139   23.9718 H   0  0  0  0  0  0
  -21.1501   -6.0516   25.9086 H   0  0  0  0  0  0
  -22.0598   -2.7606   23.2844 H   0  0  0  0  0  0
  -22.4070  -11.9923   22.4862 H   0  0  0  0  0  0
  -21.1084  -13.1273   22.2579 H   0  0  0  0  0  0
  -24.6224  -15.8152   20.4469 H   0  0  0  0  0  0
  -26.2213  -15.5999   19.9421 H   0  0  0  0  0  0
  -26.7153  -32.5483   23.1106 H   0  0  0  0  0  0
  -25.0031  -33.9729   25.0424 H   0  0  0  0  0  0
  -22.7048  -31.3055   21.4034 H   0  0  0  0  0  0
  -23.3720  -35.9646   23.3304 H   0  0  0  0  0  0
  -24.3548  -36.8918   22.2056 H   0  0  0  0  0  0
  -23.7248  -37.6517   23.6658 H   0  0  0  0  0  0
  -26.0806  -31.5749   20.6047 H   0  0  0  0  0  0
  -26.8305  -30.8520   22.0000 H   0  0  0  0  0  0
  -28.1193  -29.0466   21.1574 H   0  0  0  0  0  0
  -26.0276  -25.9262   19.0382 H   0  0  0  0  0  0
  -23.9694  -27.2834   19.0437 H   0  0  0  0  0  0
  -23.7409  -30.5902   19.4033 H   0  0  0  0  0  0
  -22.7472  -29.2403   19.8664 H   0  0  0  0  0  0
  -25.1279  -36.1931   25.0832 H   0  0  0  0  0  0
  -20.9950  -28.3264   24.1420 H   0  0  0  0  0  0
  -20.5683  -26.2307   23.3619 H   0  0  0  0  0  0
  -21.6653  -26.7474   22.1221 H   0  0  0  0  0  0
  -19.6919  -25.6296   21.1259 H   0  0  0  0  0  0
  -19.6703  -27.3197   20.6746 H   0  0  0  0  0  0
  -17.4214  -26.6684   21.4017 H   0  0  0  0  0  0
  -18.0332  -26.0094   22.9028 H   0  0  0  0  0  0
  -19.7946  -30.7258   24.2295 H   0  0  0  0  0  0
  -17.5035  -31.6277   24.5175 H   0  0  0  0  0  0
  -15.5363  -30.3019   23.7641 H   0  0  0  0  0  0
  -15.8665  -28.0846   22.7044 H   0  0  0  0  0  0
  -24.5830  -30.7140   25.7755 H   0  0  0  0  0  0
  -24.8984  -32.2916   26.4913 H   0  0  0  0  0  0
  -25.8035  -30.8835   27.0189 H   0  0  0  0  0  0
  -26.2898  -29.6762   24.1156 H   0  0  0  0  0  0
  -27.3993  -29.7263   25.4662 H   0  0  0  0  0  0
  -27.8766  -30.4298   23.9385 H   0  0  0  0  0  0
  -27.2608  -33.3589   26.2104 H   0  0  0  0  0  0
  -28.3812  -32.6933   25.0305 H   0  0  0  0  0  0
  -28.0722  -31.8431   26.5373 H   0  0  0  0  0  0
  -28.2585  -38.0095   24.7483 H   0  0  0  0  0  0
  -28.1062  -36.2627   24.6290 H   0  0  0  0  0  0
  -27.2294  -37.1473   25.8864 H   0  0  0  0  0  0
  -20.9336  -29.8753   21.6901 H   0  0  0  0  0  0
  -26.0145  -38.2846   24.1417 H   0  0  0  0  0  0
  -29.2754  -21.7995   23.7906 H   0  0  0  0  0  0
  -27.5654  -21.9763   24.0309 H   0  0  0  0  0  0
  -27.9637  -15.8785   21.2732 H   0  0  0  0  0  0
  -29.1441  -15.5101   22.5038 H   0  0  0  0  0  0
  -31.0174  -16.6414   18.9508 H   0  0  0  0  0  0
  -29.3025  -16.8269   18.8819 H   0  0  0  0  0  0
  -29.8175  -17.7394   22.7856 H   0  0  0  0  0  0
  -28.0813  -17.7507   22.6646 H   0  0  0  0  0  0
  -30.4455  -18.9689   19.3624 H   0  0  0  0  0  0
  -31.1984  -18.3136   20.7858 H   0  0  0  0  0  0
  -30.1156  -20.2286   22.0115 H   0  0  0  0  0  0
  -28.2649  -19.7059   23.5121 H   0  0  0  0  0  0
  -26.3205  -20.8170   21.3983 H   0  0  0  0  0  0
  -25.9255  -20.4205   23.0560 H   0  0  0  0  0  0
  -26.3917  -19.1504   21.9469 H   0  0  0  0  0  0
  -27.9101  -23.7481   19.3114 H   0  0  0  0  0  0
  -29.5932  -24.0115   19.6622 H   0  0  0  0  0  0
  -28.9201  -25.4285   21.6848 H   0  0  0  0  0  0
  -27.2534  -25.2100   21.2747 H   0  0  0  0  0  0
  -28.3070  -18.5962   20.4193 H   0  0  0  0  0  0
  1 25  1  0  0  0
  1 30  2  0  0  0
  1 84  1  0  0  0
  2  3  1  0  0  0
  2 25  1  0  0  0
  2 87  1  0  0  0
  2 88  1  0  0  0
  3  4  1  0  0  0
  3 89  1  0  0  0
  3 90  1  0  0  0
  4  5  1  0  0  0
  4 91  1  0  0  0
  4 92  1  0  0  0
  5  6  1  0  0  0
  5 26  1  0  0  0
  5 93  1  0  0  0
  6 25  1  0  0  0
  6 94  1  0  0  0
  6 95  1  0  0  0
  7  8  2  0  0  0
  7 26  1  0  0  0
  7 29  1  0  0  0
  8  9  1  0  0  0
  8 22  1  0  0  0
  9 10  1  0  0  0
  9 27  2  0  0  0
 10 11  2  0  0  0
 10 15  1  0  0  0
 11 12  1  0  0  0
 11 96  1  0  0  0
 12 13  2  0  0  0
 12 97  1  0  0  0
 13 14  1  0  0  0
 13 31  1  0  0  0
 14 15  2  0  0  0
 14 98  1  0  0  0
 15 99  1  0  0  0
 16 17  2  0  0  0
 16 21  1  0  0  0
 16 31  1  0  0  0
 17 18  1  0  0  0
 17100  1  0  0  0
 18 19  2  0  0  0
 18101  1  0  0  0
 19 20  1  0  0  0
 19 24  1  0  0  0
 20 21  2  0  0  0
 20102  1  0  0  0
 21 23  1  0  0  0
 22 28  1  0  0  0
 22 32  2  0  0  0
 26 27  1  0  0  0
 28103  1  0  0  0
 28104  1  0  0  0
 29105  1  0  0  0
 29106  1  0  0  0
 33 34  1  0  0  0
 33 66  1  0  0  0
 33 70  2  0  0  0
 34 36  1  0  0  0
 34 59  1  0  0  0
 34107  1  0  0  0
 35 44  2  0  0  0
 35 45  1  0  0  0
 35 68  1  0  0  0
 36 56  1  0  0  0
 36108  1  0  0  0
 37 39  1  0  0  0
 37 47  1  0  0  0
 37 66  1  0  0  0
 37109  1  0  0  0
 38 43  2  0  0  0
 38 46  1  0  0  0
 38 47  1  0  0  0
 39 64  1  0  0  0
 39 67  2  0  0  0
 40 52  1  0  0  0
 40 53  2  0  0  0
 40 58  1  0  0  0
 41110  1  0  0  0
 41111  1  0  0  0
 41112  1  0  0  0
 41 48  1  0  0  0
 42 43  1  0  0  0
 42 66  1  0  0  0
 42113  1  0  0  0
 42114  1  0  0  0
 43 44  1  0  0  0
 44115  1  0  0  0
 45 46  2  0  0  0
 45116  1  0  0  0
 46117  1  0  0  0
 47118  1  0  0  0
 47119  1  0  0  0
 48 56  1  0  0  0
 48 65  1  0  0  0
 48120  1  0  0  0
 49 50  1  0  0  0
 49 53  1  0  0  0
 49 64  1  0  0  0
 49121  1  0  0  0
 50 51  1  0  0  0
 50122  1  0  0  0
 50123  1  0  0  0
 51 52  1  0  0  0
 51124  1  0  0  0
 51125  1  0  0  0
 52126  1  0  0  0
 52127  1  0  0  0
 53 54  1  0  0  0
 54 55  2  0  0  0
 54128  1  0  0  0
 55 57  1  0  0  0
 55129  1  0  0  0
 56 69  2  0  0  0
 57 58  2  0  0  0
 57130  1  0  0  0
 58131  1  0  0  0
 59 60  1  0  0  0
 59 61  1  0  0  0
 59 62  1  0  0  0
 60132  1  0  0  0
 60133  1  0  0  0
 60134  1  0  0  0
 61135  1  0  0  0
 61136  1  0  0  0
 61137  1  0  0  0
 62138  1  0  0  0
 62139  1  0  0  0
 62140  1  0  0  0
 63 65  1  0  0  0
 63141  1  0  0  0
 63142  1  0  0  0
 63143  1  0  0  0
 64144  1  0  0  0
 65145  1  0  0  0
 68 82  1  0  0  0
 71 72  1  0  0  0
 71 86  2  0  0  0
 71 78  1  0  0  0
 72 81  1  0  0  0
 72 83  2  0  0  0
 73 79  1  0  0  0
 73 83  1  0  0  0
 73146  1  0  0  0
 73147  1  0  0  0
 74 76  1  0  0  0
 74 84  1  0  0  0
 74148  1  0  0  0
 74149  1  0  0  0
 75 77  1  0  0  0
 75 84  1  0  0  0
 75150  1  0  0  0
 75151  1  0  0  0
 76152  1  0  0  0
 76153  1  0  0  0
 76 85  1  0  0  0
 77 85  1  0  0  0
 77154  1  0  0  0
 77155  1  0  0  0
 78 79  1  0  0  0
 78 85  1  0  0  0
 78156  1  0  0  0
 79 80  1  0  0  0
 79157  1  0  0  0
 80158  1  0  0  0
 80159  1  0  0  0
 80160  1  0  0  0
 81 82  1  0  0  0
 81161  1  0  0  0
 81162  1  0  0  0
 82163  1  0  0  0
 82164  1  0  0  0
 85165  1  0  0  0
M  CHG  1  85   1
M  ISO  4   1 100  68 101  82 101  84 100
M  END
> <chiral flag>
0

> <version>
0

> <s_m_source_file>
/data/baiqing/PycharmProjects/Reinvent-master-3.2/result/LINK_invent/BTK/process_docking_weight1_custom_sum_contain_oxygen_bond_distance_aromatic_linkinvent_7_9_3/rearranged_h_0188.sdf

> <i_m_source_file_index>
56

> <r_mmod_Potential_Energy-OPLS-2005>
146.541580200195

> <r_mmod_Stretch_Energy-OPLS-2005>
78.8501739501953

> <r_mmod_Bend_Energy-OPLS-2005>
153.456832885742

> <r_mmod_Torsional_Energy-OPLS-2005>
393.348388671875

> <r_mmod_Improper_Torsional_Energy-OPLS-2005>
15.8559894561768

> <r_mmod_Van_der_Waal_Energy-OPLS-2005>
157.199142456055

> <r_mmod_Electrostatic_Energy-OPLS-2005>
-226.970413208008

> <r_mmod_Solvation_Energy-OPLS-2005>
-455.982421875

> <b_mmod_Minimization_Converged-OPLS-2005>
0

> <r_mmod_RMS_Derivative-OPLS-2005>
2.56166100502014

$$$$
57
                    3D
 Structure written by MMmdl.
158167  0  0  1  0            999 V2000
  -30.4520  -15.2947   20.3886 C   0  0  0  0  0  0
  -30.4367  -12.8405   19.5201 C   0  0  0  0  0  0
  -29.5364  -12.5865   18.2848 C   0  0  0  0  0  0
  -28.0855  -12.3031   18.7147 C   0  0  0  0  0  0
  -27.6097  -13.2801   19.8198 C   0  0  2  0  0  0
  -28.6429  -13.4768   20.9474 C   0  0  0  0  0  0
  -25.2417  -13.8250   20.5836 C   0  0  0  0  0  0
  -24.1746  -13.0456   20.9250 C   0  0  0  0  0  0
  -24.6398  -11.6949   20.8730 C   0  0  0  0  0  0
  -23.9089  -10.4314   21.0395 C   0  0  0  0  0  0
  -24.3631   -9.4231   21.9174 C   0  0  0  0  0  0
  -23.6266   -8.2273   22.0763 C   0  0  0  0  0  0
  -22.4254   -8.0323   21.3557 C   0  0  0  0  0  0
  -21.9909   -9.0319   20.4676 C   0  0  0  0  0  0
  -22.7262  -10.2172   20.3068 C   0  0  0  0  0  0
  -21.6868   -6.0758   22.5295 C   0  0  0  0  0  0
  -21.4011   -6.5659   23.8221 C   0  0  0  0  0  0
  -21.3622   -5.6817   24.9188 C   0  0  0  0  0  0
  -21.6018   -4.3086   24.7247 C   0  0  0  0  0  0
  -21.8804   -3.8168   23.4372 C   0  0  0  0  0  0
  -21.9186   -4.6977   22.3419 C   0  0  0  0  0  0
  -22.7761  -13.5232   21.1869 C   0  0  0  0  0  0
  -22.1660   -4.2163   21.1005 F   0  0  0  0  0  0
  -21.5621   -3.4569   25.7764 F   0  0  0  0  0  0
  -29.8637  -13.9955   20.3077 N   0  0  0  0  0  0
  -26.2828  -12.9528   20.3248 N   0  0  0  0  0  0
  -25.9332  -11.6633   20.5692 N   0  0  0  0  0  0
  -22.0343  -12.8250   22.0400 N   0  0  0  0  0  0
  -25.4144  -15.1989   20.4467 N   0  0  0  0  0  0
  -31.6845  -15.2510   20.2491 O   0  0  0  0  0  0
  -21.6614   -6.8908   21.4259 O   0  0  0  0  0  0
  -22.3506  -14.5555   20.6715 O   0  0  0  0  0  0
  -24.6660  -31.8206   23.1682 C   0  0  0  0  0  0
  -25.9335  -32.4563   23.8148 C   0  0  1  0  0  0
  -27.2112  -26.8897   20.2074 C   0  0  0  0  0  0
  -25.5984  -33.8381   24.2048 N   0  0  0  0  0  0
  -23.4817  -30.4310   21.5172 C   0  0  2  0  0  0
  -24.9329  -28.8055   20.1215 C   0  0  0  0  0  0
  -22.7676  -29.4428   22.4769 C   0  0  0  0  0  0
  -18.0322  -28.1411   22.8462 C   0  0  0  0  0  0
  -24.1488  -36.7189   23.2651 C   0  0  0  0  0  0
  -26.0516  -30.6156   21.4029 C   0  0  0  0  0  0
  -26.1191  -29.2002   20.7536 C   0  0  0  0  0  0
  -27.2557  -28.2663   20.7650 C   0  0  0  0  0  0
  -25.9954  -26.6521   19.5297 C   0  0  0  0  0  0
  -24.8985  -27.5523   19.4875 C   0  0  0  0  0  0
  -23.7236  -29.7425   20.1473 C   0  0  0  0  0  0
  -25.4135  -36.2953   24.0300 C   0  0  1  0  0  0
  -20.5949  -28.3755   23.1177 C   0  0  2  0  0  0
  -20.6799  -26.9432   22.5401 C   0  0  0  0  0  0
  -19.5769  -26.6378   21.5213 C   0  0  0  0  0  0
  -18.1950  -26.7945   22.1620 C   0  0  0  0  0  0
  -19.1586  -28.8903   23.2804 C   0  0  0  0  0  0
  -18.9500  -30.1490   23.8846 C   0  0  0  0  0  0
  -17.6494  -30.6601   24.0550 C   0  0  0  0  0  0
  -25.9102  -34.9338   23.4997 C   0  0  0  0  0  0
  -16.5379  -29.9082   23.6340 C   0  0  0  0  0  0
  -16.7307  -28.6496   23.0365 C   0  0  0  0  0  0
  -26.4582  -31.6521   25.0686 C   0  0  0  0  0  0
  -25.3694  -31.3786   26.1328 C   0  0  0  0  0  0
  -27.0496  -30.2885   24.6455 C   0  0  0  0  0  0
  -27.6063  -32.4345   25.7490 C   0  0  0  0  0  0
  -27.5564  -37.1755   24.8476 C   0  0  0  0  0  0
  -21.4343  -29.3040   22.3517 N   0  0  0  0  0  0
  -26.4279  -37.3693   23.9413 N   0  0  0  0  0  0
  -24.7545  -30.9852   22.0813 N   0  0  0  0  0  0
  -23.4219  -28.8007   23.3024 O   0  0  0  0  0  0
  -28.2205  -25.7806   20.2179 O   0  0  0  0  0  0
  -26.5724  -34.8887   22.4596 O   0  0  0  0  0  0
  -23.5728  -32.1179   23.6759 O   0  0  0  0  0  0
  -29.6943  -17.2795   18.9341 C   0  0  0  0  0  0
  -29.6215  -18.0156   21.0532 C   0  0  0  0  0  0
  -28.5793  -19.3823   17.8829 C   0  0  0  0  0  0
  -27.4842  -19.1956   20.0018 C   0  0  0  0  0  0
  -29.5739  -18.8968   18.9392 C   0  0  1  0  0  0
  -28.9854  -19.4243   20.2620 C   0  0  2  0  0  0
  -26.2587  -18.4649   17.9573 C   0  0  0  0  0  0
  -28.0192  -24.1552   20.5473 C   0  0  0  0  0  0
  -28.6286  -22.5198   19.9805 C   0  0  0  0  0  0
  -29.7287  -16.6040   20.2677 N   0  0  0  0  0  0
  -27.2562  -19.3919   18.5475 N   0  3  2  0  0  0
  -29.0148  -21.0487   20.6644 O   0  0  0  0  0  0
  -31.4534  -13.0491   19.1873 H   0  0  0  0  0  0
  -30.5123  -11.9441   20.1363 H   0  0  0  0  0  0
  -29.9231  -11.7572   17.6911 H   0  0  0  0  0  0
  -29.5571  -13.4664   17.6392 H   0  0  0  0  0  0
  -28.0446  -11.2767   19.0839 H   0  0  0  0  0  0
  -27.4180  -12.3451   17.8521 H   0  0  0  0  0  0
  -27.5107  -14.2423   19.3121 H   0  0  0  0  0  0
  -28.8226  -12.5488   21.4944 H   0  0  0  0  0  0
  -28.2731  -14.2022   21.6741 H   0  0  0  0  0  0
  -25.2766   -9.5719   22.4753 H   0  0  0  0  0  0
  -23.9958   -7.4690   22.7527 H   0  0  0  0  0  0
  -21.0827   -8.8905   19.9006 H   0  0  0  0  0  0
  -22.3728  -10.9748   19.6212 H   0  0  0  0  0  0
  -21.2007   -7.6168   23.9728 H   0  0  0  0  0  0
  -21.1428   -6.0553   25.9082 H   0  0  0  0  0  0
  -22.0585   -2.7626   23.2896 H   0  0  0  0  0  0
  -22.3786  -11.9826   22.4742 H   0  0  0  0  0  0
  -21.1032  -13.1476   22.2631 H   0  0  0  0  0  0
  -24.6610  -15.8552   20.6152 H   0  0  0  0  0  0
  -26.3016  -15.6402   20.2436 H   0  0  0  0  0  0
  -26.7391  -32.5096   23.0847 H   0  0  0  0  0  0
  -25.0063  -33.9444   25.0159 H   0  0  0  0  0  0
  -22.7963  -31.2632   21.3432 H   0  0  0  0  0  0
  -23.3768  -35.9501   23.3287 H   0  0  0  0  0  0
  -24.3554  -36.8865   22.2067 H   0  0  0  0  0  0
  -23.7228  -37.6362   23.6726 H   0  0  0  0  0  0
  -26.2382  -31.3529   20.6215 H   0  0  0  0  0  0
  -26.9090  -30.6730   22.0608 H   0  0  0  0  0  0
  -28.1578  -28.5725   21.2761 H   0  0  0  0  0  0
  -25.8689  -25.6978   19.0379 H   0  0  0  0  0  0
  -23.9978  -27.2462   18.9725 H   0  0  0  0  0  0
  -23.8845  -30.5067   19.3855 H   0  0  0  0  0  0
  -22.8315  -29.2006   19.8261 H   0  0  0  0  0  0
  -25.1333  -36.1734   25.0792 H   0  0  0  0  0  0
  -21.0034  -28.3366   24.1306 H   0  0  0  0  0  0
  -20.5676  -26.2372   23.3641 H   0  0  0  0  0  0
  -21.6658  -26.7398   22.1211 H   0  0  0  0  0  0
  -19.6926  -25.6275   21.1262 H   0  0  0  0  0  0
  -19.6716  -27.3162   20.6720 H   0  0  0  0  0  0
  -17.4221  -26.6683   21.4021 H   0  0  0  0  0  0
  -18.0351  -26.0102   22.9031 H   0  0  0  0  0  0
  -19.7975  -30.7313   24.2205 H   0  0  0  0  0  0
  -17.5044  -31.6281   24.5152 H   0  0  0  0  0  0
  -15.5375  -30.2970   23.7705 H   0  0  0  0  0  0
  -15.8704  -28.0800   22.7125 H   0  0  0  0  0  0
  -24.5898  -30.7113   25.7635 H   0  0  0  0  0  0
  -24.8854  -32.2985   26.4607 H   0  0  0  0  0  0
  -25.7906  -30.9045   27.0201 H   0  0  0  0  0  0
  -26.3181  -29.6540   24.1433 H   0  0  0  0  0  0
  -27.3983  -29.7273   25.5138 H   0  0  0  0  0  0
  -27.9136  -30.4068   23.9916 H   0  0  0  0  0  0
  -27.2633  -33.3714   26.1900 H   0  0  0  0  0  0
  -28.3957  -32.6796   25.0369 H   0  0  0  0  0  0
  -28.0636  -31.8575   26.5536 H   0  0  0  0  0  0
  -28.2581  -38.0052   24.7508 H   0  0  0  0  0  0
  -28.1063  -36.2578   24.6324 H   0  0  0  0  0  0
  -27.2282  -37.1422   25.8882 H   0  0  0  0  0  0
  -20.9609  -29.8726   21.6635 H   0  0  0  0  0  0
  -26.0121  -38.2756   24.1407 H   0  0  0  0  0  0
  -30.5759  -16.9968   18.3576 H   0  0  0  0  0  0
  -28.8497  -16.8412   18.4025 H   0  0  0  0  0  0
  -29.0609  -17.8442   21.9719 H   0  0  0  0  0  0
  -30.6322  -18.2524   21.3852 H   0  0  0  0  0  0
  -28.6101  -18.7909   16.9677 H   0  0  0  0  0  0
  -28.8167  -20.4096   17.6071 H   0  0  0  0  0  0
  -26.8488  -19.8457   20.6051 H   0  0  0  0  0  0
  -27.2186  -18.1728   20.2727 H   0  0  0  0  0  0
  -30.5627  -19.3288   18.7744 H   0  0  0  0  0  0
  -26.0993  -18.6746   16.8994 H   0  0  0  0  0  0
  -25.2975  -18.5658   18.4607 H   0  0  0  0  0  0
  -26.5707  -17.4243   18.0415 H   0  0  0  0  0  0
  -28.2659  -24.1440   21.6081 H   0  0  0  0  0  0
  -26.9366  -24.0365   20.5588 H   0  0  0  0  0  0
  -29.5336  -22.7589   19.4233 H   0  0  0  0  0  0
  -27.9176  -22.2490   19.2002 H   0  0  0  0  0  0
  -26.8939  -20.3254   18.4172 H   0  0  0  0  0  0
  1 25  1  0  0  0
  1 30  2  0  0  0
  1 80  1  0  0  0
  2  3  1  0  0  0
  2 25  1  0  0  0
  2 83  1  0  0  0
  2 84  1  0  0  0
  3  4  1  0  0  0
  3 85  1  0  0  0
  3 86  1  0  0  0
  4  5  1  0  0  0
  4 87  1  0  0  0
  4 88  1  0  0  0
  5  6  1  0  0  0
  5 26  1  0  0  0
  5 89  1  0  0  0
  6 25  1  0  0  0
  6 90  1  0  0  0
  6 91  1  0  0  0
  7  8  2  0  0  0
  7 26  1  0  0  0
  7 29  1  0  0  0
  8  9  1  0  0  0
  8 22  1  0  0  0
  9 10  1  0  0  0
  9 27  2  0  0  0
 10 11  2  0  0  0
 10 15  1  0  0  0
 11 12  1  0  0  0
 11 92  1  0  0  0
 12 13  2  0  0  0
 12 93  1  0  0  0
 13 14  1  0  0  0
 13 31  1  0  0  0
 14 15  2  0  0  0
 14 94  1  0  0  0
 15 95  1  0  0  0
 16 17  2  0  0  0
 16 21  1  0  0  0
 16 31  1  0  0  0
 17 18  1  0  0  0
 17 96  1  0  0  0
 18 19  2  0  0  0
 18 97  1  0  0  0
 19 20  1  0  0  0
 19 24  1  0  0  0
 20 21  2  0  0  0
 20 98  1  0  0  0
 21 23  1  0  0  0
 22 28  1  0  0  0
 22 32  2  0  0  0
 26 27  1  0  0  0
 28 99  1  0  0  0
 28100  1  0  0  0
 29101  1  0  0  0
 29102  1  0  0  0
 33 34  1  0  0  0
 33 66  1  0  0  0
 33 70  2  0  0  0
 34 36  1  0  0  0
 34 59  1  0  0  0
 34103  1  0  0  0
 35 44  2  0  0  0
 35 45  1  0  0  0
 35 68  1  0  0  0
 36 56  1  0  0  0
 36104  1  0  0  0
 37 39  1  0  0  0
 37 47  1  0  0  0
 37 66  1  0  0  0
 37105  1  0  0  0
 38 43  2  0  0  0
 38 46  1  0  0  0
 38 47  1  0  0  0
 39 64  1  0  0  0
 39 67  2  0  0  0
 40 52  1  0  0  0
 40 53  2  0  0  0
 40 58  1  0  0  0
 41106  1  0  0  0
 41107  1  0  0  0
 41108  1  0  0  0
 41 48  1  0  0  0
 42 43  1  0  0  0
 42 66  1  0  0  0
 42109  1  0  0  0
 42110  1  0  0  0
 43 44  1  0  0  0
 44111  1  0  0  0
 45 46  2  0  0  0
 45112  1  0  0  0
 46113  1  0  0  0
 47114  1  0  0  0
 47115  1  0  0  0
 48 56  1  0  0  0
 48 65  1  0  0  0
 48116  1  0  0  0
 49 50  1  0  0  0
 49 53  1  0  0  0
 49 64  1  0  0  0
 49117  1  0  0  0
 50 51  1  0  0  0
 50118  1  0  0  0
 50119  1  0  0  0
 51 52  1  0  0  0
 51120  1  0  0  0
 51121  1  0  0  0
 52122  1  0  0  0
 52123  1  0  0  0
 53 54  1  0  0  0
 54 55  2  0  0  0
 54124  1  0  0  0
 55 57  1  0  0  0
 55125  1  0  0  0
 56 69  2  0  0  0
 57 58  2  0  0  0
 57126  1  0  0  0
 58127  1  0  0  0
 59 60  1  0  0  0
 59 61  1  0  0  0
 59 62  1  0  0  0
 60128  1  0  0  0
 60129  1  0  0  0
 60130  1  0  0  0
 61131  1  0  0  0
 61132  1  0  0  0
 61133  1  0  0  0
 62134  1  0  0  0
 62135  1  0  0  0
 62136  1  0  0  0
 63 65  1  0  0  0
 63137  1  0  0  0
 63138  1  0  0  0
 63139  1  0  0  0
 64140  1  0  0  0
 65141  1  0  0  0
 68 78  1  0  0  0
 71 80  1  0  0  0
 71142  1  0  0  0
 71143  1  0  0  0
 71 75  1  0  0  0
 72 76  1  0  0  0
 72 80  1  0  0  0
 72144  1  0  0  0
 72145  1  0  0  0
 73 75  1  0  0  0
 73 81  1  0  0  0
 73146  1  0  0  0
 73147  1  0  0  0
 74 76  1  0  0  0
 74 81  1  0  0  0
 74148  1  0  0  0
 74149  1  0  0  0
 75 76  1  0  0  0
 75150  1  0  0  0
 76 82  1  0  0  0
 77151  1  0  0  0
 77152  1  0  0  0
 77153  1  0  0  0
 77 81  1  0  0  0
 78 79  1  0  0  0
 78154  1  0  0  0
 78155  1  0  0  0
 79 82  1  0  0  0
 79156  1  0  0  0
 79157  1  0  0  0
 81158  1  0  0  0
M  CHG  1  81   1
M  ISO  4   1 100  68 101  78 101  80 100
M  END
> <chiral flag>
0

> <version>
0

> <s_m_source_file>
/data/baiqing/PycharmProjects/Reinvent-master-3.2/result/LINK_invent/BTK/process_docking_weight1_custom_sum_contain_oxygen_bond_distance_aromatic_linkinvent_7_9_3/rearranged_h_0188.sdf

> <i_m_source_file_index>
57

> <r_mmod_Potential_Energy-OPLS-2005>
1625.33776855469

> <r_mmod_Stretch_Energy-OPLS-2005>
656.399230957031

> <r_mmod_Bend_Energy-OPLS-2005>
583.9033203125

> <r_mmod_Torsional_Energy-OPLS-2005>
442.28076171875

> <r_mmod_Improper_Torsional_Energy-OPLS-2005>
13.7793493270874

> <r_mmod_Van_der_Waal_Energy-OPLS-2005>
97.6544570922852

> <r_mmod_Electrostatic_Energy-OPLS-2005>
-214.042434692383

> <r_mmod_Solvation_Energy-OPLS-2005>
-449.996246337891

> <b_mmod_Minimization_Converged-OPLS-2005>
0

> <r_mmod_RMS_Derivative-OPLS-2005>
3.22714877128601

$$$$
58
                    3D
 Structure written by MMmdl.
151160  0  0  1  0            999 V2000
  -30.5754  -14.9693   20.2876 C   0  0  0  0  0  0
  -30.4013  -12.5718   19.5011 C   0  0  0  0  0  0
  -29.5262  -12.5727   18.2343 C   0  0  0  0  0  0
  -28.0431  -12.3921   18.6012 C   0  0  0  0  0  0
  -27.6171  -13.2817   19.8084 C   0  0  2  0  0  0
  -28.6599  -13.3444   20.9424 C   0  0  0  0  0  0
  -25.2391  -13.8282   20.5645 C   0  0  0  0  0  0
  -24.1770  -13.0476   20.9159 C   0  0  0  0  0  0
  -24.6425  -11.6949   20.8666 C   0  0  0  0  0  0
  -23.9135  -10.4307   21.0331 C   0  0  0  0  0  0
  -24.3693   -9.4231   21.9117 C   0  0  0  0  0  0
  -23.6375   -8.2278   22.0710 C   0  0  0  0  0  0
  -22.4331   -8.0291   21.3522 C   0  0  0  0  0  0
  -21.9984   -9.0246   20.4588 C   0  0  0  0  0  0
  -22.7305  -10.2118   20.2971 C   0  0  0  0  0  0
  -21.6879   -6.0703   22.5260 C   0  0  0  0  0  0
  -21.4058   -6.5596   23.8190 C   0  0  0  0  0  0
  -21.3732   -5.6758   24.9159 C   0  0  0  0  0  0
  -21.6067   -4.3003   24.7208 C   0  0  0  0  0  0
  -21.8820   -3.8103   23.4326 C   0  0  0  0  0  0
  -21.9202   -4.6921   22.3385 C   0  0  0  0  0  0
  -22.7767  -13.5165   21.1876 C   0  0  0  0  0  0
  -22.1641   -4.2111   21.0944 F   0  0  0  0  0  0
  -21.5691   -3.4487   25.7714 F   0  0  0  0  0  0
  -29.9339  -13.7223   20.3160 N   0  0  0  0  0  0
  -26.2861  -12.9588   20.3072 N   0  0  0  0  0  0
  -25.9359  -11.6681   20.5550 N   0  0  0  0  0  0
  -22.0435  -12.8162   22.0423 N   0  0  0  0  0  0
  -25.4026  -15.2059   20.4161 N   0  0  0  0  0  0
  -31.8094  -14.9376   20.2394 O   0  0  0  0  0  0
  -21.6694   -6.8883   21.4237 O   0  0  0  0  0  0
  -22.3365  -14.5448   20.6675 O   0  0  0  0  0  0
  -24.6540  -31.8272   23.1809 C   0  0  0  0  0  0
  -25.9249  -32.4590   23.8264 C   0  0  1  0  0  0
  -27.2725  -27.0475   20.1703 C   0  0  0  0  0  0
  -25.5960  -33.8416   24.2146 N   0  0  0  0  0  0
  -23.4730  -30.4342   21.5241 C   0  0  2  0  0  0
  -24.9425  -28.8416   20.1171 C   0  0  0  0  0  0
  -22.7643  -29.4407   22.4795 C   0  0  0  0  0  0
  -18.0286  -28.1394   22.8458 C   0  0  0  0  0  0
  -24.1511  -36.7238   23.2667 C   0  0  0  0  0  0
  -26.0361  -30.6637   21.4140 C   0  0  0  0  0  0
  -26.1141  -29.2690   20.7517 C   0  0  0  0  0  0
  -27.2722  -28.3890   20.7620 C   0  0  0  0  0  0
  -26.0652  -26.7350   19.5066 C   0  0  0  0  0  0
  -24.9337  -27.5887   19.4800 C   0  0  0  0  0  0
  -23.7216  -29.7531   20.1488 C   0  0  0  0  0  0
  -25.4150  -36.2982   24.0317 C   0  0  1  0  0  0
  -20.5924  -28.3704   23.1222 C   0  0  2  0  0  0
  -20.6756  -26.9371   22.5442 C   0  0  0  0  0  0
  -19.5755  -26.6343   21.5221 C   0  0  0  0  0  0
  -18.1918  -26.7931   22.1588 C   0  0  0  0  0  0
  -19.1556  -28.8871   23.2818 C   0  0  0  0  0  0
  -18.9464  -30.1467   23.8837 C   0  0  0  0  0  0
  -17.6455  -30.6574   24.0546 C   0  0  0  0  0  0
  -25.9094  -34.9350   23.5054 C   0  0  0  0  0  0
  -16.5336  -29.9059   23.6357 C   0  0  0  0  0  0
  -16.7266  -28.6493   23.0349 C   0  0  0  0  0  0
  -26.4559  -31.6507   25.0772 C   0  0  0  0  0  0
  -25.3735  -31.3691   26.1451 C   0  0  0  0  0  0
  -27.0462  -30.2872   24.6515 C   0  0  0  0  0  0
  -27.6041  -32.4336   25.7563 C   0  0  0  0  0  0
  -27.5596  -37.1793   24.8447 C   0  0  0  0  0  0
  -21.4322  -29.2996   22.3594 N   0  0  0  0  0  0
  -26.4295  -37.3715   23.9403 N   0  0  0  0  0  0
  -24.7396  -31.0016   22.0933 N   0  0  0  0  0  0
  -23.4191  -28.7979   23.3030 O   0  0  0  0  0  0
  -28.3345  -26.0378   20.2338 O   0  0  0  0  0  0
  -26.5678  -34.8868   22.4636 O   0  0  0  0  0  0
  -23.5617  -32.1230   23.6895 O   0  0  0  0  0  0
  -28.2308  -19.5075   19.2395 C   0  0  0  0  0  0
  -27.9911  -20.8790   19.3385 C   0  0  0  0  0  0
  -29.4671  -19.1928   19.9023 C   0  0  0  0  0  0
  -30.8899  -17.4067   18.5648 C   0  0  0  0  0  0
  -29.7744  -16.3759   18.4752 C   0  0  0  0  0  0
  -30.3357  -17.7394   19.9508 C   0  0  2  0  0  0
  -29.1926  -23.1283   20.3641 C   0  0  0  0  0  0
  -28.1576  -24.4679   19.9845 C   0  0  0  0  0  0
  -29.8980  -20.4618   20.3435 N   0  0  0  0  0  0
  -29.0023  -21.5507   20.0235 N   0  0  0  0  0  0
  -29.8826  -16.1880   19.9423 N   0  0  0  0  0  0
  -31.4620  -12.6426   19.2524 H   0  0  0  0  0  0
  -30.2767  -11.6309   20.0391 H   0  0  0  0  0  0
  -29.8724  -11.8367   17.5118 H   0  0  0  0  0  0
  -29.6233  -13.5280   17.7282 H   0  0  0  0  0  0
  -27.8605  -11.3368   18.7880 H   0  0  0  0  0  0
  -27.4408  -12.6595   17.7287 H   0  0  0  0  0  0
  -27.5601  -14.2918   19.4029 H   0  0  0  0  0  0
  -28.7299  -12.3904   21.4665 H   0  0  0  0  0  0
  -28.3708  -14.0911   21.6843 H   0  0  0  0  0  0
  -25.2860   -9.5712   22.4643 H   0  0  0  0  0  0
  -24.0083   -7.4689   22.7442 H   0  0  0  0  0  0
  -21.0921   -8.8733   19.8873 H   0  0  0  0  0  0
  -22.3787  -10.9623   19.6046 H   0  0  0  0  0  0
  -21.2008   -7.6091   23.9710 H   0  0  0  0  0  0
  -21.1619   -6.0446   25.9077 H   0  0  0  0  0  0
  -22.0538   -2.7550   23.2805 H   0  0  0  0  0  0
  -22.4105  -11.9955   22.4973 H   0  0  0  0  0  0
  -21.0986  -13.1040   22.2477 H   0  0  0  0  0  0
  -24.6344  -15.8570   20.5217 H   0  0  0  0  0  0
  -26.2718  -15.6517   20.1524 H   0  0  0  0  0  0
  -26.7311  -32.5153   23.0978 H   0  0  0  0  0  0
  -25.0058  -33.9509   25.0263 H   0  0  0  0  0  0
  -22.7854  -31.2640   21.3488 H   0  0  0  0  0  0
  -23.3780  -35.9561   23.3309 H   0  0  0  0  0  0
  -24.3593  -36.8909   22.2087 H   0  0  0  0  0  0
  -23.7268  -37.6433   23.6728 H   0  0  0  0  0  0
  -26.2309  -31.4177   20.6522 H   0  0  0  0  0  0
  -26.8882  -30.6988   22.0795 H   0  0  0  0  0  0
  -28.1555  -28.7073   21.3001 H   0  0  0  0  0  0
  -25.9830  -25.7718   19.0234 H   0  0  0  0  0  0
  -24.0454  -27.2503   18.9671 H   0  0  0  0  0  0
  -23.8852  -30.5286   19.3996 H   0  0  0  0  0  0
  -22.8450  -29.1991   19.8100 H   0  0  0  0  0  0
  -25.1372  -36.1818   25.0812 H   0  0  0  0  0  0
  -20.9939  -28.3260   24.1374 H   0  0  0  0  0  0
  -20.5589  -26.2286   23.3669 H   0  0  0  0  0  0
  -21.6634  -26.7320   22.1293 H   0  0  0  0  0  0
  -19.6918  -25.6242   21.1291 H   0  0  0  0  0  0
  -19.6771  -27.3132   20.6748 H   0  0  0  0  0  0
  -17.4222  -26.6692   21.3948 H   0  0  0  0  0  0
  -18.0258  -26.0063   22.8967 H   0  0  0  0  0  0
  -19.7941  -30.7297   24.2168 H   0  0  0  0  0  0
  -17.5009  -31.6256   24.5150 H   0  0  0  0  0  0
  -15.5347  -30.2926   23.7757 H   0  0  0  0  0  0
  -15.8653  -28.0804   22.7086 H   0  0  0  0  0  0
  -24.5916  -30.7040   25.7792 H   0  0  0  0  0  0
  -24.8935  -32.2838   26.4920 H   0  0  0  0  0  0
  -25.8039  -30.8853   27.0219 H   0  0  0  0  0  0
  -26.3119  -29.6533   24.1530 H   0  0  0  0  0  0
  -27.3971  -29.7265   25.5196 H   0  0  0  0  0  0
  -27.9094  -30.4060   23.9963 H   0  0  0  0  0  0
  -27.2563  -33.3601   26.2142 H   0  0  0  0  0  0
  -28.3846  -32.6947   25.0408 H   0  0  0  0  0  0
  -28.0719  -31.8486   26.5489 H   0  0  0  0  0  0
  -28.2572  -38.0123   24.7505 H   0  0  0  0  0  0
  -28.1126  -36.2660   24.6251 H   0  0  0  0  0  0
  -27.2308  -37.1406   25.8837 H   0  0  0  0  0  0
  -20.9539  -29.8722   21.6793 H   0  0  0  0  0  0
  -26.0166  -38.2790   24.1380 H   0  0  0  0  0  0
  -27.5942  -18.8222   18.6897 H   0  0  0  0  0  0
  -27.1617  -21.4581   18.9490 H   0  0  0  0  0  0
  -30.8145  -18.1748   17.7970 H   0  0  0  0  0  0
  -31.8852  -16.9494   18.5749 H   0  0  0  0  0  0
  -30.0979  -15.5585   17.8315 H   0  0  0  0  0  0
  -28.8200  -16.7715   18.1237 H   0  0  0  0  0  0
  -31.1926  -17.8689   20.6143 H   0  0  0  0  0  0
  -29.3314  -23.1587   21.4472 H   0  0  0  0  0  0
  -30.1846  -23.3779   19.9771 H   0  0  0  0  0  0
  -27.2055  -24.2218   20.4537 H   0  0  0  0  0  0
  -27.9745  -24.3852   18.9125 H   0  0  0  0  0  0
  1 25  1  0  0  0
  1 30  2  0  0  0
  1 81  1  0  0  0
  2  3  1  0  0  0
  2 25  1  0  0  0
  2 82  1  0  0  0
  2 83  1  0  0  0
  3  4  1  0  0  0
  3 84  1  0  0  0
  3 85  1  0  0  0
  4  5  1  0  0  0
  4 86  1  0  0  0
  4 87  1  0  0  0
  5  6  1  0  0  0
  5 26  1  0  0  0
  5 88  1  0  0  0
  6 25  1  0  0  0
  6 89  1  0  0  0
  6 90  1  0  0  0
  7  8  2  0  0  0
  7 26  1  0  0  0
  7 29  1  0  0  0
  8  9  1  0  0  0
  8 22  1  0  0  0
  9 10  1  0  0  0
  9 27  2  0  0  0
 10 11  2  0  0  0
 10 15  1  0  0  0
 11 12  1  0  0  0
 11 91  1  0  0  0
 12 13  2  0  0  0
 12 92  1  0  0  0
 13 14  1  0  0  0
 13 31  1  0  0  0
 14 15  2  0  0  0
 14 93  1  0  0  0
 15 94  1  0  0  0
 16 17  2  0  0  0
 16 21  1  0  0  0
 16 31  1  0  0  0
 17 18  1  0  0  0
 17 95  1  0  0  0
 18 19  2  0  0  0
 18 96  1  0  0  0
 19 20  1  0  0  0
 19 24  1  0  0  0
 20 21  2  0  0  0
 20 97  1  0  0  0
 21 23  1  0  0  0
 22 28  1  0  0  0
 22 32  2  0  0  0
 26 27  1  0  0  0
 28 98  1  0  0  0
 28 99  1  0  0  0
 29100  1  0  0  0
 29101  1  0  0  0
 33 34  1  0  0  0
 33 66  1  0  0  0
 33 70  2  0  0  0
 34 36  1  0  0  0
 34 59  1  0  0  0
 34102  1  0  0  0
 35 44  2  0  0  0
 35 45  1  0  0  0
 35 68  1  0  0  0
 36 56  1  0  0  0
 36103  1  0  0  0
 37 39  1  0  0  0
 37 47  1  0  0  0
 37 66  1  0  0  0
 37104  1  0  0  0
 38 43  2  0  0  0
 38 46  1  0  0  0
 38 47  1  0  0  0
 39 64  1  0  0  0
 39 67  2  0  0  0
 40 52  1  0  0  0
 40 53  2  0  0  0
 40 58  1  0  0  0
 41105  1  0  0  0
 41106  1  0  0  0
 41107  1  0  0  0
 41 48  1  0  0  0
 42 43  1  0  0  0
 42 66  1  0  0  0
 42108  1  0  0  0
 42109  1  0  0  0
 43 44  1  0  0  0
 44110  1  0  0  0
 45 46  2  0  0  0
 45111  1  0  0  0
 46112  1  0  0  0
 47113  1  0  0  0
 47114  1  0  0  0
 48 56  1  0  0  0
 48 65  1  0  0  0
 48115  1  0  0  0
 49 50  1  0  0  0
 49 53  1  0  0  0
 49 64  1  0  0  0
 49116  1  0  0  0
 50 51  1  0  0  0
 50117  1  0  0  0
 50118  1  0  0  0
 51 52  1  0  0  0
 51119  1  0  0  0
 51120  1  0  0  0
 52121  1  0  0  0
 52122  1  0  0  0
 53 54  1  0  0  0
 54 55  2  0  0  0
 54123  1  0  0  0
 55 57  1  0  0  0
 55124  1  0  0  0
 56 69  2  0  0  0
 57 58  2  0  0  0
 57125  1  0  0  0
 58126  1  0  0  0
 59 60  1  0  0  0
 59 61  1  0  0  0
 59 62  1  0  0  0
 60127  1  0  0  0
 60128  1  0  0  0
 60129  1  0  0  0
 61130  1  0  0  0
 61131  1  0  0  0
 61132  1  0  0  0
 62133  1  0  0  0
 62134  1  0  0  0
 62135  1  0  0  0
 63 65  1  0  0  0
 63136  1  0  0  0
 63137  1  0  0  0
 63138  1  0  0  0
 64139  1  0  0  0
 65140  1  0  0  0
 68 78  1  0  0  0
 71 72  2  0  0  0
 71 73  1  0  0  0
 71141  1  0  0  0
 72 80  1  0  0  0
 72142  1  0  0  0
 73 79  2  0  0  0
 73 76  1  0  0  0
 74 75  1  0  0  0
 74 76  1  0  0  0
 74143  1  0  0  0
 74144  1  0  0  0
 75 81  1  0  0  0
 75145  1  0  0  0
 75146  1  0  0  0
 76 81  1  0  0  0
 76147  1  0  0  0
 77 78  1  0  0  0
 77 80  1  0  0  0
 77148  1  0  0  0
 77149  1  0  0  0
 78150  1  0  0  0
 78151  1  0  0  0
 79 80  1  0  0  0
M  ISO  4   1 100  68 101  78 101  81 100
M  END
> <chiral flag>
0

> <version>
0

> <s_m_source_file>
/data/baiqing/PycharmProjects/Reinvent-master-3.2/result/LINK_invent/BTK/process_docking_weight1_custom_sum_contain_oxygen_bond_distance_aromatic_linkinvent_7_9_3/rearranged_h_0188.sdf

> <i_m_source_file_index>
58

> <r_mmod_Potential_Energy-OPLS-2005>
769.613525390625

> <r_mmod_Stretch_Energy-OPLS-2005>
364.913208007812

> <r_mmod_Bend_Energy-OPLS-2005>
338.702545166016

> <r_mmod_Torsional_Energy-OPLS-2005>
278.909881591797

> <r_mmod_Improper_Torsional_Energy-OPLS-2005>
19.1184635162354

> <r_mmod_Van_der_Waal_Energy-OPLS-2005>
112.970443725586

> <r_mmod_Electrostatic_Energy-OPLS-2005>
-370.175262451172

> <r_mmod_Solvation_Energy-OPLS-2005>
-225.989379882812

> <b_mmod_Minimization_Converged-OPLS-2005>
0

> <r_mmod_RMS_Derivative-OPLS-2005>
9.03652858734131

$$$$
59
                    3D
 Structure written by MMmdl.
160169  0  0  1  0            999 V2000
  -30.6483  -14.6371   20.4242 C   0  0  0  0  0  0
  -30.4229  -12.3782   19.4371 C   0  0  0  0  0  0
  -29.4920  -12.4718   18.2091 C   0  0  0  0  0  0
  -28.0151  -12.3237   18.6291 C   0  0  0  0  0  0
  -27.6381  -13.1971   19.8554 C   0  0  2  0  0  0
  -28.6965  -13.1188   20.9760 C   0  0  0  0  0  0
  -25.2524  -13.8112   20.5752 C   0  0  0  0  0  0
  -24.1777  -13.0410   20.9231 C   0  0  0  0  0  0
  -24.6334  -11.6871   20.8777 C   0  0  0  0  0  0
  -23.9011  -10.4273   21.0441 C   0  0  0  0  0  0
  -24.3587   -9.4192   21.9202 C   0  0  0  0  0  0
  -23.6273   -8.2229   22.0764 C   0  0  0  0  0  0
  -22.4255   -8.0267   21.3552 C   0  0  0  0  0  0
  -21.9890   -9.0230   20.4644 C   0  0  0  0  0  0
  -22.7204  -10.2119   20.3069 C   0  0  0  0  0  0
  -21.6851   -6.0728   22.5278 C   0  0  0  0  0  0
  -21.4013   -6.5643   23.8205 C   0  0  0  0  0  0
  -21.3655   -5.6806   24.9174 C   0  0  0  0  0  0
  -21.6043   -4.3065   24.7238 C   0  0  0  0  0  0
  -21.8814   -3.8148   23.4361 C   0  0  0  0  0  0
  -21.9198   -4.6957   22.3412 C   0  0  0  0  0  0
  -22.7800  -13.5212   21.1904 C   0  0  0  0  0  0
  -22.1664   -4.2139   21.0990 F   0  0  0  0  0  0
  -21.5637   -3.4553   25.7758 F   0  0  0  0  0  0
  -30.0002  -13.4315   20.3767 N   0  0  0  0  0  0
  -26.2909  -12.9243   20.3359 N   0  0  0  0  0  0
  -25.9254  -11.6422   20.5802 N   0  0  0  0  0  0
  -22.0445  -12.8170   22.0428 N   0  0  0  0  0  0
  -25.4293  -15.1835   20.4184 N   0  0  0  0  0  0
  -31.8629  -14.7230   20.2206 O   0  0  0  0  0  0
  -21.6635   -6.8861   21.4237 O   0  0  0  0  0  0
  -22.3497  -14.5537   20.6767 O   0  0  0  0  0  0
  -24.6218  -31.8652   23.2067 C   0  0  0  0  0  0
  -25.9091  -32.4808   23.8381 C   0  0  1  0  0  0
  -27.2309  -27.3653   20.0959 C   0  0  0  0  0  0
  -25.5927  -33.8604   24.2305 N   0  0  0  0  0  0
  -23.4129  -30.4885   21.5493 C   0  0  2  0  0  0
  -24.8575  -28.9490   20.1113 C   0  0  0  0  0  0
  -22.7453  -29.4650   22.4978 C   0  0  0  0  0  0
  -18.0280  -28.1382   22.8494 C   0  0  0  0  0  0
  -24.1486  -36.7290   23.2639 C   0  0  0  0  0  0
  -25.9502  -30.8066   21.3743 C   0  0  0  0  0  0
  -26.0246  -29.4384   20.7126 C   0  0  0  0  0  0
  -27.2096  -28.6523   20.7048 C   0  0  0  0  0  0
  -26.0314  -26.9017   19.5068 C   0  0  0  0  0  0
  -24.8589  -27.6816   19.5079 C   0  0  0  0  0  0
  -23.6240  -29.8250   20.1629 C   0  0  0  0  0  0
  -25.4118  -36.3092   24.0331 C   0  0  1  0  0  0
  -20.5875  -28.3676   23.1307 C   0  0  2  0  0  0
  -20.6777  -26.9409   22.5418 C   0  0  0  0  0  0
  -19.5750  -26.6376   21.5227 C   0  0  0  0  0  0
  -18.1924  -26.7928   22.1631 C   0  0  0  0  0  0
  -19.1530  -28.8842   23.2894 C   0  0  0  0  0  0
  -18.9457  -30.1450   23.8899 C   0  0  0  0  0  0
  -17.6454  -30.6587   24.0554 C   0  0  0  0  0  0
  -25.9056  -34.9466   23.5116 C   0  0  0  0  0  0
  -16.5344  -29.9080   23.6330 C   0  0  0  0  0  0
  -16.7263  -28.6494   23.0358 C   0  0  0  0  0  0
  -26.4481  -31.6612   25.0746 C   0  0  0  0  0  0
  -25.3704  -31.3731   26.1462 C   0  0  0  0  0  0
  -27.0352  -30.3043   24.6212 C   0  0  0  0  0  0
  -27.6025  -32.4361   25.7533 C   0  0  0  0  0  0
  -27.5583  -37.1809   24.8463 C   0  0  0  0  0  0
  -21.4174  -29.3033   22.3702 N   0  0  0  0  0  0
  -26.4292  -37.3789   23.9410 N   0  0  0  0  0  0
  -24.6797  -31.0689   22.1001 N   0  0  0  0  0  0
  -23.4190  -28.8212   23.3066 O   0  0  0  0  0  0
  -28.3658  -26.5538   20.1555 O   0  0  0  0  0  0
  -26.5627  -34.8928   22.4681 O   0  0  0  0  0  0
  -23.5390  -32.1443   23.7413 O   0  0  0  0  0  0
  -28.5256  -23.3360   20.2609 C   0  0  0  0  0  0
  -28.9911  -22.0735   19.8987 C   0  0  0  0  0  0
  -29.7742  -22.3678   18.7442 C   0  0  0  0  0  0
  -29.5690  -17.7653   18.9566 C   0  0  0  0  0  0
  -29.4181  -16.2374   19.0353 C   0  0  0  0  0  0
  -30.1493  -17.0419   21.1152 C   0  0  0  0  0  0
  -29.3671  -18.1967   20.3983 C   0  0  1  0  0  0
  -30.4917  -21.4111   17.8336 C   0  0  0  0  0  0
  -28.6296  -20.6574   20.4435 C   0  0  0  0  0  0
  -28.6733  -25.7207   19.0418 C   0  0  0  0  0  0
  -29.7838  -23.6601   18.4446 N   0  0  0  0  0  0
  -28.9903  -24.2884   19.3441 N   0  0  0  0  0  0
  -29.8660  -15.7721   20.3714 N   0  0  0  0  0  0
  -29.7279  -19.6421   20.6740 N   0  3  0  0  0  0
  -31.4645  -12.4899   19.1285 H   0  0  0  0  0  0
  -30.3481  -11.3957   19.9066 H   0  0  0  0  0  0
  -29.7456  -11.7003   17.4812 H   0  0  0  0  0  0
  -29.6387  -13.4260   17.7016 H   0  0  0  0  0  0
  -27.8401  -11.2720   18.8593 H   0  0  0  0  0  0
  -27.3633  -12.5612   17.7875 H   0  0  0  0  0  0
  -27.6162  -14.2127   19.4894 H   0  0  0  0  0  0
  -28.7121  -12.1233   21.4226 H   0  0  0  0  0  0
  -28.4596  -13.8195   21.7789 H   0  0  0  0  0  0
  -25.2732   -9.5689   22.4764 H   0  0  0  0  0  0
  -23.9991   -7.4623   22.7471 H   0  0  0  0  0  0
  -21.0841   -8.8740   19.8915 H   0  0  0  0  0  0
  -22.3664  -10.9670   19.6180 H   0  0  0  0  0  0
  -21.1997   -7.6148   23.9705 H   0  0  0  0  0  0
  -21.1481   -6.0544   25.9076 H   0  0  0  0  0  0
  -22.0596   -2.7607   23.2879 H   0  0  0  0  0  0
  -22.4078  -11.9812   22.4766 H   0  0  0  0  0  0
  -21.1054  -13.1147   22.2661 H   0  0  0  0  0  0
  -24.6689  -15.8453   20.5302 H   0  0  0  0  0  0
  -26.2957  -15.6167   20.1292 H   0  0  0  0  0  0
  -26.7167  -32.5488   23.1141 H   0  0  0  0  0  0
  -25.0081  -33.9769   25.0451 H   0  0  0  0  0  0
  -22.7038  -31.3072   21.4116 H   0  0  0  0  0  0
  -23.3763  -35.9607   23.3289 H   0  0  0  0  0  0
  -24.3570  -36.8928   22.2056 H   0  0  0  0  0  0
  -23.7228  -37.6481   23.6673 H   0  0  0  0  0  0
  -26.0849  -31.5780   20.6152 H   0  0  0  0  0  0
  -26.8278  -30.8452   22.0079 H   0  0  0  0  0  0
  -28.1067  -29.0256   21.1784 H   0  0  0  0  0  0
  -25.9677  -25.9120   19.0784 H   0  0  0  0  0  0
  -23.9553  -27.2915   19.0599 H   0  0  0  0  0  0
  -23.7408  -30.6038   19.4081 H   0  0  0  0  0  0
  -22.7434  -29.2536   19.8625 H   0  0  0  0  0  0
  -25.1293  -36.1946   25.0822 H   0  0  0  0  0  0
  -20.9956  -28.3244   24.1433 H   0  0  0  0  0  0
  -20.5715  -26.2278   23.3606 H   0  0  0  0  0  0
  -21.6649  -26.7469   22.1202 H   0  0  0  0  0  0
  -19.6913  -25.6287   21.1257 H   0  0  0  0  0  0
  -19.6684  -27.3182   20.6755 H   0  0  0  0  0  0
  -17.4206  -26.6684   21.4018 H   0  0  0  0  0  0
  -18.0299  -26.0062   22.9013 H   0  0  0  0  0  0
  -19.7924  -30.7263   24.2282 H   0  0  0  0  0  0
  -17.5006  -31.6278   24.5140 H   0  0  0  0  0  0
  -15.5346  -30.2978   23.7661 H   0  0  0  0  0  0
  -15.8667  -28.0808   22.7084 H   0  0  0  0  0  0
  -24.5872  -30.7110   25.7757 H   0  0  0  0  0  0
  -24.8913  -32.2894   26.4907 H   0  0  0  0  0  0
  -25.8013  -30.8869   27.0220 H   0  0  0  0  0  0
  -26.2953  -29.6795   24.1201 H   0  0  0  0  0  0
  -27.4010  -29.7304   25.4734 H   0  0  0  0  0  0
  -27.8821  -30.4344   23.9477 H   0  0  0  0  0  0
  -27.2613  -33.3655   26.2099 H   0  0  0  0  0  0
  -28.3838  -32.6939   25.0373 H   0  0  0  0  0  0
  -28.0687  -31.8505   26.5464 H   0  0  0  0  0  0
  -28.2583  -38.0126   24.7545 H   0  0  0  0  0  0
  -28.1103  -36.2659   24.6252 H   0  0  0  0  0  0
  -27.2295  -37.1409   25.8863 H   0  0  0  0  0  0
  -20.9350  -29.8718   21.6884 H   0  0  0  0  0  0
  -26.0169  -38.2863   24.1411 H   0  0  0  0  0  0
  -27.8381  -23.6264   21.0439 H   0  0  0  0  0  0
  -28.8609  -18.2235   18.2641 H   0  0  0  0  0  0
  -30.5772  -18.0130   18.6190 H   0  0  0  0  0  0
  -29.9508  -15.7572   18.2116 H   0  0  0  0  0  0
  -28.3619  -16.0212   18.8968 H   0  0  0  0  0  0
  -29.8470  -16.9446   22.1586 H   0  0  0  0  0  0
  -31.2234  -17.2379   21.1059 H   0  0  0  0  0  0
  -28.3138  -18.0698   20.6595 H   0  0  0  0  0  0
  -29.8727  -20.5410   17.6104 H   0  0  0  0  0  0
  -31.4211  -21.0590   18.2813 H   0  0  0  0  0  0
  -30.7440  -21.8715   16.8771 H   0  0  0  0  0  0
  -27.9163  -20.2092   19.7509 H   0  0  0  0  0  0
  -28.0776  -20.7420   21.3803 H   0  0  0  0  0  0
  -27.9264  -25.7341   18.2510 H   0  0  0  0  0  0
  -29.5694  -26.1596   18.5998 H   0  0  0  0  0  0
  -30.5419  -19.8860   20.1376 H   0  0  0  0  0  0
  -29.9888  -19.7249   21.6428 H   0  0  0  0  0  0
  1 25  1  0  0  0
  1 30  2  0  0  0
  1 83  1  0  0  0
  2  3  1  0  0  0
  2 25  1  0  0  0
  2 85  1  0  0  0
  2 86  1  0  0  0
  3  4  1  0  0  0
  3 87  1  0  0  0
  3 88  1  0  0  0
  4  5  1  0  0  0
  4 89  1  0  0  0
  4 90  1  0  0  0
  5  6  1  0  0  0
  5 26  1  0  0  0
  5 91  1  0  0  0
  6 25  1  0  0  0
  6 92  1  0  0  0
  6 93  1  0  0  0
  7  8  2  0  0  0
  7 26  1  0  0  0
  7 29  1  0  0  0
  8  9  1  0  0  0
  8 22  1  0  0  0
  9 10  1  0  0  0
  9 27  2  0  0  0
 10 11  2  0  0  0
 10 15  1  0  0  0
 11 12  1  0  0  0
 11 94  1  0  0  0
 12 13  2  0  0  0
 12 95  1  0  0  0
 13 14  1  0  0  0
 13 31  1  0  0  0
 14 15  2  0  0  0
 14 96  1  0  0  0
 15 97  1  0  0  0
 16 17  2  0  0  0
 16 21  1  0  0  0
 16 31  1  0  0  0
 17 18  1  0  0  0
 17 98  1  0  0  0
 18 19  2  0  0  0
 18 99  1  0  0  0
 19 20  1  0  0  0
 19 24  1  0  0  0
 20 21  2  0  0  0
 20100  1  0  0  0
 21 23  1  0  0  0
 22 28  1  0  0  0
 22 32  2  0  0  0
 26 27  1  0  0  0
 28101  1  0  0  0
 28102  1  0  0  0
 29103  1  0  0  0
 29104  1  0  0  0
 33 34  1  0  0  0
 33 66  1  0  0  0
 33 70  2  0  0  0
 34 36  1  0  0  0
 34 59  1  0  0  0
 34105  1  0  0  0
 35 44  2  0  0  0
 35 45  1  0  0  0
 35 68  1  0  0  0
 36 56  1  0  0  0
 36106  1  0  0  0
 37 39  1  0  0  0
 37 47  1  0  0  0
 37 66  1  0  0  0
 37107  1  0  0  0
 38 43  2  0  0  0
 38 46  1  0  0  0
 38 47  1  0  0  0
 39 64  1  0  0  0
 39 67  2  0  0  0
 40 52  1  0  0  0
 40 53  2  0  0  0
 40 58  1  0  0  0
 41108  1  0  0  0
 41109  1  0  0  0
 41110  1  0  0  0
 41 48  1  0  0  0
 42 43  1  0  0  0
 42 66  1  0  0  0
 42111  1  0  0  0
 42112  1  0  0  0
 43 44  1  0  0  0
 44113  1  0  0  0
 45 46  2  0  0  0
 45114  1  0  0  0
 46115  1  0  0  0
 47116  1  0  0  0
 47117  1  0  0  0
 48 56  1  0  0  0
 48 65  1  0  0  0
 48118  1  0  0  0
 49 50  1  0  0  0
 49 53  1  0  0  0
 49 64  1  0  0  0
 49119  1  0  0  0
 50 51  1  0  0  0
 50120  1  0  0  0
 50121  1  0  0  0
 51 52  1  0  0  0
 51122  1  0  0  0
 51123  1  0  0  0
 52124  1  0  0  0
 52125  1  0  0  0
 53 54  1  0  0  0
 54 55  2  0  0  0
 54126  1  0  0  0
 55 57  1  0  0  0
 55127  1  0  0  0
 56 69  2  0  0  0
 57 58  2  0  0  0
 57128  1  0  0  0
 58129  1  0  0  0
 59 60  1  0  0  0
 59 61  1  0  0  0
 59 62  1  0  0  0
 60130  1  0  0  0
 60131  1  0  0  0
 60132  1  0  0  0
 61133  1  0  0  0
 61134  1  0  0  0
 61135  1  0  0  0
 62136  1  0  0  0
 62137  1  0  0  0
 62138  1  0  0  0
 63 65  1  0  0  0
 63139  1  0  0  0
 63140  1  0  0  0
 63141  1  0  0  0
 64142  1  0  0  0
 65143  1  0  0  0
 68 80  1  0  0  0
 71 72  2  0  0  0
 71 82  1  0  0  0
 71144  1  0  0  0
 72 73  1  0  0  0
 72 79  1  0  0  0
 73 78  1  0  0  0
 73 81  2  0  0  0
 74 75  1  0  0  0
 74 77  1  0  0  0
 74145  1  0  0  0
 74146  1  0  0  0
 75 83  1  0  0  0
 75147  1  0  0  0
 75148  1  0  0  0
 76 77  1  0  0  0
 76 83  1  0  0  0
 76149  1  0  0  0
 76150  1  0  0  0
 77 84  1  0  0  0
 77151  1  0  0  0
 78152  1  0  0  0
 78153  1  0  0  0
 78154  1  0  0  0
 79 84  1  0  0  0
 79155  1  0  0  0
 79156  1  0  0  0
 80 82  1  0  0  0
 80157  1  0  0  0
 80158  1  0  0  0
 81 82  1  0  0  0
 84159  1  0  0  0
 84160  1  0  0  0
M  CHG  1  84   1
M  ISO  4   1 100  68 101  80 101  83 100
M  END
> <chiral flag>
0

> <version>
0

> <s_m_source_file>
/data/baiqing/PycharmProjects/Reinvent-master-3.2/result/LINK_invent/BTK/process_docking_weight1_custom_sum_contain_oxygen_bond_distance_aromatic_linkinvent_7_9_3/rearranged_h_0188.sdf

> <i_m_source_file_index>
59

> <r_mmod_Potential_Energy-OPLS-2005>
43.2283134460449

> <r_mmod_Stretch_Energy-OPLS-2005>
64.3885726928711

> <r_mmod_Bend_Energy-OPLS-2005>
169.921600341797

> <r_mmod_Torsional_Energy-OPLS-2005>
354.113922119141

> <r_mmod_Improper_Torsional_Energy-OPLS-2005>
14.2563104629517

> <r_mmod_Van_der_Waal_Energy-OPLS-2005>
115.409767150879

> <r_mmod_Electrostatic_Energy-OPLS-2005>
-240.67170715332

> <r_mmod_Solvation_Energy-OPLS-2005>
-481.606689453125

> <b_mmod_Minimization_Converged-OPLS-2005>
0

> <r_mmod_RMS_Derivative-OPLS-2005>
2.14176654815674

$$$$
60
                    3D
 Structure written by MMmdl.
151160  0  0  1  0            999 V2000
  -30.4803  -15.1955   20.3467 C   0  0  0  0  0  0
  -30.4439  -12.7491   19.5239 C   0  0  0  0  0  0
  -29.5437  -12.5634   18.2795 C   0  0  0  0  0  0
  -28.0833  -12.3062   18.6987 C   0  0  0  0  0  0
  -27.6172  -13.2733   19.8158 C   0  0  2  0  0  0
  -28.6528  -13.4249   20.9516 C   0  0  0  0  0  0
  -25.2450  -13.8225   20.5764 C   0  0  0  0  0  0
  -24.1762  -13.0425   20.9206 C   0  0  0  0  0  0
  -24.6405  -11.6924   20.8699 C   0  0  0  0  0  0
  -23.9077  -10.4293   21.0357 C   0  0  0  0  0  0
  -24.3617   -9.4212   21.9145 C   0  0  0  0  0  0
  -23.6285   -8.2251   22.0742 C   0  0  0  0  0  0
  -22.4278   -8.0272   21.3525 C   0  0  0  0  0  0
  -21.9907   -9.0250   20.4637 C   0  0  0  0  0  0
  -22.7241  -10.2125   20.3021 C   0  0  0  0  0  0
  -21.6872   -6.0710   22.5258 C   0  0  0  0  0  0
  -21.4067   -6.5615   23.8195 C   0  0  0  0  0  0
  -21.3672   -5.6752   24.9142 C   0  0  0  0  0  0
  -21.6042   -4.3011   24.7194 C   0  0  0  0  0  0
  -21.8817   -3.8115   23.4307 C   0  0  0  0  0  0
  -21.9214   -4.6943   22.3369 C   0  0  0  0  0  0
  -22.7775  -13.5200   21.1848 C   0  0  0  0  0  0
  -22.1657   -4.2132   21.0939 F   0  0  0  0  0  0
  -21.5623   -3.4495   25.7696 F   0  0  0  0  0  0
  -29.8962  -13.9026   20.3261 N   0  0  0  0  0  0
  -26.2850  -12.9493   20.3143 N   0  0  0  0  0  0
  -25.9335  -11.6600   20.5624 N   0  0  0  0  0  0
  -22.0407  -12.8242   22.0421 N   0  0  0  0  0  0
  -25.4113  -15.1975   20.4324 N   0  0  0  0  0  0
  -31.7008  -15.1807   20.1297 O   0  0  0  0  0  0
  -21.6639   -6.8873   21.4229 O   0  0  0  0  0  0
  -22.3450  -14.5442   20.6591 O   0  0  0  0  0  0
  -24.6553  -31.8315   23.1799 C   0  0  0  0  0  0
  -25.9289  -32.4624   23.8208 C   0  0  1  0  0  0
  -27.2095  -27.0014   20.1665 C   0  0  0  0  0  0
  -25.6012  -33.8424   24.2161 N   0  0  0  0  0  0
  -23.4627  -30.4486   21.5276 C   0  0  2  0  0  0
  -24.9119  -28.8521   20.1114 C   0  0  0  0  0  0
  -22.7623  -29.4474   22.4818 C   0  0  0  0  0  0
  -18.0327  -28.1353   22.8473 C   0  0  0  0  0  0
  -24.1494  -36.7211   23.2639 C   0  0  0  0  0  0
  -26.0272  -30.6606   21.4000 C   0  0  0  0  0  0
  -26.0956  -29.2586   20.7413 C   0  0  0  0  0  0
  -27.2427  -28.3552   20.7442 C   0  0  0  0  0  0
  -25.9995  -26.7328   19.4882 C   0  0  0  0  0  0
  -24.8877  -27.6097   19.4628 C   0  0  0  0  0  0
  -23.6921  -29.7692   20.1504 C   0  0  0  0  0  0
  -25.4135  -36.2997   24.0324 C   0  0  1  0  0  0
  -20.5945  -28.3685   23.1212 C   0  0  2  0  0  0
  -20.6815  -26.9377   22.5393 C   0  0  0  0  0  0
  -19.5804  -26.6331   21.5198 C   0  0  0  0  0  0
  -18.1971  -26.7889   22.1597 C   0  0  0  0  0  0
  -19.1583  -28.8841   23.2829 C   0  0  0  0  0  0
  -18.9487  -30.1434   23.8856 C   0  0  0  0  0  0
  -17.6478  -30.6557   24.0520 C   0  0  0  0  0  0
  -25.9079  -34.9368   23.5063 C   0  0  0  0  0  0
  -16.5373  -29.9041   23.6330 C   0  0  0  0  0  0
  -16.7301  -28.6449   23.0382 C   0  0  0  0  0  0
  -26.4591  -31.6529   25.0688 C   0  0  0  0  0  0
  -25.3735  -31.3749   26.1358 C   0  0  0  0  0  0
  -27.0504  -30.2925   24.6367 C   0  0  0  0  0  0
  -27.6102  -32.4308   25.7483 C   0  0  0  0  0  0
  -27.5603  -37.1751   24.8462 C   0  0  0  0  0  0
  -21.4300  -29.3018   22.3566 N   0  0  0  0  0  0
  -26.4299  -37.3724   23.9414 N   0  0  0  0  0  0
  -24.7350  -31.0045   22.0897 N   0  0  0  0  0  0
  -23.4232  -28.8031   23.2992 O   0  0  0  0  0  0
  -28.2329  -25.9422   20.1779 O   0  0  0  0  0  0
  -26.5608  -34.8893   22.4602 O   0  0  0  0  0  0
  -23.5655  -32.1247   23.6964 O   0  0  0  0  0  0
  -29.3610  -20.5130   19.9645 C   0  0  0  0  0  0
  -30.3904  -22.0734   18.6492 C   0  0  0  0  0  0
  -28.8116  -22.9528   20.0156 C   0  0  0  0  0  0
  -29.3528  -17.5069   19.3704 C   0  0  0  0  0  0
  -30.2914  -17.8000   21.0979 C   0  0  0  0  0  0
  -29.2937  -18.8166   20.3316 C   0  0  0  0  0  0
  -31.3858  -22.3280   17.5267 C   0  0  0  0  0  0
  -27.9395  -24.3685   20.4482 C   0  0  0  0  0  0
  -30.2862  -20.7980   19.0475 N   0  0  0  0  0  0
  -28.5988  -21.6079   20.4747 N   0  0  0  0  0  0
  -29.7341  -23.1574   19.0799 N   0  0  0  0  0  0
  -29.7671  -16.4846   20.4607 N   0  0  0  0  0  0
  -31.4735  -12.9209   19.2085 H   0  0  0  0  0  0
  -30.4791  -11.8316   20.1199 H   0  0  0  0  0  0
  -29.9106  -11.7432   17.6616 H   0  0  0  0  0  0
  -29.5954  -13.4610   17.6597 H   0  0  0  0  0  0
  -28.0285  -11.2756   19.0529 H   0  0  0  0  0  0
  -27.4215  -12.3706   17.8358 H   0  0  0  0  0  0
  -27.5435  -14.2496   19.3375 H   0  0  0  0  0  0
  -28.8022  -12.4823   21.4834 H   0  0  0  0  0  0
  -28.3035  -14.1493   21.6878 H   0  0  0  0  0  0
  -25.2778   -9.5670   22.4686 H   0  0  0  0  0  0
  -23.9991   -7.4645   22.7453 H   0  0  0  0  0  0
  -21.0846   -8.8755   19.8934 H   0  0  0  0  0  0
  -22.3715  -10.9625   19.6089 H   0  0  0  0  0  0
  -21.2094   -7.6127   23.9706 H   0  0  0  0  0  0
  -21.1496   -6.0465   25.9045 H   0  0  0  0  0  0
  -22.0602   -2.7580   23.2780 H   0  0  0  0  0  0
  -22.4046  -11.9981   22.4928 H   0  0  0  0  0  0
  -21.0963  -13.1202   22.2486 H   0  0  0  0  0  0
  -24.6564  -15.8512   20.6070 H   0  0  0  0  0  0
  -26.2746  -15.6489   20.1602 H   0  0  0  0  0  0
  -26.7312  -32.5194   23.0880 H   0  0  0  0  0  0
  -25.0267  -33.9473   25.0400 H   0  0  0  0  0  0
  -22.7740  -31.2815   21.3701 H   0  0  0  0  0  0
  -23.3785  -35.9509   23.3247 H   0  0  0  0  0  0
  -24.3596  -36.8880   22.2062 H   0  0  0  0  0  0
  -23.7206  -37.6376   23.6691 H   0  0  0  0  0  0
  -26.2066  -31.4073   20.6255 H   0  0  0  0  0  0
  -26.8889  -30.7068   22.0561 H   0  0  0  0  0  0
  -28.1432  -28.6671   21.2549 H   0  0  0  0  0  0
  -25.8859  -25.7911   18.9714 H   0  0  0  0  0  0
  -23.9922  -27.3034   18.9410 H   0  0  0  0  0  0
  -23.8277  -30.5402   19.3896 H   0  0  0  0  0  0
  -22.8021  -29.2160   19.8404 H   0  0  0  0  0  0
  -25.1326  -36.1831   25.0820 H   0  0  0  0  0  0
  -21.0039  -28.3252   24.1329 H   0  0  0  0  0  0
  -20.5711  -26.2266   23.3597 H   0  0  0  0  0  0
  -21.6679  -26.7372   22.1195 H   0  0  0  0  0  0
  -19.6950  -25.6237   21.1227 H   0  0  0  0  0  0
  -19.6759  -27.3125   20.6713 H   0  0  0  0  0  0
  -17.4260  -26.6623   21.3979 H   0  0  0  0  0  0
  -18.0382  -26.0046   22.9000 H   0  0  0  0  0  0
  -19.7965  -30.7247   24.2220 H   0  0  0  0  0  0
  -17.5034  -31.6245   24.5090 H   0  0  0  0  0  0
  -15.5368  -30.2912   23.7674 H   0  0  0  0  0  0
  -15.8709  -28.0702   22.7176 H   0  0  0  0  0  0
  -24.5946  -30.7081   25.7656 H   0  0  0  0  0  0
  -24.8897  -32.2938   26.4670 H   0  0  0  0  0  0
  -25.7991  -30.8986   27.0203 H   0  0  0  0  0  0
  -26.3173  -29.6578   24.1390 H   0  0  0  0  0  0
  -27.4106  -29.7315   25.4989 H   0  0  0  0  0  0
  -27.9079  -30.4139   23.9754 H   0  0  0  0  0  0
  -27.2712  -33.3662   26.1946 H   0  0  0  0  0  0
  -28.3994  -32.6759   25.0360 H   0  0  0  0  0  0
  -28.0691  -31.8493   26.5491 H   0  0  0  0  0  0
  -28.2560  -38.0106   24.7599 H   0  0  0  0  0  0
  -28.1164  -36.2636   24.6202 H   0  0  0  0  0  0
  -27.2310  -37.1297   25.8856 H   0  0  0  0  0  0
  -20.9518  -29.8698   21.6715 H   0  0  0  0  0  0
  -26.0169  -38.2785   24.1439 H   0  0  0  0  0  0
  -30.1007  -17.6270   18.5802 H   0  0  0  0  0  0
  -28.3867  -17.2920   18.9072 H   0  0  0  0  0  0
  -31.3399  -18.0000   20.8571 H   0  0  0  0  0  0
  -30.1635  -17.8506   22.1786 H   0  0  0  0  0  0
  -28.3338  -18.7465   20.8436 H   0  0  0  0  0  0
  -32.3621  -22.5996   17.9246 H   0  0  0  0  0  0
  -31.0637  -23.1392   16.8712 H   0  0  0  0  0  0
  -31.5150  -21.4403   16.9039 H   0  0  0  0  0  0
  -27.8835  -24.3110   21.5351 H   0  0  0  0  0  0
  -26.9182  -24.1743   20.1214 H   0  0  0  0  0  0
  1 25  1  0  0  0
  1 30  2  0  0  0
  1 82  1  0  0  0
  2  3  1  0  0  0
  2 25  1  0  0  0
  2 83  1  0  0  0
  2 84  1  0  0  0
  3  4  1  0  0  0
  3 85  1  0  0  0
  3 86  1  0  0  0
  4  5  1  0  0  0
  4 87  1  0  0  0
  4 88  1  0  0  0
  5  6  1  0  0  0
  5 26  1  0  0  0
  5 89  1  0  0  0
  6 25  1  0  0  0
  6 90  1  0  0  0
  6 91  1  0  0  0
  7  8  2  0  0  0
  7 26  1  0  0  0
  7 29  1  0  0  0
  8  9  1  0  0  0
  8 22  1  0  0  0
  9 10  1  0  0  0
  9 27  2  0  0  0
 10 11  2  0  0  0
 10 15  1  0  0  0
 11 12  1  0  0  0
 11 92  1  0  0  0
 12 13  2  0  0  0
 12 93  1  0  0  0
 13 14  1  0  0  0
 13 31  1  0  0  0
 14 15  2  0  0  0
 14 94  1  0  0  0
 15 95  1  0  0  0
 16 17  2  0  0  0
 16 21  1  0  0  0
 16 31  1  0  0  0
 17 18  1  0  0  0
 17 96  1  0  0  0
 18 19  2  0  0  0
 18 97  1  0  0  0
 19 20  1  0  0  0
 19 24  1  0  0  0
 20 21  2  0  0  0
 20 98  1  0  0  0
 21 23  1  0  0  0
 22 28  1  0  0  0
 22 32  2  0  0  0
 26 27  1  0  0  0
 28 99  1  0  0  0
 28100  1  0  0  0
 29101  1  0  0  0
 29102  1  0  0  0
 33 34  1  0  0  0
 33 66  1  0  0  0
 33 70  2  0  0  0
 34 36  1  0  0  0
 34 59  1  0  0  0
 34103  1  0  0  0
 35 44  2  0  0  0
 35 45  1  0  0  0
 35 68  1  0  0  0
 36 56  1  0  0  0
 36104  1  0  0  0
 37 39  1  0  0  0
 37 47  1  0  0  0
 37 66  1  0  0  0
 37105  1  0  0  0
 38 43  2  0  0  0
 38 46  1  0  0  0
 38 47  1  0  0  0
 39 64  1  0  0  0
 39 67  2  0  0  0
 40 52  1  0  0  0
 40 53  2  0  0  0
 40 58  1  0  0  0
 41106  1  0  0  0
 41107  1  0  0  0
 41108  1  0  0  0
 41 48  1  0  0  0
 42 43  1  0  0  0
 42 66  1  0  0  0
 42109  1  0  0  0
 42110  1  0  0  0
 43 44  1  0  0  0
 44111  1  0  0  0
 45 46  2  0  0  0
 45112  1  0  0  0
 46113  1  0  0  0
 47114  1  0  0  0
 47115  1  0  0  0
 48 56  1  0  0  0
 48 65  1  0  0  0
 48116  1  0  0  0
 49 50  1  0  0  0
 49 53  1  0  0  0
 49 64  1  0  0  0
 49117  1  0  0  0
 50 51  1  0  0  0
 50118  1  0  0  0
 50119  1  0  0  0
 51 52  1  0  0  0
 51120  1  0  0  0
 51121  1  0  0  0
 52122  1  0  0  0
 52123  1  0  0  0
 53 54  1  0  0  0
 54 55  2  0  0  0
 54124  1  0  0  0
 55 57  1  0  0  0
 55125  1  0  0  0
 56 69  2  0  0  0
 57 58  2  0  0  0
 57126  1  0  0  0
 58127  1  0  0  0
 59 60  1  0  0  0
 59 61  1  0  0  0
 59 62  1  0  0  0
 60128  1  0  0  0
 60129  1  0  0  0
 60130  1  0  0  0
 61131  1  0  0  0
 61132  1  0  0  0
 61133  1  0  0  0
 62134  1  0  0  0
 62135  1  0  0  0
 62136  1  0  0  0
 63 65  1  0  0  0
 63137  1  0  0  0
 63138  1  0  0  0
 63139  1  0  0  0
 64140  1  0  0  0
 65141  1  0  0  0
 68 78  1  0  0  0
 71 79  1  0  0  0
 71 80  2  0  0  0
 71 76  1  0  0  0
 72 77  1  0  0  0
 72 79  2  0  0  0
 72 81  1  0  0  0
 73 78  1  0  0  0
 73 80  1  0  0  0
 73 81  2  0  0  0
 74 76  1  0  0  0
 74 82  1  0  0  0
 74142  1  0  0  0
 74143  1  0  0  0
 75 76  1  0  0  0
 75 82  1  0  0  0
 75144  1  0  0  0
 75145  1  0  0  0
 76146  1  0  0  0
 77147  1  0  0  0
 77148  1  0  0  0
 77149  1  0  0  0
 78150  1  0  0  0
 78151  1  0  0  0
M  ISO  4   1 100  68 101  78 101  82 100
M  END
> <chiral flag>
0

> <version>
0

> <s_m_source_file>
/data/baiqing/PycharmProjects/Reinvent-master-3.2/result/LINK_invent/BTK/process_docking_weight1_custom_sum_contain_oxygen_bond_distance_aromatic_linkinvent_7_9_3/rearranged_h_0188.sdf

> <i_m_source_file_index>
60

> <r_mmod_Potential_Energy-OPLS-2005>
425.321746826172

> <r_mmod_Stretch_Energy-OPLS-2005>
422.000366210938

> <r_mmod_Bend_Energy-OPLS-2005>
373.217529296875

> <r_mmod_Torsional_Energy-OPLS-2005>
262.715484619141

> <r_mmod_Improper_Torsional_Energy-OPLS-2005>
9.8281364440918

> <r_mmod_Van_der_Waal_Energy-OPLS-2005>
138.309951782227

> <r_mmod_Electrostatic_Energy-OPLS-2005>
-902.246398925781

> <r_mmod_Solvation_Energy-OPLS-2005>
-245.812713623047

> <b_mmod_Minimization_Converged-OPLS-2005>
0

> <r_mmod_RMS_Derivative-OPLS-2005>
5.07787036895752

$$$$
61
                    3D
 Structure written by MMmdl.
152161  0  0  1  0            999 V2000
  -30.5578  -14.9488   20.4059 C   0  0  0  0  0  0
  -30.4449  -12.5913   19.4961 C   0  0  0  0  0  0
  -29.5267  -12.5610   18.2523 C   0  0  0  0  0  0
  -28.0556  -12.3528   18.6663 C   0  0  0  0  0  0
  -27.6380  -13.2642   19.8552 C   0  0  2  0  0  0
  -28.6895  -13.2803   20.9869 C   0  0  0  0  0  0
  -25.2461  -13.8258   20.5748 C   0  0  0  0  0  0
  -24.1786  -13.0488   20.9265 C   0  0  0  0  0  0
  -24.6417  -11.6958   20.8767 C   0  0  0  0  0  0
  -23.9122  -10.4300   21.0390 C   0  0  0  0  0  0
  -24.3668   -9.4224   21.9174 C   0  0  0  0  0  0
  -23.6329   -8.2253   22.0748 C   0  0  0  0  0  0
  -22.4305   -8.0276   21.3535 C   0  0  0  0  0  0
  -21.9950   -9.0259   20.4638 C   0  0  0  0  0  0
  -22.7279  -10.2144   20.3042 C   0  0  0  0  0  0
  -21.6867   -6.0737   22.5279 C   0  0  0  0  0  0
  -21.3989   -6.5627   23.8215 C   0  0  0  0  0  0
  -21.3681   -5.6793   24.9194 C   0  0  0  0  0  0
  -21.6052   -4.3059   24.7250 C   0  0  0  0  0  0
  -21.8813   -3.8142   23.4372 C   0  0  0  0  0  0
  -21.9205   -4.6956   22.3418 C   0  0  0  0  0  0
  -22.7781  -13.5231   21.1903 C   0  0  0  0  0  0
  -22.1660   -4.2137   21.0986 F   0  0  0  0  0  0
  -21.5671   -3.4545   25.7767 F   0  0  0  0  0  0
  -29.9654  -13.6859   20.3881 N   0  0  0  0  0  0
  -26.2941  -12.9542   20.3353 N   0  0  0  0  0  0
  -25.9387  -11.6650   20.5803 N   0  0  0  0  0  0
  -22.0426  -12.8175   22.0445 N   0  0  0  0  0  0
  -25.4122  -15.1996   20.4092 N   0  0  0  0  0  0
  -31.7474  -15.0171   20.0835 O   0  0  0  0  0  0
  -21.6672   -6.8869   21.4224 O   0  0  0  0  0  0
  -22.3439  -14.5536   20.6781 O   0  0  0  0  0  0
  -24.6313  -31.8535   23.1936 C   0  0  0  0  0  0
  -25.9141  -32.4739   23.8276 C   0  0  1  0  0  0
  -27.2124  -27.1625   20.1464 C   0  0  0  0  0  0
  -25.5954  -33.8544   24.2181 N   0  0  0  0  0  0
  -23.4323  -30.4727   21.5409 C   0  0  2  0  0  0
  -24.8830  -28.9122   20.1081 C   0  0  0  0  0  0
  -22.7498  -29.4596   22.4929 C   0  0  0  0  0  0
  -18.0270  -28.1397   22.8516 C   0  0  0  0  0  0
  -24.1494  -36.7218   23.2644 C   0  0  0  0  0  0
  -25.9860  -30.7386   21.3911 C   0  0  0  0  0  0
  -26.0601  -29.3541   20.7249 C   0  0  0  0  0  0
  -27.2207  -28.4937   20.7330 C   0  0  0  0  0  0
  -26.0032  -26.8196   19.5006 C   0  0  0  0  0  0
  -24.8652  -27.6551   19.4888 C   0  0  0  0  0  0
  -23.6576  -29.8110   20.1578 C   0  0  0  0  0  0
  -25.4150  -36.3036   24.0293 C   0  0  1  0  0  0
  -20.5877  -28.3708   23.1320 C   0  0  2  0  0  0
  -20.6796  -26.9434   22.5464 C   0  0  0  0  0  0
  -19.5786  -26.6390   21.5269 C   0  0  0  0  0  0
  -18.1932  -26.7952   22.1619 C   0  0  0  0  0  0
  -19.1525  -28.8876   23.2909 C   0  0  0  0  0  0
  -18.9444  -30.1488   23.8917 C   0  0  0  0  0  0
  -17.6446  -30.6623   24.0579 C   0  0  0  0  0  0
  -25.9092  -34.9427   23.5032 C   0  0  0  0  0  0
  -16.5334  -29.9109   23.6380 C   0  0  0  0  0  0
  -16.7251  -28.6517   23.0411 C   0  0  0  0  0  0
  -26.4487  -31.6605   25.0708 C   0  0  0  0  0  0
  -25.3657  -31.3792   26.1391 C   0  0  0  0  0  0
  -27.0308  -30.2980   24.6292 C   0  0  0  0  0  0
  -27.6028  -32.4368   25.7472 C   0  0  0  0  0  0
  -27.5581  -37.1778   24.8471 C   0  0  0  0  0  0
  -21.4197  -29.3022   22.3669 N   0  0  0  0  0  0
  -26.4292  -37.3770   23.9410 N   0  0  0  0  0  0
  -24.7025  -31.0415   22.0970 N   0  0  0  0  0  0
  -23.4178  -28.8191   23.3096 O   0  0  0  0  0  0
  -28.2650  -26.1835   20.2804 O   0  0  0  0  0  0
  -26.5689  -34.8921   22.4611 O   0  0  0  0  0  0
  -23.5454  -32.1420   23.7185 O   0  0  0  0  0  0
  -28.4902  -23.3603   20.2124 C   0  0  0  0  0  0
  -28.9447  -21.1670   20.3875 C   0  0  0  0  0  0
  -29.9939  -18.8291   21.2940 C   0  0  0  0  0  0
  -28.9109  -18.5733   19.6152 C   0  0  0  0  0  0
  -30.0594  -17.6507   20.2193 C   0  0  0  0  0  0
  -26.8169  -20.5772   21.6710 C   0  0  0  0  0  0
  -28.3536  -24.8392   19.5141 C   0  0  0  0  0  0
  -29.4341  -22.3492   19.8782 N   0  0  0  0  0  0
  -27.4859  -22.8050   20.9112 N   0  0  0  0  0  0
  -27.7760  -21.4472   21.0098 N   0  0  0  0  0  0
  -29.5782  -19.7795   20.2066 N   0  0  0  0  0  0
  -29.7837  -16.1322   20.5700 N   0  0  0  0  0  0
  -31.4821  -12.7333   19.1872 H   0  0  0  0  0  0
  -30.4228  -11.6361   20.0210 H   0  0  0  0  0  0
  -29.8416  -11.7689   17.5725 H   0  0  0  0  0  0
  -29.6200  -13.4988   17.7031 H   0  0  0  0  0  0
  -27.9317  -11.3042   18.9388 H   0  0  0  0  0  0
  -27.3972  -12.5265   17.8134 H   0  0  0  0  0  0
  -27.6022  -14.2763   19.4516 H   0  0  0  0  0  0
  -28.7749  -12.3021   21.4628 H   0  0  0  0  0  0
  -28.4070  -13.9835   21.7718 H   0  0  0  0  0  0
  -25.2826   -9.5713   22.4757 H   0  0  0  0  0  0
  -24.0065   -7.4651   22.7465 H   0  0  0  0  0  0
  -21.0903   -8.8781   19.8920 H   0  0  0  0  0  0
  -22.3755  -10.9692   19.6153 H   0  0  0  0  0  0
  -21.1916   -7.6126   23.9716 H   0  0  0  0  0  0
  -21.1516   -6.0517   25.9091 H   0  0  0  0  0  0
  -22.0572   -2.7594   23.2898 H   0  0  0  0  0  0
  -22.4089  -11.9893   22.4877 H   0  0  0  0  0  0
  -21.1002  -13.1099   22.2585 H   0  0  0  0  0  0
  -24.6511  -15.8608   20.5188 H   0  0  0  0  0  0
  -26.2557  -15.6218   20.0420 H   0  0  0  0  0  0
  -26.7196  -32.5368   23.1003 H   0  0  0  0  0  0
  -25.0109  -33.9705   25.0325 H   0  0  0  0  0  0
  -22.7280  -31.2953   21.3925 H   0  0  0  0  0  0
  -23.3807  -35.9497   23.3288 H   0  0  0  0  0  0
  -24.3586  -36.8881   22.2069 H   0  0  0  0  0  0
  -23.7177  -37.6358   23.6717 H   0  0  0  0  0  0
  -26.1479  -31.5110   20.6386 H   0  0  0  0  0  0
  -26.8488  -30.7789   22.0435 H   0  0  0  0  0  0
  -28.1119  -28.8274   21.2455 H   0  0  0  0  0  0
  -25.8692  -25.8545   19.0424 H   0  0  0  0  0  0
  -23.9594  -27.2956   19.0228 H   0  0  0  0  0  0
  -23.7795  -30.5900   19.4025 H   0  0  0  0  0  0
  -22.7724  -29.2501   19.8553 H   0  0  0  0  0  0
  -25.1354  -36.1841   25.0775 H   0  0  0  0  0  0
  -20.9930  -28.3283   24.1466 H   0  0  0  0  0  0
  -20.5761  -26.2311   23.3659 H   0  0  0  0  0  0
  -21.6666  -26.7551   22.1237 H   0  0  0  0  0  0
  -19.6977  -25.6293   21.1339 H   0  0  0  0  0  0
  -19.6750  -27.3199   20.6799 H   0  0  0  0  0  0
  -17.4247  -26.6762   21.3956 H   0  0  0  0  0  0
  -18.0257  -26.0057   22.8958 H   0  0  0  0  0  0
  -19.7909  -30.7309   24.2271 H   0  0  0  0  0  0
  -17.4997  -31.6313   24.5139 H   0  0  0  0  0  0
  -15.5345  -30.3025   23.7699 H   0  0  0  0  0  0
  -15.8635  -28.0834   22.7173 H   0  0  0  0  0  0
  -24.5882  -30.7098   25.7709 H   0  0  0  0  0  0
  -24.8798  -32.2959   26.4732 H   0  0  0  0  0  0
  -25.7925  -30.9024   27.0222 H   0  0  0  0  0  0
  -26.2899  -29.6738   24.1287 H   0  0  0  0  0  0
  -27.3869  -29.7280   25.4887 H   0  0  0  0  0  0
  -27.8850  -30.4195   23.9629 H   0  0  0  0  0  0
  -27.2662  -33.3744   26.1922 H   0  0  0  0  0  0
  -28.3896  -32.6803   25.0312 H   0  0  0  0  0  0
  -28.0624  -31.8557   26.5483 H   0  0  0  0  0  0
  -28.2592  -38.0092   24.7565 H   0  0  0  0  0  0
  -28.1077  -36.2617   24.6231 H   0  0  0  0  0  0
  -27.2312  -37.1363   25.8882 H   0  0  0  0  0  0
  -20.9371  -29.8596   21.6765 H   0  0  0  0  0  0
  -26.0127  -38.2801   24.1485 H   0  0  0  0  0  0
  -30.9707  -19.0625   21.7226 H   0  0  0  0  0  0
  -29.2403  -18.7120   22.0750 H   0  0  0  0  0  0
  -27.9267  -18.3751   20.0389 H   0  0  0  0  0  0
  -28.8579  -18.5719   18.5240 H   0  0  0  0  0  0
  -30.9652  -17.7566   19.6180 H   0  0  0  0  0  0
  -26.6093  -19.7058   21.0553 H   0  0  0  0  0  0
  -25.8651  -21.0927   21.8138 H   0  0  0  0  0  0
  -27.2019  -20.2520   22.6378 H   0  0  0  0  0  0
  -27.5702  -24.7644   18.7689 H   0  0  0  0  0  0
  -29.2499  -24.9553   18.9064 H   0  0  0  0  0  0
  -28.8390  -15.9511   20.8674 H   0  0  0  0  0  0
  1 25  1  0  0  0
  1 30  2  0  0  0
  1 82  1  0  0  0
  2  3  1  0  0  0
  2 25  1  0  0  0
  2 83  1  0  0  0
  2 84  1  0  0  0
  3  4  1  0  0  0
  3 85  1  0  0  0
  3 86  1  0  0  0
  4  5  1  0  0  0
  4 87  1  0  0  0
  4 88  1  0  0  0
  5  6  1  0  0  0
  5 26  1  0  0  0
  5 89  1  0  0  0
  6 25  1  0  0  0
  6 90  1  0  0  0
  6 91  1  0  0  0
  7  8  2  0  0  0
  7 26  1  0  0  0
  7 29  1  0  0  0
  8  9  1  0  0  0
  8 22  1  0  0  0
  9 10  1  0  0  0
  9 27  2  0  0  0
 10 11  2  0  0  0
 10 15  1  0  0  0
 11 12  1  0  0  0
 11 92  1  0  0  0
 12 13  2  0  0  0
 12 93  1  0  0  0
 13 14  1  0  0  0
 13 31  1  0  0  0
 14 15  2  0  0  0
 14 94  1  0  0  0
 15 95  1  0  0  0
 16 17  2  0  0  0
 16 21  1  0  0  0
 16 31  1  0  0  0
 17 18  1  0  0  0
 17 96  1  0  0  0
 18 19  2  0  0  0
 18 97  1  0  0  0
 19 20  1  0  0  0
 19 24  1  0  0  0
 20 21  2  0  0  0
 20 98  1  0  0  0
 21 23  1  0  0  0
 22 28  1  0  0  0
 22 32  2  0  0  0
 26 27  1  0  0  0
 28 99  1  0  0  0
 28100  1  0  0  0
 29101  1  0  0  0
 29102  1  0  0  0
 33 34  1  0  0  0
 33 66  1  0  0  0
 33 70  2  0  0  0
 34 36  1  0  0  0
 34 59  1  0  0  0
 34103  1  0  0  0
 35 44  2  0  0  0
 35 45  1  0  0  0
 35 68  1  0  0  0
 36 56  1  0  0  0
 36104  1  0  0  0
 37 39  1  0  0  0
 37 47  1  0  0  0
 37 66  1  0  0  0
 37105  1  0  0  0
 38 43  2  0  0  0
 38 46  1  0  0  0
 38 47  1  0  0  0
 39 64  1  0  0  0
 39 67  2  0  0  0
 40 52  1  0  0  0
 40 53  2  0  0  0
 40 58  1  0  0  0
 41106  1  0  0  0
 41107  1  0  0  0
 41108  1  0  0  0
 41 48  1  0  0  0
 42 43  1  0  0  0
 42 66  1  0  0  0
 42109  1  0  0  0
 42110  1  0  0  0
 43 44  1  0  0  0
 44111  1  0  0  0
 45 46  2  0  0  0
 45112  1  0  0  0
 46113  1  0  0  0
 47114  1  0  0  0
 47115  1  0  0  0
 48 56  1  0  0  0
 48 65  1  0  0  0
 48116  1  0  0  0
 49 50  1  0  0  0
 49 53  1  0  0  0
 49 64  1  0  0  0
 49117  1  0  0  0
 50 51  1  0  0  0
 50118  1  0  0  0
 50119  1  0  0  0
 51 52  1  0  0  0
 51120  1  0  0  0
 51121  1  0  0  0
 52122  1  0  0  0
 52123  1  0  0  0
 53 54  1  0  0  0
 54 55  2  0  0  0
 54124  1  0  0  0
 55 57  1  0  0  0
 55125  1  0  0  0
 56 69  2  0  0  0
 57 58  2  0  0  0
 57126  1  0  0  0
 58127  1  0  0  0
 59 60  1  0  0  0
 59 61  1  0  0  0
 59 62  1  0  0  0
 60128  1  0  0  0
 60129  1  0  0  0
 60130  1  0  0  0
 61131  1  0  0  0
 61132  1  0  0  0
 61133  1  0  0  0
 62134  1  0  0  0
 62135  1  0  0  0
 62136  1  0  0  0
 63 65  1  0  0  0
 63137  1  0  0  0
 63138  1  0  0  0
 63139  1  0  0  0
 64140  1  0  0  0
 65141  1  0  0  0
 68 77  1  0  0  0
 71 77  1  0  0  0
 71 78  1  0  0  0
 71 79  2  0  0  0
 72 78  2  0  0  0
 72 80  1  0  0  0
 72 81  1  0  0  0
 73 75  1  0  0  0
 73 81  1  0  0  0
 73142  1  0  0  0
 73143  1  0  0  0
 74 75  1  0  0  0
 74 81  1  0  0  0
 74144  1  0  0  0
 74145  1  0  0  0
 75 82  1  0  0  0
 75146  1  0  0  0
 76 80  1  0  0  0
 76147  1  0  0  0
 76148  1  0  0  0
 76149  1  0  0  0
 77150  1  0  0  0
 77151  1  0  0  0
 79 80  1  0  0  0
 82152  1  0  0  0
M  ISO  4   1 100  68 101  77 101  82 100
M  END
> <chiral flag>
0

> <version>
0

> <s_m_source_file>
/data/baiqing/PycharmProjects/Reinvent-master-3.2/result/LINK_invent/BTK/process_docking_weight1_custom_sum_contain_oxygen_bond_distance_aromatic_linkinvent_7_9_3/rearranged_h_0188.sdf

> <i_m_source_file_index>
61

> <r_mmod_Potential_Energy-OPLS-2005>
437.644805908203

> <r_mmod_Stretch_Energy-OPLS-2005>
219.330612182617

> <r_mmod_Bend_Energy-OPLS-2005>
323.598785400391

> <r_mmod_Torsional_Energy-OPLS-2005>
251.194442749023

> <r_mmod_Improper_Torsional_Energy-OPLS-2005>
15.3249883651733

> <r_mmod_Van_der_Waal_Energy-OPLS-2005>
114.272468566895

> <r_mmod_Electrostatic_Energy-OPLS-2005>
-400.115570068359

> <r_mmod_Solvation_Energy-OPLS-2005>
-269.482299804688

> <b_mmod_Minimization_Converged-OPLS-2005>
0

> <r_mmod_RMS_Derivative-OPLS-2005>
5.31537055969238

$$$$
62
                    3D
 Structure written by MMmdl.
162171  0  0  1  0            999 V2000
  -30.6842  -14.5270   20.5561 C   0  0  0  0  0  0
  -30.4308  -12.3393   19.4267 C   0  0  0  0  0  0
  -29.4984  -12.5030   18.2080 C   0  0  0  0  0  0
  -28.0208  -12.3537   18.6236 C   0  0  0  0  0  0
  -27.6583  -13.2090   19.8670 C   0  0  2  0  0  0
  -28.7034  -13.0216   20.9902 C   0  0  0  0  0  0
  -25.2582  -13.8159   20.5677 C   0  0  0  0  0  0
  -24.1839  -13.0436   20.9184 C   0  0  0  0  0  0
  -24.6393  -11.6904   20.8734 C   0  0  0  0  0  0
  -23.9059  -10.4291   21.0404 C   0  0  0  0  0  0
  -24.3611   -9.4207   21.9181 C   0  0  0  0  0  0
  -23.6288   -8.2243   22.0753 C   0  0  0  0  0  0
  -22.4271   -8.0279   21.3545 C   0  0  0  0  0  0
  -21.9904   -9.0254   20.4649 C   0  0  0  0  0  0
  -22.7232  -10.2134   20.3056 C   0  0  0  0  0  0
  -21.6853   -6.0732   22.5279 C   0  0  0  0  0  0
  -21.4012   -6.5636   23.8211 C   0  0  0  0  0  0
  -21.3660   -5.6790   24.9175 C   0  0  0  0  0  0
  -21.6046   -4.3052   24.7226 C   0  0  0  0  0  0
  -21.8819   -3.8144   23.4348 C   0  0  0  0  0  0
  -21.9192   -4.6959   22.3404 C   0  0  0  0  0  0
  -22.7861  -13.5238   21.1845 C   0  0  0  0  0  0
  -22.1662   -4.2143   21.0982 F   0  0  0  0  0  0
  -21.5630   -3.4536   25.7740 F   0  0  0  0  0  0
  -30.0275  -13.3387   20.4296 N   0  0  0  0  0  0
  -26.3013  -12.9331   20.3332 N   0  0  0  0  0  0
  -25.9320  -11.6492   20.5755 N   0  0  0  0  0  0
  -22.0495  -12.8237   22.0402 N   0  0  0  0  0  0
  -25.4305  -15.1878   20.4086 N   0  0  0  0  0  0
  -31.8317  -14.7008   20.1389 O   0  0  0  0  0  0
  -21.6639   -6.8874   21.4240 O   0  0  0  0  0  0
  -22.3554  -14.5546   20.6690 O   0  0  0  0  0  0
  -24.6203  -31.8662   23.2093 C   0  0  0  0  0  0
  -25.9077  -32.4814   23.8398 C   0  0  1  0  0  0
  -27.2243  -27.3907   20.1002 C   0  0  0  0  0  0
  -25.5919  -33.8613   24.2326 N   0  0  0  0  0  0
  -23.4105  -30.4925   21.5511 C   0  0  2  0  0  0
  -24.8570  -28.9611   20.1140 C   0  0  0  0  0  0
  -22.7445  -29.4656   22.4970 C   0  0  0  0  0  0
  -18.0280  -28.1379   22.8489 C   0  0  0  0  0  0
  -24.1489  -36.7311   23.2638 C   0  0  0  0  0  0
  -25.9471  -30.8193   21.3711 C   0  0  0  0  0  0
  -26.0246  -29.4530   20.7131 C   0  0  0  0  0  0
  -27.2162  -28.6782   20.7004 C   0  0  0  0  0  0
  -26.0372  -26.9374   19.4869 C   0  0  0  0  0  0
  -24.8608  -27.7034   19.4950 C   0  0  0  0  0  0
  -23.6217  -29.8321   20.1649 C   0  0  0  0  0  0
  -25.4110  -36.3107   24.0338 C   0  0  1  0  0  0
  -20.5876  -28.3676   23.1302 C   0  0  2  0  0  0
  -20.6771  -26.9407   22.5411 C   0  0  0  0  0  0
  -19.5748  -26.6385   21.5210 C   0  0  0  0  0  0
  -18.1928  -26.7924   22.1623 C   0  0  0  0  0  0
  -19.1532  -28.8843   23.2892 C   0  0  0  0  0  0
  -18.9456  -30.1449   23.8903 C   0  0  0  0  0  0
  -17.6457  -30.6584   24.0561 C   0  0  0  0  0  0
  -25.9040  -34.9471   23.5126 C   0  0  0  0  0  0
  -16.5348  -29.9083   23.6328 C   0  0  0  0  0  0
  -16.7268  -28.6501   23.0348 C   0  0  0  0  0  0
  -26.4484  -31.6596   25.0736 C   0  0  0  0  0  0
  -25.3739  -31.3716   26.1477 C   0  0  0  0  0  0
  -27.0313  -30.3027   24.6138 C   0  0  0  0  0  0
  -27.6060  -32.4313   25.7497 C   0  0  0  0  0  0
  -27.5582  -37.1813   24.8467 C   0  0  0  0  0  0
  -21.4165  -29.3042   22.3708 N   0  0  0  0  0  0
  -26.4297  -37.3791   23.9406 N   0  0  0  0  0  0
  -24.6778  -31.0734   22.1016 N   0  0  0  0  0  0
  -23.4200  -28.8185   23.3015 O   0  0  0  0  0  0
  -28.3328  -26.5529   20.1058 O   0  0  0  0  0  0
  -26.5596  -34.8925   22.4685 O   0  0  0  0  0  0
  -23.5381  -32.1429   23.7459 O   0  0  0  0  0  0
  -29.9229  -23.5293   21.2816 C   0  0  0  0  0  0
  -30.4087  -22.2187   21.0480 C   0  0  0  0  0  0
  -28.8331  -24.0334   20.5323 C   0  0  0  0  0  0
  -29.7823  -21.4057   20.0782 C   0  0  0  0  0  0
  -28.2938  -23.1618   19.5505 C   0  0  0  0  0  0
  -29.3041  -18.0636   20.9613 C   0  0  0  0  0  0
  -31.1648  -17.7237   20.2290 C   0  0  0  0  0  0
  -30.3444  -16.9693   21.2832 C   0  0  2  0  0  0
  -26.7992  -22.6469   17.4961 C   0  0  0  0  0  0
  -28.1616  -25.3755   20.9436 C   0  0  0  0  0  0
  -27.1251  -23.5862   18.6711 C   0  0  0  0  0  0
  -30.3224  -20.0196   19.6430 C   0  0  0  0  0  0
  -28.7480  -21.8944   19.3539 N   0  0  0  0  0  0
  -29.9432  -15.5599   21.0220 N   0  0  0  0  0  0
  -30.4558  -18.9464   20.6765 N   0  3  1  0  0  0
  -31.4732  -12.4512   19.1226 H   0  0  0  0  0  0
  -30.3481  -11.3342   19.8428 H   0  0  0  0  0  0
  -29.7474  -11.7668   17.4426 H   0  0  0  0  0  0
  -29.6547  -13.4819   17.7521 H   0  0  0  0  0  0
  -27.8441  -11.2990   18.8379 H   0  0  0  0  0  0
  -27.3668  -12.6061   17.7880 H   0  0  0  0  0  0
  -27.6916  -14.2512   19.5489 H   0  0  0  0  0  0
  -28.6935  -11.9924   21.3521 H   0  0  0  0  0  0
  -28.4610  -13.6384   21.8569 H   0  0  0  0  0  0
  -25.2759   -9.5683   22.4750 H   0  0  0  0  0  0
  -24.0000   -7.4634   22.7470 H   0  0  0  0  0  0
  -21.0833   -8.8773   19.8957 H   0  0  0  0  0  0
  -22.3689  -10.9670   19.6162 H   0  0  0  0  0  0
  -21.2005   -7.6144   23.9713 H   0  0  0  0  0  0
  -21.1482   -6.0520   25.9077 H   0  0  0  0  0  0
  -22.0598   -2.7605   23.2850 H   0  0  0  0  0  0
  -22.4104  -11.9900   22.4799 H   0  0  0  0  0  0
  -21.1113  -13.1271   22.2596 H   0  0  0  0  0  0
  -24.6619  -15.8413   20.5132 H   0  0  0  0  0  0
  -26.2766  -15.6248   20.0667 H   0  0  0  0  0  0
  -26.7150  -32.5515   23.1161 H   0  0  0  0  0  0
  -25.0078  -33.9771   25.0477 H   0  0  0  0  0  0
  -22.7009  -31.3111   21.4134 H   0  0  0  0  0  0
  -23.3744  -35.9653   23.3319 H   0  0  0  0  0  0
  -24.3581  -36.8903   22.2048 H   0  0  0  0  0  0
  -23.7252  -37.6528   23.6637 H   0  0  0  0  0  0
  -26.0688  -31.5866   20.6051 H   0  0  0  0  0  0
  -26.8315  -30.8676   21.9949 H   0  0  0  0  0  0
  -28.1147  -29.0515   21.1718 H   0  0  0  0  0  0
  -25.9964  -25.9778   19.0050 H   0  0  0  0  0  0
  -23.9660  -27.3186   19.0252 H   0  0  0  0  0  0
  -23.7347  -30.6103   19.4090 H   0  0  0  0  0  0
  -22.7440  -29.2568   19.8643 H   0  0  0  0  0  0
  -25.1287  -36.1974   25.0831 H   0  0  0  0  0  0
  -20.9968  -28.3241   24.1422 H   0  0  0  0  0  0
  -20.5676  -26.2282   23.3601 H   0  0  0  0  0  0
  -21.6641  -26.7446   22.1203 H   0  0  0  0  0  0
  -19.6909  -25.6298   21.1234 H   0  0  0  0  0  0
  -19.6686  -27.3198   20.6744 H   0  0  0  0  0  0
  -17.4198  -26.6673   21.4025 H   0  0  0  0  0  0
  -18.0329  -26.0065   22.9019 H   0  0  0  0  0  0
  -19.7933  -30.7262   24.2275 H   0  0  0  0  0  0
  -17.5013  -31.6266   24.5161 H   0  0  0  0  0  0
  -15.5350  -30.2985   23.7651 H   0  0  0  0  0  0
  -15.8669  -28.0824   22.7055 H   0  0  0  0  0  0
  -24.5910  -30.7065   25.7816 H   0  0  0  0  0  0
  -24.8931  -32.2875   26.4924 H   0  0  0  0  0  0
  -25.8082  -30.8887   27.0239 H   0  0  0  0  0  0
  -26.2866  -29.6794   24.1173 H   0  0  0  0  0  0
  -27.4042  -29.7263   25.4615 H   0  0  0  0  0  0
  -27.8725  -30.4331   23.9325 H   0  0  0  0  0  0
  -27.2683  -33.3605   26.2102 H   0  0  0  0  0  0
  -28.3856  -32.6886   25.0313 H   0  0  0  0  0  0
  -28.0746  -31.8419   26.5389 H   0  0  0  0  0  0
  -28.2614  -38.0096   24.7496 H   0  0  0  0  0  0
  -28.1061  -36.2626   24.6313 H   0  0  0  0  0  0
  -27.2299  -37.1491   25.8870 H   0  0  0  0  0  0
  -20.9328  -29.8779   21.6941 H   0  0  0  0  0  0
  -26.0187  -38.2875   24.1388 H   0  0  0  0  0  0
  -30.3748  -24.1344   22.0548 H   0  0  0  0  0  0
  -31.2618  -21.8602   21.6080 H   0  0  0  0  0  0
  -28.7024  -18.3890   21.8105 H   0  0  0  0  0  0
  -28.6849  -17.8534   20.0858 H   0  0  0  0  0  0
  -30.9408  -17.4386   19.1979 H   0  0  0  0  0  0
  -32.2392  -17.7446   20.4145 H   0  0  0  0  0  0
  -30.7673  -17.0947   22.2839 H   0  0  0  0  0  0
  -25.9788  -23.0450   16.8995 H   0  0  0  0  0  0
  -26.4998  -21.6596   17.8493 H   0  0  0  0  0  0
  -27.6602  -22.5251   16.8384 H   0  0  0  0  0  0
  -28.5379  -25.6484   21.9305 H   0  0  0  0  0  0
  -27.1066  -25.1531   21.1121 H   0  0  0  0  0  0
  -27.3826  -24.5571   18.2503 H   0  0  0  0  0  0
  -26.2410  -23.7133   19.2960 H   0  0  0  0  0  0
  -31.3163  -20.1991   19.2333 H   0  0  0  0  0  0
  -29.7286  -19.6411   18.8105 H   0  0  0  0  0  0
  -29.0045  -15.3087   21.2960 H   0  0  0  0  0  0
  -30.8647  -19.3057   21.5243 H   0  0  0  0  0  0
  1 25  1  0  0  0
  1 30  2  0  0  0
  1 84  1  0  0  0
  2  3  1  0  0  0
  2 25  1  0  0  0
  2 86  1  0  0  0
  2 87  1  0  0  0
  3  4  1  0  0  0
  3 88  1  0  0  0
  3 89  1  0  0  0
  4  5  1  0  0  0
  4 90  1  0  0  0
  4 91  1  0  0  0
  5  6  1  0  0  0
  5 26  1  0  0  0
  5 92  1  0  0  0
  6 25  1  0  0  0
  6 93  1  0  0  0
  6 94  1  0  0  0
  7  8  2  0  0  0
  7 26  1  0  0  0
  7 29  1  0  0  0
  8  9  1  0  0  0
  8 22  1  0  0  0
  9 10  1  0  0  0
  9 27  2  0  0  0
 10 11  2  0  0  0
 10 15  1  0  0  0
 11 12  1  0  0  0
 11 95  1  0  0  0
 12 13  2  0  0  0
 12 96  1  0  0  0
 13 14  1  0  0  0
 13 31  1  0  0  0
 14 15  2  0  0  0
 14 97  1  0  0  0
 15 98  1  0  0  0
 16 17  2  0  0  0
 16 21  1  0  0  0
 16 31  1  0  0  0
 17 18  1  0  0  0
 17 99  1  0  0  0
 18 19  2  0  0  0
 18100  1  0  0  0
 19 20  1  0  0  0
 19 24  1  0  0  0
 20 21  2  0  0  0
 20101  1  0  0  0
 21 23  1  0  0  0
 22 28  1  0  0  0
 22 32  2  0  0  0
 26 27  1  0  0  0
 28102  1  0  0  0
 28103  1  0  0  0
 29104  1  0  0  0
 29105  1  0  0  0
 33 34  1  0  0  0
 33 66  1  0  0  0
 33 70  2  0  0  0
 34 36  1  0  0  0
 34 59  1  0  0  0
 34106  1  0  0  0
 35 44  2  0  0  0
 35 45  1  0  0  0
 35 68  1  0  0  0
 36 56  1  0  0  0
 36107  1  0  0  0
 37 39  1  0  0  0
 37 47  1  0  0  0
 37 66  1  0  0  0
 37108  1  0  0  0
 38 43  2  0  0  0
 38 46  1  0  0  0
 38 47  1  0  0  0
 39 64  1  0  0  0
 39 67  2  0  0  0
 40 52  1  0  0  0
 40 53  2  0  0  0
 40 58  1  0  0  0
 41109  1  0  0  0
 41110  1  0  0  0
 41111  1  0  0  0
 41 48  1  0  0  0
 42 43  1  0  0  0
 42 66  1  0  0  0
 42112  1  0  0  0
 42113  1  0  0  0
 43 44  1  0  0  0
 44114  1  0  0  0
 45 46  2  0  0  0
 45115  1  0  0  0
 46116  1  0  0  0
 47117  1  0  0  0
 47118  1  0  0  0
 48 56  1  0  0  0
 48 65  1  0  0  0
 48119  1  0  0  0
 49 50  1  0  0  0
 49 53  1  0  0  0
 49 64  1  0  0  0
 49120  1  0  0  0
 50 51  1  0  0  0
 50121  1  0  0  0
 50122  1  0  0  0
 51 52  1  0  0  0
 51123  1  0  0  0
 51124  1  0  0  0
 52125  1  0  0  0
 52126  1  0  0  0
 53 54  1  0  0  0
 54 55  2  0  0  0
 54127  1  0  0  0
 55 57  1  0  0  0
 55128  1  0  0  0
 56 69  2  0  0  0
 57 58  2  0  0  0
 57129  1  0  0  0
 58130  1  0  0  0
 59 60  1  0  0  0
 59 61  1  0  0  0
 59 62  1  0  0  0
 60131  1  0  0  0
 60132  1  0  0  0
 60133  1  0  0  0
 61134  1  0  0  0
 61135  1  0  0  0
 61136  1  0  0  0
 62137  1  0  0  0
 62138  1  0  0  0
 62139  1  0  0  0
 63 65  1  0  0  0
 63140  1  0  0  0
 63141  1  0  0  0
 63142  1  0  0  0
 64143  1  0  0  0
 65144  1  0  0  0
 68 80  1  0  0  0
 71 72  2  0  0  0
 71 73  1  0  0  0
 71145  1  0  0  0
 72 74  1  0  0  0
 72146  1  0  0  0
 73 75  2  0  0  0
 73 80  1  0  0  0
 74 82  1  0  0  0
 74 83  2  0  0  0
 75 81  1  0  0  0
 75 83  1  0  0  0
 76 78  1  0  0  0
 76 85  1  0  0  0
 76147  1  0  0  0
 76148  1  0  0  0
 77 78  1  0  0  0
 77 85  1  0  0  0
 77149  1  0  0  0
 77150  1  0  0  0
 78 84  1  0  0  0
 78151  1  0  0  0
 79 81  1  0  0  0
 79152  1  0  0  0
 79153  1  0  0  0
 79154  1  0  0  0
 80155  1  0  0  0
 80156  1  0  0  0
 81157  1  0  0  0
 81158  1  0  0  0
 82159  1  0  0  0
 82160  1  0  0  0
 82 85  1  0  0  0
 84161  1  0  0  0
 85162  1  0  0  0
M  CHG  1  85   1
M  ISO  4   1 100  68 101  80 101  84 100
M  END
> <chiral flag>
0

> <version>
0

> <s_m_source_file>
/data/baiqing/PycharmProjects/Reinvent-master-3.2/result/LINK_invent/BTK/process_docking_weight1_custom_sum_contain_oxygen_bond_distance_aromatic_linkinvent_7_9_3/rearranged_h_0188.sdf

> <i_m_source_file_index>
62

> <r_mmod_Potential_Energy-OPLS-2005>
-305.633972167969

> <r_mmod_Stretch_Energy-OPLS-2005>
50.3564491271973

> <r_mmod_Bend_Energy-OPLS-2005>
143.706954956055

> <r_mmod_Torsional_Energy-OPLS-2005>
268.862487792969

> <r_mmod_Improper_Torsional_Energy-OPLS-2005>
5.10510969161987

> <r_mmod_Van_der_Waal_Energy-OPLS-2005>
152.092758178711

> <r_mmod_Electrostatic_Energy-OPLS-2005>
-474.476837158203

> <r_mmod_Solvation_Energy-OPLS-2005>
-474.6865234375

> <b_mmod_Minimization_Converged-OPLS-2005>
0

> <r_mmod_RMS_Derivative-OPLS-2005>
0.392155021429062

$$$$
63
                    3D
 Structure written by MMmdl.
154163  0  0  1  0            999 V2000
  -30.5849  -14.8128   20.3877 C   0  0  0  0  0  0
  -30.4373  -12.4917   19.4622 C   0  0  0  0  0  0
  -29.5083  -12.4965   18.2288 C   0  0  0  0  0  0
  -28.0373  -12.3109   18.6537 C   0  0  0  0  0  0
  -27.6318  -13.2187   19.8473 C   0  0  2  0  0  0
  -28.6893  -13.2102   20.9698 C   0  0  0  0  0  0
  -25.2518  -13.8157   20.5748 C   0  0  0  0  0  0
  -24.1784  -13.0417   20.9225 C   0  0  0  0  0  0
  -24.6365  -11.6892   20.8778 C   0  0  0  0  0  0
  -23.9039  -10.4285   21.0431 C   0  0  0  0  0  0
  -24.3603   -9.4203   21.9197 C   0  0  0  0  0  0
  -23.6289   -8.2236   22.0761 C   0  0  0  0  0  0
  -22.4267   -8.0279   21.3554 C   0  0  0  0  0  0
  -21.9907   -9.0246   20.4648 C   0  0  0  0  0  0
  -22.7228  -10.2126   20.3069 C   0  0  0  0  0  0
  -21.6845   -6.0741   22.5282 C   0  0  0  0  0  0
  -21.4019   -6.5639   23.8219 C   0  0  0  0  0  0
  -21.3666   -5.6788   24.9177 C   0  0  0  0  0  0
  -21.6044   -4.3051   24.7228 C   0  0  0  0  0  0
  -21.8820   -3.8152   23.4346 C   0  0  0  0  0  0
  -21.9196   -4.6973   22.3406 C   0  0  0  0  0  0
  -22.7811  -13.5230   21.1847 C   0  0  0  0  0  0
  -22.1658   -4.2155   21.0981 F   0  0  0  0  0  0
  -21.5629   -3.4538   25.7744 F   0  0  0  0  0  0
  -29.9701  -13.5768   20.3544 N   0  0  0  0  0  0
  -26.2909  -12.9309   20.3351 N   0  0  0  0  0  0
  -25.9293  -11.6475   20.5808 N   0  0  0  0  0  0
  -22.0434  -12.8251   22.0404 N   0  0  0  0  0  0
  -25.4268  -15.1886   20.4202 N   0  0  0  0  0  0
  -31.8092  -14.8772   20.2339 O   0  0  0  0  0  0
  -21.6627   -6.8882   21.4243 O   0  0  0  0  0  0
  -22.3529  -14.5536   20.6681 O   0  0  0  0  0  0
  -24.6340  -31.8533   23.1942 C   0  0  0  0  0  0
  -25.9150  -32.4753   23.8306 C   0  0  1  0  0  0
  -27.2195  -27.2360   20.1345 C   0  0  0  0  0  0
  -25.5940  -33.8557   24.2239 N   0  0  0  0  0  0
  -23.4323  -30.4741   21.5394 C   0  0  2  0  0  0
  -24.8798  -28.9160   20.1120 C   0  0  0  0  0  0
  -22.7510  -29.4600   22.4913 C   0  0  0  0  0  0
  -18.0293  -28.1381   22.8476 C   0  0  0  0  0  0
  -24.1493  -36.7290   23.2629 C   0  0  0  0  0  0
  -25.9793  -30.7630   21.3718 C   0  0  0  0  0  0
  -26.0542  -29.3809   20.7175 C   0  0  0  0  0  0
  -27.2280  -28.5545   20.7136 C   0  0  0  0  0  0
  -26.0186  -26.8477   19.4988 C   0  0  0  0  0  0
  -24.8686  -27.6587   19.4915 C   0  0  0  0  0  0
  -23.6509  -29.8036   20.1577 C   0  0  0  0  0  0
  -25.4118  -36.3076   24.0321 C   0  0  1  0  0  0
  -20.5896  -28.3700   23.1258 C   0  0  2  0  0  0
  -20.6789  -26.9419   22.5399 C   0  0  0  0  0  0
  -19.5769  -26.6371   21.5204 C   0  0  0  0  0  0
  -18.1946  -26.7921   22.1612 C   0  0  0  0  0  0
  -19.1543  -28.8854   23.2864 C   0  0  0  0  0  0
  -18.9464  -30.1448   23.8895 C   0  0  0  0  0  0
  -17.6467  -30.6587   24.0554 C   0  0  0  0  0  0
  -25.9064  -34.9446   23.5085 C   0  0  0  0  0  0
  -16.5359  -29.9086   23.6323 C   0  0  0  0  0  0
  -16.7280  -28.6497   23.0357 C   0  0  0  0  0  0
  -26.4489  -31.6564   25.0697 C   0  0  0  0  0  0
  -25.3696  -31.3731   26.1402 C   0  0  0  0  0  0
  -27.0292  -30.2971   24.6160 C   0  0  0  0  0  0
  -27.6052  -32.4271   25.7495 C   0  0  0  0  0  0
  -27.5592  -37.1798   24.8454 C   0  0  0  0  0  0
  -21.4211  -29.3045   22.3642 N   0  0  0  0  0  0
  -26.4291  -37.3780   23.9414 N   0  0  0  0  0  0
  -24.7025  -31.0469   22.0932 N   0  0  0  0  0  0
  -23.4184  -28.8153   23.3046 O   0  0  0  0  0  0
  -28.3024  -26.3180   20.1980 O   0  0  0  0  0  0
  -26.5641  -34.8926   22.4659 O   0  0  0  0  0  0
  -23.5486  -32.1363   23.7223 O   0  0  0  0  0  0
  -28.2451  -21.4878   21.3988 C   0  0  0  0  0  0
  -29.5844  -21.1921   19.7464 C   0  0  0  0  0  0
  -28.8408  -17.8412   18.9540 C   0  0  0  0  0  0
  -29.3703  -16.3851   18.9204 C   0  0  0  0  0  0
  -29.9876  -17.3369   20.9534 C   0  0  0  0  0  0
  -29.7527  -18.5617   19.9360 C   0  0  2  0  0  0
  -29.1701  -23.7149   20.4390 C   0  0  0  0  0  0
  -28.0391  -24.8273   20.0803 C   0  0  0  0  0  0
  -28.4191  -20.1918   21.3716 N   0  0  0  0  0  0
  -28.9231  -22.1848   20.4051 N   0  0  0  0  0  0
  -29.2742  -19.9832   20.3298 N   0  0  0  0  0  0
  -29.7993  -15.9755   20.2764 N   0  0  0  0  0  0
  -30.3681  -21.3587   18.8070 O   0  0  0  0  0  0
  -31.4747  -12.6344   19.1530 H   0  0  0  0  0  0
  -30.4056  -11.5283   19.9732 H   0  0  0  0  0  0
  -29.7982  -11.7077   17.5313 H   0  0  0  0  0  0
  -29.6223  -13.4379   17.6876 H   0  0  0  0  0  0
  -27.9064  -11.2634   18.9289 H   0  0  0  0  0  0
  -27.3742  -12.4856   17.8052 H   0  0  0  0  0  0
  -27.5861  -14.2254   19.4522 H   0  0  0  0  0  0
  -28.7516  -12.2280   21.4417 H   0  0  0  0  0  0
  -28.4246  -13.9207   21.7542 H   0  0  0  0  0  0
  -25.2747   -9.5677   22.4770 H   0  0  0  0  0  0
  -24.0002   -7.4622   22.7470 H   0  0  0  0  0  0
  -21.0854   -8.8767   19.8940 H   0  0  0  0  0  0
  -22.3702  -10.9667   19.6180 H   0  0  0  0  0  0
  -21.2006   -7.6144   23.9734 H   0  0  0  0  0  0
  -21.1485   -6.0508   25.9081 H   0  0  0  0  0  0
  -22.0597   -2.7616   23.2841 H   0  0  0  0  0  0
  -22.4027  -11.9917   22.4821 H   0  0  0  0  0  0
  -21.1046  -13.1291   22.2556 H   0  0  0  0  0  0
  -24.6713  -15.8524   20.5477 H   0  0  0  0  0  0
  -26.2980  -15.6272   20.1489 H   0  0  0  0  0  0
  -26.7232  -32.5405   23.1063 H   0  0  0  0  0  0
  -25.0069  -33.9685   25.0373 H   0  0  0  0  0  0
  -22.7315  -31.2974   21.3888 H   0  0  0  0  0  0
  -23.3769  -35.9607   23.3258 H   0  0  0  0  0  0
  -24.3599  -36.8946   22.2052 H   0  0  0  0  0  0
  -23.7221  -37.6472   23.6672 H   0  0  0  0  0  0
  -26.1068  -31.5183   20.5940 H   0  0  0  0  0  0
  -26.8612  -30.8238   21.9983 H   0  0  0  0  0  0
  -28.1281  -28.9046   21.1992 H   0  0  0  0  0  0
  -25.9338  -25.8854   19.0177 H   0  0  0  0  0  0
  -23.9686  -27.2935   19.0156 H   0  0  0  0  0  0
  -23.7761  -30.5751   19.3973 H   0  0  0  0  0  0
  -22.7700  -29.2338   19.8566 H   0  0  0  0  0  0
  -25.1292  -36.1925   25.0812 H   0  0  0  0  0  0
  -20.9987  -28.3285   24.1379 H   0  0  0  0  0  0
  -20.5686  -26.2317   23.3605 H   0  0  0  0  0  0
  -21.6663  -26.7452   22.1197 H   0  0  0  0  0  0
  -19.6941  -25.6272   21.1260 H   0  0  0  0  0  0
  -19.6712  -27.3159   20.6717 H   0  0  0  0  0  0
  -17.4214  -26.6653   21.4017 H   0  0  0  0  0  0
  -18.0360  -26.0065   22.9011 H   0  0  0  0  0  0
  -19.7939  -30.7251   24.2287 H   0  0  0  0  0  0
  -17.5024  -31.6273   24.5139 H   0  0  0  0  0  0
  -15.5360  -30.2994   23.7637 H   0  0  0  0  0  0
  -15.8678  -28.0807   22.7098 H   0  0  0  0  0  0
  -24.5899  -30.7047   25.7728 H   0  0  0  0  0  0
  -24.8850  -32.2902   26.4762 H   0  0  0  0  0  0
  -25.7990  -30.8957   27.0216 H   0  0  0  0  0  0
  -26.2838  -29.6754   24.1184 H   0  0  0  0  0  0
  -27.3956  -29.7201   25.4659 H   0  0  0  0  0  0
  -27.8736  -30.4218   23.9379 H   0  0  0  0  0  0
  -27.2674  -33.3576   26.2062 H   0  0  0  0  0  0
  -28.3891  -32.6803   25.0349 H   0  0  0  0  0  0
  -28.0675  -31.8380   26.5422 H   0  0  0  0  0  0
  -28.2567  -38.0138   24.7558 H   0  0  0  0  0  0
  -28.1124  -36.2670   24.6198 H   0  0  0  0  0  0
  -27.2317  -37.1353   25.8855 H   0  0  0  0  0  0
  -20.9409  -29.8758   21.6829 H   0  0  0  0  0  0
  -26.0165  -38.2844   24.1450 H   0  0  0  0  0  0
  -27.6527  -22.0592   22.1158 H   0  0  0  0  0  0
  -27.8138  -17.8506   19.3270 H   0  0  0  0  0  0
  -28.8375  -18.3024   17.9643 H   0  0  0  0  0  0
  -30.2400  -16.3482   18.2590 H   0  0  0  0  0  0
  -28.6335  -15.7221   18.4773 H   0  0  0  0  0  0
  -29.2639  -17.3994   21.7673 H   0  0  0  0  0  0
  -30.9777  -17.4050   21.4081 H   0  0  0  0  0  0
  -30.7050  -18.7124   19.4223 H   0  0  0  0  0  0
  -29.5418  -23.9419   21.4389 H   0  0  0  0  0  0
  -30.0212  -23.9070   19.7840 H   0  0  0  0  0  0
  -27.1654  -24.6064   20.6955 H   0  0  0  0  0  0
  -27.7381  -24.6322   19.0503 H   0  0  0  0  0  0
  1 25  1  0  0  0
  1 30  2  0  0  0
  1 82  1  0  0  0
  2  3  1  0  0  0
  2 25  1  0  0  0
  2 84  1  0  0  0
  2 85  1  0  0  0
  3  4  1  0  0  0
  3 86  1  0  0  0
  3 87  1  0  0  0
  4  5  1  0  0  0
  4 88  1  0  0  0
  4 89  1  0  0  0
  5  6  1  0  0  0
  5 26  1  0  0  0
  5 90  1  0  0  0
  6 25  1  0  0  0
  6 91  1  0  0  0
  6 92  1  0  0  0
  7  8  2  0  0  0
  7 26  1  0  0  0
  7 29  1  0  0  0
  8  9  1  0  0  0
  8 22  1  0  0  0
  9 10  1  0  0  0
  9 27  2  0  0  0
 10 11  2  0  0  0
 10 15  1  0  0  0
 11 12  1  0  0  0
 11 93  1  0  0  0
 12 13  2  0  0  0
 12 94  1  0  0  0
 13 14  1  0  0  0
 13 31  1  0  0  0
 14 15  2  0  0  0
 14 95  1  0  0  0
 15 96  1  0  0  0
 16 17  2  0  0  0
 16 21  1  0  0  0
 16 31  1  0  0  0
 17 18  1  0  0  0
 17 97  1  0  0  0
 18 19  2  0  0  0
 18 98  1  0  0  0
 19 20  1  0  0  0
 19 24  1  0  0  0
 20 21  2  0  0  0
 20 99  1  0  0  0
 21 23  1  0  0  0
 22 28  1  0  0  0
 22 32  2  0  0  0
 26 27  1  0  0  0
 28100  1  0  0  0
 28101  1  0  0  0
 29102  1  0  0  0
 29103  1  0  0  0
 33 34  1  0  0  0
 33 66  1  0  0  0
 33 70  2  0  0  0
 34 36  1  0  0  0
 34 59  1  0  0  0
 34104  1  0  0  0
 35 44  2  0  0  0
 35 45  1  0  0  0
 35 68  1  0  0  0
 36 56  1  0  0  0
 36105  1  0  0  0
 37 39  1  0  0  0
 37 47  1  0  0  0
 37 66  1  0  0  0
 37106  1  0  0  0
 38 43  2  0  0  0
 38 46  1  0  0  0
 38 47  1  0  0  0
 39 64  1  0  0  0
 39 67  2  0  0  0
 40 52  1  0  0  0
 40 53  2  0  0  0
 40 58  1  0  0  0
 41107  1  0  0  0
 41108  1  0  0  0
 41109  1  0  0  0
 41 48  1  0  0  0
 42 43  1  0  0  0
 42 66  1  0  0  0
 42110  1  0  0  0
 42111  1  0  0  0
 43 44  1  0  0  0
 44112  1  0  0  0
 45 46  2  0  0  0
 45113  1  0  0  0
 46114  1  0  0  0
 47115  1  0  0  0
 47116  1  0  0  0
 48 56  1  0  0  0
 48 65  1  0  0  0
 48117  1  0  0  0
 49 50  1  0  0  0
 49 53  1  0  0  0
 49 64  1  0  0  0
 49118  1  0  0  0
 50 51  1  0  0  0
 50119  1  0  0  0
 50120  1  0  0  0
 51 52  1  0  0  0
 51121  1  0  0  0
 51122  1  0  0  0
 52123  1  0  0  0
 52124  1  0  0  0
 53 54  1  0  0  0
 54 55  2  0  0  0
 54125  1  0  0  0
 55 57  1  0  0  0
 55126  1  0  0  0
 56 69  2  0  0  0
 57 58  2  0  0  0
 57127  1  0  0  0
 58128  1  0  0  0
 59 60  1  0  0  0
 59 61  1  0  0  0
 59 62  1  0  0  0
 60129  1  0  0  0
 60130  1  0  0  0
 60131  1  0  0  0
 61132  1  0  0  0
 61133  1  0  0  0
 61134  1  0  0  0
 62135  1  0  0  0
 62136  1  0  0  0
 62137  1  0  0  0
 63 65  1  0  0  0
 63138  1  0  0  0
 63139  1  0  0  0
 63140  1  0  0  0
 64141  1  0  0  0
 65142  1  0  0  0
 68 78  1  0  0  0
 71 79  2  0  0  0
 71 80  1  0  0  0
 71143  1  0  0  0
 72 80  1  0  0  0
 72 81  1  0  0  0
 72 83  2  0  0  0
 73 74  1  0  0  0
 73 76  1  0  0  0
 73144  1  0  0  0
 73145  1  0  0  0
 74 82  1  0  0  0
 74146  1  0  0  0
 74147  1  0  0  0
 75 76  1  0  0  0
 75 82  1  0  0  0
 75148  1  0  0  0
 75149  1  0  0  0
 76 81  1  0  0  0
 76150  1  0  0  0
 77 78  1  0  0  0
 77 80  1  0  0  0
 77151  1  0  0  0
 77152  1  0  0  0
 78153  1  0  0  0
 78154  1  0  0  0
 79 81  1  0  0  0
M  ISO  4   1 100  68 101  78 101  82 100
M  END
> <chiral flag>
0

> <version>
0

> <s_m_source_file>
/data/baiqing/PycharmProjects/Reinvent-master-3.2/result/LINK_invent/BTK/process_docking_weight1_custom_sum_contain_oxygen_bond_distance_aromatic_linkinvent_7_9_3/rearranged_h_0188.sdf

> <i_m_source_file_index>
63

> <r_mmod_Potential_Energy-OPLS-2005>
461.582336425781

> <r_mmod_Stretch_Energy-OPLS-2005>
138.68896484375

> <r_mmod_Bend_Energy-OPLS-2005>
265.031066894531

> <r_mmod_Torsional_Energy-OPLS-2005>
373.141937255859

> <r_mmod_Improper_Torsional_Energy-OPLS-2005>
12.5829849243164

> <r_mmod_Van_der_Waal_Energy-OPLS-2005>
108.292617797852

> <r_mmod_Electrostatic_Energy-OPLS-2005>
-329.780670166016

> <r_mmod_Solvation_Energy-OPLS-2005>
-222.661239624023

> <b_mmod_Minimization_Converged-OPLS-2005>
0

> <r_mmod_RMS_Derivative-OPLS-2005>
1.93895101547241

$$$$
64
                    3D
 Structure written by MMmdl.
159168  0  0  1  0            999 V2000
  -30.5170  -15.1791   20.3756 C   0  0  0  0  0  0
  -30.4223  -12.7572   19.5059 C   0  0  0  0  0  0
  -29.5185  -12.5529   18.2688 C   0  0  0  0  0  0
  -28.0671  -12.2927   18.7044 C   0  0  0  0  0  0
  -27.6065  -13.2705   19.8147 C   0  0  2  0  0  0
  -28.6450  -13.4461   20.9425 C   0  0  0  0  0  0
  -25.2388  -13.8242   20.5748 C   0  0  0  0  0  0
  -24.1734  -13.0433   20.9249 C   0  0  0  0  0  0
  -24.6384  -11.6933   20.8766 C   0  0  0  0  0  0
  -23.9079  -10.4295   21.0406 C   0  0  0  0  0  0
  -24.3630   -9.4214   21.9183 C   0  0  0  0  0  0
  -23.6305   -8.2247   22.0749 C   0  0  0  0  0  0
  -22.4286   -8.0284   21.3539 C   0  0  0  0  0  0
  -21.9920   -9.0257   20.4636 C   0  0  0  0  0  0
  -22.7248  -10.2135   20.3050 C   0  0  0  0  0  0
  -21.6854   -6.0741   22.5280 C   0  0  0  0  0  0
  -21.4014   -6.5646   23.8214 C   0  0  0  0  0  0
  -21.3657   -5.6794   24.9173 C   0  0  0  0  0  0
  -21.6043   -4.3059   24.7224 C   0  0  0  0  0  0
  -21.8816   -3.8152   23.4344 C   0  0  0  0  0  0
  -21.9191   -4.6971   22.3402 C   0  0  0  0  0  0
  -22.7755  -13.5191   21.1900 C   0  0  0  0  0  0
  -22.1666   -4.2158   21.0979 F   0  0  0  0  0  0
  -21.5629   -3.4539   25.7734 F   0  0  0  0  0  0
  -29.8800  -13.9168   20.2995 N   0  0  0  0  0  0
  -26.2798  -12.9506   20.3215 N   0  0  0  0  0  0
  -25.9320  -11.6618   20.5738 N   0  0  0  0  0  0
  -22.0418  -12.8163   22.0450 N   0  0  0  0  0  0
  -25.4051  -15.1970   20.4188 N   0  0  0  0  0  0
  -31.7466  -15.0992   20.2379 O   0  0  0  0  0  0
  -21.6645   -6.8887   21.4243 O   0  0  0  0  0  0
  -22.3435  -14.5500   20.6749 O   0  0  0  0  0  0
  -24.6572  -31.8290   23.1747 C   0  0  0  0  0  0
  -25.9278  -32.4614   23.8193 C   0  0  1  0  0  0
  -27.2114  -26.9804   20.1747 C   0  0  0  0  0  0
  -25.5965  -33.8427   24.2103 N   0  0  0  0  0  0
  -23.4686  -30.4431   21.5230 C   0  0  2  0  0  0
  -24.9185  -28.8388   20.1115 C   0  0  0  0  0  0
  -22.7636  -29.4473   22.4801 C   0  0  0  0  0  0
  -18.0318  -28.1404   22.8469 C   0  0  0  0  0  0
  -24.1495  -36.7219   23.2645 C   0  0  0  0  0  0
  -26.0340  -30.6519   21.3969 C   0  0  0  0  0  0
  -26.1013  -29.2475   20.7398 C   0  0  0  0  0  0
  -27.2441  -28.3381   20.7475 C   0  0  0  0  0  0
  -26.0004  -26.7092   19.5013 C   0  0  0  0  0  0
  -24.8907  -27.5890   19.4728 C   0  0  0  0  0  0
  -23.7040  -29.7620   20.1475 C   0  0  0  0  0  0
  -25.4132  -36.2984   24.0305 C   0  0  1  0  0  0
  -20.5937  -28.3746   23.1203 C   0  0  2  0  0  0
  -20.6796  -26.9434   22.5404 C   0  0  0  0  0  0
  -19.5772  -26.6380   21.5211 C   0  0  0  0  0  0
  -18.1954  -26.7937   22.1621 C   0  0  0  0  0  0
  -19.1576  -28.8893   23.2825 C   0  0  0  0  0  0
  -18.9489  -30.1482   23.8864 C   0  0  0  0  0  0
  -17.6483  -30.6596   24.0555 C   0  0  0  0  0  0
  -25.9092  -34.9364   23.5024 C   0  0  0  0  0  0
  -16.5375  -29.9086   23.6340 C   0  0  0  0  0  0
  -16.7300  -28.6503   23.0363 C   0  0  0  0  0  0
  -26.4550  -31.6543   25.0700 C   0  0  0  0  0  0
  -25.3693  -31.3778   26.1368 C   0  0  0  0  0  0
  -27.0443  -30.2919   24.6398 C   0  0  0  0  0  0
  -27.6050  -32.4345   25.7495 C   0  0  0  0  0  0
  -27.5577  -37.1769   24.8467 C   0  0  0  0  0  0
  -21.4310  -29.3045   22.3550 N   0  0  0  0  0  0
  -26.4284  -37.3713   23.9407 N   0  0  0  0  0  0
  -24.7408  -31.0008   22.0852 N   0  0  0  0  0  0
  -23.4208  -28.8043   23.3026 O   0  0  0  0  0  0
  -28.2342  -25.9159   20.2497 O   0  0  0  0  0  0
  -26.5704  -34.8889   22.4621 O   0  0  0  0  0  0
  -23.5662  -32.1233   23.6882 O   0  0  0  0  0  0
  -29.1408  -23.0257   19.9269 C   0  0  0  0  0  0
  -27.1717  -23.5324   21.1305 C   0  0  0  0  0  0
  -28.6646  -17.1695   19.8937 C   0  0  0  0  0  0
  -30.6458  -17.7926   20.9364 C   0  0  0  0  0  0
  -28.6093  -18.7757   19.4053 C   0  0  0  0  0  0
  -29.8633  -19.2186   21.2852 C   0  0  0  0  0  0
  -28.4998  -21.4763   20.1293 C   0  0  2  0  0  0
  -27.5549  -21.9669   21.2758 C   0  0  2  0  0  0
  -28.0372  -24.3054   20.0758 C   0  0  1  0  0  0
  -29.9045  -16.5211   20.5020 N   0  0  0  0  0  0
  -29.1516  -19.9708   20.1875 N   0  0  0  0  0  0
  -26.3698  -21.1006   21.3865 N   0  3  0  0  0  0
  -30.4600  -11.8521   20.1144 H   0  0  0  0  0  0
  -31.4479  -12.9300   19.1753 H   0  0  0  0  0  0
  -29.8841  -11.7238   17.6608 H   0  0  0  0  0  0
  -29.5580  -13.4411   17.6360 H   0  0  0  0  0  0
  -28.0159  -11.2692   19.0777 H   0  0  0  0  0  0
  -27.3949  -12.3392   17.8461 H   0  0  0  0  0  0
  -27.5199  -14.2357   19.3160 H   0  0  0  0  0  0
  -28.7994  -12.5183   21.4947 H   0  0  0  0  0  0
  -28.3015  -14.1894   21.6644 H   0  0  0  0  0  0
  -25.2774   -9.5700   22.4759 H   0  0  0  0  0  0
  -24.0013   -7.4639   22.7471 H   0  0  0  0  0  0
  -21.0845   -8.8775   19.8945 H   0  0  0  0  0  0
  -22.3701  -10.9677   19.6162 H   0  0  0  0  0  0
  -21.2011   -7.6153   23.9720 H   0  0  0  0  0  0
  -21.1477   -6.0525   25.9075 H   0  0  0  0  0  0
  -22.0595   -2.7616   23.2839 H   0  0  0  0  0  0
  -22.4057  -11.9826   22.4830 H   0  0  0  0  0  0
  -21.1034  -13.1174   22.2667 H   0  0  0  0  0  0
  -24.6385  -15.8505   20.5366 H   0  0  0  0  0  0
  -26.2545  -15.6364   20.0915 H   0  0  0  0  0  0
  -26.7341  -32.5168   23.0907 H   0  0  0  0  0  0
  -25.0048  -33.9513   25.0209 H   0  0  0  0  0  0
  -22.7786  -31.2732   21.3574 H   0  0  0  0  0  0
  -23.3771  -35.9538   23.3277 H   0  0  0  0  0  0
  -24.3577  -36.8888   22.2067 H   0  0  0  0  0  0
  -23.7240  -37.6395   23.6713 H   0  0  0  0  0  0
  -26.2097  -31.3976   20.6209 H   0  0  0  0  0  0
  -26.8954  -30.7047   22.0506 H   0  0  0  0  0  0
  -28.1416  -28.6481   21.2641 H   0  0  0  0  0  0
  -25.8771  -25.7561   19.0110 H   0  0  0  0  0  0
  -23.9910  -27.2708   18.9640 H   0  0  0  0  0  0
  -23.8560  -30.5314   19.3896 H   0  0  0  0  0  0
  -22.8142  -29.2149   19.8309 H   0  0  0  0  0  0
  -25.1328  -36.1789   25.0798 H   0  0  0  0  0  0
  -21.0025  -28.3350   24.1325 H   0  0  0  0  0  0
  -20.5673  -26.2367   23.3635 H   0  0  0  0  0  0
  -21.6662  -26.7415   22.1214 H   0  0  0  0  0  0
  -19.6931  -25.6283   21.1262 H   0  0  0  0  0  0
  -19.6709  -27.3169   20.6721 H   0  0  0  0  0  0
  -17.4221  -26.6686   21.4023 H   0  0  0  0  0  0
  -18.0348  -26.0085   22.9021 H   0  0  0  0  0  0
  -19.7966  -30.7305   24.2222 H   0  0  0  0  0  0
  -17.5038  -31.6271   24.5167 H   0  0  0  0  0  0
  -15.5374  -30.2979   23.7681 H   0  0  0  0  0  0
  -15.8698  -28.0807   22.7104 H   0  0  0  0  0  0
  -24.5886  -30.7112   25.7688 H   0  0  0  0  0  0
  -24.8868  -32.2973   26.4694 H   0  0  0  0  0  0
  -25.7942  -30.9017   27.0213 H   0  0  0  0  0  0
  -26.3095  -29.6597   24.1403 H   0  0  0  0  0  0
  -27.3995  -29.7282   25.5038 H   0  0  0  0  0  0
  -27.9029  -30.4121   23.9786 H   0  0  0  0  0  0
  -27.2621  -33.3683   26.1968 H   0  0  0  0  0  0
  -28.3912  -32.6851   25.0358 H   0  0  0  0  0  0
  -28.0660  -31.8538   26.5498 H   0  0  0  0  0  0
  -28.2577  -38.0081   24.7508 H   0  0  0  0  0  0
  -28.1089  -36.2606   24.6296 H   0  0  0  0  0  0
  -27.2292  -37.1412   25.8869 H   0  0  0  0  0  0
  -20.9552  -29.8742   21.6691 H   0  0  0  0  0  0
  -26.0140  -38.2776   24.1408 H   0  0  0  0  0  0
  -29.6513  -23.0937   18.9661 H   0  0  0  0  0  0
  -29.9180  -23.1680   20.6790 H   0  0  0  0  0  0
  -27.2881  -24.0091   22.1037 H   0  0  0  0  0  0
  -26.1192  -23.6544   20.8717 H   0  0  0  0  0  0
  -27.8696  -17.0189   20.6241 H   0  0  0  0  0  0
  -28.3762  -16.5568   19.0383 H   0  0  0  0  0  0
  -31.2126  -17.5156   21.8268 H   0  0  0  0  0  0
  -31.4037  -17.9973   20.1784 H   0  0  0  0  0  0
  -27.5686  -18.9958   19.1644 H   0  0  0  0  0  0
  -29.1168  -18.8215   18.4401 H   0  0  0  0  0  0
  -30.5893  -19.9050   21.7243 H   0  0  0  0  0  0
  -29.1420  -19.0216   22.0799 H   0  0  0  0  0  0
  -27.8728  -21.3901   19.2401 H   0  0  0  0  0  0
  -28.1102  -21.8636   22.2095 H   0  0  0  0  0  0
  -27.4906  -24.2429   19.1352 H   0  0  0  0  0  0
  -26.6751  -20.1505   21.5022 H   0  0  0  0  0  0
  -25.7973  -21.1512   20.5633 H   0  0  0  0  0  0
  -25.8164  -21.3513   22.1861 H   0  0  0  0  0  0
  1 25  1  0  0  0
  1 30  2  0  0  0
  1 80  1  0  0  0
  2  3  1  0  0  0
  2 25  1  0  0  0
  2 83  1  0  0  0
  2 84  1  0  0  0
  3  4  1  0  0  0
  3 85  1  0  0  0
  3 86  1  0  0  0
  4  5  1  0  0  0
  4 87  1  0  0  0
  4 88  1  0  0  0
  5  6  1  0  0  0
  5 26  1  0  0  0
  5 89  1  0  0  0
  6 25  1  0  0  0
  6 90  1  0  0  0
  6 91  1  0  0  0
  7  8  2  0  0  0
  7 26  1  0  0  0
  7 29  1  0  0  0
  8  9  1  0  0  0
  8 22  1  0  0  0
  9 10  1  0  0  0
  9 27  2  0  0  0
 10 11  2  0  0  0
 10 15  1  0  0  0
 11 12  1  0  0  0
 11 92  1  0  0  0
 12 13  2  0  0  0
 12 93  1  0  0  0
 13 14  1  0  0  0
 13 31  1  0  0  0
 14 15  2  0  0  0
 14 94  1  0  0  0
 15 95  1  0  0  0
 16 17  2  0  0  0
 16 21  1  0  0  0
 16 31  1  0  0  0
 17 18  1  0  0  0
 17 96  1  0  0  0
 18 19  2  0  0  0
 18 97  1  0  0  0
 19 20  1  0  0  0
 19 24  1  0  0  0
 20 21  2  0  0  0
 20 98  1  0  0  0
 21 23  1  0  0  0
 22 28  1  0  0  0
 22 32  2  0  0  0
 26 27  1  0  0  0
 28 99  1  0  0  0
 28100  1  0  0  0
 29101  1  0  0  0
 29102  1  0  0  0
 33 34  1  0  0  0
 33 66  1  0  0  0
 33 70  2  0  0  0
 34 36  1  0  0  0
 34 59  1  0  0  0
 34103  1  0  0  0
 35 44  2  0  0  0
 35 45  1  0  0  0
 35 68  1  0  0  0
 36 56  1  0  0  0
 36104  1  0  0  0
 37 39  1  0  0  0
 37 47  1  0  0  0
 37 66  1  0  0  0
 37105  1  0  0  0
 38 43  2  0  0  0
 38 46  1  0  0  0
 38 47  1  0  0  0
 39 64  1  0  0  0
 39 67  2  0  0  0
 40 52  1  0  0  0
 40 53  2  0  0  0
 40 58  1  0  0  0
 41106  1  0  0  0
 41107  1  0  0  0
 41108  1  0  0  0
 41 48  1  0  0  0
 42 43  1  0  0  0
 42 66  1  0  0  0
 42109  1  0  0  0
 42110  1  0  0  0
 43 44  1  0  0  0
 44111  1  0  0  0
 45 46  2  0  0  0
 45112  1  0  0  0
 46113  1  0  0  0
 47114  1  0  0  0
 47115  1  0  0  0
 48 56  1  0  0  0
 48 65  1  0  0  0
 48116  1  0  0  0
 49 50  1  0  0  0
 49 53  1  0  0  0
 49 64  1  0  0  0
 49117  1  0  0  0
 50 51  1  0  0  0
 50118  1  0  0  0
 50119  1  0  0  0
 51 52  1  0  0  0
 51120  1  0  0  0
 51121  1  0  0  0
 52122  1  0  0  0
 52123  1  0  0  0
 53 54  1  0  0  0
 54 55  2  0  0  0
 54124  1  0  0  0
 55 57  1  0  0  0
 55125  1  0  0  0
 56 69  2  0  0  0
 57 58  2  0  0  0
 57126  1  0  0  0
 58127  1  0  0  0
 59 60  1  0  0  0
 59 61  1  0  0  0
 59 62  1  0  0  0
 60128  1  0  0  0
 60129  1  0  0  0
 60130  1  0  0  0
 61131  1  0  0  0
 61132  1  0  0  0
 61133  1  0  0  0
 62134  1  0  0  0
 62135  1  0  0  0
 62136  1  0  0  0
 63 65  1  0  0  0
 63137  1  0  0  0
 63138  1  0  0  0
 63139  1  0  0  0
 64140  1  0  0  0
 65141  1  0  0  0
 68 79  1  0  0  0
 71 77  1  0  0  0
 71 79  1  0  0  0
 71142  1  0  0  0
 71143  1  0  0  0
 72 78  1  0  0  0
 72 79  1  0  0  0
 72144  1  0  0  0
 72145  1  0  0  0
 73 75  1  0  0  0
 73 80  1  0  0  0
 73146  1  0  0  0
 73147  1  0  0  0
 74 76  1  0  0  0
 74 80  1  0  0  0
 74148  1  0  0  0
 74149  1  0  0  0
 75150  1  0  0  0
 75151  1  0  0  0
 75 81  1  0  0  0
 76 81  1  0  0  0
 76152  1  0  0  0
 76153  1  0  0  0
 77 78  1  0  0  0
 77 81  1  0  0  0
 77154  1  0  0  0
 78 82  1  0  0  0
 78155  1  0  0  0
 79156  1  0  0  0
 82157  1  0  0  0
 82158  1  0  0  0
 82159  1  0  0  0
M  CHG  1  82   1
M  ISO  4   1 100  68 101  79 101  80 100
M  END
> <chiral flag>
0

> <version>
0

> <s_m_source_file>
/data/baiqing/PycharmProjects/Reinvent-master-3.2/result/LINK_invent/BTK/process_docking_weight1_custom_sum_contain_oxygen_bond_distance_aromatic_linkinvent_7_9_3/rearranged_h_0188.sdf

> <i_m_source_file_index>
64

> <r_mmod_Potential_Energy-OPLS-2005>
1035.66943359375

> <r_mmod_Stretch_Energy-OPLS-2005>
416.691284179688

> <r_mmod_Bend_Energy-OPLS-2005>
515.459533691406

> <r_mmod_Torsional_Energy-OPLS-2005>
401.582946777344

> <r_mmod_Improper_Torsional_Energy-OPLS-2005>
3.12461805343628

> <r_mmod_Van_der_Waal_Energy-OPLS-2005>
113.594589233398

> <r_mmod_Electrostatic_Energy-OPLS-2005>
-280.023468017578

> <r_mmod_Solvation_Energy-OPLS-2005>
-510.412445068359

> <b_mmod_Minimization_Converged-OPLS-2005>
0

> <r_mmod_RMS_Derivative-OPLS-2005>
1.09257245063782

$$$$
65
                    3D
 Structure written by MMmdl.
150159  0  0  1  0            999 V2000
  -30.3604  -15.4325   20.3194 C   0  0  0  0  0  0
  -30.4415  -12.9256   19.5285 C   0  0  0  0  0  0
  -29.5450  -12.5954   18.3038 C   0  0  0  0  0  0
  -28.1051  -12.2839   18.7448 C   0  0  0  0  0  0
  -27.6058  -13.2811   19.8166 C   0  0  2  0  0  0
  -28.6336  -13.5346   20.9408 C   0  0  0  0  0  0
  -25.2396  -13.8248   20.5786 C   0  0  0  0  0  0
  -24.1738  -13.0435   20.9252 C   0  0  0  0  0  0
  -24.6395  -11.6933   20.8751 C   0  0  0  0  0  0
  -23.9091  -10.4290   21.0401 C   0  0  0  0  0  0
  -24.3638   -9.4209   21.9180 C   0  0  0  0  0  0
  -23.6309   -8.2244   22.0753 C   0  0  0  0  0  0
  -22.4290   -8.0278   21.3544 C   0  0  0  0  0  0
  -21.9925   -9.0254   20.4646 C   0  0  0  0  0  0
  -22.7259  -10.2131   20.3055 C   0  0  0  0  0  0
  -21.6858   -6.0737   22.5282 C   0  0  0  0  0  0
  -21.4014   -6.5644   23.8212 C   0  0  0  0  0  0
  -21.3656   -5.6796   24.9177 C   0  0  0  0  0  0
  -21.6044   -4.3059   24.7229 C   0  0  0  0  0  0
  -21.8817   -3.8153   23.4352 C   0  0  0  0  0  0
  -21.9195   -4.6965   22.3408 C   0  0  0  0  0  0
  -22.7756  -13.5189   21.1901 C   0  0  0  0  0  0
  -22.1667   -4.2146   21.0985 F   0  0  0  0  0  0
  -21.5623   -3.4547   25.7745 F   0  0  0  0  0  0
  -29.8410  -14.0874   20.2971 N   0  0  0  0  0  0
  -26.2812  -12.9522   20.3239 N   0  0  0  0  0  0
  -25.9338  -11.6622   20.5709 N   0  0  0  0  0  0
  -22.0419  -12.8161   22.0455 N   0  0  0  0  0  0
  -25.4091  -15.1980   20.4288 N   0  0  0  0  0  0
  -31.5968  -15.4279   20.1903 O   0  0  0  0  0  0
  -21.6651   -6.8879   21.4244 O   0  0  0  0  0  0
  -22.3439  -14.5495   20.6748 O   0  0  0  0  0  0
  -24.6735  -31.8146   23.1610 C   0  0  0  0  0  0
  -25.9375  -32.4537   23.8122 C   0  0  1  0  0  0
  -27.2253  -26.8255   20.1967 C   0  0  0  0  0  0
  -25.6016  -33.8354   24.2038 N   0  0  0  0  0  0
  -23.4935  -30.4211   21.5124 C   0  0  2  0  0  0
  -24.9500  -28.7888   20.1130 C   0  0  0  0  0  0
  -22.7725  -29.4392   22.4745 C   0  0  0  0  0  0
  -18.0335  -28.1419   22.8468 C   0  0  0  0  0  0
  -24.1496  -36.7164   23.2650 C   0  0  0  0  0  0
  -26.0684  -30.5872   21.4072 C   0  0  0  0  0  0
  -26.1365  -29.1654   20.7542 C   0  0  0  0  0  0
  -27.2632  -28.2075   20.7693 C   0  0  0  0  0  0
  -26.0085  -26.6313   19.4991 C   0  0  0  0  0  0
  -24.9179  -27.5438   19.4641 C   0  0  0  0  0  0
  -23.7408  -29.7293   20.1423 C   0  0  0  0  0  0
  -25.4144  -36.2932   24.0298 C   0  0  1  0  0  0
  -20.5972  -28.3771   23.1168 C   0  0  2  0  0  0
  -20.6814  -26.9444   22.5414 C   0  0  0  0  0  0
  -19.5788  -26.6384   21.5224 C   0  0  0  0  0  0
  -18.1961  -26.7951   22.1620 C   0  0  0  0  0  0
  -19.1603  -28.8914   23.2803 C   0  0  0  0  0  0
  -18.9507  -30.1498   23.8853 C   0  0  0  0  0  0
  -17.6498  -30.6605   24.0552 C   0  0  0  0  0  0
  -25.9122  -34.9323   23.4990 C   0  0  0  0  0  0
  -16.5386  -29.9093   23.6346 C   0  0  0  0  0  0
  -16.7315  -28.6508   23.0378 C   0  0  0  0  0  0
  -26.4591  -31.6509   25.0682 C   0  0  0  0  0  0
  -25.3690  -31.3785   26.1315 C   0  0  0  0  0  0
  -27.0494  -30.2860   24.6475 C   0  0  0  0  0  0
  -27.6071  -32.4332   25.7482 C   0  0  0  0  0  0
  -27.5568  -37.1743   24.8469 C   0  0  0  0  0  0
  -21.4385  -29.3040   22.3499 N   0  0  0  0  0  0
  -26.4272  -37.3687   23.9411 N   0  0  0  0  0  0
  -24.7672  -30.9716   22.0797 N   0  0  0  0  0  0
  -23.4236  -28.7992   23.3041 O   0  0  0  0  0  0
  -28.2013  -25.6595   20.2812 O   0  0  0  0  0  0
  -26.5724  -34.8878   22.4587 O   0  0  0  0  0  0
  -23.5786  -32.1163   23.6649 O   0  0  0  0  0  0
  -29.9701  -20.9822   21.1786 C   0  0  0  0  0  0
  -29.1776  -20.1410   20.2950 C   0  0  0  0  0  0
  -29.0735  -16.6272   18.7329 C   0  0  0  0  0  0
  -29.1361  -18.3850   19.8567 C   0  0  1  0  0  0
  -29.6902  -18.0195   18.5058 C   0  0  2  0  0  0
  -27.8267  -24.0564   20.0405 C   0  0  0  0  0  0
  -29.6895  -22.3152   21.1960 N   0  0  0  0  0  0
  -28.3811  -21.1860   19.7769 N   0  0  0  0  0  0
  -28.6773  -22.5635   20.2933 N   0  0  0  0  0  0
  -29.5170  -16.6955   20.1617 N   0  0  0  0  0  0
  -29.1809  -18.7950   17.3544 N   0  3  0  0  0  0
  -31.4447  -13.1705   19.1773 H   0  0  0  0  0  0
  -30.5623  -12.0517   20.1713 H   0  0  0  0  0  0
  -29.9565  -11.7540   17.7453 H   0  0  0  0  0  0
  -29.5398  -13.4427   17.6183 H   0  0  0  0  0  0
  -28.0987  -11.2747   19.1596 H   0  0  0  0  0  0
  -27.4326  -12.2665   17.8861 H   0  0  0  0  0  0
  -27.4928  -14.2226   19.2794 H   0  0  0  0  0  0
  -28.8409  -12.6296   21.5141 H   0  0  0  0  0  0
  -28.2403  -14.2697   21.6448 H   0  0  0  0  0  0
  -25.2777   -9.5692   22.4764 H   0  0  0  0  0  0
  -24.0013   -7.4639   22.7482 H   0  0  0  0  0  0
  -21.0849   -8.8783   19.8959 H   0  0  0  0  0  0
  -22.3713  -10.9674   19.6172 H   0  0  0  0  0  0
  -21.2010   -7.6153   23.9713 H   0  0  0  0  0  0
  -21.1472   -6.0531   25.9075 H   0  0  0  0  0  0
  -22.0597   -2.7612   23.2860 H   0  0  0  0  0  0
  -22.4051  -11.9826   22.4831 H   0  0  0  0  0  0
  -21.1033  -13.1165   22.2670 H   0  0  0  0  0  0
  -24.6526  -15.8584   20.5686 H   0  0  0  0  0  0
  -26.2806  -15.6418   20.1713 H   0  0  0  0  0  0
  -26.7445  -32.5047   23.0837 H   0  0  0  0  0  0
  -25.0144  -33.9411   25.0172 H   0  0  0  0  0  0
  -22.8114  -31.2546   21.3330 H   0  0  0  0  0  0
  -23.3773  -35.9474   23.3285 H   0  0  0  0  0  0
  -24.3580  -36.8842   22.2069 H   0  0  0  0  0  0
  -23.7230  -37.6340   23.6715 H   0  0  0  0  0  0
  -26.2625  -31.3218   20.6247 H   0  0  0  0  0  0
  -26.9229  -30.6502   22.0692 H   0  0  0  0  0  0
  -28.1566  -28.4961   21.3049 H   0  0  0  0  0  0
  -25.8565  -25.6870   18.9980 H   0  0  0  0  0  0
  -24.0204  -27.2465   18.9395 H   0  0  0  0  0  0
  -23.9065  -30.4943   19.3828 H   0  0  0  0  0  0
  -22.8479  -29.1919   19.8198 H   0  0  0  0  0  0
  -25.1347  -36.1715   25.0784 H   0  0  0  0  0  0
  -21.0053  -28.3384   24.1295 H   0  0  0  0  0  0
  -20.5686  -26.2397   23.3671 H   0  0  0  0  0  0
  -21.6673  -26.7416   22.1222 H   0  0  0  0  0  0
  -19.6946  -25.6284   21.1284 H   0  0  0  0  0  0
  -19.6719  -27.3168   20.6729 H   0  0  0  0  0  0
  -17.4245  -26.6718   21.4004 H   0  0  0  0  0  0
  -18.0325  -26.0104   22.9021 H   0  0  0  0  0  0
  -19.7981  -30.7323   24.2208 H   0  0  0  0  0  0
  -17.5050  -31.6276   24.5174 H   0  0  0  0  0  0
  -15.5387  -30.2983   23.7686 H   0  0  0  0  0  0
  -15.8719  -28.0798   22.7140 H   0  0  0  0  0  0
  -24.5925  -30.7074   25.7629 H   0  0  0  0  0  0
  -24.8813  -32.2986   26.4538 H   0  0  0  0  0  0
  -25.7913  -30.9110   27.0217 H   0  0  0  0  0  0
  -26.3183  -29.6515   24.1455 H   0  0  0  0  0  0
  -27.3970  -29.7250   25.5157 H   0  0  0  0  0  0
  -27.9154  -30.4025   23.9956 H   0  0  0  0  0  0
  -27.2649  -33.3706   26.1874 H   0  0  0  0  0  0
  -28.3974  -32.6772   25.0369 H   0  0  0  0  0  0
  -28.0627  -31.8574   26.5548 H   0  0  0  0  0  0
  -28.2566  -38.0058   24.7531 H   0  0  0  0  0  0
  -28.1091  -36.2589   24.6281 H   0  0  0  0  0  0
  -27.2298  -37.1372   25.8876 H   0  0  0  0  0  0
  -20.9665  -29.8706   21.6592 H   0  0  0  0  0  0
  -26.0114  -38.2740   24.1423 H   0  0  0  0  0  0
  -30.7640  -20.6178   21.8163 H   0  0  0  0  0  0
  -29.5472  -15.8851   18.0826 H   0  0  0  0  0  0
  -27.9900  -16.5630   18.6005 H   0  0  0  0  0  0
  -28.0412  -18.3603   19.8235 H   0  0  0  0  0  0
  -30.7830  -18.0080   18.5039 H   0  0  0  0  0  0
  -26.8965  -23.9220   20.5910 H   0  0  0  0  0  0
  -27.5432  -24.0119   18.9898 H   0  0  0  0  0  0
  -28.1799  -18.8752   17.3627 H   0  0  0  0  0  0
  -29.4568  -18.3726   16.4866 H   0  0  0  0  0  0
  -29.5630  -19.7243   17.3698 H   0  0  0  0  0  0
  1 25  1  0  0  0
  1 30  2  0  0  0
  1 80  1  0  0  0
  2  3  1  0  0  0
  2 25  1  0  0  0
  2 82  1  0  0  0
  2 83  1  0  0  0
  3  4  1  0  0  0
  3 84  1  0  0  0
  3 85  1  0  0  0
  4  5  1  0  0  0
  4 86  1  0  0  0
  4 87  1  0  0  0
  5  6  1  0  0  0
  5 26  1  0  0  0
  5 88  1  0  0  0
  6 25  1  0  0  0
  6 89  1  0  0  0
  6 90  1  0  0  0
  7  8  2  0  0  0
  7 26  1  0  0  0
  7 29  1  0  0  0
  8  9  1  0  0  0
  8 22  1  0  0  0
  9 10  1  0  0  0
  9 27  2  0  0  0
 10 11  2  0  0  0
 10 15  1  0  0  0
 11 12  1  0  0  0
 11 91  1  0  0  0
 12 13  2  0  0  0
 12 92  1  0  0  0
 13 14  1  0  0  0
 13 31  1  0  0  0
 14 15  2  0  0  0
 14 93  1  0  0  0
 15 94  1  0  0  0
 16 17  2  0  0  0
 16 21  1  0  0  0
 16 31  1  0  0  0
 17 18  1  0  0  0
 17 95  1  0  0  0
 18 19  2  0  0  0
 18 96  1  0  0  0
 19 20  1  0  0  0
 19 24  1  0  0  0
 20 21  2  0  0  0
 20 97  1  0  0  0
 21 23  1  0  0  0
 22 28  1  0  0  0
 22 32  2  0  0  0
 26 27  1  0  0  0
 28 98  1  0  0  0
 28 99  1  0  0  0
 29100  1  0  0  0
 29101  1  0  0  0
 33 34  1  0  0  0
 33 66  1  0  0  0
 33 70  2  0  0  0
 34 36  1  0  0  0
 34 59  1  0  0  0
 34102  1  0  0  0
 35 44  2  0  0  0
 35 45  1  0  0  0
 35 68  1  0  0  0
 36 56  1  0  0  0
 36103  1  0  0  0
 37 39  1  0  0  0
 37 47  1  0  0  0
 37 66  1  0  0  0
 37104  1  0  0  0
 38 43  2  0  0  0
 38 46  1  0  0  0
 38 47  1  0  0  0
 39 64  1  0  0  0
 39 67  2  0  0  0
 40 52  1  0  0  0
 40 53  2  0  0  0
 40 58  1  0  0  0
 41105  1  0  0  0
 41106  1  0  0  0
 41107  1  0  0  0
 41 48  1  0  0  0
 42 43  1  0  0  0
 42 66  1  0  0  0
 42108  1  0  0  0
 42109  1  0  0  0
 43 44  1  0  0  0
 44110  1  0  0  0
 45 46  2  0  0  0
 45111  1  0  0  0
 46112  1  0  0  0
 47113  1  0  0  0
 47114  1  0  0  0
 48 56  1  0  0  0
 48 65  1  0  0  0
 48115  1  0  0  0
 49 50  1  0  0  0
 49 53  1  0  0  0
 49 64  1  0  0  0
 49116  1  0  0  0
 50 51  1  0  0  0
 50117  1  0  0  0
 50118  1  0  0  0
 51 52  1  0  0  0
 51119  1  0  0  0
 51120  1  0  0  0
 52121  1  0  0  0
 52122  1  0  0  0
 53 54  1  0  0  0
 54 55  2  0  0  0
 54123  1  0  0  0
 55 57  1  0  0  0
 55124  1  0  0  0
 56 69  2  0  0  0
 57 58  2  0  0  0
 57125  1  0  0  0
 58126  1  0  0  0
 59 60  1  0  0  0
 59 61  1  0  0  0
 59 62  1  0  0  0
 60127  1  0  0  0
 60128  1  0  0  0
 60129  1  0  0  0
 61130  1  0  0  0
 61131  1  0  0  0
 61132  1  0  0  0
 62133  1  0  0  0
 62134  1  0  0  0
 62135  1  0  0  0
 63 65  1  0  0  0
 63136  1  0  0  0
 63137  1  0  0  0
 63138  1  0  0  0
 64139  1  0  0  0
 65140  1  0  0  0
 68 76  1  0  0  0
 71 72  1  0  0  0
 71 77  2  0  0  0
 71141  1  0  0  0
 72 78  2  0  0  0
 72 74  1  0  0  0
 73 75  1  0  0  0
 73 80  1  0  0  0
 73142  1  0  0  0
 73143  1  0  0  0
 74 75  1  0  0  0
 74 80  1  0  0  0
 74144  1  0  0  0
 75 81  1  0  0  0
 75145  1  0  0  0
 76 79  1  0  0  0
 76146  1  0  0  0
 76147  1  0  0  0
 77 79  1  0  0  0
 78 79  1  0  0  0
 81148  1  0  0  0
 81149  1  0  0  0
 81150  1  0  0  0
M  CHG  1  81   1
M  ISO  4   1 100  68 101  76 101  80 100
M  END
> <chiral flag>
0

> <version>
0

> <s_m_source_file>
/data/baiqing/PycharmProjects/Reinvent-master-3.2/result/LINK_invent/BTK/process_docking_weight1_custom_sum_contain_oxygen_bond_distance_aromatic_linkinvent_7_9_3/rearranged_h_0188.sdf

> <i_m_source_file_index>
65

> <r_mmod_Potential_Energy-OPLS-2005>
1639.11511230469

> <r_mmod_Stretch_Energy-OPLS-2005>
783.515258789062

> <r_mmod_Bend_Energy-OPLS-2005>
703.73193359375

> <r_mmod_Torsional_Energy-OPLS-2005>
277.820861816406

> <r_mmod_Improper_Torsional_Energy-OPLS-2005>
17.149751663208

> <r_mmod_Van_der_Waal_Energy-OPLS-2005>
115.906074523926

> <r_mmod_Electrostatic_Energy-OPLS-2005>
-339.720092773438

> <r_mmod_Solvation_Energy-OPLS-2005>
-566.248901367188

> <b_mmod_Minimization_Converged-OPLS-2005>
0

> <r_mmod_RMS_Derivative-OPLS-2005>
1.45022106170654

$$$$
66
                    3D
 Structure written by MMmdl.
158168  0  0  1  0            999 V2000
  -30.6087  -14.7712   20.4483 C   0  0  0  0  0  0
  -30.4316  -12.4717   19.4734 C   0  0  0  0  0  0
  -29.5095  -12.5059   18.2354 C   0  0  0  0  0  0
  -28.0370  -12.3278   18.6528 C   0  0  0  0  0  0
  -27.6391  -13.2367   19.8470 C   0  0  2  0  0  0
  -28.6847  -13.1939   20.9810 C   0  0  0  0  0  0
  -25.2510  -13.8210   20.5715 C   0  0  0  0  0  0
  -24.1798  -13.0447   20.9202 C   0  0  0  0  0  0
  -24.6395  -11.6926   20.8744 C   0  0  0  0  0  0
  -23.9074  -10.4298   21.0404 C   0  0  0  0  0  0
  -24.3624   -9.4212   21.9182 C   0  0  0  0  0  0
  -23.6297   -8.2248   22.0753 C   0  0  0  0  0  0
  -22.4279   -8.0284   21.3544 C   0  0  0  0  0  0
  -21.9916   -9.0258   20.4646 C   0  0  0  0  0  0
  -22.7245  -10.2137   20.3054 C   0  0  0  0  0  0
  -21.6855   -6.0737   22.5279 C   0  0  0  0  0  0
  -21.4016   -6.5641   23.8212 C   0  0  0  0  0  0
  -21.3660   -5.6793   24.9174 C   0  0  0  0  0  0
  -21.6044   -4.3056   24.7225 C   0  0  0  0  0  0
  -21.8819   -3.8148   23.4346 C   0  0  0  0  0  0
  -21.9193   -4.6965   22.3402 C   0  0  0  0  0  0
  -22.7819  -13.5224   21.1865 C   0  0  0  0  0  0
  -22.1661   -4.2150   21.0980 F   0  0  0  0  0  0
  -21.5628   -3.4539   25.7737 F   0  0  0  0  0  0
  -29.9785  -13.5464   20.3872 N   0  0  0  0  0  0
  -26.2933  -12.9423   20.3288 N   0  0  0  0  0  0
  -25.9328  -11.6559   20.5753 N   0  0  0  0  0  0
  -22.0470  -12.8210   22.0423 N   0  0  0  0  0  0
  -25.4228  -15.1934   20.4172 N   0  0  0  0  0  0
  -31.8103  -14.8427   20.1720 O   0  0  0  0  0  0
  -21.6643   -6.8881   21.4241 O   0  0  0  0  0  0
  -22.3498  -14.5528   20.6713 O   0  0  0  0  0  0
  -24.6351  -31.8531   23.1971 C   0  0  0  0  0  0
  -25.9164  -32.4741   23.8323 C   0  0  1  0  0  0
  -27.2161  -27.2299   20.1143 C   0  0  0  0  0  0
  -25.5947  -33.8545   24.2242 N   0  0  0  0  0  0
  -23.4322  -30.4780   21.5419 C   0  0  2  0  0  0
  -24.8769  -28.9256   20.1078 C   0  0  0  0  0  0
  -22.7521  -29.4597   22.4898 C   0  0  0  0  0  0
  -18.0296  -28.1390   22.8482 C   0  0  0  0  0  0
  -24.1491  -36.7276   23.2640 C   0  0  0  0  0  0
  -25.9828  -30.7552   21.3826 C   0  0  0  0  0  0
  -26.0521  -29.3773   20.7193 C   0  0  0  0  0  0
  -27.2198  -28.5415   20.7143 C   0  0  0  0  0  0
  -26.0031  -26.8526   19.4893 C   0  0  0  0  0  0
  -24.8597  -27.6721   19.4846 C   0  0  0  0  0  0
  -23.6508  -29.8169   20.1570 C   0  0  0  0  0  0
  -25.4120  -36.3061   24.0322 C   0  0  1  0  0  0
  -20.5903  -28.3706   23.1258 C   0  0  2  0  0  0
  -20.6784  -26.9420   22.5404 C   0  0  0  0  0  0
  -19.5757  -26.6383   21.5211 C   0  0  0  0  0  0
  -18.1939  -26.7930   22.1625 C   0  0  0  0  0  0
  -19.1551  -28.8865   23.2864 C   0  0  0  0  0  0
  -18.9470  -30.1464   23.8886 C   0  0  0  0  0  0
  -17.6468  -30.6589   24.0561 C   0  0  0  0  0  0
  -25.9064  -34.9432   23.5085 C   0  0  0  0  0  0
  -16.5359  -29.9084   23.6333 C   0  0  0  0  0  0
  -16.7282  -28.6502   23.0354 C   0  0  0  0  0  0
  -26.4514  -31.6578   25.0728 C   0  0  0  0  0  0
  -25.3720  -31.3740   26.1437 C   0  0  0  0  0  0
  -27.0370  -30.2988   24.6248 C   0  0  0  0  0  0
  -27.6056  -32.4330   25.7508 C   0  0  0  0  0  0
  -27.5578  -37.1797   24.8466 C   0  0  0  0  0  0
  -21.4224  -29.3049   22.3643 N   0  0  0  0  0  0
  -26.4292  -37.3763   23.9406 N   0  0  0  0  0  0
  -24.7029  -31.0472   22.0963 N   0  0  0  0  0  0
  -23.4209  -28.8131   23.3002 O   0  0  0  0  0  0
  -28.3086  -26.3194   20.2042 O   0  0  0  0  0  0
  -26.5638  -34.8913   22.4656 O   0  0  0  0  0  0
  -23.5493  -32.1369   23.7248 O   0  0  0  0  0  0
  -27.8725  -22.4118   19.8119 C   0  0  0  0  0  0
  -30.3524  -21.9698   20.7037 C   0  0  0  0  0  0
  -28.7111  -23.5562   20.0421 C   0  0  0  0  0  0
  -29.5115  -20.8245   20.4525 C   0  0  0  0  0  0
  -32.9126  -22.5677   20.5808 C   0  0  0  0  0  0
  -32.8094  -21.0738   20.4324 C   0  0  0  0  0  0
  -30.0148  -17.0715   19.5222 C   0  0  0  0  0  0
  -29.8971  -16.9958   21.5412 C   0  0  0  0  0  0
  -31.7564  -21.8258   21.2226 C   0  0  0  0  0  0
  -29.3885  -18.0804   20.5309 C   0  0  0  0  0  0
  -28.3702  -25.0130   19.4387 C   0  0  0  0  0  0
  -28.2461  -21.0912   20.0171 N   0  0  0  0  0  0
  -29.9642  -23.2837   20.5127 N   0  0  0  0  0  0
  -29.8306  -15.9334   20.4878 N   0  0  0  0  0  0
  -30.0076  -19.4656   20.6370 N   0  0  0  0  0  0
  -31.4719  -12.5982   19.1688 H   0  0  0  0  0  0
  -30.3803  -11.5015   19.9700 H   0  0  0  0  0  0
  -29.7953  -11.7258   17.5284 H   0  0  0  0  0  0
  -29.6309  -13.4550   17.7109 H   0  0  0  0  0  0
  -27.8996  -11.2809   18.9256 H   0  0  0  0  0  0
  -27.3775  -12.5086   17.8032 H   0  0  0  0  0  0
  -27.6272  -14.2549   19.4569 H   0  0  0  0  0  0
  -28.7265  -12.2065   21.4426 H   0  0  0  0  0  0
  -28.4206  -13.8984   21.7717 H   0  0  0  0  0  0
  -25.2768   -9.5689   22.4758 H   0  0  0  0  0  0
  -24.0006   -7.4640   22.7473 H   0  0  0  0  0  0
  -21.0846   -8.8778   19.8952 H   0  0  0  0  0  0
  -22.3702  -10.9676   19.6164 H   0  0  0  0  0  0
  -21.2009   -7.6149   23.9716 H   0  0  0  0  0  0
  -21.1482   -6.0523   25.9077 H   0  0  0  0  0  0
  -22.0597   -2.7610   23.2846 H   0  0  0  0  0  0
  -22.4094  -11.9875   22.4810 H   0  0  0  0  0  0
  -21.1087  -13.1228   22.2632 H   0  0  0  0  0  0
  -24.6647  -15.8553   20.5425 H   0  0  0  0  0  0
  -26.2912  -15.6320   20.1361 H   0  0  0  0  0  0
  -26.7228  -32.5373   23.1057 H   0  0  0  0  0  0
  -25.0084  -33.9676   25.0381 H   0  0  0  0  0  0
  -22.7302  -31.3019   21.3973 H   0  0  0  0  0  0
  -23.3753  -35.9609   23.3304 H   0  0  0  0  0  0
  -24.3577  -36.8900   22.2054 H   0  0  0  0  0  0
  -23.7248  -37.6477   23.6668 H   0  0  0  0  0  0
  -26.1299  -31.5170   20.6157 H   0  0  0  0  0  0
  -26.8573  -30.7992   22.0202 H   0  0  0  0  0  0
  -28.1168  -28.8825   21.2120 H   0  0  0  0  0  0
  -25.8591  -25.8907   19.0295 H   0  0  0  0  0  0
  -23.9549  -27.3146   19.0122 H   0  0  0  0  0  0
  -23.7797  -30.5955   19.4044 H   0  0  0  0  0  0
  -22.7671  -29.2554   19.8485 H   0  0  0  0  0  0
  -25.1305  -36.1903   25.0815 H   0  0  0  0  0  0
  -20.9997  -28.3287   24.1378 H   0  0  0  0  0  0
  -20.5685  -26.2317   23.3613 H   0  0  0  0  0  0
  -21.6651  -26.7440   22.1197 H   0  0  0  0  0  0
  -19.6919  -25.6291   21.1248 H   0  0  0  0  0  0
  -19.6692  -27.3187   20.6735 H   0  0  0  0  0  0
  -17.4206  -26.6673   21.4030 H   0  0  0  0  0  0
  -18.0342  -26.0075   22.9026 H   0  0  0  0  0  0
  -19.7945  -30.7283   24.2250 H   0  0  0  0  0  0
  -17.5022  -31.6268   24.5164 H   0  0  0  0  0  0
  -15.5359  -30.2982   23.7664 H   0  0  0  0  0  0
  -15.8682  -28.0817   22.7076 H   0  0  0  0  0  0
  -24.5907  -30.7077   25.7762 H   0  0  0  0  0  0
  -24.8899  -32.2912   26.4828 H   0  0  0  0  0  0
  -25.8025  -30.8941   27.0235 H   0  0  0  0  0  0
  -26.2969  -29.6725   24.1253 H   0  0  0  0  0  0
  -27.4012  -29.7265   25.4791 H   0  0  0  0  0  0
  -27.8864  -30.4248   23.9532 H   0  0  0  0  0  0
  -27.2653  -33.3636   26.2062 H   0  0  0  0  0  0
  -28.3880  -32.6881   25.0348 H   0  0  0  0  0  0
  -28.0710  -31.8472   26.5446 H   0  0  0  0  0  0
  -28.2595  -38.0093   24.7507 H   0  0  0  0  0  0
  -28.1074  -36.2623   24.6302 H   0  0  0  0  0  0
  -27.2293  -37.1456   25.8869 H   0  0  0  0  0  0
  -20.9414  -29.8776   21.6848 H   0  0  0  0  0  0
  -26.0166  -38.2836   24.1402 H   0  0  0  0  0  0
  -26.8927  -22.5510   19.3786 H   0  0  0  0  0  0
  -32.7062  -23.1731   19.7001 H   0  0  0  0  0  0
  -33.6965  -22.9455   21.2341 H   0  0  0  0  0  0
  -33.5304  -20.4750   20.9856 H   0  0  0  0  0  0
  -32.5391  -20.6915   19.4496 H   0  0  0  0  0  0
  -31.0606  -17.2824   19.2841 H   0  0  0  0  0  0
  -29.4357  -16.9748   18.6029 H   0  0  0  0  0  0
  -29.2138  -16.8392   22.3770 H   0  0  0  0  0  0
  -30.9094  -17.1741   21.9127 H   0  0  0  0  0  0
  -31.7610  -21.7130   22.3051 H   0  0  0  0  0  0
  -28.2988  -18.1031   20.4673 H   0  0  0  0  0  0
  -27.5340  -24.8669   18.7654 H   0  0  0  0  0  0
  -29.1854  -25.1895   18.7368 H   0  0  0  0  0  0
  -30.9772  -19.4486   20.9357 H   0  0  0  0  0  0
  1 25  1  0  0  0
  1 30  2  0  0  0
  1 84  1  0  0  0
  2  3  1  0  0  0
  2 25  1  0  0  0
  2 86  1  0  0  0
  2 87  1  0  0  0
  3  4  1  0  0  0
  3 88  1  0  0  0
  3 89  1  0  0  0
  4  5  1  0  0  0
  4 90  1  0  0  0
  4 91  1  0  0  0
  5  6  1  0  0  0
  5 26  1  0  0  0
  5 92  1  0  0  0
  6 25  1  0  0  0
  6 93  1  0  0  0
  6 94  1  0  0  0
  7  8  2  0  0  0
  7 26  1  0  0  0
  7 29  1  0  0  0
  8  9  1  0  0  0
  8 22  1  0  0  0
  9 10  1  0  0  0
  9 27  2  0  0  0
 10 11  2  0  0  0
 10 15  1  0  0  0
 11 12  1  0  0  0
 11 95  1  0  0  0
 12 13  2  0  0  0
 12 96  1  0  0  0
 13 14  1  0  0  0
 13 31  1  0  0  0
 14 15  2  0  0  0
 14 97  1  0  0  0
 15 98  1  0  0  0
 16 17  2  0  0  0
 16 21  1  0  0  0
 16 31  1  0  0  0
 17 18  1  0  0  0
 17 99  1  0  0  0
 18 19  2  0  0  0
 18100  1  0  0  0
 19 20  1  0  0  0
 19 24  1  0  0  0
 20 21  2  0  0  0
 20101  1  0  0  0
 21 23  1  0  0  0
 22 28  1  0  0  0
 22 32  2  0  0  0
 26 27  1  0  0  0
 28102  1  0  0  0
 28103  1  0  0  0
 29104  1  0  0  0
 29105  1  0  0  0
 33 34  1  0  0  0
 33 66  1  0  0  0
 33 70  2  0  0  0
 34 36  1  0  0  0
 34 59  1  0  0  0
 34106  1  0  0  0
 35 44  2  0  0  0
 35 45  1  0  0  0
 35 68  1  0  0  0
 36 56  1  0  0  0
 36107  1  0  0  0
 37 39  1  0  0  0
 37 47  1  0  0  0
 37 66  1  0  0  0
 37108  1  0  0  0
 38 43  2  0  0  0
 38 46  1  0  0  0
 38 47  1  0  0  0
 39 64  1  0  0  0
 39 67  2  0  0  0
 40 52  1  0  0  0
 40 53  2  0  0  0
 40 58  1  0  0  0
 41109  1  0  0  0
 41110  1  0  0  0
 41111  1  0  0  0
 41 48  1  0  0  0
 42 43  1  0  0  0
 42 66  1  0  0  0
 42112  1  0  0  0
 42113  1  0  0  0
 43 44  1  0  0  0
 44114  1  0  0  0
 45 46  2  0  0  0
 45115  1  0  0  0
 46116  1  0  0  0
 47117  1  0  0  0
 47118  1  0  0  0
 48 56  1  0  0  0
 48 65  1  0  0  0
 48119  1  0  0  0
 49 50  1  0  0  0
 49 53  1  0  0  0
 49 64  1  0  0  0
 49120  1  0  0  0
 50 51  1  0  0  0
 50121  1  0  0  0
 50122  1  0  0  0
 51 52  1  0  0  0
 51123  1  0  0  0
 51124  1  0  0  0
 52125  1  0  0  0
 52126  1  0  0  0
 53 54  1  0  0  0
 54 55  2  0  0  0
 54127  1  0  0  0
 55 57  1  0  0  0
 55128  1  0  0  0
 56 69  2  0  0  0
 57 58  2  0  0  0
 57129  1  0  0  0
 58130  1  0  0  0
 59 60  1  0  0  0
 59 61  1  0  0  0
 59 62  1  0  0  0
 60131  1  0  0  0
 60132  1  0  0  0
 60133  1  0  0  0
 61134  1  0  0  0
 61135  1  0  0  0
 61136  1  0  0  0
 62137  1  0  0  0
 62138  1  0  0  0
 62139  1  0  0  0
 63 65  1  0  0  0
 63140  1  0  0  0
 63141  1  0  0  0
 63142  1  0  0  0
 64143  1  0  0  0
 65144  1  0  0  0
 68 81  1  0  0  0
 71 73  2  0  0  0
 71 82  1  0  0  0
 71145  1  0  0  0
 72 74  1  0  0  0
 72 83  2  0  0  0
 72 79  1  0  0  0
 73 81  1  0  0  0
 73 83  1  0  0  0
 74 82  2  0  0  0
 74 85  1  0  0  0
 75 76  1  0  0  0
 75 79  1  0  0  0
 75146  1  0  0  0
 75147  1  0  0  0
 76 79  1  0  0  0
 76148  1  0  0  0
 76149  1  0  0  0
 77 80  1  0  0  0
 77 84  1  0  0  0
 77150  1  0  0  0
 77151  1  0  0  0
 78 80  1  0  0  0
 78 84  1  0  0  0
 78152  1  0  0  0
 78153  1  0  0  0
 79154  1  0  0  0
 80 85  1  0  0  0
 80155  1  0  0  0
 81156  1  0  0  0
 81157  1  0  0  0
 85158  1  0  0  0
M  ISO  4   1 100  68 101  81 101  84 100
M  END
> <chiral flag>
0

> <version>
0

> <s_m_source_file>
/data/baiqing/PycharmProjects/Reinvent-master-3.2/result/LINK_invent/BTK/process_docking_weight1_custom_sum_contain_oxygen_bond_distance_aromatic_linkinvent_7_9_3/rearranged_h_0188.sdf

> <i_m_source_file_index>
66

> <r_mmod_Potential_Energy-OPLS-2005>
395.002166748047

> <r_mmod_Stretch_Energy-OPLS-2005>
130.093627929688

> <r_mmod_Bend_Energy-OPLS-2005>
222.517776489258

> <r_mmod_Torsional_Energy-OPLS-2005>
287.329406738281

> <r_mmod_Improper_Torsional_Energy-OPLS-2005>
18.1637325286865

> <r_mmod_Van_der_Waal_Energy-OPLS-2005>
139.617126464844

> <r_mmod_Electrostatic_Energy-OPLS-2005>
-284.680511474609

> <r_mmod_Solvation_Energy-OPLS-2005>
-220.486145019531

> <b_mmod_Minimization_Converged-OPLS-2005>
1

> <r_mmod_RMS_Derivative-OPLS-2005>
0.0482808500528336

$$$$
67
                    3D
 Structure written by MMmdl.
155164  0  0  1  0            999 V2000
  -30.6440  -14.5851   20.4904 C   0  0  0  0  0  0
  -30.4271  -12.3508   19.4490 C   0  0  0  0  0  0
  -29.4986  -12.4863   18.2201 C   0  0  0  0  0  0
  -28.0206  -12.3403   18.6321 C   0  0  0  0  0  0
  -27.6500  -13.2158   19.8595 C   0  0  2  0  0  0
  -28.6940  -13.0670   20.9892 C   0  0  0  0  0  0
  -25.2561  -13.8180   20.5703 C   0  0  0  0  0  0
  -24.1816  -13.0439   20.9189 C   0  0  0  0  0  0
  -24.6382  -11.6914   20.8735 C   0  0  0  0  0  0
  -23.9072  -10.4290   21.0401 C   0  0  0  0  0  0
  -24.3615   -9.4223   21.9194 C   0  0  0  0  0  0
  -23.6292   -8.2250   22.0748 C   0  0  0  0  0  0
  -22.4290   -8.0272   21.3537 C   0  0  0  0  0  0
  -21.9913   -9.0250   20.4647 C   0  0  0  0  0  0
  -22.7233  -10.2141   20.3057 C   0  0  0  0  0  0
  -21.6840   -6.0744   22.5289 C   0  0  0  0  0  0
  -21.4010   -6.5650   23.8226 C   0  0  0  0  0  0
  -21.3664   -5.6802   24.9186 C   0  0  0  0  0  0
  -21.6041   -4.3064   24.7232 C   0  0  0  0  0  0
  -21.8818   -3.8163   23.4349 C   0  0  0  0  0  0
  -21.9194   -4.6982   22.3408 C   0  0  0  0  0  0
  -22.7835  -13.5205   21.1880 C   0  0  0  0  0  0
  -22.1657   -4.2166   21.0982 F   0  0  0  0  0  0
  -21.5641   -3.4542   25.7748 F   0  0  0  0  0  0
  -30.0102  -13.3786   20.4187 N   0  0  0  0  0  0
  -26.2969  -12.9351   20.3329 N   0  0  0  0  0  0
  -25.9307  -11.6511   20.5757 N   0  0  0  0  0  0
  -22.0471  -12.8177   22.0419 N   0  0  0  0  0  0
  -25.4329  -15.1887   20.4133 N   0  0  0  0  0  0
  -31.8328  -14.7139   20.1851 O   0  0  0  0  0  0
  -21.6632   -6.8887   21.4254 O   0  0  0  0  0  0
  -22.3524  -14.5521   20.6755 O   0  0  0  0  0  0
  -24.6177  -31.8660   23.2037 C   0  0  0  0  0  0
  -25.9044  -32.4797   23.8362 C   0  0  1  0  0  0
  -27.2365  -27.3753   20.1131 C   0  0  0  0  0  0
  -25.5889  -33.8588   24.2289 N   0  0  0  0  0  0
  -23.4117  -30.4817   21.5460 C   0  0  2  0  0  0
  -24.8621  -28.9369   20.1167 C   0  0  0  0  0  0
  -22.7423  -29.4576   22.4934 C   0  0  0  0  0  0
  -18.0256  -28.1383   22.8467 C   0  0  0  0  0  0
  -24.1481  -36.7307   23.2650 C   0  0  0  0  0  0
  -25.9449  -30.8105   21.3662 C   0  0  0  0  0  0
  -26.0240  -29.4385   20.7182 C   0  0  0  0  0  0
  -27.2148  -28.6665   20.7065 C   0  0  0  0  0  0
  -26.0545  -26.9037   19.5053 C   0  0  0  0  0  0
  -24.8732  -27.6716   19.5057 C   0  0  0  0  0  0
  -23.6281  -29.8132   20.1620 C   0  0  0  0  0  0
  -25.4104  -36.3091   24.0341 C   0  0  1  0  0  0
  -20.5832  -28.3606   23.1250 C   0  0  2  0  0  0
  -20.6693  -26.9311   22.5342 C   0  0  0  0  0  0
  -19.5636  -26.6282   21.5159 C   0  0  0  0  0  0
  -18.1849  -26.7919   22.1595 C   0  0  0  0  0  0
  -19.1518  -28.8833   23.2860 C   0  0  0  0  0  0
  -18.9425  -30.1441   23.8905 C   0  0  0  0  0  0
  -17.6410  -30.6566   24.0577 C   0  0  0  0  0  0
  -25.9046  -34.9466   23.5119 C   0  0  0  0  0  0
  -16.5308  -29.9068   23.6320 C   0  0  0  0  0  0
  -16.7255  -28.6488   23.0326 C   0  0  0  0  0  0
  -26.4457  -31.6583   25.0708 C   0  0  0  0  0  0
  -25.3709  -31.3696   26.1437 C   0  0  0  0  0  0
  -27.0312  -30.3035   24.6115 C   0  0  0  0  0  0
  -27.6024  -32.4331   25.7480 C   0  0  0  0  0  0
  -27.5572  -37.1818   24.8474 C   0  0  0  0  0  0
  -21.4135  -29.2950   22.3626 N   0  0  0  0  0  0
  -26.4278  -37.3786   23.9410 N   0  0  0  0  0  0
  -24.6774  -31.0671   22.0982 N   0  0  0  0  0  0
  -23.4146  -28.8158   23.3039 O   0  0  0  0  0  0
  -28.3865  -26.5926   20.1097 O   0  0  0  0  0  0
  -26.5612  -34.8923   22.4677 O   0  0  0  0  0  0
  -23.5360  -32.1420   23.7404 O   0  0  0  0  0  0
  -29.1768  -21.5443   20.0887 C   0  0  0  0  0  0
  -26.5464  -20.9016   20.4256 C   0  0  0  0  0  0
  -28.2200  -22.6047   19.9556 C   0  0  0  0  0  0
  -26.8616  -22.2341   20.0973 C   0  0  0  0  0  0
  -28.7606  -20.2041   20.3682 C   0  0  0  0  0  0
  -29.8725  -16.7312   19.5120 C   0  0  0  0  0  0
  -29.9419  -16.7800   21.5471 C   0  0  0  0  0  0
  -29.2287  -17.6864   20.5234 C   0  0  0  0  0  0
  -28.6010  -24.0680   19.5594 C   0  0  0  0  0  0
  -28.2673  -25.2140   20.5869 C   0  0  0  0  0  0
  -27.4601  -19.9157   20.5623 N   0  0  0  0  0  0
  -29.8265  -15.6773   20.5586 N   0  0  0  0  0  0
  -29.6664  -19.1117   20.4495 N   0  0  0  0  0  0
  -25.5676  -23.3497   19.8371 Cl  0  0  0  0  0  0
  -31.4689  -12.4641   19.1466 H   0  0  0  0  0  0
  -30.3442  -11.3566   19.8901 H   0  0  0  0  0  0
  -29.7487  -11.7299   17.4745 H   0  0  0  0  0  0
  -29.6572  -13.4561   17.7450 H   0  0  0  0  0  0
  -27.8479  -11.2885   18.8665 H   0  0  0  0  0  0
  -27.3636  -12.5741   17.7917 H   0  0  0  0  0  0
  -27.6697  -14.2524   19.5168 H   0  0  0  0  0  0
  -28.6863  -12.0515   21.3881 H   0  0  0  0  0  0
  -28.4560  -13.7267   21.8251 H   0  0  0  0  0  0
  -25.2746   -9.5699   22.4770 H   0  0  0  0  0  0
  -24.0010   -7.4637   22.7455 H   0  0  0  0  0  0
  -21.0845   -8.8763   19.8933 H   0  0  0  0  0  0
  -22.3687  -10.9676   19.6166 H   0  0  0  0  0  0
  -21.1991   -7.6151   23.9743 H   0  0  0  0  0  0
  -21.1483   -6.0516   25.9086 H   0  0  0  0  0  0
  -22.0591   -2.7620   23.2841 H   0  0  0  0  0  0
  -22.4027  -11.9806   22.4804 H   0  0  0  0  0  0
  -21.1103  -13.1236   22.2646 H   0  0  0  0  0  0
  -24.6809  -15.8559   20.5435 H   0  0  0  0  0  0
  -26.3066  -15.6250   20.1430 H   0  0  0  0  0  0
  -26.7088  -32.5485   23.1102 H   0  0  0  0  0  0
  -24.9979  -33.9746   25.0389 H   0  0  0  0  0  0
  -22.7017  -31.2981   21.4015 H   0  0  0  0  0  0
  -23.3728  -35.9660   23.3327 H   0  0  0  0  0  0
  -24.3552  -36.8896   22.2058 H   0  0  0  0  0  0
  -23.7245  -37.6517   23.6659 H   0  0  0  0  0  0
  -26.0645  -31.5692   20.5921 H   0  0  0  0  0  0
  -26.8308  -30.8699   21.9859 H   0  0  0  0  0  0
  -28.1108  -29.0464   21.1777 H   0  0  0  0  0  0
  -26.0405  -25.9366   19.0257 H   0  0  0  0  0  0
  -23.9799  -27.2775   19.0403 H   0  0  0  0  0  0
  -23.7572  -30.5899   19.4078 H   0  0  0  0  0  0
  -22.7472  -29.2473   19.8536 H   0  0  0  0  0  0
  -25.1285  -36.1935   25.0839 H   0  0  0  0  0  0
  -20.9903  -28.3166   24.1372 H   0  0  0  0  0  0
  -20.5664  -26.2121   23.3491 H   0  0  0  0  0  0
  -21.6533  -26.7367   22.1077 H   0  0  0  0  0  0
  -19.6690  -25.6155   21.1269 H   0  0  0  0  0  0
  -19.6578  -27.3016   20.6623 H   0  0  0  0  0  0
  -17.4146  -26.6803   21.3934 H   0  0  0  0  0  0
  -18.0092  -26.0062   22.8973 H   0  0  0  0  0  0
  -19.7860  -30.7265   24.2327 H   0  0  0  0  0  0
  -17.4943  -31.6212   24.5243 H   0  0  0  0  0  0
  -15.5312  -30.2960   23.7656 H   0  0  0  0  0  0
  -15.8649  -28.0830   22.7001 H   0  0  0  0  0  0
  -24.5898  -30.7038   25.7749 H   0  0  0  0  0  0
  -24.8893  -32.2860   26.4887 H   0  0  0  0  0  0
  -25.8063  -30.8852   27.0188 H   0  0  0  0  0  0
  -26.2894  -29.6787   24.1148 H   0  0  0  0  0  0
  -27.4031  -29.7288   25.4598 H   0  0  0  0  0  0
  -27.8731  -30.4330   23.9311 H   0  0  0  0  0  0
  -27.2621  -33.3636   26.2038 H   0  0  0  0  0  0
  -28.3841  -32.6880   25.0315 H   0  0  0  0  0  0
  -28.0664  -31.8459   26.5398 H   0  0  0  0  0  0
  -28.2620  -38.0099   24.7483 H   0  0  0  0  0  0
  -28.1045  -36.2617   24.6345 H   0  0  0  0  0  0
  -27.2295  -37.1521   25.8890 H   0  0  0  0  0  0
  -20.9350  -29.8508   21.6672 H   0  0  0  0  0  0
  -26.0156  -38.2863   24.1412 H   0  0  0  0  0  0
  -30.2262  -21.7654   19.9444 H   0  0  0  0  0  0
  -25.5154  -20.6144   20.5574 H   0  0  0  0  0  0
  -30.8853  -17.0174   19.2078 H   0  0  0  0  0  0
  -29.2515  -16.5306   18.6366 H   0  0  0  0  0  0
  -29.3715  -16.6316   22.4669 H   0  0  0  0  0  0
  -30.9694  -17.0782   21.7695 H   0  0  0  0  0  0
  -28.1468  -17.5414   20.5506 H   0  0  0  0  0  0
  -28.0999  -24.2889   18.6158 H   0  0  0  0  0  0
  -29.6681  -24.1031   19.3303 H   0  0  0  0  0  0
  -28.9561  -25.1200   21.4269 H   0  0  0  0  0  0
  -27.2810  -25.0615   21.0255 H   0  0  0  0  0  0
  -30.6412  -19.2962   20.2360 H   0  0  0  0  0  0
  1 25  1  0  0  0
  1 30  2  0  0  0
  1 82  1  0  0  0
  2  3  1  0  0  0
  2 25  1  0  0  0
  2 85  1  0  0  0
  2 86  1  0  0  0
  3  4  1  0  0  0
  3 87  1  0  0  0
  3 88  1  0  0  0
  4  5  1  0  0  0
  4 89  1  0  0  0
  4 90  1  0  0  0
  5  6  1  0  0  0
  5 26  1  0  0  0
  5 91  1  0  0  0
  6 25  1  0  0  0
  6 92  1  0  0  0
  6 93  1  0  0  0
  7  8  2  0  0  0
  7 26  1  0  0  0
  7 29  1  0  0  0
  8  9  1  0  0  0
  8 22  1  0  0  0
  9 10  1  0  0  0
  9 27  2  0  0  0
 10 11  2  0  0  0
 10 15  1  0  0  0
 11 12  1  0  0  0
 11 94  1  0  0  0
 12 13  2  0  0  0
 12 95  1  0  0  0
 13 14  1  0  0  0
 13 31  1  0  0  0
 14 15  2  0  0  0
 14 96  1  0  0  0
 15 97  1  0  0  0
 16 17  2  0  0  0
 16 21  1  0  0  0
 16 31  1  0  0  0
 17 18  1  0  0  0
 17 98  1  0  0  0
 18 19  2  0  0  0
 18 99  1  0  0  0
 19 20  1  0  0  0
 19 24  1  0  0  0
 20 21  2  0  0  0
 20100  1  0  0  0
 21 23  1  0  0  0
 22 28  1  0  0  0
 22 32  2  0  0  0
 26 27  1  0  0  0
 28101  1  0  0  0
 28102  1  0  0  0
 29103  1  0  0  0
 29104  1  0  0  0
 33 34  1  0  0  0
 33 66  1  0  0  0
 33 70  2  0  0  0
 34 36  1  0  0  0
 34 59  1  0  0  0
 34105  1  0  0  0
 35 44  2  0  0  0
 35 45  1  0  0  0
 35 68  1  0  0  0
 36 56  1  0  0  0
 36106  1  0  0  0
 37 39  1  0  0  0
 37 47  1  0  0  0
 37 66  1  0  0  0
 37107  1  0  0  0
 38 43  2  0  0  0
 38 46  1  0  0  0
 38 47  1  0  0  0
 39 64  1  0  0  0
 39 67  2  0  0  0
 40 52  1  0  0  0
 40 53  2  0  0  0
 40 58  1  0  0  0
 41108  1  0  0  0
 41109  1  0  0  0
 41110  1  0  0  0
 41 48  1  0  0  0
 42 43  1  0  0  0
 42 66  1  0  0  0
 42111  1  0  0  0
 42112  1  0  0  0
 43 44  1  0  0  0
 44113  1  0  0  0
 45 46  2  0  0  0
 45114  1  0  0  0
 46115  1  0  0  0
 47116  1  0  0  0
 47117  1  0  0  0
 48 56  1  0  0  0
 48 65  1  0  0  0
 48118  1  0  0  0
 49 50  1  0  0  0
 49 53  1  0  0  0
 49 64  1  0  0  0
 49119  1  0  0  0
 50 51  1  0  0  0
 50120  1  0  0  0
 50121  1  0  0  0
 51 52  1  0  0  0
 51122  1  0  0  0
 51123  1  0  0  0
 52124  1  0  0  0
 52125  1  0  0  0
 53 54  1  0  0  0
 54 55  2  0  0  0
 54126  1  0  0  0
 55 57  1  0  0  0
 55127  1  0  0  0
 56 69  2  0  0  0
 57 58  2  0  0  0
 57128  1  0  0  0
 58129  1  0  0  0
 59 60  1  0  0  0
 59 61  1  0  0  0
 59 62  1  0  0  0
 60130  1  0  0  0
 60131  1  0  0  0
 60132  1  0  0  0
 61133  1  0  0  0
 61134  1  0  0  0
 61135  1  0  0  0
 62136  1  0  0  0
 62137  1  0  0  0
 62138  1  0  0  0
 63 65  1  0  0  0
 63139  1  0  0  0
 63140  1  0  0  0
 63141  1  0  0  0
 64142  1  0  0  0
 65143  1  0  0  0
 68 80  1  0  0  0
 71 73  2  0  0  0
 71 75  1  0  0  0
 71144  1  0  0  0
 72 74  2  0  0  0
 72 81  1  0  0  0
 72145  1  0  0  0
 73 74  1  0  0  0
 73 79  1  0  0  0
 74 84  1  0  0  0
 75 81  2  0  0  0
 75 83  1  0  0  0
 76 78  1  0  0  0
 76 82  1  0  0  0
 76146  1  0  0  0
 76147  1  0  0  0
 77 78  1  0  0  0
 77 82  1  0  0  0
 77148  1  0  0  0
 77149  1  0  0  0
 78 83  1  0  0  0
 78150  1  0  0  0
 79 80  1  0  0  0
 79151  1  0  0  0
 79152  1  0  0  0
 80153  1  0  0  0
 80154  1  0  0  0
 83155  1  0  0  0
M  ISO  4   1 100  68 101  80 101  82 100
M  END
> <chiral flag>
0

> <version>
0

> <s_m_source_file>
/data/baiqing/PycharmProjects/Reinvent-master-3.2/result/LINK_invent/BTK/process_docking_weight1_custom_sum_contain_oxygen_bond_distance_aromatic_linkinvent_7_9_3/rearranged_h_0188.sdf

> <i_m_source_file_index>
67

> <r_mmod_Potential_Energy-OPLS-2005>
-74.6948776245117

> <r_mmod_Stretch_Energy-OPLS-2005>
58.8619194030762

> <r_mmod_Bend_Energy-OPLS-2005>
128.527572631836

> <r_mmod_Torsional_Energy-OPLS-2005>
270.808166503906

> <r_mmod_Improper_Torsional_Energy-OPLS-2005>
17.3879051208496

> <r_mmod_Van_der_Waal_Energy-OPLS-2005>
145.110321044922

> <r_mmod_Electrostatic_Energy-OPLS-2005>
-507.677429199219

> <r_mmod_Solvation_Energy-OPLS-2005>
-219.492645263672

> <b_mmod_Minimization_Converged-OPLS-2005>
0

> <r_mmod_RMS_Derivative-OPLS-2005>
4.45106029510498

$$$$
68
                    3D
 Structure written by MMmdl.
155163  0  0  1  0            999 V2000
  -30.4813  -15.0601   20.3729 C   0  0  0  0  0  0
  -30.4386  -12.6639   19.4888 C   0  0  0  0  0  0
  -29.5153  -12.5379   18.2517 C   0  0  0  0  0  0
  -28.0462  -12.3207   18.6728 C   0  0  0  0  0  0
  -27.6185  -13.2586   19.8306 C   0  0  2  0  0  0
  -28.6676  -13.3220   20.9606 C   0  0  0  0  0  0
  -25.2391  -13.8222   20.5688 C   0  0  0  0  0  0
  -24.1745  -13.0418   20.9243 C   0  0  0  0  0  0
  -24.6391  -11.6913   20.8792 C   0  0  0  0  0  0
  -23.9095  -10.4280   21.0436 C   0  0  0  0  0  0
  -24.3655   -9.4173   21.9182 C   0  0  0  0  0  0
  -23.6307   -8.2223   22.0766 C   0  0  0  0  0  0
  -22.4274   -8.0287   21.3550 C   0  0  0  0  0  0
  -21.9910   -9.0262   20.4652 C   0  0  0  0  0  0
  -22.7270  -10.2129   20.3054 C   0  0  0  0  0  0
  -21.6860   -6.0721   22.5275 C   0  0  0  0  0  0
  -21.4035   -6.5633   23.8206 C   0  0  0  0  0  0
  -21.3669   -5.6797   24.9173 C   0  0  0  0  0  0
  -21.6050   -4.3054   24.7233 C   0  0  0  0  0  0
  -21.8807   -3.8130   23.4355 C   0  0  0  0  0  0
  -21.9181   -4.6942   22.3406 C   0  0  0  0  0  0
  -22.7769  -13.5180   21.1897 C   0  0  0  0  0  0
  -22.1671   -4.2124   21.0992 F   0  0  0  0  0  0
  -21.5602   -3.4541   25.7746 F   0  0  0  0  0  0
  -29.9127  -13.7809   20.3302 N   0  0  0  0  0  0
  -26.2836  -12.9501   20.3237 N   0  0  0  0  0  0
  -25.9327  -11.6626   20.5777 N   0  0  0  0  0  0
  -22.0448  -12.8185   22.0478 N   0  0  0  0  0  0
  -25.3908  -15.1957   20.4126 N   0  0  0  0  0  0
  -31.7043  -15.1135   20.2092 O   0  0  0  0  0  0
  -21.6644   -6.8872   21.4239 O   0  0  0  0  0  0
  -22.3417  -14.5433   20.6671 O   0  0  0  0  0  0
  -24.6449  -31.8382   23.1805 C   0  0  0  0  0  0
  -25.9210  -32.4663   23.8230 C   0  0  1  0  0  0
  -27.2239  -27.0723   20.1822 C   0  0  0  0  0  0
  -25.5912  -33.8474   24.2110 N   0  0  0  0  0  0
  -23.4523  -30.4515   21.5270 C   0  0  2  0  0  0
  -24.9048  -28.8542   20.1253 C   0  0  0  0  0  0
  -22.7577  -29.4514   22.4833 C   0  0  0  0  0  0
  -18.0299  -28.1376   22.8466 C   0  0  0  0  0  0
  -24.1473  -36.7257   23.2644 C   0  0  0  0  0  0
  -26.0127  -30.6873   21.3963 C   0  0  0  0  0  0
  -26.0848  -29.2908   20.7430 C   0  0  0  0  0  0
  -27.2476  -28.4212   20.7427 C   0  0  0  0  0  0
  -26.0148  -26.7385   19.5396 C   0  0  0  0  0  0
  -24.8834  -27.5913   19.5086 C   0  0  0  0  0  0
  -23.6875  -29.7699   20.1534 C   0  0  0  0  0  0
  -25.4121  -36.2995   24.0285 C   0  0  1  0  0  0
  -20.5912  -28.3710   23.1219 C   0  0  2  0  0  0
  -20.6767  -26.9395   22.5401 C   0  0  0  0  0  0
  -19.5750  -26.6354   21.5199 C   0  0  0  0  0  0
  -18.1936  -26.7908   22.1610 C   0  0  0  0  0  0
  -19.1552  -28.8868   23.2834 C   0  0  0  0  0  0
  -18.9479  -30.1463   23.8877 C   0  0  0  0  0  0
  -17.6478  -30.6582   24.0568 C   0  0  0  0  0  0
  -25.9078  -34.9386   23.5004 C   0  0  0  0  0  0
  -16.5375  -29.9075   23.6339 C   0  0  0  0  0  0
  -16.7287  -28.6486   23.0367 C   0  0  0  0  0  0
  -26.4481  -31.6585   25.0752 C   0  0  0  0  0  0
  -25.3621  -31.3864   26.1416 C   0  0  0  0  0  0
  -27.0362  -30.2939   24.6466 C   0  0  0  0  0  0
  -27.5912  -32.4448   25.7601 C   0  0  0  0  0  0
  -27.5570  -37.1784   24.8444 C   0  0  0  0  0  0
  -21.4268  -29.3035   22.3582 N   0  0  0  0  0  0
  -26.4266  -37.3739   23.9390 N   0  0  0  0  0  0
  -24.7225  -31.0167   22.0897 N   0  0  0  0  0  0
  -23.4189  -28.8074   23.3020 O   0  0  0  0  0  0
  -28.3133  -26.1194   20.0740 O   0  0  0  0  0  0
  -26.5700  -34.8902   22.4599 O   0  0  0  0  0  0
  -23.5546  -32.1305   23.6978 O   0  0  0  0  0  0
  -28.4042  -21.8032   20.1208 C   0  0  0  0  0  0
  -27.4252  -20.7977   19.6507 C   0  0  0  0  0  0
  -28.0202  -23.2058   20.1517 C   0  0  0  0  0  0
  -29.6232  -20.8451   20.5185 C   0  0  0  0  0  0
  -29.3485  -19.2961   19.9892 C   0  0  1  0  0  0
  -30.0128  -24.6236   21.0380 C   0  0  0  0  0  0
  -27.1605  -18.3470   19.2038 C   0  0  0  0  0  0
  -29.9435  -17.8250   20.7008 C   0  0  0  0  0  0
  -28.5071  -24.6898   20.7239 C   0  0  1  0  0  0
  -27.9209  -19.5036   19.6787 N   0  0  0  0  0  0
  -29.6764  -16.2620   20.3981 N   0  0  0  0  0  0
  -26.2702  -21.0597   19.3021 O   0  0  0  0  0  0
  -31.4609  -12.8562   19.1627 H   0  0  0  0  0  0
  -30.4770  -11.7326   20.0548 H   0  0  0  0  0  0
  -29.8483  -11.7170   17.6133 H   0  0  0  0  0  0
  -29.5900  -13.4413   17.6447 H   0  0  0  0  0  0
  -27.9337  -11.2810   18.9780 H   0  0  0  0  0  0
  -27.3879  -12.4568   17.8134 H   0  0  0  0  0  0
  -27.5635  -14.2528   19.3880 H   0  0  0  0  0  0
  -28.7971  -12.3534   21.4500 H   0  0  0  0  0  0
  -28.3557  -14.0203   21.7416 H   0  0  0  0  0  0
  -25.2806   -9.5633   22.4759 H   0  0  0  0  0  0
  -23.9992   -7.4637   22.7504 H   0  0  0  0  0  0
  -21.0804   -8.8811   19.9016 H   0  0  0  0  0  0
  -22.3729  -10.9674   19.6173 H   0  0  0  0  0  0
  -21.2072   -7.6150   23.9713 H   0  0  0  0  0  0
  -21.1498   -6.0521   25.9077 H   0  0  0  0  0  0
  -22.0565   -2.7579   23.2856 H   0  0  0  0  0  0
  -22.4142  -11.9887   22.4900 H   0  0  0  0  0  0
  -21.1091  -13.1221   22.2787 H   0  0  0  0  0  0
  -24.5928  -15.8147   20.5034 H   0  0  0  0  0  0
  -26.1964  -15.6492   20.0085 H   0  0  0  0  0  0
  -26.7293  -32.5222   23.0961 H   0  0  0  0  0  0
  -24.9949  -33.9573   25.0185 H   0  0  0  0  0  0
  -22.7585  -31.2770   21.3590 H   0  0  0  0  0  0
  -23.3729  -35.9590   23.3276 H   0  0  0  0  0  0
  -24.3560  -36.8959   22.2068 H   0  0  0  0  0  0
  -23.7242  -37.6435   23.6748 H   0  0  0  0  0  0
  -26.1858  -31.4429   20.6281 H   0  0  0  0  0  0
  -26.8733  -30.7357   22.0535 H   0  0  0  0  0  0
  -28.1572  -28.7633   21.2134 H   0  0  0  0  0  0
  -25.9410  -25.7748   19.0526 H   0  0  0  0  0  0
  -23.9853  -27.2497   19.0107 H   0  0  0  0  0  0
  -23.8403  -30.5340   19.3902 H   0  0  0  0  0  0
  -22.8033  -29.2145   19.8355 H   0  0  0  0  0  0
  -25.1318  -36.1801   25.0785 H   0  0  0  0  0  0
  -21.0007  -28.3287   24.1339 H   0  0  0  0  0  0
  -20.5607  -26.2324   23.3626 H   0  0  0  0  0  0
  -21.6644  -26.7361   22.1247 H   0  0  0  0  0  0
  -19.6916  -25.6257   21.1259 H   0  0  0  0  0  0
  -19.6696  -27.3139   20.6707 H   0  0  0  0  0  0
  -17.4197  -26.6637   21.4030 H   0  0  0  0  0  0
  -18.0357  -26.0069   22.9020 H   0  0  0  0  0  0
  -19.7968  -30.7262   24.2245 H   0  0  0  0  0  0
  -17.5045  -31.6259   24.5153 H   0  0  0  0  0  0
  -15.5373  -30.2969   23.7690 H   0  0  0  0  0  0
  -15.8675  -28.0798   22.7108 H   0  0  0  0  0  0
  -24.5638  -30.7437   25.7690 H   0  0  0  0  0  0
  -24.9030  -32.3121   26.4907 H   0  0  0  0  0  0
  -25.7818  -30.8891   27.0169 H   0  0  0  0  0  0
  -26.3016  -29.6664   24.1399 H   0  0  0  0  0  0
  -27.3768  -29.7289   25.5159 H   0  0  0  0  0  0
  -27.9020  -30.4091   23.9943 H   0  0  0  0  0  0
  -27.2313  -33.3654   26.2213 H   0  0  0  0  0  0
  -28.3711  -32.7212   25.0504 H   0  0  0  0  0  0
  -28.0596  -31.8628   26.5540 H   0  0  0  0  0  0
  -28.2535  -38.0125   24.7499 H   0  0  0  0  0  0
  -28.1103  -36.2650   24.6225 H   0  0  0  0  0  0
  -27.2300  -37.1393   25.8850 H   0  0  0  0  0  0
  -20.9462  -29.8735   21.6763 H   0  0  0  0  0  0
  -26.0107  -38.2784   24.1436 H   0  0  0  0  0  0
  -27.0230  -23.3635   19.7714 H   0  0  0  0  0  0
  -29.7408  -20.8606   21.6015 H   0  0  0  0  0  0
  -30.5468  -21.2322   20.0891 H   0  0  0  0  0  0
  -29.7961  -19.2744   18.9944 H   0  0  0  0  0  0
  -30.2761  -23.7263   21.5992 H   0  0  0  0  0  0
  -30.3356  -25.4817   21.6311 H   0  0  0  0  0  0
  -30.6065  -24.6305   20.1215 H   0  0  0  0  0  0
  -26.9959  -17.6423   20.0181 H   0  0  0  0  0  0
  -27.6928  -17.8364   18.4002 H   0  0  0  0  0  0
  -26.1826  -18.6196   18.8019 H   0  0  0  0  0  0
  -29.6790  -17.9159   21.7532 H   0  0  0  0  0  0
  -31.0283  -17.9200   20.6929 H   0  0  0  0  0  0
  -27.9766  -24.7670   21.6752 H   0  0  0  0  0  0
  -28.6925  -16.0468   20.3790 H   0  0  0  0  0  0
  1 25  1  0  0  0
  1 30  2  0  0  0
  1 81  1  0  0  0
  2  3  1  0  0  0
  2 25  1  0  0  0
  2 83  1  0  0  0
  2 84  1  0  0  0
  3  4  1  0  0  0
  3 85  1  0  0  0
  3 86  1  0  0  0
  4  5  1  0  0  0
  4 87  1  0  0  0
  4 88  1  0  0  0
  5  6  1  0  0  0
  5 26  1  0  0  0
  5 89  1  0  0  0
  6 25  1  0  0  0
  6 90  1  0  0  0
  6 91  1  0  0  0
  7  8  2  0  0  0
  7 26  1  0  0  0
  7 29  1  0  0  0
  8  9  1  0  0  0
  8 22  1  0  0  0
  9 10  1  0  0  0
  9 27  2  0  0  0
 10 11  2  0  0  0
 10 15  1  0  0  0
 11 12  1  0  0  0
 11 92  1  0  0  0
 12 13  2  0  0  0
 12 93  1  0  0  0
 13 14  1  0  0  0
 13 31  1  0  0  0
 14 15  2  0  0  0
 14 94  1  0  0  0
 15 95  1  0  0  0
 16 17  2  0  0  0
 16 21  1  0  0  0
 16 31  1  0  0  0
 17 18  1  0  0  0
 17 96  1  0  0  0
 18 19  2  0  0  0
 18 97  1  0  0  0
 19 20  1  0  0  0
 19 24  1  0  0  0
 20 21  2  0  0  0
 20 98  1  0  0  0
 21 23  1  0  0  0
 22 28  1  0  0  0
 22 32  2  0  0  0
 26 27  1  0  0  0
 28 99  1  0  0  0
 28100  1  0  0  0
 29101  1  0  0  0
 29102  1  0  0  0
 33 34  1  0  0  0
 33 66  1  0  0  0
 33 70  2  0  0  0
 34 36  1  0  0  0
 34 59  1  0  0  0
 34103  1  0  0  0
 35 44  2  0  0  0
 35 45  1  0  0  0
 35 68  1  0  0  0
 36 56  1  0  0  0
 36104  1  0  0  0
 37 39  1  0  0  0
 37 47  1  0  0  0
 37 66  1  0  0  0
 37105  1  0  0  0
 38 43  2  0  0  0
 38 46  1  0  0  0
 38 47  1  0  0  0
 39 64  1  0  0  0
 39 67  2  0  0  0
 40 52  1  0  0  0
 40 53  2  0  0  0
 40 58  1  0  0  0
 41106  1  0  0  0
 41107  1  0  0  0
 41108  1  0  0  0
 41 48  1  0  0  0
 42 43  1  0  0  0
 42 66  1  0  0  0
 42109  1  0  0  0
 42110  1  0  0  0
 43 44  1  0  0  0
 44111  1  0  0  0
 45 46  2  0  0  0
 45112  1  0  0  0
 46113  1  0  0  0
 47114  1  0  0  0
 47115  1  0  0  0
 48 56  1  0  0  0
 48 65  1  0  0  0
 48116  1  0  0  0
 49 50  1  0  0  0
 49 53  1  0  0  0
 49 64  1  0  0  0
 49117  1  0  0  0
 50 51  1  0  0  0
 50118  1  0  0  0
 50119  1  0  0  0
 51 52  1  0  0  0
 51120  1  0  0  0
 51121  1  0  0  0
 52122  1  0  0  0
 52123  1  0  0  0
 53 54  1  0  0  0
 54 55  2  0  0  0
 54124  1  0  0  0
 55 57  1  0  0  0
 55125  1  0  0  0
 56 69  2  0  0  0
 57 58  2  0  0  0
 57126  1  0  0  0
 58127  1  0  0  0
 59 60  1  0  0  0
 59 61  1  0  0  0
 59 62  1  0  0  0
 60128  1  0  0  0
 60129  1  0  0  0
 60130  1  0  0  0
 61131  1  0  0  0
 61132  1  0  0  0
 61133  1  0  0  0
 62134  1  0  0  0
 62135  1  0  0  0
 62136  1  0  0  0
 63 65  1  0  0  0
 63137  1  0  0  0
 63138  1  0  0  0
 63139  1  0  0  0
 64140  1  0  0  0
 65141  1  0  0  0
 68 79  1  0  0  0
 71 72  1  0  0  0
 71 73  2  0  0  0
 71 74  1  0  0  0
 72 80  1  0  0  0
 72 82  2  0  0  0
 73 79  1  0  0  0
 73142  1  0  0  0
 74 75  1  0  0  0
 74143  1  0  0  0
 74144  1  0  0  0
 75 78  1  0  0  0
 75 80  1  0  0  0
 75145  1  0  0  0
 76146  1  0  0  0
 76147  1  0  0  0
 76148  1  0  0  0
 76 79  1  0  0  0
 77 80  1  0  0  0
 77149  1  0  0  0
 77150  1  0  0  0
 77151  1  0  0  0
 78 81  1  0  0  0
 78152  1  0  0  0
 78153  1  0  0  0
 79154  1  0  0  0
 81155  1  0  0  0
M  ISO  4   1 100  68 101  79 101  81 100
M  END
> <chiral flag>
0

> <version>
0

> <s_m_source_file>
/data/baiqing/PycharmProjects/Reinvent-master-3.2/result/LINK_invent/BTK/process_docking_weight1_custom_sum_contain_oxygen_bond_distance_aromatic_linkinvent_7_9_3/rearranged_h_0188.sdf

> <i_m_source_file_index>
68

> <r_mmod_Potential_Energy-OPLS-2005>
761.005187988281

> <r_mmod_Stretch_Energy-OPLS-2005>
325.030731201172

> <r_mmod_Bend_Energy-OPLS-2005>
419.20166015625

> <r_mmod_Torsional_Energy-OPLS-2005>
286.944732666016

> <r_mmod_Improper_Torsional_Energy-OPLS-2005>
5.80091381072998

> <r_mmod_Van_der_Waal_Energy-OPLS-2005>
104.548889160156

> <r_mmod_Electrostatic_Energy-OPLS-2005>
-407.216522216797

> <r_mmod_Solvation_Energy-OPLS-2005>
-232.157257080078

> <b_mmod_Minimization_Converged-OPLS-2005>
0

> <r_mmod_RMS_Derivative-OPLS-2005>
5.95052242279053

$$$$
69
                    3D
 Structure written by MMmdl.
154163  0  0  1  0            999 V2000
  -30.4299  -15.5022   20.3709 C   0  0  0  0  0  0
  -30.4154  -13.0030   19.5123 C   0  0  0  0  0  0
  -29.5312  -12.6201   18.2964 C   0  0  0  0  0  0
  -28.1018  -12.2917   18.7469 C   0  0  0  0  0  0
  -27.5966  -13.3002   19.8049 C   0  0  2  0  0  0
  -28.6246  -13.6206   20.9172 C   0  0  0  0  0  0
  -25.2359  -13.8278   20.5799 C   0  0  0  0  0  0
  -24.1734  -13.0440   20.9273 C   0  0  0  0  0  0
  -24.6424  -11.6951   20.8780 C   0  0  0  0  0  0
  -23.9096  -10.4304   21.0409 C   0  0  0  0  0  0
  -24.3655   -9.4219   21.9190 C   0  0  0  0  0  0
  -23.6319   -8.2251   22.0746 C   0  0  0  0  0  0
  -22.4296   -8.0283   21.3531 C   0  0  0  0  0  0
  -21.9943   -9.0257   20.4629 C   0  0  0  0  0  0
  -22.7267  -10.2139   20.3048 C   0  0  0  0  0  0
  -21.6865   -6.0736   22.5273 C   0  0  0  0  0  0
  -21.4009   -6.5645   23.8206 C   0  0  0  0  0  0
  -21.3647   -5.6802   24.9170 C   0  0  0  0  0  0
  -21.6065   -4.3062   24.7226 C   0  0  0  0  0  0
  -21.8820   -3.8142   23.4349 C   0  0  0  0  0  0
  -21.9190   -4.6961   22.3402 C   0  0  0  0  0  0
  -22.7755  -13.5194   21.1911 C   0  0  0  0  0  0
  -22.1664   -4.2156   21.0975 F   0  0  0  0  0  0
  -21.5629   -3.4536   25.7724 F   0  0  0  0  0  0
  -29.8067  -14.1994   20.2426 N   0  0  0  0  0  0
  -26.2791  -12.9592   20.3236 N   0  0  0  0  0  0
  -25.9371  -11.6667   20.5729 N   0  0  0  0  0  0
  -22.0417  -12.8163   22.0438 N   0  0  0  0  0  0
  -25.3984  -15.2009   20.4218 N   0  0  0  0  0  0
  -31.6640  -15.3469   20.2707 O   0  0  0  0  0  0
  -21.6653   -6.8888   21.4233 O   0  0  0  0  0  0
  -22.3440  -14.5494   20.6741 O   0  0  0  0  0  0
  -24.6806  -31.8106   23.1592 C   0  0  0  0  0  0
  -25.9417  -32.4540   23.8113 C   0  0  1  0  0  0
  -27.2303  -26.7857   20.2323 C   0  0  0  0  0  0
  -25.6065  -33.8360   24.2015 N   0  0  0  0  0  0
  -23.5018  -30.4166   21.5111 C   0  0  2  0  0  0
  -24.9564  -28.7681   20.1201 C   0  0  0  0  0  0
  -22.7746  -29.4389   22.4742 C   0  0  0  0  0  0
  -18.0344  -28.1465   22.8456 C   0  0  0  0  0  0
  -24.1459  -36.7164   23.2655 C   0  0  0  0  0  0
  -26.0751  -30.5764   21.4028 C   0  0  0  0  0  0
  -26.1433  -29.1455   20.7623 C   0  0  0  0  0  0
  -27.2704  -28.1827   20.7805 C   0  0  0  0  0  0
  -26.0068  -26.5913   19.5423 C   0  0  0  0  0  0
  -24.9212  -27.5141   19.4858 C   0  0  0  0  0  0
  -23.7511  -29.7139   20.1445 C   0  0  0  0  0  0
  -25.4109  -36.2953   24.0308 C   0  0  1  0  0  0
  -20.5961  -28.3821   23.1151 C   0  0  2  0  0  0
  -20.6816  -26.9478   22.5412 C   0  0  0  0  0  0
  -19.5784  -26.6393   21.5244 C   0  0  0  0  0  0
  -18.1961  -26.7980   22.1618 C   0  0  0  0  0  0
  -19.1600  -28.8964   23.2793 C   0  0  0  0  0  0
  -18.9508  -30.1529   23.8835 C   0  0  0  0  0  0
  -17.6505  -30.6627   24.0570 C   0  0  0  0  0  0
  -25.9100  -34.9344   23.4975 C   0  0  0  0  0  0
  -16.5401  -29.9105   23.6363 C   0  0  0  0  0  0
  -16.7321  -28.6543   23.0370 C   0  0  0  0  0  0
  -26.4592  -31.6536   25.0702 C   0  0  0  0  0  0
  -25.3663  -31.3846   26.1319 C   0  0  0  0  0  0
  -27.0502  -30.2902   24.6507 C   0  0  0  0  0  0
  -27.6072  -32.4337   25.7514 C   0  0  0  0  0  0
  -27.5522  -37.1736   24.8473 C   0  0  0  0  0  0
  -21.4399  -29.3097   22.3487 N   0  0  0  0  0  0
  -26.4215  -37.3728   23.9435 N   0  0  0  0  0  0
  -24.7767  -30.9612   22.0806 N   0  0  0  0  0  0
  -23.4202  -28.7981   23.3070 O   0  0  0  0  0  0
  -28.2307  -25.6259   20.2717 O   0  0  0  0  0  0
  -26.5693  -34.8916   22.4554 O   0  0  0  0  0  0
  -23.5838  -32.1139   23.6584 O   0  0  0  0  0  0
  -28.5027  -17.8598   22.1036 C   0  0  0  0  0  0
  -29.9772  -18.1095   22.4466 C   0  0  0  0  0  0
  -28.2934  -19.4083   19.9945 C   0  0  0  0  0  0
  -30.4274  -19.8482   20.5567 C   0  0  0  0  0  0
  -28.5569  -17.7793   20.5668 C   0  0  1  0  0  0
  -30.5804  -18.2040   21.0369 C   0  0  2  0  0  0
  -29.0372  -22.3300   20.1156 C   0  0  0  0  0  0
  -28.0531  -23.9139   20.4449 C   0  0  0  0  0  0
  -29.8846  -16.9515   20.4022 N   0  0  0  0  0  0
  -29.0749  -20.6454   20.5834 N   0  3  1  0  0  0
  -31.4154  -13.2258   19.1376 H   0  0  0  0  0  0
  -30.5441  -12.1529   20.1828 H   0  0  0  0  0  0
  -29.9649  -11.7689   17.7702 H   0  0  0  0  0  0
  -29.5088  -13.4420   17.5805 H   0  0  0  0  0  0
  -28.1087  -11.2889   19.1726 H   0  0  0  0  0  0
  -27.4258  -12.2518   17.8920 H   0  0  0  0  0  0
  -27.4616  -14.2274   19.2445 H   0  0  0  0  0  0
  -28.8692  -12.7423   21.5166 H   0  0  0  0  0  0
  -28.2145  -14.3614   21.6058 H   0  0  0  0  0  0
  -25.2799   -9.5694   22.4776 H   0  0  0  0  0  0
  -24.0024   -7.4656   22.7494 H   0  0  0  0  0  0
  -21.0861   -8.8783   19.8964 H   0  0  0  0  0  0
  -22.3720  -10.9682   19.6175 H   0  0  0  0  0  0
  -21.1994   -7.6156   23.9705 H   0  0  0  0  0  0
  -21.1469   -6.0528   25.9078 H   0  0  0  0  0  0
  -22.0607   -2.7604   23.2832 H   0  0  0  0  0  0
  -22.4019  -11.9806   22.4807 H   0  0  0  0  0  0
  -21.1033  -13.1149   22.2669 H   0  0  0  0  0  0
  -24.6343  -15.8553   20.5415 H   0  0  0  0  0  0
  -26.2444  -15.6267   20.0677 H   0  0  0  0  0  0
  -26.7487  -32.5067   23.0836 H   0  0  0  0  0  0
  -25.0279  -33.9429   25.0226 H   0  0  0  0  0  0
  -22.8277  -31.2554   21.3235 H   0  0  0  0  0  0
  -23.3760  -35.9452   23.3288 H   0  0  0  0  0  0
  -24.3540  -36.8820   22.2068 H   0  0  0  0  0  0
  -23.7145  -37.6320   23.6707 H   0  0  0  0  0  0
  -26.2600  -31.2986   20.6041 H   0  0  0  0  0  0
  -26.9339  -30.6528   22.0547 H   0  0  0  0  0  0
  -28.1702  -28.4857   21.2951 H   0  0  0  0  0  0
  -25.8564  -25.6369   19.0591 H   0  0  0  0  0  0
  -24.0191  -27.2135   18.9673 H   0  0  0  0  0  0
  -23.9220  -30.4736   19.3813 H   0  0  0  0  0  0
  -22.8575  -29.1768   19.8234 H   0  0  0  0  0  0
  -25.1301  -36.1727   25.0793 H   0  0  0  0  0  0
  -21.0059  -28.3446   24.1279 H   0  0  0  0  0  0
  -20.5729  -26.2452   23.3696 H   0  0  0  0  0  0
  -21.6673  -26.7486   22.1197 H   0  0  0  0  0  0
  -19.6954  -25.6288   21.1320 H   0  0  0  0  0  0
  -19.6704  -27.3172   20.6743 H   0  0  0  0  0  0
  -17.4243  -26.6765   21.4004 H   0  0  0  0  0  0
  -18.0292  -26.0146   22.9016 H   0  0  0  0  0  0
  -19.7997  -30.7364   24.2175 H   0  0  0  0  0  0
  -17.5070  -31.6309   24.5177 H   0  0  0  0  0  0
  -15.5387  -30.3011   23.7745 H   0  0  0  0  0  0
  -15.8715  -28.0863   22.7119 H   0  0  0  0  0  0
  -24.5930  -30.7108   25.7620 H   0  0  0  0  0  0
  -24.8781  -32.3070   26.4489 H   0  0  0  0  0  0
  -25.7856  -30.9208   27.0268 H   0  0  0  0  0  0
  -26.3216  -29.6533   24.1481 H   0  0  0  0  0  0
  -27.3972  -29.7327   25.5218 H   0  0  0  0  0  0
  -27.9172  -30.4061   23.9989 H   0  0  0  0  0  0
  -27.2679  -33.3739   26.1879 H   0  0  0  0  0  0
  -28.4000  -32.6712   25.0403 H   0  0  0  0  0  0
  -28.0606  -31.8598   26.5599 H   0  0  0  0  0  0
  -28.2553  -38.0022   24.7554 H   0  0  0  0  0  0
  -28.0987  -36.2566   24.6237 H   0  0  0  0  0  0
  -27.2284  -37.1335   25.8890 H   0  0  0  0  0  0
  -20.9702  -29.8728   21.6538 H   0  0  0  0  0  0
  -26.0053  -38.2771   24.1481 H   0  0  0  0  0  0
  -27.8481  -18.6517   22.4658 H   0  0  0  0  0  0
  -28.1607  -16.9223   22.5450 H   0  0  0  0  0  0
  -30.3957  -17.2615   22.9940 H   0  0  0  0  0  0
  -30.1417  -19.0028   23.0502 H   0  0  0  0  0  0
  -27.2330  -19.6345   20.1099 H   0  0  0  0  0  0
  -28.4526  -19.4124   18.9145 H   0  0  0  0  0  0
  -30.8238  -19.9281   19.5424 H   0  0  0  0  0  0
  -31.1232  -20.4256   21.1658 H   0  0  0  0  0  0
  -27.7351  -17.1632   20.2010 H   0  0  0  0  0  0
  -31.6489  -17.9884   21.0809 H   0  0  0  0  0  0
  -30.0022  -22.6335   20.5257 H   0  0  0  0  0  0
  -29.2196  -22.3161   19.0418 H   0  0  0  0  0  0
  -27.8260  -23.8465   21.5087 H   0  0  0  0  0  0
  -27.0890  -23.7235   19.9750 H   0  0  0  0  0  0
  -28.8155  -20.6729   21.5584 H   0  0  0  0  0  0
  1 25  1  0  0  0
  1 30  2  0  0  0
  1 79  1  0  0  0
  2  3  1  0  0  0
  2 25  1  0  0  0
  2 81  1  0  0  0
  2 82  1  0  0  0
  3  4  1  0  0  0
  3 83  1  0  0  0
  3 84  1  0  0  0
  4  5  1  0  0  0
  4 85  1  0  0  0
  4 86  1  0  0  0
  5  6  1  0  0  0
  5 26  1  0  0  0
  5 87  1  0  0  0
  6 25  1  0  0  0
  6 88  1  0  0  0
  6 89  1  0  0  0
  7  8  2  0  0  0
  7 26  1  0  0  0
  7 29  1  0  0  0
  8  9  1  0  0  0
  8 22  1  0  0  0
  9 10  1  0  0  0
  9 27  2  0  0  0
 10 11  2  0  0  0
 10 15  1  0  0  0
 11 12  1  0  0  0
 11 90  1  0  0  0
 12 13  2  0  0  0
 12 91  1  0  0  0
 13 14  1  0  0  0
 13 31  1  0  0  0
 14 15  2  0  0  0
 14 92  1  0  0  0
 15 93  1  0  0  0
 16 17  2  0  0  0
 16 21  1  0  0  0
 16 31  1  0  0  0
 17 18  1  0  0  0
 17 94  1  0  0  0
 18 19  2  0  0  0
 18 95  1  0  0  0
 19 20  1  0  0  0
 19 24  1  0  0  0
 20 21  2  0  0  0
 20 96  1  0  0  0
 21 23  1  0  0  0
 22 28  1  0  0  0
 22 32  2  0  0  0
 26 27  1  0  0  0
 28 97  1  0  0  0
 28 98  1  0  0  0
 29 99  1  0  0  0
 29100  1  0  0  0
 33 34  1  0  0  0
 33 66  1  0  0  0
 33 70  2  0  0  0
 34 36  1  0  0  0
 34 59  1  0  0  0
 34101  1  0  0  0
 35 44  2  0  0  0
 35 45  1  0  0  0
 35 68  1  0  0  0
 36 56  1  0  0  0
 36102  1  0  0  0
 37 39  1  0  0  0
 37 47  1  0  0  0
 37 66  1  0  0  0
 37103  1  0  0  0
 38 43  2  0  0  0
 38 46  1  0  0  0
 38 47  1  0  0  0
 39 64  1  0  0  0
 39 67  2  0  0  0
 40 52  1  0  0  0
 40 53  2  0  0  0
 40 58  1  0  0  0
 41104  1  0  0  0
 41105  1  0  0  0
 41106  1  0  0  0
 41 48  1  0  0  0
 42 43  1  0  0  0
 42 66  1  0  0  0
 42107  1  0  0  0
 42108  1  0  0  0
 43 44  1  0  0  0
 44109  1  0  0  0
 45 46  2  0  0  0
 45110  1  0  0  0
 46111  1  0  0  0
 47112  1  0  0  0
 47113  1  0  0  0
 48 56  1  0  0  0
 48 65  1  0  0  0
 48114  1  0  0  0
 49 50  1  0  0  0
 49 53  1  0  0  0
 49 64  1  0  0  0
 49115  1  0  0  0
 50 51  1  0  0  0
 50116  1  0  0  0
 50117  1  0  0  0
 51 52  1  0  0  0
 51118  1  0  0  0
 51119  1  0  0  0
 52120  1  0  0  0
 52121  1  0  0  0
 53 54  1  0  0  0
 54 55  2  0  0  0
 54122  1  0  0  0
 55 57  1  0  0  0
 55123  1  0  0  0
 56 69  2  0  0  0
 57 58  2  0  0  0
 57124  1  0  0  0
 58125  1  0  0  0
 59 60  1  0  0  0
 59 61  1  0  0  0
 59 62  1  0  0  0
 60126  1  0  0  0
 60127  1  0  0  0
 60128  1  0  0  0
 61129  1  0  0  0
 61130  1  0  0  0
 61131  1  0  0  0
 62132  1  0  0  0
 62133  1  0  0  0
 62134  1  0  0  0
 63 65  1  0  0  0
 63135  1  0  0  0
 63136  1  0  0  0
 63137  1  0  0  0
 64138  1  0  0  0
 65139  1  0  0  0
 68 78  1  0  0  0
 71 72  1  0  0  0
 71140  1  0  0  0
 71141  1  0  0  0
 71 75  1  0  0  0
 72142  1  0  0  0
 72143  1  0  0  0
 72 76  1  0  0  0
 73 75  1  0  0  0
 73 80  1  0  0  0
 73144  1  0  0  0
 73145  1  0  0  0
 74 76  1  0  0  0
 74 80  1  0  0  0
 74146  1  0  0  0
 74147  1  0  0  0
 75 79  1  0  0  0
 75148  1  0  0  0
 76 79  1  0  0  0
 76149  1  0  0  0
 77 78  1  0  0  0
 77150  1  0  0  0
 77151  1  0  0  0
 77 80  1  0  0  0
 78152  1  0  0  0
 78153  1  0  0  0
 80154  1  0  0  0
M  CHG  1  80   1
M  ISO  4   1 100  68 101  78 101  79 100
M  END
> <chiral flag>
0

> <version>
0

> <s_m_source_file>
/data/baiqing/PycharmProjects/Reinvent-master-3.2/result/LINK_invent/BTK/process_docking_weight1_custom_sum_contain_oxygen_bond_distance_aromatic_linkinvent_7_9_3/rearranged_h_0188.sdf

> <i_m_source_file_index>
69

> <r_mmod_Potential_Energy-OPLS-2005>
2279.62524414062

> <r_mmod_Stretch_Energy-OPLS-2005>
831.736022949219

> <r_mmod_Bend_Energy-OPLS-2005>
747.230834960938

> <r_mmod_Torsional_Energy-OPLS-2005>
455.982482910156

> <r_mmod_Improper_Torsional_Energy-OPLS-2005>
7.76755905151367

> <r_mmod_Van_der_Waal_Energy-OPLS-2005>
115.240798950195

> <r_mmod_Electrostatic_Energy-OPLS-2005>
-157.647155761719

> <r_mmod_Solvation_Energy-OPLS-2005>
-434.920867919922

> <b_mmod_Minimization_Converged-OPLS-2005>
0

> <r_mmod_RMS_Derivative-OPLS-2005>
5.17113733291626

$$$$
70
                    3D
 Structure written by MMmdl.
152161  0  0  1  0            999 V2000
  -30.4623  -15.1846   20.4009 C   0  0  0  0  0  0
  -30.4354  -12.7542   19.5248 C   0  0  0  0  0  0
  -29.5313  -12.5675   18.2807 C   0  0  0  0  0  0
  -28.0763  -12.3011   18.7051 C   0  0  0  0  0  0
  -27.6125  -13.2666   19.8247 C   0  0  2  0  0  0
  -28.6449  -13.4029   20.9636 C   0  0  0  0  0  0
  -25.2382  -13.8221   20.5717 C   0  0  0  0  0  0
  -24.1732  -13.0415   20.9236 C   0  0  0  0  0  0
  -24.6379  -11.6908   20.8741 C   0  0  0  0  0  0
  -23.9068  -10.4265   21.0398 C   0  0  0  0  0  0
  -24.3615   -9.4189   21.9180 C   0  0  0  0  0  0
  -23.6285   -8.2237   22.0760 C   0  0  0  0  0  0
  -22.4275   -8.0265   21.3541 C   0  0  0  0  0  0
  -21.9903   -9.0233   20.4643 C   0  0  0  0  0  0
  -22.7234  -10.2111   20.3046 C   0  0  0  0  0  0
  -21.6856   -6.0723   22.5273 C   0  0  0  0  0  0
  -21.4013   -6.5634   23.8204 C   0  0  0  0  0  0
  -21.3654   -5.6790   24.9169 C   0  0  0  0  0  0
  -21.6050   -4.3052   24.7226 C   0  0  0  0  0  0
  -21.8811   -3.8133   23.4347 C   0  0  0  0  0  0
  -21.9191   -4.6949   22.3402 C   0  0  0  0  0  0
  -22.7749  -13.5181   21.1879 C   0  0  0  0  0  0
  -22.1660   -4.2128   21.0981 F   0  0  0  0  0  0
  -21.5626   -3.4540   25.7745 F   0  0  0  0  0  0
  -29.8895  -13.8893   20.3495 N   0  0  0  0  0  0
  -26.2804  -12.9488   20.3194 N   0  0  0  0  0  0
  -25.9314  -11.6595   20.5702 N   0  0  0  0  0  0
  -22.0405  -12.8167   22.0437 N   0  0  0  0  0  0
  -25.3997  -15.1956   20.4132 N   0  0  0  0  0  0
  -31.6794  -15.1890   20.1710 O   0  0  0  0  0  0
  -21.6644   -6.8861   21.4235 O   0  0  0  0  0  0
  -22.3436  -14.5489   20.6721 O   0  0  0  0  0  0
  -24.6565  -31.8289   23.1728 C   0  0  0  0  0  0
  -25.9283  -32.4603   23.8167 C   0  0  1  0  0  0
  -27.2053  -26.9855   20.1745 C   0  0  0  0  0  0
  -25.5967  -33.8414   24.2077 N   0  0  0  0  0  0
  -23.4655  -30.4488   21.5194 C   0  0  2  0  0  0
  -24.9173  -28.8510   20.1067 C   0  0  0  0  0  0
  -22.7623  -29.4500   22.4745 C   0  0  0  0  0  0
  -18.0333  -28.1426   22.8454 C   0  0  0  0  0  0
  -24.1503  -36.7210   23.2647 C   0  0  0  0  0  0
  -26.0322  -30.6586   21.3910 C   0  0  0  0  0  0
  -26.1001  -29.2544   20.7386 C   0  0  0  0  0  0
  -27.2413  -28.3414   20.7518 C   0  0  0  0  0  0
  -25.9961  -26.7308   19.4848 C   0  0  0  0  0  0
  -24.8874  -27.6073   19.4624 C   0  0  0  0  0  0
  -23.7011  -29.7701   20.1434 C   0  0  0  0  0  0
  -25.4127  -36.2953   24.0304 C   0  0  1  0  0  0
  -20.5947  -28.3764   23.1175 C   0  0  2  0  0  0
  -20.6816  -26.9450   22.5379 C   0  0  0  0  0  0
  -19.5792  -26.6391   21.5191 C   0  0  0  0  0  0
  -18.1968  -26.7958   22.1599 C   0  0  0  0  0  0
  -19.1590  -28.8905   23.2818 C   0  0  0  0  0  0
  -18.9510  -30.1491   23.8861 C   0  0  0  0  0  0
  -17.6507  -30.6607   24.0569 C   0  0  0  0  0  0
  -25.9095  -34.9354   23.4998 C   0  0  0  0  0  0
  -16.5395  -29.9102   23.6354 C   0  0  0  0  0  0
  -16.7321  -28.6532   23.0351 C   0  0  0  0  0  0
  -26.4592  -31.6514   25.0652 C   0  0  0  0  0  0
  -25.3743  -31.3697   26.1306 C   0  0  0  0  0  0
  -27.0508  -30.2910   24.6294 C   0  0  0  0  0  0
  -27.6095  -32.4314   25.7453 C   0  0  0  0  0  0
  -27.5560  -37.1754   24.8472 C   0  0  0  0  0  0
  -21.4296  -29.3066   22.3513 N   0  0  0  0  0  0
  -26.4269  -37.3688   23.9422 N   0  0  0  0  0  0
  -24.7396  -31.0035   22.0818 N   0  0  0  0  0  0
  -23.4208  -28.8046   23.2939 O   0  0  0  0  0  0
  -28.1893  -25.8841   20.2770 O   0  0  0  0  0  0
  -26.5697  -34.8892   22.4591 O   0  0  0  0  0  0
  -23.5656  -32.1215   23.6879 O   0  0  0  0  0  0
  -28.7054  -21.9199   21.4140 C   0  0  0  0  0  0
  -28.5130  -22.7862   20.2897 C   0  0  0  0  0  0
  -29.0879  -20.5173   19.7275 C   0  0  0  0  0  0
  -29.4048  -19.0381   19.2354 C   0  0  0  0  0  0
  -29.2563  -19.1238   21.5916 C   0  0  0  0  0  0
  -29.9144  -18.0879   20.4763 C   0  0  2  0  0  0
  -31.4392  -18.2966   20.5762 C   0  0  0  0  0  0
  -27.8003  -24.3339   20.0138 C   0  0  0  0  0  0
  -29.0297  -20.5705   21.0251 N   0  0  0  0  0  0
  -28.7835  -21.8024   19.2729 N   0  3  0  0  0  0
  -29.6914  -16.4361   20.5138 N   0  0  0  0  0  0
  -31.4609  -12.9423   19.2030 H   0  0  0  0  0  0
  -30.4776  -11.8351   20.1116 H   0  0  0  0  0  0
  -29.8994  -11.7478   17.6625 H   0  0  0  0  0  0
  -29.5729  -13.4640   17.6602 H   0  0  0  0  0  0
  -28.0251  -11.2728   19.0646 H   0  0  0  0  0  0
  -27.4072  -12.3555   17.8450 H   0  0  0  0  0  0
  -27.5398  -14.2424   19.3446 H   0  0  0  0  0  0
  -28.7909  -12.4550   21.4828 H   0  0  0  0  0  0
  -28.2953  -14.1156   21.7116 H   0  0  0  0  0  0
  -25.2760   -9.5682   22.4749 H   0  0  0  0  0  0
  -23.9986   -7.4643   22.7497 H   0  0  0  0  0  0
  -21.0829   -8.8739   19.8961 H   0  0  0  0  0  0
  -22.3679  -10.9639   19.6149 H   0  0  0  0  0  0
  -21.2012   -7.6142   23.9699 H   0  0  0  0  0  0
  -21.1484   -6.0528   25.9070 H   0  0  0  0  0  0
  -22.0597   -2.7591   23.2861 H   0  0  0  0  0  0
  -22.4041  -11.9848   22.4843 H   0  0  0  0  0  0
  -21.1009  -13.1172   22.2615 H   0  0  0  0  0  0
  -24.6173  -15.8344   20.5078 H   0  0  0  0  0  0
  -26.2258  -15.6347   20.0285 H   0  0  0  0  0  0
  -26.7331  -32.5197   23.0868 H   0  0  0  0  0  0
  -25.0119  -33.9497   25.0229 H   0  0  0  0  0  0
  -22.7766  -31.2801   21.3525 H   0  0  0  0  0  0
  -23.3766  -35.9538   23.3260 H   0  0  0  0  0  0
  -24.3578  -36.8895   22.2070 H   0  0  0  0  0  0
  -23.7272  -37.6390   23.6733 H   0  0  0  0  0  0
  -26.1983  -31.3997   20.6074 H   0  0  0  0  0  0
  -26.9001  -30.7176   22.0361 H   0  0  0  0  0  0
  -28.1344  -28.6428   21.2792 H   0  0  0  0  0  0
  -25.8574  -25.7874   18.9792 H   0  0  0  0  0  0
  -23.9871  -27.2938   18.9518 H   0  0  0  0  0  0
  -23.8488  -30.5392   19.3842 H   0  0  0  0  0  0
  -22.8121  -29.2202   19.8277 H   0  0  0  0  0  0
  -25.1326  -36.1731   25.0791 H   0  0  0  0  0  0
  -21.0067  -28.3383   24.1283 H   0  0  0  0  0  0
  -20.5690  -26.2385   23.3616 H   0  0  0  0  0  0
  -21.6685  -26.7430   22.1182 H   0  0  0  0  0  0
  -19.6958  -25.6288   21.1250 H   0  0  0  0  0  0
  -19.6739  -27.3181   20.6706 H   0  0  0  0  0  0
  -17.4230  -26.6703   21.4012 H   0  0  0  0  0  0
  -18.0378  -26.0111   22.9005 H   0  0  0  0  0  0
  -19.7989  -30.7313   24.2210 H   0  0  0  0  0  0
  -17.5069  -31.6284   24.5173 H   0  0  0  0  0  0
  -15.5398  -30.3002   23.7695 H   0  0  0  0  0  0
  -15.8721  -28.0847   22.7083 H   0  0  0  0  0  0
  -24.5995  -30.6974   25.7587 H   0  0  0  0  0  0
  -24.8866  -32.2874   26.4609 H   0  0  0  0  0  0
  -25.7998  -30.8951   27.0150 H   0  0  0  0  0  0
  -26.3166  -29.6570   24.1308 H   0  0  0  0  0  0
  -27.4132  -29.7256   25.4886 H   0  0  0  0  0  0
  -27.9045  -30.4150   23.9627 H   0  0  0  0  0  0
  -27.2696  -33.3694   26.1847 H   0  0  0  0  0  0
  -28.4002  -32.6720   25.0334 H   0  0  0  0  0  0
  -28.0644  -31.8545   26.5510 H   0  0  0  0  0  0
  -28.2531  -38.0095   24.7512 H   0  0  0  0  0  0
  -28.1101  -36.2610   24.6292 H   0  0  0  0  0  0
  -27.2275  -37.1370   25.8875 H   0  0  0  0  0  0
  -20.9513  -29.8762   21.6677 H   0  0  0  0  0  0
  -26.0104  -38.2729   24.1451 H   0  0  0  0  0  0
  -28.5602  -22.1567   22.4586 H   0  0  0  0  0  0
  -30.1310  -19.1048   18.4253 H   0  0  0  0  0  0
  -28.4714  -18.6595   18.8200 H   0  0  0  0  0  0
  -29.8562  -19.1939   22.5002 H   0  0  0  0  0  0
  -28.2743  -18.7582   21.8938 H   0  0  0  0  0  0
  -31.7081  -19.3548   20.5745 H   0  0  0  0  0  0
  -31.9661  -17.8324   19.7420 H   0  0  0  0  0  0
  -31.8335  -17.8707   21.4992 H   0  0  0  0  0  0
  -26.8235  -24.2436   20.4907 H   0  0  0  0  0  0
  -27.5731  -24.3223   18.9471 H   0  0  0  0  0  0
  -28.6946  -22.0138   18.2867 H   0  0  0  0  0  0
  -28.7156  -16.2124   20.6496 H   0  0  0  0  0  0
  1 25  1  0  0  0
  1 30  2  0  0  0
  1 81  1  0  0  0
  2  3  1  0  0  0
  2 25  1  0  0  0
  2 82  1  0  0  0
  2 83  1  0  0  0
  3  4  1  0  0  0
  3 84  1  0  0  0
  3 85  1  0  0  0
  4  5  1  0  0  0
  4 86  1  0  0  0
  4 87  1  0  0  0
  5  6  1  0  0  0
  5 26  1  0  0  0
  5 88  1  0  0  0
  6 25  1  0  0  0
  6 89  1  0  0  0
  6 90  1  0  0  0
  7  8  2  0  0  0
  7 26  1  0  0  0
  7 29  1  0  0  0
  8  9  1  0  0  0
  8 22  1  0  0  0
  9 10  1  0  0  0
  9 27  2  0  0  0
 10 11  2  0  0  0
 10 15  1  0  0  0
 11 12  1  0  0  0
 11 91  1  0  0  0
 12 13  2  0  0  0
 12 92  1  0  0  0
 13 14  1  0  0  0
 13 31  1  0  0  0
 14 15  2  0  0  0
 14 93  1  0  0  0
 15 94  1  0  0  0
 16 17  2  0  0  0
 16 21  1  0  0  0
 16 31  1  0  0  0
 17 18  1  0  0  0
 17 95  1  0  0  0
 18 19  2  0  0  0
 18 96  1  0  0  0
 19 20  1  0  0  0
 19 24  1  0  0  0
 20 21  2  0  0  0
 20 97  1  0  0  0
 21 23  1  0  0  0
 22 28  1  0  0  0
 22 32  2  0  0  0
 26 27  1  0  0  0
 28 98  1  0  0  0
 28 99  1  0  0  0
 29100  1  0  0  0
 29101  1  0  0  0
 33 34  1  0  0  0
 33 66  1  0  0  0
 33 70  2  0  0  0
 34 36  1  0  0  0
 34 59  1  0  0  0
 34102  1  0  0  0
 35 44  2  0  0  0
 35 45  1  0  0  0
 35 68  1  0  0  0
 36 56  1  0  0  0
 36103  1  0  0  0
 37 39  1  0  0  0
 37 47  1  0  0  0
 37 66  1  0  0  0
 37104  1  0  0  0
 38 43  2  0  0  0
 38 46  1  0  0  0
 38 47  1  0  0  0
 39 64  1  0  0  0
 39 67  2  0  0  0
 40 52  1  0  0  0
 40 53  2  0  0  0
 40 58  1  0  0  0
 41105  1  0  0  0
 41106  1  0  0  0
 41107  1  0  0  0
 41 48  1  0  0  0
 42 43  1  0  0  0
 42 66  1  0  0  0
 42108  1  0  0  0
 42109  1  0  0  0
 43 44  1  0  0  0
 44110  1  0  0  0
 45 46  2  0  0  0
 45111  1  0  0  0
 46112  1  0  0  0
 47113  1  0  0  0
 47114  1  0  0  0
 48 56  1  0  0  0
 48 65  1  0  0  0
 48115  1  0  0  0
 49 50  1  0  0  0
 49 53  1  0  0  0
 49 64  1  0  0  0
 49116  1  0  0  0
 50 51  1  0  0  0
 50117  1  0  0  0
 50118  1  0  0  0
 51 52  1  0  0  0
 51119  1  0  0  0
 51120  1  0  0  0
 52121  1  0  0  0
 52122  1  0  0  0
 53 54  1  0  0  0
 54 55  2  0  0  0
 54123  1  0  0  0
 55 57  1  0  0  0
 55124  1  0  0  0
 56 69  2  0  0  0
 57 58  2  0  0  0
 57125  1  0  0  0
 58126  1  0  0  0
 59 60  1  0  0  0
 59 61  1  0  0  0
 59 62  1  0  0  0
 60127  1  0  0  0
 60128  1  0  0  0
 60129  1  0  0  0
 61130  1  0  0  0
 61131  1  0  0  0
 61132  1  0  0  0
 62133  1  0  0  0
 62134  1  0  0  0
 62135  1  0  0  0
 63 65  1  0  0  0
 63136  1  0  0  0
 63137  1  0  0  0
 63138  1  0  0  0
 64139  1  0  0  0
 65140  1  0  0  0
 68 78  1  0  0  0
 71 72  2  0  0  0
 71 79  1  0  0  0
 71141  1  0  0  0
 72 78  1  0  0  0
 72 80  1  0  0  0
 73 74  1  0  0  0
 73 79  1  0  0  0
 73 80  2  0  0  0
 74 76  1  0  0  0
 74142  1  0  0  0
 74143  1  0  0  0
 75 76  1  0  0  0
 75 79  1  0  0  0
 75144  1  0  0  0
 75145  1  0  0  0
 76 77  1  0  0  0
 76 81  1  0  0  0
 77146  1  0  0  0
 77147  1  0  0  0
 77148  1  0  0  0
 78149  1  0  0  0
 78150  1  0  0  0
 80151  1  0  0  0
 81152  1  0  0  0
M  CHG  1  80   1
M  ISO  4   1 100  68 101  78 101  81 100
M  END
> <chiral flag>
0

> <version>
0

> <s_m_source_file>
/data/baiqing/PycharmProjects/Reinvent-master-3.2/result/LINK_invent/BTK/process_docking_weight1_custom_sum_contain_oxygen_bond_distance_aromatic_linkinvent_7_9_3/rearranged_h_0188.sdf

> <i_m_source_file_index>
70

> <r_mmod_Potential_Energy-OPLS-2005>
933.703552246094

> <r_mmod_Stretch_Energy-OPLS-2005>
433.345092773438

> <r_mmod_Bend_Energy-OPLS-2005>
424.302429199219

> <r_mmod_Torsional_Energy-OPLS-2005>
230.588760375977

> <r_mmod_Improper_Torsional_Energy-OPLS-2005>
6.39053821563721

> <r_mmod_Van_der_Waal_Energy-OPLS-2005>
109.892890930176

> <r_mmod_Electrostatic_Energy-OPLS-2005>
-204.576324462891

> <r_mmod_Solvation_Energy-OPLS-2005>
-447.521667480469

> <b_mmod_Minimization_Converged-OPLS-2005>
0

> <r_mmod_RMS_Derivative-OPLS-2005>
2.33415603637695

$$$$
71
                    3D
 Structure written by MMmdl.
154163  0  0  1  0            999 V2000
  -30.6538  -14.8035   20.4560 C   0  0  0  0  0  0
  -30.4150  -12.5045   19.4793 C   0  0  0  0  0  0
  -29.5018  -12.5054   18.2376 C   0  0  0  0  0  0
  -28.0349  -12.3154   18.6620 C   0  0  0  0  0  0
  -27.6279  -13.2453   19.8368 C   0  0  2  0  0  0
  -28.6748  -13.2551   20.9705 C   0  0  0  0  0  0
  -25.2435  -13.8216   20.5695 C   0  0  0  0  0  0
  -24.1762  -13.0437   20.9238 C   0  0  0  0  0  0
  -24.6384  -11.6925   20.8768 C   0  0  0  0  0  0
  -23.9069  -10.4292   21.0410 C   0  0  0  0  0  0
  -24.3623   -9.4206   21.9185 C   0  0  0  0  0  0
  -23.6299   -8.2237   22.0750 C   0  0  0  0  0  0
  -22.4283   -8.0275   21.3536 C   0  0  0  0  0  0
  -21.9919   -9.0250   20.4639 C   0  0  0  0  0  0
  -22.7243  -10.2130   20.3057 C   0  0  0  0  0  0
  -21.6853   -6.0731   22.5276 C   0  0  0  0  0  0
  -21.4017   -6.5639   23.8210 C   0  0  0  0  0  0
  -21.3659   -5.6793   24.9174 C   0  0  0  0  0  0
  -21.6042   -4.3056   24.7224 C   0  0  0  0  0  0
  -21.8819   -3.8145   23.4348 C   0  0  0  0  0  0
  -21.9193   -4.6959   22.3403 C   0  0  0  0  0  0
  -22.7780  -13.5195   21.1893 C   0  0  0  0  0  0
  -22.1659   -4.2144   21.0980 F   0  0  0  0  0  0
  -21.5627   -3.4543   25.7735 F   0  0  0  0  0  0
  -29.9574  -13.6126   20.3575 N   0  0  0  0  0  0
  -26.2872  -12.9453   20.3261 N   0  0  0  0  0  0
  -25.9320  -11.6581   20.5771 N   0  0  0  0  0  0
  -22.0439  -12.8176   22.0451 N   0  0  0  0  0  0
  -25.4067  -15.1930   20.4033 N   0  0  0  0  0  0
  -31.8627  -14.7825   20.2132 O   0  0  0  0  0  0
  -21.6646   -6.8872   21.4235 O   0  0  0  0  0  0
  -22.3456  -14.5492   20.6731 O   0  0  0  0  0  0
  -24.6364  -31.8526   23.1974 C   0  0  0  0  0  0
  -25.9172  -32.4739   23.8334 C   0  0  1  0  0  0
  -27.2047  -27.2148   20.1359 C   0  0  0  0  0  0
  -25.5949  -33.8546   24.2255 N   0  0  0  0  0  0
  -23.4348  -30.4773   21.5406 C   0  0  2  0  0  0
  -24.8792  -28.9188   20.1112 C   0  0  0  0  0  0
  -22.7530  -29.4609   22.4885 C   0  0  0  0  0  0
  -18.0313  -28.1384   22.8472 C   0  0  0  0  0  0
  -24.1489  -36.7275   23.2641 C   0  0  0  0  0  0
  -25.9864  -30.7493   21.3856 C   0  0  0  0  0  0
  -26.0547  -29.3689   20.7259 C   0  0  0  0  0  0
  -27.2227  -28.5311   20.7251 C   0  0  0  0  0  0
  -26.0108  -26.8542   19.4742 C   0  0  0  0  0  0
  -24.8651  -27.6713   19.4725 C   0  0  0  0  0  0
  -23.6553  -29.8139   20.1566 C   0  0  0  0  0  0
  -25.4119  -36.3065   24.0330 C   0  0  1  0  0  0
  -20.5918  -28.3720   23.1253 C   0  0  2  0  0  0
  -20.6808  -26.9430   22.5421 C   0  0  0  0  0  0
  -19.5796  -26.6380   21.5210 C   0  0  0  0  0  0
  -18.1974  -26.7911   22.1622 C   0  0  0  0  0  0
  -19.1560  -28.8873   23.2857 C   0  0  0  0  0  0
  -18.9464  -30.1473   23.8882 C   0  0  0  0  0  0
  -17.6454  -30.6584   24.0551 C   0  0  0  0  0  0
  -25.9065  -34.9430   23.5095 C   0  0  0  0  0  0
  -16.5356  -29.9067   23.6322 C   0  0  0  0  0  0
  -16.7296  -28.6488   23.0341 C   0  0  0  0  0  0
  -26.4517  -31.6580   25.0742 C   0  0  0  0  0  0
  -25.3721  -31.3746   26.1449 C   0  0  0  0  0  0
  -27.0375  -30.2989   24.6269 C   0  0  0  0  0  0
  -27.6061  -32.4331   25.7518 C   0  0  0  0  0  0
  -27.5580  -37.1796   24.8467 C   0  0  0  0  0  0
  -21.4227  -29.3067   22.3633 N   0  0  0  0  0  0
  -26.4291  -37.3763   23.9411 N   0  0  0  0  0  0
  -24.7054  -31.0462   22.0962 N   0  0  0  0  0  0
  -23.4208  -28.8147   23.2999 O   0  0  0  0  0  0
  -28.2736  -26.2757   20.1684 O   0  0  0  0  0  0
  -26.5632  -34.8907   22.4665 O   0  0  0  0  0  0
  -23.5502  -32.1367   23.7246 O   0  0  0  0  0  0
  -28.5058  -20.9772   22.8445 C   0  0  0  0  0  0
  -28.7736  -19.7040   22.2120 C   0  0  0  0  0  0
  -28.5520  -22.1099   22.1252 C   0  0  0  0  0  0
  -29.1037  -19.5890   20.9055 C   0  0  0  0  0  0
  -29.1308  -20.9047   20.1057 C   0  0  0  0  0  0
  -30.6904  -17.4070   20.2695 C   0  0  0  0  0  0
  -28.8715  -16.7795   21.0206 C   0  0  0  0  0  0
  -29.2998  -18.1111   20.2644 C   0  0  0  0  0  0
  -29.0039  -23.5617   20.1433 C   0  0  0  0  0  0
  -27.9760  -24.8059   20.4609 C   0  0  0  0  0  0
  -28.8425  -22.1362   20.7500 N   0  0  0  0  0  0
  -30.0291  -16.0654   20.4086 N   0  0  0  0  0  0
  -29.4192  -20.9047   18.9048 O   0  0  0  0  0  0
  -31.4560  -12.6124   19.1694 H   0  0  0  0  0  0
  -30.3563  -11.5492   20.0040 H   0  0  0  0  0  0
  -29.7985  -11.7151   17.5469 H   0  0  0  0  0  0
  -29.6127  -13.4475   17.6983 H   0  0  0  0  0  0
  -27.9174  -11.2735   18.9621 H   0  0  0  0  0  0
  -27.3687  -12.4620   17.8102 H   0  0  0  0  0  0
  -27.6005  -14.2521   19.4190 H   0  0  0  0  0  0
  -28.7336  -12.2836   21.4627 H   0  0  0  0  0  0
  -28.4028  -13.9802   21.7398 H   0  0  0  0  0  0
  -25.2764   -9.5688   22.4771 H   0  0  0  0  0  0
  -24.0001   -7.4627   22.7476 H   0  0  0  0  0  0
  -21.0847   -8.8771   19.8948 H   0  0  0  0  0  0
  -22.3695  -10.9673   19.6176 H   0  0  0  0  0  0
  -21.2013   -7.6150   23.9711 H   0  0  0  0  0  0
  -21.1483   -6.0527   25.9075 H   0  0  0  0  0  0
  -22.0600   -2.7610   23.2851 H   0  0  0  0  0  0
  -22.4072  -11.9840   22.4834 H   0  0  0  0  0  0
  -21.1055  -13.1183   22.2660 H   0  0  0  0  0  0
  -24.6316  -15.8408   20.4945 H   0  0  0  0  0  0
  -26.2410  -15.6245   20.0285 H   0  0  0  0  0  0
  -26.7240  -32.5361   23.1068 H   0  0  0  0  0  0
  -25.0087  -33.9678   25.0394 H   0  0  0  0  0  0
  -22.7345  -31.3030   21.3931 H   0  0  0  0  0  0
  -23.3754  -35.9603   23.3296 H   0  0  0  0  0  0
  -24.3581  -36.8904   22.2057 H   0  0  0  0  0  0
  -23.7241  -37.6472   23.6669 H   0  0  0  0  0  0
  -26.1356  -31.5077   20.6154 H   0  0  0  0  0  0
  -26.8604  -30.7959   22.0229 H   0  0  0  0  0  0
  -28.1216  -28.8692   21.2212 H   0  0  0  0  0  0
  -25.9345  -25.9165   18.9458 H   0  0  0  0  0  0
  -23.9699  -27.3263   18.9730 H   0  0  0  0  0  0
  -23.7868  -30.5910   19.4031 H   0  0  0  0  0  0
  -22.7701  -29.2542   19.8488 H   0  0  0  0  0  0
  -25.1303  -36.1909   25.0822 H   0  0  0  0  0  0
  -21.0016  -28.3326   24.1377 H   0  0  0  0  0  0
  -20.5706  -26.2345   23.3637 H   0  0  0  0  0  0
  -21.6686  -26.7445   22.1233 H   0  0  0  0  0  0
  -19.6975  -25.6290   21.1247 H   0  0  0  0  0  0
  -19.6717  -27.3193   20.6742 H   0  0  0  0  0  0
  -17.4257  -26.6653   21.4017 H   0  0  0  0  0  0
  -18.0372  -26.0048   22.9018 H   0  0  0  0  0  0
  -19.7930  -30.7306   24.2249 H   0  0  0  0  0  0
  -17.4991  -31.6261   24.5154 H   0  0  0  0  0  0
  -15.5352  -30.2959   23.7647 H   0  0  0  0  0  0
  -15.8702  -28.0790   22.7061 H   0  0  0  0  0  0
  -24.5907  -30.7083   25.7778 H   0  0  0  0  0  0
  -24.8897  -32.2915   26.4842 H   0  0  0  0  0  0
  -25.8025  -30.8947   27.0251 H   0  0  0  0  0  0
  -26.2981  -29.6720   24.1272 H   0  0  0  0  0  0
  -27.4012  -29.7274   25.4822 H   0  0  0  0  0  0
  -27.8877  -30.4251   23.9564 H   0  0  0  0  0  0
  -27.2670  -33.3646   26.2063 H   0  0  0  0  0  0
  -28.3886  -32.6873   25.0355 H   0  0  0  0  0  0
  -28.0710  -31.8477   26.5456 H   0  0  0  0  0  0
  -28.2598  -38.0091   24.7509 H   0  0  0  0  0  0
  -28.1076  -36.2624   24.6300 H   0  0  0  0  0  0
  -27.2297  -37.1454   25.8868 H   0  0  0  0  0  0
  -20.9411  -29.8780   21.6825 H   0  0  0  0  0  0
  -26.0167  -38.2837   24.1396 H   0  0  0  0  0  0
  -28.2850  -21.0162   23.9029 H   0  0  0  0  0  0
  -28.6904  -18.8242   22.8293 H   0  0  0  0  0  0
  -28.3891  -23.0732   22.5816 H   0  0  0  0  0  0
  -31.3080  -17.6768   21.1285 H   0  0  0  0  0  0
  -31.2468  -17.5443   19.3418 H   0  0  0  0  0  0
  -27.8951  -16.4070   20.7153 H   0  0  0  0  0  0
  -28.9396  -16.8191   22.1079 H   0  0  0  0  0  0
  -28.8813  -18.1087   19.2563 H   0  0  0  0  0  0
  -29.9984  -23.8879   20.4498 H   0  0  0  0  0  0
  -29.0696  -23.4648   19.0593 H   0  0  0  0  0  0
  -27.7472  -24.8021   21.5248 H   0  0  0  0  0  0
  -27.0400  -24.5099   19.9941 H   0  0  0  0  0  0
  1 25  1  0  0  0
  1 30  2  0  0  0
  1 82  1  0  0  0
  2  3  1  0  0  0
  2 25  1  0  0  0
  2 84  1  0  0  0
  2 85  1  0  0  0
  3  4  1  0  0  0
  3 86  1  0  0  0
  3 87  1  0  0  0
  4  5  1  0  0  0
  4 88  1  0  0  0
  4 89  1  0  0  0
  5  6  1  0  0  0
  5 26  1  0  0  0
  5 90  1  0  0  0
  6 25  1  0  0  0
  6 91  1  0  0  0
  6 92  1  0  0  0
  7  8  2  0  0  0
  7 26  1  0  0  0
  7 29  1  0  0  0
  8  9  1  0  0  0
  8 22  1  0  0  0
  9 10  1  0  0  0
  9 27  2  0  0  0
 10 11  2  0  0  0
 10 15  1  0  0  0
 11 12  1  0  0  0
 11 93  1  0  0  0
 12 13  2  0  0  0
 12 94  1  0  0  0
 13 14  1  0  0  0
 13 31  1  0  0  0
 14 15  2  0  0  0
 14 95  1  0  0  0
 15 96  1  0  0  0
 16 17  2  0  0  0
 16 21  1  0  0  0
 16 31  1  0  0  0
 17 18  1  0  0  0
 17 97  1  0  0  0
 18 19  2  0  0  0
 18 98  1  0  0  0
 19 20  1  0  0  0
 19 24  1  0  0  0
 20 21  2  0  0  0
 20 99  1  0  0  0
 21 23  1  0  0  0
 22 28  1  0  0  0
 22 32  2  0  0  0
 26 27  1  0  0  0
 28100  1  0  0  0
 28101  1  0  0  0
 29102  1  0  0  0
 29103  1  0  0  0
 33 34  1  0  0  0
 33 66  1  0  0  0
 33 70  2  0  0  0
 34 36  1  0  0  0
 34 59  1  0  0  0
 34104  1  0  0  0
 35 44  2  0  0  0
 35 45  1  0  0  0
 35 68  1  0  0  0
 36 56  1  0  0  0
 36105  1  0  0  0
 37 39  1  0  0  0
 37 47  1  0  0  0
 37 66  1  0  0  0
 37106  1  0  0  0
 38 43  2  0  0  0
 38 46  1  0  0  0
 38 47  1  0  0  0
 39 64  1  0  0  0
 39 67  2  0  0  0
 40 52  1  0  0  0
 40 53  2  0  0  0
 40 58  1  0  0  0
 41107  1  0  0  0
 41108  1  0  0  0
 41109  1  0  0  0
 41 48  1  0  0  0
 42 43  1  0  0  0
 42 66  1  0  0  0
 42110  1  0  0  0
 42111  1  0  0  0
 43 44  1  0  0  0
 44112  1  0  0  0
 45 46  2  0  0  0
 45113  1  0  0  0
 46114  1  0  0  0
 47115  1  0  0  0
 47116  1  0  0  0
 48 56  1  0  0  0
 48 65  1  0  0  0
 48117  1  0  0  0
 49 50  1  0  0  0
 49 53  1  0  0  0
 49 64  1  0  0  0
 49118  1  0  0  0
 50 51  1  0  0  0
 50119  1  0  0  0
 50120  1  0  0  0
 51 52  1  0  0  0
 51121  1  0  0  0
 51122  1  0  0  0
 52123  1  0  0  0
 52124  1  0  0  0
 53 54  1  0  0  0
 54 55  2  0  0  0
 54125  1  0  0  0
 55 57  1  0  0  0
 55126  1  0  0  0
 56 69  2  0  0  0
 57 58  2  0  0  0
 57127  1  0  0  0
 58128  1  0  0  0
 59 60  1  0  0  0
 59 61  1  0  0  0
 59 62  1  0  0  0
 60129  1  0  0  0
 60130  1  0  0  0
 60131  1  0  0  0
 61132  1  0  0  0
 61133  1  0  0  0
 61134  1  0  0  0
 62135  1  0  0  0
 62136  1  0  0  0
 62137  1  0  0  0
 63 65  1  0  0  0
 63138  1  0  0  0
 63139  1  0  0  0
 63140  1  0  0  0
 64141  1  0  0  0
 65142  1  0  0  0
 68 80  1  0  0  0
 71 72  1  0  0  0
 71 73  2  0  0  0
 71143  1  0  0  0
 72 74  2  0  0  0
 72144  1  0  0  0
 73 81  1  0  0  0
 73145  1  0  0  0
 74 75  1  0  0  0
 74 78  1  0  0  0
 75 81  1  0  0  0
 75 83  2  0  0  0
 76 78  1  0  0  0
 76 82  1  0  0  0
 76146  1  0  0  0
 76147  1  0  0  0
 77 78  1  0  0  0
 77 82  1  0  0  0
 77148  1  0  0  0
 77149  1  0  0  0
 78150  1  0  0  0
 79 80  1  0  0  0
 79 81  1  0  0  0
 79151  1  0  0  0
 79152  1  0  0  0
 80153  1  0  0  0
 80154  1  0  0  0
M  ISO  4   1 100  68 101  80 101  82 100
M  END
> <chiral flag>
0

> <version>
0

> <s_m_source_file>
/data/baiqing/PycharmProjects/Reinvent-master-3.2/result/LINK_invent/BTK/process_docking_weight1_custom_sum_contain_oxygen_bond_distance_aromatic_linkinvent_7_9_3/rearranged_h_0188.sdf

> <i_m_source_file_index>
71

> <r_mmod_Potential_Energy-OPLS-2005>
421.436889648438

> <r_mmod_Stretch_Energy-OPLS-2005>
169.665817260742

> <r_mmod_Bend_Energy-OPLS-2005>
227.350494384766

> <r_mmod_Torsional_Energy-OPLS-2005>
262.871185302734

> <r_mmod_Improper_Torsional_Energy-OPLS-2005>
14.9782018661499

> <r_mmod_Van_der_Waal_Energy-OPLS-2005>
142.645217895508

> <r_mmod_Electrostatic_Energy-OPLS-2005>
-297.870880126953

> <r_mmod_Solvation_Energy-OPLS-2005>
-218.821975708008

> <b_mmod_Minimization_Converged-OPLS-2005>
0

> <r_mmod_RMS_Derivative-OPLS-2005>
1.46841883659363

$$$$
72
                    3D
 Structure written by MMmdl.
158167  0  0  1  0            999 V2000
  -30.5206  -15.1066   20.4067 C   0  0  0  0  0  0
  -30.4348  -12.7031   19.5085 C   0  0  0  0  0  0
  -29.5217  -12.5598   18.2679 C   0  0  0  0  0  0
  -28.0612  -12.3148   18.6889 C   0  0  0  0  0  0
  -27.6177  -13.2597   19.8347 C   0  0  2  0  0  0
  -28.6638  -13.3467   20.9686 C   0  0  0  0  0  0
  -25.2356  -13.8179   20.5712 C   0  0  0  0  0  0
  -24.1715  -13.0395   20.9253 C   0  0  0  0  0  0
  -24.6378  -11.6902   20.8775 C   0  0  0  0  0  0
  -23.9078  -10.4274   21.0424 C   0  0  0  0  0  0
  -24.3622   -9.4184   21.9190 C   0  0  0  0  0  0
  -23.6293   -8.2223   22.0758 C   0  0  0  0  0  0
  -22.4277   -8.0268   21.3545 C   0  0  0  0  0  0
  -21.9919   -9.0242   20.4650 C   0  0  0  0  0  0
  -22.7258  -10.2114   20.3070 C   0  0  0  0  0  0
  -21.6846   -6.0739   22.5282 C   0  0  0  0  0  0
  -21.4017   -6.5641   23.8217 C   0  0  0  0  0  0
  -21.3663   -5.6790   24.9170 C   0  0  0  0  0  0
  -21.6040   -4.3052   24.7229 C   0  0  0  0  0  0
  -21.8813   -3.8151   23.4350 C   0  0  0  0  0  0
  -21.9191   -4.6969   22.3407 C   0  0  0  0  0  0
  -22.7735  -13.5160   21.1884 C   0  0  0  0  0  0
  -22.1645   -4.2147   21.0984 F   0  0  0  0  0  0
  -21.5636   -3.4542   25.7749 F   0  0  0  0  0  0
  -29.9086  -13.8322   20.3508 N   0  0  0  0  0  0
  -26.2821  -12.9461   20.3268 N   0  0  0  0  0  0
  -25.9322  -11.6580   20.5786 N   0  0  0  0  0  0
  -22.0387  -12.8179   22.0459 N   0  0  0  0  0  0
  -25.3867  -15.1896   20.4045 N   0  0  0  0  0  0
  -31.7309  -15.0904   20.1421 O   0  0  0  0  0  0
  -21.6624   -6.8883   21.4247 O   0  0  0  0  0  0
  -22.3418  -14.5466   20.6725 O   0  0  0  0  0  0
  -24.6518  -31.8353   23.1797 C   0  0  0  0  0  0
  -25.9252  -32.4645   23.8230 C   0  0  1  0  0  0
  -27.2140  -27.0359   20.1642 C   0  0  0  0  0  0
  -25.5973  -33.8459   24.2144 N   0  0  0  0  0  0
  -23.4607  -30.4514   21.5275 C   0  0  2  0  0  0
  -24.9110  -28.8609   20.1089 C   0  0  0  0  0  0
  -22.7609  -29.4495   22.4823 C   0  0  0  0  0  0
  -18.0315  -28.1388   22.8469 C   0  0  0  0  0  0
  -24.1498  -36.7229   23.2645 C   0  0  0  0  0  0
  -26.0233  -30.6750   21.3956 C   0  0  0  0  0  0
  -26.0907  -29.2770   20.7363 C   0  0  0  0  0  0
  -27.2386  -28.3825   20.7450 C   0  0  0  0  0  0
  -26.0070  -26.7499   19.4873 C   0  0  0  0  0  0
  -24.8879  -27.6158   19.4651 C   0  0  0  0  0  0
  -23.6923  -29.7753   20.1494 C   0  0  0  0  0  0
  -25.4137  -36.3003   24.0307 C   0  0  1  0  0  0
  -20.5933  -28.3733   23.1205 C   0  0  2  0  0  0
  -20.6795  -26.9425   22.5397 C   0  0  0  0  0  0
  -19.5768  -26.6370   21.5207 C   0  0  0  0  0  0
  -18.1950  -26.7932   22.1621 C   0  0  0  0  0  0
  -19.1569  -28.8881   23.2831 C   0  0  0  0  0  0
  -18.9485  -30.1478   23.8866 C   0  0  0  0  0  0
  -17.6478  -30.6592   24.0548 C   0  0  0  0  0  0
  -25.9088  -34.9383   23.5040 C   0  0  0  0  0  0
  -16.5371  -29.9076   23.6335 C   0  0  0  0  0  0
  -16.7298  -28.6487   23.0368 C   0  0  0  0  0  0
  -26.4543  -31.6545   25.0713 C   0  0  0  0  0  0
  -25.3702  -31.3768   26.1389 C   0  0  0  0  0  0
  -27.0420  -30.2934   24.6367 C   0  0  0  0  0  0
  -27.6065  -32.4327   25.7500 C   0  0  0  0  0  0
  -27.5576  -37.1785   24.8469 C   0  0  0  0  0  0
  -21.4290  -29.3044   22.3567 N   0  0  0  0  0  0
  -26.4297  -37.3720   23.9389 N   0  0  0  0  0  0
  -24.7324  -31.0119   22.0878 N   0  0  0  0  0  0
  -23.4211  -28.8047   23.3005 O   0  0  0  0  0  0
  -28.2450  -25.9957   20.2726 O   0  0  0  0  0  0
  -26.5678  -34.8889   22.4627 O   0  0  0  0  0  0
  -23.5615  -32.1271   23.6969 O   0  0  0  0  0  0
  -29.7497  -22.8777   22.6331 C   0  0  0  0  0  0
  -29.1301  -21.8820   20.8869 C   0  0  0  0  0  0
  -28.2398  -18.2559   21.2286 C   0  0  0  0  0  0
  -28.4908  -16.6981   21.0410 C   0  0  0  0  0  0
  -30.2704  -17.8779   20.1167 C   0  0  0  0  0  0
  -29.0374  -18.9988   20.1504 C   0  0  2  0  0  0
  -30.3109  -23.1041   23.9957 C   0  0  0  0  0  0
  -28.3061  -24.2927   18.4375 C   0  0  0  0  0  0
  -28.0294  -24.4693   19.9342 C   0  0  1  0  0  0
  -29.7156  -21.6481   22.0577 N   0  0  0  0  0  0
  -29.2414  -23.8781   21.9305 N   0  0  0  0  0  0
  -28.8039  -23.3225   20.7667 N   0  0  0  0  0  0
  -29.8256  -16.3989   20.4682 N   0  0  0  0  0  0
  -29.0045  -20.6108   20.0930 N   0  0  0  0  0  0
  -31.4611  -12.8766   19.1837 H   0  0  0  0  0  0
  -30.4645  -11.7709   20.0738 H   0  0  0  0  0  0
  -29.8687  -11.7484   17.6261 H   0  0  0  0  0  0
  -29.5806  -13.4715   17.6714 H   0  0  0  0  0  0
  -27.9799  -11.2766   19.0134 H   0  0  0  0  0  0
  -27.3971  -12.4181   17.8302 H   0  0  0  0  0  0
  -27.5556  -14.2448   19.3733 H   0  0  0  0  0  0
  -28.8028  -12.3743   21.4434 H   0  0  0  0  0  0
  -28.3310  -14.0161   21.7584 H   0  0  0  0  0  0
  -25.2747   -9.5666   22.4781 H   0  0  0  0  0  0
  -23.9991   -7.4616   22.7492 H   0  0  0  0  0  0
  -21.0844   -8.8774   19.8958 H   0  0  0  0  0  0
  -22.3709  -10.9659   19.6194 H   0  0  0  0  0  0
  -21.2004   -7.6144   23.9725 H   0  0  0  0  0  0
  -21.1493   -6.0515   25.9068 H   0  0  0  0  0  0
  -22.0599   -2.7621   23.2852 H   0  0  0  0  0  0
  -22.3987  -11.9840   22.4854 H   0  0  0  0  0  0
  -21.1016  -13.1235   22.2682 H   0  0  0  0  0  0
  -24.6088  -15.8329   20.5108 H   0  0  0  0  0  0
  -26.2195  -15.6312   20.0408 H   0  0  0  0  0  0
  -26.7315  -32.5214   23.0942 H   0  0  0  0  0  0
  -25.0107  -33.9556   25.0289 H   0  0  0  0  0  0
  -22.7672  -31.2799   21.3666 H   0  0  0  0  0  0
  -23.3758  -35.9566   23.3318 H   0  0  0  0  0  0
  -24.3563  -36.8852   22.2054 H   0  0  0  0  0  0
  -23.7262  -37.6433   23.6679 H   0  0  0  0  0  0
  -26.1950  -31.4219   20.6195 H   0  0  0  0  0  0
  -26.8875  -30.7258   22.0454 H   0  0  0  0  0  0
  -28.1315  -28.6955   21.2667 H   0  0  0  0  0  0
  -25.8799  -25.8018   18.9897 H   0  0  0  0  0  0
  -23.9897  -27.2941   18.9565 H   0  0  0  0  0  0
  -23.8374  -30.5475   19.3938 H   0  0  0  0  0  0
  -22.8048  -29.2238   19.8352 H   0  0  0  0  0  0
  -25.1334  -36.1829   25.0802 H   0  0  0  0  0  0
  -21.0028  -28.3332   24.1328 H   0  0  0  0  0  0
  -20.5682  -26.2346   23.3628 H   0  0  0  0  0  0
  -21.6657  -26.7409   22.1201 H   0  0  0  0  0  0
  -19.6928  -25.6267   21.1267 H   0  0  0  0  0  0
  -19.6709  -27.3152   20.6716 H   0  0  0  0  0  0
  -17.4219  -26.6672   21.4024 H   0  0  0  0  0  0
  -18.0353  -26.0077   22.9021 H   0  0  0  0  0  0
  -19.7957  -30.7297   24.2226 H   0  0  0  0  0  0
  -17.5028  -31.6272   24.5143 H   0  0  0  0  0  0
  -15.5367  -30.2966   23.7674 H   0  0  0  0  0  0
  -15.8699  -28.0786   22.7120 H   0  0  0  0  0  0
  -24.5861  -30.7151   25.7680 H   0  0  0  0  0  0
  -24.8920  -32.2969   26.4768 H   0  0  0  0  0  0
  -25.7950  -30.8940   27.0200 H   0  0  0  0  0  0
  -26.3061  -29.6632   24.1358 H   0  0  0  0  0  0
  -27.3974  -29.7260   25.4975 H   0  0  0  0  0  0
  -27.8993  -30.4131   23.9739 H   0  0  0  0  0  0
  -27.2657  -33.3644   26.2023 H   0  0  0  0  0  0
  -28.3907  -32.6865   25.0355 H   0  0  0  0  0  0
  -28.0706  -31.8497   26.5461 H   0  0  0  0  0  0
  -28.2604  -38.0069   24.7480 H   0  0  0  0  0  0
  -28.1066  -36.2597   24.6353 H   0  0  0  0  0  0
  -27.2281  -37.1492   25.8870 H   0  0  0  0  0  0
  -20.9519  -29.8758   21.6730 H   0  0  0  0  0  0
  -26.0160  -38.2795   24.1369 H   0  0  0  0  0  0
  -28.5904  -18.5680   22.2134 H   0  0  0  0  0  0
  -27.1763  -18.4915   21.1767 H   0  0  0  0  0  0
  -28.3382  -16.1823   21.9867 H   0  0  0  0  0  0
  -27.7575  -16.3211   20.3353 H   0  0  0  0  0  0
  -31.0378  -18.1672   20.8353 H   0  0  0  0  0  0
  -30.7568  -17.8757   19.1408 H   0  0  0  0  0  0
  -28.5002  -18.7755   19.2268 H   0  0  0  0  0  0
  -30.2004  -22.2099   24.6093 H   0  0  0  0  0  0
  -29.7928  -23.9223   24.4976 H   0  0  0  0  0  0
  -31.3700  -23.3536   23.9362 H   0  0  0  0  0  0
  -28.1109  -23.2613   18.1430 H   0  0  0  0  0  0
  -29.3454  -24.5369   18.2228 H   0  0  0  0  0  0
  -27.6630  -24.9472   17.8497 H   0  0  0  0  0  0
  -26.9790  -24.2562   20.1315 H   0  0  0  0  0  0
  -28.6490  -20.8752   19.1774 H   0  0  0  0  0  0
  1 25  1  0  0  0
  1 30  2  0  0  0
  1 83  1  0  0  0
  2  3  1  0  0  0
  2 25  1  0  0  0
  2 85  1  0  0  0
  2 86  1  0  0  0
  3  4  1  0  0  0
  3 87  1  0  0  0
  3 88  1  0  0  0
  4  5  1  0  0  0
  4 89  1  0  0  0
  4 90  1  0  0  0
  5  6  1  0  0  0
  5 26  1  0  0  0
  5 91  1  0  0  0
  6 25  1  0  0  0
  6 92  1  0  0  0
  6 93  1  0  0  0
  7  8  2  0  0  0
  7 26  1  0  0  0
  7 29  1  0  0  0
  8  9  1  0  0  0
  8 22  1  0  0  0
  9 10  1  0  0  0
  9 27  2  0  0  0
 10 11  2  0  0  0
 10 15  1  0  0  0
 11 12  1  0  0  0
 11 94  1  0  0  0
 12 13  2  0  0  0
 12 95  1  0  0  0
 13 14  1  0  0  0
 13 31  1  0  0  0
 14 15  2  0  0  0
 14 96  1  0  0  0
 15 97  1  0  0  0
 16 17  2  0  0  0
 16 21  1  0  0  0
 16 31  1  0  0  0
 17 18  1  0  0  0
 17 98  1  0  0  0
 18 19  2  0  0  0
 18 99  1  0  0  0
 19 20  1  0  0  0
 19 24  1  0  0  0
 20 21  2  0  0  0
 20100  1  0  0  0
 21 23  1  0  0  0
 22 28  1  0  0  0
 22 32  2  0  0  0
 26 27  1  0  0  0
 28101  1  0  0  0
 28102  1  0  0  0
 29103  1  0  0  0
 29104  1  0  0  0
 33 34  1  0  0  0
 33 66  1  0  0  0
 33 70  2  0  0  0
 34 36  1  0  0  0
 34 59  1  0  0  0
 34105  1  0  0  0
 35 44  2  0  0  0
 35 45  1  0  0  0
 35 68  1  0  0  0
 36 56  1  0  0  0
 36106  1  0  0  0
 37 39  1  0  0  0
 37 47  1  0  0  0
 37 66  1  0  0  0
 37107  1  0  0  0
 38 43  2  0  0  0
 38 46  1  0  0  0
 38 47  1  0  0  0
 39 64  1  0  0  0
 39 67  2  0  0  0
 40 52  1  0  0  0
 40 53  2  0  0  0
 40 58  1  0  0  0
 41108  1  0  0  0
 41109  1  0  0  0
 41110  1  0  0  0
 41 48  1  0  0  0
 42 43  1  0  0  0
 42 66  1  0  0  0
 42111  1  0  0  0
 42112  1  0  0  0
 43 44  1  0  0  0
 44113  1  0  0  0
 45 46  2  0  0  0
 45114  1  0  0  0
 46115  1  0  0  0
 47116  1  0  0  0
 47117  1  0  0  0
 48 56  1  0  0  0
 48 65  1  0  0  0
 48118  1  0  0  0
 49 50  1  0  0  0
 49 53  1  0  0  0
 49 64  1  0  0  0
 49119  1  0  0  0
 50 51  1  0  0  0
 50120  1  0  0  0
 50121  1  0  0  0
 51 52  1  0  0  0
 51122  1  0  0  0
 51123  1  0  0  0
 52124  1  0  0  0
 52125  1  0  0  0
 53 54  1  0  0  0
 54 55  2  0  0  0
 54126  1  0  0  0
 55 57  1  0  0  0
 55127  1  0  0  0
 56 69  2  0  0  0
 57 58  2  0  0  0
 57128  1  0  0  0
 58129  1  0  0  0
 59 60  1  0  0  0
 59 61  1  0  0  0
 59 62  1  0  0  0
 60130  1  0  0  0
 60131  1  0  0  0
 60132  1  0  0  0
 61133  1  0  0  0
 61134  1  0  0  0
 61135  1  0  0  0
 62136  1  0  0  0
 62137  1  0  0  0
 62138  1  0  0  0
 63 65  1  0  0  0
 63139  1  0  0  0
 63140  1  0  0  0
 63141  1  0  0  0
 64142  1  0  0  0
 65143  1  0  0  0
 68 79  1  0  0  0
 71 77  1  0  0  0
 71 80  1  0  0  0
 71 81  2  0  0  0
 72 80  2  0  0  0
 72 82  1  0  0  0
 72 84  1  0  0  0
 73 74  1  0  0  0
 73 76  1  0  0  0
 73144  1  0  0  0
 73145  1  0  0  0
 74 83  1  0  0  0
 74146  1  0  0  0
 74147  1  0  0  0
 75 76  1  0  0  0
 75 83  1  0  0  0
 75148  1  0  0  0
 75149  1  0  0  0
 76 84  1  0  0  0
 76150  1  0  0  0
 77151  1  0  0  0
 77152  1  0  0  0
 77153  1  0  0  0
 78154  1  0  0  0
 78155  1  0  0  0
 78156  1  0  0  0
 78 79  1  0  0  0
 79 82  1  0  0  0
 79157  1  0  0  0
 81 82  1  0  0  0
 84158  1  0  0  0
M  ISO  4   1 100  68 101  79 101  83 100
M  END
> <chiral flag>
0

> <version>
0

> <s_m_source_file>
/data/baiqing/PycharmProjects/Reinvent-master-3.2/result/LINK_invent/BTK/process_docking_weight1_custom_sum_contain_oxygen_bond_distance_aromatic_linkinvent_7_9_3/rearranged_h_0188.sdf

> <i_m_source_file_index>
72

> <r_mmod_Potential_Energy-OPLS-2005>
917.482238769531

> <r_mmod_Stretch_Energy-OPLS-2005>
374.52099609375

> <r_mmod_Bend_Energy-OPLS-2005>
445.268524169922

> <r_mmod_Torsional_Energy-OPLS-2005>
303.11572265625

> <r_mmod_Improper_Torsional_Energy-OPLS-2005>
7.4087233543396

> <r_mmod_Van_der_Waal_Energy-OPLS-2005>
101.83854675293

> <r_mmod_Electrostatic_Energy-OPLS-2005>
-363.411254882812

> <r_mmod_Solvation_Energy-OPLS-2005>
-253.146240234375

> <b_mmod_Minimization_Converged-OPLS-2005>
0

> <r_mmod_RMS_Derivative-OPLS-2005>
2.14291310310364

$$$$
73
                    3D
 Structure written by MMmdl.
161171  0  0  1  0            999 V2000
  -30.6049  -14.9040   20.4281 C   0  0  0  0  0  0
  -30.4226  -12.5617   19.4964 C   0  0  0  0  0  0
  -29.5113  -12.5211   18.2509 C   0  0  0  0  0  0
  -28.0440  -12.3213   18.6700 C   0  0  0  0  0  0
  -27.6265  -13.2542   19.8381 C   0  0  2  0  0  0
  -28.6709  -13.2892   20.9740 C   0  0  0  0  0  0
  -25.2442  -13.8235   20.5727 C   0  0  0  0  0  0
  -24.1765  -13.0446   20.9235 C   0  0  0  0  0  0
  -24.6393  -11.6935   20.8763 C   0  0  0  0  0  0
  -23.9082  -10.4298   21.0411 C   0  0  0  0  0  0
  -24.3630   -9.4210   21.9186 C   0  0  0  0  0  0
  -23.6302   -8.2246   22.0754 C   0  0  0  0  0  0
  -22.4284   -8.0285   21.3545 C   0  0  0  0  0  0
  -21.9923   -9.0258   20.4646 C   0  0  0  0  0  0
  -22.7254  -10.2136   20.3059 C   0  0  0  0  0  0
  -21.6857   -6.0739   22.5279 C   0  0  0  0  0  0
  -21.4017   -6.5642   23.8212 C   0  0  0  0  0  0
  -21.3660   -5.6795   24.9174 C   0  0  0  0  0  0
  -21.6044   -4.3057   24.7225 C   0  0  0  0  0  0
  -21.8818   -3.8150   23.4346 C   0  0  0  0  0  0
  -21.9194   -4.6967   22.3402 C   0  0  0  0  0  0
  -22.7784  -13.5207   21.1884 C   0  0  0  0  0  0
  -22.1661   -4.2152   21.0980 F   0  0  0  0  0  0
  -21.5628   -3.4541   25.7738 F   0  0  0  0  0  0
  -29.9460  -13.6789   20.3628 N   0  0  0  0  0  0
  -26.2874  -12.9482   20.3271 N   0  0  0  0  0  0
  -25.9330  -11.6603   20.5762 N   0  0  0  0  0  0
  -22.0442  -12.8189   22.0440 N   0  0  0  0  0  0
  -25.4102  -15.1960   20.4146 N   0  0  0  0  0  0
  -31.8112  -14.8849   20.1576 O   0  0  0  0  0  0
  -21.6645   -6.8883   21.4242 O   0  0  0  0  0  0
  -22.3460  -14.5505   20.6725 O   0  0  0  0  0  0
  -24.6425  -31.8460   23.1908 C   0  0  0  0  0  0
  -25.9205  -32.4705   23.8288 C   0  0  1  0  0  0
  -27.2088  -27.1470   20.1444 C   0  0  0  0  0  0
  -25.5957  -33.8510   24.2203 N   0  0  0  0  0  0
  -23.4449  -30.4678   21.5364 C   0  0  2  0  0  0
  -24.8931  -28.9020   20.1072 C   0  0  0  0  0  0
  -22.7563  -29.4559   22.4862 C   0  0  0  0  0  0
  -18.0305  -28.1396   22.8480 C   0  0  0  0  0  0
  -24.1492  -36.7258   23.2641 C   0  0  0  0  0  0
  -26.0014  -30.7220   21.3902 C   0  0  0  0  0  0
  -26.0707  -29.3360   20.7290 C   0  0  0  0  0  0
  -27.2297  -28.4734   20.7344 C   0  0  0  0  0  0
  -26.0083  -26.8221   19.4712 C   0  0  0  0  0  0
  -24.8745  -27.6581   19.4632 C   0  0  0  0  0  0
  -23.6701  -29.8027   20.1536 C   0  0  0  0  0  0
  -25.4124  -36.3037   24.0316 C   0  0  1  0  0  0
  -20.5918  -28.3722   23.1237 C   0  0  2  0  0  0
  -20.6790  -26.9426   22.5403 C   0  0  0  0  0  0
  -19.5762  -26.6382   21.5214 C   0  0  0  0  0  0
  -18.1944  -26.7934   22.1626 C   0  0  0  0  0  0
  -19.1561  -28.8877   23.2851 C   0  0  0  0  0  0
  -18.9477  -30.1473   23.8876 C   0  0  0  0  0  0
  -17.6474  -30.6592   24.0560 C   0  0  0  0  0  0
  -25.9073  -34.9412   23.5067 C   0  0  0  0  0  0
  -16.5366  -29.9085   23.6337 C   0  0  0  0  0  0
  -16.7290  -28.6504   23.0358 C   0  0  0  0  0  0
  -26.4526  -31.6567   25.0725 C   0  0  0  0  0  0
  -25.3712  -31.3757   26.1420 C   0  0  0  0  0  0
  -27.0392  -30.2963   24.6306 C   0  0  0  0  0  0
  -27.6054  -32.4335   25.7511 C   0  0  0  0  0  0
  -27.5577  -37.1787   24.8465 C   0  0  0  0  0  0
  -21.4257  -29.3050   22.3609 N   0  0  0  0  0  0
  -26.4289  -37.3748   23.9408 N   0  0  0  0  0  0
  -24.7160  -31.0326   22.0941 N   0  0  0  0  0  0
  -23.4214  -28.8100   23.3003 O   0  0  0  0  0  0
  -28.2423  -26.1462   20.2378 O   0  0  0  0  0  0
  -26.5656  -34.8905   22.4643 O   0  0  0  0  0  0
  -23.5546  -32.1334   23.7134 O   0  0  0  0  0  0
  -30.6279  -22.5095   21.4936 C   0  0  0  0  0  0
  -28.4948  -21.9111   20.0548 C   0  0  0  0  0  0
  -28.7911  -23.3275   20.3704 C   0  0  0  0  0  0
  -29.3612  -20.8271   20.5377 C   0  0  0  0  0  0
  -27.2968  -20.6447   18.0698 C   0  0  0  0  0  0
  -27.0433  -22.1168   17.8653 C   0  0  0  0  0  0
  -30.3684  -18.7147   19.5897 C   0  0  0  0  0  0
  -29.1057  -18.4546   21.5068 C   0  0  0  0  0  0
  -30.2246  -17.1575   19.2369 C   0  0  0  0  0  0
  -29.0010  -16.8459   21.2826 C   0  0  0  0  0  0
  -27.2607  -21.5764   19.2626 C   0  0  0  0  0  0
  -27.9032  -24.6530   19.9717 C   0  0  0  0  0  0
  -29.8958  -23.5556   21.1042 N   0  0  0  0  0  0
  -30.4241  -21.2094   21.2608 N   0  0  0  0  0  0
  -29.2504  -19.3590   20.3237 N   0  0  0  0  0  0
  -29.9201  -16.1529   20.3162 N   0  0  0  0  0  0
  -31.4615  -12.6831   19.1864 H   0  0  0  0  0  0
  -30.3861  -11.6135   20.0351 H   0  0  0  0  0  0
  -29.8213  -11.7211   17.5771 H   0  0  0  0  0  0
  -29.6114  -13.4523   17.6910 H   0  0  0  0  0  0
  -27.9306  -11.2795   18.9722 H   0  0  0  0  0  0
  -27.3820  -12.4634   17.8151 H   0  0  0  0  0  0
  -27.5887  -14.2567   19.4106 H   0  0  0  0  0  0
  -28.7497  -12.3207   21.4700 H   0  0  0  0  0  0
  -28.3794  -14.0091   21.7399 H   0  0  0  0  0  0
  -25.2772   -9.5686   22.4762 H   0  0  0  0  0  0
  -24.0010   -7.4638   22.7473 H   0  0  0  0  0  0
  -21.0854   -8.8779   19.8949 H   0  0  0  0  0  0
  -22.3712  -10.9676   19.6170 H   0  0  0  0  0  0
  -21.2010   -7.6151   23.9716 H   0  0  0  0  0  0
  -21.1482   -6.0526   25.9076 H   0  0  0  0  0  0
  -22.0596   -2.7613   23.2847 H   0  0  0  0  0  0
  -22.4077  -11.9859   22.4830 H   0  0  0  0  0  0
  -21.1054  -13.1196   22.2645 H   0  0  0  0  0  0
  -24.6416  -15.8483   20.5251 H   0  0  0  0  0  0
  -26.2574  -15.6350   20.0784 H   0  0  0  0  0  0
  -26.7269  -32.5313   23.1016 H   0  0  0  0  0  0
  -25.0084  -33.9630   25.0336 H   0  0  0  0  0  0
  -22.7469  -31.2938   21.3853 H   0  0  0  0  0  0
  -23.3760  -35.9583   23.3291 H   0  0  0  0  0  0
  -24.3577  -36.8902   22.2058 H   0  0  0  0  0  0
  -23.7242  -37.6448   23.6686 H   0  0  0  0  0  0
  -26.1586  -31.4785   20.6200 H   0  0  0  0  0  0
  -26.8715  -30.7688   22.0335 H   0  0  0  0  0  0
  -28.1229  -28.7963   21.2506 H   0  0  0  0  0  0
  -25.8981  -25.8782   18.9600 H   0  0  0  0  0  0
  -23.9771  -27.3236   18.9606 H   0  0  0  0  0  0
  -23.8060  -30.5799   19.4007 H   0  0  0  0  0  0
  -22.7848  -29.2455   19.8419 H   0  0  0  0  0  0
  -25.1312  -36.1866   25.0809 H   0  0  0  0  0  0
  -21.0010  -28.3311   24.1358 H   0  0  0  0  0  0
  -20.5689  -26.2335   23.3621 H   0  0  0  0  0  0
  -21.6656  -26.7436   22.1198 H   0  0  0  0  0  0
  -19.6923  -25.6288   21.1257 H   0  0  0  0  0  0
  -19.6697  -27.3181   20.6734 H   0  0  0  0  0  0
  -17.4212  -26.6680   21.4030 H   0  0  0  0  0  0
  -18.0342  -26.0082   22.9027 H   0  0  0  0  0  0
  -19.7952  -30.7297   24.2235 H   0  0  0  0  0  0
  -17.5026  -31.6270   24.5166 H   0  0  0  0  0  0
  -15.5364  -30.2980   23.7672 H   0  0  0  0  0  0
  -15.8689  -28.0815   22.7086 H   0  0  0  0  0  0
  -24.5895  -30.7101   25.7740 H   0  0  0  0  0  0
  -24.8898  -32.2941   26.4790 H   0  0  0  0  0  0
  -25.7994  -30.8965   27.0232 H   0  0  0  0  0  0
  -26.3011  -29.6684   24.1301 H   0  0  0  0  0  0
  -27.3989  -29.7261   25.4882 H   0  0  0  0  0  0
  -27.8927  -30.4196   23.9636 H   0  0  0  0  0  0
  -27.2643  -33.3655   26.2032 H   0  0  0  0  0  0
  -28.3895  -32.6867   25.0363 H   0  0  0  0  0  0
  -28.0688  -31.8500   26.5476 H   0  0  0  0  0  0
  -28.2586  -38.0091   24.7513 H   0  0  0  0  0  0
  -28.1083  -36.2621   24.6292 H   0  0  0  0  0  0
  -27.2294  -37.1433   25.8868 H   0  0  0  0  0  0
  -20.9462  -29.8766   21.6793 H   0  0  0  0  0  0
  -26.0155  -38.2817   24.1410 H   0  0  0  0  0  0
  -31.5027  -22.7461   22.0801 H   0  0  0  0  0  0
  -28.2585  -20.2588   17.7365 H   0  0  0  0  0  0
  -26.4511  -19.9751   17.9222 H   0  0  0  0  0  0
  -26.0327  -22.4051   17.5809 H   0  0  0  0  0  0
  -27.8413  -22.6842   17.3898 H   0  0  0  0  0  0
  -30.5180  -19.2687   18.6615 H   0  0  0  0  0  0
  -31.2872  -18.8598   20.1610 H   0  0  0  0  0  0
  -29.9532  -18.6473   22.1674 H   0  0  0  0  0  0
  -28.2317  -18.7842   22.0705 H   0  0  0  0  0  0
  -31.1292  -16.8563   18.7060 H   0  0  0  0  0  0
  -29.4278  -17.0551   18.4990 H   0  0  0  0  0  0
  -27.9886  -16.6221   20.9463 H   0  0  0  0  0  0
  -29.0924  -16.3569   22.2536 H   0  0  0  0  0  0
  -26.3941  -21.5083   19.9185 H   0  0  0  0  0  0
  -26.9330  -24.4622   20.4313 H   0  0  0  0  0  0
  -27.7439  -24.5792   18.8971 H   0  0  0  0  0  0
  1 25  1  0  0  0
  1 30  2  0  0  0
  1 86  1  0  0  0
  2  3  1  0  0  0
  2 25  1  0  0  0
  2 87  1  0  0  0
  2 88  1  0  0  0
  3  4  1  0  0  0
  3 89  1  0  0  0
  3 90  1  0  0  0
  4  5  1  0  0  0
  4 91  1  0  0  0
  4 92  1  0  0  0
  5  6  1  0  0  0
  5 26  1  0  0  0
  5 93  1  0  0  0
  6 25  1  0  0  0
  6 94  1  0  0  0
  6 95  1  0  0  0
  7  8  2  0  0  0
  7 26  1  0  0  0
  7 29  1  0  0  0
  8  9  1  0  0  0
  8 22  1  0  0  0
  9 10  1  0  0  0
  9 27  2  0  0  0
 10 11  2  0  0  0
 10 15  1  0  0  0
 11 12  1  0  0  0
 11 96  1  0  0  0
 12 13  2  0  0  0
 12 97  1  0  0  0
 13 14  1  0  0  0
 13 31  1  0  0  0
 14 15  2  0  0  0
 14 98  1  0  0  0
 15 99  1  0  0  0
 16 17  2  0  0  0
 16 21  1  0  0  0
 16 31  1  0  0  0
 17 18  1  0  0  0
 17100  1  0  0  0
 18 19  2  0  0  0
 18101  1  0  0  0
 19 20  1  0  0  0
 19 24  1  0  0  0
 20 21  2  0  0  0
 20102  1  0  0  0
 21 23  1  0  0  0
 22 28  1  0  0  0
 22 32  2  0  0  0
 26 27  1  0  0  0
 28103  1  0  0  0
 28104  1  0  0  0
 29105  1  0  0  0
 29106  1  0  0  0
 33 34  1  0  0  0
 33 66  1  0  0  0
 33 70  2  0  0  0
 34 36  1  0  0  0
 34 59  1  0  0  0
 34107  1  0  0  0
 35 44  2  0  0  0
 35 45  1  0  0  0
 35 68  1  0  0  0
 36 56  1  0  0  0
 36108  1  0  0  0
 37 39  1  0  0  0
 37 47  1  0  0  0
 37 66  1  0  0  0
 37109  1  0  0  0
 38 43  2  0  0  0
 38 46  1  0  0  0
 38 47  1  0  0  0
 39 64  1  0  0  0
 39 67  2  0  0  0
 40 52  1  0  0  0
 40 53  2  0  0  0
 40 58  1  0  0  0
 41110  1  0  0  0
 41111  1  0  0  0
 41112  1  0  0  0
 41 48  1  0  0  0
 42 43  1  0  0  0
 42 66  1  0  0  0
 42113  1  0  0  0
 42114  1  0  0  0
 43 44  1  0  0  0
 44115  1  0  0  0
 45 46  2  0  0  0
 45116  1  0  0  0
 46117  1  0  0  0
 47118  1  0  0  0
 47119  1  0  0  0
 48 56  1  0  0  0
 48 65  1  0  0  0
 48120  1  0  0  0
 49 50  1  0  0  0
 49 53  1  0  0  0
 49 64  1  0  0  0
 49121  1  0  0  0
 50 51  1  0  0  0
 50122  1  0  0  0
 50123  1  0  0  0
 51 52  1  0  0  0
 51124  1  0  0  0
 51125  1  0  0  0
 52126  1  0  0  0
 52127  1  0  0  0
 53 54  1  0  0  0
 54 55  2  0  0  0
 54128  1  0  0  0
 55 57  1  0  0  0
 55129  1  0  0  0
 56 69  2  0  0  0
 57 58  2  0  0  0
 57130  1  0  0  0
 58131  1  0  0  0
 59 60  1  0  0  0
 59 61  1  0  0  0
 59 62  1  0  0  0
 60132  1  0  0  0
 60133  1  0  0  0
 60134  1  0  0  0
 61135  1  0  0  0
 61136  1  0  0  0
 61137  1  0  0  0
 62138  1  0  0  0
 62139  1  0  0  0
 62140  1  0  0  0
 63 65  1  0  0  0
 63141  1  0  0  0
 63142  1  0  0  0
 63143  1  0  0  0
 64144  1  0  0  0
 65145  1  0  0  0
 68 82  1  0  0  0
 71 83  2  0  0  0
 71 84  1  0  0  0
 71146  1  0  0  0
 72 73  2  0  0  0
 72 74  1  0  0  0
 72 81  1  0  0  0
 73 82  1  0  0  0
 73 83  1  0  0  0
 74 84  2  0  0  0
 74 85  1  0  0  0
 75 76  1  0  0  0
 75 81  1  0  0  0
 75147  1  0  0  0
 75148  1  0  0  0
 76 81  1  0  0  0
 76149  1  0  0  0
 76150  1  0  0  0
 77 79  1  0  0  0
 77 85  1  0  0  0
 77151  1  0  0  0
 77152  1  0  0  0
 78 80  1  0  0  0
 78 85  1  0  0  0
 78153  1  0  0  0
 78154  1  0  0  0
 79 86  1  0  0  0
 79155  1  0  0  0
 79156  1  0  0  0
 80 86  1  0  0  0
 80157  1  0  0  0
 80158  1  0  0  0
 81159  1  0  0  0
 82160  1  0  0  0
 82161  1  0  0  0
M  ISO  4   1 100  68 101  82 101  86 100
M  END
> <chiral flag>
0

> <version>
0

> <s_m_source_file>
/data/baiqing/PycharmProjects/Reinvent-master-3.2/result/LINK_invent/BTK/process_docking_weight1_custom_sum_contain_oxygen_bond_distance_aromatic_linkinvent_7_9_3/rearranged_h_0188.sdf

> <i_m_source_file_index>
73

> <r_mmod_Potential_Energy-OPLS-2005>
195.785522460938

> <r_mmod_Stretch_Energy-OPLS-2005>
202.488983154297

> <r_mmod_Bend_Energy-OPLS-2005>
244.118927001953

> <r_mmod_Torsional_Energy-OPLS-2005>
386.642913818359

> <r_mmod_Improper_Torsional_Energy-OPLS-2005>
21.2101554870605

> <r_mmod_Van_der_Waal_Energy-OPLS-2005>
142.661880493164

> <r_mmod_Electrostatic_Energy-OPLS-2005>
-747.239318847656

> <r_mmod_Solvation_Energy-OPLS-2005>
-229.732452392578

> <b_mmod_Minimization_Converged-OPLS-2005>
0

> <r_mmod_RMS_Derivative-OPLS-2005>
0.280565500259399

$$$$
74
                    3D
 Structure written by MMmdl.
151160  0  0  1  0            999 V2000
  -30.4698  -15.2023   20.3826 C   0  0  0  0  0  0
  -30.4350  -12.7663   19.5174 C   0  0  0  0  0  0
  -29.5299  -12.5638   18.2783 C   0  0  0  0  0  0
  -28.0752  -12.3027   18.7062 C   0  0  0  0  0  0
  -27.6128  -13.2723   19.8235 C   0  0  2  0  0  0
  -28.6490  -13.4281   20.9557 C   0  0  0  0  0  0
  -25.2407  -13.8254   20.5764 C   0  0  0  0  0  0
  -24.1744  -13.0446   20.9247 C   0  0  0  0  0  0
  -24.6392  -11.6939   20.8755 C   0  0  0  0  0  0
  -23.9087  -10.4297   21.0400 C   0  0  0  0  0  0
  -24.3633   -9.4211   21.9179 C   0  0  0  0  0  0
  -23.6304   -8.2246   22.0751 C   0  0  0  0  0  0
  -22.4286   -8.0281   21.3542 C   0  0  0  0  0  0
  -21.9923   -9.0256   20.4645 C   0  0  0  0  0  0
  -22.7255  -10.2134   20.3052 C   0  0  0  0  0  0
  -21.6857   -6.0736   22.5278 C   0  0  0  0  0  0
  -21.4017   -6.5639   23.8211 C   0  0  0  0  0  0
  -21.3662   -5.6791   24.9173 C   0  0  0  0  0  0
  -21.6045   -4.3054   24.7223 C   0  0  0  0  0  0
  -21.8818   -3.8146   23.4344 C   0  0  0  0  0  0
  -21.9195   -4.6963   22.3401 C   0  0  0  0  0  0
  -22.7763  -13.5199   21.1897 C   0  0  0  0  0  0
  -22.1663   -4.2148   21.0978 F   0  0  0  0  0  0
  -21.5630   -3.4538   25.7736 F   0  0  0  0  0  0
  -29.8854  -13.9120   20.3254 N   0  0  0  0  0  0
  -26.2824  -12.9520   20.3232 N   0  0  0  0  0  0
  -25.9330  -11.6627   20.5723 N   0  0  0  0  0  0
  -22.0423  -12.8181   22.0452 N   0  0  0  0  0  0
  -25.4088  -15.1989   20.4250 N   0  0  0  0  0  0
  -31.6917  -15.1927   20.1760 O   0  0  0  0  0  0
  -21.6648   -6.8880   21.4240 O   0  0  0  0  0  0
  -22.3442  -14.5500   20.6738 O   0  0  0  0  0  0
  -24.6596  -31.8270   23.1735 C   0  0  0  0  0  0
  -25.9294  -32.4604   23.8186 C   0  0  1  0  0  0
  -27.2160  -26.9631   20.1788 C   0  0  0  0  0  0
  -25.5975  -33.8417   24.2093 N   0  0  0  0  0  0
  -23.4722  -30.4402   21.5224 C   0  0  2  0  0  0
  -24.9244  -28.8340   20.1120 C   0  0  0  0  0  0
  -22.7649  -29.4460   22.4797 C   0  0  0  0  0  0
  -18.0319  -28.1406   22.8468 C   0  0  0  0  0  0
  -24.1495  -36.7215   23.2646 C   0  0  0  0  0  0
  -26.0394  -30.6451   21.3982 C   0  0  0  0  0  0
  -26.1078  -29.2388   20.7419 C   0  0  0  0  0  0
  -27.2503  -28.3242   20.7503 C   0  0  0  0  0  0
  -26.0034  -26.7020   19.5026 C   0  0  0  0  0  0
  -24.8953  -27.5851   19.4723 C   0  0  0  0  0  0
  -23.7095  -29.7582   20.1473 C   0  0  0  0  0  0
  -25.4134  -36.2976   24.0300 C   0  0  1  0  0  0
  -20.5941  -28.3748   23.1195 C   0  0  2  0  0  0
  -20.6797  -26.9433   22.5402 C   0  0  0  0  0  0
  -19.5772  -26.6376   21.5213 C   0  0  0  0  0  0
  -18.1954  -26.7939   22.1623 C   0  0  0  0  0  0
  -19.1579  -28.8898   23.2819 C   0  0  0  0  0  0
  -18.9491  -30.1489   23.8852 C   0  0  0  0  0  0
  -17.6484  -30.6596   24.0555 C   0  0  0  0  0  0
  -25.9096  -34.9358   23.5015 C   0  0  0  0  0  0
  -16.5374  -29.9083   23.6343 C   0  0  0  0  0  0
  -16.7301  -28.6504   23.0361 C   0  0  0  0  0  0
  -26.4555  -31.6539   25.0703 C   0  0  0  0  0  0
  -25.3691  -31.3783   26.1366 C   0  0  0  0  0  0
  -27.0449  -30.2909   24.6418 C   0  0  0  0  0  0
  -27.6049  -32.4346   25.7505 C   0  0  0  0  0  0
  -27.5569  -37.1767   24.8467 C   0  0  0  0  0  0
  -21.4322  -29.3043   22.3547 N   0  0  0  0  0  0
  -26.4283  -37.3707   23.9403 N   0  0  0  0  0  0
  -24.7449  -30.9967   22.0852 N   0  0  0  0  0  0
  -23.4214  -28.8025   23.3021 O   0  0  0  0  0  0
  -28.2240  -25.8757   20.2546 O   0  0  0  0  0  0
  -26.5702  -34.8886   22.4608 O   0  0  0  0  0  0
  -23.5674  -32.1224   23.6850 O   0  0  0  0  0  0
  -29.9478  -17.6958   19.4238 C   0  0  0  0  0  0
  -29.7485  -17.6722   21.3769 C   0  0  0  0  0  0
  -28.6210  -21.4359   21.2377 C   0  0  0  0  0  0
  -28.9396  -21.4372   19.3179 C   0  0  0  0  0  0
  -28.8776  -22.7543   20.2954 C   0  0  1  0  0  0
  -29.1502  -18.7641   20.3373 C   0  0  0  0  0  0
  -27.9380  -24.2704   20.1158 C   0  0  0  0  0  0
  -29.7253  -16.4832   20.3744 N   0  0  0  0  0  0
  -29.3986  -20.4128   20.3779 N   0  3  2  0  0  0
  -31.4577  -12.9566   19.1894 H   0  0  0  0  0  0
  -30.4840  -11.8554   20.1164 H   0  0  0  0  0  0
  -29.8973  -11.7377   17.6678 H   0  0  0  0  0  0
  -29.5719  -13.4539   17.6485 H   0  0  0  0  0  0
  -28.0193  -11.2752   19.0676 H   0  0  0  0  0  0
  -27.4069  -12.3611   17.8463 H   0  0  0  0  0  0
  -27.5342  -14.2453   19.3366 H   0  0  0  0  0  0
  -28.8032  -12.4911   21.4925 H   0  0  0  0  0  0
  -28.3023  -14.1584   21.6889 H   0  0  0  0  0  0
  -25.2774   -9.5690   22.4759 H   0  0  0  0  0  0
  -24.0011   -7.4639   22.7472 H   0  0  0  0  0  0
  -21.0852   -8.8776   19.8953 H   0  0  0  0  0  0
  -22.3706  -10.9673   19.6165 H   0  0  0  0  0  0
  -21.2008   -7.6147   23.9714 H   0  0  0  0  0  0
  -21.1487   -6.0522   25.9076 H   0  0  0  0  0  0
  -22.0595   -2.7608   23.2845 H   0  0  0  0  0  0
  -22.4057  -11.9852   22.4843 H   0  0  0  0  0  0
  -21.1031  -13.1182   22.2653 H   0  0  0  0  0  0
  -24.6476  -15.8566   20.5534 H   0  0  0  0  0  0
  -26.2717  -15.6412   20.1339 H   0  0  0  0  0  0
  -26.7363  -32.5152   23.0902 H   0  0  0  0  0  0
  -25.0076  -33.9502   25.0211 H   0  0  0  0  0  0
  -22.7836  -31.2710   21.3546 H   0  0  0  0  0  0
  -23.3762  -35.9541   23.3288 H   0  0  0  0  0  0
  -24.3570  -36.8880   22.2065 H   0  0  0  0  0  0
  -23.7250  -37.6398   23.6713 H   0  0  0  0  0  0
  -26.2160  -31.3887   20.6200 H   0  0  0  0  0  0
  -26.9011  -30.7001   22.0518 H   0  0  0  0  0  0
  -28.1471  -28.6316   21.2695 H   0  0  0  0  0  0
  -25.8750  -25.7483   19.0131 H   0  0  0  0  0  0
  -23.9954  -27.2695   18.9625 H   0  0  0  0  0  0
  -23.8624  -30.5277   19.3899 H   0  0  0  0  0  0
  -22.8197  -29.2113   19.8306 H   0  0  0  0  0  0
  -25.1333  -36.1776   25.0792 H   0  0  0  0  0  0
  -21.0029  -28.3351   24.1318 H   0  0  0  0  0  0
  -20.5680  -26.2364   23.3638 H   0  0  0  0  0  0
  -21.6661  -26.7414   22.1205 H   0  0  0  0  0  0
  -19.6929  -25.6275   21.1273 H   0  0  0  0  0  0
  -19.6708  -27.3161   20.6722 H   0  0  0  0  0  0
  -17.4221  -26.6678   21.4030 H   0  0  0  0  0  0
  -18.0353  -26.0093   22.9032 H   0  0  0  0  0  0
  -19.7966  -30.7319   24.2199 H   0  0  0  0  0  0
  -17.5035  -31.6272   24.5165 H   0  0  0  0  0  0
  -15.5372  -30.2969   23.7694 H   0  0  0  0  0  0
  -15.8701  -28.0807   22.7101 H   0  0  0  0  0  0
  -24.5877  -30.7130   25.7675 H   0  0  0  0  0  0
  -24.8879  -32.2985   26.4689 H   0  0  0  0  0  0
  -25.7929  -30.9013   27.0213 H   0  0  0  0  0  0
  -26.3111  -29.6590   24.1404 H   0  0  0  0  0  0
  -27.3967  -29.7267   25.5065 H   0  0  0  0  0  0
  -27.9057  -30.4095   23.9834 H   0  0  0  0  0  0
  -27.2612  -33.3681   26.1975 H   0  0  0  0  0  0
  -28.3917  -32.6855   25.0379 H   0  0  0  0  0  0
  -28.0656  -31.8549   26.5515 H   0  0  0  0  0  0
  -28.2575  -38.0073   24.7500 H   0  0  0  0  0  0
  -28.1076  -36.2598   24.6313 H   0  0  0  0  0  0
  -27.2282  -37.1431   25.8869 H   0  0  0  0  0  0
  -20.9569  -29.8735   21.6682 H   0  0  0  0  0  0
  -26.0132  -38.2768   24.1402 H   0  0  0  0  0  0
  -31.0025  -17.9478   19.2809 H   0  0  0  0  0  0
  -29.4858  -17.5714   18.4439 H   0  0  0  0  0  0
  -29.0949  -17.5287   22.2381 H   0  0  0  0  0  0
  -30.7517  -17.9172   21.7365 H   0  0  0  0  0  0
  -27.5632  -21.1727   21.3171 H   0  0  0  0  0  0
  -29.0383  -21.5326   22.2399 H   0  0  0  0  0  0
  -29.6578  -21.5353   18.5039 H   0  0  0  0  0  0
  -27.9640  -21.1742   18.9014 H   0  0  0  0  0  0
  -29.9134  -23.0535   20.4610 H   0  0  0  0  0  0
  -28.0784  -18.6025   20.2210 H   0  0  0  0  0  0
  -27.0634  -24.1361   20.7528 H   0  0  0  0  0  0
  -27.5228  -24.2039   19.1106 H   0  0  0  0  0  0
  -30.3825  -20.5649   20.5377 H   0  0  0  0  0  0
  1 25  1  0  0  0
  1 30  2  0  0  0
  1 78  1  0  0  0
  2  3  1  0  0  0
  2 25  1  0  0  0
  2 80  1  0  0  0
  2 81  1  0  0  0
  3  4  1  0  0  0
  3 82  1  0  0  0
  3 83  1  0  0  0
  4  5  1  0  0  0
  4 84  1  0  0  0
  4 85  1  0  0  0
  5  6  1  0  0  0
  5 26  1  0  0  0
  5 86  1  0  0  0
  6 25  1  0  0  0
  6 87  1  0  0  0
  6 88  1  0  0  0
  7  8  2  0  0  0
  7 26  1  0  0  0
  7 29  1  0  0  0
  8  9  1  0  0  0
  8 22  1  0  0  0
  9 10  1  0  0  0
  9 27  2  0  0  0
 10 11  2  0  0  0
 10 15  1  0  0  0
 11 12  1  0  0  0
 11 89  1  0  0  0
 12 13  2  0  0  0
 12 90  1  0  0  0
 13 14  1  0  0  0
 13 31  1  0  0  0
 14 15  2  0  0  0
 14 91  1  0  0  0
 15 92  1  0  0  0
 16 17  2  0  0  0
 16 21  1  0  0  0
 16 31  1  0  0  0
 17 18  1  0  0  0
 17 93  1  0  0  0
 18 19  2  0  0  0
 18 94  1  0  0  0
 19 20  1  0  0  0
 19 24  1  0  0  0
 20 21  2  0  0  0
 20 95  1  0  0  0
 21 23  1  0  0  0
 22 28  1  0  0  0
 22 32  2  0  0  0
 26 27  1  0  0  0
 28 96  1  0  0  0
 28 97  1  0  0  0
 29 98  1  0  0  0
 29 99  1  0  0  0
 33 34  1  0  0  0
 33 66  1  0  0  0
 33 70  2  0  0  0
 34 36  1  0  0  0
 34 59  1  0  0  0
 34100  1  0  0  0
 35 44  2  0  0  0
 35 45  1  0  0  0
 35 68  1  0  0  0
 36 56  1  0  0  0
 36101  1  0  0  0
 37 39  1  0  0  0
 37 47  1  0  0  0
 37 66  1  0  0  0
 37102  1  0  0  0
 38 43  2  0  0  0
 38 46  1  0  0  0
 38 47  1  0  0  0
 39 64  1  0  0  0
 39 67  2  0  0  0
 40 52  1  0  0  0
 40 53  2  0  0  0
 40 58  1  0  0  0
 41103  1  0  0  0
 41104  1  0  0  0
 41105  1  0  0  0
 41 48  1  0  0  0
 42 43  1  0  0  0
 42 66  1  0  0  0
 42106  1  0  0  0
 42107  1  0  0  0
 43 44  1  0  0  0
 44108  1  0  0  0
 45 46  2  0  0  0
 45109  1  0  0  0
 46110  1  0  0  0
 47111  1  0  0  0
 47112  1  0  0  0
 48 56  1  0  0  0
 48 65  1  0  0  0
 48113  1  0  0  0
 49 50  1  0  0  0
 49 53  1  0  0  0
 49 64  1  0  0  0
 49114  1  0  0  0
 50 51  1  0  0  0
 50115  1  0  0  0
 50116  1  0  0  0
 51 52  1  0  0  0
 51117  1  0  0  0
 51118  1  0  0  0
 52119  1  0  0  0
 52120  1  0  0  0
 53 54  1  0  0  0
 54 55  2  0  0  0
 54121  1  0  0  0
 55 57  1  0  0  0
 55122  1  0  0  0
 56 69  2  0  0  0
 57 58  2  0  0  0
 57123  1  0  0  0
 58124  1  0  0  0
 59 60  1  0  0  0
 59 61  1  0  0  0
 59 62  1  0  0  0
 60125  1  0  0  0
 60126  1  0  0  0
 60127  1  0  0  0
 61128  1  0  0  0
 61129  1  0  0  0
 61130  1  0  0  0
 62131  1  0  0  0
 62132  1  0  0  0
 62133  1  0  0  0
 63 65  1  0  0  0
 63134  1  0  0  0
 63135  1  0  0  0
 63136  1  0  0  0
 64137  1  0  0  0
 65138  1  0  0  0
 68 77  1  0  0  0
 71 78  1  0  0  0
 71139  1  0  0  0
 71140  1  0  0  0
 71 76  1  0  0  0
 72 76  1  0  0  0
 72 78  1  0  0  0
 72141  1  0  0  0
 72142  1  0  0  0
 73 75  1  0  0  0
 73143  1  0  0  0
 73144  1  0  0  0
 73 79  1  0  0  0
 74 75  1  0  0  0
 74 79  1  0  0  0
 74145  1  0  0  0
 74146  1  0  0  0
 75 77  1  0  0  0
 75147  1  0  0  0
 76 79  1  0  0  0
 76148  1  0  0  0
 77149  1  0  0  0
 77150  1  0  0  0
 79151  1  0  0  0
M  CHG  1  79   1
M  ISO  4   1 100  68 101  77 101  78 100
M  END
> <chiral flag>
0

> <version>
0

> <s_m_source_file>
/data/baiqing/PycharmProjects/Reinvent-master-3.2/result/LINK_invent/BTK/process_docking_weight1_custom_sum_contain_oxygen_bond_distance_aromatic_linkinvent_7_9_3/rearranged_h_0188.sdf

> <i_m_source_file_index>
74

> <r_mmod_Potential_Energy-OPLS-2005>
987.076049804688

> <r_mmod_Stretch_Energy-OPLS-2005>
457.587768554688

> <r_mmod_Bend_Energy-OPLS-2005>
443.049377441406

> <r_mmod_Torsional_Energy-OPLS-2005>
299.109313964844

> <r_mmod_Improper_Torsional_Energy-OPLS-2005>
14.2188720703125

> <r_mmod_Van_der_Waal_Energy-OPLS-2005>
113.859596252441

> <r_mmod_Electrostatic_Energy-OPLS-2005>
-252.845245361328

> <r_mmod_Solvation_Energy-OPLS-2005>
-487.831298828125

> <b_mmod_Minimization_Converged-OPLS-2005>
0

> <r_mmod_RMS_Derivative-OPLS-2005>
0.290479421615601

$$$$
75
                    3D
 Structure written by MMmdl.
155164  0  0  1  0            999 V2000
  -30.6133  -14.8137   20.4863 C   0  0  0  0  0  0
  -30.4345  -12.5137   19.4770 C   0  0  0  0  0  0
  -29.5097  -12.5218   18.2387 C   0  0  0  0  0  0
  -28.0377  -12.3268   18.6517 C   0  0  0  0  0  0
  -27.6367  -13.2273   19.8486 C   0  0  2  0  0  0
  -28.6855  -13.1596   20.9807 C   0  0  0  0  0  0
  -25.2434  -13.8155   20.5633 C   0  0  0  0  0  0
  -24.1761  -13.0402   20.9214 C   0  0  0  0  0  0
  -24.6374  -11.6891   20.8767 C   0  0  0  0  0  0
  -23.9059  -10.4273   21.0421 C   0  0  0  0  0  0
  -24.3615   -9.4189   21.9194 C   0  0  0  0  0  0
  -23.6288   -8.2227   22.0758 C   0  0  0  0  0  0
  -22.4270   -8.0270   21.3546 C   0  0  0  0  0  0
  -21.9907   -9.0244   20.4648 C   0  0  0  0  0  0
  -22.7237  -10.2120   20.3061 C   0  0  0  0  0  0
  -21.6849   -6.0730   22.5279 C   0  0  0  0  0  0
  -21.4012   -6.5635   23.8212 C   0  0  0  0  0  0
  -21.3659   -5.6789   24.9175 C   0  0  0  0  0  0
  -21.6045   -4.3052   24.7227 C   0  0  0  0  0  0
  -21.8818   -3.8143   23.4347 C   0  0  0  0  0  0
  -21.9190   -4.6959   22.3402 C   0  0  0  0  0  0
  -22.7786  -13.5190   21.1873 C   0  0  0  0  0  0
  -22.1659   -4.2145   21.0980 F   0  0  0  0  0  0
  -21.5630   -3.4536   25.7739 F   0  0  0  0  0  0
  -29.9676  -13.5850   20.3996 N   0  0  0  0  0  0
  -26.2893  -12.9376   20.3268 N   0  0  0  0  0  0
  -25.9305  -11.6523   20.5776 N   0  0  0  0  0  0
  -22.0441  -12.8191   22.0443 N   0  0  0  0  0  0
  -25.3970  -15.1870   20.3915 N   0  0  0  0  0  0
  -31.7992  -14.8590   20.1388 O   0  0  0  0  0  0
  -21.6633   -6.8870   21.4240 O   0  0  0  0  0  0
  -22.3469  -14.5494   20.6716 O   0  0  0  0  0  0
  -24.6337  -31.8520   23.1946 C   0  0  0  0  0  0
  -25.9149  -32.4738   23.8308 C   0  0  1  0  0  0
  -27.2219  -27.2358   20.1435 C   0  0  0  0  0  0
  -25.5933  -33.8541   24.2236 N   0  0  0  0  0  0
  -23.4324  -30.4719   21.5387 C   0  0  2  0  0  0
  -24.8812  -28.9078   20.1156 C   0  0  0  0  0  0
  -22.7512  -29.4586   22.4905 C   0  0  0  0  0  0
  -18.0292  -28.1388   22.8479 C   0  0  0  0  0  0
  -24.1490  -36.7272   23.2641 C   0  0  0  0  0  0
  -25.9793  -30.7585   21.3760 C   0  0  0  0  0  0
  -26.0542  -29.3761   20.7227 C   0  0  0  0  0  0
  -27.2314  -28.5556   20.7178 C   0  0  0  0  0  0
  -26.0264  -26.8340   19.5147 C   0  0  0  0  0  0
  -24.8736  -27.6464   19.4984 C   0  0  0  0  0  0
  -23.6532  -29.7993   20.1578 C   0  0  0  0  0  0
  -25.4118  -36.3059   24.0326 C   0  0  1  0  0  0
  -20.5896  -28.3701   23.1263 C   0  0  2  0  0  0
  -20.6778  -26.9417   22.5406 C   0  0  0  0  0  0
  -19.5757  -26.6383   21.5206 C   0  0  0  0  0  0
  -18.1938  -26.7928   22.1619 C   0  0  0  0  0  0
  -19.1545  -28.8861   23.2865 C   0  0  0  0  0  0
  -18.9466  -30.1459   23.8889 C   0  0  0  0  0  0
  -17.6466  -30.6589   24.0558 C   0  0  0  0  0  0
  -25.9058  -34.9431   23.5085 C   0  0  0  0  0  0
  -16.5357  -29.9085   23.6333 C   0  0  0  0  0  0
  -16.7277  -28.6501   23.0356 C   0  0  0  0  0  0
  -26.4510  -31.6571   25.0707 C   0  0  0  0  0  0
  -25.3727  -31.3723   26.1422 C   0  0  0  0  0  0
  -27.0362  -30.2987   24.6203 C   0  0  0  0  0  0
  -27.6058  -32.4315   25.7488 C   0  0  0  0  0  0
  -27.5579  -37.1792   24.8468 C   0  0  0  0  0  0
  -21.4216  -29.3045   22.3651 N   0  0  0  0  0  0
  -26.4289  -37.3762   23.9410 N   0  0  0  0  0  0
  -24.7011  -31.0464   22.0929 N   0  0  0  0  0  0
  -23.4197  -28.8135   23.3023 O   0  0  0  0  0  0
  -28.3112  -26.3303   20.1368 O   0  0  0  0  0  0
  -26.5634  -34.8914   22.4658 O   0  0  0  0  0  0
  -23.5481  -32.1349   23.7230 O   0  0  0  0  0  0
  -28.2801  -22.2453   17.9676 C   0  0  0  0  0  0
  -28.1629  -23.4837   18.6297 C   0  0  0  0  0  0
  -28.7010  -21.0958   18.6689 C   0  0  0  0  0  0
  -28.4677  -23.5786   19.9977 C   0  0  0  0  0  0
  -29.0247  -21.1794   20.0331 C   0  0  0  0  0  0
  -28.5061  -17.8338   21.5962 C   0  0  0  0  0  0
  -28.7131  -16.2988   21.4452 C   0  0  0  0  0  0
  -30.3798  -17.4312   20.2385 C   0  0  0  0  0  0
  -29.2217  -18.5266   20.4325 C   0  0  2  0  0  0
  -28.1480  -24.9585   20.7614 C   0  0  0  0  0  0
  -28.9027  -22.4193   20.6675 N   0  0  0  0  0  0
  -29.9126  -16.0336   20.6380 N   0  0  0  0  0  0
  -29.5256  -20.0011   20.7220 N   0  0  0  0  0  0
  -31.4700  -12.6530   19.1627 H   0  0  0  0  0  0
  -30.4111  -11.5414   19.9713 H   0  0  0  0  0  0
  -29.8083  -11.7410   17.5382 H   0  0  0  0  0  0
  -29.6179  -13.4684   17.7068 H   0  0  0  0  0  0
  -27.9067  -11.2779   18.9204 H   0  0  0  0  0  0
  -27.3780  -12.5080   17.8023 H   0  0  0  0  0  0
  -27.6256  -14.2425   19.4543 H   0  0  0  0  0  0
  -28.7581  -12.1430   21.3699 H   0  0  0  0  0  0
  -28.3958  -13.7629   21.8366 H   0  0  0  0  0  0
  -25.2759   -9.5665   22.4771 H   0  0  0  0  0  0
  -23.9994   -7.4616   22.7476 H   0  0  0  0  0  0
  -21.0840   -8.8765   19.8952 H   0  0  0  0  0  0
  -22.3699  -10.9663   19.6172 H   0  0  0  0  0  0
  -21.2003   -7.6143   23.9715 H   0  0  0  0  0  0
  -21.1484   -6.0520   25.9078 H   0  0  0  0  0  0
  -22.0598   -2.7605   23.2848 H   0  0  0  0  0  0
  -22.4063  -11.9860   22.4839 H   0  0  0  0  0  0
  -21.1059  -13.1219   22.2653 H   0  0  0  0  0  0
  -24.6186  -15.8289   20.4939 H   0  0  0  0  0  0
  -26.2300  -15.6305   20.0282 H   0  0  0  0  0  0
  -26.7213  -32.5386   23.1048 H   0  0  0  0  0  0
  -25.0077  -33.9671   25.0381 H   0  0  0  0  0  0
  -22.7302  -31.2946   21.3880 H   0  0  0  0  0  0
  -23.3755  -35.9602   23.3301 H   0  0  0  0  0  0
  -24.3577  -36.8897   22.2055 H   0  0  0  0  0  0
  -23.7240  -37.6470   23.6669 H   0  0  0  0  0  0
  -26.1182  -31.5162   20.6036 H   0  0  0  0  0  0
  -26.8565  -30.8122   22.0093 H   0  0  0  0  0  0
  -28.1345  -28.9138   21.1916 H   0  0  0  0  0  0
  -25.9773  -25.8643   19.0397 H   0  0  0  0  0  0
  -23.9762  -27.2837   19.0161 H   0  0  0  0  0  0
  -23.7810  -30.5723   19.3990 H   0  0  0  0  0  0
  -22.7710  -29.2334   19.8530 H   0  0  0  0  0  0
  -25.1303  -36.1899   25.0818 H   0  0  0  0  0  0
  -20.9986  -28.3279   24.1384 H   0  0  0  0  0  0
  -20.5668  -26.2312   23.3611 H   0  0  0  0  0  0
  -21.6647  -26.7434   22.1209 H   0  0  0  0  0  0
  -19.6920  -25.6291   21.1245 H   0  0  0  0  0  0
  -19.6697  -27.3186   20.6730 H   0  0  0  0  0  0
  -17.4204  -26.6665   21.4027 H   0  0  0  0  0  0
  -18.0346  -26.0073   22.9021 H   0  0  0  0  0  0
  -19.7944  -30.7273   24.2259 H   0  0  0  0  0  0
  -17.5022  -31.6271   24.5157 H   0  0  0  0  0  0
  -15.5357  -30.2986   23.7664 H   0  0  0  0  0  0
  -15.8675  -28.0816   22.7084 H   0  0  0  0  0  0
  -24.5920  -30.7049   25.7752 H   0  0  0  0  0  0
  -24.8898  -32.2888   26.4818 H   0  0  0  0  0  0
  -25.8046  -30.8927   27.0215 H   0  0  0  0  0  0
  -26.2949  -29.6723   24.1225 H   0  0  0  0  0  0
  -27.4038  -29.7262   25.4728 H   0  0  0  0  0  0
  -27.8830  -30.4258   23.9454 H   0  0  0  0  0  0
  -27.2667  -33.3627   26.2039 H   0  0  0  0  0  0
  -28.3890  -32.6850   25.0330 H   0  0  0  0  0  0
  -28.0700  -31.8449   26.5426 H   0  0  0  0  0  0
  -28.2596  -38.0089   24.7514 H   0  0  0  0  0  0
  -28.1074  -36.2618   24.6299 H   0  0  0  0  0  0
  -27.2293  -37.1447   25.8870 H   0  0  0  0  0  0
  -20.9406  -29.8755   21.6843 H   0  0  0  0  0  0
  -26.0165  -38.2834   24.1411 H   0  0  0  0  0  0
  -28.0386  -22.1731   16.9167 H   0  0  0  0  0  0
  -27.8106  -24.3541   18.0928 H   0  0  0  0  0  0
  -28.7972  -20.1642   18.1298 H   0  0  0  0  0  0
  -28.9529  -18.1486   22.5406 H   0  0  0  0  0  0
  -27.4492  -18.0997   21.6444 H   0  0  0  0  0  0
  -27.8499  -15.8767   20.9444 H   0  0  0  0  0  0
  -28.7924  -15.8385   22.4307 H   0  0  0  0  0  0
  -30.7350  -17.4287   19.2072 H   0  0  0  0  0  0
  -31.2379  -17.6814   20.8641 H   0  0  0  0  0  0
  -28.5640  -18.4722   19.5644 H   0  0  0  0  0  0
  -28.7700  -24.9667   21.6564 H   0  0  0  0  0  0
  -27.1286  -24.8668   21.1387 H   0  0  0  0  0  0
  -29.8344  -20.1803   21.6714 H   0  0  0  0  0  0
  1 25  1  0  0  0
  1 30  2  0  0  0
  1 82  1  0  0  0
  2  3  1  0  0  0
  2 25  1  0  0  0
  2 84  1  0  0  0
  2 85  1  0  0  0
  3  4  1  0  0  0
  3 86  1  0  0  0
  3 87  1  0  0  0
  4  5  1  0  0  0
  4 88  1  0  0  0
  4 89  1  0  0  0
  5  6  1  0  0  0
  5 26  1  0  0  0
  5 90  1  0  0  0
  6 25  1  0  0  0
  6 91  1  0  0  0
  6 92  1  0  0  0
  7  8  2  0  0  0
  7 26  1  0  0  0
  7 29  1  0  0  0
  8  9  1  0  0  0
  8 22  1  0  0  0
  9 10  1  0  0  0
  9 27  2  0  0  0
 10 11  2  0  0  0
 10 15  1  0  0  0
 11 12  1  0  0  0
 11 93  1  0  0  0
 12 13  2  0  0  0
 12 94  1  0  0  0
 13 14  1  0  0  0
 13 31  1  0  0  0
 14 15  2  0  0  0
 14 95  1  0  0  0
 15 96  1  0  0  0
 16 17  2  0  0  0
 16 21  1  0  0  0
 16 31  1  0  0  0
 17 18  1  0  0  0
 17 97  1  0  0  0
 18 19  2  0  0  0
 18 98  1  0  0  0
 19 20  1  0  0  0
 19 24  1  0  0  0
 20 21  2  0  0  0
 20 99  1  0  0  0
 21 23  1  0  0  0
 22 28  1  0  0  0
 22 32  2  0  0  0
 26 27  1  0  0  0
 28100  1  0  0  0
 28101  1  0  0  0
 29102  1  0  0  0
 29103  1  0  0  0
 33 34  1  0  0  0
 33 66  1  0  0  0
 33 70  2  0  0  0
 34 36  1  0  0  0
 34 59  1  0  0  0
 34104  1  0  0  0
 35 44  2  0  0  0
 35 45  1  0  0  0
 35 68  1  0  0  0
 36 56  1  0  0  0
 36105  1  0  0  0
 37 39  1  0  0  0
 37 47  1  0  0  0
 37 66  1  0  0  0
 37106  1  0  0  0
 38 43  2  0  0  0
 38 46  1  0  0  0
 38 47  1  0  0  0
 39 64  1  0  0  0
 39 67  2  0  0  0
 40 52  1  0  0  0
 40 53  2  0  0  0
 40 58  1  0  0  0
 41107  1  0  0  0
 41108  1  0  0  0
 41109  1  0  0  0
 41 48  1  0  0  0
 42 43  1  0  0  0
 42 66  1  0  0  0
 42110  1  0  0  0
 42111  1  0  0  0
 43 44  1  0  0  0
 44112  1  0  0  0
 45 46  2  0  0  0
 45113  1  0  0  0
 46114  1  0  0  0
 47115  1  0  0  0
 47116  1  0  0  0
 48 56  1  0  0  0
 48 65  1  0  0  0
 48117  1  0  0  0
 49 50  1  0  0  0
 49 53  1  0  0  0
 49 64  1  0  0  0
 49118  1  0  0  0
 50 51  1  0  0  0
 50119  1  0  0  0
 50120  1  0  0  0
 51 52  1  0  0  0
 51121  1  0  0  0
 51122  1  0  0  0
 52123  1  0  0  0
 52124  1  0  0  0
 53 54  1  0  0  0
 54 55  2  0  0  0
 54125  1  0  0  0
 55 57  1  0  0  0
 55126  1  0  0  0
 56 69  2  0  0  0
 57 58  2  0  0  0
 57127  1  0  0  0
 58128  1  0  0  0
 59 60  1  0  0  0
 59 61  1  0  0  0
 59 62  1  0  0  0
 60129  1  0  0  0
 60130  1  0  0  0
 60131  1  0  0  0
 61132  1  0  0  0
 61133  1  0  0  0
 61134  1  0  0  0
 62135  1  0  0  0
 62136  1  0  0  0
 62137  1  0  0  0
 63 65  1  0  0  0
 63138  1  0  0  0
 63139  1  0  0  0
 63140  1  0  0  0
 64141  1  0  0  0
 65142  1  0  0  0
 68 80  1  0  0  0
 71 72  2  0  0  0
 71 73  1  0  0  0
 71143  1  0  0  0
 72 74  1  0  0  0
 72144  1  0  0  0
 73 75  2  0  0  0
 73145  1  0  0  0
 74 80  1  0  0  0
 74 81  2  0  0  0
 75 81  1  0  0  0
 75 83  1  0  0  0
 76 77  1  0  0  0
 76 79  1  0  0  0
 76146  1  0  0  0
 76147  1  0  0  0
 77 82  1  0  0  0
 77148  1  0  0  0
 77149  1  0  0  0
 78 79  1  0  0  0
 78 82  1  0  0  0
 78150  1  0  0  0
 78151  1  0  0  0
 79 83  1  0  0  0
 79152  1  0  0  0
 80153  1  0  0  0
 80154  1  0  0  0
 83155  1  0  0  0
M  ISO  4   1 100  68 101  80 101  82 100
M  END
> <chiral flag>
0

> <version>
0

> <s_m_source_file>
/data/baiqing/PycharmProjects/Reinvent-master-3.2/result/LINK_invent/BTK/process_docking_weight1_custom_sum_contain_oxygen_bond_distance_aromatic_linkinvent_7_9_3/rearranged_h_0188.sdf

> <i_m_source_file_index>
75

> <r_mmod_Potential_Energy-OPLS-2005>
194.549240112305

> <r_mmod_Stretch_Energy-OPLS-2005>
141.976333618164

> <r_mmod_Bend_Energy-OPLS-2005>
221.769836425781

> <r_mmod_Torsional_Energy-OPLS-2005>
328.295288085938

> <r_mmod_Improper_Torsional_Energy-OPLS-2005>
10.2977342605591

> <r_mmod_Van_der_Waal_Energy-OPLS-2005>
132.595581054688

> <r_mmod_Electrostatic_Energy-OPLS-2005>
-517.262084960938

> <r_mmod_Solvation_Energy-OPLS-2005>
-227.102828979492

> <b_mmod_Minimization_Converged-OPLS-2005>
0

> <r_mmod_RMS_Derivative-OPLS-2005>
0.485728710889816

$$$$
76
                    3D
 Structure written by MMmdl.
160170  0  0  1  0            999 V2000
  -30.5832  -14.7838   20.4341 C   0  0  0  0  0  0
  -30.4323  -12.4727   19.4760 C   0  0  0  0  0  0
  -29.5138  -12.5219   18.2342 C   0  0  0  0  0  0
  -28.0368  -12.3450   18.6415 C   0  0  0  0  0  0
  -27.6397  -13.2350   19.8491 C   0  0  2  0  0  0
  -28.6848  -13.1709   20.9849 C   0  0  0  0  0  0
  -25.2491  -13.8194   20.5676 C   0  0  0  0  0  0
  -24.1790  -13.0436   20.9201 C   0  0  0  0  0  0
  -24.6385  -11.6919   20.8730 C   0  0  0  0  0  0
  -23.9054  -10.4298   21.0390 C   0  0  0  0  0  0
  -24.3608   -9.4220   21.9174 C   0  0  0  0  0  0
  -23.6291   -8.2250   22.0748 C   0  0  0  0  0  0
  -22.4275   -8.0277   21.3539 C   0  0  0  0  0  0
  -21.9896   -9.0245   20.4639 C   0  0  0  0  0  0
  -22.7223  -10.2129   20.3044 C   0  0  0  0  0  0
  -21.6853   -6.0724   22.5272 C   0  0  0  0  0  0
  -21.4017   -6.5633   23.8204 C   0  0  0  0  0  0
  -21.3662   -5.6786   24.9165 C   0  0  0  0  0  0
  -21.6046   -4.3048   24.7220 C   0  0  0  0  0  0
  -21.8825   -3.8134   23.4343 C   0  0  0  0  0  0
  -21.9194   -4.6949   22.3399 C   0  0  0  0  0  0
  -22.7815  -13.5212   21.1868 C   0  0  0  0  0  0
  -22.1667   -4.2130   21.0978 F   0  0  0  0  0  0
  -21.5630   -3.4537   25.7739 F   0  0  0  0  0  0
  -29.9810  -13.5400   20.4021 N   0  0  0  0  0  0
  -26.2919  -12.9404   20.3242 N   0  0  0  0  0  0
  -25.9316  -11.6545   20.5721 N   0  0  0  0  0  0
  -22.0452  -12.8202   22.0416 N   0  0  0  0  0  0
  -25.4192  -15.1921   20.4140 N   0  0  0  0  0  0
  -31.7809  -14.8594   20.1372 O   0  0  0  0  0  0
  -21.6647   -6.8869   21.4233 O   0  0  0  0  0  0
  -22.3506  -14.5519   20.6717 O   0  0  0  0  0  0
  -24.6341  -31.8529   23.1937 C   0  0  0  0  0  0
  -25.9151  -32.4733   23.8308 C   0  0  1  0  0  0
  -27.2193  -27.2326   20.1427 C   0  0  0  0  0  0
  -25.5943  -33.8536   24.2235 N   0  0  0  0  0  0
  -23.4326  -30.4721   21.5372 C   0  0  2  0  0  0
  -24.8798  -28.9063   20.1171 C   0  0  0  0  0  0
  -22.7514  -29.4596   22.4902 C   0  0  0  0  0  0
  -18.0286  -28.1404   22.8481 C   0  0  0  0  0  0
  -24.1490  -36.7262   23.2641 C   0  0  0  0  0  0
  -25.9792  -30.7581   21.3748 C   0  0  0  0  0  0
  -26.0524  -29.3748   20.7222 C   0  0  0  0  0  0
  -27.2284  -28.5529   20.7155 C   0  0  0  0  0  0
  -26.0226  -26.8303   19.5143 C   0  0  0  0  0  0
  -24.8702  -27.6433   19.5013 C   0  0  0  0  0  0
  -23.6522  -29.7975   20.1572 C   0  0  0  0  0  0
  -25.4114  -36.3047   24.0330 C   0  0  1  0  0  0
  -20.5893  -28.3718   23.1269 C   0  0  2  0  0  0
  -20.6786  -26.9438   22.5407 C   0  0  0  0  0  0
  -19.5763  -26.6389   21.5213 C   0  0  0  0  0  0
  -18.1941  -26.7953   22.1611 C   0  0  0  0  0  0
  -19.1539  -28.8876   23.2872 C   0  0  0  0  0  0
  -18.9455  -30.1468   23.8899 C   0  0  0  0  0  0
  -17.6456  -30.6603   24.0557 C   0  0  0  0  0  0
  -25.9062  -34.9425   23.5083 C   0  0  0  0  0  0
  -16.5345  -29.9098   23.6339 C   0  0  0  0  0  0
  -16.7271  -28.6514   23.0370 C   0  0  0  0  0  0
  -26.4505  -31.6574   25.0716 C   0  0  0  0  0  0
  -25.3721  -31.3747   26.1432 C   0  0  0  0  0  0
  -27.0322  -30.2972   24.6238 C   0  0  0  0  0  0
  -27.6089  -32.4293   25.7478 C   0  0  0  0  0  0
  -27.5575  -37.1776   24.8452 C   0  0  0  0  0  0
  -21.4217  -29.3055   22.3645 N   0  0  0  0  0  0
  -26.4271  -37.3762   23.9418 N   0  0  0  0  0  0
  -24.7013  -31.0471   22.0919 N   0  0  0  0  0  0
  -23.4206  -28.8148   23.3018 O   0  0  0  0  0  0
  -28.3215  -26.3429   20.1353 O   0  0  0  0  0  0
  -26.5628  -34.8920   22.4646 O   0  0  0  0  0  0
  -23.5482  -32.1347   23.7222 O   0  0  0  0  0  0
  -28.9215  -18.3483   20.5959 C   0  0  0  0  0  0
  -29.1380  -19.7695   20.3814 C   0  0  0  0  0  0
  -30.3922  -20.1888   20.0040 C   0  0  0  0  0  0
  -31.4093  -19.2230   19.8255 C   0  0  0  0  0  0
  -29.9905  -17.3786   20.4117 C   0  0  0  0  0  0
  -28.2283  -21.0431   20.4692 C   0  0  0  0  0  0
  -30.4300  -21.7207   19.8314 C   0  0  0  0  0  0
  -33.0802  -20.4720   18.2208 C   0  0  0  0  0  0
  -33.4198  -19.0067   18.1557 C   0  0  0  0  0  0
  -32.8073  -19.5821   19.4155 C   0  0  0  0  0  0
  -28.6586  -23.6158   19.7236 C   0  0  0  0  0  0
  -28.1838  -24.9055   20.6094 C   0  0  0  0  0  0
  -31.1992  -17.8872   20.0323 N   0  0  0  0  0  0
  -29.7746  -15.9111   20.6132 N   0  0  0  0  0  0
  -29.1358  -22.2746   20.3780 N   0  3  1  0  0  0
  -31.4755  -12.5932   19.1808 H   0  0  0  0  0  0
  -30.3737  -11.4959   19.9582 H   0  0  0  0  0  0
  -29.8023  -11.7513   17.5185 H   0  0  0  0  0  0
  -29.6402  -13.4762   17.7202 H   0  0  0  0  0  0
  -27.8860  -11.2939   18.8912 H   0  0  0  0  0  0
  -27.3839  -12.5530   17.7926 H   0  0  0  0  0  0
  -27.6300  -14.2574   19.4717 H   0  0  0  0  0  0
  -28.7275  -12.1698   21.4169 H   0  0  0  0  0  0
  -28.4149  -13.8429   21.8015 H   0  0  0  0  0  0
  -25.2754   -9.5704   22.4744 H   0  0  0  0  0  0
  -24.0001   -7.4640   22.7468 H   0  0  0  0  0  0
  -21.0821   -8.8752   19.8953 H   0  0  0  0  0  0
  -22.3667  -10.9656   19.6145 H   0  0  0  0  0  0
  -21.2017   -7.6144   23.9699 H   0  0  0  0  0  0
  -21.1478   -6.0519   25.9066 H   0  0  0  0  0  0
  -22.0603   -2.7595   23.2843 H   0  0  0  0  0  0
  -22.4070  -11.9874   22.4822 H   0  0  0  0  0  0
  -21.1061  -13.1219   22.2603 H   0  0  0  0  0  0
  -24.6472  -15.8405   20.5283 H   0  0  0  0  0  0
  -26.2527  -15.6321   20.0476 H   0  0  0  0  0  0
  -26.7220  -32.5377   23.1052 H   0  0  0  0  0  0
  -25.0113  -33.9656   25.0400 H   0  0  0  0  0  0
  -22.7316  -31.2954   21.3848 H   0  0  0  0  0  0
  -23.3772  -35.9564   23.3242 H   0  0  0  0  0  0
  -24.3602  -36.8944   22.2066 H   0  0  0  0  0  0
  -23.7212  -37.6433   23.6707 H   0  0  0  0  0  0
  -26.1183  -31.5149   20.6012 H   0  0  0  0  0  0
  -26.8565  -30.8109   22.0074 H   0  0  0  0  0  0
  -28.1327  -28.9123   21.1866 H   0  0  0  0  0  0
  -25.9711  -25.8642   19.0326 H   0  0  0  0  0  0
  -23.9713  -27.2832   19.0195 H   0  0  0  0  0  0
  -23.7768  -30.5661   19.3937 H   0  0  0  0  0  0
  -22.7715  -29.2279   19.8566 H   0  0  0  0  0  0
  -25.1296  -36.1870   25.0821 H   0  0  0  0  0  0
  -20.9979  -28.3294   24.1395 H   0  0  0  0  0  0
  -20.5684  -26.2333   23.3614 H   0  0  0  0  0  0
  -21.6654  -26.7473   22.1205 H   0  0  0  0  0  0
  -19.6932  -25.6289   21.1277 H   0  0  0  0  0  0
  -19.6721  -27.3173   20.6727 H   0  0  0  0  0  0
  -17.4217  -26.6699   21.4005 H   0  0  0  0  0  0
  -18.0329  -26.0097   22.9010 H   0  0  0  0  0  0
  -19.7924  -30.7279   24.2297 H   0  0  0  0  0  0
  -17.5007  -31.6297   24.5132 H   0  0  0  0  0  0
  -15.5344  -30.2993   23.7685 H   0  0  0  0  0  0
  -15.8669  -28.0823   22.7116 H   0  0  0  0  0  0
  -24.5896  -30.7100   25.7751 H   0  0  0  0  0  0
  -24.8912  -32.2918   26.4845 H   0  0  0  0  0  0
  -25.8018  -30.8921   27.0219 H   0  0  0  0  0  0
  -26.2889  -29.6725   24.1265 H   0  0  0  0  0  0
  -27.3953  -29.7251   25.4786 H   0  0  0  0  0  0
  -27.8816  -30.4196   23.9513 H   0  0  0  0  0  0
  -27.2753  -33.3642   26.1993 H   0  0  0  0  0  0
  -28.3942  -32.6745   25.0316 H   0  0  0  0  0  0
  -28.0707  -31.8434   26.5433 H   0  0  0  0  0  0
  -28.2555  -38.0110   24.7535 H   0  0  0  0  0  0
  -28.1105  -36.2639   24.6218 H   0  0  0  0  0  0
  -27.2308  -37.1348   25.8858 H   0  0  0  0  0  0
  -20.9412  -29.8746   21.6816 H   0  0  0  0  0  0
  -26.0137  -38.2823   24.1438 H   0  0  0  0  0  0
  -27.9381  -18.0098   20.8925 H   0  0  0  0  0  0
  -27.6550  -21.0534   21.3953 H   0  0  0  0  0  0
  -27.5258  -21.0278   19.6366 H   0  0  0  0  0  0
  -30.5167  -21.9446   18.7674 H   0  0  0  0  0  0
  -31.2891  -22.1583   20.3406 H   0  0  0  0  0  0
  -32.2402  -20.8024   17.6137 H   0  0  0  0  0  0
  -33.9150  -21.1669   18.2852 H   0  0  0  0  0  0
  -34.4751  -18.7444   18.1765 H   0  0  0  0  0  0
  -32.7935  -18.3792   17.5243 H   0  0  0  0  0  0
  -33.4520  -19.6936   20.2860 H   0  0  0  0  0  0
  -29.5044  -23.9833   19.1433 H   0  0  0  0  0  0
  -27.8944  -23.3925   18.9792 H   0  0  0  0  0  0
  -28.7700  -24.8802   21.5281 H   0  0  0  0  0  0
  -27.1605  -24.7328   20.9430 H   0  0  0  0  0  0
  -28.8285  -15.6708   20.8580 H   0  0  0  0  0  0
  -29.3637  -22.4887   21.3371 H   0  0  0  0  0  0
  1 25  1  0  0  0
  1 30  2  0  0  0
  1 84  1  0  0  0
  2  3  1  0  0  0
  2 25  1  0  0  0
  2 86  1  0  0  0
  2 87  1  0  0  0
  3  4  1  0  0  0
  3 88  1  0  0  0
  3 89  1  0  0  0
  4  5  1  0  0  0
  4 90  1  0  0  0
  4 91  1  0  0  0
  5  6  1  0  0  0
  5 26  1  0  0  0
  5 92  1  0  0  0
  6 25  1  0  0  0
  6 93  1  0  0  0
  6 94  1  0  0  0
  7  8  2  0  0  0
  7 26  1  0  0  0
  7 29  1  0  0  0
  8  9  1  0  0  0
  8 22  1  0  0  0
  9 10  1  0  0  0
  9 27  2  0  0  0
 10 11  2  0  0  0
 10 15  1  0  0  0
 11 12  1  0  0  0
 11 95  1  0  0  0
 12 13  2  0  0  0
 12 96  1  0  0  0
 13 14  1  0  0  0
 13 31  1  0  0  0
 14 15  2  0  0  0
 14 97  1  0  0  0
 15 98  1  0  0  0
 16 17  2  0  0  0
 16 21  1  0  0  0
 16 31  1  0  0  0
 17 18  1  0  0  0
 17 99  1  0  0  0
 18 19  2  0  0  0
 18100  1  0  0  0
 19 20  1  0  0  0
 19 24  1  0  0  0
 20 21  2  0  0  0
 20101  1  0  0  0
 21 23  1  0  0  0
 22 28  1  0  0  0
 22 32  2  0  0  0
 26 27  1  0  0  0
 28102  1  0  0  0
 28103  1  0  0  0
 29104  1  0  0  0
 29105  1  0  0  0
 33 34  1  0  0  0
 33 66  1  0  0  0
 33 70  2  0  0  0
 34 36  1  0  0  0
 34 59  1  0  0  0
 34106  1  0  0  0
 35 44  2  0  0  0
 35 45  1  0  0  0
 35 68  1  0  0  0
 36 56  1  0  0  0
 36107  1  0  0  0
 37 39  1  0  0  0
 37 47  1  0  0  0
 37 66  1  0  0  0
 37108  1  0  0  0
 38 43  2  0  0  0
 38 46  1  0  0  0
 38 47  1  0  0  0
 39 64  1  0  0  0
 39 67  2  0  0  0
 40 52  1  0  0  0
 40 53  2  0  0  0
 40 58  1  0  0  0
 41109  1  0  0  0
 41110  1  0  0  0
 41111  1  0  0  0
 41 48  1  0  0  0
 42 43  1  0  0  0
 42 66  1  0  0  0
 42112  1  0  0  0
 42113  1  0  0  0
 43 44  1  0  0  0
 44114  1  0  0  0
 45 46  2  0  0  0
 45115  1  0  0  0
 46116  1  0  0  0
 47117  1  0  0  0
 47118  1  0  0  0
 48 56  1  0  0  0
 48 65  1  0  0  0
 48119  1  0  0  0
 49 50  1  0  0  0
 49 53  1  0  0  0
 49 64  1  0  0  0
 49120  1  0  0  0
 50 51  1  0  0  0
 50121  1  0  0  0
 50122  1  0  0  0
 51 52  1  0  0  0
 51123  1  0  0  0
 51124  1  0  0  0
 52125  1  0  0  0
 52126  1  0  0  0
 53 54  1  0  0  0
 54 55  2  0  0  0
 54127  1  0  0  0
 55 57  1  0  0  0
 55128  1  0  0  0
 56 69  2  0  0  0
 57 58  2  0  0  0
 57129  1  0  0  0
 58130  1  0  0  0
 59 60  1  0  0  0
 59 61  1  0  0  0
 59 62  1  0  0  0
 60131  1  0  0  0
 60132  1  0  0  0
 60133  1  0  0  0
 61134  1  0  0  0
 61135  1  0  0  0
 61136  1  0  0  0
 62137  1  0  0  0
 62138  1  0  0  0
 62139  1  0  0  0
 63 65  1  0  0  0
 63140  1  0  0  0
 63141  1  0  0  0
 63142  1  0  0  0
 64143  1  0  0  0
 65144  1  0  0  0
 68 82  1  0  0  0
 71 72  2  0  0  0
 71 75  1  0  0  0
 71145  1  0  0  0
 72 73  1  0  0  0
 72 76  1  0  0  0
 73 74  2  0  0  0
 73 77  1  0  0  0
 74 83  1  0  0  0
 74 80  1  0  0  0
 75 83  2  0  0  0
 75 84  1  0  0  0
 76 85  1  0  0  0
 76146  1  0  0  0
 76147  1  0  0  0
 77 85  1  0  0  0
 77148  1  0  0  0
 77149  1  0  0  0
 78 79  1  0  0  0
 78 80  1  0  0  0
 78150  1  0  0  0
 78151  1  0  0  0
 79 80  1  0  0  0
 79152  1  0  0  0
 79153  1  0  0  0
 80154  1  0  0  0
 81 82  1  0  0  0
 81155  1  0  0  0
 81156  1  0  0  0
 81 85  1  0  0  0
 82157  1  0  0  0
 82158  1  0  0  0
 84159  1  0  0  0
 85160  1  0  0  0
M  CHG  1  85   1
M  ISO  4   1 100  68 101  82 101  84 100
M  END
> <chiral flag>
0

> <version>
0

> <s_m_source_file>
/data/baiqing/PycharmProjects/Reinvent-master-3.2/result/LINK_invent/BTK/process_docking_weight1_custom_sum_contain_oxygen_bond_distance_aromatic_linkinvent_7_9_3/rearranged_h_0188.sdf

> <i_m_source_file_index>
76

> <r_mmod_Potential_Energy-OPLS-2005>
-28.4308586120605

> <r_mmod_Stretch_Energy-OPLS-2005>
140.171783447266

> <r_mmod_Bend_Energy-OPLS-2005>
230.249542236328

> <r_mmod_Torsional_Energy-OPLS-2005>
262.143341064453

> <r_mmod_Improper_Torsional_Energy-OPLS-2005>
4.34951877593994

> <r_mmod_Van_der_Waal_Energy-OPLS-2005>
126.092247009277

> <r_mmod_Electrostatic_Energy-OPLS-2005>
-406.789215087891

> <r_mmod_Solvation_Energy-OPLS-2005>
-483.109985351562

> <b_mmod_Minimization_Converged-OPLS-2005>
0

> <r_mmod_RMS_Derivative-OPLS-2005>
1.89245092868805

$$$$
77
                    3D
 Structure written by MMmdl.
154163  0  0  1  0            999 V2000
  -30.6105  -14.8607   20.4404 C   0  0  0  0  0  0
  -30.4177  -12.5338   19.4926 C   0  0  0  0  0  0
  -29.5054  -12.5165   18.2478 C   0  0  0  0  0  0
  -28.0392  -12.3154   18.6693 C   0  0  0  0  0  0
  -27.6260  -13.2454   19.8404 C   0  0  2  0  0  0
  -28.6679  -13.2653   20.9775 C   0  0  0  0  0  0
  -25.2428  -13.8216   20.5715 C   0  0  0  0  0  0
  -24.1738  -13.0440   20.9217 C   0  0  0  0  0  0
  -24.6353  -11.6927   20.8768 C   0  0  0  0  0  0
  -23.9050  -10.4292   21.0421 C   0  0  0  0  0  0
  -24.3601   -9.4210   21.9203 C   0  0  0  0  0  0
  -23.6279   -8.2241   22.0773 C   0  0  0  0  0  0
  -22.4268   -8.0273   21.3552 C   0  0  0  0  0  0
  -21.9892   -9.0250   20.4660 C   0  0  0  0  0  0
  -22.7218  -10.2128   20.3075 C   0  0  0  0  0  0
  -21.6850   -6.0722   22.5273 C   0  0  0  0  0  0
  -21.4014   -6.5624   23.8205 C   0  0  0  0  0  0
  -21.3662   -5.6783   24.9167 C   0  0  0  0  0  0
  -21.6043   -4.3044   24.7218 C   0  0  0  0  0  0
  -21.8824   -3.8129   23.4343 C   0  0  0  0  0  0
  -21.9191   -4.6949   22.3397 C   0  0  0  0  0  0
  -22.7768  -13.5234   21.1866 C   0  0  0  0  0  0
  -22.1672   -4.2136   21.0979 F   0  0  0  0  0  0
  -21.5631   -3.4535   25.7734 F   0  0  0  0  0  0
  -29.9510  -13.6414   20.3744 N   0  0  0  0  0  0
  -26.2848  -12.9448   20.3264 N   0  0  0  0  0  0
  -25.9287  -11.6577   20.5763 N   0  0  0  0  0  0
  -22.0403  -12.8253   22.0431 N   0  0  0  0  0  0
  -25.4091  -15.1938   20.4147 N   0  0  0  0  0  0
  -31.8152  -14.8641   20.1673 O   0  0  0  0  0  0
  -21.6634   -6.8862   21.4235 O   0  0  0  0  0  0
  -22.3463  -14.5544   20.6709 O   0  0  0  0  0  0
  -24.6381  -31.8475   23.1923 C   0  0  0  0  0  0
  -25.9174  -32.4711   23.8288 C   0  0  1  0  0  0
  -27.2108  -27.1774   20.1583 C   0  0  0  0  0  0
  -25.5944  -33.8515   24.2213 N   0  0  0  0  0  0
  -23.4391  -30.4681   21.5367 C   0  0  2  0  0  0
  -24.8895  -28.9026   20.1107 C   0  0  0  0  0  0
  -22.7538  -29.4553   22.4881 C   0  0  0  0  0  0
  -18.0303  -28.1378   22.8482 C   0  0  0  0  0  0
  -24.1492  -36.7259   23.2643 C   0  0  0  0  0  0
  -25.9926  -30.7358   21.3862 C   0  0  0  0  0  0
  -26.0647  -29.3506   20.7299 C   0  0  0  0  0  0
  -27.2304  -28.5029   20.7362 C   0  0  0  0  0  0
  -26.0188  -26.8263   19.4903 C   0  0  0  0  0  0
  -24.8780  -27.6533   19.4736 C   0  0  0  0  0  0
  -23.6637  -29.7993   20.1544 C   0  0  0  0  0  0
  -25.4121  -36.3045   24.0326 C   0  0  1  0  0  0
  -20.5912  -28.3692   23.1252 C   0  0  2  0  0  0
  -20.6778  -26.9399   22.5412 C   0  0  0  0  0  0
  -19.5760  -26.6370   21.5209 C   0  0  0  0  0  0
  -18.1944  -26.7918   22.1622 C   0  0  0  0  0  0
  -19.1559  -28.8854   23.2856 C   0  0  0  0  0  0
  -18.9478  -30.1456   23.8873 C   0  0  0  0  0  0
  -17.6477  -30.6579   24.0554 C   0  0  0  0  0  0
  -25.9066  -34.9419   23.5077 C   0  0  0  0  0  0
  -16.5364  -29.9074   23.6336 C   0  0  0  0  0  0
  -16.7286  -28.6492   23.0359 C   0  0  0  0  0  0
  -26.4522  -31.6558   25.0702 C   0  0  0  0  0  0
  -25.3724  -31.3731   26.1408 C   0  0  0  0  0  0
  -27.0384  -30.2960   24.6244 C   0  0  0  0  0  0
  -27.6057  -32.4311   25.7484 C   0  0  0  0  0  0
  -27.5576  -37.1788   24.8469 C   0  0  0  0  0  0
  -21.4239  -29.3033   22.3635 N   0  0  0  0  0  0
  -26.4290  -37.3752   23.9413 N   0  0  0  0  0  0
  -24.7091  -31.0368   22.0938 N   0  0  0  0  0  0
  -23.4206  -28.8099   23.3001 O   0  0  0  0  0  0
  -28.2641  -26.2081   20.1967 O   0  0  0  0  0  0
  -26.5652  -34.8908   22.4655 O   0  0  0  0  0  0
  -23.5506  -32.1347   23.7160 O   0  0  0  0  0  0
  -28.7624  -16.8483   20.3232 C   0  0  0  0  0  0
  -30.6029  -17.4159   21.1167 C   0  0  0  0  0  0
  -29.4469  -22.3037   21.0831 C   0  0  0  0  0  0
  -27.9363  -21.9844   19.8375 C   0  0  0  0  0  0
  -29.5197  -18.2512   20.3330 C   0  0  0  0  0  0
  -28.7064  -23.3399   20.1343 C   0  0  1  0  0  0
  -28.8549  -19.6893   20.8691 C   0  0  0  0  0  0
  -27.9623  -24.7526   20.6093 C   0  0  0  0  0  0
  -29.9846  -16.0933   20.7544 N   0  0  0  0  0  0
  -29.1010  -21.1086   20.2257 N   0  3  2  0  0  0
  -31.4593  -12.6466   19.1901 H   0  0  0  0  0  0
  -30.3677  -11.5801   20.0204 H   0  0  0  0  0  0
  -29.8079  -11.7249   17.5610 H   0  0  0  0  0  0
  -29.6093  -13.4543   17.6997 H   0  0  0  0  0  0
  -27.9279  -11.2723   18.9697 H   0  0  0  0  0  0
  -27.3751  -12.4592   17.8167 H   0  0  0  0  0  0
  -27.5938  -14.2485   19.4161 H   0  0  0  0  0  0
  -28.7339  -12.2936   21.4697 H   0  0  0  0  0  0
  -28.3826  -13.9853   21.7459 H   0  0  0  0  0  0
  -25.2730   -9.5698   22.4792 H   0  0  0  0  0  0
  -23.9980   -7.4642   22.7515 H   0  0  0  0  0  0
  -21.0814   -8.8769   19.8983 H   0  0  0  0  0  0
  -22.3661  -10.9672   19.6201 H   0  0  0  0  0  0
  -21.2015   -7.6132   23.9700 H   0  0  0  0  0  0
  -21.1484   -6.0517   25.9071 H   0  0  0  0  0  0
  -22.0597   -2.7588   23.2850 H   0  0  0  0  0  0
  -22.3987  -11.9909   22.4833 H   0  0  0  0  0  0
  -21.1040  -13.1340   22.2639 H   0  0  0  0  0  0
  -24.6375  -15.8433   20.5264 H   0  0  0  0  0  0
  -26.2531  -15.6326   20.0752 H   0  0  0  0  0  0
  -26.7232  -32.5345   23.1011 H   0  0  0  0  0  0
  -25.0069  -33.9633   25.0342 H   0  0  0  0  0  0
  -22.7382  -31.2918   21.3850 H   0  0  0  0  0  0
  -23.3761  -35.9583   23.3302 H   0  0  0  0  0  0
  -24.3574  -36.8885   22.2056 H   0  0  0  0  0  0
  -23.7241  -37.6453   23.6675 H   0  0  0  0  0  0
  -26.1422  -31.4916   20.6143 H   0  0  0  0  0  0
  -26.8642  -30.7843   22.0266 H   0  0  0  0  0  0
  -28.1270  -28.8401   21.2389 H   0  0  0  0  0  0
  -25.9509  -25.8730   18.9869 H   0  0  0  0  0  0
  -23.9858  -27.3082   18.9688 H   0  0  0  0  0  0
  -23.7958  -30.5741   19.3988 H   0  0  0  0  0  0
  -22.7802  -29.2364   19.8458 H   0  0  0  0  0  0
  -25.1307  -36.1881   25.0820 H   0  0  0  0  0  0
  -21.0001  -28.3276   24.1373 H   0  0  0  0  0  0
  -20.5649  -26.2304   23.3626 H   0  0  0  0  0  0
  -21.6653  -26.7395   22.1227 H   0  0  0  0  0  0
  -19.6913  -25.6274   21.1242 H   0  0  0  0  0  0
  -19.6698  -27.3172   20.6735 H   0  0  0  0  0  0
  -17.4205  -26.6661   21.4032 H   0  0  0  0  0  0
  -18.0346  -26.0059   22.9019 H   0  0  0  0  0  0
  -19.7954  -30.7280   24.2221 H   0  0  0  0  0  0
  -17.5033  -31.6260   24.5153 H   0  0  0  0  0  0
  -15.5365  -30.2968   23.7670 H   0  0  0  0  0  0
  -15.8687  -28.0800   22.7087 H   0  0  0  0  0  0
  -24.5906  -30.7070   25.7735 H   0  0  0  0  0  0
  -24.8906  -32.2906   26.4795 H   0  0  0  0  0  0
  -25.8023  -30.8933   27.0209 H   0  0  0  0  0  0
  -26.2992  -29.6679   24.1254 H   0  0  0  0  0  0
  -27.4024  -29.7253   25.4799 H   0  0  0  0  0  0
  -27.8889  -30.4207   23.9538 H   0  0  0  0  0  0
  -27.2656  -33.3623   26.2029 H   0  0  0  0  0  0
  -28.3890  -32.6849   25.0326 H   0  0  0  0  0  0
  -28.0703  -31.8453   26.5427 H   0  0  0  0  0  0
  -28.2597  -38.0080   24.7511 H   0  0  0  0  0  0
  -28.1072  -36.2612   24.6310 H   0  0  0  0  0  0
  -27.2292  -37.1450   25.8871 H   0  0  0  0  0  0
  -20.9427  -29.8770   21.6853 H   0  0  0  0  0  0
  -26.0165  -38.2824   24.1405 H   0  0  0  0  0  0
  -28.3907  -16.5738   19.3347 H   0  0  0  0  0  0
  -27.9547  -16.7963   21.0550 H   0  0  0  0  0  0
  -30.5891  -17.6123   22.1901 H   0  0  0  0  0  0
  -31.6123  -17.5617   20.7290 H   0  0  0  0  0  0
  -28.9966  -22.2493   22.0771 H   0  0  0  0  0  0
  -30.5214  -22.4705   21.1667 H   0  0  0  0  0  0
  -27.6332  -21.8626   18.7968 H   0  0  0  0  0  0
  -27.0747  -21.8447   20.4948 H   0  0  0  0  0  0
  -29.8924  -18.3956   19.3180 H   0  0  0  0  0  0
  -29.3510  -23.5453   19.2779 H   0  0  0  0  0  0
  -29.0883  -19.7868   21.9296 H   0  0  0  0  0  0
  -27.7739  -19.5584   20.8633 H   0  0  0  0  0  0
  -28.0504  -24.7907   21.6953 H   0  0  0  0  0  0
  -26.8954  -24.5855   20.4746 H   0  0  0  0  0  0
  -29.7479  -21.0378   19.4553 H   0  0  0  0  0  0
  1 25  1  0  0  0
  1 30  2  0  0  0
  1 79  1  0  0  0
  2  3  1  0  0  0
  2 25  1  0  0  0
  2 81  1  0  0  0
  2 82  1  0  0  0
  3  4  1  0  0  0
  3 83  1  0  0  0
  3 84  1  0  0  0
  4  5  1  0  0  0
  4 85  1  0  0  0
  4 86  1  0  0  0
  5  6  1  0  0  0
  5 26  1  0  0  0
  5 87  1  0  0  0
  6 25  1  0  0  0
  6 88  1  0  0  0
  6 89  1  0  0  0
  7  8  2  0  0  0
  7 26  1  0  0  0
  7 29  1  0  0  0
  8  9  1  0  0  0
  8 22  1  0  0  0
  9 10  1  0  0  0
  9 27  2  0  0  0
 10 11  2  0  0  0
 10 15  1  0  0  0
 11 12  1  0  0  0
 11 90  1  0  0  0
 12 13  2  0  0  0
 12 91  1  0  0  0
 13 14  1  0  0  0
 13 31  1  0  0  0
 14 15  2  0  0  0
 14 92  1  0  0  0
 15 93  1  0  0  0
 16 17  2  0  0  0
 16 21  1  0  0  0
 16 31  1  0  0  0
 17 18  1  0  0  0
 17 94  1  0  0  0
 18 19  2  0  0  0
 18 95  1  0  0  0
 19 20  1  0  0  0
 19 24  1  0  0  0
 20 21  2  0  0  0
 20 96  1  0  0  0
 21 23  1  0  0  0
 22 28  1  0  0  0
 22 32  2  0  0  0
 26 27  1  0  0  0
 28 97  1  0  0  0
 28 98  1  0  0  0
 29 99  1  0  0  0
 29100  1  0  0  0
 33 34  1  0  0  0
 33 66  1  0  0  0
 33 70  2  0  0  0
 34 36  1  0  0  0
 34 59  1  0  0  0
 34101  1  0  0  0
 35 44  2  0  0  0
 35 45  1  0  0  0
 35 68  1  0  0  0
 36 56  1  0  0  0
 36102  1  0  0  0
 37 39  1  0  0  0
 37 47  1  0  0  0
 37 66  1  0  0  0
 37103  1  0  0  0
 38 43  2  0  0  0
 38 46  1  0  0  0
 38 47  1  0  0  0
 39 64  1  0  0  0
 39 67  2  0  0  0
 40 52  1  0  0  0
 40 53  2  0  0  0
 40 58  1  0  0  0
 41104  1  0  0  0
 41105  1  0  0  0
 41106  1  0  0  0
 41 48  1  0  0  0
 42 43  1  0  0  0
 42 66  1  0  0  0
 42107  1  0  0  0
 42108  1  0  0  0
 43 44  1  0  0  0
 44109  1  0  0  0
 45 46  2  0  0  0
 45110  1  0  0  0
 46111  1  0  0  0
 47112  1  0  0  0
 47113  1  0  0  0
 48 56  1  0  0  0
 48 65  1  0  0  0
 48114  1  0  0  0
 49 50  1  0  0  0
 49 53  1  0  0  0
 49 64  1  0  0  0
 49115  1  0  0  0
 50 51  1  0  0  0
 50116  1  0  0  0
 50117  1  0  0  0
 51 52  1  0  0  0
 51118  1  0  0  0
 51119  1  0  0  0
 52120  1  0  0  0
 52121  1  0  0  0
 53 54  1  0  0  0
 54 55  2  0  0  0
 54122  1  0  0  0
 55 57  1  0  0  0
 55123  1  0  0  0
 56 69  2  0  0  0
 57 58  2  0  0  0
 57124  1  0  0  0
 58125  1  0  0  0
 59 60  1  0  0  0
 59 61  1  0  0  0
 59 62  1  0  0  0
 60126  1  0  0  0
 60127  1  0  0  0
 60128  1  0  0  0
 61129  1  0  0  0
 61130  1  0  0  0
 61131  1  0  0  0
 62132  1  0  0  0
 62133  1  0  0  0
 62134  1  0  0  0
 63 65  1  0  0  0
 63135  1  0  0  0
 63136  1  0  0  0
 63137  1  0  0  0
 64138  1  0  0  0
 65139  1  0  0  0
 68 78  1  0  0  0
 71 75  1  0  0  0
 71 79  1  0  0  0
 71140  1  0  0  0
 71141  1  0  0  0
 72 75  1  0  0  0
 72 79  1  0  0  0
 72142  1  0  0  0
 72143  1  0  0  0
 73 76  1  0  0  0
 73 80  1  0  0  0
 73144  1  0  0  0
 73145  1  0  0  0
 74 76  1  0  0  0
 74 80  1  0  0  0
 74146  1  0  0  0
 74147  1  0  0  0
 75 77  1  0  0  0
 75148  1  0  0  0
 76 78  1  0  0  0
 76149  1  0  0  0
 77150  1  0  0  0
 77151  1  0  0  0
 77 80  1  0  0  0
 78152  1  0  0  0
 78153  1  0  0  0
 80154  1  0  0  0
M  CHG  1  80   1
M  ISO  4   1 100  68 101  78 101  79 100
M  END
> <chiral flag>
0

> <version>
0

> <s_m_source_file>
/data/baiqing/PycharmProjects/Reinvent-master-3.2/result/LINK_invent/BTK/process_docking_weight1_custom_sum_contain_oxygen_bond_distance_aromatic_linkinvent_7_9_3/rearranged_h_0188.sdf

> <i_m_source_file_index>
77

> <r_mmod_Potential_Energy-OPLS-2005>
346.020690917969

> <r_mmod_Stretch_Energy-OPLS-2005>
190.564315795898

> <r_mmod_Bend_Energy-OPLS-2005>
269.407531738281

> <r_mmod_Torsional_Energy-OPLS-2005>
325.350433349609

> <r_mmod_Improper_Torsional_Energy-OPLS-2005>
4.35085582733154

> <r_mmod_Van_der_Waal_Energy-OPLS-2005>
114.533103942871

> <r_mmod_Electrostatic_Energy-OPLS-2005>
-220.508331298828

> <r_mmod_Solvation_Energy-OPLS-2005>
-485.21484375

> <b_mmod_Minimization_Converged-OPLS-2005>
0

> <r_mmod_RMS_Derivative-OPLS-2005>
1.90977871417999

$$$$
78
                    3D
 Structure written by MMmdl.
164173  0  0  1  0            999 V2000
  -30.7133  -14.4472   20.5744 C   0  0  0  0  0  0
  -30.4193  -12.2975   19.4060 C   0  0  0  0  0  0
  -29.4899  -12.5151   18.1956 C   0  0  0  0  0  0
  -28.0092  -12.3883   18.6066 C   0  0  0  0  0  0
  -27.6636  -13.2067   19.8791 C   0  0  2  0  0  0
  -28.7075  -12.9723   20.9921 C   0  0  0  0  0  0
  -25.2593  -13.8157   20.5672 C   0  0  0  0  0  0
  -24.1841  -13.0436   20.9166 C   0  0  0  0  0  0
  -24.6390  -11.6901   20.8721 C   0  0  0  0  0  0
  -23.9034  -10.4299   21.0391 C   0  0  0  0  0  0
  -24.3588   -9.4219   21.9171 C   0  0  0  0  0  0
  -23.6291   -8.2241   22.0735 C   0  0  0  0  0  0
  -22.4275   -8.0274   21.3525 C   0  0  0  0  0  0
  -21.9900   -9.0240   20.4625 C   0  0  0  0  0  0
  -22.7206  -10.2135   20.3037 C   0  0  0  0  0  0
  -21.6854   -6.0724   22.5271 C   0  0  0  0  0  0
  -21.4010   -6.5625   23.8205 C   0  0  0  0  0  0
  -21.3668   -5.6782   24.9167 C   0  0  0  0  0  0
  -21.6054   -4.3045   24.7221 C   0  0  0  0  0  0
  -21.8825   -3.8129   23.4342 C   0  0  0  0  0  0
  -21.9193   -4.6947   22.3397 C   0  0  0  0  0  0
  -22.7867  -13.5244   21.1843 C   0  0  0  0  0  0
  -22.1663   -4.2124   21.0979 F   0  0  0  0  0  0
  -21.5635   -3.4535   25.7740 F   0  0  0  0  0  0
  -30.0387  -13.2736   20.4358 N   0  0  0  0  0  0
  -26.3040  -12.9323   20.3399 N   0  0  0  0  0  0
  -25.9321  -11.6478   20.5759 N   0  0  0  0  0  0
  -22.0480  -12.8259   22.0395 N   0  0  0  0  0  0
  -25.4328  -15.1874   20.4053 N   0  0  0  0  0  0
  -31.8438  -14.6373   20.1123 O   0  0  0  0  0  0
  -21.6639   -6.8870   21.4233 O   0  0  0  0  0  0
  -22.3562  -14.5561   20.6701 O   0  0  0  0  0  0
  -24.6175  -31.8686   23.2093 C   0  0  0  0  0  0
  -25.9066  -32.4825   23.8394 C   0  0  1  0  0  0
  -27.2398  -27.4377   20.0724 C   0  0  0  0  0  0
  -25.5939  -33.8623   24.2336 N   0  0  0  0  0  0
  -23.4021  -30.4937   21.5507 C   0  0  2  0  0  0
  -24.8455  -28.9583   20.1179 C   0  0  0  0  0  0
  -22.7405  -29.4679   22.4991 C   0  0  0  0  0  0
  -18.0261  -28.1377   22.8473 C   0  0  0  0  0  0
  -24.1489  -36.7290   23.2633 C   0  0  0  0  0  0
  -25.9325  -30.8385   21.3559 C   0  0  0  0  0  0
  -26.0113  -29.4743   20.6964 C   0  0  0  0  0  0
  -27.2093  -28.7246   20.6658 C   0  0  0  0  0  0
  -26.0347  -26.9198   19.5388 C   0  0  0  0  0  0
  -24.8516  -27.6773   19.5426 C   0  0  0  0  0  0
  -23.6083  -29.8244   20.1672 C   0  0  0  0  0  0
  -25.4114  -36.3111   24.0327 C   0  0  1  0  0  0
  -20.5854  -28.3668   23.1310 C   0  0  2  0  0  0
  -20.6772  -26.9404   22.5409 C   0  0  0  0  0  0
  -19.5761  -26.6373   21.5204 C   0  0  0  0  0  0
  -18.1929  -26.7919   22.1603 C   0  0  0  0  0  0
  -19.1510  -28.8828   23.2892 C   0  0  0  0  0  0
  -18.9454  -30.1438   23.8904 C   0  0  0  0  0  0
  -17.6464  -30.6585   24.0550 C   0  0  0  0  0  0
  -25.9054  -34.9481   23.5120 C   0  0  0  0  0  0
  -16.5350  -29.9091   23.6318 C   0  0  0  0  0  0
  -16.7250  -28.6505   23.0325 C   0  0  0  0  0  0
  -26.4499  -31.6598   25.0715 C   0  0  0  0  0  0
  -25.3774  -31.3702   26.1473 C   0  0  0  0  0  0
  -27.0337  -30.3049   24.6073 C   0  0  0  0  0  0
  -27.6077  -32.4315   25.7479 C   0  0  0  0  0  0
  -27.5583  -37.1804   24.8469 C   0  0  0  0  0  0
  -21.4133  -29.3048   22.3727 N   0  0  0  0  0  0
  -26.4301  -37.3805   23.9411 N   0  0  0  0  0  0
  -24.6694  -31.0798   22.0979 N   0  0  0  0  0  0
  -23.4187  -28.8219   23.3025 O   0  0  0  0  0  0
  -28.4209  -26.7133   20.0859 O   0  0  0  0  0  0
  -26.5580  -34.8940   22.4673 O   0  0  0  0  0  0
  -23.5366  -32.1452   23.7480 O   0  0  0  0  0  0
  -28.2493  -25.5982   17.8901 C   0  0  0  0  0  0
  -29.1427  -23.4830   17.6622 C   0  0  0  0  0  0
  -29.6010  -23.5210   19.0094 C   0  0  0  0  0  0
  -28.6384  -25.6294   19.2530 C   0  0  0  0  0  0
  -29.4379  -16.5376   20.3097 C   0  0  0  0  0  0
  -30.5827  -16.4649   22.0395 C   0  0  0  0  0  0
  -30.4428  -17.5081   20.9300 C   0  0  0  0  0  0
  -29.4053  -22.3053   16.7410 C   0  0  0  0  0  0
  -29.6881  -21.8080   21.8172 C   0  0  0  0  0  0
  -30.5086  -22.4213   19.5862 C   0  0  0  0  0  0
  -30.0294  -18.9511   21.2759 C   0  0  0  0  0  0
  -30.3871  -20.0137   20.1970 C   0  0  0  0  0  0
  -28.4717  -24.5182   17.1050 N   0  0  0  0  0  0
  -29.3359  -24.5962   19.8040 N   0  0  0  0  0  0
  -30.0091  -15.4565   21.1327 N   0  0  0  0  0  0
  -29.8064  -21.3854   20.3979 N   0  3  1  0  0  0
  -31.4627  -12.3985   19.0999 H   0  0  0  0  0  0
  -30.3182  -11.2824   19.7926 H   0  0  0  0  0  0
  -29.7231  -11.7942   17.4111 H   0  0  0  0  0  0
  -29.6702  -13.5022   17.7664 H   0  0  0  0  0  0
  -27.8009  -11.3322   18.7776 H   0  0  0  0  0  0
  -27.3645  -12.6944   17.7819 H   0  0  0  0  0  0
  -27.7123  -14.2598   19.6032 H   0  0  0  0  0  0
  -28.6769  -11.9363   21.3328 H   0  0  0  0  0  0
  -28.4777  -13.5770   21.8703 H   0  0  0  0  0  0
  -25.2721   -9.5718   22.4761 H   0  0  0  0  0  0
  -24.0003   -7.4635   22.7465 H   0  0  0  0  0  0
  -21.0814   -8.8736   19.8957 H   0  0  0  0  0  0
  -22.3621  -10.9661   19.6159 H   0  0  0  0  0  0
  -21.1991   -7.6131   23.9708 H   0  0  0  0  0  0
  -21.1496   -6.0500   25.9076 H   0  0  0  0  0  0
  -22.0603   -2.7592   23.2838 H   0  0  0  0  0  0
  -22.4063  -11.9920   22.4804 H   0  0  0  0  0  0
  -21.1101  -13.1310   22.2573 H   0  0  0  0  0  0
  -24.6731  -15.8504   20.5116 H   0  0  0  0  0  0
  -26.2999  -15.6204   20.1139 H   0  0  0  0  0  0
  -26.7125  -32.5531   23.1150 H   0  0  0  0  0  0
  -25.0212  -33.9814   25.0554 H   0  0  0  0  0  0
  -22.6902  -31.3101   21.4099 H   0  0  0  0  0  0
  -23.3777  -35.9601   23.3308 H   0  0  0  0  0  0
  -24.3594  -36.8894   22.2049 H   0  0  0  0  0  0
  -23.7232  -37.6491   23.6635 H   0  0  0  0  0  0
  -26.0478  -31.6068   20.5905 H   0  0  0  0  0  0
  -26.8198  -30.8882   21.9762 H   0  0  0  0  0  0
  -28.1123  -29.1289   21.1012 H   0  0  0  0  0  0
  -25.9843  -25.9235   19.1252 H   0  0  0  0  0  0
  -23.9463  -27.2602   19.1235 H   0  0  0  0  0  0
  -23.7206  -30.5988   19.4076 H   0  0  0  0  0  0
  -22.7314  -29.2462   19.8693 H   0  0  0  0  0  0
  -25.1298  -36.1976   25.0822 H   0  0  0  0  0  0
  -20.9936  -28.3239   24.1434 H   0  0  0  0  0  0
  -20.5679  -26.2281   23.3595 H   0  0  0  0  0  0
  -21.6652  -26.7473   22.1205 H   0  0  0  0  0  0
  -19.6946  -25.6289   21.1225 H   0  0  0  0  0  0
  -19.6710  -27.3183   20.6729 H   0  0  0  0  0  0
  -17.4208  -26.6632   21.3991 H   0  0  0  0  0  0
  -18.0344  -26.0061   22.9001 H   0  0  0  0  0  0
  -19.7943  -30.7225   24.2288 H   0  0  0  0  0  0
  -17.5036  -31.6261   24.5166 H   0  0  0  0  0  0
  -15.5357  -30.2999   23.7662 H   0  0  0  0  0  0
  -15.8639  -28.0844   22.7028 H   0  0  0  0  0  0
  -24.5950  -30.7040   25.7836 H   0  0  0  0  0  0
  -24.8956  -32.2850   26.4925 H   0  0  0  0  0  0
  -25.8143  -30.8893   27.0232 H   0  0  0  0  0  0
  -26.2873  -29.6780   24.1182 H   0  0  0  0  0  0
  -27.4205  -29.7319   25.4510 H   0  0  0  0  0  0
  -27.8657  -30.4393   23.9159 H   0  0  0  0  0  0
  -27.2708  -33.3617   26.2062 H   0  0  0  0  0  0
  -28.3884  -32.6868   25.0304 H   0  0  0  0  0  0
  -28.0740  -31.8433   26.5395 H   0  0  0  0  0  0
  -28.2613  -38.0090   24.7539 H   0  0  0  0  0  0
  -28.1058  -36.2635   24.6259 H   0  0  0  0  0  0
  -27.2291  -37.1408   25.8866 H   0  0  0  0  0  0
  -20.9290  -29.8804   21.6979 H   0  0  0  0  0  0
  -26.0179  -38.2873   24.1439 H   0  0  0  0  0  0
  -27.7344  -26.4300   17.4330 H   0  0  0  0  0  0
  -29.5695  -16.4235   19.2321 H   0  0  0  0  0  0
  -28.3976  -16.7605   20.5501 H   0  0  0  0  0  0
  -29.9561  -16.6619   22.9108 H   0  0  0  0  0  0
  -31.6183  -16.2897   22.3403 H   0  0  0  0  0  0
  -31.3668  -17.5027   20.3457 H   0  0  0  0  0  0
  -30.4566  -22.2742   16.4553 H   0  0  0  0  0  0
  -28.8178  -22.3698   15.8246 H   0  0  0  0  0  0
  -29.1494  -21.3651   17.2304 H   0  0  0  0  0  0
  -29.2579  -22.8054   21.8968 H   0  0  0  0  0  0
  -30.6664  -21.8260   22.3004 H   0  0  0  0  0  0
  -29.0357  -21.1510   22.3911 H   0  0  0  0  0  0
  -31.3001  -22.8868   20.1762 H   0  0  0  0  0  0
  -31.0379  -21.9484   18.7580 H   0  0  0  0  0  0
  -30.5104  -19.2318   22.2146 H   0  0  0  0  0  0
  -28.9578  -18.9772   21.4709 H   0  0  0  0  0  0
  -30.0638  -19.6590   19.2162 H   0  0  0  0  0  0
  -31.4752  -20.0893   20.1472 H   0  0  0  0  0  0
  -28.8644  -21.3462   20.0371 H   0  0  0  0  0  0
  1 25  1  0  0  0
  1 30  2  0  0  0
  1 85  1  0  0  0
  2  3  1  0  0  0
  2 25  1  0  0  0
  2 87  1  0  0  0
  2 88  1  0  0  0
  3  4  1  0  0  0
  3 89  1  0  0  0
  3 90  1  0  0  0
  4  5  1  0  0  0
  4 91  1  0  0  0
  4 92  1  0  0  0
  5  6  1  0  0  0
  5 26  1  0  0  0
  5 93  1  0  0  0
  6 25  1  0  0  0
  6 94  1  0  0  0
  6 95  1  0  0  0
  7  8  2  0  0  0
  7 26  1  0  0  0
  7 29  1  0  0  0
  8  9  1  0  0  0
  8 22  1  0  0  0
  9 10  1  0  0  0
  9 27  2  0  0  0
 10 11  2  0  0  0
 10 15  1  0  0  0
 11 12  1  0  0  0
 11 96  1  0  0  0
 12 13  2  0  0  0
 12 97  1  0  0  0
 13 14  1  0  0  0
 13 31  1  0  0  0
 14 15  2  0  0  0
 14 98  1  0  0  0
 15 99  1  0  0  0
 16 17  2  0  0  0
 16 21  1  0  0  0
 16 31  1  0  0  0
 17 18  1  0  0  0
 17100  1  0  0  0
 18 19  2  0  0  0
 18101  1  0  0  0
 19 20  1  0  0  0
 19 24  1  0  0  0
 20 21  2  0  0  0
 20102  1  0  0  0
 21 23  1  0  0  0
 22 28  1  0  0  0
 22 32  2  0  0  0
 26 27  1  0  0  0
 28103  1  0  0  0
 28104  1  0  0  0
 29105  1  0  0  0
 29106  1  0  0  0
 33 34  1  0  0  0
 33 66  1  0  0  0
 33 70  2  0  0  0
 34 36  1  0  0  0
 34 59  1  0  0  0
 34107  1  0  0  0
 35 44  2  0  0  0
 35 45  1  0  0  0
 35 68  1  0  0  0
 36 56  1  0  0  0
 36108  1  0  0  0
 37 39  1  0  0  0
 37 47  1  0  0  0
 37 66  1  0  0  0
 37109  1  0  0  0
 38 43  2  0  0  0
 38 46  1  0  0  0
 38 47  1  0  0  0
 39 64  1  0  0  0
 39 67  2  0  0  0
 40 52  1  0  0  0
 40 53  2  0  0  0
 40 58  1  0  0  0
 41110  1  0  0  0
 41111  1  0  0  0
 41112  1  0  0  0
 41 48  1  0  0  0
 42 43  1  0  0  0
 42 66  1  0  0  0
 42113  1  0  0  0
 42114  1  0  0  0
 43 44  1  0  0  0
 44115  1  0  0  0
 45 46  2  0  0  0
 45116  1  0  0  0
 46117  1  0  0  0
 47118  1  0  0  0
 47119  1  0  0  0
 48 56  1  0  0  0
 48 65  1  0  0  0
 48120  1  0  0  0
 49 50  1  0  0  0
 49 53  1  0  0  0
 49 64  1  0  0  0
 49121  1  0  0  0
 50 51  1  0  0  0
 50122  1  0  0  0
 50123  1  0  0  0
 51 52  1  0  0  0
 51124  1  0  0  0
 51125  1  0  0  0
 52126  1  0  0  0
 52127  1  0  0  0
 53 54  1  0  0  0
 54 55  2  0  0  0
 54128  1  0  0  0
 55 57  1  0  0  0
 55129  1  0  0  0
 56 69  2  0  0  0
 57 58  2  0  0  0
 57130  1  0  0  0
 58131  1  0  0  0
 59 60  1  0  0  0
 59 61  1  0  0  0
 59 62  1  0  0  0
 60132  1  0  0  0
 60133  1  0  0  0
 60134  1  0  0  0
 61135  1  0  0  0
 61136  1  0  0  0
 61137  1  0  0  0
 62138  1  0  0  0
 62139  1  0  0  0
 62140  1  0  0  0
 63 65  1  0  0  0
 63141  1  0  0  0
 63142  1  0  0  0
 63143  1  0  0  0
 64144  1  0  0  0
 65145  1  0  0  0
 68 74  1  0  0  0
 71 74  2  0  0  0
 71 83  1  0  0  0
 71146  1  0  0  0
 72 73  1  0  0  0
 72 78  1  0  0  0
 72 83  2  0  0  0
 73 80  1  0  0  0
 73 84  2  0  0  0
 74 84  1  0  0  0
 75 77  1  0  0  0
 75 85  1  0  0  0
 75147  1  0  0  0
 75148  1  0  0  0
 76 77  1  0  0  0
 76 85  1  0  0  0
 76149  1  0  0  0
 76150  1  0  0  0
 77 81  1  0  0  0
 77151  1  0  0  0
 78152  1  0  0  0
 78153  1  0  0  0
 78154  1  0  0  0
 79155  1  0  0  0
 79156  1  0  0  0
 79157  1  0  0  0
 79 86  1  0  0  0
 80 86  1  0  0  0
 80158  1  0  0  0
 80159  1  0  0  0
 81 82  1  0  0  0
 81160  1  0  0  0
 81161  1  0  0  0
 82 86  1  0  0  0
 82162  1  0  0  0
 82163  1  0  0  0
 86164  1  0  0  0
M  CHG  1  86   1
M  ISO  4   1 100  68 101  74 101  85 100
M  END
> <chiral flag>
0

> <version>
0

> <s_m_source_file>
/data/baiqing/PycharmProjects/Reinvent-master-3.2/result/LINK_invent/BTK/process_docking_weight1_custom_sum_contain_oxygen_bond_distance_aromatic_linkinvent_7_9_3/rearranged_h_0188.sdf

> <i_m_source_file_index>
78

> <r_mmod_Potential_Energy-OPLS-2005>
-5.37470579147339

> <r_mmod_Stretch_Energy-OPLS-2005>
43.4607620239258

> <r_mmod_Bend_Energy-OPLS-2005>
108.544418334961

> <r_mmod_Torsional_Energy-OPLS-2005>
283.805511474609

> <r_mmod_Improper_Torsional_Energy-OPLS-2005>
10.5417442321777

> <r_mmod_Van_der_Waal_Energy-OPLS-2005>
163.694107055664

> <r_mmod_Electrostatic_Energy-OPLS-2005>
-164.260025024414

> <r_mmod_Solvation_Energy-OPLS-2005>
-463.173309326172

> <b_mmod_Minimization_Converged-OPLS-2005>
0

> <r_mmod_RMS_Derivative-OPLS-2005>
2.84600782394409

$$$$
79
                    3D
 Structure written by MMmdl.
149158  0  0  1  0            999 V2000
  -30.3763  -15.5062   20.3512 C   0  0  0  0  0  0
  -30.4212  -12.9834   19.5430 C   0  0  0  0  0  0
  -29.5413  -12.6263   18.3148 C   0  0  0  0  0  0
  -28.1062  -12.2998   18.7523 C   0  0  0  0  0  0
  -27.5986  -13.2996   19.8179 C   0  0  2  0  0  0
  -28.6192  -13.5896   20.9434 C   0  0  0  0  0  0
  -25.2339  -13.8288   20.5798 C   0  0  0  0  0  0
  -24.1713  -13.0445   20.9274 C   0  0  0  0  0  0
  -24.6400  -11.6949   20.8762 C   0  0  0  0  0  0
  -23.9104  -10.4298   21.0397 C   0  0  0  0  0  0
  -24.3645   -9.4212   21.9177 C   0  0  0  0  0  0
  -23.6311   -8.2250   22.0752 C   0  0  0  0  0  0
  -22.4291   -8.0287   21.3544 C   0  0  0  0  0  0
  -21.9934   -9.0260   20.4642 C   0  0  0  0  0  0
  -22.7272  -10.2134   20.3048 C   0  0  0  0  0  0
  -21.6858   -6.0739   22.5278 C   0  0  0  0  0  0
  -21.4019   -6.5641   23.8211 C   0  0  0  0  0  0
  -21.3661   -5.6793   24.9174 C   0  0  0  0  0  0
  -21.6043   -4.3056   24.7224 C   0  0  0  0  0  0
  -21.8819   -3.8148   23.4345 C   0  0  0  0  0  0
  -21.9196   -4.6965   22.3402 C   0  0  0  0  0  0
  -22.7728  -13.5177   21.1913 C   0  0  0  0  0  0
  -22.1662   -4.2150   21.0979 F   0  0  0  0  0  0
  -21.5628   -3.4539   25.7736 F   0  0  0  0  0  0
  -29.8145  -14.1679   20.2955 N   0  0  0  0  0  0
  -26.2774  -12.9600   20.3247 N   0  0  0  0  0  0
  -25.9345  -11.6679   20.5717 N   0  0  0  0  0  0
  -22.0396  -12.8149   22.0463 N   0  0  0  0  0  0
  -25.3978  -15.2029   20.4271 N   0  0  0  0  0  0
  -31.5969  -15.4265   20.1145 O   0  0  0  0  0  0
  -21.6651   -6.8885   21.4241 O   0  0  0  0  0  0
  -22.3403  -14.5477   20.6753 O   0  0  0  0  0  0
  -24.6770  -31.8069   23.1573 C   0  0  0  0  0  0
  -25.9385  -32.4499   23.8092 C   0  0  1  0  0  0
  -27.2219  -26.7710   20.2018 C   0  0  0  0  0  0
  -25.5994  -33.8322   24.1987 N   0  0  0  0  0  0
  -23.5001  -30.4119   21.5088 C   0  0  2  0  0  0
  -24.9579  -28.7696   20.1101 C   0  0  0  0  0  0
  -22.7738  -29.4349   22.4720 C   0  0  0  0  0  0
  -18.0335  -28.1421   22.8459 C   0  0  0  0  0  0
  -24.1492  -36.7164   23.2651 C   0  0  0  0  0  0
  -26.0768  -30.5606   21.4137 C   0  0  0  0  0  0
  -26.1425  -29.1339   20.7608 C   0  0  0  0  0  0
  -27.2597  -28.1577   20.7826 C   0  0  0  0  0  0
  -26.0121  -26.6046   19.4838 C   0  0  0  0  0  0
  -24.9281  -27.5299   19.4490 C   0  0  0  0  0  0
  -23.7503  -29.7160   20.1399 C   0  0  0  0  0  0
  -25.4140  -36.2913   24.0288 C   0  0  1  0  0  0
  -20.5968  -28.3777   23.1154 C   0  0  2  0  0  0
  -20.6805  -26.9442   22.5404 C   0  0  0  0  0  0
  -19.5779  -26.6376   21.5217 C   0  0  0  0  0  0
  -18.1961  -26.7951   22.1619 C   0  0  0  0  0  0
  -19.1600  -28.8922   23.2788 C   0  0  0  0  0  0
  -18.9508  -30.1507   23.8832 C   0  0  0  0  0  0
  -17.6499  -30.6605   24.0554 C   0  0  0  0  0  0
  -25.9117  -34.9302   23.4969 C   0  0  0  0  0  0
  -16.5389  -29.9090   23.6350 C   0  0  0  0  0  0
  -16.7316  -28.6511   23.0367 C   0  0  0  0  0  0
  -26.4588  -31.6509   25.0687 C   0  0  0  0  0  0
  -25.3672  -31.3806   26.1313 C   0  0  0  0  0  0
  -27.0514  -30.2856   24.6544 C   0  0  0  0  0  0
  -27.6048  -32.4360   25.7498 C   0  0  0  0  0  0
  -27.5563  -37.1739   24.8468 C   0  0  0  0  0  0
  -21.4391  -29.3034   22.3476 N   0  0  0  0  0  0
  -26.4270  -37.3669   23.9410 N   0  0  0  0  0  0
  -24.7739  -30.9579   22.0792 N   0  0  0  0  0  0
  -23.4212  -28.7939   23.3034 O   0  0  0  0  0  0
  -28.1735  -25.5724   20.3310 O   0  0  0  0  0  0
  -26.5746  -34.8868   22.4578 O   0  0  0  0  0  0
  -23.5806  -32.1115   23.6568 O   0  0  0  0  0  0
  -28.9346  -19.3274   21.2920 C   0  0  0  0  0  0
  -29.2753  -19.6986   20.0268 C   0  0  0  0  0  0
  -28.2895  -21.6686   21.7086 C   0  0  0  0  0  0
  -28.5781  -22.2402   20.4008 C   0  0  0  0  0  0
  -29.1611  -17.7320   21.5553 C   0  0  0  0  0  0
  -29.8219  -18.2243   19.4366 C   0  0  0  0  0  0
  -27.6907  -22.5721   22.7683 C   0  0  0  0  0  0
  -28.0104  -23.9139   19.8916 C   0  0  0  0  0  0
  -28.4558  -20.3241   22.1266 N   0  0  0  0  0  0
  -29.0865  -21.1089   19.5760 N   0  0  0  0  0  0
  -29.6800  -16.8829   20.3537 N   0  0  0  0  0  0
  -31.4293  -13.2050   19.1913 H   0  0  0  0  0  0
  -30.5367  -12.1188   20.1991 H   0  0  0  0  0  0
  -29.9691  -11.7853   17.7672 H   0  0  0  0  0  0
  -29.5285  -13.4699   17.6231 H   0  0  0  0  0  0
  -28.1086  -11.2923   19.1702 H   0  0  0  0  0  0
  -27.4365  -12.2752   17.8918 H   0  0  0  0  0  0
  -27.4764  -14.2348   19.2697 H   0  0  0  0  0  0
  -28.8462  -12.6955   21.5261 H   0  0  0  0  0  0
  -28.2082  -14.3190   21.6430 H   0  0  0  0  0  0
  -25.2785   -9.5687   22.4761 H   0  0  0  0  0  0
  -24.0014   -7.4643   22.7478 H   0  0  0  0  0  0
  -21.0864   -8.8783   19.8949 H   0  0  0  0  0  0
  -22.3728  -10.9673   19.6160 H   0  0  0  0  0  0
  -21.2014   -7.6149   23.9715 H   0  0  0  0  0  0
  -21.1481   -6.0523   25.9076 H   0  0  0  0  0  0
  -22.0596   -2.7610   23.2846 H   0  0  0  0  0  0
  -22.4042  -11.9824   22.4853 H   0  0  0  0  0  0
  -21.1003  -13.1141   22.2665 H   0  0  0  0  0  0
  -24.6304  -15.8548   20.5482 H   0  0  0  0  0  0
  -26.2484  -15.6477   20.1072 H   0  0  0  0  0  0
  -26.7459  -32.4992   23.0800 H   0  0  0  0  0  0
  -25.0077  -33.9370   25.0097 H   0  0  0  0  0  0
  -22.8217  -31.2477   21.3253 H   0  0  0  0  0  0
  -23.3771  -35.9475   23.3272 H   0  0  0  0  0  0
  -24.3561  -36.8862   22.2073 H   0  0  0  0  0  0
  -23.7236  -37.6329   23.6749 H   0  0  0  0  0  0
  -26.2749  -31.2911   20.6282 H   0  0  0  0  0  0
  -26.9297  -30.6238   22.0771 H   0  0  0  0  0  0
  -28.1455  -28.4333   21.3376 H   0  0  0  0  0  0
  -25.8559  -25.6642   18.9757 H   0  0  0  0  0  0
  -24.0331  -27.2455   18.9127 H   0  0  0  0  0  0
  -23.9189  -30.4801   19.3800 H   0  0  0  0  0  0
  -22.8567  -29.1790   19.8171 H   0  0  0  0  0  0
  -25.1345  -36.1683   25.0778 H   0  0  0  0  0  0
  -21.0054  -28.3401   24.1278 H   0  0  0  0  0  0
  -20.5677  -26.2398   23.3660 H   0  0  0  0  0  0
  -21.6666  -26.7396   22.1216 H   0  0  0  0  0  0
  -19.6936  -25.6269   21.1289 H   0  0  0  0  0  0
  -19.6723  -27.3149   20.6716 H   0  0  0  0  0  0
  -17.4232  -26.6698   21.4020 H   0  0  0  0  0  0
  -18.0347  -26.0108   22.9028 H   0  0  0  0  0  0
  -19.7984  -30.7339   24.2174 H   0  0  0  0  0  0
  -17.5052  -31.6279   24.5168 H   0  0  0  0  0  0
  -15.5387  -30.2971   23.7714 H   0  0  0  0  0  0
  -15.8716  -28.0810   22.7120 H   0  0  0  0  0  0
  -24.5883  -30.7126   25.7617 H   0  0  0  0  0  0
  -24.8829  -32.3020   26.4557 H   0  0  0  0  0  0
  -25.7864  -30.9093   27.0211 H   0  0  0  0  0  0
  -26.3221  -29.6482   24.1536 H   0  0  0  0  0  0
  -27.3967  -29.7283   25.5263 H   0  0  0  0  0  0
  -27.9191  -30.3996   24.0044 H   0  0  0  0  0  0
  -27.2599  -33.3731   26.1881 H   0  0  0  0  0  0
  -28.3955  -32.6812   25.0395 H   0  0  0  0  0  0
  -28.0610  -31.8621   26.5574 H   0  0  0  0  0  0
  -28.2554  -38.0058   24.7514 H   0  0  0  0  0  0
  -28.1085  -36.2582   24.6298 H   0  0  0  0  0  0
  -27.2277  -37.1380   25.8870 H   0  0  0  0  0  0
  -20.9680  -29.8701   21.6562 H   0  0  0  0  0  0
  -26.0101  -38.2718   24.1429 H   0  0  0  0  0  0
  -28.2178  -17.3024   21.8928 H   0  0  0  0  0  0
  -29.8636  -17.6196   22.3816 H   0  0  0  0  0  0
  -30.8757  -18.3400   19.1826 H   0  0  0  0  0  0
  -29.3070  -18.0338   18.4950 H   0  0  0  0  0  0
  -28.3534  -23.4152   22.9647 H   0  0  0  0  0  0
  -27.5307  -22.0438   23.7087 H   0  0  0  0  0  0
  -26.7294  -22.9639   22.4354 H   0  0  0  0  0  0
  -26.9291  -23.7799   19.9009 H   0  0  0  0  0  0
  -28.2559  -23.9303   18.8301 H   0  0  0  0  0  0
  1 25  1  0  0  0
  1 30  2  0  0  0
  1 81  1  0  0  0
  2  3  1  0  0  0
  2 25  1  0  0  0
  2 82  1  0  0  0
  2 83  1  0  0  0
  3  4  1  0  0  0
  3 84  1  0  0  0
  3 85  1  0  0  0
  4  5  1  0  0  0
  4 86  1  0  0  0
  4 87  1  0  0  0
  5  6  1  0  0  0
  5 26  1  0  0  0
  5 88  1  0  0  0
  6 25  1  0  0  0
  6 89  1  0  0  0
  6 90  1  0  0  0
  7  8  2  0  0  0
  7 26  1  0  0  0
  7 29  1  0  0  0
  8  9  1  0  0  0
  8 22  1  0  0  0
  9 10  1  0  0  0
  9 27  2  0  0  0
 10 11  2  0  0  0
 10 15  1  0  0  0
 11 12  1  0  0  0
 11 91  1  0  0  0
 12 13  2  0  0  0
 12 92  1  0  0  0
 13 14  1  0  0  0
 13 31  1  0  0  0
 14 15  2  0  0  0
 14 93  1  0  0  0
 15 94  1  0  0  0
 16 17  2  0  0  0
 16 21  1  0  0  0
 16 31  1  0  0  0
 17 18  1  0  0  0
 17 95  1  0  0  0
 18 19  2  0  0  0
 18 96  1  0  0  0
 19 20  1  0  0  0
 19 24  1  0  0  0
 20 21  2  0  0  0
 20 97  1  0  0  0
 21 23  1  0  0  0
 22 28  1  0  0  0
 22 32  2  0  0  0
 26 27  1  0  0  0
 28 98  1  0  0  0
 28 99  1  0  0  0
 29100  1  0  0  0
 29101  1  0  0  0
 33 34  1  0  0  0
 33 66  1  0  0  0
 33 70  2  0  0  0
 34 36  1  0  0  0
 34 59  1  0  0  0
 34102  1  0  0  0
 35 44  2  0  0  0
 35 45  1  0  0  0
 35 68  1  0  0  0
 36 56  1  0  0  0
 36103  1  0  0  0
 37 39  1  0  0  0
 37 47  1  0  0  0
 37 66  1  0  0  0
 37104  1  0  0  0
 38 43  2  0  0  0
 38 46  1  0  0  0
 38 47  1  0  0  0
 39 64  1  0  0  0
 39 67  2  0  0  0
 40 52  1  0  0  0
 40 53  2  0  0  0
 40 58  1  0  0  0
 41105  1  0  0  0
 41106  1  0  0  0
 41107  1  0  0  0
 41 48  1  0  0  0
 42 43  1  0  0  0
 42 66  1  0  0  0
 42108  1  0  0  0
 42109  1  0  0  0
 43 44  1  0  0  0
 44110  1  0  0  0
 45 46  2  0  0  0
 45111  1  0  0  0
 46112  1  0  0  0
 47113  1  0  0  0
 47114  1  0  0  0
 48 56  1  0  0  0
 48 65  1  0  0  0
 48115  1  0  0  0
 49 50  1  0  0  0
 49 53  1  0  0  0
 49 64  1  0  0  0
 49116  1  0  0  0
 50 51  1  0  0  0
 50117  1  0  0  0
 50118  1  0  0  0
 51 52  1  0  0  0
 51119  1  0  0  0
 51120  1  0  0  0
 52121  1  0  0  0
 52122  1  0  0  0
 53 54  1  0  0  0
 54 55  2  0  0  0
 54123  1  0  0  0
 55 57  1  0  0  0
 55124  1  0  0  0
 56 69  2  0  0  0
 57 58  2  0  0  0
 57125  1  0  0  0
 58126  1  0  0  0
 59 60  1  0  0  0
 59 61  1  0  0  0
 59 62  1  0  0  0
 60127  1  0  0  0
 60128  1  0  0  0
 60129  1  0  0  0
 61130  1  0  0  0
 61131  1  0  0  0
 61132  1  0  0  0
 62133  1  0  0  0
 62134  1  0  0  0
 62135  1  0  0  0
 63 65  1  0  0  0
 63136  1  0  0  0
 63137  1  0  0  0
 63138  1  0  0  0
 64139  1  0  0  0
 65140  1  0  0  0
 68 78  1  0  0  0
 71 72  1  0  0  0
 71 75  1  0  0  0
 71 79  2  0  0  0
 72 76  1  0  0  0
 72 80  2  0  0  0
 73 74  2  0  0  0
 73 77  1  0  0  0
 73 79  1  0  0  0
 74 78  1  0  0  0
 74 80  1  0  0  0
 75 81  1  0  0  0
 75141  1  0  0  0
 75142  1  0  0  0
 76 81  1  0  0  0
 76143  1  0  0  0
 76144  1  0  0  0
 77145  1  0  0  0
 77146  1  0  0  0
 77147  1  0  0  0
 78148  1  0  0  0
 78149  1  0  0  0
M  ISO  4   1 100  68 101  78 101  81 100
M  END
> <chiral flag>
0

> <version>
0

> <s_m_source_file>
/data/baiqing/PycharmProjects/Reinvent-master-3.2/result/LINK_invent/BTK/process_docking_weight1_custom_sum_contain_oxygen_bond_distance_aromatic_linkinvent_7_9_3/rearranged_h_0188.sdf

> <i_m_source_file_index>
79

> <r_mmod_Potential_Energy-OPLS-2005>
1972.69616699219

> <r_mmod_Stretch_Energy-OPLS-2005>
776.243225097656

> <r_mmod_Bend_Energy-OPLS-2005>
600.784790039062

> <r_mmod_Torsional_Energy-OPLS-2005>
271.920928955078

> <r_mmod_Improper_Torsional_Energy-OPLS-2005>
12.4960699081421

> <r_mmod_Van_der_Waal_Energy-OPLS-2005>
119.31160736084

> <r_mmod_Electrostatic_Energy-OPLS-2005>
-315.548034667969

> <r_mmod_Solvation_Energy-OPLS-2005>
-230.617401123047

> <b_mmod_Minimization_Converged-OPLS-2005>
0

> <r_mmod_RMS_Derivative-OPLS-2005>
0.33553808927536

$$$$
80
                    3D
 Structure written by MMmdl.
164173  0  0  1  0            999 V2000
  -29.9749  -14.3683   21.2677 C   0  0  0  0  0  0
  -30.4398  -12.3335   19.4812 C   0  0  0  0  0  0
  -29.6688  -12.4842   18.0728 C   0  0  0  0  0  0
  -28.1265  -12.5355   18.1804 C   0  0  0  0  0  0
  -27.8412  -13.3469   19.3903 C   0  0  2  0  0  0
  -28.4347  -12.5789   20.5841 C   0  0  0  0  0  0
  -25.7561  -14.3234   21.3743 C   0  0  0  0  0  0
  -24.1307  -13.5974   21.3170 C   0  0  0  0  0  0
  -23.9828  -12.4663   20.0705 C   0  0  0  0  0  0
  -23.7180  -10.9582   20.6532 C   0  0  0  0  0  0
  -24.3164  -10.0159   21.6350 C   0  0  0  0  0  0
  -23.7363   -8.7098   21.9448 C   0  0  0  0  0  0
  -22.5291   -8.2713   21.3139 C   0  0  0  0  0  0
  -22.0035   -9.1899   20.3861 C   0  0  0  0  0  0
  -22.5682  -10.4422   20.0943 C   0  0  0  0  0  0
  -21.8018   -6.1918   22.5100 C   0  0  0  0  0  0
  -21.4890   -6.6461   23.8089 C   0  0  0  0  0  0
  -21.3934   -5.7329   24.8862 C   0  0  0  0  0  0
  -21.6075   -4.3575   24.6831 C   0  0  0  0  0  0
  -21.8749   -3.8920   23.3880 C   0  0  0  0  0  0
  -21.9610   -4.7965   22.3092 C   0  0  0  0  0  0
  -22.8287  -13.9759   21.6983 C   0  0  0  0  0  0
  -22.1889   -4.3025   21.0637 F   0  0  0  0  0  0
  -21.5383   -3.4908   25.7190 F   0  0  0  0  0  0
  -29.7448  -13.1030   20.6678 N   0  0  0  0  0  0
  -26.4757  -13.6579   19.7486 N   0  0  0  0  0  0
  -25.2379  -12.6015   19.1101 N   0  0  0  0  0  0
  -22.2715  -13.0616   22.4395 N   0  0  0  0  0  0
  -26.8039  -14.9615   20.8264 N   0  0  0  0  0  0
  -31.0247  -14.8425   20.7919 O   0  0  0  0  0  0
  -21.8579   -7.0356   21.4110 O   0  0  0  0  0  0
  -22.1239  -14.7040   21.0079 O   0  0  0  0  0  0
  -24.7201  -31.7507   23.1327 C   0  0  0  0  0  0
  -25.9633  -32.4166   23.7930 C   0  0  1  0  0  0
  -26.5581  -26.0982   20.2464 C   0  0  0  0  0  0
  -25.6135  -33.8063   24.1745 N   0  0  0  0  0  0
  -23.5343  -30.3915   21.4968 C   0  0  2  0  0  0
  -24.8720  -28.6507   20.0869 C   0  0  0  0  0  0
  -22.7799  -29.4180   22.4522 C   0  0  0  0  0  0
  -18.0324  -28.1392   22.8435 C   0  0  0  0  0  0
  -24.1497  -36.7010   23.2657 C   0  0  0  0  0  0
  -26.1198  -30.2647   21.4820 C   0  0  0  0  0  0
  -26.0526  -28.7832   20.8152 C   0  0  0  0  0  0
  -26.9113  -27.5126   20.8699 C   0  0  0  0  0  0
  -25.5549  -26.3800   19.3285 C   0  0  0  0  0  0
  -24.7030  -27.4922   19.3285 C   0  0  0  0  0  0
  -23.7859  -29.7283   20.1171 C   0  0  0  0  0  0
  -25.4148  -36.2708   24.0232 C   0  0  1  0  0  0
  -20.5975  -28.3791   23.1028 C   0  0  2  0  0  0
  -20.6754  -26.9415   22.5364 C   0  0  0  0  0  0
  -19.5735  -26.6320   21.5189 C   0  0  0  0  0  0
  -18.1930  -26.7904   22.1602 C   0  0  0  0  0  0
  -19.1603  -28.8910   23.2731 C   0  0  0  0  0  0
  -18.9520  -30.1478   23.8814 C   0  0  0  0  0  0
  -17.6523  -30.6588   24.0537 C   0  0  0  0  0  0
  -25.9191  -34.9111   23.4804 C   0  0  0  0  0  0
  -16.5403  -29.9097   23.6334 C   0  0  0  0  0  0
  -16.7311  -28.6493   23.0392 C   0  0  0  0  0  0
  -26.4658  -31.6469   25.0780 C   0  0  0  0  0  0
  -25.3656  -31.4027   26.1397 C   0  0  0  0  0  0
  -27.0706  -30.2752   24.7150 C   0  0  0  0  0  0
  -27.5971  -32.4475   25.7638 C   0  0  0  0  0  0
  -27.5523  -37.1659   24.8436 C   0  0  0  0  0  0
  -21.4417  -29.3045   22.3318 N   0  0  0  0  0  0
  -26.4201  -37.3537   23.9430 N   0  0  0  0  0  0
  -24.8281  -30.8527   22.0826 N   0  0  0  0  0  0
  -23.4149  -28.7740   23.2893 O   0  0  0  0  0  0
  -26.9406  -24.4796   20.1795 O   0  0  0  0  0  0
  -26.5824  -34.8777   22.4433 O   0  0  0  0  0  0
  -23.6184  -32.0923   23.6034 O   0  0  0  0  0  0
  -25.1314  -18.9510   19.9390 C   0  0  0  0  0  0
  -25.4326  -20.6569   19.8678 C   0  0  0  0  0  0
  -23.9802  -18.1378   19.1484 C   0  0  0  0  0  0
  -23.6457  -16.4690   19.5819 C   0  0  0  0  0  0
  -28.7808  -16.5459   21.4943 C   0  0  0  0  0  0
  -27.7602  -15.0406   23.2328 C   0  0  0  0  0  0
  -27.4689  -17.6274   21.7299 C   0  0  0  0  0  0
  -26.3369  -16.1052   23.2440 C   0  0  0  0  0  0
  -25.3385  -17.0477   20.4492 C   0  0  2  0  0  0
  -24.6751  -15.0686   19.6255 C   0  0  2  0  0  0
  -24.6768  -15.0019   18.0116 C   0  0  0  0  0  0
  -26.1753  -22.6047   20.4735 C   0  0  0  0  0  0
  -28.9560  -15.1429   22.1123 N   0  0  0  0  0  0
  -26.0757  -17.0670   21.9877 N   0  3  0  0  0  0
  -31.4899  -12.5678   19.2847 H   0  0  0  0  0  0
  -30.4951  -11.2396   19.6174 H   0  0  0  0  0  0
  -29.9400  -11.6999   17.3237 H   0  0  0  0  0  0
  -29.9867  -13.4050   17.6025 H   0  0  0  0  0  0
  -27.6802  -11.5659   18.2728 H   0  0  0  0  0  0
  -27.6782  -12.9839   17.3009 H   0  0  0  0  0  0
  -28.3908  -14.2987   19.1720 H   0  0  0  0  0  0
  -28.3827  -11.5100   20.3636 H   0  0  0  0  0  0
  -27.9314  -12.6209   21.5253 H   0  0  0  0  0  0
  -25.2217  -10.2963   22.1667 H   0  0  0  0  0  0
  -24.2280   -8.0668   22.6608 H   0  0  0  0  0  0
  -21.1083   -8.9476   19.8537 H   0  0  0  0  0  0
  -22.0988  -11.1021   19.3930 H   0  0  0  0  0  0
  -21.3271   -7.7011   23.9810 H   0  0  0  0  0  0
  -21.1617   -6.1029   25.8786 H   0  0  0  0  0  0
  -22.0154   -2.8340   23.2026 H   0  0  0  0  0  0
  -22.8316  -12.3097   22.7703 H   0  0  0  0  0  0
  -21.2920  -13.1020   22.5879 H   0  0  0  0  0  0
  -26.4564  -15.6635   21.5274 H   0  0  0  0  0  0
  -27.5567  -15.1657   21.3569 H   0  0  0  0  0  0
  -26.7718  -32.4443   23.0627 H   0  0  0  0  0  0
  -25.0250  -33.9082   24.9893 H   0  0  0  0  0  0
  -22.8889  -31.2507   21.3095 H   0  0  0  0  0  0
  -23.3788  -35.9309   23.3157 H   0  0  0  0  0  0
  -24.3578  -36.8869   22.2112 H   0  0  0  0  0  0
  -23.7250  -37.6108   23.6892 H   0  0  0  0  0  0
  -26.4429  -30.9632   20.7156 H   0  0  0  0  0  0
  -26.9352  -30.2797   22.1861 H   0  0  0  0  0  0
  -27.7815  -27.5577   21.5069 H   0  0  0  0  0  0
  -25.2812  -25.5617   18.6704 H   0  0  0  0  0  0
  -23.8051  -27.4053   18.7345 H   0  0  0  0  0  0
  -24.0879  -30.4867   19.3986 H   0  0  0  0  0  0
  -22.8568  -29.3035   19.7278 H   0  0  0  0  0  0
  -25.1391  -36.1324   25.0707 H   0  0  0  0  0  0
  -21.0087  -28.3449   24.1146 H   0  0  0  0  0  0
  -20.5511  -26.2461   23.3697 H   0  0  0  0  0  0
  -21.6629  -26.7244   22.1268 H   0  0  0  0  0  0
  -19.6878  -25.6204   21.1303 H   0  0  0  0  0  0
  -19.6656  -27.3055   20.6667 H   0  0  0  0  0  0
  -17.4184  -26.6657   21.4017 H   0  0  0  0  0  0
  -18.0298  -26.0068   22.8999 H   0  0  0  0  0  0
  -19.8026  -30.7264   24.2171 H   0  0  0  0  0  0
  -17.5110  -31.6258   24.5148 H   0  0  0  0  0  0
  -15.5421  -30.2997   23.7672 H   0  0  0  0  0  0
  -15.8701  -28.0778   22.7196 H   0  0  0  0  0  0
  -24.5813  -30.7334   25.7856 H   0  0  0  0  0  0
  -24.8907  -32.3359   26.4452 H   0  0  0  0  0  0
  -25.7823  -30.9521   27.0424 H   0  0  0  0  0  0
  -26.3420  -29.6010   24.2650 H   0  0  0  0  0  0
  -27.4390  -29.7663   25.6076 H   0  0  0  0  0  0
  -27.9333  -30.3744   24.0561 H   0  0  0  0  0  0
  -27.2361  -33.3864   26.1881 H   0  0  0  0  0  0
  -28.3990  -32.6905   25.0640 H   0  0  0  0  0  0
  -28.0415  -31.8868   26.5892 H   0  0  0  0  0  0
  -28.2373  -38.0099   24.7549 H   0  0  0  0  0  0
  -28.1163  -36.2602   24.6133 H   0  0  0  0  0  0
  -27.2253  -37.1126   25.8839 H   0  0  0  0  0  0
  -20.9714  -29.8913   21.6562 H   0  0  0  0  0  0
  -25.9912  -38.2497   24.1598 H   0  0  0  0  0  0
  -24.6929  -21.0329   19.1386 H   0  0  0  0  0  0
  -24.0340  -18.2262   18.0398 H   0  0  0  0  0  0
  -23.0513  -18.6441   19.3514 H   0  0  0  0  0  0
  -22.7588  -16.1848   18.9957 H   0  0  0  0  0  0
  -23.1865  -16.6213   20.5382 H   0  0  0  0  0  0
  -28.6132  -16.3423   20.4627 H   0  0  0  0  0  0
  -29.5651  -16.9374   20.9392 H   0  0  0  0  0  0
  -27.2560  -14.0725   23.1390 H   0  0  0  0  0  0
  -27.8692  -14.3115   24.1152 H   0  0  0  0  0  0
  -27.3607  -18.1365   20.8203 H   0  0  0  0  0  0
  -27.6965  -18.5696   22.1671 H   0  0  0  0  0  0
  -25.3954  -15.5730   23.2557 H   0  0  0  0  0  0
  -25.8729  -16.3636   24.2495 H   0  0  0  0  0  0
  -26.1544  -17.0968   19.7516 H   0  0  0  0  0  0
  -25.6435  -12.5676   20.9249 H   0  0  0  0  0  0
  -24.2525  -15.8366   17.3734 H   0  0  0  0  0  0
  -24.0395  -14.1407   17.7414 H   0  0  0  0  0  0
  -25.6435  -14.8191   17.5214 H   0  0  0  0  0  0
  -26.8159  -22.2783   21.2436 H   0  0  0  0  0  0
  -25.2692  -22.9228   20.9841 H   0  0  0  0  0  0
  -25.3846  -17.7491   22.2287 H   0  0  0  0  0  0
  1 25  1  0  0  0
  1 30  2  0  0  0
  1 83  1  0  0  0
  2  3  1  0  0  0
  2 25  1  0  0  0
  2 85  1  0  0  0
  2 86  1  0  0  0
  3  4  1  0  0  0
  3 87  1  0  0  0
  3 88  1  0  0  0
  4  5  1  0  0  0
  4 89  1  0  0  0
  4 90  1  0  0  0
  5  6  1  0  0  0
  5 26  1  0  0  0
  5 91  1  0  0  0
  6 25  1  0  0  0
  6 92  1  0  0  0
  6 93  1  0  0  0
  7  8  2  0  0  0
  7 26  1  0  0  0
  7 29  1  0  0  0
  8  9  1  0  0  0
  8 22  1  0  0  0
  9 10  1  0  0  0
  9 27  2  0  0  0
 10 11  2  0  0  0
 10 15  1  0  0  0
 11 12  1  0  0  0
 11 94  1  0  0  0
 12 13  2  0  0  0
 12 95  1  0  0  0
 13 14  1  0  0  0
 13 31  1  0  0  0
 14 15  2  0  0  0
 14 96  1  0  0  0
 15 97  1  0  0  0
 16 17  2  0  0  0
 16 21  1  0  0  0
 16 31  1  0  0  0
 17 18  1  0  0  0
 17 98  1  0  0  0
 18 19  2  0  0  0
 18 99  1  0  0  0
 19 20  1  0  0  0
 19 24  1  0  0  0
 20 21  2  0  0  0
 20100  1  0  0  0
 21 23  1  0  0  0
 22 28  1  0  0  0
 22 32  2  0  0  0
 26 27  1  0  0  0
 28101  1  0  0  0
 28102  1  0  0  0
 29103  1  0  0  0
 29104  1  0  0  0
 33 34  1  0  0  0
 33 66  1  0  0  0
 33 70  2  0  0  0
 34 36  1  0  0  0
 34 59  1  0  0  0
 34105  1  0  0  0
 35 44  2  0  0  0
 35 45  1  0  0  0
 35 68  1  0  0  0
 36 56  1  0  0  0
 36106  1  0  0  0
 37 39  1  0  0  0
 37 47  1  0  0  0
 37 66  1  0  0  0
 37107  1  0  0  0
 38 43  2  0  0  0
 38 46  1  0  0  0
 38 47  1  0  0  0
 39 64  1  0  0  0
 39 67  2  0  0  0
 40 52  1  0  0  0
 40 53  2  0  0  0
 40 58  1  0  0  0
 41108  1  0  0  0
 41109  1  0  0  0
 41110  1  0  0  0
 41 48  1  0  0  0
 42 43  1  0  0  0
 42 66  1  0  0  0
 42111  1  0  0  0
 42112  1  0  0  0
 43 44  1  0  0  0
 44113  1  0  0  0
 45 46  2  0  0  0
 45114  1  0  0  0
 46115  1  0  0  0
 47116  1  0  0  0
 47117  1  0  0  0
 48 56  1  0  0  0
 48 65  1  0  0  0
 48118  1  0  0  0
 49 50  1  0  0  0
 49 53  1  0  0  0
 49 64  1  0  0  0
 49119  1  0  0  0
 50 51  1  0  0  0
 50120  1  0  0  0
 50121  1  0  0  0
 51 52  1  0  0  0
 51122  1  0  0  0
 51123  1  0  0  0
 52124  1  0  0  0
 52125  1  0  0  0
 53 54  1  0  0  0
 54 55  2  0  0  0
 54126  1  0  0  0
 55 57  1  0  0  0
 55127  1  0  0  0
 56 69  2  0  0  0
 57 58  2  0  0  0
 57128  1  0  0  0
 58129  1  0  0  0
 59 60  1  0  0  0
 59 61  1  0  0  0
 59 62  1  0  0  0
 60130  1  0  0  0
 60131  1  0  0  0
 60132  1  0  0  0
 61133  1  0  0  0
 61134  1  0  0  0
 61135  1  0  0  0
 62136  1  0  0  0
 62137  1  0  0  0
 62138  1  0  0  0
 63 65  1  0  0  0
 63139  1  0  0  0
 63140  1  0  0  0
 63141  1  0  0  0
 64142  1  0  0  0
 65143  1  0  0  0
 68 82  1  0  0  0
 71 72  2  0  0  0
 71 73  1  0  0  0
 71 79  1  0  0  0
 72 82  1  0  0  0
 72144  1  0  0  0
 73 74  1  0  0  0
 73145  1  0  0  0
 73146  1  0  0  0
 74 80  1  0  0  0
 74147  1  0  0  0
 74148  1  0  0  0
 75 77  1  0  0  0
 75 83  1  0  0  0
 75149  1  0  0  0
 75150  1  0  0  0
 76 78  1  0  0  0
 76 83  1  0  0  0
 76151  1  0  0  0
 76152  1  0  0  0
 77153  1  0  0  0
 77154  1  0  0  0
 77 84  1  0  0  0
 78 84  1  0  0  0
 78155  1  0  0  0
 78156  1  0  0  0
 79 80  1  0  0  0
 79 84  1  0  0  0
 79157  1  0  0  0
 80 81  1  0  0  0
 80158  1  0  0  0
 81159  1  0  0  0
 81160  1  0  0  0
 81161  1  0  0  0
 82162  1  0  0  0
 82163  1  0  0  0
 84164  1  0  0  0
M  CHG  1  84   1
M  ISO  4   1 100  68 101  82 101  83 100
M  END
> <chiral flag>
0

> <version>
0

> <s_m_source_file>
/data/baiqing/PycharmProjects/Reinvent-master-3.2/result/LINK_invent/BTK/process_docking_weight1_custom_sum_contain_oxygen_bond_distance_aromatic_linkinvent_7_9_3/rearranged_h_0188.sdf

> <i_m_source_file_index>
80

> <r_mmod_Potential_Energy-OPLS-2005>
18119.802734375

> <r_mmod_Stretch_Energy-OPLS-2005>
9843.2509765625

> <r_mmod_Bend_Energy-OPLS-2005>
2667.48657226562

> <r_mmod_Torsional_Energy-OPLS-2005>
732.185424804688

> <r_mmod_Improper_Torsional_Energy-OPLS-2005>
92.8246612548828

> <r_mmod_Van_der_Waal_Energy-OPLS-2005>
2522.76513671875

> <r_mmod_Electrostatic_Energy-OPLS-2005>
-176.139465332031

> <r_mmod_Solvation_Energy-OPLS-2005>
-484.459838867188

> <b_mmod_Minimization_Converged-OPLS-2005>
0

> <r_mmod_RMS_Derivative-OPLS-2005>
99.9990005493164

$$$$
81
                    3D
 Structure written by MMmdl.
158167  0  0  1  0            999 V2000
  -30.6098  -14.8366   20.4561 C   0  0  0  0  0  0
  -30.4309  -12.5314   19.4645 C   0  0  0  0  0  0
  -29.4990  -12.5017   18.2343 C   0  0  0  0  0  0
  -28.0364  -12.2728   18.6636 C   0  0  0  0  0  0
  -27.6216  -13.1919   19.8361 C   0  0  2  0  0  0
  -28.6797  -13.2072   20.9671 C   0  0  0  0  0  0
  -25.2428  -13.8051   20.5628 C   0  0  0  0  0  0
  -24.1733  -13.0362   20.9237 C   0  0  0  0  0  0
  -24.6296  -11.6831   20.8819 C   0  0  0  0  0  0
  -23.8973  -10.4242   21.0459 C   0  0  0  0  0  0
  -24.3546   -9.4159   21.9217 C   0  0  0  0  0  0
  -23.6237   -8.2194   22.0763 C   0  0  0  0  0  0
  -22.4232   -8.0238   21.3539 C   0  0  0  0  0  0
  -21.9854   -9.0214   20.4656 C   0  0  0  0  0  0
  -22.7164  -10.2096   20.3081 C   0  0  0  0  0  0
  -21.6836   -6.0712   22.5273 C   0  0  0  0  0  0
  -21.4008   -6.5631   23.8204 C   0  0  0  0  0  0
  -21.3641   -5.6790   24.9173 C   0  0  0  0  0  0
  -21.6035   -4.3051   24.7227 C   0  0  0  0  0  0
  -21.8821   -3.8134   23.4354 C   0  0  0  0  0  0
  -21.9186   -4.6943   22.3407 C   0  0  0  0  0  0
  -22.7777  -13.5199   21.1889 C   0  0  0  0  0  0
  -22.1657   -4.2130   21.0983 F   0  0  0  0  0  0
  -21.5615   -3.4538   25.7741 F   0  0  0  0  0  0
  -29.9533  -13.6168   20.3605 N   0  0  0  0  0  0
  -26.2815  -12.9166   20.3272 N   0  0  0  0  0  0
  -25.9207  -11.6369   20.5832 N   0  0  0  0  0  0
  -22.0398  -12.8249   22.0448 N   0  0  0  0  0  0
  -25.4042  -15.1767   20.3865 N   0  0  0  0  0  0
  -31.8246  -14.8531   20.2304 O   0  0  0  0  0  0
  -21.6610   -6.8833   21.4222 O   0  0  0  0  0  0
  -22.3500  -14.5528   20.6726 O   0  0  0  0  0  0
  -24.6345  -31.8521   23.1951 C   0  0  0  0  0  0
  -25.9162  -32.4732   23.8325 C   0  0  1  0  0  0
  -27.2359  -27.2442   20.1450 C   0  0  0  0  0  0
  -25.5953  -33.8535   24.2242 N   0  0  0  0  0  0
  -23.4339  -30.4697   21.5371 C   0  0  2  0  0  0
  -24.8855  -28.9065   20.1166 C   0  0  0  0  0  0
  -22.7525  -29.4577   22.4900 C   0  0  0  0  0  0
  -18.0295  -28.1389   22.8479 C   0  0  0  0  0  0
  -24.1492  -36.7274   23.2634 C   0  0  0  0  0  0
  -25.9781  -30.7615   21.3746 C   0  0  0  0  0  0
  -26.0550  -29.3771   20.7285 C   0  0  0  0  0  0
  -27.2340  -28.5589   20.7300 C   0  0  0  0  0  0
  -26.0436  -26.8466   19.5030 C   0  0  0  0  0  0
  -24.8846  -27.6505   19.4909 C   0  0  0  0  0  0
  -23.6550  -29.7934   20.1575 C   0  0  0  0  0  0
  -25.4111  -36.3036   24.0317 C   0  0  1  0  0  0
  -20.5898  -28.3704   23.1261 C   0  0  2  0  0  0
  -20.6784  -26.9426   22.5401 C   0  0  0  0  0  0
  -19.5754  -26.6393   21.5208 C   0  0  0  0  0  0
  -18.1937  -26.7934   22.1622 C   0  0  0  0  0  0
  -19.1550  -28.8864   23.2862 C   0  0  0  0  0  0
  -18.9466  -30.1462   23.8883 C   0  0  0  0  0  0
  -17.6464  -30.6588   24.0557 C   0  0  0  0  0  0
  -25.9053  -34.9418   23.5077 C   0  0  0  0  0  0
  -16.5357  -29.9078   23.6326 C   0  0  0  0  0  0
  -16.7281  -28.6497   23.0346 C   0  0  0  0  0  0
  -26.4544  -31.6552   25.0716 C   0  0  0  0  0  0
  -25.3779  -31.3714   26.1447 C   0  0  0  0  0  0
  -27.0392  -30.2959   24.6210 C   0  0  0  0  0  0
  -27.6070  -32.4306   25.7513 C   0  0  0  0  0  0
  -27.5566  -37.1790   24.8461 C   0  0  0  0  0  0
  -21.4230  -29.3043   22.3644 N   0  0  0  0  0  0
  -26.4273  -37.3742   23.9412 N   0  0  0  0  0  0
  -24.7005  -31.0472   22.0922 N   0  0  0  0  0  0
  -23.4209  -28.8122   23.3013 O   0  0  0  0  0  0
  -28.3357  -26.3478   20.1501 O   0  0  0  0  0  0
  -26.5620  -34.8904   22.4643 O   0  0  0  0  0  0
  -23.5480  -32.1338   23.7227 O   0  0  0  0  0  0
  -30.2848  -22.5846   18.2463 C   0  0  0  0  0  0
  -30.1811  -21.3467   18.9029 C   0  0  0  0  0  0
  -29.6780  -23.7424   18.7806 C   0  0  0  0  0  0
  -28.9446  -23.6515   19.9904 C   0  0  0  0  0  0
  -29.4915  -21.2563   20.1187 C   0  0  0  0  0  0
  -28.2183  -17.8584   20.4735 C   0  0  0  0  0  0
  -28.5159  -16.3456   20.3465 C   0  0  0  0  0  0
  -30.5241  -17.4625   20.7757 C   0  0  0  0  0  0
  -29.5272  -18.5964   20.2336 C   0  0  2  0  0  0
  -29.8448  -25.0520   18.0288 C   0  0  0  0  0  0
  -28.1230  -24.9085   20.5820 C   0  0  0  0  0  0
  -28.8901  -22.4041   20.6332 N   0  0  0  0  0  0
  -29.9294  -16.0657   20.6300 N   0  0  0  0  0  0
  -29.4904  -19.9977   20.8343 N   0  0  0  0  0  0
  -31.4607  -12.6889   19.1412 H   0  0  0  0  0  0
  -30.4231  -11.5704   19.9804 H   0  0  0  0  0  0
  -29.8108  -11.7175   17.5445 H   0  0  0  0  0  0
  -29.5812  -13.4417   17.6883 H   0  0  0  0  0  0
  -27.9355  -11.2289   18.9630 H   0  0  0  0  0  0
  -27.3642  -12.4131   17.8163 H   0  0  0  0  0  0
  -27.5566  -14.1619   19.3658 H   0  0  0  0  0  0
  -28.7724  -12.2206   21.4230 H   0  0  0  0  0  0
  -28.3988  -13.8723   21.7828 H   0  0  0  0  0  0
  -25.2676   -9.5669   22.4801 H   0  0  0  0  0  0
  -23.9948   -7.4599   22.7504 H   0  0  0  0  0  0
  -21.0773   -8.8730   19.8983 H   0  0  0  0  0  0
  -22.3605  -10.9645   19.6212 H   0  0  0  0  0  0
  -21.2011   -7.6141   23.9703 H   0  0  0  0  0  0
  -21.1454   -6.0524   25.9074 H   0  0  0  0  0  0
  -22.0616   -2.7594   23.2863 H   0  0  0  0  0  0
  -22.3954  -11.9901   22.4861 H   0  0  0  0  0  0
  -21.1041  -13.1363   22.2648 H   0  0  0  0  0  0
  -24.6314  -15.8260   20.4851 H   0  0  0  0  0  0
  -26.2478  -15.6165   20.0425 H   0  0  0  0  0  0
  -26.7237  -32.5394   23.1067 H   0  0  0  0  0  0
  -25.0128  -33.9691   25.0409 H   0  0  0  0  0  0
  -22.7319  -31.2914   21.3839 H   0  0  0  0  0  0
  -23.3733  -35.9628   23.3290 H   0  0  0  0  0  0
  -24.3567  -36.8912   22.2048 H   0  0  0  0  0  0
  -23.7299  -37.6491   23.6675 H   0  0  0  0  0  0
  -26.1126  -31.5150   20.5963 H   0  0  0  0  0  0
  -26.8572  -30.8219   22.0050 H   0  0  0  0  0  0
  -28.1283  -28.9160   21.2214 H   0  0  0  0  0  0
  -25.9964  -25.8882   19.0073 H   0  0  0  0  0  0
  -23.9918  -27.2882   19.0002 H   0  0  0  0  0  0
  -23.7799  -30.5625   19.3951 H   0  0  0  0  0  0
  -22.7765  -29.2204   19.8524 H   0  0  0  0  0  0
  -25.1302  -36.1851   25.0808 H   0  0  0  0  0  0
  -20.9990  -28.3299   24.1379 H   0  0  0  0  0  0
  -20.5682  -26.2335   23.3614 H   0  0  0  0  0  0
  -21.6654  -26.7457   22.1193 H   0  0  0  0  0  0
  -19.6922  -25.6306   21.1230 H   0  0  0  0  0  0
  -19.6671  -27.3208   20.6739 H   0  0  0  0  0  0
  -17.4208  -26.6676   21.4021 H   0  0  0  0  0  0
  -18.0331  -26.0073   22.9016 H   0  0  0  0  0  0
  -19.7942  -30.7276   24.2254 H   0  0  0  0  0  0
  -17.5017  -31.6257   24.5176 H   0  0  0  0  0  0
  -15.5355  -30.2971   23.7657 H   0  0  0  0  0  0
  -15.8685  -28.0807   22.7067 H   0  0  0  0  0  0
  -24.5951  -30.7053   25.7809 H   0  0  0  0  0  0
  -24.8979  -32.2885   26.4860 H   0  0  0  0  0  0
  -25.8116  -30.8921   27.0233 H   0  0  0  0  0  0
  -26.2975  -29.6691   24.1237 H   0  0  0  0  0  0
  -27.4077  -29.7236   25.4738 H   0  0  0  0  0  0
  -27.8855  -30.4219   23.9449 H   0  0  0  0  0  0
  -27.2642  -33.3599   26.2079 H   0  0  0  0  0  0
  -28.3904  -32.6879   25.0370 H   0  0  0  0  0  0
  -28.0716  -31.8445   26.5453 H   0  0  0  0  0  0
  -28.2573  -38.0091   24.7475 H   0  0  0  0  0  0
  -28.1072  -36.2618   24.6307 H   0  0  0  0  0  0
  -27.2286  -37.1462   25.8865 H   0  0  0  0  0  0
  -20.9434  -29.8766   21.6837 H   0  0  0  0  0  0
  -26.0131  -38.2809   24.1401 H   0  0  0  0  0  0
  -30.8450  -22.6398   17.3243 H   0  0  0  0  0  0
  -30.6769  -20.4870   18.4761 H   0  0  0  0  0  0
  -27.8592  -18.0629   21.4835 H   0  0  0  0  0  0
  -27.4330  -18.1786   19.7861 H   0  0  0  0  0  0
  -28.3127  -16.0633   19.3162 H   0  0  0  0  0  0
  -27.8647  -15.8043   21.0264 H   0  0  0  0  0  0
  -30.7107  -17.6225   21.8385 H   0  0  0  0  0  0
  -31.4914  -17.5296   20.2749 H   0  0  0  0  0  0
  -29.6655  -18.6729   19.1537 H   0  0  0  0  0  0
  -28.8791  -25.4503   17.7172 H   0  0  0  0  0  0
  -30.4622  -24.9245   17.1381 H   0  0  0  0  0  0
  -30.3383  -25.7921   18.6586 H   0  0  0  0  0  0
  -28.3256  -24.9085   21.6532 H   0  0  0  0  0  0
  -27.0695  -24.6418   20.5139 H   0  0  0  0  0  0
  -29.0625  -20.0469   21.7528 H   0  0  0  0  0  0
  1 25  1  0  0  0
  1 30  2  0  0  0
  1 83  1  0  0  0
  2  3  1  0  0  0
  2 25  1  0  0  0
  2 85  1  0  0  0
  2 86  1  0  0  0
  3  4  1  0  0  0
  3 87  1  0  0  0
  3 88  1  0  0  0
  4  5  1  0  0  0
  4 89  1  0  0  0
  4 90  1  0  0  0
  5  6  1  0  0  0
  5 26  1  0  0  0
  5 91  1  0  0  0
  6 25  1  0  0  0
  6 92  1  0  0  0
  6 93  1  0  0  0
  7  8  2  0  0  0
  7 26  1  0  0  0
  7 29  1  0  0  0
  8  9  1  0  0  0
  8 22  1  0  0  0
  9 10  1  0  0  0
  9 27  2  0  0  0
 10 11  2  0  0  0
 10 15  1  0  0  0
 11 12  1  0  0  0
 11 94  1  0  0  0
 12 13  2  0  0  0
 12 95  1  0  0  0
 13 14  1  0  0  0
 13 31  1  0  0  0
 14 15  2  0  0  0
 14 96  1  0  0  0
 15 97  1  0  0  0
 16 17  2  0  0  0
 16 21  1  0  0  0
 16 31  1  0  0  0
 17 18  1  0  0  0
 17 98  1  0  0  0
 18 19  2  0  0  0
 18 99  1  0  0  0
 19 20  1  0  0  0
 19 24  1  0  0  0
 20 21  2  0  0  0
 20100  1  0  0  0
 21 23  1  0  0  0
 22 28  1  0  0  0
 22 32  2  0  0  0
 26 27  1  0  0  0
 28101  1  0  0  0
 28102  1  0  0  0
 29103  1  0  0  0
 29104  1  0  0  0
 33 34  1  0  0  0
 33 66  1  0  0  0
 33 70  2  0  0  0
 34 36  1  0  0  0
 34 59  1  0  0  0
 34105  1  0  0  0
 35 44  2  0  0  0
 35 45  1  0  0  0
 35 68  1  0  0  0
 36 56  1  0  0  0
 36106  1  0  0  0
 37 39  1  0  0  0
 37 47  1  0  0  0
 37 66  1  0  0  0
 37107  1  0  0  0
 38 43  2  0  0  0
 38 46  1  0  0  0
 38 47  1  0  0  0
 39 64  1  0  0  0
 39 67  2  0  0  0
 40 52  1  0  0  0
 40 53  2  0  0  0
 40 58  1  0  0  0
 41108  1  0  0  0
 41109  1  0  0  0
 41110  1  0  0  0
 41 48  1  0  0  0
 42 43  1  0  0  0
 42 66  1  0  0  0
 42111  1  0  0  0
 42112  1  0  0  0
 43 44  1  0  0  0
 44113  1  0  0  0
 45 46  2  0  0  0
 45114  1  0  0  0
 46115  1  0  0  0
 47116  1  0  0  0
 47117  1  0  0  0
 48 56  1  0  0  0
 48 65  1  0  0  0
 48118  1  0  0  0
 49 50  1  0  0  0
 49 53  1  0  0  0
 49 64  1  0  0  0
 49119  1  0  0  0
 50 51  1  0  0  0
 50120  1  0  0  0
 50121  1  0  0  0
 51 52  1  0  0  0
 51122  1  0  0  0
 51123  1  0  0  0
 52124  1  0  0  0
 52125  1  0  0  0
 53 54  1  0  0  0
 54 55  2  0  0  0
 54126  1  0  0  0
 55 57  1  0  0  0
 55127  1  0  0  0
 56 69  2  0  0  0
 57 58  2  0  0  0
 57128  1  0  0  0
 58129  1  0  0  0
 59 60  1  0  0  0
 59 61  1  0  0  0
 59 62  1  0  0  0
 60130  1  0  0  0
 60131  1  0  0  0
 60132  1  0  0  0
 61133  1  0  0  0
 61134  1  0  0  0
 61135  1  0  0  0
 62136  1  0  0  0
 62137  1  0  0  0
 62138  1  0  0  0
 63 65  1  0  0  0
 63139  1  0  0  0
 63140  1  0  0  0
 63141  1  0  0  0
 64142  1  0  0  0
 65143  1  0  0  0
 68 81  1  0  0  0
 71 72  2  0  0  0
 71 73  1  0  0  0
 71144  1  0  0  0
 72 75  1  0  0  0
 72145  1  0  0  0
 73 74  2  0  0  0
 73 80  1  0  0  0
 74 81  1  0  0  0
 74 82  1  0  0  0
 75 82  2  0  0  0
 75 84  1  0  0  0
 76 77  1  0  0  0
 76 79  1  0  0  0
 76146  1  0  0  0
 76147  1  0  0  0
 77 83  1  0  0  0
 77148  1  0  0  0
 77149  1  0  0  0
 78 79  1  0  0  0
 78 83  1  0  0  0
 78150  1  0  0  0
 78151  1  0  0  0
 79 84  1  0  0  0
 79152  1  0  0  0
 80153  1  0  0  0
 80154  1  0  0  0
 80155  1  0  0  0
 81156  1  0  0  0
 81157  1  0  0  0
 84158  1  0  0  0
M  ISO  4   1 100  68 101  81 101  83 100
M  END
> <chiral flag>
0

> <version>
0

> <s_m_source_file>
/data/baiqing/PycharmProjects/Reinvent-master-3.2/result/LINK_invent/BTK/process_docking_weight1_custom_sum_contain_oxygen_bond_distance_aromatic_linkinvent_7_9_3/rearranged_h_0188.sdf

> <i_m_source_file_index>
81

> <r_mmod_Potential_Energy-OPLS-2005>
206.147796630859

> <r_mmod_Stretch_Energy-OPLS-2005>
137.082946777344

> <r_mmod_Bend_Energy-OPLS-2005>
218.523941040039

> <r_mmod_Torsional_Energy-OPLS-2005>
328.605285644531

> <r_mmod_Improper_Torsional_Energy-OPLS-2005>
5.95298099517822

> <r_mmod_Van_der_Waal_Energy-OPLS-2005>
143.410079956055

> <r_mmod_Electrostatic_Energy-OPLS-2005>
-515.263122558594

> <r_mmod_Solvation_Energy-OPLS-2005>
-227.279006958008

> <b_mmod_Minimization_Converged-OPLS-2005>
0

> <r_mmod_RMS_Derivative-OPLS-2005>
2.65335416793823

$$$$
82
                    3D
 Structure written by MMmdl.
164173  0  0  1  0            999 V2000
  -30.7275  -14.3803   20.6829 C   0  0  0  0  0  0
  -30.4302  -12.2926   19.3980 C   0  0  0  0  0  0
  -29.4969  -12.5476   18.2014 C   0  0  0  0  0  0
  -28.0172  -12.4022   18.6145 C   0  0  0  0  0  0
  -27.6755  -13.1995   19.9001 C   0  0  2  0  0  0
  -28.7120  -12.8988   21.0023 C   0  0  0  0  0  0
  -25.2638  -13.8091   20.5737 C   0  0  0  0  0  0
  -24.1849  -13.0402   20.9166 C   0  0  0  0  0  0
  -24.6389  -11.6865   20.8680 C   0  0  0  0  0  0
  -23.9016  -10.4279   21.0344 C   0  0  0  0  0  0
  -24.3580   -9.4215   21.9156 C   0  0  0  0  0  0
  -23.6274   -8.2232   22.0717 C   0  0  0  0  0  0
  -22.4266   -8.0237   21.3509 C   0  0  0  0  0  0
  -21.9871   -9.0197   20.4620 C   0  0  0  0  0  0
  -22.7173  -10.2098   20.3033 C   0  0  0  0  0  0
  -21.6853   -6.0701   22.5261 C   0  0  0  0  0  0
  -21.3999   -6.5618   23.8195 C   0  0  0  0  0  0
  -21.3691   -5.6779   24.9167 C   0  0  0  0  0  0
  -21.6065   -4.3046   24.7227 C   0  0  0  0  0  0
  -21.8814   -3.8124   23.4355 C   0  0  0  0  0  0
  -21.9187   -4.6923   22.3410 C   0  0  0  0  0  0
  -22.7909  -13.5236   21.1863 C   0  0  0  0  0  0
  -22.1650   -4.2106   21.0982 F   0  0  0  0  0  0
  -21.5674   -3.4556   25.7762 F   0  0  0  0  0  0
  -30.0501  -13.2223   20.4700 N   0  0  0  0  0  0
  -26.3099  -12.9288   20.3469 N   0  0  0  0  0  0
  -25.9325  -11.6434   20.5731 N   0  0  0  0  0  0
  -22.0518  -12.8199   22.0416 N   0  0  0  0  0  0
  -25.4301  -15.1825   20.4172 N   0  0  0  0  0  0
  -31.7630  -14.6846   20.0830 O   0  0  0  0  0  0
  -21.6639   -6.8828   21.4211 O   0  0  0  0  0  0
  -22.3625  -14.5598   20.6797 O   0  0  0  0  0  0
  -24.6101  -31.8703   23.2122 C   0  0  0  0  0  0
  -25.8988  -32.4847   23.8428 C   0  0  1  0  0  0
  -27.2563  -27.4792   20.0696 C   0  0  0  0  0  0
  -25.5855  -33.8641   24.2359 N   0  0  0  0  0  0
  -23.4009  -30.4944   21.5467 C   0  0  2  0  0  0
  -24.8550  -28.9607   20.1181 C   0  0  0  0  0  0
  -22.7401  -29.4678   22.4939 C   0  0  0  0  0  0
  -18.0271  -28.1394   22.8477 C   0  0  0  0  0  0
  -24.1483  -36.7321   23.2646 C   0  0  0  0  0  0
  -25.9267  -30.8458   21.3648 C   0  0  0  0  0  0
  -26.0098  -29.4795   20.7170 C   0  0  0  0  0  0
  -27.2114  -28.7393   20.7038 C   0  0  0  0  0  0
  -26.0796  -26.9535   19.4944 C   0  0  0  0  0  0
  -24.8804  -27.6909   19.5137 C   0  0  0  0  0  0
  -23.6165  -29.8278   20.1610 C   0  0  0  0  0  0
  -25.4102  -36.3128   24.0348 C   0  0  1  0  0  0
  -20.5858  -28.3690   23.1292 C   0  0  2  0  0  0
  -20.6747  -26.9417   22.5416 C   0  0  0  0  0  0
  -19.5732  -26.6399   21.5202 C   0  0  0  0  0  0
  -18.1916  -26.7942   22.1616 C   0  0  0  0  0  0
  -19.1520  -28.8848   23.2895 C   0  0  0  0  0  0
  -18.9449  -30.1445   23.8921 C   0  0  0  0  0  0
  -17.6457  -30.6595   24.0567 C   0  0  0  0  0  0
  -25.9012  -34.9486   23.5156 C   0  0  0  0  0  0
  -16.5351  -29.9111   23.6313 C   0  0  0  0  0  0
  -16.7259  -28.6533   23.0325 C   0  0  0  0  0  0
  -26.4439  -31.6613   25.0742 C   0  0  0  0  0  0
  -25.3734  -31.3708   26.1513 C   0  0  0  0  0  0
  -27.0257  -30.3062   24.6084 C   0  0  0  0  0  0
  -27.6029  -32.4338   25.7478 C   0  0  0  0  0  0
  -27.5583  -37.1817   24.8470 C   0  0  0  0  0  0
  -21.4123  -29.3066   22.3700 N   0  0  0  0  0  0
  -26.4296  -37.3804   23.9413 N   0  0  0  0  0  0
  -24.6634  -31.0831   22.1007 N   0  0  0  0  0  0
  -23.4179  -28.8207   23.2968 O   0  0  0  0  0  0
  -28.4306  -26.7672   20.0221 O   0  0  0  0  0  0
  -26.5583  -34.8932   22.4722 O   0  0  0  0  0  0
  -23.5297  -32.1435   23.7523 O   0  0  0  0  0  0
  -30.7407  -19.8019   20.5192 C   0  0  0  0  0  0
  -29.2140  -20.9663   18.5181 C   0  0  0  0  0  0
  -30.9939  -21.1244   20.1239 C   0  0  0  0  0  0
  -30.2243  -21.7241   19.1394 C   0  0  0  0  0  0
  -29.6637  -19.1352   19.8988 C   0  0  0  0  0  0
  -32.0711  -22.0331   20.6329 C   0  0  0  0  0  0
  -31.9160  -23.3159   19.7818 C   0  0  0  0  0  0
  -30.6988  -23.1346   18.8218 C   0  0  2  0  0  0
  -29.3912  -17.5072   21.7005 C   0  0  0  0  0  0
  -30.5579  -16.5338   21.9655 C   0  0  0  0  0  0
  -30.1143  -25.5738   18.7302 C   0  0  0  0  0  0
  -28.9492  -26.5778   18.7030 C   0  0  0  0  0  0
  -28.9333  -19.6960   18.9096 N   0  0  0  0  0  0
  -29.2608  -17.8561   20.2854 N   0  0  0  0  0  0
  -30.1678  -15.1776   21.6015 N   0  0  0  0  0  0
  -29.6627  -24.1847   19.0144 N   0  3  0  0  0  0
  -31.4763  -12.4053   19.1106 H   0  0  0  0  0  0
  -30.3318  -11.2642   19.7508 H   0  0  0  0  0  0
  -29.7309  -11.8614   17.3875 H   0  0  0  0  0  0
  -29.6675  -13.5518   17.8121 H   0  0  0  0  0  0
  -27.8204  -11.3431   18.7796 H   0  0  0  0  0  0
  -27.3637  -12.7164   17.7985 H   0  0  0  0  0  0
  -27.7483  -14.2610   19.6588 H   0  0  0  0  0  0
  -28.6825  -11.8398   21.2664 H   0  0  0  0  0  0
  -28.4665  -13.4198   21.9290 H   0  0  0  0  0  0
  -25.2686   -9.5780   22.4757 H   0  0  0  0  0  0
  -24.0015   -7.4673   22.7471 H   0  0  0  0  0  0
  -21.0784   -8.8679   19.8975 H   0  0  0  0  0  0
  -22.3532  -10.9628   19.6198 H   0  0  0  0  0  0
  -21.1934   -7.6117   23.9695 H   0  0  0  0  0  0
  -21.1562   -6.0506   25.9090 H   0  0  0  0  0  0
  -22.0579   -2.7568   23.2861 H   0  0  0  0  0  0
  -22.4122  -11.9800   22.4682 H   0  0  0  0  0  0
  -21.1204  -13.1273   22.2818 H   0  0  0  0  0  0
  -24.6459  -15.8207   20.4891 H   0  0  0  0  0  0
  -26.2755  -15.6248   20.0819 H   0  0  0  0  0  0
  -26.7081  -32.5582   23.1219 H   0  0  0  0  0  0
  -24.9990  -33.9829   25.0486 H   0  0  0  0  0  0
  -22.6891  -31.3099   21.4050 H   0  0  0  0  0  0
  -23.3740  -35.9659   23.3337 H   0  0  0  0  0  0
  -24.3583  -36.8901   22.2056 H   0  0  0  0  0  0
  -23.7244  -37.6540   23.6633 H   0  0  0  0  0  0
  -26.0348  -31.6130   20.5955 H   0  0  0  0  0  0
  -26.8157  -30.9045   21.9806 H   0  0  0  0  0  0
  -28.1063  -29.1419   21.1583 H   0  0  0  0  0  0
  -26.0886  -25.9763   19.0321 H   0  0  0  0  0  0
  -23.9910  -27.2791   19.0591 H   0  0  0  0  0  0
  -23.7388  -30.6067   19.4069 H   0  0  0  0  0  0
  -22.7412  -29.2547   19.8504 H   0  0  0  0  0  0
  -25.1275  -36.2008   25.0843 H   0  0  0  0  0  0
  -20.9969  -28.3277   24.1403 H   0  0  0  0  0  0
  -20.5627  -26.2303   23.3614 H   0  0  0  0  0  0
  -21.6621  -26.7452   22.1222 H   0  0  0  0  0  0
  -19.6894  -25.6313   21.1216 H   0  0  0  0  0  0
  -19.6669  -27.3210   20.6731 H   0  0  0  0  0  0
  -17.4182  -26.6682   21.4028 H   0  0  0  0  0  0
  -18.0330  -26.0090   22.9030 H   0  0  0  0  0  0
  -19.7925  -30.7234   24.2319 H   0  0  0  0  0  0
  -17.5021  -31.6274   24.5191 H   0  0  0  0  0  0
  -15.5346  -30.3029   23.7617 H   0  0  0  0  0  0
  -15.8667  -28.0868   22.7013 H   0  0  0  0  0  0
  -24.5876  -30.7083   25.7871 H   0  0  0  0  0  0
  -24.8947  -32.2855   26.5025 H   0  0  0  0  0  0
  -25.8104  -30.8841   27.0240 H   0  0  0  0  0  0
  -26.2783  -29.6850   24.1134 H   0  0  0  0  0  0
  -27.4039  -29.7278   25.4522 H   0  0  0  0  0  0
  -27.8617  -30.4404   23.9216 H   0  0  0  0  0  0
  -27.2649  -33.3627   26.2094 H   0  0  0  0  0  0
  -28.3788  -32.6933   25.0259 H   0  0  0  0  0  0
  -28.0751  -31.8447   26.5352 H   0  0  0  0  0  0
  -28.2615  -38.0103   24.7501 H   0  0  0  0  0  0
  -28.1061  -36.2629   24.6301 H   0  0  0  0  0  0
  -27.2305  -37.1492   25.8878 H   0  0  0  0  0  0
  -20.9268  -29.8820   21.6963 H   0  0  0  0  0  0
  -26.0189  -38.2888   24.1402 H   0  0  0  0  0  0
  -31.3536  -19.3333   21.2773 H   0  0  0  0  0  0
  -28.6192  -21.3795   17.7155 H   0  0  0  0  0  0
  -33.0518  -21.5752   20.5023 H   0  0  0  0  0  0
  -31.9242  -22.2384   21.6947 H   0  0  0  0  0  0
  -32.8233  -23.4869   19.2012 H   0  0  0  0  0  0
  -31.8069  -24.1717   20.4480 H   0  0  0  0  0  0
  -31.0349  -23.1545   17.7822 H   0  0  0  0  0  0
  -29.5256  -18.4131   22.2957 H   0  0  0  0  0  0
  -28.4517  -17.0818   22.0527 H   0  0  0  0  0  0
  -30.7802  -16.5337   23.0341 H   0  0  0  0  0  0
  -31.4758  -16.8510   21.4664 H   0  0  0  0  0  0
  -30.8529  -25.9039   19.4601 H   0  0  0  0  0  0
  -30.6137  -25.5913   17.7598 H   0  0  0  0  0  0
  -28.1898  -26.2460   17.9949 H   0  0  0  0  0  0
  -29.3154  -27.5404   18.3357 H   0  0  0  0  0  0
  -28.4098  -17.5425   19.8338 H   0  0  0  0  0  0
  -29.3331  -14.8216   22.0405 H   0  0  0  0  0  0
  -29.3070  -24.1461   19.9566 H   0  0  0  0  0  0
  -28.8935  -23.9847   18.3958 H   0  0  0  0  0  0
  1 25  1  0  0  0
  1 30  2  0  0  0
  1 85  1  0  0  0
  2  3  1  0  0  0
  2 25  1  0  0  0
  2 87  1  0  0  0
  2 88  1  0  0  0
  3  4  1  0  0  0
  3 89  1  0  0  0
  3 90  1  0  0  0
  4  5  1  0  0  0
  4 91  1  0  0  0
  4 92  1  0  0  0
  5  6  1  0  0  0
  5 26  1  0  0  0
  5 93  1  0  0  0
  6 25  1  0  0  0
  6 94  1  0  0  0
  6 95  1  0  0  0
  7  8  2  0  0  0
  7 26  1  0  0  0
  7 29  1  0  0  0
  8  9  1  0  0  0
  8 22  1  0  0  0
  9 10  1  0  0  0
  9 27  2  0  0  0
 10 11  2  0  0  0
 10 15  1  0  0  0
 11 12  1  0  0  0
 11 96  1  0  0  0
 12 13  2  0  0  0
 12 97  1  0  0  0
 13 14  1  0  0  0
 13 31  1  0  0  0
 14 15  2  0  0  0
 14 98  1  0  0  0
 15 99  1  0  0  0
 16 17  2  0  0  0
 16 21  1  0  0  0
 16 31  1  0  0  0
 17 18  1  0  0  0
 17100  1  0  0  0
 18 19  2  0  0  0
 18101  1  0  0  0
 19 20  1  0  0  0
 19 24  1  0  0  0
 20 21  2  0  0  0
 20102  1  0  0  0
 21 23  1  0  0  0
 22 28  1  0  0  0
 22 32  2  0  0  0
 26 27  1  0  0  0
 28103  1  0  0  0
 28104  1  0  0  0
 29105  1  0  0  0
 29106  1  0  0  0
 33 34  1  0  0  0
 33 66  1  0  0  0
 33 70  2  0  0  0
 34 36  1  0  0  0
 34 59  1  0  0  0
 34107  1  0  0  0
 35 44  2  0  0  0
 35 45  1  0  0  0
 35 68  1  0  0  0
 36 56  1  0  0  0
 36108  1  0  0  0
 37 39  1  0  0  0
 37 47  1  0  0  0
 37 66  1  0  0  0
 37109  1  0  0  0
 38 43  2  0  0  0
 38 46  1  0  0  0
 38 47  1  0  0  0
 39 64  1  0  0  0
 39 67  2  0  0  0
 40 52  1  0  0  0
 40 53  2  0  0  0
 40 58  1  0  0  0
 41110  1  0  0  0
 41111  1  0  0  0
 41112  1  0  0  0
 41 48  1  0  0  0
 42 43  1  0  0  0
 42 66  1  0  0  0
 42113  1  0  0  0
 42114  1  0  0  0
 43 44  1  0  0  0
 44115  1  0  0  0
 45 46  2  0  0  0
 45116  1  0  0  0
 46117  1  0  0  0
 47118  1  0  0  0
 47119  1  0  0  0
 48 56  1  0  0  0
 48 65  1  0  0  0
 48120  1  0  0  0
 49 50  1  0  0  0
 49 53  1  0  0  0
 49 64  1  0  0  0
 49121  1  0  0  0
 50 51  1  0  0  0
 50122  1  0  0  0
 50123  1  0  0  0
 51 52  1  0  0  0
 51124  1  0  0  0
 51125  1  0  0  0
 52126  1  0  0  0
 52127  1  0  0  0
 53 54  1  0  0  0
 54 55  2  0  0  0
 54128  1  0  0  0
 55 57  1  0  0  0
 55129  1  0  0  0
 56 69  2  0  0  0
 57 58  2  0  0  0
 57130  1  0  0  0
 58131  1  0  0  0
 59 60  1  0  0  0
 59 61  1  0  0  0
 59 62  1  0  0  0
 60132  1  0  0  0
 60133  1  0  0  0
 60134  1  0  0  0
 61135  1  0  0  0
 61136  1  0  0  0
 61137  1  0  0  0
 62138  1  0  0  0
 62139  1  0  0  0
 62140  1  0  0  0
 63 65  1  0  0  0
 63141  1  0  0  0
 63142  1  0  0  0
 63143  1  0  0  0
 64144  1  0  0  0
 65145  1  0  0  0
 68 82  1  0  0  0
 71 73  2  0  0  0
 71 75  1  0  0  0
 71146  1  0  0  0
 72 74  2  0  0  0
 72 83  1  0  0  0
 72147  1  0  0  0
 73 74  1  0  0  0
 73 76  1  0  0  0
 74 78  1  0  0  0
 75 83  2  0  0  0
 75 84  1  0  0  0
 76 77  1  0  0  0
 76148  1  0  0  0
 76149  1  0  0  0
 77 78  1  0  0  0
 77150  1  0  0  0
 77151  1  0  0  0
 78 86  1  0  0  0
 78152  1  0  0  0
 79 80  1  0  0  0
 79 84  1  0  0  0
 79153  1  0  0  0
 79154  1  0  0  0
 80 85  1  0  0  0
 80155  1  0  0  0
 80156  1  0  0  0
 81 82  1  0  0  0
 81 86  1  0  0  0
 81157  1  0  0  0
 81158  1  0  0  0
 82159  1  0  0  0
 82160  1  0  0  0
 84161  1  0  0  0
 85162  1  0  0  0
 86163  1  0  0  0
 86164  1  0  0  0
M  CHG  1  86   1
M  ISO  4   1 100  68 101  82 101  85 100
M  END
> <chiral flag>
0

> <version>
0

> <s_m_source_file>
/data/baiqing/PycharmProjects/Reinvent-master-3.2/result/LINK_invent/BTK/process_docking_weight1_custom_sum_contain_oxygen_bond_distance_aromatic_linkinvent_7_9_3/rearranged_h_0188.sdf

> <i_m_source_file_index>
82

> <r_mmod_Potential_Energy-OPLS-2005>
-442.834381103516

> <r_mmod_Stretch_Energy-OPLS-2005>
34.3648071289062

> <r_mmod_Bend_Energy-OPLS-2005>
130.229797363281

> <r_mmod_Torsional_Energy-OPLS-2005>
251.371673583984

> <r_mmod_Improper_Torsional_Energy-OPLS-2005>
5.85533618927002

> <r_mmod_Van_der_Waal_Energy-OPLS-2005>
154.063873291016

> <r_mmod_Electrostatic_Energy-OPLS-2005>
-552.443542480469

> <r_mmod_Solvation_Energy-OPLS-2005>
-473.579467773438

> <b_mmod_Minimization_Converged-OPLS-2005>
0

> <r_mmod_RMS_Derivative-OPLS-2005>
4.82378005981445

$$$$
83
                    3D
 Structure written by MMmdl.
153162  0  0  1  0            999 V2000
  -30.6428  -14.8830   20.4146 C   0  0  0  0  0  0
  -30.4125  -12.5545   19.4802 C   0  0  0  0  0  0
  -29.5012  -12.5140   18.2370 C   0  0  0  0  0  0
  -28.0343  -12.3226   18.6567 C   0  0  0  0  0  0
  -27.6232  -13.2562   19.8277 C   0  0  2  0  0  0
  -28.6719  -13.3138   20.9590 C   0  0  0  0  0  0
  -25.2443  -13.8229   20.5694 C   0  0  0  0  0  0
  -24.1771  -13.0442   20.9224 C   0  0  0  0  0  0
  -24.6410  -11.6947   20.8783 C   0  0  0  0  0  0
  -23.9102  -10.4301   21.0418 C   0  0  0  0  0  0
  -24.3664   -9.4209   21.9180 C   0  0  0  0  0  0
  -23.6332   -8.2246   22.0747 C   0  0  0  0  0  0
  -22.4301   -8.0291   21.3548 C   0  0  0  0  0  0
  -21.9957   -9.0262   20.4640 C   0  0  0  0  0  0
  -22.7280  -10.2134   20.3046 C   0  0  0  0  0  0
  -21.6859   -6.0760   22.5280 C   0  0  0  0  0  0
  -21.4015   -6.5657   23.8214 C   0  0  0  0  0  0
  -21.3660   -5.6797   24.9173 C   0  0  0  0  0  0
  -21.6055   -4.3060   24.7217 C   0  0  0  0  0  0
  -21.8820   -3.8160   23.4332 C   0  0  0  0  0  0
  -21.9195   -4.6987   22.3399 C   0  0  0  0  0  0
  -22.7792  -13.5196   21.1861 C   0  0  0  0  0  0
  -22.1656   -4.2162   21.0978 F   0  0  0  0  0  0
  -21.5631   -3.4550   25.7730 F   0  0  0  0  0  0
  -29.9448  -13.6849   20.3328 N   0  0  0  0  0  0
  -26.2877  -12.9499   20.3241 N   0  0  0  0  0  0
  -25.9344  -11.6628   20.5773 N   0  0  0  0  0  0
  -22.0458  -12.8178   22.0419 N   0  0  0  0  0  0
  -25.4081  -15.1943   20.4101 N   0  0  0  0  0  0
  -31.8589  -14.8282   20.2169 O   0  0  0  0  0  0
  -21.6652   -6.8890   21.4235 O   0  0  0  0  0  0
  -22.3467  -14.5490   20.6704 O   0  0  0  0  0  0
  -24.6433  -31.8471   23.1908 C   0  0  0  0  0  0
  -25.9220  -32.4711   23.8278 C   0  0  1  0  0  0
  -27.2076  -27.1505   20.1498 C   0  0  0  0  0  0
  -25.5992  -33.8519   24.2208 N   0  0  0  0  0  0
  -23.4429  -30.4693   21.5389 C   0  0  2  0  0  0
  -24.8891  -28.9000   20.1107 C   0  0  0  0  0  0
  -22.7562  -29.4576   22.4893 C   0  0  0  0  0  0
  -18.0293  -28.1406   22.8477 C   0  0  0  0  0  0
  -24.1494  -36.7251   23.2637 C   0  0  0  0  0  0
  -25.9999  -30.7227   21.3901 C   0  0  0  0  0  0
  -26.0662  -29.3363   20.7308 C   0  0  0  0  0  0
  -27.2294  -28.4784   20.7324 C   0  0  0  0  0  0
  -26.0093  -26.8223   19.4772 C   0  0  0  0  0  0
  -24.8724  -27.6563   19.4666 C   0  0  0  0  0  0
  -23.6656  -29.8037   20.1558 C   0  0  0  0  0  0
  -25.4128  -36.3034   24.0301 C   0  0  1  0  0  0
  -20.5916  -28.3722   23.1255 C   0  0  2  0  0  0
  -20.6790  -26.9434   22.5415 C   0  0  0  0  0  0
  -19.5766  -26.6388   21.5228 C   0  0  0  0  0  0
  -18.1941  -26.7939   22.1623 C   0  0  0  0  0  0
  -19.1552  -28.8877   23.2860 C   0  0  0  0  0  0
  -18.9472  -30.1473   23.8873 C   0  0  0  0  0  0
  -17.6474  -30.6601   24.0556 C   0  0  0  0  0  0
  -25.9081  -34.9413   23.5057 C   0  0  0  0  0  0
  -16.5367  -29.9089   23.6358 C   0  0  0  0  0  0
  -16.7275  -28.6522   23.0358 C   0  0  0  0  0  0
  -26.4523  -31.6570   25.0721 C   0  0  0  0  0  0
  -25.3699  -31.3786   26.1421 C   0  0  0  0  0  0
  -27.0390  -30.2956   24.6338 C   0  0  0  0  0  0
  -27.6060  -32.4337   25.7526 C   0  0  0  0  0  0
  -27.5577  -37.1786   24.8462 C   0  0  0  0  0  0
  -21.4263  -29.3057   22.3625 N   0  0  0  0  0  0
  -26.4291  -37.3749   23.9408 N   0  0  0  0  0  0
  -24.7149  -31.0344   22.0935 N   0  0  0  0  0  0
  -23.4232  -28.8127   23.3033 O   0  0  0  0  0  0
  -28.2539  -26.1626   20.1867 O   0  0  0  0  0  0
  -26.5673  -34.8904   22.4637 O   0  0  0  0  0  0
  -23.5560  -32.1354   23.7159 O   0  0  0  0  0  0
  -30.5718  -22.4469   19.0679 C   0  0  0  0  0  0
  -28.8236  -23.3518   20.1572 C   0  0  0  0  0  0
  -29.2700  -21.0190   20.1883 C   0  0  0  0  0  0
  -30.7471  -17.5267   20.4399 C   0  0  0  0  0  0
  -28.7587  -16.9073   20.5715 C   0  0  0  0  0  0
  -29.4199  -18.2542   20.0260 C   0  0  0  0  0  0
  -31.7908  -22.6540   18.1928 C   0  0  0  0  0  0
  -27.8972  -24.6717   20.4627 C   0  0  0  0  0  0
  -29.8917  -23.5526   19.3911 N   0  0  0  0  0  0
  -30.3200  -21.1791   19.4058 N   0  0  0  0  0  0
  -28.4862  -22.0746   20.5968 N   0  0  0  0  0  0
  -30.0641  -16.1827   20.4395 N   0  0  0  0  0  0
  -29.0193  -19.6408   20.6094 N   0  0  0  0  0  0
  -31.4507  -12.6679   19.1640 H   0  0  0  0  0  0
  -30.3722  -11.6110   20.0248 H   0  0  0  0  0  0
  -29.8078  -11.7069   17.5691 H   0  0  0  0  0  0
  -29.6091  -13.4390   17.6681 H   0  0  0  0  0  0
  -27.9131  -11.2794   18.9519 H   0  0  0  0  0  0
  -27.3745  -12.4698   17.8012 H   0  0  0  0  0  0
  -27.5780  -14.2536   19.3938 H   0  0  0  0  0  0
  -28.7519  -12.3615   21.4858 H   0  0  0  0  0  0
  -28.3860  -14.0635   21.7007 H   0  0  0  0  0  0
  -25.2799   -9.5689   22.4778 H   0  0  0  0  0  0
  -24.0034   -7.4645   22.7480 H   0  0  0  0  0  0
  -21.0876   -8.8786   19.8957 H   0  0  0  0  0  0
  -22.3724  -10.9696   19.6180 H   0  0  0  0  0  0
  -21.1995   -7.6168   23.9729 H   0  0  0  0  0  0
  -21.1479   -6.0525   25.9084 H   0  0  0  0  0  0
  -22.0598   -2.7611   23.2829 H   0  0  0  0  0  0
  -22.4080  -11.9873   22.4816 H   0  0  0  0  0  0
  -21.1080  -13.1172   22.2632 H   0  0  0  0  0  0
  -24.6375  -15.8447   20.5206 H   0  0  0  0  0  0
  -26.2493  -15.6349   20.0660 H   0  0  0  0  0  0
  -26.7307  -32.5308   23.1019 H   0  0  0  0  0  0
  -25.0092  -33.9641   25.0323 H   0  0  0  0  0  0
  -22.7434  -31.2955   21.3901 H   0  0  0  0  0  0
  -23.3762  -35.9581   23.3292 H   0  0  0  0  0  0
  -24.3568  -36.8896   22.2053 H   0  0  0  0  0  0
  -23.7250  -37.6440   23.6681 H   0  0  0  0  0  0
  -26.1635  -31.4800   20.6210 H   0  0  0  0  0  0
  -26.8685  -30.7652   22.0360 H   0  0  0  0  0  0
  -28.1283  -28.8094   21.2351 H   0  0  0  0  0  0
  -25.9181  -25.8879   18.9431 H   0  0  0  0  0  0
  -23.9785  -27.3287   18.9540 H   0  0  0  0  0  0
  -23.8022  -30.5824   19.4047 H   0  0  0  0  0  0
  -22.7790  -29.2493   19.8442 H   0  0  0  0  0  0
  -25.1320  -36.1842   25.0794 H   0  0  0  0  0  0
  -20.9989  -28.3308   24.1388 H   0  0  0  0  0  0
  -20.5715  -26.2337   23.3628 H   0  0  0  0  0  0
  -21.6650  -26.7466   22.1196 H   0  0  0  0  0  0
  -19.6932  -25.6294   21.1269 H   0  0  0  0  0  0
  -19.6702  -27.3190   20.6753 H   0  0  0  0  0  0
  -17.4219  -26.6693   21.4022 H   0  0  0  0  0  0
  -18.0323  -26.0088   22.9022 H   0  0  0  0  0  0
  -19.7942  -30.7302   24.2242 H   0  0  0  0  0  0
  -17.5018  -31.6274   24.5157 H   0  0  0  0  0  0
  -15.5361  -30.2985   23.7686 H   0  0  0  0  0  0
  -15.8675  -28.0824   22.7096 H   0  0  0  0  0  0
  -24.5888  -30.7118   25.7740 H   0  0  0  0  0  0
  -24.8869  -32.2978   26.4746 H   0  0  0  0  0  0
  -25.7958  -30.9022   27.0260 H   0  0  0  0  0  0
  -26.3014  -29.6683   24.1312 H   0  0  0  0  0  0
  -27.3944  -29.7255   25.4934 H   0  0  0  0  0  0
  -27.8947  -30.4173   23.9694 H   0  0  0  0  0  0
  -27.2644  -33.3653   26.2053 H   0  0  0  0  0  0
  -28.3896  -32.6878   25.0370 H   0  0  0  0  0  0
  -28.0696  -31.8491   26.5484 H   0  0  0  0  0  0
  -28.2584  -38.0092   24.7515 H   0  0  0  0  0  0
  -28.1080  -36.2620   24.6274 H   0  0  0  0  0  0
  -27.2296  -37.1415   25.8866 H   0  0  0  0  0  0
  -20.9473  -29.8739   21.6767 H   0  0  0  0  0  0
  -26.0141  -38.2813   24.1417 H   0  0  0  0  0  0
  -31.1245  -17.8171   21.4222 H   0  0  0  0  0  0
  -31.5384  -17.6222   19.6938 H   0  0  0  0  0  0
  -27.9687  -16.5294   19.9252 H   0  0  0  0  0  0
  -28.4070  -16.9692   21.6050 H   0  0  0  0  0  0
  -29.3439  -18.2884   18.9343 H   0  0  0  0  0  0
  -32.0736  -23.7071   18.1264 H   0  0  0  0  0  0
  -31.5951  -22.2938   17.1830 H   0  0  0  0  0  0
  -32.6426  -22.1056   18.5939 H   0  0  0  0  0  0
  -27.6688  -24.6223   21.5274 H   0  0  0  0  0  0
  -26.9601  -24.4247   19.9739 H   0  0  0  0  0  0
  -28.2398  -19.5904   21.2556 H   0  0  0  0  0  0
  1 25  1  0  0  0
  1 30  2  0  0  0
  1 82  1  0  0  0
  2  3  1  0  0  0
  2 25  1  0  0  0
  2 84  1  0  0  0
  2 85  1  0  0  0
  3  4  1  0  0  0
  3 86  1  0  0  0
  3 87  1  0  0  0
  4  5  1  0  0  0
  4 88  1  0  0  0
  4 89  1  0  0  0
  5  6  1  0  0  0
  5 26  1  0  0  0
  5 90  1  0  0  0
  6 25  1  0  0  0
  6 91  1  0  0  0
  6 92  1  0  0  0
  7  8  2  0  0  0
  7 26  1  0  0  0
  7 29  1  0  0  0
  8  9  1  0  0  0
  8 22  1  0  0  0
  9 10  1  0  0  0
  9 27  2  0  0  0
 10 11  2  0  0  0
 10 15  1  0  0  0
 11 12  1  0  0  0
 11 93  1  0  0  0
 12 13  2  0  0  0
 12 94  1  0  0  0
 13 14  1  0  0  0
 13 31  1  0  0  0
 14 15  2  0  0  0
 14 95  1  0  0  0
 15 96  1  0  0  0
 16 17  2  0  0  0
 16 21  1  0  0  0
 16 31  1  0  0  0
 17 18  1  0  0  0
 17 97  1  0  0  0
 18 19  2  0  0  0
 18 98  1  0  0  0
 19 20  1  0  0  0
 19 24  1  0  0  0
 20 21  2  0  0  0
 20 99  1  0  0  0
 21 23  1  0  0  0
 22 28  1  0  0  0
 22 32  2  0  0  0
 26 27  1  0  0  0
 28100  1  0  0  0
 28101  1  0  0  0
 29102  1  0  0  0
 29103  1  0  0  0
 33 34  1  0  0  0
 33 66  1  0  0  0
 33 70  2  0  0  0
 34 36  1  0  0  0
 34 59  1  0  0  0
 34104  1  0  0  0
 35 44  2  0  0  0
 35 45  1  0  0  0
 35 68  1  0  0  0
 36 56  1  0  0  0
 36105  1  0  0  0
 37 39  1  0  0  0
 37 47  1  0  0  0
 37 66  1  0  0  0
 37106  1  0  0  0
 38 43  2  0  0  0
 38 46  1  0  0  0
 38 47  1  0  0  0
 39 64  1  0  0  0
 39 67  2  0  0  0
 40 52  1  0  0  0
 40 53  2  0  0  0
 40 58  1  0  0  0
 41107  1  0  0  0
 41108  1  0  0  0
 41109  1  0  0  0
 41 48  1  0  0  0
 42 43  1  0  0  0
 42 66  1  0  0  0
 42110  1  0  0  0
 42111  1  0  0  0
 43 44  1  0  0  0
 44112  1  0  0  0
 45 46  2  0  0  0
 45113  1  0  0  0
 46114  1  0  0  0
 47115  1  0  0  0
 47116  1  0  0  0
 48 56  1  0  0  0
 48 65  1  0  0  0
 48117  1  0  0  0
 49 50  1  0  0  0
 49 53  1  0  0  0
 49 64  1  0  0  0
 49118  1  0  0  0
 50 51  1  0  0  0
 50119  1  0  0  0
 50120  1  0  0  0
 51 52  1  0  0  0
 51121  1  0  0  0
 51122  1  0  0  0
 52123  1  0  0  0
 52124  1  0  0  0
 53 54  1  0  0  0
 54 55  2  0  0  0
 54125  1  0  0  0
 55 57  1  0  0  0
 55126  1  0  0  0
 56 69  2  0  0  0
 57 58  2  0  0  0
 57127  1  0  0  0
 58128  1  0  0  0
 59 60  1  0  0  0
 59 61  1  0  0  0
 59 62  1  0  0  0
 60129  1  0  0  0
 60130  1  0  0  0
 60131  1  0  0  0
 61132  1  0  0  0
 61133  1  0  0  0
 61134  1  0  0  0
 62135  1  0  0  0
 62136  1  0  0  0
 62137  1  0  0  0
 63 65  1  0  0  0
 63138  1  0  0  0
 63139  1  0  0  0
 63140  1  0  0  0
 64141  1  0  0  0
 65142  1  0  0  0
 68 78  1  0  0  0
 71 77  1  0  0  0
 71 79  2  0  0  0
 71 80  1  0  0  0
 72 78  1  0  0  0
 72 79  1  0  0  0
 72 81  2  0  0  0
 73 80  2  0  0  0
 73 81  1  0  0  0
 73 83  1  0  0  0
 74 76  1  0  0  0
 74 82  1  0  0  0
 74143  1  0  0  0
 74144  1  0  0  0
 75 76  1  0  0  0
 75 82  1  0  0  0
 75145  1  0  0  0
 75146  1  0  0  0
 76 83  1  0  0  0
 76147  1  0  0  0
 77148  1  0  0  0
 77149  1  0  0  0
 77150  1  0  0  0
 78151  1  0  0  0
 78152  1  0  0  0
 83153  1  0  0  0
M  ISO  4   1 100  68 101  78 101  82 100
M  END
> <chiral flag>
0

> <version>
0

> <s_m_source_file>
/data/baiqing/PycharmProjects/Reinvent-master-3.2/result/LINK_invent/BTK/process_docking_weight1_custom_sum_contain_oxygen_bond_distance_aromatic_linkinvent_7_9_3/rearranged_h_0188.sdf

> <i_m_source_file_index>
83

> <r_mmod_Potential_Energy-OPLS-2005>
-300.458435058594

> <r_mmod_Stretch_Energy-OPLS-2005>
189.747512817383

> <r_mmod_Bend_Energy-OPLS-2005>
270.097106933594

> <r_mmod_Torsional_Energy-OPLS-2005>
254.183258056641

> <r_mmod_Improper_Torsional_Energy-OPLS-2005>
7.12297630310059

> <r_mmod_Van_der_Waal_Energy-OPLS-2005>
146.727981567383

> <r_mmod_Electrostatic_Energy-OPLS-2005>
-1086.20666503906

> <r_mmod_Solvation_Energy-OPLS-2005>
-251.960052490234

> <b_mmod_Minimization_Converged-OPLS-2005>
0

> <r_mmod_RMS_Derivative-OPLS-2005>
3.47896337509155

$$$$
84
                    3D
 Structure written by MMmdl.
170179  0  0  1  0            999 V2000
  -30.7334  -14.4870   20.5415 C   0  0  0  0  0  0
  -30.4119  -12.3088   19.4410 C   0  0  0  0  0  0
  -29.4939  -12.4940   18.2158 C   0  0  0  0  0  0
  -28.0163  -12.3607   18.6261 C   0  0  0  0  0  0
  -27.6582  -13.2168   19.8717 C   0  0  2  0  0  0
  -28.7022  -13.0416   20.9999 C   0  0  0  0  0  0
  -25.2562  -13.8179   20.5707 C   0  0  0  0  0  0
  -24.1834  -13.0431   20.9191 C   0  0  0  0  0  0
  -24.6405  -11.6908   20.8754 C   0  0  0  0  0  0
  -23.9084  -10.4284   21.0418 C   0  0  0  0  0  0
  -24.3636   -9.4197   21.9191 C   0  0  0  0  0  0
  -23.6309   -8.2234   22.0752 C   0  0  0  0  0  0
  -22.4291   -8.0281   21.3540 C   0  0  0  0  0  0
  -21.9939   -9.0257   20.4642 C   0  0  0  0  0  0
  -22.7263  -10.2137   20.3056 C   0  0  0  0  0  0
  -21.6858   -6.0752   22.5292 C   0  0  0  0  0  0
  -21.4015   -6.5650   23.8223 C   0  0  0  0  0  0
  -21.3653   -5.6793   24.9174 C   0  0  0  0  0  0
  -21.6040   -4.3060   24.7224 C   0  0  0  0  0  0
  -21.8820   -3.8163   23.4345 C   0  0  0  0  0  0
  -21.9187   -4.6981   22.3403 C   0  0  0  0  0  0
  -22.7845  -13.5222   21.1847 C   0  0  0  0  0  0
  -22.1658   -4.2163   21.0981 F   0  0  0  0  0  0
  -21.5629   -3.4540   25.7740 F   0  0  0  0  0  0
  -30.0316  -13.3230   20.4385 N   0  0  0  0  0  0
  -26.3013  -12.9370   20.3377 N   0  0  0  0  0  0
  -25.9342  -11.6514   20.5794 N   0  0  0  0  0  0
  -22.0511  -12.8188   22.0403 N   0  0  0  0  0  0
  -25.4261  -15.1892   20.4099 N   0  0  0  0  0  0
  -31.8836  -14.5964   20.1087 O   0  0  0  0  0  0
  -21.6634   -6.8899   21.4253 O   0  0  0  0  0  0
  -22.3517  -14.5528   20.6705 O   0  0  0  0  0  0
  -24.6146  -31.8664   23.2103 C   0  0  0  0  0  0
  -25.9033  -32.4794   23.8396 C   0  0  1  0  0  0
  -27.2430  -27.4218   20.0862 C   0  0  0  0  0  0
  -25.5904  -33.8601   24.2297 N   0  0  0  0  0  0
  -23.4068  -30.4850   21.5528 C   0  0  2  0  0  0
  -24.8544  -28.9531   20.1161 C   0  0  0  0  0  0
  -22.7421  -29.4625   22.5032 C   0  0  0  0  0  0
  -18.0264  -28.1344   22.8477 C   0  0  0  0  0  0
  -24.1506  -36.7307   23.2636 C   0  0  0  0  0  0
  -25.9382  -30.8217   21.3736 C   0  0  0  0  0  0
  -26.0151  -29.4573   20.7144 C   0  0  0  0  0  0
  -27.2093  -28.6984   20.6963 C   0  0  0  0  0  0
  -26.0594  -26.9424   19.4751 C   0  0  0  0  0  0
  -24.8726  -27.6966   19.4939 C   0  0  0  0  0  0
  -23.6119  -29.8136   20.1693 C   0  0  0  0  0  0
  -25.4118  -36.3085   24.0332 C   0  0  1  0  0  0
  -20.5850  -28.3622   23.1331 C   0  0  2  0  0  0
  -20.6741  -26.9367   22.5405 C   0  0  0  0  0  0
  -19.5721  -26.6354   21.5203 C   0  0  0  0  0  0
  -18.1890  -26.7892   22.1608 C   0  0  0  0  0  0
  -19.1511  -28.8807   23.2881 C   0  0  0  0  0  0
  -18.9445  -30.1420   23.8880 C   0  0  0  0  0  0
  -17.6438  -30.6550   24.0534 C   0  0  0  0  0  0
  -25.9058  -34.9452   23.5104 C   0  0  0  0  0  0
  -16.5327  -29.9036   23.6334 C   0  0  0  0  0  0
  -16.7252  -28.6458   23.0354 C   0  0  0  0  0  0
  -26.4456  -31.6614   25.0766 C   0  0  0  0  0  0
  -25.3706  -31.3720   26.1517 C   0  0  0  0  0  0
  -27.0297  -30.3034   24.6214 C   0  0  0  0  0  0
  -27.6021  -32.4380   25.7503 C   0  0  0  0  0  0
  -27.5588  -37.1776   24.8444 C   0  0  0  0  0  0
  -21.4155  -29.3006   22.3774 N   0  0  0  0  0  0
  -26.4294  -37.3772   23.9415 N   0  0  0  0  0  0
  -24.6704  -31.0760   22.1006 N   0  0  0  0  0  0
  -23.4184  -28.8157   23.3072 O   0  0  0  0  0  0
  -28.4204  -26.6914   20.1212 O   0  0  0  0  0  0
  -26.5635  -34.8889   22.4679 O   0  0  0  0  0  0
  -23.5329  -32.1431   23.7463 O   0  0  0  0  0  0
  -29.3439  -19.4862   17.6447 C   0  0  0  0  0  0
  -29.7400  -20.6702   16.7668 C   0  0  0  0  0  0
  -29.7407  -18.1756   21.0104 C   0  0  0  0  0  0
  -30.4614  -17.4106   19.2772 C   0  0  0  0  0  0
  -29.7442  -19.8368   19.1073 C   0  0  2  0  0  0
  -30.6262  -16.9372   20.7297 C   0  0  0  0  0  0
  -30.5939  -21.1340   18.8885 C   0  0  2  0  0  0
  -29.5344  -24.5454   21.9413 C   0  0  0  0  0  0
  -31.1005  -22.6306   16.9868 C   0  0  0  0  0  0
  -30.6091  -22.1696   20.0474 C   0  0  0  0  0  0
  -28.3536  -25.2891   19.8048 C   0  0  0  0  0  0
  -29.5199  -24.4564   20.4008 C   0  0  2  0  0  0
  -30.4499  -18.7567   19.8566 N   0  0  0  0  0  0
  -30.1205  -21.7578   17.6431 N   0  0  0  0  0  0
  -30.0652  -15.5861   20.9483 N   0  0  0  0  0  0
  -29.4076  -23.0352   19.9475 N   0  3  0  0  0  0
  -31.4597  -12.3804   19.1447 H   0  0  0  0  0  0
  -30.2921  -11.3102   19.8643 H   0  0  0  0  0  0
  -29.7352  -11.7575   17.4479 H   0  0  0  0  0  0
  -29.6634  -13.4736   17.7652 H   0  0  0  0  0  0
  -27.8277  -11.3071   18.8360 H   0  0  0  0  0  0
  -27.3662  -12.6235   17.7912 H   0  0  0  0  0  0
  -27.6905  -14.2587   19.5523 H   0  0  0  0  0  0
  -28.6778  -12.0210   21.3850 H   0  0  0  0  0  0
  -28.4737  -13.6876   21.8484 H   0  0  0  0  0  0
  -25.2787   -9.5657   22.4748 H   0  0  0  0  0  0
  -24.0018   -7.4618   22.7471 H   0  0  0  0  0  0
  -21.0873   -8.8776   19.8938 H   0  0  0  0  0  0
  -22.3740  -10.9673   19.6154 H   0  0  0  0  0  0
  -21.2007   -7.6158   23.9732 H   0  0  0  0  0  0
  -21.1480   -6.0523   25.9078 H   0  0  0  0  0  0
  -22.0606   -2.7624   23.2839 H   0  0  0  0  0  0
  -22.4152  -11.9844   22.4752 H   0  0  0  0  0  0
  -21.1119  -13.1179   22.2621 H   0  0  0  0  0  0
  -24.6620  -15.8464   20.5205 H   0  0  0  0  0  0
  -26.2742  -15.6278   20.0737 H   0  0  0  0  0  0
  -26.7097  -32.5499   23.1138 H   0  0  0  0  0  0
  -25.0107  -33.9774   25.0477 H   0  0  0  0  0  0
  -22.6969  -31.3003   21.4067 H   0  0  0  0  0  0
  -23.3774  -35.9633   23.3289 H   0  0  0  0  0  0
  -24.3613  -36.8966   22.2052 H   0  0  0  0  0  0
  -23.7236  -37.6500   23.6682 H   0  0  0  0  0  0
  -26.0774  -31.5940   20.6160 H   0  0  0  0  0  0
  -26.8150  -30.8571   22.0086 H   0  0  0  0  0  0
  -28.1085  -29.0834   21.1580 H   0  0  0  0  0  0
  -26.0146  -25.9889   18.9692 H   0  0  0  0  0  0
  -23.9835  -27.3029   19.0222 H   0  0  0  0  0  0
  -23.7032  -30.5821   19.4003 H   0  0  0  0  0  0
  -22.7369  -29.2239   19.8895 H   0  0  0  0  0  0
  -25.1261  -36.1954   25.0819 H   0  0  0  0  0  0
  -20.9914  -28.3154   24.1471 H   0  0  0  0  0  0
  -20.5662  -26.2206   23.3564 H   0  0  0  0  0  0
  -21.6596  -26.7405   22.1185 H   0  0  0  0  0  0
  -19.6907  -25.6283   21.1210 H   0  0  0  0  0  0
  -19.6678  -27.3178   20.6741 H   0  0  0  0  0  0
  -17.4165  -26.6662   21.4001 H   0  0  0  0  0  0
  -18.0283  -26.0027   22.8994 H   0  0  0  0  0  0
  -19.7935  -30.7220   24.2242 H   0  0  0  0  0  0
  -17.5002  -31.6250   24.5110 H   0  0  0  0  0  0
  -15.5324  -30.2888   23.7722 H   0  0  0  0  0  0
  -15.8661  -28.0756   22.7089 H   0  0  0  0  0  0
  -24.5896  -30.7049   25.7856 H   0  0  0  0  0  0
  -24.8866  -32.2858   26.4968 H   0  0  0  0  0  0
  -25.8053  -30.8894   27.0274 H   0  0  0  0  0  0
  -26.2864  -29.6773   24.1262 H   0  0  0  0  0  0
  -27.4016  -29.7303   25.4720 H   0  0  0  0  0  0
  -27.8713  -30.4331   23.9408 H   0  0  0  0  0  0
  -27.2659  -33.3715   26.2016 H   0  0  0  0  0  0
  -28.3816  -32.6902   25.0312 H   0  0  0  0  0  0
  -28.0695  -31.8564   26.5459 H   0  0  0  0  0  0
  -28.2517  -38.0149   24.7585 H   0  0  0  0  0  0
  -28.1164  -36.2680   24.6146 H   0  0  0  0  0  0
  -27.2325  -37.1272   25.8846 H   0  0  0  0  0  0
  -20.9336  -29.8730   21.6981 H   0  0  0  0  0  0
  -26.0189  -38.2843   24.1468 H   0  0  0  0  0  0
  -29.8630  -18.6237   17.2277 H   0  0  0  0  0  0
  -28.2762  -19.2744   17.5762 H   0  0  0  0  0  0
  -28.9282  -20.9735   16.1032 H   0  0  0  0  0  0
  -30.5758  -20.3772   16.1274 H   0  0  0  0  0  0
  -29.9433  -18.6956   21.9481 H   0  0  0  0  0  0
  -28.6721  -18.0253   20.8402 H   0  0  0  0  0  0
  -29.5032  -17.1129   18.8380 H   0  0  0  0  0  0
  -31.3070  -17.2189   18.6136 H   0  0  0  0  0  0
  -28.8325  -20.1157   19.6420 H   0  0  0  0  0  0
  -31.6476  -17.0584   21.1058 H   0  0  0  0  0  0
  -31.6234  -20.7956   18.7406 H   0  0  0  0  0  0
  -29.6709  -25.5764   22.2750 H   0  0  0  0  0  0
  -30.3398  -23.9519   22.3770 H   0  0  0  0  0  0
  -28.5946  -24.1939   22.3687 H   0  0  0  0  0  0
  -30.6651  -23.0974   16.1002 H   0  0  0  0  0  0
  -31.9806  -22.0708   16.6615 H   0  0  0  0  0  0
  -31.4424  -23.4343   17.6387 H   0  0  0  0  0  0
  -31.5055  -22.7854   19.9434 H   0  0  0  0  0  0
  -30.6810  -21.6855   21.0214 H   0  0  0  0  0  0
  -27.4288  -24.8473   20.1778 H   0  0  0  0  0  0
  -28.3446  -25.1907   18.7196 H   0  0  0  0  0  0
  -30.4516  -24.8715   20.0143 H   0  0  0  0  0  0
  -29.1211  -15.4889   21.2899 H   0  0  0  0  0  0
  -28.6231  -22.5698   20.3738 H   0  0  0  0  0  0
  -29.2528  -23.0243   18.9452 H   0  0  0  0  0  0
  1 25  1  0  0  0
  1 30  2  0  0  0
  1 85  1  0  0  0
  2  3  1  0  0  0
  2 25  1  0  0  0
  2 87  1  0  0  0
  2 88  1  0  0  0
  3  4  1  0  0  0
  3 89  1  0  0  0
  3 90  1  0  0  0
  4  5  1  0  0  0
  4 91  1  0  0  0
  4 92  1  0  0  0
  5  6  1  0  0  0
  5 26  1  0  0  0
  5 93  1  0  0  0
  6 25  1  0  0  0
  6 94  1  0  0  0
  6 95  1  0  0  0
  7  8  2  0  0  0
  7 26  1  0  0  0
  7 29  1  0  0  0
  8  9  1  0  0  0
  8 22  1  0  0  0
  9 10  1  0  0  0
  9 27  2  0  0  0
 10 11  2  0  0  0
 10 15  1  0  0  0
 11 12  1  0  0  0
 11 96  1  0  0  0
 12 13  2  0  0  0
 12 97  1  0  0  0
 13 14  1  0  0  0
 13 31  1  0  0  0
 14 15  2  0  0  0
 14 98  1  0  0  0
 15 99  1  0  0  0
 16 17  2  0  0  0
 16 21  1  0  0  0
 16 31  1  0  0  0
 17 18  1  0  0  0
 17100  1  0  0  0
 18 19  2  0  0  0
 18101  1  0  0  0
 19 20  1  0  0  0
 19 24  1  0  0  0
 20 21  2  0  0  0
 20102  1  0  0  0
 21 23  1  0  0  0
 22 28  1  0  0  0
 22 32  2  0  0  0
 26 27  1  0  0  0
 28103  1  0  0  0
 28104  1  0  0  0
 29105  1  0  0  0
 29106  1  0  0  0
 33 34  1  0  0  0
 33 66  1  0  0  0
 33 70  2  0  0  0
 34 36  1  0  0  0
 34 59  1  0  0  0
 34107  1  0  0  0
 35 44  2  0  0  0
 35 45  1  0  0  0
 35 68  1  0  0  0
 36 56  1  0  0  0
 36108  1  0  0  0
 37 39  1  0  0  0
 37 47  1  0  0  0
 37 66  1  0  0  0
 37109  1  0  0  0
 38 43  2  0  0  0
 38 46  1  0  0  0
 38 47  1  0  0  0
 39 64  1  0  0  0
 39 67  2  0  0  0
 40 52  1  0  0  0
 40 53  2  0  0  0
 40 58  1  0  0  0
 41110  1  0  0  0
 41111  1  0  0  0
 41112  1  0  0  0
 41 48  1  0  0  0
 42 43  1  0  0  0
 42 66  1  0  0  0
 42113  1  0  0  0
 42114  1  0  0  0
 43 44  1  0  0  0
 44115  1  0  0  0
 45 46  2  0  0  0
 45116  1  0  0  0
 46117  1  0  0  0
 47118  1  0  0  0
 47119  1  0  0  0
 48 56  1  0  0  0
 48 65  1  0  0  0
 48120  1  0  0  0
 49 50  1  0  0  0
 49 53  1  0  0  0
 49 64  1  0  0  0
 49121  1  0  0  0
 50 51  1  0  0  0
 50122  1  0  0  0
 50123  1  0  0  0
 51 52  1  0  0  0
 51124  1  0  0  0
 51125  1  0  0  0
 52126  1  0  0  0
 52127  1  0  0  0
 53 54  1  0  0  0
 54 55  2  0  0  0
 54128  1  0  0  0
 55 57  1  0  0  0
 55129  1  0  0  0
 56 69  2  0  0  0
 57 58  2  0  0  0
 57130  1  0  0  0
 58131  1  0  0  0
 59 60  1  0  0  0
 59 61  1  0  0  0
 59 62  1  0  0  0
 60132  1  0  0  0
 60133  1  0  0  0
 60134  1  0  0  0
 61135  1  0  0  0
 61136  1  0  0  0
 61137  1  0  0  0
 62138  1  0  0  0
 62139  1  0  0  0
 62140  1  0  0  0
 63 65  1  0  0  0
 63141  1  0  0  0
 63142  1  0  0  0
 63143  1  0  0  0
 64144  1  0  0  0
 65145  1  0  0  0
 68 81  1  0  0  0
 71 72  1  0  0  0
 71 75  1  0  0  0
 71146  1  0  0  0
 71147  1  0  0  0
 72 84  1  0  0  0
 72148  1  0  0  0
 72149  1  0  0  0
 73 76  1  0  0  0
 73150  1  0  0  0
 73151  1  0  0  0
 73 83  1  0  0  0
 74 76  1  0  0  0
 74 83  1  0  0  0
 74152  1  0  0  0
 74153  1  0  0  0
 75 77  1  0  0  0
 75 83  1  0  0  0
 75154  1  0  0  0
 76 85  1  0  0  0
 76155  1  0  0  0
 77 80  1  0  0  0
 77 84  1  0  0  0
 77156  1  0  0  0
 78157  1  0  0  0
 78158  1  0  0  0
 78159  1  0  0  0
 78 82  1  0  0  0
 79 84  1  0  0  0
 79160  1  0  0  0
 79161  1  0  0  0
 79162  1  0  0  0
 80 86  1  0  0  0
 80163  1  0  0  0
 80164  1  0  0  0
 81 82  1  0  0  0
 81165  1  0  0  0
 81166  1  0  0  0
 82 86  1  0  0  0
 82167  1  0  0  0
 85168  1  0  0  0
 86169  1  0  0  0
 86170  1  0  0  0
M  CHG  1  86   1
M  ISO  4   1 100  68 101  81 101  85 100
M  END
> <chiral flag>
0

> <version>
0

> <s_m_source_file>
/data/baiqing/PycharmProjects/Reinvent-master-3.2/result/LINK_invent/BTK/process_docking_weight1_custom_sum_contain_oxygen_bond_distance_aromatic_linkinvent_7_9_3/rearranged_h_0188.sdf

> <i_m_source_file_index>
84

> <r_mmod_Potential_Energy-OPLS-2005>
90.3859176635742

> <r_mmod_Stretch_Energy-OPLS-2005>
44.3770637512207

> <r_mmod_Bend_Energy-OPLS-2005>
174.309387207031

> <r_mmod_Torsional_Energy-OPLS-2005>
404.640563964844

> <r_mmod_Improper_Torsional_Energy-OPLS-2005>
4.49102163314819

> <r_mmod_Van_der_Waal_Energy-OPLS-2005>
150.368881225586

> <r_mmod_Electrostatic_Energy-OPLS-2005>
-279.295013427734

> <r_mmod_Solvation_Energy-OPLS-2005>
-426.196228027344

> <b_mmod_Minimization_Converged-OPLS-2005>
0

> <r_mmod_RMS_Derivative-OPLS-2005>
3.56433629989624

$$$$
85
                    3D
 Structure written by MMmdl.
154163  0  0  1  0            999 V2000
  -30.5492  -14.8770   20.4301 C   0  0  0  0  0  0
  -30.4408  -12.5306   19.5094 C   0  0  0  0  0  0
  -29.5292  -12.5270   18.2595 C   0  0  0  0  0  0
  -28.0554  -12.3325   18.6644 C   0  0  0  0  0  0
  -27.6397  -13.2436   19.8500 C   0  0  2  0  0  0
  -28.6781  -13.2225   20.9949 C   0  0  0  0  0  0
  -25.2480  -13.8211   20.5662 C   0  0  0  0  0  0
  -24.1783  -13.0445   20.9193 C   0  0  0  0  0  0
  -24.6398  -11.6925   20.8727 C   0  0  0  0  0  0
  -23.9086  -10.4287   21.0398 C   0  0  0  0  0  0
  -24.3632   -9.4205   21.9180 C   0  0  0  0  0  0
  -23.6292   -8.2247   22.0754 C   0  0  0  0  0  0
  -22.4275   -8.0275   21.3543 C   0  0  0  0  0  0
  -21.9908   -9.0257   20.4658 C   0  0  0  0  0  0
  -22.7249  -10.2126   20.3059 C   0  0  0  0  0  0
  -21.6849   -6.0728   22.5271 C   0  0  0  0  0  0
  -21.4023   -6.5629   23.8207 C   0  0  0  0  0  0
  -21.3664   -5.6785   24.9163 C   0  0  0  0  0  0
  -21.6041   -4.3047   24.7214 C   0  0  0  0  0  0
  -21.8820   -3.8139   23.4341 C   0  0  0  0  0  0
  -21.9188   -4.6963   22.3392 C   0  0  0  0  0  0
  -22.7800  -13.5211   21.1862 C   0  0  0  0  0  0
  -22.1654   -4.2150   21.0972 F   0  0  0  0  0  0
  -21.5637   -3.4532   25.7728 F   0  0  0  0  0  0
  -29.9705  -13.6125   20.4179 N   0  0  0  0  0  0
  -26.2920  -12.9440   20.3247 N   0  0  0  0  0  0
  -25.9332  -11.6573   20.5714 N   0  0  0  0  0  0
  -22.0444  -12.8215   22.0429 N   0  0  0  0  0  0
  -25.4136  -15.1950   20.4079 N   0  0  0  0  0  0
  -31.7221  -14.9852   20.0573 O   0  0  0  0  0  0
  -21.6637   -6.8880   21.4232 O   0  0  0  0  0  0
  -22.3481  -14.5502   20.6704 O   0  0  0  0  0  0
  -24.6405  -31.8482   23.1918 C   0  0  0  0  0  0
  -25.9190  -32.4722   23.8309 C   0  0  1  0  0  0
  -27.2146  -27.1662   20.1461 C   0  0  0  0  0  0
  -25.5946  -33.8521   24.2222 N   0  0  0  0  0  0
  -23.4437  -30.4701   21.5358 C   0  0  2  0  0  0
  -24.8935  -28.9063   20.1069 C   0  0  0  0  0  0
  -22.7557  -29.4578   22.4854 C   0  0  0  0  0  0
  -18.0307  -28.1402   22.8475 C   0  0  0  0  0  0
  -24.1492  -36.7269   23.2642 C   0  0  0  0  0  0
  -25.9990  -30.7303   21.3908 C   0  0  0  0  0  0
  -26.0696  -29.3466   20.7280 C   0  0  0  0  0  0
  -27.2309  -28.4909   20.7343 C   0  0  0  0  0  0
  -26.0192  -26.8298   19.4723 C   0  0  0  0  0  0
  -24.8798  -27.6599   19.4651 C   0  0  0  0  0  0
  -23.6698  -29.8054   20.1525 C   0  0  0  0  0  0
  -25.4119  -36.3051   24.0321 C   0  0  1  0  0  0
  -20.5920  -28.3727   23.1232 C   0  0  2  0  0  0
  -20.6795  -26.9430   22.5402 C   0  0  0  0  0  0
  -19.5759  -26.6382   21.5216 C   0  0  0  0  0  0
  -18.1940  -26.7939   22.1631 C   0  0  0  0  0  0
  -19.1565  -28.8880   23.2850 C   0  0  0  0  0  0
  -18.9482  -30.1478   23.8877 C   0  0  0  0  0  0
  -17.6478  -30.6594   24.0563 C   0  0  0  0  0  0
  -25.9064  -34.9425   23.5082 C   0  0  0  0  0  0
  -16.5368  -29.9089   23.6336 C   0  0  0  0  0  0
  -16.7290  -28.6510   23.0350 C   0  0  0  0  0  0
  -26.4505  -31.6587   25.0752 C   0  0  0  0  0  0
  -25.3690  -31.3797   26.1455 C   0  0  0  0  0  0
  -27.0369  -30.2976   24.6353 C   0  0  0  0  0  0
  -27.6034  -32.4363   25.7525 C   0  0  0  0  0  0
  -27.5584  -37.1783   24.8452 C   0  0  0  0  0  0
  -21.4249  -29.3061   22.3604 N   0  0  0  0  0  0
  -26.4290  -37.3759   23.9412 N   0  0  0  0  0  0
  -24.7141  -31.0366   22.0941 N   0  0  0  0  0  0
  -23.4217  -28.8120   23.2997 O   0  0  0  0  0  0
  -28.2613  -26.1875   20.2503 O   0  0  0  0  0  0
  -26.5652  -34.8911   22.4660 O   0  0  0  0  0  0
  -23.5530  -32.1358   23.7138 O   0  0  0  0  0  0
  -29.9929  -21.3604   21.9603 C   0  0  0  0  0  0
  -29.9737  -22.6855   22.4296 C   0  0  0  0  0  0
  -29.4013  -21.0248   20.7338 C   0  0  0  0  0  0
  -28.8036  -23.4270   20.5991 C   0  0  0  0  0  0
  -30.5908  -18.6598   20.6846 C   0  0  0  0  0  0
  -28.6082  -18.4948   20.3979 C   0  0  0  0  0  0
  -29.7765  -17.4678   20.0595 C   0  0  0  0  0  0
  -30.6238  -23.0590   23.7441 C   0  0  0  0  0  0
  -27.9854  -24.6898   19.9625 C   0  0  0  0  0  0
  -29.3944  -23.6952   21.7566 N   0  0  0  0  0  0
  -28.7968  -22.1229   20.0893 N   0  0  0  0  0  0
  -29.5573  -19.6242   20.1657 N   0  0  0  0  0  0
  -29.7488  -16.0156   20.6520 N   0  0  0  0  0  0
  -31.4828  -12.6669   19.2144 H   0  0  0  0  0  0
  -30.4009  -11.5632   20.0140 H   0  0  0  0  0  0
  -29.8371  -11.7454   17.5640 H   0  0  0  0  0  0
  -29.6416  -13.4699   17.7220 H   0  0  0  0  0  0
  -27.9222  -11.2857   18.9405 H   0  0  0  0  0  0
  -27.4056  -12.5086   17.8065 H   0  0  0  0  0  0
  -27.6217  -14.2577   19.4493 H   0  0  0  0  0  0
  -28.7343  -12.2341   21.4538 H   0  0  0  0  0  0
  -28.3860  -13.9104   21.7898 H   0  0  0  0  0  0
  -25.2784   -9.5689   22.4749 H   0  0  0  0  0  0
  -23.9996   -7.4642   22.7477 H   0  0  0  0  0  0
  -21.0832   -8.8803   19.8962 H   0  0  0  0  0  0
  -22.3720  -10.9671   19.6171 H   0  0  0  0  0  0
  -21.2023   -7.6140   23.9715 H   0  0  0  0  0  0
  -21.1490   -6.0509   25.9069 H   0  0  0  0  0  0
  -22.0599   -2.7606   23.2839 H   0  0  0  0  0  0
  -22.4052  -11.9890   22.4847 H   0  0  0  0  0  0
  -21.1077  -13.1285   22.2645 H   0  0  0  0  0  0
  -24.6370  -15.8383   20.5076 H   0  0  0  0  0  0
  -26.2470  -15.6383   20.0458 H   0  0  0  0  0  0
  -26.7267  -32.5336   23.1049 H   0  0  0  0  0  0
  -25.0053  -33.9642   25.0346 H   0  0  0  0  0  0
  -22.7459  -31.2962   21.3838 H   0  0  0  0  0  0
  -23.3764  -35.9590   23.3280 H   0  0  0  0  0  0
  -24.3586  -36.8924   22.2062 H   0  0  0  0  0  0
  -23.7231  -37.6453   23.6690 H   0  0  0  0  0  0
  -26.1633  -31.4906   20.6256 H   0  0  0  0  0  0
  -26.8661  -30.7716   22.0390 H   0  0  0  0  0  0
  -28.1238  -28.8170   21.2494 H   0  0  0  0  0  0
  -25.9221  -25.8840   18.9602 H   0  0  0  0  0  0
  -23.9830  -27.3208   18.9662 H   0  0  0  0  0  0
  -23.8081  -30.5838   19.4002 H   0  0  0  0  0  0
  -22.7840  -29.2489   19.8391 H   0  0  0  0  0  0
  -25.1300  -36.1888   25.0812 H   0  0  0  0  0  0
  -21.0023  -28.3328   24.1350 H   0  0  0  0  0  0
  -20.5701  -26.2340   23.3623 H   0  0  0  0  0  0
  -21.6661  -26.7444   22.1192 H   0  0  0  0  0  0
  -19.6916  -25.6281   21.1267 H   0  0  0  0  0  0
  -19.6687  -27.3178   20.6730 H   0  0  0  0  0  0
  -17.4204  -26.6683   21.4037 H   0  0  0  0  0  0
  -18.0341  -26.0097   22.9043 H   0  0  0  0  0  0
  -19.7958  -30.7305   24.2240 H   0  0  0  0  0  0
  -17.5028  -31.6269   24.5175 H   0  0  0  0  0  0
  -15.5371  -30.2983   23.7663 H   0  0  0  0  0  0
  -15.8694  -28.0820   22.7077 H   0  0  0  0  0  0
  -24.5801  -30.7232   25.7764 H   0  0  0  0  0  0
  -24.8966  -32.3001   26.4894 H   0  0  0  0  0  0
  -25.7957  -30.8922   27.0231 H   0  0  0  0  0  0
  -26.2994  -29.6702   24.1337 H   0  0  0  0  0  0
  -27.3930  -29.7281   25.4948 H   0  0  0  0  0  0
  -27.8925  -30.4191   23.9711 H   0  0  0  0  0  0
  -27.2600  -33.3646   26.2103 H   0  0  0  0  0  0
  -28.3827  -32.6969   25.0353 H   0  0  0  0  0  0
  -28.0733  -31.8518   26.5445 H   0  0  0  0  0  0
  -28.2568  -38.0114   24.7546 H   0  0  0  0  0  0
  -28.1118  -36.2647   24.6217 H   0  0  0  0  0  0
  -27.2316  -37.1355   25.8859 H   0  0  0  0  0  0
  -20.9453  -29.8781   21.6787 H   0  0  0  0  0  0
  -26.0161  -38.2829   24.1430 H   0  0  0  0  0  0
  -30.4995  -20.6115   22.5511 H   0  0  0  0  0  0
  -31.5759  -18.7982   20.2379 H   0  0  0  0  0  0
  -30.6514  -18.6121   21.7732 H   0  0  0  0  0  0
  -28.2540  -18.4490   21.4323 H   0  0  0  0  0  0
  -27.7758  -18.4655   19.6940 H   0  0  0  0  0  0
  -29.9407  -17.4357   18.9799 H   0  0  0  0  0  0
  -31.0985  -22.1994   24.2148 H   0  0  0  0  0  0
  -29.8807  -23.4555   24.4354 H   0  0  0  0  0  0
  -31.3869  -23.8208   23.5874 H   0  0  0  0  0  0
  -26.9659  -24.4888   20.2913 H   0  0  0  0  0  0
  -27.9793  -24.5607   18.8802 H   0  0  0  0  0  0
  -28.8530  -15.7730   21.0480 H   0  0  0  0  0  0
  1 25  1  0  0  0
  1 30  2  0  0  0
  1 83  1  0  0  0
  2  3  1  0  0  0
  2 25  1  0  0  0
  2 84  1  0  0  0
  2 85  1  0  0  0
  3  4  1  0  0  0
  3 86  1  0  0  0
  3 87  1  0  0  0
  4  5  1  0  0  0
  4 88  1  0  0  0
  4 89  1  0  0  0
  5  6  1  0  0  0
  5 26  1  0  0  0
  5 90  1  0  0  0
  6 25  1  0  0  0
  6 91  1  0  0  0
  6 92  1  0  0  0
  7  8  2  0  0  0
  7 26  1  0  0  0
  7 29  1  0  0  0
  8  9  1  0  0  0
  8 22  1  0  0  0
  9 10  1  0  0  0
  9 27  2  0  0  0
 10 11  2  0  0  0
 10 15  1  0  0  0
 11 12  1  0  0  0
 11 93  1  0  0  0
 12 13  2  0  0  0
 12 94  1  0  0  0
 13 14  1  0  0  0
 13 31  1  0  0  0
 14 15  2  0  0  0
 14 95  1  0  0  0
 15 96  1  0  0  0
 16 17  2  0  0  0
 16 21  1  0  0  0
 16 31  1  0  0  0
 17 18  1  0  0  0
 17 97  1  0  0  0
 18 19  2  0  0  0
 18 98  1  0  0  0
 19 20  1  0  0  0
 19 24  1  0  0  0
 20 21  2  0  0  0
 20 99  1  0  0  0
 21 23  1  0  0  0
 22 28  1  0  0  0
 22 32  2  0  0  0
 26 27  1  0  0  0
 28100  1  0  0  0
 28101  1  0  0  0
 29102  1  0  0  0
 29103  1  0  0  0
 33 34  1  0  0  0
 33 66  1  0  0  0
 33 70  2  0  0  0
 34 36  1  0  0  0
 34 59  1  0  0  0
 34104  1  0  0  0
 35 44  2  0  0  0
 35 45  1  0  0  0
 35 68  1  0  0  0
 36 56  1  0  0  0
 36105  1  0  0  0
 37 39  1  0  0  0
 37 47  1  0  0  0
 37 66  1  0  0  0
 37106  1  0  0  0
 38 43  2  0  0  0
 38 46  1  0  0  0
 38 47  1  0  0  0
 39 64  1  0  0  0
 39 67  2  0  0  0
 40 52  1  0  0  0
 40 53  2  0  0  0
 40 58  1  0  0  0
 41107  1  0  0  0
 41108  1  0  0  0
 41109  1  0  0  0
 41 48  1  0  0  0
 42 43  1  0  0  0
 42 66  1  0  0  0
 42110  1  0  0  0
 42111  1  0  0  0
 43 44  1  0  0  0
 44112  1  0  0  0
 45 46  2  0  0  0
 45113  1  0  0  0
 46114  1  0  0  0
 47115  1  0  0  0
 47116  1  0  0  0
 48 56  1  0  0  0
 48 65  1  0  0  0
 48117  1  0  0  0
 49 50  1  0  0  0
 49 53  1  0  0  0
 49 64  1  0  0  0
 49118  1  0  0  0
 50 51  1  0  0  0
 50119  1  0  0  0
 50120  1  0  0  0
 51 52  1  0  0  0
 51121  1  0  0  0
 51122  1  0  0  0
 52123  1  0  0  0
 52124  1  0  0  0
 53 54  1  0  0  0
 54 55  2  0  0  0
 54125  1  0  0  0
 55 57  1  0  0  0
 55126  1  0  0  0
 56 69  2  0  0  0
 57 58  2  0  0  0
 57127  1  0  0  0
 58128  1  0  0  0
 59 60  1  0  0  0
 59 61  1  0  0  0
 59 62  1  0  0  0
 60129  1  0  0  0
 60130  1  0  0  0
 60131  1  0  0  0
 61132  1  0  0  0
 61133  1  0  0  0
 61134  1  0  0  0
 62135  1  0  0  0
 62136  1  0  0  0
 62137  1  0  0  0
 63 65  1  0  0  0
 63138  1  0  0  0
 63139  1  0  0  0
 63140  1  0  0  0
 64141  1  0  0  0
 65142  1  0  0  0
 68 79  1  0  0  0
 71 72  2  0  0  0
 71 73  1  0  0  0
 71143  1  0  0  0
 72 78  1  0  0  0
 72 80  1  0  0  0
 73 81  2  0  0  0
 73 82  1  0  0  0
 74 79  1  0  0  0
 74 80  2  0  0  0
 74 81  1  0  0  0
 75 77  1  0  0  0
 75 82  1  0  0  0
 75144  1  0  0  0
 75145  1  0  0  0
 76 77  1  0  0  0
 76 82  1  0  0  0
 76146  1  0  0  0
 76147  1  0  0  0
 77 83  1  0  0  0
 77148  1  0  0  0
 78149  1  0  0  0
 78150  1  0  0  0
 78151  1  0  0  0
 79152  1  0  0  0
 79153  1  0  0  0
 83154  1  0  0  0
M  ISO  4   1 100  68 101  79 101  83 100
M  END
> <chiral flag>
0

> <version>
0

> <s_m_source_file>
/data/baiqing/PycharmProjects/Reinvent-master-3.2/result/LINK_invent/BTK/process_docking_weight1_custom_sum_contain_oxygen_bond_distance_aromatic_linkinvent_7_9_3/rearranged_h_0188.sdf

> <i_m_source_file_index>
85

> <r_mmod_Potential_Energy-OPLS-2005>
-98.0020141601562

> <r_mmod_Stretch_Energy-OPLS-2005>
191.960418701172

> <r_mmod_Bend_Energy-OPLS-2005>
264.975982666016

> <r_mmod_Torsional_Energy-OPLS-2005>
247.569854736328

> <r_mmod_Improper_Torsional_Energy-OPLS-2005>
14.5729513168335

> <r_mmod_Van_der_Waal_Energy-OPLS-2005>
144.642059326172

> <r_mmod_Electrostatic_Energy-OPLS-2005>
-844.075744628906

> <r_mmod_Solvation_Energy-OPLS-2005>
-275.938140869141

> <b_mmod_Minimization_Converged-OPLS-2005>
0

> <r_mmod_RMS_Derivative-OPLS-2005>
2.21205425262451

$$$$
86
                    3D
 Structure written by MMmdl.
160169  0  0  1  0            999 V2000
  -30.6622  -14.6911   20.5159 C   0  0  0  0  0  0
  -30.4371  -12.4414   19.4526 C   0  0  0  0  0  0
  -29.5151  -12.5384   18.2202 C   0  0  0  0  0  0
  -28.0379  -12.3671   18.6274 C   0  0  0  0  0  0
  -27.6536  -13.2280   19.8620 C   0  0  2  0  0  0
  -28.7045  -13.1037   20.9872 C   0  0  0  0  0  0
  -25.2561  -13.8194   20.5665 C   0  0  0  0  0  0
  -24.1838  -13.0447   20.9204 C   0  0  0  0  0  0
  -24.6422  -11.6928   20.8724 C   0  0  0  0  0  0
  -23.9088  -10.4292   21.0368 C   0  0  0  0  0  0
  -24.3620   -9.4205   21.9156 C   0  0  0  0  0  0
  -23.6304   -8.2237   22.0753 C   0  0  0  0  0  0
  -22.4287   -8.0251   21.3549 C   0  0  0  0  0  0
  -21.9907   -9.0241   20.4660 C   0  0  0  0  0  0
  -22.7240  -10.2117   20.3039 C   0  0  0  0  0  0
  -21.6845   -6.0697   22.5274 C   0  0  0  0  0  0
  -21.3993   -6.5614   23.8218 C   0  0  0  0  0  0
  -21.3674   -5.6773   24.9178 C   0  0  0  0  0  0
  -21.6063   -4.3044   24.7226 C   0  0  0  0  0  0
  -21.8824   -3.8116   23.4343 C   0  0  0  0  0  0
  -21.9196   -4.6936   22.3404 C   0  0  0  0  0  0
  -22.7841  -13.5223   21.1868 C   0  0  0  0  0  0
  -22.1653   -4.2127   21.0968 F   0  0  0  0  0  0
  -21.5665   -3.4535   25.7731 F   0  0  0  0  0  0
  -30.0021  -13.4838   20.4149 N   0  0  0  0  0  0
  -26.3011  -12.9399   20.3325 N   0  0  0  0  0  0
  -25.9365  -11.6534   20.5738 N   0  0  0  0  0  0
  -22.0466  -12.8227   22.0412 N   0  0  0  0  0  0
  -25.4247  -15.1913   20.4023 N   0  0  0  0  0  0
  -31.8346  -14.7629   20.1322 O   0  0  0  0  0  0
  -21.6658   -6.8850   21.4233 O   0  0  0  0  0  0
  -22.3530  -14.5538   20.6727 O   0  0  0  0  0  0
  -24.6271  -31.8596   23.1980 C   0  0  0  0  0  0
  -25.9101  -32.4765   23.8355 C   0  0  1  0  0  0
  -27.2421  -27.2755   20.1393 C   0  0  0  0  0  0
  -25.5892  -33.8571   24.2277 N   0  0  0  0  0  0
  -23.4246  -30.4769   21.5430 C   0  0  2  0  0  0
  -24.8804  -28.9301   20.1093 C   0  0  0  0  0  0
  -22.7522  -29.4590   22.4953 C   0  0  0  0  0  0
  -18.0279  -28.1369   22.8485 C   0  0  0  0  0  0
  -24.1476  -36.7289   23.2644 C   0  0  0  0  0  0
  -25.9691  -30.7765   21.3776 C   0  0  0  0  0  0
  -26.0466  -29.3977   20.7276 C   0  0  0  0  0  0
  -27.2221  -28.5806   20.7392 C   0  0  0  0  0  0
  -26.0557  -26.8935   19.4625 C   0  0  0  0  0  0
  -24.8900  -27.6857   19.4680 C   0  0  0  0  0  0
  -23.6437  -29.8086   20.1594 C   0  0  0  0  0  0
  -25.4093  -36.3082   24.0343 C   0  0  1  0  0  0
  -20.5893  -28.3673   23.1284 C   0  0  2  0  0  0
  -20.6761  -26.9393   22.5421 C   0  0  0  0  0  0
  -19.5726  -26.6354   21.5232 C   0  0  0  0  0  0
  -18.1909  -26.7898   22.1642 C   0  0  0  0  0  0
  -19.1540  -28.8841   23.2863 C   0  0  0  0  0  0
  -18.9471  -30.1442   23.8869 C   0  0  0  0  0  0
  -17.6474  -30.6576   24.0546 C   0  0  0  0  0  0
  -25.9053  -34.9448   23.5121 C   0  0  0  0  0  0
  -16.5358  -29.9074   23.6320 C   0  0  0  0  0  0
  -16.7268  -28.6491   23.0346 C   0  0  0  0  0  0
  -26.4456  -31.6555   25.0728 C   0  0  0  0  0  0
  -25.3676  -31.3758   26.1456 C   0  0  0  0  0  0
  -27.0270  -30.2950   24.6194 C   0  0  0  0  0  0
  -27.6025  -32.4298   25.7491 C   0  0  0  0  0  0
  -27.5572  -37.1794   24.8467 C   0  0  0  0  0  0
  -21.4240  -29.3012   22.3695 N   0  0  0  0  0  0
  -26.4270  -37.3779   23.9428 N   0  0  0  0  0  0
  -24.6921  -31.0563   22.0950 N   0  0  0  0  0  0
  -23.4242  -28.8161   23.3061 O   0  0  0  0  0  0
  -28.3563  -26.4007   20.2471 O   0  0  0  0  0  0
  -26.5662  -34.8926   22.4719 O   0  0  0  0  0  0
  -23.5421  -32.1447   23.7244 O   0  0  0  0  0  0
  -28.8890  -17.8157   21.7392 C   0  0  0  0  0  0
  -30.3793  -23.4152   20.7203 C   0  0  0  0  0  0
  -29.3676  -16.3511   21.9350 C   0  0  0  0  0  0
  -30.1861  -17.1468   19.8883 C   0  0  0  0  0  0
  -30.5705  -21.8859   21.0282 C   0  0  0  0  0  0
  -28.4264  -22.2446   20.1186 C   0  0  0  0  0  0
  -29.8651  -18.4530   20.7466 C   0  0  1  0  0  0
  -28.8614  -23.6783   20.6428 C   0  0  2  0  0  0
  -29.3932  -19.8127   19.9886 C   0  0  0  0  0  0
  -28.2907  -24.9586   19.8217 C   0  0  0  0  0  0
  -29.9355  -15.8722   20.6639 N   0  0  0  0  0  0
  -29.3009  -21.1653   20.7267 N   0  3  1  0  0  0
  -31.4766  -12.5622   19.1430 H   0  0  0  0  0  0
  -30.3792  -11.4473   19.8977 H   0  0  0  0  0  0
  -29.7996  -11.7889   17.4812 H   0  0  0  0  0  0
  -29.6568  -13.5081   17.7391 H   0  0  0  0  0  0
  -27.8763  -11.3103   18.8424 H   0  0  0  0  0  0
  -27.3892  -12.6115   17.7852 H   0  0  0  0  0  0
  -27.6659  -14.2655   19.5293 H   0  0  0  0  0  0
  -28.7447  -12.0835   21.3690 H   0  0  0  0  0  0
  -28.4431  -13.7134   21.8441 H   0  0  0  0  0  0
  -25.2732   -9.5716   22.4766 H   0  0  0  0  0  0
  -24.0042   -7.4614   22.7441 H   0  0  0  0  0  0
  -21.0845   -8.8718   19.8961 H   0  0  0  0  0  0
  -22.3645  -10.9650   19.6164 H   0  0  0  0  0  0
  -21.1947   -7.6119   23.9716 H   0  0  0  0  0  0
  -21.1517   -6.0494   25.9101 H   0  0  0  0  0  0
  -22.0602   -2.7580   23.2848 H   0  0  0  0  0  0
  -22.3990  -11.9865   22.4828 H   0  0  0  0  0  0
  -21.1078  -13.1253   22.2589 H   0  0  0  0  0  0
  -24.6567  -15.8475   20.4940 H   0  0  0  0  0  0
  -26.2864  -15.6254   20.0954 H   0  0  0  0  0  0
  -26.7178  -32.5441   23.1120 H   0  0  0  0  0  0
  -24.9915  -33.9705   25.0327 H   0  0  0  0  0  0
  -22.7164  -31.2951   21.3974 H   0  0  0  0  0  0
  -23.3739  -35.9622   23.3283 H   0  0  0  0  0  0
  -24.3603  -36.8927   22.2072 H   0  0  0  0  0  0
  -23.7208  -37.6477   23.6676 H   0  0  0  0  0  0
  -26.1043  -31.5323   20.6025 H   0  0  0  0  0  0
  -26.8477  -30.8347   22.0083 H   0  0  0  0  0  0
  -28.1056  -28.9364   21.2511 H   0  0  0  0  0  0
  -25.9814  -25.9686   18.9155 H   0  0  0  0  0  0
  -24.0032  -27.3266   18.9625 H   0  0  0  0  0  0
  -23.7566  -30.5833   19.4008 H   0  0  0  0  0  0
  -22.7652  -29.2329   19.8591 H   0  0  0  0  0  0
  -25.1251  -36.1953   25.0833 H   0  0  0  0  0  0
  -20.9956  -28.3230   24.1418 H   0  0  0  0  0  0
  -20.5664  -26.2300   23.3640 H   0  0  0  0  0  0
  -21.6627  -26.7407   22.1220 H   0  0  0  0  0  0
  -19.6892  -25.6271   21.1242 H   0  0  0  0  0  0
  -19.6626  -27.3179   20.6775 H   0  0  0  0  0  0
  -17.4191  -26.6642   21.4034 H   0  0  0  0  0  0
  -18.0286  -26.0042   22.9042 H   0  0  0  0  0  0
  -19.7960  -30.7247   24.2222 H   0  0  0  0  0  0
  -17.5039  -31.6256   24.5148 H   0  0  0  0  0  0
  -15.5358  -30.2978   23.7642 H   0  0  0  0  0  0
  -15.8668  -28.0795   22.7072 H   0  0  0  0  0  0
  -24.5839  -30.7101   25.7809 H   0  0  0  0  0  0
  -24.8876  -32.2957   26.4818 H   0  0  0  0  0  0
  -25.7981  -30.8995   27.0271 H   0  0  0  0  0  0
  -26.2846  -29.6746   24.1155 H   0  0  0  0  0  0
  -27.3861  -29.7159   25.4709 H   0  0  0  0  0  0
  -27.8767  -30.4179   23.9475 H   0  0  0  0  0  0
  -27.2600  -33.3580   26.2077 H   0  0  0  0  0  0
  -28.3803  -32.6891   25.0298 H   0  0  0  0  0  0
  -28.0712  -31.8433   26.5395 H   0  0  0  0  0  0
  -28.2576  -38.0105   24.7524 H   0  0  0  0  0  0
  -28.1073  -36.2642   24.6242 H   0  0  0  0  0  0
  -27.2331  -37.1378   25.8882 H   0  0  0  0  0  0
  -20.9469  -29.8764   21.6899 H   0  0  0  0  0  0
  -26.0151  -38.2854   24.1438 H   0  0  0  0  0  0
  -28.8348  -18.3556   22.6856 H   0  0  0  0  0  0
  -27.8824  -17.8068   21.3176 H   0  0  0  0  0  0
  -30.8569  -23.6514   19.7693 H   0  0  0  0  0  0
  -30.8595  -24.0350   21.4786 H   0  0  0  0  0  0
  -28.5485  -15.7414   22.3049 H   0  0  0  0  0  0
  -30.1577  -16.3211   22.6875 H   0  0  0  0  0  0
  -31.2128  -17.1838   19.5190 H   0  0  0  0  0  0
  -29.5514  -17.1073   19.0024 H   0  0  0  0  0  0
  -30.7975  -21.7403   22.0855 H   0  0  0  0  0  0
  -31.4127  -21.4788   20.4663 H   0  0  0  0  0  0
  -28.5543  -22.2189   19.0354 H   0  0  0  0  0  0
  -27.3730  -22.0512   20.3221 H   0  0  0  0  0  0
  -30.7755  -18.6915   21.2970 H   0  0  0  0  0  0
  -28.4935  -23.7666   21.6662 H   0  0  0  0  0  0
  -28.4077  -19.6186   19.5653 H   0  0  0  0  0  0
  -30.0404  -19.9600   19.1225 H   0  0  0  0  0  0
  -27.2509  -24.6732   19.7281 H   0  0  0  0  0  0
  -28.7015  -24.9247   18.8121 H   0  0  0  0  0  0
  -28.8792  -20.9622   21.6192 H   0  0  0  0  0  0
  1 25  1  0  0  0
  1 30  2  0  0  0
  1 81  1  0  0  0
  2  3  1  0  0  0
  2 25  1  0  0  0
  2 83  1  0  0  0
  2 84  1  0  0  0
  3  4  1  0  0  0
  3 85  1  0  0  0
  3 86  1  0  0  0
  4  5  1  0  0  0
  4 87  1  0  0  0
  4 88  1  0  0  0
  5  6  1  0  0  0
  5 26  1  0  0  0
  5 89  1  0  0  0
  6 25  1  0  0  0
  6 90  1  0  0  0
  6 91  1  0  0  0
  7  8  2  0  0  0
  7 26  1  0  0  0
  7 29  1  0  0  0
  8  9  1  0  0  0
  8 22  1  0  0  0
  9 10  1  0  0  0
  9 27  2  0  0  0
 10 11  2  0  0  0
 10 15  1  0  0  0
 11 12  1  0  0  0
 11 92  1  0  0  0
 12 13  2  0  0  0
 12 93  1  0  0  0
 13 14  1  0  0  0
 13 31  1  0  0  0
 14 15  2  0  0  0
 14 94  1  0  0  0
 15 95  1  0  0  0
 16 17  2  0  0  0
 16 21  1  0  0  0
 16 31  1  0  0  0
 17 18  1  0  0  0
 17 96  1  0  0  0
 18 19  2  0  0  0
 18 97  1  0  0  0
 19 20  1  0  0  0
 19 24  1  0  0  0
 20 21  2  0  0  0
 20 98  1  0  0  0
 21 23  1  0  0  0
 22 28  1  0  0  0
 22 32  2  0  0  0
 26 27  1  0  0  0
 28 99  1  0  0  0
 28100  1  0  0  0
 29101  1  0  0  0
 29102  1  0  0  0
 33 34  1  0  0  0
 33 66  1  0  0  0
 33 70  2  0  0  0
 34 36  1  0  0  0
 34 59  1  0  0  0
 34103  1  0  0  0
 35 44  2  0  0  0
 35 45  1  0  0  0
 35 68  1  0  0  0
 36 56  1  0  0  0
 36104  1  0  0  0
 37 39  1  0  0  0
 37 47  1  0  0  0
 37 66  1  0  0  0
 37105  1  0  0  0
 38 43  2  0  0  0
 38 46  1  0  0  0
 38 47  1  0  0  0
 39 64  1  0  0  0
 39 67  2  0  0  0
 40 52  1  0  0  0
 40 53  2  0  0  0
 40 58  1  0  0  0
 41106  1  0  0  0
 41107  1  0  0  0
 41108  1  0  0  0
 41 48  1  0  0  0
 42 43  1  0  0  0
 42 66  1  0  0  0
 42109  1  0  0  0
 42110  1  0  0  0
 43 44  1  0  0  0
 44111  1  0  0  0
 45 46  2  0  0  0
 45112  1  0  0  0
 46113  1  0  0  0
 47114  1  0  0  0
 47115  1  0  0  0
 48 56  1  0  0  0
 48 65  1  0  0  0
 48116  1  0  0  0
 49 50  1  0  0  0
 49 53  1  0  0  0
 49 64  1  0  0  0
 49117  1  0  0  0
 50 51  1  0  0  0
 50118  1  0  0  0
 50119  1  0  0  0
 51 52  1  0  0  0
 51120  1  0  0  0
 51121  1  0  0  0
 52122  1  0  0  0
 52123  1  0  0  0
 53 54  1  0  0  0
 54 55  2  0  0  0
 54124  1  0  0  0
 55 57  1  0  0  0
 55125  1  0  0  0
 56 69  2  0  0  0
 57 58  2  0  0  0
 57126  1  0  0  0
 58127  1  0  0  0
 59 60  1  0  0  0
 59 61  1  0  0  0
 59 62  1  0  0  0
 60128  1  0  0  0
 60129  1  0  0  0
 60130  1  0  0  0
 61131  1  0  0  0
 61132  1  0  0  0
 61133  1  0  0  0
 62134  1  0  0  0
 62135  1  0  0  0
 62136  1  0  0  0
 63 65  1  0  0  0
 63137  1  0  0  0
 63138  1  0  0  0
 63139  1  0  0  0
 64140  1  0  0  0
 65141  1  0  0  0
 68 80  1  0  0  0
 71 73  1  0  0  0
 71 77  1  0  0  0
 71142  1  0  0  0
 71143  1  0  0  0
 72 75  1  0  0  0
 72 78  1  0  0  0
 72144  1  0  0  0
 72145  1  0  0  0
 73 81  1  0  0  0
 73146  1  0  0  0
 73147  1  0  0  0
 74 77  1  0  0  0
 74 81  1  0  0  0
 74148  1  0  0  0
 74149  1  0  0  0
 75 82  1  0  0  0
 75150  1  0  0  0
 75151  1  0  0  0
 76 78  1  0  0  0
 76 82  1  0  0  0
 76152  1  0  0  0
 76153  1  0  0  0
 77 79  1  0  0  0
 77154  1  0  0  0
 78 80  1  0  0  0
 78155  1  0  0  0
 79156  1  0  0  0
 79157  1  0  0  0
 79 82  1  0  0  0
 80158  1  0  0  0
 80159  1  0  0  0
 82160  1  0  0  0
M  CHG  1  82   1
M  ISO  4   1 100  68 101  80 101  81 100
M  END
> <chiral flag>
0

> <version>
0

> <s_m_source_file>
/data/baiqing/PycharmProjects/Reinvent-master-3.2/result/LINK_invent/BTK/process_docking_weight1_custom_sum_contain_oxygen_bond_distance_aromatic_linkinvent_7_9_3/rearranged_h_0188.sdf

> <i_m_source_file_index>
86

> <r_mmod_Potential_Energy-OPLS-2005>
343.678771972656

> <r_mmod_Stretch_Energy-OPLS-2005>
115.874145507812

> <r_mmod_Bend_Energy-OPLS-2005>
234.594924926758

> <r_mmod_Torsional_Energy-OPLS-2005>
387.218444824219

> <r_mmod_Improper_Torsional_Energy-OPLS-2005>
13.2845687866211

> <r_mmod_Van_der_Waal_Energy-OPLS-2005>
117.241844177246

> <r_mmod_Electrostatic_Energy-OPLS-2005>
-151.16487121582

> <r_mmod_Solvation_Energy-OPLS-2005>
-441.087280273438

> <b_mmod_Minimization_Converged-OPLS-2005>
0

> <r_mmod_RMS_Derivative-OPLS-2005>
4.05557870864868

$$$$
87
                    3D
 Structure written by MMmdl.
150158  0  0  1  0            999 V2000
  -30.4251  -15.2263   20.3784 C   0  0  0  0  0  0
  -30.4452  -12.7834   19.4980 C   0  0  0  0  0  0
  -29.5323  -12.5626   18.2655 C   0  0  0  0  0  0
  -28.0739  -12.3025   18.6871 C   0  0  0  0  0  0
  -27.6104  -13.2656   19.8096 C   0  0  2  0  0  0
  -28.6512  -13.4014   20.9386 C   0  0  0  0  0  0
  -25.2382  -13.8258   20.5679 C   0  0  0  0  0  0
  -24.1730  -13.0457   20.9271 C   0  0  0  0  0  0
  -24.6360  -11.6954   20.8735 C   0  0  0  0  0  0
  -23.9036  -10.4319   21.0368 C   0  0  0  0  0  0
  -24.3596   -9.4239   21.9139 C   0  0  0  0  0  0
  -23.6298   -8.2259   22.0730 C   0  0  0  0  0  0
  -22.4283   -8.0261   21.3522 C   0  0  0  0  0  0
  -21.9902   -9.0231   20.4621 C   0  0  0  0  0  0
  -22.7215  -10.2127   20.3018 C   0  0  0  0  0  0
  -21.6850   -6.0718   22.5272 C   0  0  0  0  0  0
  -21.4012   -6.5617   23.8206 C   0  0  0  0  0  0
  -21.3676   -5.6767   24.9163 C   0  0  0  0  0  0
  -21.6066   -4.3030   24.7224 C   0  0  0  0  0  0
  -21.8821   -3.8116   23.4339 C   0  0  0  0  0  0
  -21.9200   -4.6943   22.3393 C   0  0  0  0  0  0
  -22.7739  -13.5208   21.1928 C   0  0  0  0  0  0
  -22.1657   -4.2122   21.0978 F   0  0  0  0  0  0
  -21.5650   -3.4515   25.7733 F   0  0  0  0  0  0
  -29.8813  -13.9160   20.3144 N   0  0  0  0  0  0
  -26.2782  -12.9492   20.3103 N   0  0  0  0  0  0
  -25.9289  -11.6613   20.5662 N   0  0  0  0  0  0
  -22.0356  -12.8189   22.0468 N   0  0  0  0  0  0
  -25.4075  -15.1986   20.4078 N   0  0  0  0  0  0
  -31.6541  -15.2579   20.2256 O   0  0  0  0  0  0
  -21.6650   -6.8858   21.4228 O   0  0  0  0  0  0
  -22.3413  -14.5495   20.6757 O   0  0  0  0  0  0
  -24.6627  -31.8241   23.1700 C   0  0  0  0  0  0
  -25.9322  -32.4571   23.8163 C   0  0  1  0  0  0
  -27.2097  -26.9243   20.2082 C   0  0  0  0  0  0
  -25.5990  -33.8382   24.2064 N   0  0  0  0  0  0
  -23.4762  -30.4382   21.5174 C   0  0  2  0  0  0
  -24.9274  -28.8169   20.1217 C   0  0  0  0  0  0
  -22.7636  -29.4503   22.4764 C   0  0  0  0  0  0
  -18.0341  -28.1437   22.8481 C   0  0  0  0  0  0
  -24.1497  -36.7202   23.2645 C   0  0  0  0  0  0
  -26.0431  -30.6307   21.4012 C   0  0  0  0  0  0
  -26.1113  -29.2183   20.7535 C   0  0  0  0  0  0
  -27.2495  -28.2942   20.7681 C   0  0  0  0  0  0
  -25.9974  -26.6710   19.5322 C   0  0  0  0  0  0
  -24.8926  -27.5609   19.4938 C   0  0  0  0  0  0
  -23.7163  -29.7467   20.1472 C   0  0  0  0  0  0
  -25.4136  -36.2940   24.0289 C   0  0  1  0  0  0
  -20.5956  -28.3794   23.1172 C   0  0  2  0  0  0
  -20.6824  -26.9476   22.5399 C   0  0  0  0  0  0
  -19.5803  -26.6394   21.5223 C   0  0  0  0  0  0
  -18.1980  -26.7969   22.1625 C   0  0  0  0  0  0
  -19.1595  -28.8933   23.2821 C   0  0  0  0  0  0
  -18.9511  -30.1520   23.8855 C   0  0  0  0  0  0
  -17.6507  -30.6625   24.0569 C   0  0  0  0  0  0
  -25.9099  -34.9330   23.4993 C   0  0  0  0  0  0
  -16.5400  -29.9112   23.6360 C   0  0  0  0  0  0
  -16.7318  -28.6538   23.0365 C   0  0  0  0  0  0
  -26.4569  -31.6520   25.0694 C   0  0  0  0  0  0
  -25.3688  -31.3804   26.1348 C   0  0  0  0  0  0
  -27.0469  -30.2873   24.6457 C   0  0  0  0  0  0
  -27.6051  -32.4335   25.7518 C   0  0  0  0  0  0
  -27.5567  -37.1755   24.8464 C   0  0  0  0  0  0
  -21.4306  -29.3071   22.3483 N   0  0  0  0  0  0
  -26.4274  -37.3682   23.9397 N   0  0  0  0  0  0
  -24.7490  -30.9921   22.0825 N   0  0  0  0  0  0
  -23.4179  -28.8076   23.3020 O   0  0  0  0  0  0
  -28.2332  -25.8396   20.2023 O   0  0  0  0  0  0
  -26.5720  -34.8867   22.4584 O   0  0  0  0  0  0
  -23.5708  -32.1219   23.6803 O   0  0  0  0  0  0
  -28.4121  -18.6650   21.0839 C   0  0  0  0  0  0
  -29.7403  -18.0809   20.6669 C   0  0  2  0  0  0
  -29.0060  -19.6267   20.0909 C   0  0  2  0  0  0
  -28.4946  -24.3417   22.0900 C   0  0  0  0  0  0
  -28.7517  -22.6846   19.9970 C   0  0  0  0  0  0
  -28.0804  -24.2448   20.6161 C   0  0  2  0  0  0
  -29.6012  -16.4555   20.4210 N   0  0  0  0  0  0
  -28.8605  -21.1770   20.7138 N   0  3  0  0  0  0
  -31.4583  -13.0054   19.1595 H   0  0  0  0  0  0
  -30.5253  -11.8695   20.0916 H   0  0  0  0  0  0
  -29.9015  -11.7313   17.6635 H   0  0  0  0  0  0
  -29.5698  -13.4439   17.6224 H   0  0  0  0  0  0
  -28.0059  -11.2731   19.0395 H   0  0  0  0  0  0
  -27.4112  -12.3706   17.8227 H   0  0  0  0  0  0
  -27.5331  -14.2405   19.3257 H   0  0  0  0  0  0
  -28.8117  -12.4431   21.4359 H   0  0  0  0  0  0
  -28.3013  -14.0947   21.7052 H   0  0  0  0  0  0
  -25.2741   -9.5732   22.4704 H   0  0  0  0  0  0
  -24.0020   -7.4650   22.7447 H   0  0  0  0  0  0
  -21.0836   -8.8732   19.8923 H   0  0  0  0  0  0
  -22.3647  -10.9648   19.6117 H   0  0  0  0  0  0
  -21.1972   -7.6121   23.9697 H   0  0  0  0  0  0
  -21.1507   -6.0490   25.9068 H   0  0  0  0  0  0
  -22.0588   -2.7582   23.2844 H   0  0  0  0  0  0
  -22.3947  -11.9905   22.4974 H   0  0  0  0  0  0
  -21.0925  -13.1146   22.2569 H   0  0  0  0  0  0
  -24.6443  -15.8573   20.5235 H   0  0  0  0  0  0
  -26.2347  -15.6218   20.0107 H   0  0  0  0  0  0
  -26.7385  -32.5104   23.0882 H   0  0  0  0  0  0
  -25.0056  -33.9453   25.0157 H   0  0  0  0  0  0
  -22.7924  -31.2712   21.3418 H   0  0  0  0  0  0
  -23.3748  -35.9548   23.3297 H   0  0  0  0  0  0
  -24.3573  -36.8861   22.2062 H   0  0  0  0  0  0
  -23.7282  -37.6390   23.6719 H   0  0  0  0  0  0
  -26.2219  -31.3694   20.6204 H   0  0  0  0  0  0
  -26.9034  -30.6889   22.0558 H   0  0  0  0  0  0
  -28.1492  -28.6016   21.2807 H   0  0  0  0  0  0
  -25.8780  -25.7168   19.0383 H   0  0  0  0  0  0
  -23.9888  -27.2441   18.9906 H   0  0  0  0  0  0
  -23.8730  -30.5087   19.3829 H   0  0  0  0  0  0
  -22.8249  -29.1996   19.8347 H   0  0  0  0  0  0
  -25.1343  -36.1722   25.0784 H   0  0  0  0  0  0
  -21.0077  -28.3438   24.1289 H   0  0  0  0  0  0
  -20.5724  -26.2427   23.3647 H   0  0  0  0  0  0
  -21.6683  -26.7474   22.1199 H   0  0  0  0  0  0
  -19.6957  -25.6287   21.1304 H   0  0  0  0  0  0
  -19.6735  -27.3158   20.6714 H   0  0  0  0  0  0
  -17.4245  -26.6724   21.4028 H   0  0  0  0  0  0
  -18.0384  -26.0125   22.9038 H   0  0  0  0  0  0
  -19.7980  -30.7358   24.2182 H   0  0  0  0  0  0
  -17.5059  -31.6292   24.5184 H   0  0  0  0  0  0
  -15.5394  -30.2996   23.7705 H   0  0  0  0  0  0
  -15.8727  -28.0834   22.7091 H   0  0  0  0  0  0
  -24.5856  -30.7181   25.7656 H   0  0  0  0  0  0
  -24.8901  -32.3024   26.4654 H   0  0  0  0  0  0
  -25.7891  -30.9031   27.0208 H   0  0  0  0  0  0
  -26.3150  -29.6537   24.1437 H   0  0  0  0  0  0
  -27.3946  -29.7260   25.5142 H   0  0  0  0  0  0
  -27.9113  -30.4032   23.9920 H   0  0  0  0  0  0
  -27.2598  -33.3653   26.2018 H   0  0  0  0  0  0
  -28.3922  -32.6874   25.0406 H   0  0  0  0  0  0
  -28.0669  -31.8523   26.5513 H   0  0  0  0  0  0
  -28.2561  -38.0064   24.7472 H   0  0  0  0  0  0
  -28.1073  -36.2582   24.6330 H   0  0  0  0  0  0
  -27.2279  -37.1452   25.8864 H   0  0  0  0  0  0
  -20.9555  -29.8694   21.6557 H   0  0  0  0  0  0
  -26.0115  -38.2735   24.1382 H   0  0  0  0  0  0
  -28.3492  -18.9658   22.1283 H   0  0  0  0  0  0
  -27.5188  -18.1474   20.7380 H   0  0  0  0  0  0
  -30.6060  -18.3049   21.2917 H   0  0  0  0  0  0
  -28.5610  -19.6144   19.0979 H   0  0  0  0  0  0
  -28.2617  -23.4306   22.6387 H   0  0  0  0  0  0
  -27.9848  -25.1629   22.5953 H   0  0  0  0  0  0
  -29.5662  -24.5188   22.1729 H   0  0  0  0  0  0
  -29.7795  -22.9083   19.7192 H   0  0  0  0  0  0
  -28.2446  -22.5062   19.0496 H   0  0  0  0  0  0
  -27.0013  -24.0796   20.6234 H   0  0  0  0  0  0
  -28.6317  -16.1786   20.4320 H   0  0  0  0  0  0
  -29.5576  -21.2592   21.4358 H   0  0  0  0  0  0
  -27.9854  -21.1127   21.2112 H   0  0  0  0  0  0
  1 25  1  0  0  0
  1 30  2  0  0  0
  1 77  1  0  0  0
  2  3  1  0  0  0
  2 25  1  0  0  0
  2 79  1  0  0  0
  2 80  1  0  0  0
  3  4  1  0  0  0
  3 81  1  0  0  0
  3 82  1  0  0  0
  4  5  1  0  0  0
  4 83  1  0  0  0
  4 84  1  0  0  0
  5  6  1  0  0  0
  5 26  1  0  0  0
  5 85  1  0  0  0
  6 25  1  0  0  0
  6 86  1  0  0  0
  6 87  1  0  0  0
  7  8  2  0  0  0
  7 26  1  0  0  0
  7 29  1  0  0  0
  8  9  1  0  0  0
  8 22  1  0  0  0
  9 10  1  0  0  0
  9 27  2  0  0  0
 10 11  2  0  0  0
 10 15  1  0  0  0
 11 12  1  0  0  0
 11 88  1  0  0  0
 12 13  2  0  0  0
 12 89  1  0  0  0
 13 14  1  0  0  0
 13 31  1  0  0  0
 14 15  2  0  0  0
 14 90  1  0  0  0
 15 91  1  0  0  0
 16 17  2  0  0  0
 16 21  1  0  0  0
 16 31  1  0  0  0
 17 18  1  0  0  0
 17 92  1  0  0  0
 18 19  2  0  0  0
 18 93  1  0  0  0
 19 20  1  0  0  0
 19 24  1  0  0  0
 20 21  2  0  0  0
 20 94  1  0  0  0
 21 23  1  0  0  0
 22 28  1  0  0  0
 22 32  2  0  0  0
 26 27  1  0  0  0
 28 95  1  0  0  0
 28 96  1  0  0  0
 29 97  1  0  0  0
 29 98  1  0  0  0
 33 34  1  0  0  0
 33 66  1  0  0  0
 33 70  2  0  0  0
 34 36  1  0  0  0
 34 59  1  0  0  0
 34 99  1  0  0  0
 35 44  2  0  0  0
 35 45  1  0  0  0
 35 68  1  0  0  0
 36 56  1  0  0  0
 36100  1  0  0  0
 37 39  1  0  0  0
 37 47  1  0  0  0
 37 66  1  0  0  0
 37101  1  0  0  0
 38 43  2  0  0  0
 38 46  1  0  0  0
 38 47  1  0  0  0
 39 64  1  0  0  0
 39 67  2  0  0  0
 40 52  1  0  0  0
 40 53  2  0  0  0
 40 58  1  0  0  0
 41102  1  0  0  0
 41103  1  0  0  0
 41104  1  0  0  0
 41 48  1  0  0  0
 42 43  1  0  0  0
 42 66  1  0  0  0
 42105  1  0  0  0
 42106  1  0  0  0
 43 44  1  0  0  0
 44107  1  0  0  0
 45 46  2  0  0  0
 45108  1  0  0  0
 46109  1  0  0  0
 47110  1  0  0  0
 47111  1  0  0  0
 48 56  1  0  0  0
 48 65  1  0  0  0
 48112  1  0  0  0
 49 50  1  0  0  0
 49 53  1  0  0  0
 49 64  1  0  0  0
 49113  1  0  0  0
 50 51  1  0  0  0
 50114  1  0  0  0
 50115  1  0  0  0
 51 52  1  0  0  0
 51116  1  0  0  0
 51117  1  0  0  0
 52118  1  0  0  0
 52119  1  0  0  0
 53 54  1  0  0  0
 54 55  2  0  0  0
 54120  1  0  0  0
 55 57  1  0  0  0
 55121  1  0  0  0
 56 69  2  0  0  0
 57 58  2  0  0  0
 57122  1  0  0  0
 58123  1  0  0  0
 59 60  1  0  0  0
 59 61  1  0  0  0
 59 62  1  0  0  0
 60124  1  0  0  0
 60125  1  0  0  0
 60126  1  0  0  0
 61127  1  0  0  0
 61128  1  0  0  0
 61129  1  0  0  0
 62130  1  0  0  0
 62131  1  0  0  0
 62132  1  0  0  0
 63 65  1  0  0  0
 63133  1  0  0  0
 63134  1  0  0  0
 63135  1  0  0  0
 64136  1  0  0  0
 65137  1  0  0  0
 68 76  1  0  0  0
 71 72  1  0  0  0
 71 73  1  0  0  0
 71138  1  0  0  0
 71139  1  0  0  0
 72 73  1  0  0  0
 72 77  1  0  0  0
 72140  1  0  0  0
 73 78  1  0  0  0
 73141  1  0  0  0
 74142  1  0  0  0
 74143  1  0  0  0
 74144  1  0  0  0
 74 76  1  0  0  0
 75 76  1  0  0  0
 75 78  1  0  0  0
 75145  1  0  0  0
 75146  1  0  0  0
 76147  1  0  0  0
 77148  1  0  0  0
 78149  1  0  0  0
 78150  1  0  0  0
M  CHG  1  78   1
M  ISO  4   1 100  68 101  76 101  77 100
M  END
> <chiral flag>
0

> <version>
0

> <s_m_source_file>
/data/baiqing/PycharmProjects/Reinvent-master-3.2/result/LINK_invent/BTK/process_docking_weight1_custom_sum_contain_oxygen_bond_distance_aromatic_linkinvent_7_9_3/rearranged_h_0188.sdf

> <i_m_source_file_index>
87

> <r_mmod_Potential_Energy-OPLS-2005>
1161.88305664062

> <r_mmod_Stretch_Energy-OPLS-2005>
614.434936523438

> <r_mmod_Bend_Energy-OPLS-2005>
469.159332275391

> <r_mmod_Torsional_Energy-OPLS-2005>
296.180389404297

> <r_mmod_Improper_Torsional_Energy-OPLS-2005>
4.35306692123413

> <r_mmod_Van_der_Waal_Energy-OPLS-2005>
104.888824462891

> <r_mmod_Electrostatic_Energy-OPLS-2005>
-277.065856933594

> <r_mmod_Solvation_Energy-OPLS-2005>
-484.063507080078

> <b_mmod_Minimization_Converged-OPLS-2005>
0

> <r_mmod_RMS_Derivative-OPLS-2005>
3.77822494506836

$$$$
88
                    3D
 Structure written by MMmdl.
159168  0  0  1  0            999 V2000
  -30.6527  -14.6838   20.4552 C   0  0  0  0  0  0
  -30.4204  -12.4153   19.4625 C   0  0  0  0  0  0
  -29.5006  -12.4924   18.2265 C   0  0  0  0  0  0
  -28.0258  -12.3326   18.6417 C   0  0  0  0  0  0
  -27.6397  -13.2331   19.8470 C   0  0  2  0  0  0
  -28.6859  -13.1677   20.9795 C   0  0  0  0  0  0
  -25.2506  -13.8225   20.5714 C   0  0  0  0  0  0
  -24.1786  -13.0461   20.9187 C   0  0  0  0  0  0
  -24.6382  -11.6936   20.8733 C   0  0  0  0  0  0
  -23.9066  -10.4300   21.0398 C   0  0  0  0  0  0
  -24.3619   -9.4213   21.9179 C   0  0  0  0  0  0
  -23.6293   -8.2247   22.0750 C   0  0  0  0  0  0
  -22.4276   -8.0281   21.3541 C   0  0  0  0  0  0
  -21.9903   -9.0252   20.4641 C   0  0  0  0  0  0
  -22.7228  -10.2135   20.3052 C   0  0  0  0  0  0
  -21.6856   -6.0733   22.5278 C   0  0  0  0  0  0
  -21.4006   -6.5633   23.8210 C   0  0  0  0  0  0
  -21.3651   -5.6786   24.9171 C   0  0  0  0  0  0
  -21.6048   -4.3054   24.7219 C   0  0  0  0  0  0
  -21.8824   -3.8140   23.4343 C   0  0  0  0  0  0
  -21.9194   -4.6958   22.3401 C   0  0  0  0  0  0
  -22.7808  -13.5232   21.1857 C   0  0  0  0  0  0
  -22.1664   -4.2145   21.0978 F   0  0  0  0  0  0
  -21.5630   -3.4537   25.7730 F   0  0  0  0  0  0
  -29.9889  -13.4844   20.3880 N   0  0  0  0  0  0
  -26.2930  -12.9431   20.3288 N   0  0  0  0  0  0
  -25.9315  -11.6569   20.5758 N   0  0  0  0  0  0
  -22.0469  -12.8210   22.0420 N   0  0  0  0  0  0
  -25.4255  -15.1948   20.4176 N   0  0  0  0  0  0
  -31.8560  -14.7353   20.1773 O   0  0  0  0  0  0
  -21.6652   -6.8872   21.4239 O   0  0  0  0  0  0
  -22.3479  -14.5538   20.6716 O   0  0  0  0  0  0
  -24.6293  -31.8607   23.2003 C   0  0  0  0  0  0
  -25.9134  -32.4779   23.8336 C   0  0  1  0  0  0
  -27.2197  -27.2978   20.1057 C   0  0  0  0  0  0
  -25.5950  -33.8578   24.2268 N   0  0  0  0  0  0
  -23.4214  -30.4851   21.5457 C   0  0  2  0  0  0
  -24.8649  -28.9390   20.1096 C   0  0  0  0  0  0
  -22.7481  -29.4645   22.4955 C   0  0  0  0  0  0
  -18.0282  -28.1393   22.8497 C   0  0  0  0  0  0
  -24.1485  -36.7270   23.2632 C   0  0  0  0  0  0
  -25.9661  -30.7835   21.3745 C   0  0  0  0  0  0
  -26.0367  -29.4108   20.7125 C   0  0  0  0  0  0
  -27.2136  -28.6005   20.7038 C   0  0  0  0  0  0
  -26.0090  -26.8734   19.5081 C   0  0  0  0  0  0
  -24.8541  -27.6759   19.5026 C   0  0  0  0  0  0
  -23.6343  -29.8212   20.1615 C   0  0  0  0  0  0
  -25.4107  -36.3066   24.0332 C   0  0  1  0  0  0
  -20.5891  -28.3690   23.1302 C   0  0  2  0  0  0
  -20.6780  -26.9413   22.5423 C   0  0  0  0  0  0
  -19.5753  -26.6385   21.5230 C   0  0  0  0  0  0
  -18.1925  -26.7940   22.1626 C   0  0  0  0  0  0
  -19.1535  -28.8854   23.2899 C   0  0  0  0  0  0
  -18.9456  -30.1458   23.8916 C   0  0  0  0  0  0
  -17.6453  -30.6596   24.0566 C   0  0  0  0  0  0
  -25.9060  -34.9449   23.5090 C   0  0  0  0  0  0
  -16.5348  -29.9082   23.6355 C   0  0  0  0  0  0
  -16.7268  -28.6504   23.0371 C   0  0  0  0  0  0
  -26.4495  -31.6596   25.0722 C   0  0  0  0  0  0
  -25.3719  -31.3766   26.1449 C   0  0  0  0  0  0
  -27.0320  -30.3005   24.6204 C   0  0  0  0  0  0
  -27.6061  -32.4322   25.7487 C   0  0  0  0  0  0
  -27.5596  -37.1753   24.8443 C   0  0  0  0  0  0
  -21.4194  -29.3040   22.3689 N   0  0  0  0  0  0
  -26.4266  -37.3782   23.9448 N   0  0  0  0  0  0
  -24.6913  -31.0602   22.0962 N   0  0  0  0  0  0
  -23.4194  -28.8202   23.3057 O   0  0  0  0  0  0
  -28.3390  -26.4439   20.1763 O   0  0  0  0  0  0
  -26.5628  -34.8927   22.4657 O   0  0  0  0  0  0
  -23.5455  -32.1424   23.7318 O   0  0  0  0  0  0
  -28.0161  -22.6782   19.8723 C   0  0  0  0  0  0
  -28.7441  -23.8612   19.9208 C   0  0  0  0  0  0
  -28.8811  -21.6181   20.3303 C   0  0  0  0  0  0
  -29.0786  -18.0125   19.2579 C   0  0  0  0  0  0
  -29.3004  -18.1361   21.6661 C   0  0  0  0  0  0
  -29.9330  -16.6920   19.2599 C   0  0  0  0  0  0
  -30.1409  -16.7953   21.6466 C   0  0  0  0  0  0
  -29.4164  -19.0217   20.3896 C   0  0  0  0  0  0
  -31.1355  -24.2795   20.7168 C   0  0  0  0  0  0
  -28.4832  -25.2684   19.2834 C   0  0  0  0  0  0
  -30.0498  -22.1118   20.6985 N   0  0  0  0  0  0
  -29.9649  -23.4612   20.4614 N   0  0  0  0  0  0
  -29.9182  -15.8650   20.5029 N   0  0  0  0  0  0
  -28.5197  -20.2320   20.3732 N   0  0  0  0  0  0
  -31.4639  -12.5183   19.1592 H   0  0  0  0  0  0
  -30.3434  -11.4396   19.9447 H   0  0  0  0  0  0
  -29.7718  -11.7215   17.5038 H   0  0  0  0  0  0
  -29.6391  -13.4489   17.7200 H   0  0  0  0  0  0
  -27.8699  -11.2846   18.8990 H   0  0  0  0  0  0
  -27.3708  -12.5373   17.7942 H   0  0  0  0  0  0
  -27.6361  -14.2549   19.4672 H   0  0  0  0  0  0
  -28.7065  -12.1796   21.4408 H   0  0  0  0  0  0
  -28.4388  -13.8796   21.7695 H   0  0  0  0  0  0
  -25.2769   -9.5693   22.4751 H   0  0  0  0  0  0
  -24.0005   -7.4639   22.7464 H   0  0  0  0  0  0
  -21.0843   -8.8753   19.8944 H   0  0  0  0  0  0
  -22.3681  -10.9664   19.6159 H   0  0  0  0  0  0
  -21.1995   -7.6144   23.9708 H   0  0  0  0  0  0
  -21.1467   -6.0521   25.9072 H   0  0  0  0  0  0
  -22.0613   -2.7605   23.2853 H   0  0  0  0  0  0
  -22.4101  -11.9871   22.4794 H   0  0  0  0  0  0
  -21.1087  -13.1219   22.2645 H   0  0  0  0  0  0
  -24.6723  -15.8616   20.5448 H   0  0  0  0  0  0
  -26.3006  -15.6301   20.1526 H   0  0  0  0  0  0
  -26.7209  -32.5428   23.1085 H   0  0  0  0  0  0
  -25.0120  -33.9734   25.0428 H   0  0  0  0  0  0
  -22.7160  -31.3066   21.4028 H   0  0  0  0  0  0
  -23.3793  -35.9550   23.3197 H   0  0  0  0  0  0
  -24.3607  -36.8990   22.2068 H   0  0  0  0  0  0
  -23.7168  -37.6407   23.6723 H   0  0  0  0  0  0
  -26.1043  -31.5492   20.6095 H   0  0  0  0  0  0
  -26.8444  -30.8281   22.0070 H   0  0  0  0  0  0
  -28.1127  -28.9593   21.1839 H   0  0  0  0  0  0
  -25.8932  -25.8907   19.0803 H   0  0  0  0  0  0
  -23.9469  -27.2986   19.0503 H   0  0  0  0  0  0
  -23.7496  -30.5976   19.4046 H   0  0  0  0  0  0
  -22.7528  -29.2518   19.8616 H   0  0  0  0  0  0
  -25.1277  -36.1883   25.0819 H   0  0  0  0  0  0
  -20.9974  -28.3244   24.1427 H   0  0  0  0  0  0
  -20.5702  -26.2285   23.3617 H   0  0  0  0  0  0
  -21.6644  -26.7467   22.1188 H   0  0  0  0  0  0
  -19.6913  -25.6291   21.1264 H   0  0  0  0  0  0
  -19.6701  -27.3202   20.6765 H   0  0  0  0  0  0
  -17.4201  -26.6719   21.4013 H   0  0  0  0  0  0
  -18.0292  -26.0080   22.9006 H   0  0  0  0  0  0
  -19.7926  -30.7278   24.2295 H   0  0  0  0  0  0
  -17.5002  -31.6296   24.5127 H   0  0  0  0  0  0
  -15.5346  -30.2979   23.7699 H   0  0  0  0  0  0
  -15.8660  -28.0828   22.7098 H   0  0  0  0  0  0
  -24.5872  -30.7145   25.7771 H   0  0  0  0  0  0
  -24.8953  -32.2958   26.4875 H   0  0  0  0  0  0
  -25.8033  -30.8924   27.0225 H   0  0  0  0  0  0
  -26.2894  -29.6756   24.1232 H   0  0  0  0  0  0
  -27.3994  -29.7270   25.4726 H   0  0  0  0  0  0
  -27.8782  -30.4264   23.9445 H   0  0  0  0  0  0
  -27.2688  -33.3640   26.2041 H   0  0  0  0  0  0
  -28.3884  -32.6850   25.0314 H   0  0  0  0  0  0
  -28.0714  -31.8457   26.5421 H   0  0  0  0  0  0
  -28.2500  -38.0160   24.7644 H   0  0  0  0  0  0
  -28.1204  -36.2705   24.6048 H   0  0  0  0  0  0
  -27.2362  -37.1119   25.8848 H   0  0  0  0  0  0
  -20.9366  -29.8714   21.6868 H   0  0  0  0  0  0
  -26.0133  -38.2829   24.1551 H   0  0  0  0  0  0
  -27.0154  -22.5811   19.4761 H   0  0  0  0  0  0
  -28.0232  -17.7401   19.3126 H   0  0  0  0  0  0
  -29.2024  -18.5059   18.2930 H   0  0  0  0  0  0
  -29.5995  -18.7241   22.5360 H   0  0  0  0  0  0
  -28.2524  -17.8811   21.8317 H   0  0  0  0  0  0
  -30.9676  -16.9567   19.0300 H   0  0  0  0  0  0
  -29.5967  -16.0681   18.4290 H   0  0  0  0  0  0
  -29.9467  -16.2497   22.5712 H   0  0  0  0  0  0
  -31.2011  -17.0552   21.6686 H   0  0  0  0  0  0
  -30.4491  -19.3560   20.2754 H   0  0  0  0  0  0
  -30.8339  -25.2826   21.0211 H   0  0  0  0  0  0
  -31.7394  -24.3531   19.8126 H   0  0  0  0  0  0
  -31.7405  -23.8447   21.5128 H   0  0  0  0  0  0
  -27.7006  -25.1771   18.5363 H   0  0  0  0  0  0
  -29.3571  -25.5024   18.6745 H   0  0  0  0  0  0
  -27.5589  -20.0423   20.1052 H   0  0  0  0  0  0
  1 25  1  0  0  0
  1 30  2  0  0  0
  1 83  1  0  0  0
  2  3  1  0  0  0
  2 25  1  0  0  0
  2 85  1  0  0  0
  2 86  1  0  0  0
  3  4  1  0  0  0
  3 87  1  0  0  0
  3 88  1  0  0  0
  4  5  1  0  0  0
  4 89  1  0  0  0
  4 90  1  0  0  0
  5  6  1  0  0  0
  5 26  1  0  0  0
  5 91  1  0  0  0
  6 25  1  0  0  0
  6 92  1  0  0  0
  6 93  1  0  0  0
  7  8  2  0  0  0
  7 26  1  0  0  0
  7 29  1  0  0  0
  8  9  1  0  0  0
  8 22  1  0  0  0
  9 10  1  0  0  0
  9 27  2  0  0  0
 10 11  2  0  0  0
 10 15  1  0  0  0
 11 12  1  0  0  0
 11 94  1  0  0  0
 12 13  2  0  0  0
 12 95  1  0  0  0
 13 14  1  0  0  0
 13 31  1  0  0  0
 14 15  2  0  0  0
 14 96  1  0  0  0
 15 97  1  0  0  0
 16 17  2  0  0  0
 16 21  1  0  0  0
 16 31  1  0  0  0
 17 18  1  0  0  0
 17 98  1  0  0  0
 18 19  2  0  0  0
 18 99  1  0  0  0
 19 20  1  0  0  0
 19 24  1  0  0  0
 20 21  2  0  0  0
 20100  1  0  0  0
 21 23  1  0  0  0
 22 28  1  0  0  0
 22 32  2  0  0  0
 26 27  1  0  0  0
 28101  1  0  0  0
 28102  1  0  0  0
 29103  1  0  0  0
 29104  1  0  0  0
 33 34  1  0  0  0
 33 66  1  0  0  0
 33 70  2  0  0  0
 34 36  1  0  0  0
 34 59  1  0  0  0
 34105  1  0  0  0
 35 44  2  0  0  0
 35 45  1  0  0  0
 35 68  1  0  0  0
 36 56  1  0  0  0
 36106  1  0  0  0
 37 39  1  0  0  0
 37 47  1  0  0  0
 37 66  1  0  0  0
 37107  1  0  0  0
 38 43  2  0  0  0
 38 46  1  0  0  0
 38 47  1  0  0  0
 39 64  1  0  0  0
 39 67  2  0  0  0
 40 52  1  0  0  0
 40 53  2  0  0  0
 40 58  1  0  0  0
 41108  1  0  0  0
 41109  1  0  0  0
 41110  1  0  0  0
 41 48  1  0  0  0
 42 43  1  0  0  0
 42 66  1  0  0  0
 42111  1  0  0  0
 42112  1  0  0  0
 43 44  1  0  0  0
 44113  1  0  0  0
 45 46  2  0  0  0
 45114  1  0  0  0
 46115  1  0  0  0
 47116  1  0  0  0
 47117  1  0  0  0
 48 56  1  0  0  0
 48 65  1  0  0  0
 48118  1  0  0  0
 49 50  1  0  0  0
 49 53  1  0  0  0
 49 64  1  0  0  0
 49119  1  0  0  0
 50 51  1  0  0  0
 50120  1  0  0  0
 50121  1  0  0  0
 51 52  1  0  0  0
 51122  1  0  0  0
 51123  1  0  0  0
 52124  1  0  0  0
 52125  1  0  0  0
 53 54  1  0  0  0
 54 55  2  0  0  0
 54126  1  0  0  0
 55 57  1  0  0  0
 55127  1  0  0  0
 56 69  2  0  0  0
 57 58  2  0  0  0
 57128  1  0  0  0
 58129  1  0  0  0
 59 60  1  0  0  0
 59 61  1  0  0  0
 59 62  1  0  0  0
 60130  1  0  0  0
 60131  1  0  0  0
 60132  1  0  0  0
 61133  1  0  0  0
 61134  1  0  0  0
 61135  1  0  0  0
 62136  1  0  0  0
 62137  1  0  0  0
 62138  1  0  0  0
 63 65  1  0  0  0
 63139  1  0  0  0
 63140  1  0  0  0
 63141  1  0  0  0
 64142  1  0  0  0
 65143  1  0  0  0
 68 80  1  0  0  0
 71 72  2  0  0  0
 71 73  1  0  0  0
 71144  1  0  0  0
 72 80  1  0  0  0
 72 82  1  0  0  0
 73 81  2  0  0  0
 73 84  1  0  0  0
 74 76  1  0  0  0
 74 78  1  0  0  0
 74145  1  0  0  0
 74146  1  0  0  0
 75 77  1  0  0  0
 75 78  1  0  0  0
 75147  1  0  0  0
 75148  1  0  0  0
 76 83  1  0  0  0
 76149  1  0  0  0
 76150  1  0  0  0
 77 83  1  0  0  0
 77151  1  0  0  0
 77152  1  0  0  0
 78 84  1  0  0  0
 78153  1  0  0  0
 79 82  1  0  0  0
 79154  1  0  0  0
 79155  1  0  0  0
 79156  1  0  0  0
 80157  1  0  0  0
 80158  1  0  0  0
 81 82  1  0  0  0
 84159  1  0  0  0
M  ISO  4   1 100  68 101  80 101  83 100
M  END
> <chiral flag>
0

> <version>
0

> <s_m_source_file>
/data/baiqing/PycharmProjects/Reinvent-master-3.2/result/LINK_invent/BTK/process_docking_weight1_custom_sum_contain_oxygen_bond_distance_aromatic_linkinvent_7_9_3/rearranged_h_0188.sdf

> <i_m_source_file_index>
88

> <r_mmod_Potential_Energy-OPLS-2005>
199.296981811523

> <r_mmod_Stretch_Energy-OPLS-2005>
85.0638122558594

> <r_mmod_Bend_Energy-OPLS-2005>
186.184280395508

> <r_mmod_Torsional_Energy-OPLS-2005>
328.042907714844

> <r_mmod_Improper_Torsional_Energy-OPLS-2005>
15.5245370864868

> <r_mmod_Van_der_Waal_Energy-OPLS-2005>
121.682800292969

> <r_mmod_Electrostatic_Energy-OPLS-2005>
-381.277709960938

> <r_mmod_Solvation_Energy-OPLS-2005>
-221.77946472168

> <b_mmod_Minimization_Converged-OPLS-2005>
0

> <r_mmod_RMS_Derivative-OPLS-2005>
1.71697950363159

$$$$
89
                    3D
 Structure written by MMmdl.
167177  0  0  1  0            999 V2000
  -30.3770  -15.3086   20.4463 C   0  0  0  0  0  0
  -30.4661  -12.8533   19.5297 C   0  0  0  0  0  0
  -29.5469  -12.6173   18.2979 C   0  0  0  0  0  0
  -28.0886  -12.3254   18.7088 C   0  0  0  0  0  0
  -27.6296  -13.2553   19.8584 C   0  0  2  0  0  0
  -28.6827  -13.3094   20.9893 C   0  0  0  0  0  0
  -25.2342  -13.8069   20.5482 C   0  0  0  0  0  0
  -24.1738  -13.0336   20.9296 C   0  0  0  0  0  0
  -24.6435  -11.6861   20.8891 C   0  0  0  0  0  0
  -23.9137  -10.4226   21.0492 C   0  0  0  0  0  0
  -24.3681   -9.4121   21.9240 C   0  0  0  0  0  0
  -23.6320   -8.2176   22.0794 C   0  0  0  0  0  0
  -22.4310   -8.0252   21.3554 C   0  0  0  0  0  0
  -21.9971   -9.0245   20.4664 C   0  0  0  0  0  0
  -22.7334  -10.2103   20.3094 C   0  0  0  0  0  0
  -21.6814   -6.0734   22.5291 C   0  0  0  0  0  0
  -21.3959   -6.5631   23.8225 C   0  0  0  0  0  0
  -21.3672   -5.6793   24.9194 C   0  0  0  0  0  0
  -21.6065   -4.3061   24.7245 C   0  0  0  0  0  0
  -21.8805   -3.8156   23.4363 C   0  0  0  0  0  0
  -21.9157   -4.6963   22.3411 C   0  0  0  0  0  0
  -22.7768  -13.5171   21.1924 C   0  0  0  0  0  0
  -22.1628   -4.2161   21.0981 F   0  0  0  0  0  0
  -21.5695   -3.4544   25.7758 F   0  0  0  0  0  0
  -29.8834  -13.9524   20.4025 N   0  0  0  0  0  0
  -26.2884  -12.9375   20.3348 N   0  0  0  0  0  0
  -25.9391  -11.6524   20.5915 N   0  0  0  0  0  0
  -22.0348  -12.8193   22.0467 N   0  0  0  0  0  0
  -25.3712  -15.1663   20.3184 N   0  0  0  0  0  0
  -31.5560  -15.3655   20.0553 O   0  0  0  0  0  0
  -21.6618   -6.8887   21.4255 O   0  0  0  0  0  0
  -22.3488  -14.5478   20.6761 O   0  0  0  0  0  0
  -24.6622  -31.8282   23.1692 C   0  0  0  0  0  0
  -25.9333  -32.4586   23.8155 C   0  0  1  0  0  0
  -27.2296  -26.9371   20.2041 C   0  0  0  0  0  0
  -25.6002  -33.8384   24.2083 N   0  0  0  0  0  0
  -23.4733  -30.4339   21.5255 C   0  0  2  0  0  0
  -24.9273  -28.8163   20.1287 C   0  0  0  0  0  0
  -22.7661  -29.4435   22.4863 C   0  0  0  0  0  0
  -18.0318  -28.1416   22.8447 C   0  0  0  0  0  0
  -24.1509  -36.7177   23.2641 C   0  0  0  0  0  0
  -26.0407  -30.6383   21.3974 C   0  0  0  0  0  0
  -26.1123  -29.2238   20.7541 C   0  0  0  0  0  0
  -27.2593  -28.3095   20.7594 C   0  0  0  0  0  0
  -26.0094  -26.6732   19.5398 C   0  0  0  0  0  0
  -24.8985  -27.5589   19.5032 C   0  0  0  0  0  0
  -23.7122  -29.7433   20.1544 C   0  0  0  0  0  0
  -25.4152  -36.2932   24.0285 C   0  0  1  0  0  0
  -20.5937  -28.3725   23.1206 C   0  0  2  0  0  0
  -20.6824  -26.9420   22.5403 C   0  0  0  0  0  0
  -19.5789  -26.6388   21.5218 C   0  0  0  0  0  0
  -18.1966  -26.7938   22.1621 C   0  0  0  0  0  0
  -19.1581  -28.8902   23.2795 C   0  0  0  0  0  0
  -18.9512  -30.1510   23.8797 C   0  0  0  0  0  0
  -17.6500  -30.6592   24.0553 C   0  0  0  0  0  0
  -25.9123  -34.9330   23.5005 C   0  0  0  0  0  0
  -16.5390  -29.9061   23.6360 C   0  0  0  0  0  0
  -16.7296  -28.6504   23.0327 C   0  0  0  0  0  0
  -26.4589  -31.6524   25.0677 C   0  0  0  0  0  0
  -25.3692  -31.3772   26.1322 C   0  0  0  0  0  0
  -27.0488  -30.2893   24.6393 C   0  0  0  0  0  0
  -27.6086  -32.4338   25.7455 C   0  0  0  0  0  0
  -27.5569  -37.1740   24.8462 C   0  0  0  0  0  0
  -21.4347  -29.2994   22.3561 N   0  0  0  0  0  0
  -26.4275  -37.3690   23.9399 N   0  0  0  0  0  0
  -24.7467  -30.9963   22.0825 N   0  0  0  0  0  0
  -23.4211  -28.8032   23.3125 O   0  0  0  0  0  0
  -28.2936  -25.8992   20.1073 O   0  0  0  0  0  0
  -26.5720  -34.8850   22.4587 O   0  0  0  0  0  0
  -23.5706  -32.1276   23.6807 O   0  0  0  0  0  0
  -26.6859  -18.5914   20.1716 C   0  0  0  0  0  0
  -25.5878  -16.5591   23.1162 C   0  0  0  0  0  0
  -25.7453  -17.9627   23.6178 C   0  0  0  0  0  0
  -28.5098  -16.3294   21.7406 C   0  0  0  0  0  0
  -27.7643  -17.6325   21.9708 C   0  0  2  0  0  0
  -29.2398  -18.1551   20.2211 C   0  0  2  0  0  0
  -26.2858  -17.6008   22.2443 C   0  0  0  0  0  0
  -23.9366  -19.9697   21.2029 C   0  0  0  0  0  0
  -29.6427  -19.8349   20.7333 C   0  0  0  0  0  0
  -24.3003  -18.4997   20.9356 C   0  0  0  0  0  0
  -28.2768  -22.6071   20.4482 C   0  0  0  0  0  0
  -28.4988  -24.3823   20.7331 C   0  0  0  0  0  0
  -27.8707  -18.2331   20.6871 N   0  0  0  0  0  0
  -25.7426  -18.2511   21.0782 N   0  0  0  0  0  0
  -29.5774  -16.5578   20.7436 N   0  0  0  0  0  0
  -29.2952  -21.3379   20.0720 N   0  3  0  0  0  0
  -26.5081  -19.1363   19.0794 O   0  0  0  0  0  0
  -31.4667  -13.1117   19.1776 H   0  0  0  0  0  0
  -30.6053  -11.9265   20.0912 H   0  0  0  0  0  0
  -29.9404  -11.8085   17.6794 H   0  0  0  0  0  0
  -29.5625  -13.5152   17.6799 H   0  0  0  0  0  0
  -28.0325  -11.2849   19.0327 H   0  0  0  0  0  0
  -27.4192  -12.4086   17.8509 H   0  0  0  0  0  0
  -27.5733  -14.2527   19.4209 H   0  0  0  0  0  0
  -28.8956  -12.3005   21.3466 H   0  0  0  0  0  0
  -28.3224  -13.8008   21.8882 H   0  0  0  0  0  0
  -25.2825   -9.5560   22.4838 H   0  0  0  0  0  0
  -23.9964   -7.4581   22.7570 H   0  0  0  0  0  0
  -21.0862   -8.8806   19.9033 H   0  0  0  0  0  0
  -22.3814  -10.9659   19.6216 H   0  0  0  0  0  0
  -21.1889   -7.6132   23.9708 H   0  0  0  0  0  0
  -21.1532   -6.0539   25.9096 H   0  0  0  0  0  0
  -22.0568   -2.7622   23.2853 H   0  0  0  0  0  0
  -22.3876  -11.9837   22.4864 H   0  0  0  0  0  0
  -21.0995  -13.1295   22.2702 H   0  0  0  0  0  0
  -24.5509  -15.7607   20.3271 H   0  0  0  0  0  0
  -26.1344  -15.5533   19.7847 H   0  0  0  0  0  0
  -26.7401  -32.5171   23.0874 H   0  0  0  0  0  0
  -25.0066  -33.9452   25.0170 H   0  0  0  0  0  0
  -22.7852  -31.2639   21.3576 H   0  0  0  0  0  0
  -23.3753  -35.9519   23.3271 H   0  0  0  0  0  0
  -24.3585  -36.8884   22.2070 H   0  0  0  0  0  0
  -23.7315  -37.6362   23.6731 H   0  0  0  0  0  0
  -26.2221  -31.3798   20.6189 H   0  0  0  0  0  0
  -26.8997  -30.6987   22.0521 H   0  0  0  0  0  0
  -28.1720  -28.6421   21.2344 H   0  0  0  0  0  0
  -25.9001  -25.7234   19.0373 H   0  0  0  0  0  0
  -23.9966  -27.2388   18.9998 H   0  0  0  0  0  0
  -23.8588  -30.5080   19.3902 H   0  0  0  0  0  0
  -22.8250  -29.1890   19.8462 H   0  0  0  0  0  0
  -25.1366  -36.1683   25.0777 H   0  0  0  0  0  0
  -21.0025  -28.3346   24.1329 H   0  0  0  0  0  0
  -20.5812  -26.2331   23.3625 H   0  0  0  0  0  0
  -21.6688  -26.7471   22.1179 H   0  0  0  0  0  0
  -19.6964  -25.6295   21.1265 H   0  0  0  0  0  0
  -19.6754  -27.3184   20.6727 H   0  0  0  0  0  0
  -17.4283  -26.6683   21.3991 H   0  0  0  0  0  0
  -18.0329  -26.0097   22.9033 H   0  0  0  0  0  0
  -19.8003  -30.7358   24.2117 H   0  0  0  0  0  0
  -17.5046  -31.6262   24.5176 H   0  0  0  0  0  0
  -15.5380  -30.2922   23.7759 H   0  0  0  0  0  0
  -15.8704  -28.0814   22.7032 H   0  0  0  0  0  0
  -24.5886  -30.7137   25.7584 H   0  0  0  0  0  0
  -24.8854  -32.2982   26.4594 H   0  0  0  0  0  0
  -25.7894  -30.9032   27.0208 H   0  0  0  0  0  0
  -26.3161  -29.6556   24.1396 H   0  0  0  0  0  0
  -27.4041  -29.7278   25.5037 H   0  0  0  0  0  0
  -27.9090  -30.4081   23.9795 H   0  0  0  0  0  0
  -27.2674  -33.3705   26.1865 H   0  0  0  0  0  0
  -28.3931  -32.6814   25.0291 H   0  0  0  0  0  0
  -28.0690  -31.8599   26.5509 H   0  0  0  0  0  0
  -28.2566  -38.0048   24.7504 H   0  0  0  0  0  0
  -28.1106  -36.2591   24.6313 H   0  0  0  0  0  0
  -27.2269  -37.1397   25.8855 H   0  0  0  0  0  0
  -20.9630  -29.8600   21.6612 H   0  0  0  0  0  0
  -26.0106  -38.2734   24.1411 H   0  0  0  0  0  0
  -24.5808  -16.2303   22.8669 H   0  0  0  0  0  0
  -26.2066  -15.7989   23.5899 H   0  0  0  0  0  0
  -26.4625  -18.1298   24.4182 H   0  0  0  0  0  0
  -24.8346  -18.5542   23.6842 H   0  0  0  0  0  0
  -27.7727  -15.6693   21.3008 H   0  0  0  0  0  0
  -28.8916  -15.9024   22.6694 H   0  0  0  0  0  0
  -28.2671  -18.2341   22.7291 H   0  0  0  0  0  0
  -29.2664  -18.1272   19.1307 H   0  0  0  0  0  0
  -23.8475  -20.5269   20.2677 H   0  0  0  0  0  0
  -24.6831  -20.4705   21.8236 H   0  0  0  0  0  0
  -22.9790  -20.0309   21.7261 H   0  0  0  0  0  0
  -30.7334  -19.8298   20.7129 H   0  0  0  0  0  0
  -29.4285  -19.9452   21.7967 H   0  0  0  0  0  0
  -23.9665  -18.2078   19.9390 H   0  0  0  0  0  0
  -23.7316  -17.8692   21.6186 H   0  0  0  0  0  0
  -27.3968  -22.4955   19.8153 H   0  0  0  0  0  0
  -27.9228  -22.2724   21.4240 H   0  0  0  0  0  0
  -29.5164  -24.4452   21.1231 H   0  0  0  0  0  0
  -27.8912  -24.5126   21.6295 H   0  0  0  0  0  0
  -30.1989  -21.7854   20.1244 H   0  0  0  0  0  0
  -29.1692  -21.1711   19.0853 H   0  0  0  0  0  0
  1 25  1  0  0  0
  1 30  2  0  0  0
  1 85  1  0  0  0
  2  3  1  0  0  0
  2 25  1  0  0  0
  2 88  1  0  0  0
  2 89  1  0  0  0
  3  4  1  0  0  0
  3 90  1  0  0  0
  3 91  1  0  0  0
  4  5  1  0  0  0
  4 92  1  0  0  0
  4 93  1  0  0  0
  5  6  1  0  0  0
  5 26  1  0  0  0
  5 94  1  0  0  0
  6 25  1  0  0  0
  6 95  1  0  0  0
  6 96  1  0  0  0
  7  8  2  0  0  0
  7 26  1  0  0  0
  7 29  1  0  0  0
  8  9  1  0  0  0
  8 22  1  0  0  0
  9 10  1  0  0  0
  9 27  2  0  0  0
 10 11  2  0  0  0
 10 15  1  0  0  0
 11 12  1  0  0  0
 11 97  1  0  0  0
 12 13  2  0  0  0
 12 98  1  0  0  0
 13 14  1  0  0  0
 13 31  1  0  0  0
 14 15  2  0  0  0
 14 99  1  0  0  0
 15100  1  0  0  0
 16 17  2  0  0  0
 16 21  1  0  0  0
 16 31  1  0  0  0
 17 18  1  0  0  0
 17101  1  0  0  0
 18 19  2  0  0  0
 18102  1  0  0  0
 19 20  1  0  0  0
 19 24  1  0  0  0
 20 21  2  0  0  0
 20103  1  0  0  0
 21 23  1  0  0  0
 22 28  1  0  0  0
 22 32  2  0  0  0
 26 27  1  0  0  0
 28104  1  0  0  0
 28105  1  0  0  0
 29106  1  0  0  0
 29107  1  0  0  0
 33 34  1  0  0  0
 33 66  1  0  0  0
 33 70  2  0  0  0
 34 36  1  0  0  0
 34 59  1  0  0  0
 34108  1  0  0  0
 35 44  2  0  0  0
 35 45  1  0  0  0
 35 68  1  0  0  0
 36 56  1  0  0  0
 36109  1  0  0  0
 37 39  1  0  0  0
 37 47  1  0  0  0
 37 66  1  0  0  0
 37110  1  0  0  0
 38 43  2  0  0  0
 38 46  1  0  0  0
 38 47  1  0  0  0
 39 64  1  0  0  0
 39 67  2  0  0  0
 40 52  1  0  0  0
 40 53  2  0  0  0
 40 58  1  0  0  0
 41111  1  0  0  0
 41112  1  0  0  0
 41113  1  0  0  0
 41 48  1  0  0  0
 42 43  1  0  0  0
 42 66  1  0  0  0
 42114  1  0  0  0
 42115  1  0  0  0
 43 44  1  0  0  0
 44116  1  0  0  0
 45 46  2  0  0  0
 45117  1  0  0  0
 46118  1  0  0  0
 47119  1  0  0  0
 47120  1  0  0  0
 48 56  1  0  0  0
 48 65  1  0  0  0
 48121  1  0  0  0
 49 50  1  0  0  0
 49 53  1  0  0  0
 49 64  1  0  0  0
 49122  1  0  0  0
 50 51  1  0  0  0
 50123  1  0  0  0
 50124  1  0  0  0
 51 52  1  0  0  0
 51125  1  0  0  0
 51126  1  0  0  0
 52127  1  0  0  0
 52128  1  0  0  0
 53 54  1  0  0  0
 54 55  2  0  0  0
 54129  1  0  0  0
 55 57  1  0  0  0
 55130  1  0  0  0
 56 69  2  0  0  0
 57 58  2  0  0  0
 57131  1  0  0  0
 58132  1  0  0  0
 59 60  1  0  0  0
 59 61  1  0  0  0
 59 62  1  0  0  0
 60133  1  0  0  0
 60134  1  0  0  0
 60135  1  0  0  0
 61136  1  0  0  0
 61137  1  0  0  0
 61138  1  0  0  0
 62139  1  0  0  0
 62140  1  0  0  0
 62141  1  0  0  0
 63 65  1  0  0  0
 63142  1  0  0  0
 63143  1  0  0  0
 63144  1  0  0  0
 64145  1  0  0  0
 65146  1  0  0  0
 68 82  1  0  0  0
 71 83  1  0  0  0
 71 84  1  0  0  0
 71 87  2  0  0  0
 72 73  1  0  0  0
 72147  1  0  0  0
 72148  1  0  0  0
 72 77  1  0  0  0
 73 77  1  0  0  0
 73149  1  0  0  0
 73150  1  0  0  0
 74 85  1  0  0  0
 74151  1  0  0  0
 74152  1  0  0  0
 74 75  1  0  0  0
 75 77  1  0  0  0
 75 83  1  0  0  0
 75153  1  0  0  0
 76 79  1  0  0  0
 76 83  1  0  0  0
 76 85  1  0  0  0
 76154  1  0  0  0
 77 84  1  0  0  0
 78 80  1  0  0  0
 78155  1  0  0  0
 78156  1  0  0  0
 78157  1  0  0  0
 79 86  1  0  0  0
 79158  1  0  0  0
 79159  1  0  0  0
 80 84  1  0  0  0
 80160  1  0  0  0
 80161  1  0  0  0
 81 82  1  0  0  0
 81 86  1  0  0  0
 81162  1  0  0  0
 81163  1  0  0  0
 82164  1  0  0  0
 82165  1  0  0  0
 86166  1  0  0  0
 86167  1  0  0  0
M  CHG  1  86   1
M  ISO  4   1 100  68 101  82 101  85 100
M  END
> <chiral flag>
0

> <version>
0

> <s_m_source_file>
/data/baiqing/PycharmProjects/Reinvent-master-3.2/result/LINK_invent/BTK/process_docking_weight1_custom_sum_contain_oxygen_bond_distance_aromatic_linkinvent_7_9_3/rearranged_h_0188.sdf

> <i_m_source_file_index>
89

> <r_mmod_Potential_Energy-OPLS-2005>
1944.08190917969

> <r_mmod_Stretch_Energy-OPLS-2005>
668.677673339844

> <r_mmod_Bend_Energy-OPLS-2005>
742.45068359375

> <r_mmod_Torsional_Energy-OPLS-2005>
615.176147460938

> <r_mmod_Improper_Torsional_Energy-OPLS-2005>
6.22268152236938

> <r_mmod_Van_der_Waal_Energy-OPLS-2005>
100.78426361084

> <r_mmod_Electrostatic_Energy-OPLS-2005>
-187.953018188477

> <r_mmod_Solvation_Energy-OPLS-2005>
-451.853088378906

> <b_mmod_Minimization_Converged-OPLS-2005>
0

> <r_mmod_RMS_Derivative-OPLS-2005>
4.25676965713501

$$$$
90
                    3D
 Structure written by MMmdl.
154163  0  0  1  0            999 V2000
  -30.5922  -14.7990   20.3920 C   0  0  0  0  0  0
  -30.4458  -12.4736   19.4693 C   0  0  0  0  0  0
  -29.5167  -12.4604   18.2347 C   0  0  0  0  0  0
  -28.0386  -12.3095   18.6531 C   0  0  0  0  0  0
  -27.6377  -13.2252   19.8415 C   0  0  2  0  0  0
  -28.6939  -13.2060   20.9677 C   0  0  0  0  0  0
  -25.2490  -13.8126   20.5759 C   0  0  0  0  0  0
  -24.1775  -13.0382   20.9218 C   0  0  0  0  0  0
  -24.6381  -11.6872   20.8750 C   0  0  0  0  0  0
  -23.9060  -10.4262   21.0401 C   0  0  0  0  0  0
  -24.3614   -9.4186   21.9181 C   0  0  0  0  0  0
  -23.6288   -8.2225   22.0749 C   0  0  0  0  0  0
  -22.4273   -8.0268   21.3537 C   0  0  0  0  0  0
  -21.9905   -9.0238   20.4640 C   0  0  0  0  0  0
  -22.7236  -10.2112   20.3049 C   0  0  0  0  0  0
  -21.6850   -6.0729   22.5279 C   0  0  0  0  0  0
  -21.4008   -6.5633   23.8211 C   0  0  0  0  0  0
  -21.3659   -5.6789   24.9172 C   0  0  0  0  0  0
  -21.6043   -4.3052   24.7224 C   0  0  0  0  0  0
  -21.8821   -3.8143   23.4346 C   0  0  0  0  0  0
  -21.9190   -4.6960   22.3401 C   0  0  0  0  0  0
  -22.7801  -13.5182   21.1873 C   0  0  0  0  0  0
  -22.1661   -4.2143   21.0980 F   0  0  0  0  0  0
  -21.5632   -3.4537   25.7738 F   0  0  0  0  0  0
  -29.9823  -13.5610   20.3591 N   0  0  0  0  0  0
  -26.2931  -12.9347   20.3306 N   0  0  0  0  0  0
  -25.9316  -11.6495   20.5765 N   0  0  0  0  0  0
  -22.0441  -12.8183   22.0431 N   0  0  0  0  0  0
  -25.4121  -15.1843   20.4295 N   0  0  0  0  0  0
  -31.8139  -14.8811   20.2382 O   0  0  0  0  0  0
  -21.6634   -6.8871   21.4241 O   0  0  0  0  0  0
  -22.3495  -14.5492   20.6722 O   0  0  0  0  0  0
  -24.6336  -31.8540   23.1965 C   0  0  0  0  0  0
  -25.9148  -32.4749   23.8320 C   0  0  1  0  0  0
  -27.2222  -27.2392   20.1296 C   0  0  0  0  0  0
  -25.5932  -33.8552   24.2240 N   0  0  0  0  0  0
  -23.4317  -30.4760   21.5415 C   0  0  2  0  0  0
  -24.8799  -28.9226   20.1103 C   0  0  0  0  0  0
  -22.7519  -29.4594   22.4910 C   0  0  0  0  0  0
  -18.0292  -28.1395   22.8486 C   0  0  0  0  0  0
  -24.1489  -36.7281   23.2642 C   0  0  0  0  0  0
  -25.9802  -30.7601   21.3801 C   0  0  0  0  0  0
  -26.0540  -29.3811   20.7212 C   0  0  0  0  0  0
  -27.2268  -28.5531   20.7191 C   0  0  0  0  0  0
  -26.0216  -26.8615   19.4819 C   0  0  0  0  0  0
  -24.8705  -27.6715   19.4791 C   0  0  0  0  0  0
  -23.6511  -29.8107   20.1582 C   0  0  0  0  0  0
  -25.4117  -36.3067   24.0324 C   0  0  1  0  0  0
  -20.5901  -28.3705   23.1269 C   0  0  2  0  0  0
  -20.6779  -26.9419   22.5415 C   0  0  0  0  0  0
  -19.5751  -26.6385   21.5221 C   0  0  0  0  0  0
  -18.1932  -26.7935   22.1631 C   0  0  0  0  0  0
  -19.1549  -28.8867   23.2870 C   0  0  0  0  0  0
  -18.9468  -30.1468   23.8887 C   0  0  0  0  0  0
  -17.6467  -30.6593   24.0561 C   0  0  0  0  0  0
  -25.9063  -34.9438   23.5088 C   0  0  0  0  0  0
  -16.5357  -29.9091   23.6334 C   0  0  0  0  0  0
  -16.7279  -28.6512   23.0354 C   0  0  0  0  0  0
  -26.4499  -31.6582   25.0720 C   0  0  0  0  0  0
  -25.3706  -31.3752   26.1432 C   0  0  0  0  0  0
  -27.0341  -30.2988   24.6226 C   0  0  0  0  0  0
  -27.6048  -32.4325   25.7495 C   0  0  0  0  0  0
  -27.5580  -37.1796   24.8463 C   0  0  0  0  0  0
  -21.4225  -29.3041   22.3655 N   0  0  0  0  0  0
  -26.4289  -37.3770   23.9412 N   0  0  0  0  0  0
  -24.7012  -31.0481   22.0956 N   0  0  0  0  0  0
  -23.4205  -28.8136   23.3021 O   0  0  0  0  0  0
  -28.3018  -26.3152   20.2042 O   0  0  0  0  0  0
  -26.5645  -34.8920   22.4664 O   0  0  0  0  0  0
  -23.5479  -32.1372   23.7242 O   0  0  0  0  0  0
  -30.8479  -21.6820   20.9386 C   0  0  0  0  0  0
  -31.1362  -23.0525   21.0612 C   0  0  0  0  0  0
  -29.5731  -21.3153   20.5121 C   0  0  0  0  0  0
  -29.0334  -23.6588   20.3648 C   0  0  0  0  0  0
  -28.3429  -17.1142   19.3057 C   0  0  0  0  0  0
  -29.4410  -16.2572   18.6841 C   0  0  0  0  0  0
  -29.2495  -17.2679   20.5266 C   0  0  2  0  0  0
  -28.0040  -24.8375   20.0148 C   0  0  0  0  0  0
  -30.0601  -18.6695   20.5124 C   0  0  0  0  0  0
  -30.2427  -24.0253   20.7774 N   0  0  0  0  0  0
  -28.6798  -22.3329   20.2308 N   0  0  0  0  0  0
  -29.7924  -15.8949   20.0550 N   0  0  0  0  0  0
  -29.1967  -19.9240   20.3889 N   0  0  0  0  0  0
  -31.4823  -12.6153   19.1573 H   0  0  0  0  0  0
  -30.4150  -11.5161   19.9909 H   0  0  0  0  0  0
  -29.7961  -11.6423   17.5693 H   0  0  0  0  0  0
  -29.6546  -13.3710   17.6538 H   0  0  0  0  0  0
  -27.8891  -11.2660   18.9310 H   0  0  0  0  0  0
  -27.3831  -12.4892   17.7997 H   0  0  0  0  0  0
  -27.6075  -14.2333   19.4378 H   0  0  0  0  0  0
  -28.7462  -12.2266   21.4453 H   0  0  0  0  0  0
  -28.4334  -13.9226   21.7488 H   0  0  0  0  0  0
  -25.2752   -9.5670   22.4758 H   0  0  0  0  0  0
  -23.9995   -7.4620   22.7471 H   0  0  0  0  0  0
  -21.0831   -8.8768   19.8954 H   0  0  0  0  0  0
  -22.3698  -10.9656   19.6164 H   0  0  0  0  0  0
  -21.2004   -7.6142   23.9710 H   0  0  0  0  0  0
  -21.1479   -6.0519   25.9074 H   0  0  0  0  0  0
  -22.0604   -2.7606   23.2845 H   0  0  0  0  0  0
  -22.4059  -11.9849   22.4824 H   0  0  0  0  0  0
  -21.1055  -13.1211   22.2633 H   0  0  0  0  0  0
  -24.6510  -15.8414   20.5618 H   0  0  0  0  0  0
  -26.2823  -15.6279   20.1696 H   0  0  0  0  0  0
  -26.7217  -32.5390   23.1064 H   0  0  0  0  0  0
  -25.0043  -33.9682   25.0359 H   0  0  0  0  0  0
  -22.7291  -31.2990   21.3952 H   0  0  0  0  0  0
  -23.3755  -35.9609   23.3297 H   0  0  0  0  0  0
  -24.3579  -36.8914   22.2058 H   0  0  0  0  0  0
  -23.7236  -37.6477   23.6673 H   0  0  0  0  0  0
  -26.1212  -31.5195   20.6096 H   0  0  0  0  0  0
  -26.8569  -30.8100   22.0142 H   0  0  0  0  0  0
  -28.1216  -28.8984   21.2182 H   0  0  0  0  0  0
  -25.9291  -25.9096   18.9819 H   0  0  0  0  0  0
  -23.9727  -27.3152   18.9926 H   0  0  0  0  0  0
  -23.7770  -30.5872   19.4030 H   0  0  0  0  0  0
  -22.7686  -29.2459   19.8523 H   0  0  0  0  0  0
  -25.1300  -36.1910   25.0815 H   0  0  0  0  0  0
  -20.9989  -28.3281   24.1390 H   0  0  0  0  0  0
  -20.5682  -26.2313   23.3623 H   0  0  0  0  0  0
  -21.6645  -26.7439   22.1206 H   0  0  0  0  0  0
  -19.6910  -25.6292   21.1256 H   0  0  0  0  0  0
  -19.6687  -27.3191   20.6748 H   0  0  0  0  0  0
  -17.4202  -26.6683   21.4034 H   0  0  0  0  0  0
  -18.0327  -26.0082   22.9034 H   0  0  0  0  0  0
  -19.7946  -30.7288   24.2244 H   0  0  0  0  0  0
  -17.5024  -31.6270   24.5169 H   0  0  0  0  0  0
  -15.5358  -30.2988   23.7667 H   0  0  0  0  0  0
  -15.8682  -28.0829   22.7068 H   0  0  0  0  0  0
  -24.5868  -30.7120   25.7756 H   0  0  0  0  0  0
  -24.8912  -32.2931   26.4842 H   0  0  0  0  0  0
  -25.8002  -30.8928   27.0219 H   0  0  0  0  0  0
  -26.2928  -29.6738   24.1231 H   0  0  0  0  0  0
  -27.3985  -29.7254   25.4761 H   0  0  0  0  0  0
  -27.8826  -30.4249   23.9497 H   0  0  0  0  0  0
  -27.2651  -33.3631   26.2054 H   0  0  0  0  0  0
  -28.3864  -32.6877   25.0326 H   0  0  0  0  0  0
  -28.0707  -31.8461   26.5424 H   0  0  0  0  0  0
  -28.2593  -38.0098   24.7515 H   0  0  0  0  0  0
  -28.1079  -36.2629   24.6278 H   0  0  0  0  0  0
  -27.2302  -37.1431   25.8868 H   0  0  0  0  0  0
  -20.9420  -29.8754   21.6848 H   0  0  0  0  0  0
  -26.0165  -38.2843   24.1416 H   0  0  0  0  0  0
  -31.6038  -20.9506   21.1840 H   0  0  0  0  0  0
  -32.1097  -23.3778   21.3971 H   0  0  0  0  0  0
  -27.4263  -16.5680   19.5087 H   0  0  0  0  0  0
  -28.1322  -18.0273   18.7492 H   0  0  0  0  0  0
  -30.2156  -16.8238   18.1639 H   0  0  0  0  0  0
  -29.0518  -15.4546   18.0597 H   0  0  0  0  0  0
  -28.6595  -17.1677   21.4393 H   0  0  0  0  0  0
  -27.0986  -24.6050   20.5772 H   0  0  0  0  0  0
  -27.7582  -24.6909   18.9627 H   0  0  0  0  0  0
  -30.7665  -18.6834   19.6809 H   0  0  0  0  0  0
  -30.6681  -18.7517   21.4145 H   0  0  0  0  0  0
  -28.2418  -19.7631   20.0905 H   0  0  0  0  0  0
  1 25  1  0  0  0
  1 30  2  0  0  0
  1 82  1  0  0  0
  2  3  1  0  0  0
  2 25  1  0  0  0
  2 84  1  0  0  0
  2 85  1  0  0  0
  3  4  1  0  0  0
  3 86  1  0  0  0
  3 87  1  0  0  0
  4  5  1  0  0  0
  4 88  1  0  0  0
  4 89  1  0  0  0
  5  6  1  0  0  0
  5 26  1  0  0  0
  5 90  1  0  0  0
  6 25  1  0  0  0
  6 91  1  0  0  0
  6 92  1  0  0  0
  7  8  2  0  0  0
  7 26  1  0  0  0
  7 29  1  0  0  0
  8  9  1  0  0  0
  8 22  1  0  0  0
  9 10  1  0  0  0
  9 27  2  0  0  0
 10 11  2  0  0  0
 10 15  1  0  0  0
 11 12  1  0  0  0
 11 93  1  0  0  0
 12 13  2  0  0  0
 12 94  1  0  0  0
 13 14  1  0  0  0
 13 31  1  0  0  0
 14 15  2  0  0  0
 14 95  1  0  0  0
 15 96  1  0  0  0
 16 17  2  0  0  0
 16 21  1  0  0  0
 16 31  1  0  0  0
 17 18  1  0  0  0
 17 97  1  0  0  0
 18 19  2  0  0  0
 18 98  1  0  0  0
 19 20  1  0  0  0
 19 24  1  0  0  0
 20 21  2  0  0  0
 20 99  1  0  0  0
 21 23  1  0  0  0
 22 28  1  0  0  0
 22 32  2  0  0  0
 26 27  1  0  0  0
 28100  1  0  0  0
 28101  1  0  0  0
 29102  1  0  0  0
 29103  1  0  0  0
 33 34  1  0  0  0
 33 66  1  0  0  0
 33 70  2  0  0  0
 34 36  1  0  0  0
 34 59  1  0  0  0
 34104  1  0  0  0
 35 44  2  0  0  0
 35 45  1  0  0  0
 35 68  1  0  0  0
 36 56  1  0  0  0
 36105  1  0  0  0
 37 39  1  0  0  0
 37 47  1  0  0  0
 37 66  1  0  0  0
 37106  1  0  0  0
 38 43  2  0  0  0
 38 46  1  0  0  0
 38 47  1  0  0  0
 39 64  1  0  0  0
 39 67  2  0  0  0
 40 52  1  0  0  0
 40 53  2  0  0  0
 40 58  1  0  0  0
 41107  1  0  0  0
 41108  1  0  0  0
 41109  1  0  0  0
 41 48  1  0  0  0
 42 43  1  0  0  0
 42 66  1  0  0  0
 42110  1  0  0  0
 42111  1  0  0  0
 43 44  1  0  0  0
 44112  1  0  0  0
 45 46  2  0  0  0
 45113  1  0  0  0
 46114  1  0  0  0
 47115  1  0  0  0
 47116  1  0  0  0
 48 56  1  0  0  0
 48 65  1  0  0  0
 48117  1  0  0  0
 49 50  1  0  0  0
 49 53  1  0  0  0
 49 64  1  0  0  0
 49118  1  0  0  0
 50 51  1  0  0  0
 50119  1  0  0  0
 50120  1  0  0  0
 51 52  1  0  0  0
 51121  1  0  0  0
 51122  1  0  0  0
 52123  1  0  0  0
 52124  1  0  0  0
 53 54  1  0  0  0
 54 55  2  0  0  0
 54125  1  0  0  0
 55 57  1  0  0  0
 55126  1  0  0  0
 56 69  2  0  0  0
 57 58  2  0  0  0
 57127  1  0  0  0
 58128  1  0  0  0
 59 60  1  0  0  0
 59 61  1  0  0  0
 59 62  1  0  0  0
 60129  1  0  0  0
 60130  1  0  0  0
 60131  1  0  0  0
 61132  1  0  0  0
 61133  1  0  0  0
 61134  1  0  0  0
 62135  1  0  0  0
 62136  1  0  0  0
 62137  1  0  0  0
 63 65  1  0  0  0
 63138  1  0  0  0
 63139  1  0  0  0
 63140  1  0  0  0
 64141  1  0  0  0
 65142  1  0  0  0
 68 78  1  0  0  0
 71 72  2  0  0  0
 71 73  1  0  0  0
 71143  1  0  0  0
 72 80  1  0  0  0
 72144  1  0  0  0
 73 81  2  0  0  0
 73 83  1  0  0  0
 74 78  1  0  0  0
 74 80  2  0  0  0
 74 81  1  0  0  0
 75 76  1  0  0  0
 75 77  1  0  0  0
 75145  1  0  0  0
 75146  1  0  0  0
 76 82  1  0  0  0
 76147  1  0  0  0
 76148  1  0  0  0
 77 79  1  0  0  0
 77 82  1  0  0  0
 77149  1  0  0  0
 78150  1  0  0  0
 78151  1  0  0  0
 79 83  1  0  0  0
 79152  1  0  0  0
 79153  1  0  0  0
 83154  1  0  0  0
M  ISO  4   1 100  68 101  78 101  82 100
M  END
> <chiral flag>
0

> <version>
0

> <s_m_source_file>
/data/baiqing/PycharmProjects/Reinvent-master-3.2/result/LINK_invent/BTK/process_docking_weight1_custom_sum_contain_oxygen_bond_distance_aromatic_linkinvent_7_9_3/rearranged_h_0188.sdf

> <i_m_source_file_index>
90

> <r_mmod_Potential_Energy-OPLS-2005>
-140.540176391602

> <r_mmod_Stretch_Energy-OPLS-2005>
134.129333496094

> <r_mmod_Bend_Energy-OPLS-2005>
229.313812255859

> <r_mmod_Torsional_Energy-OPLS-2005>
311.171051025391

> <r_mmod_Improper_Torsional_Energy-OPLS-2005>
18.68239402771

> <r_mmod_Van_der_Waal_Energy-OPLS-2005>
141.97492980957

> <r_mmod_Electrostatic_Energy-OPLS-2005>
-850.749694824219

> <r_mmod_Solvation_Energy-OPLS-2005>
-238.394287109375

> <b_mmod_Minimization_Converged-OPLS-2005>
0

> <r_mmod_RMS_Derivative-OPLS-2005>
0.877733767032623

$$$$
91
                    3D
 Structure written by MMmdl.
162172  0  0  1  0            999 V2000
  -30.7843  -14.3343   20.7046 C   0  0  0  0  0  0
  -30.4117  -12.2877   19.3792 C   0  0  0  0  0  0
  -29.4740  -12.5333   18.1834 C   0  0  0  0  0  0
  -28.0019  -12.3848   18.6060 C   0  0  0  0  0  0
  -27.6661  -13.2018   19.8805 C   0  0  2  0  0  0
  -28.7046  -12.9334   20.9920 C   0  0  0  0  0  0
  -25.2600  -13.8150   20.5680 C   0  0  0  0  0  0
  -24.1842  -13.0436   20.9174 C   0  0  0  0  0  0
  -24.6389  -11.6903   20.8731 C   0  0  0  0  0  0
  -23.9053  -10.4289   21.0400 C   0  0  0  0  0  0
  -24.3607   -9.4208   21.9178 C   0  0  0  0  0  0
  -23.6290   -8.2243   22.0748 C   0  0  0  0  0  0
  -22.4270   -8.0278   21.3545 C   0  0  0  0  0  0
  -21.9902   -9.0251   20.4648 C   0  0  0  0  0  0
  -22.7224  -10.2133   20.3056 C   0  0  0  0  0  0
  -21.6855   -6.0734   22.5281 C   0  0  0  0  0  0
  -21.4015   -6.5641   23.8213 C   0  0  0  0  0  0
  -21.3654   -5.6794   24.9173 C   0  0  0  0  0  0
  -21.6043   -4.3055   24.7228 C   0  0  0  0  0  0
  -21.8820   -3.8146   23.4348 C   0  0  0  0  0  0
  -21.9195   -4.6963   22.3403 C   0  0  0  0  0  0
  -22.7872  -13.5245   21.1843 C   0  0  0  0  0  0
  -22.1663   -4.2148   21.0982 F   0  0  0  0  0  0
  -21.5627   -3.4539   25.7738 F   0  0  0  0  0  0
  -30.0500  -13.2199   20.4570 N   0  0  0  0  0  0
  -26.3044  -12.9319   20.3390 N   0  0  0  0  0  0
  -25.9316  -11.6477   20.5767 N   0  0  0  0  0  0
  -22.0510  -12.8239   22.0398 N   0  0  0  0  0  0
  -25.4360  -15.1859   20.4089 N   0  0  0  0  0  0
  -31.7761  -14.6573   20.0442 O   0  0  0  0  0  0
  -21.6637   -6.8870   21.4241 O   0  0  0  0  0  0
  -22.3566  -14.5560   20.6697 O   0  0  0  0  0  0
  -24.6092  -31.8698   23.2126 C   0  0  0  0  0  0
  -25.8989  -32.4842   23.8412 C   0  0  1  0  0  0
  -27.2354  -27.4753   20.0872 C   0  0  0  0  0  0
  -25.5880  -33.8644   24.2360 N   0  0  0  0  0  0
  -23.3952  -30.4919   21.5535 C   0  0  2  0  0  0
  -24.8419  -28.9572   20.1200 C   0  0  0  0  0  0
  -22.7376  -29.4658   22.5036 C   0  0  0  0  0  0
  -18.0274  -28.1370   22.8511 C   0  0  0  0  0  0
  -24.1477  -36.7329   23.2631 C   0  0  0  0  0  0
  -25.9165  -30.8482   21.3551 C   0  0  0  0  0  0
  -25.9973  -29.4793   20.7173 C   0  0  0  0  0  0
  -27.1980  -28.7426   20.7065 C   0  0  0  0  0  0
  -26.0722  -26.9572   19.4865 C   0  0  0  0  0  0
  -24.8699  -27.6910   19.5073 C   0  0  0  0  0  0
  -23.6004  -29.8187   20.1699 C   0  0  0  0  0  0
  -25.4100  -36.3142   24.0340 C   0  0  1  0  0  0
  -20.5853  -28.3633   23.1353 C   0  0  2  0  0  0
  -20.6758  -26.9385   22.5436 C   0  0  0  0  0  0
  -19.5736  -26.6409   21.5210 C   0  0  0  0  0  0
  -18.1916  -26.7925   22.1621 C   0  0  0  0  0  0
  -19.1512  -28.8824   23.2923 C   0  0  0  0  0  0
  -18.9439  -30.1437   23.8925 C   0  0  0  0  0  0
  -17.6434  -30.6574   24.0578 C   0  0  0  0  0  0
  -25.9025  -34.9498   23.5147 C   0  0  0  0  0  0
  -16.5337  -29.9074   23.6325 C   0  0  0  0  0  0
  -16.7252  -28.6493   23.0343 C   0  0  0  0  0  0
  -26.4439  -31.6589   25.0710 C   0  0  0  0  0  0
  -25.3717  -31.3676   26.1465 C   0  0  0  0  0  0
  -27.0236  -30.3051   24.6011 C   0  0  0  0  0  0
  -27.6069  -32.4251   25.7441 C   0  0  0  0  0  0
  -27.5577  -37.1810   24.8463 C   0  0  0  0  0  0
  -21.4115  -29.3008   22.3771 N   0  0  0  0  0  0
  -26.4292  -37.3823   23.9412 N   0  0  0  0  0  0
  -24.6597  -31.0825   22.1016 N   0  0  0  0  0  0
  -23.4180  -28.8209   23.3064 O   0  0  0  0  0  0
  -28.4007  -26.7640   20.0043 O   0  0  0  0  0  0
  -26.5585  -34.8935   22.4711 O   0  0  0  0  0  0
  -23.5304  -32.1441   23.7556 O   0  0  0  0  0  0
  -28.3306  -22.8434   22.6651 C   0  0  0  0  0  0
  -28.2610  -22.6667   20.3041 C   0  0  0  0  0  0
  -29.9848  -17.3424   24.3586 C   0  0  0  0  0  0
  -28.2419  -21.9858   21.5429 C   0  0  0  0  0  0
  -30.2070  -17.1468   23.0149 C   0  0  0  0  0  0
  -28.7277  -18.7954   23.2645 C   0  0  0  0  0  0
  -28.5167  -24.6896   21.3362 C   0  0  0  0  0  0
  -27.8011  -19.9056   22.8839 C   0  0  0  0  0  0
  -29.1875  -18.3254   20.9461 C   0  0  0  0  0  0
  -29.0182  -19.8369   20.6455 C   0  0  0  0  0  0
  -31.1160  -16.1873   22.3166 C   0  0  0  0  0  0
  -28.8309  -26.1805   21.2328 C   0  0  0  0  0  0
  -28.4719  -24.1757   22.5578 N   0  0  0  0  0  0
  -28.4011  -24.0007   20.2045 N   0  0  0  0  0  0
  -29.4105  -18.0721   22.3747 N   0  0  0  0  0  0
  -29.0756  -18.3608   24.4763 N   0  3  0  0  0  0
  -28.1819  -20.5680   21.6193 N   0  0  0  0  0  0
  -30.4065  -15.0299   21.7815 N   0  0  0  0  0  0
  -31.4527  -12.3918   19.0681 H   0  0  0  0  0  0
  -30.3137  -11.2608   19.7333 H   0  0  0  0  0  0
  -29.7024  -11.8372   17.3752 H   0  0  0  0  0  0
  -29.6405  -13.5336   17.7824 H   0  0  0  0  0  0
  -27.8086  -11.3259   18.7811 H   0  0  0  0  0  0
  -27.3441  -12.6807   17.7874 H   0  0  0  0  0  0
  -27.7285  -14.2574   19.6153 H   0  0  0  0  0  0
  -28.6616  -11.8871   21.2994 H   0  0  0  0  0  0
  -28.4520  -13.5051   21.8850 H   0  0  0  0  0  0
  -25.2755   -9.5686   22.4749 H   0  0  0  0  0  0
  -24.0006   -7.4630   22.7462 H   0  0  0  0  0  0
  -21.0833   -8.8767   19.8955 H   0  0  0  0  0  0
  -22.3679  -10.9673   19.6164 H   0  0  0  0  0  0
  -21.2005   -7.6150   23.9715 H   0  0  0  0  0  0
  -21.1475   -6.0522   25.9076 H   0  0  0  0  0  0
  -22.0603   -2.7610   23.2849 H   0  0  0  0  0  0
  -22.4131  -11.9894   22.4769 H   0  0  0  0  0  0
  -21.1137  -13.1270   22.2611 H   0  0  0  0  0  0
  -24.6718  -15.8453   20.5080 H   0  0  0  0  0  0
  -26.2928  -15.6177   20.0869 H   0  0  0  0  0  0
  -26.7059  -32.5565   23.1182 H   0  0  0  0  0  0
  -25.0030  -33.9824   25.0508 H   0  0  0  0  0  0
  -22.6820  -31.3070   21.4142 H   0  0  0  0  0  0
  -23.3738  -35.9662   23.3319 H   0  0  0  0  0  0
  -24.3593  -36.8921   22.2046 H   0  0  0  0  0  0
  -23.7203  -37.6537   23.6617 H   0  0  0  0  0  0
  -26.0058  -31.6055   20.5748 H   0  0  0  0  0  0
  -26.8139  -30.9225   21.9576 H   0  0  0  0  0  0
  -28.0948  -29.1521   21.1508 H   0  0  0  0  0  0
  -26.1023  -25.9924   19.0007 H   0  0  0  0  0  0
  -23.9820  -27.2860   19.0416 H   0  0  0  0  0  0
  -23.7004  -30.5885   19.4041 H   0  0  0  0  0  0
  -22.7269  -29.2314   19.8825 H   0  0  0  0  0  0
  -25.1262  -36.2035   25.0828 H   0  0  0  0  0  0
  -20.9936  -28.3163   24.1472 H   0  0  0  0  0  0
  -20.5688  -26.2218   23.3596 H   0  0  0  0  0  0
  -21.6625  -26.7463   22.1192 H   0  0  0  0  0  0
  -19.6898  -25.6344   21.1184 H   0  0  0  0  0  0
  -19.6672  -27.3264   20.6775 H   0  0  0  0  0  0
  -17.4201  -26.6701   21.4000 H   0  0  0  0  0  0
  -18.0300  -26.0053   22.8992 H   0  0  0  0  0  0
  -19.7908  -30.7258   24.2301 H   0  0  0  0  0  0
  -17.4982  -31.6254   24.5173 H   0  0  0  0  0  0
  -15.5329  -30.2979   23.7634 H   0  0  0  0  0  0
  -15.8653  -28.0824   22.7027 H   0  0  0  0  0  0
  -24.5938  -30.6956   25.7812 H   0  0  0  0  0  0
  -24.8826  -32.2813   26.4844 H   0  0  0  0  0  0
  -25.8087  -30.8910   27.0252 H   0  0  0  0  0  0
  -26.2761  -29.6853   24.1050 H   0  0  0  0  0  0
  -27.4025  -29.7229   25.4418 H   0  0  0  0  0  0
  -27.8578  -30.4403   23.9127 H   0  0  0  0  0  0
  -27.2766  -33.3566   26.2045 H   0  0  0  0  0  0
  -28.3857  -32.6766   25.0226 H   0  0  0  0  0  0
  -28.0748  -31.8322   26.5310 H   0  0  0  0  0  0
  -28.2611  -38.0096   24.7542 H   0  0  0  0  0  0
  -28.1060  -36.2641   24.6250 H   0  0  0  0  0  0
  -27.2314  -37.1426   25.8872 H   0  0  0  0  0  0
  -20.9259  -29.8736   21.7013 H   0  0  0  0  0  0
  -26.0191  -38.2901   24.1439 H   0  0  0  0  0  0
  -28.3471  -22.4773   23.6793 H   0  0  0  0  0  0
  -28.1899  -22.1315   19.3687 H   0  0  0  0  0  0
  -30.4058  -16.8424   25.2199 H   0  0  0  0  0  0
  -27.7228  -20.5570   23.7499 H   0  0  0  0  0  0
  -26.8210  -19.4430   22.7581 H   0  0  0  0  0  0
  -30.0152  -17.9107   20.3708 H   0  0  0  0  0  0
  -28.2904  -17.7760   20.6599 H   0  0  0  0  0  0
  -28.5896  -19.9338   19.6465 H   0  0  0  0  0  0
  -30.0056  -20.3011   20.6055 H   0  0  0  0  0  0
  -31.8683  -15.8369   23.0259 H   0  0  0  0  0  0
  -31.6614  -16.7206   21.5358 H   0  0  0  0  0  0
  -29.9125  -26.2920   21.2955 H   0  0  0  0  0  0
  -28.4219  -26.7014   22.1009 H   0  0  0  0  0  0
  -28.7281  -18.7392   25.3496 H   0  0  0  0  0  0
  -29.6190  -14.6766   22.3036 H   0  0  0  0  0  0
  1 25  1  0  0  0
  1 30  2  0  0  0
  1 88  1  0  0  0
  2  3  1  0  0  0
  2 25  1  0  0  0
  2 89  1  0  0  0
  2 90  1  0  0  0
  3  4  1  0  0  0
  3 91  1  0  0  0
  3 92  1  0  0  0
  4  5  1  0  0  0
  4 93  1  0  0  0
  4 94  1  0  0  0
  5  6  1  0  0  0
  5 26  1  0  0  0
  5 95  1  0  0  0
  6 25  1  0  0  0
  6 96  1  0  0  0
  6 97  1  0  0  0
  7  8  2  0  0  0
  7 26  1  0  0  0
  7 29  1  0  0  0
  8  9  1  0  0  0
  8 22  1  0  0  0
  9 10  1  0  0  0
  9 27  2  0  0  0
 10 11  2  0  0  0
 10 15  1  0  0  0
 11 12  1  0  0  0
 11 98  1  0  0  0
 12 13  2  0  0  0
 12 99  1  0  0  0
 13 14  1  0  0  0
 13 31  1  0  0  0
 14 15  2  0  0  0
 14100  1  0  0  0
 15101  1  0  0  0
 16 17  2  0  0  0
 16 21  1  0  0  0
 16 31  1  0  0  0
 17 18  1  0  0  0
 17102  1  0  0  0
 18 19  2  0  0  0
 18103  1  0  0  0
 19 20  1  0  0  0
 19 24  1  0  0  0
 20 21  2  0  0  0
 20104  1  0  0  0
 21 23  1  0  0  0
 22 28  1  0  0  0
 22 32  2  0  0  0
 26 27  1  0  0  0
 28105  1  0  0  0
 28106  1  0  0  0
 29107  1  0  0  0
 29108  1  0  0  0
 33 34  1  0  0  0
 33 66  1  0  0  0
 33 70  2  0  0  0
 34 36  1  0  0  0
 34 59  1  0  0  0
 34109  1  0  0  0
 35 44  2  0  0  0
 35 45  1  0  0  0
 35 68  1  0  0  0
 36 56  1  0  0  0
 36110  1  0  0  0
 37 39  1  0  0  0
 37 47  1  0  0  0
 37 66  1  0  0  0
 37111  1  0  0  0
 38 43  2  0  0  0
 38 46  1  0  0  0
 38 47  1  0  0  0
 39 64  1  0  0  0
 39 67  2  0  0  0
 40 52  1  0  0  0
 40 53  2  0  0  0
 40 58  1  0  0  0
 41112  1  0  0  0
 41113  1  0  0  0
 41114  1  0  0  0
 41 48  1  0  0  0
 42 43  1  0  0  0
 42 66  1  0  0  0
 42115  1  0  0  0
 42116  1  0  0  0
 43 44  1  0  0  0
 44117  1  0  0  0
 45 46  2  0  0  0
 45118  1  0  0  0
 46119  1  0  0  0
 47120  1  0  0  0
 47121  1  0  0  0
 48 56  1  0  0  0
 48 65  1  0  0  0
 48122  1  0  0  0
 49 50  1  0  0  0
 49 53  1  0  0  0
 49 64  1  0  0  0
 49123  1  0  0  0
 50 51  1  0  0  0
 50124  1  0  0  0
 50125  1  0  0  0
 51 52  1  0  0  0
 51126  1  0  0  0
 51127  1  0  0  0
 52128  1  0  0  0
 52129  1  0  0  0
 53 54  1  0  0  0
 54 55  2  0  0  0
 54130  1  0  0  0
 55 57  1  0  0  0
 55131  1  0  0  0
 56 69  2  0  0  0
 57 58  2  0  0  0
 57132  1  0  0  0
 58133  1  0  0  0
 59 60  1  0  0  0
 59 61  1  0  0  0
 59 62  1  0  0  0
 60134  1  0  0  0
 60135  1  0  0  0
 60136  1  0  0  0
 61137  1  0  0  0
 61138  1  0  0  0
 61139  1  0  0  0
 62140  1  0  0  0
 62141  1  0  0  0
 62142  1  0  0  0
 63 65  1  0  0  0
 63143  1  0  0  0
 63144  1  0  0  0
 63145  1  0  0  0
 64146  1  0  0  0
 65147  1  0  0  0
 68 82  1  0  0  0
 71 74  2  0  0  0
 71 83  1  0  0  0
 71148  1  0  0  0
 72 74  1  0  0  0
 72 84  2  0  0  0
 72149  1  0  0  0
 73 75  2  0  0  0
 73 86  1  0  0  0
 73150  1  0  0  0
 74 87  1  0  0  0
 75 81  1  0  0  0
 75 85  1  0  0  0
 76 78  1  0  0  0
 76 85  1  0  0  0
 76 86  2  0  0  0
 77 82  1  0  0  0
 77 83  2  0  0  0
 77 84  1  0  0  0
 78 87  1  0  0  0
 78151  1  0  0  0
 78152  1  0  0  0
 79 80  1  0  0  0
 79 85  1  0  0  0
 79153  1  0  0  0
 79154  1  0  0  0
 80 87  1  0  0  0
 80155  1  0  0  0
 80156  1  0  0  0
 81 88  1  0  0  0
 81157  1  0  0  0
 81158  1  0  0  0
 82159  1  0  0  0
 82160  1  0  0  0
 86161  1  0  0  0
 88162  1  0  0  0
M  CHG  1  86   1
M  ISO  4   1 100  68 101  82 101  88 100
M  END
> <chiral flag>
0

> <version>
0

> <s_m_source_file>
/data/baiqing/PycharmProjects/Reinvent-master-3.2/result/LINK_invent/BTK/process_docking_weight1_custom_sum_contain_oxygen_bond_distance_aromatic_linkinvent_7_9_3/rearranged_h_0188.sdf

> <i_m_source_file_index>
91

> <r_mmod_Potential_Energy-OPLS-2005>
-366.207641601562

> <r_mmod_Stretch_Energy-OPLS-2005>
35.3115196228027

> <r_mmod_Bend_Energy-OPLS-2005>
104.598564147949

> <r_mmod_Torsional_Energy-OPLS-2005>
248.142333984375

> <r_mmod_Improper_Torsional_Energy-OPLS-2005>
4.16074323654175

> <r_mmod_Van_der_Waal_Energy-OPLS-2005>
166.21484375

> <r_mmod_Electrostatic_Energy-OPLS-2005>
-452.654815673828

> <r_mmod_Solvation_Energy-OPLS-2005>
-478.207733154297

> <b_mmod_Minimization_Converged-OPLS-2005>
0

> <r_mmod_RMS_Derivative-OPLS-2005>
2.15351796150208

$$$$
92
                    3D
 Structure written by MMmdl.
151160  0  0  1  0            999 V2000
  -30.6338  -14.7252   20.4750 C   0  0  0  0  0  0
  -30.4319  -12.4471   19.4692 C   0  0  0  0  0  0
  -29.5082  -12.5058   18.2332 C   0  0  0  0  0  0
  -28.0349  -12.3319   18.6489 C   0  0  0  0  0  0
  -27.6434  -13.2314   19.8518 C   0  0  2  0  0  0
  -28.6897  -13.1627   20.9859 C   0  0  0  0  0  0
  -25.2517  -13.8197   20.5699 C   0  0  0  0  0  0
  -24.1808  -13.0441   20.9210 C   0  0  0  0  0  0
  -24.6398  -11.6919   20.8751 C   0  0  0  0  0  0
  -23.9074  -10.4294   21.0409 C   0  0  0  0  0  0
  -24.3623   -9.4208   21.9186 C   0  0  0  0  0  0
  -23.6296   -8.2244   22.0754 C   0  0  0  0  0  0
  -22.4278   -8.0283   21.3545 C   0  0  0  0  0  0
  -21.9916   -9.0258   20.4647 C   0  0  0  0  0  0
  -22.7246  -10.2136   20.3057 C   0  0  0  0  0  0
  -21.6854   -6.0738   22.5279 C   0  0  0  0  0  0
  -21.4015   -6.5641   23.8212 C   0  0  0  0  0  0
  -21.3659   -5.6793   24.9174 C   0  0  0  0  0  0
  -21.6044   -4.3056   24.7224 C   0  0  0  0  0  0
  -21.8819   -3.8148   23.4345 C   0  0  0  0  0  0
  -21.9193   -4.6965   22.3402 C   0  0  0  0  0  0
  -22.7828  -13.5222   21.1867 C   0  0  0  0  0  0
  -22.1662   -4.2151   21.0980 F   0  0  0  0  0  0
  -21.5628   -3.4539   25.7737 F   0  0  0  0  0  0
  -29.9921  -13.5092   20.4027 N   0  0  0  0  0  0
  -26.2948  -12.9405   20.3293 N   0  0  0  0  0  0
  -25.9331  -11.6547   20.5761 N   0  0  0  0  0  0
  -22.0474  -12.8211   22.0422 N   0  0  0  0  0  0
  -25.4199  -15.1922   20.4105 N   0  0  0  0  0  0
  -31.8203  -14.8149   20.1496 O   0  0  0  0  0  0
  -21.6641   -6.8881   21.4241 O   0  0  0  0  0  0
  -22.3512  -14.5528   20.6713 O   0  0  0  0  0  0
  -24.6335  -31.8565   23.2017 C   0  0  0  0  0  0
  -25.9159  -32.4761   23.8354 C   0  0  1  0  0  0
  -27.2088  -27.2506   20.1174 C   0  0  0  0  0  0
  -25.5953  -33.8563   24.2270 N   0  0  0  0  0  0
  -23.4296  -30.4842   21.5461 C   0  0  2  0  0  0
  -24.8747  -28.9421   20.1078 C   0  0  0  0  0  0
  -22.7515  -29.4615   22.4908 C   0  0  0  0  0  0
  -18.0296  -28.1388   22.8483 C   0  0  0  0  0  0
  -24.1491  -36.7283   23.2638 C   0  0  0  0  0  0
  -25.9805  -30.7644   21.3877 C   0  0  0  0  0  0
  -26.0505  -29.3896   20.7235 C   0  0  0  0  0  0
  -27.2199  -28.5565   20.7220 C   0  0  0  0  0  0
  -26.0078  -26.8962   19.4517 C   0  0  0  0  0  0
  -24.8600  -27.7031   19.4610 C   0  0  0  0  0  0
  -23.6478  -29.8297   20.1593 C   0  0  0  0  0  0
  -25.4118  -36.3072   24.0326 C   0  0  1  0  0  0
  -20.5903  -28.3705   23.1259 C   0  0  2  0  0  0
  -20.6785  -26.9421   22.5402 C   0  0  0  0  0  0
  -19.5757  -26.6384   21.5211 C   0  0  0  0  0  0
  -18.1938  -26.7929   22.1625 C   0  0  0  0  0  0
  -19.1550  -28.8864   23.2866 C   0  0  0  0  0  0
  -18.9470  -30.1463   23.8886 C   0  0  0  0  0  0
  -17.6469  -30.6588   24.0562 C   0  0  0  0  0  0
  -25.9062  -34.9442   23.5096 C   0  0  0  0  0  0
  -16.5360  -29.9085   23.6334 C   0  0  0  0  0  0
  -16.7281  -28.6502   23.0354 C   0  0  0  0  0  0
  -26.4513  -31.6585   25.0747 C   0  0  0  0  0  0
  -25.3725  -31.3747   26.1459 C   0  0  0  0  0  0
  -27.0360  -30.2993   24.6257 C   0  0  0  0  0  0
  -27.6063  -32.4329   25.7519 C   0  0  0  0  0  0
  -27.5580  -37.1798   24.8464 C   0  0  0  0  0  0
  -21.4221  -29.3054   22.3649 N   0  0  0  0  0  0
  -26.4290  -37.3772   23.9410 N   0  0  0  0  0  0
  -24.7004  -31.0524   22.1006 N   0  0  0  0  0  0
  -23.4213  -28.8137   23.2995 O   0  0  0  0  0  0
  -28.2692  -26.3040   20.1979 O   0  0  0  0  0  0
  -26.5627  -34.8915   22.4662 O   0  0  0  0  0  0
  -23.5481  -32.1396   23.7301 O   0  0  0  0  0  0
  -29.6873  -21.5880   19.3384 C   0  0  0  0  0  0
  -29.5276  -20.7744   20.4973 C   0  0  0  0  0  0
  -28.9381  -21.5912   21.5134 C   0  0  0  0  0  0
  -28.7530  -23.5481   20.2275 C   0  0  0  0  0  0
  -29.6021  -18.3641   21.6325 C   0  0  0  0  0  0
  -29.9798  -18.3087   19.5947 C   0  0  0  0  0  0
  -30.3744  -17.3164   20.7493 C   0  0  0  0  0  0
  -27.8970  -24.8660   19.9181 C   0  0  0  0  0  0
  -29.3186  -22.8999   19.2015 N   0  0  0  0  0  0
  -28.5584  -22.9021   21.3828 N   0  0  0  0  0  0
  -30.0202  -19.3661   20.6297 N   0  0  0  0  0  0
  -29.8908  -15.8666   20.7197 N   0  0  0  0  0  0
  -28.7252  -21.0350   22.7305 F   0  0  0  0  0  0
  -31.4728  -12.5670   19.1643 H   0  0  0  0  0  0
  -30.3731  -11.4696   19.9506 H   0  0  0  0  0  0
  -29.7876  -11.7336   17.5152 H   0  0  0  0  0  0
  -29.6361  -13.4611   17.7215 H   0  0  0  0  0  0
  -27.8909  -11.2831   18.9113 H   0  0  0  0  0  0
  -27.3763  -12.5253   17.8014 H   0  0  0  0  0  0
  -27.6391  -14.2536   19.4729 H   0  0  0  0  0  0
  -28.7220  -12.1648   21.4257 H   0  0  0  0  0  0
  -28.4277  -13.8450   21.7961 H   0  0  0  0  0  0
  -25.2768   -9.5683   22.4762 H   0  0  0  0  0  0
  -24.0005   -7.4635   22.7473 H   0  0  0  0  0  0
  -21.0848   -8.8778   19.8952 H   0  0  0  0  0  0
  -22.3706  -10.9676   19.6167 H   0  0  0  0  0  0
  -21.2008   -7.6149   23.9716 H   0  0  0  0  0  0
  -21.1481   -6.0523   25.9077 H   0  0  0  0  0  0
  -22.0598   -2.7610   23.2845 H   0  0  0  0  0  0
  -22.4094  -11.9874   22.4809 H   0  0  0  0  0  0
  -21.1091  -13.1233   22.2629 H   0  0  0  0  0  0
  -24.6485  -15.8423   20.5156 H   0  0  0  0  0  0
  -26.2600  -15.6317   20.0575 H   0  0  0  0  0  0
  -26.7225  -32.5403   23.1092 H   0  0  0  0  0  0
  -25.0103  -33.9704   25.0417 H   0  0  0  0  0  0
  -22.7265  -31.3078   21.4052 H   0  0  0  0  0  0
  -23.3757  -35.9611   23.3296 H   0  0  0  0  0  0
  -24.3582  -36.8910   22.2053 H   0  0  0  0  0  0
  -23.7240  -37.6480   23.6665 H   0  0  0  0  0  0
  -26.1274  -31.5276   20.6222 H   0  0  0  0  0  0
  -26.8553  -30.8063   22.0248 H   0  0  0  0  0  0
  -28.1131  -28.8903   21.2314 H   0  0  0  0  0  0
  -25.8944  -25.9639   18.9217 H   0  0  0  0  0  0
  -23.9638  -27.3590   18.9630 H   0  0  0  0  0  0
  -23.7751  -30.6116   19.4098 H   0  0  0  0  0  0
  -22.7648  -29.2679   19.8492 H   0  0  0  0  0  0
  -25.1298  -36.1918   25.0818 H   0  0  0  0  0  0
  -20.9996  -28.3284   24.1379 H   0  0  0  0  0  0
  -20.5689  -26.2316   23.3610 H   0  0  0  0  0  0
  -21.6652  -26.7444   22.1192 H   0  0  0  0  0  0
  -19.6919  -25.6293   21.1245 H   0  0  0  0  0  0
  -19.6689  -27.3190   20.6737 H   0  0  0  0  0  0
  -17.4206  -26.6674   21.4030 H   0  0  0  0  0  0
  -18.0341  -26.0073   22.9024 H   0  0  0  0  0  0
  -19.7946  -30.7282   24.2249 H   0  0  0  0  0  0
  -17.5023  -31.6267   24.5166 H   0  0  0  0  0  0
  -15.5360  -30.2984   23.7664 H   0  0  0  0  0  0
  -15.8681  -28.0818   22.7076 H   0  0  0  0  0  0
  -24.5907  -30.7087   25.7789 H   0  0  0  0  0  0
  -24.8909  -32.2921   26.4855 H   0  0  0  0  0  0
  -25.8033  -30.8946   27.0255 H   0  0  0  0  0  0
  -26.2956  -29.6738   24.1257 H   0  0  0  0  0  0
  -27.3998  -29.7260   25.4795 H   0  0  0  0  0  0
  -27.8857  -30.4251   23.9542 H   0  0  0  0  0  0
  -27.2670  -33.3640   26.2070 H   0  0  0  0  0  0
  -28.3887  -32.6870   25.0356 H   0  0  0  0  0  0
  -28.0714  -31.8471   26.5458 H   0  0  0  0  0  0
  -28.2592  -38.0100   24.7518 H   0  0  0  0  0  0
  -28.1081  -36.2632   24.6281 H   0  0  0  0  0  0
  -27.2299  -37.1435   25.8867 H   0  0  0  0  0  0
  -20.9406  -29.8793   21.6867 H   0  0  0  0  0  0
  -26.0167  -38.2844   24.1415 H   0  0  0  0  0  0
  -30.1517  -21.1598   18.4622 H   0  0  0  0  0  0
  -30.0294  -18.5112   22.6260 H   0  0  0  0  0  0
  -28.5206  -18.2141   21.6671 H   0  0  0  0  0  0
  -28.9812  -18.1444   19.1833 H   0  0  0  0  0  0
  -30.7363  -18.4071   18.8143 H   0  0  0  0  0  0
  -31.4478  -17.3737   20.9499 H   0  0  0  0  0  0
  -26.9485  -24.6720   20.4214 H   0  0  0  0  0  0
  -27.6911  -24.8086   18.8487 H   0  0  0  0  0  0
  -28.9138  -15.7189   20.9207 H   0  0  0  0  0  0
  1 25  1  0  0  0
  1 30  2  0  0  0
  1 82  1  0  0  0
  2  3  1  0  0  0
  2 25  1  0  0  0
  2 84  1  0  0  0
  2 85  1  0  0  0
  3  4  1  0  0  0
  3 86  1  0  0  0
  3 87  1  0  0  0
  4  5  1  0  0  0
  4 88  1  0  0  0
  4 89  1  0  0  0
  5  6  1  0  0  0
  5 26  1  0  0  0
  5 90  1  0  0  0
  6 25  1  0  0  0
  6 91  1  0  0  0
  6 92  1  0  0  0
  7  8  2  0  0  0
  7 26  1  0  0  0
  7 29  1  0  0  0
  8  9  1  0  0  0
  8 22  1  0  0  0
  9 10  1  0  0  0
  9 27  2  0  0  0
 10 11  2  0  0  0
 10 15  1  0  0  0
 11 12  1  0  0  0
 11 93  1  0  0  0
 12 13  2  0  0  0
 12 94  1  0  0  0
 13 14  1  0  0  0
 13 31  1  0  0  0
 14 15  2  0  0  0
 14 95  1  0  0  0
 15 96  1  0  0  0
 16 17  2  0  0  0
 16 21  1  0  0  0
 16 31  1  0  0  0
 17 18  1  0  0  0
 17 97  1  0  0  0
 18 19  2  0  0  0
 18 98  1  0  0  0
 19 20  1  0  0  0
 19 24  1  0  0  0
 20 21  2  0  0  0
 20 99  1  0  0  0
 21 23  1  0  0  0
 22 28  1  0  0  0
 22 32  2  0  0  0
 26 27  1  0  0  0
 28100  1  0  0  0
 28101  1  0  0  0
 29102  1  0  0  0
 29103  1  0  0  0
 33 34  1  0  0  0
 33 66  1  0  0  0
 33 70  2  0  0  0
 34 36  1  0  0  0
 34 59  1  0  0  0
 34104  1  0  0  0
 35 44  2  0  0  0
 35 45  1  0  0  0
 35 68  1  0  0  0
 36 56  1  0  0  0
 36105  1  0  0  0
 37 39  1  0  0  0
 37 47  1  0  0  0
 37 66  1  0  0  0
 37106  1  0  0  0
 38 43  2  0  0  0
 38 46  1  0  0  0
 38 47  1  0  0  0
 39 64  1  0  0  0
 39 67  2  0  0  0
 40 52  1  0  0  0
 40 53  2  0  0  0
 40 58  1  0  0  0
 41107  1  0  0  0
 41108  1  0  0  0
 41109  1  0  0  0
 41 48  1  0  0  0
 42 43  1  0  0  0
 42 66  1  0  0  0
 42110  1  0  0  0
 42111  1  0  0  0
 43 44  1  0  0  0
 44112  1  0  0  0
 45 46  2  0  0  0
 45113  1  0  0  0
 46114  1  0  0  0
 47115  1  0  0  0
 47116  1  0  0  0
 48 56  1  0  0  0
 48 65  1  0  0  0
 48117  1  0  0  0
 49 50  1  0  0  0
 49 53  1  0  0  0
 49 64  1  0  0  0
 49118  1  0  0  0
 50 51  1  0  0  0
 50119  1  0  0  0
 50120  1  0  0  0
 51 52  1  0  0  0
 51121  1  0  0  0
 51122  1  0  0  0
 52123  1  0  0  0
 52124  1  0  0  0
 53 54  1  0  0  0
 54 55  2  0  0  0
 54125  1  0  0  0
 55 57  1  0  0  0
 55126  1  0  0  0
 56 69  2  0  0  0
 57 58  2  0  0  0
 57127  1  0  0  0
 58128  1  0  0  0
 59 60  1  0  0  0
 59 61  1  0  0  0
 59 62  1  0  0  0
 60129  1  0  0  0
 60130  1  0  0  0
 60131  1  0  0  0
 61132  1  0  0  0
 61133  1  0  0  0
 61134  1  0  0  0
 62135  1  0  0  0
 62136  1  0  0  0
 62137  1  0  0  0
 63 65  1  0  0  0
 63138  1  0  0  0
 63139  1  0  0  0
 63140  1  0  0  0
 64141  1  0  0  0
 65142  1  0  0  0
 68 78  1  0  0  0
 71 72  2  0  0  0
 71 79  1  0  0  0
 71143  1  0  0  0
 72 73  1  0  0  0
 72 81  1  0  0  0
 73 80  2  0  0  0
 73 83  1  0  0  0
 74 78  1  0  0  0
 74 79  2  0  0  0
 74 80  1  0  0  0
 75 77  1  0  0  0
 75 81  1  0  0  0
 75144  1  0  0  0
 75145  1  0  0  0
 76 77  1  0  0  0
 76 81  1  0  0  0
 76146  1  0  0  0
 76147  1  0  0  0
 77 82  1  0  0  0
 77148  1  0  0  0
 78149  1  0  0  0
 78150  1  0  0  0
 82151  1  0  0  0
M  ISO  4   1 100  68 101  78 101  82 100
M  END
> <chiral flag>
0

> <version>
0

> <s_m_source_file>
/data/baiqing/PycharmProjects/Reinvent-master-3.2/result/LINK_invent/BTK/process_docking_weight1_custom_sum_contain_oxygen_bond_distance_aromatic_linkinvent_7_9_3/rearranged_h_0188.sdf

> <i_m_source_file_index>
92

> <r_mmod_Potential_Energy-OPLS-2005>
-68.540168762207

> <r_mmod_Stretch_Energy-OPLS-2005>
112.181037902832

> <r_mmod_Bend_Energy-OPLS-2005>
242.309875488281

> <r_mmod_Torsional_Energy-OPLS-2005>
231.536697387695

> <r_mmod_Improper_Torsional_Energy-OPLS-2005>
14.6788501739502

> <r_mmod_Van_der_Waal_Energy-OPLS-2005>
157.636413574219

> <r_mmod_Electrostatic_Energy-OPLS-2005>
-666.107299804688

> <r_mmod_Solvation_Energy-OPLS-2005>
-249.993988037109

> <b_mmod_Minimization_Converged-OPLS-2005>
0

> <r_mmod_RMS_Derivative-OPLS-2005>
0.108610481023788

$$$$
93
                    3D
 Structure written by MMmdl.
161170  0  0  1  0            999 V2000
  -30.7018  -14.6241   20.4790 C   0  0  0  0  0  0
  -30.4216  -12.3859   19.4470 C   0  0  0  0  0  0
  -29.4959  -12.4899   18.2178 C   0  0  0  0  0  0
  -28.0238  -12.3256   18.6403 C   0  0  0  0  0  0
  -27.6435  -13.2138   19.8547 C   0  0  2  0  0  0
  -28.6988  -13.1408   20.9816 C   0  0  0  0  0  0
  -25.2543  -13.8142   20.5728 C   0  0  0  0  0  0
  -24.1808  -13.0418   20.9215 C   0  0  0  0  0  0
  -24.6381  -11.6890   20.8770 C   0  0  0  0  0  0
  -23.9048  -10.4278   21.0418 C   0  0  0  0  0  0
  -24.3602   -9.4195   21.9191 C   0  0  0  0  0  0
  -23.6281   -8.2231   22.0751 C   0  0  0  0  0  0
  -22.4259   -8.0268   21.3542 C   0  0  0  0  0  0
  -21.9898   -9.0243   20.4652 C   0  0  0  0  0  0
  -22.7222  -10.2124   20.3062 C   0  0  0  0  0  0
  -21.6848   -6.0729   22.5277 C   0  0  0  0  0  0
  -21.4016   -6.5635   23.8211 C   0  0  0  0  0  0
  -21.3665   -5.6782   24.9170 C   0  0  0  0  0  0
  -21.6038   -4.3041   24.7224 C   0  0  0  0  0  0
  -21.8820   -3.8145   23.4342 C   0  0  0  0  0  0
  -21.9197   -4.6959   22.3397 C   0  0  0  0  0  0
  -22.7835  -13.5229   21.1858 C   0  0  0  0  0  0
  -22.1660   -4.2143   21.0973 F   0  0  0  0  0  0
  -21.5635   -3.4530   25.7748 F   0  0  0  0  0  0
  -30.0106  -13.4430   20.3919 N   0  0  0  0  0  0
  -26.2953  -12.9317   20.3347 N   0  0  0  0  0  0
  -25.9309  -11.6476   20.5795 N   0  0  0  0  0  0
  -22.0458  -12.8234   22.0410 N   0  0  0  0  0  0
  -25.4279  -15.1865   20.4153 N   0  0  0  0  0  0
  -31.8908  -14.6929   20.1612 O   0  0  0  0  0  0
  -21.6623   -6.8866   21.4235 O   0  0  0  0  0  0
  -22.3539  -14.5547   20.6714 O   0  0  0  0  0  0
  -24.6247  -31.8624   23.2066 C   0  0  0  0  0  0
  -25.9104  -32.4792   23.8379 C   0  0  1  0  0  0
  -27.2205  -27.3337   20.1070 C   0  0  0  0  0  0
  -25.5932  -33.8598   24.2301 N   0  0  0  0  0  0
  -23.4173  -30.4892   21.5497 C   0  0  2  0  0  0
  -24.8628  -28.9562   20.1079 C   0  0  0  0  0  0
  -22.7474  -29.4635   22.4948 C   0  0  0  0  0  0
  -18.0288  -28.1380   22.8484 C   0  0  0  0  0  0
  -24.1494  -36.7304   23.2637 C   0  0  0  0  0  0
  -25.9594  -30.7971   21.3789 C   0  0  0  0  0  0
  -26.0324  -29.4282   20.7166 C   0  0  0  0  0  0
  -27.2131  -28.6279   20.7114 C   0  0  0  0  0  0
  -26.0276  -26.9293   19.4544 C   0  0  0  0  0  0
  -24.8621  -27.7111   19.4683 C   0  0  0  0  0  0
  -23.6303  -29.8326   20.1623 C   0  0  0  0  0  0
  -25.4117  -36.3095   24.0330 C   0  0  1  0  0  0
  -20.5887  -28.3686   23.1291 C   0  0  2  0  0  0
  -20.6777  -26.9411   22.5416 C   0  0  0  0  0  0
  -19.5756  -26.6380   21.5215 C   0  0  0  0  0  0
  -18.1932  -26.7926   22.1615 C   0  0  0  0  0  0
  -19.1538  -28.8851   23.2881 C   0  0  0  0  0  0
  -18.9460  -30.1452   23.8896 C   0  0  0  0  0  0
  -17.6459  -30.6585   24.0562 C   0  0  0  0  0  0
  -25.9051  -34.9460   23.5112 C   0  0  0  0  0  0
  -16.5351  -29.9081   23.6330 C   0  0  0  0  0  0
  -16.7273  -28.6498   23.0351 C   0  0  0  0  0  0
  -26.4495  -31.6598   25.0741 C   0  0  0  0  0  0
  -25.3739  -31.3738   26.1478 C   0  0  0  0  0  0
  -27.0327  -30.3018   24.6186 C   0  0  0  0  0  0
  -27.6057  -32.4334   25.7502 C   0  0  0  0  0  0
  -27.5586  -37.1805   24.8463 C   0  0  0  0  0  0
  -21.4191  -29.3039   22.3690 N   0  0  0  0  0  0
  -26.4296  -37.3785   23.9406 N   0  0  0  0  0  0
  -24.6859  -31.0653   22.1017 N   0  0  0  0  0  0
  -23.4206  -28.8164   23.3016 O   0  0  0  0  0  0
  -28.3259  -26.4676   20.1866 O   0  0  0  0  0  0
  -26.5611  -34.8917   22.4674 O   0  0  0  0  0  0
  -23.5413  -32.1421   23.7405 O   0  0  0  0  0  0
  -28.8630  -22.5713   19.8160 C   0  0  0  0  0  0
  -29.6699  -21.5204   20.3295 C   0  0  0  0  0  0
  -28.9960  -23.8863   20.3435 C   0  0  0  0  0  0
  -30.5908  -23.0565   21.7783 C   0  0  0  0  0  0
  -30.4805  -16.7783   21.7067 C   0  0  0  0  0  0
  -29.4921  -16.5085   19.5047 C   0  0  0  0  0  0
  -30.6630  -18.2723   21.2178 C   0  0  0  0  0  0
  -28.6789  -17.7986   19.8458 C   0  0  0  0  0  0
  -31.5827  -23.3322   22.8882 C   0  0  0  0  0  0
  -29.7301  -20.0971   19.6873 C   0  0  0  0  0  0
  -28.0641  -25.0470   19.8685 C   0  0  0  0  0  0
  -30.5230  -21.7963   21.3356 N   0  0  0  0  0  0
  -29.8823  -24.1001   21.3384 N   0  0  0  0  0  0
  -30.0016  -15.7898   20.6954 N   0  0  0  0  0  0
  -29.4675  -18.8684   20.5383 N   0  3  0  0  0  0
  -31.4648  -12.4798   19.1402 H   0  0  0  0  0  0
  -30.3329  -11.4039   19.9137 H   0  0  0  0  0  0
  -29.7616  -11.7296   17.4808 H   0  0  0  0  0  0
  -29.6343  -13.4532   17.7248 H   0  0  0  0  0  0
  -27.8720  -11.2751   18.8919 H   0  0  0  0  0  0
  -27.3642  -12.5354   17.7971 H   0  0  0  0  0  0
  -27.6274  -14.2325   19.4823 H   0  0  0  0  0  0
  -28.7101  -12.1511   21.4406 H   0  0  0  0  0  0
  -28.4551  -13.8465   21.7776 H   0  0  0  0  0  0
  -25.2746   -9.5675   22.4764 H   0  0  0  0  0  0
  -24.0001   -7.4627   22.7463 H   0  0  0  0  0  0
  -21.0832   -8.8759   19.8960 H   0  0  0  0  0  0
  -22.3681  -10.9664   19.6176 H   0  0  0  0  0  0
  -21.1993   -7.6145   23.9712 H   0  0  0  0  0  0
  -21.1492   -6.0508   25.9070 H   0  0  0  0  0  0
  -22.0602   -2.7611   23.2833 H   0  0  0  0  0  0
  -22.4059  -11.9897   22.4806 H   0  0  0  0  0  0
  -21.1085  -13.1293   22.2602 H   0  0  0  0  0  0
  -24.6630  -15.8434   20.5236 H   0  0  0  0  0  0
  -26.2837  -15.6185   20.0963 H   0  0  0  0  0  0
  -26.7168  -32.5465   23.1123 H   0  0  0  0  0  0
  -25.0090  -33.9749   25.0453 H   0  0  0  0  0  0
  -22.7092  -31.3092   21.4123 H   0  0  0  0  0  0
  -23.3750  -35.9642   23.3308 H   0  0  0  0  0  0
  -24.3584  -36.8915   22.2050 H   0  0  0  0  0  0
  -23.7249  -37.6512   23.6651 H   0  0  0  0  0  0
  -26.0925  -31.5643   20.6149 H   0  0  0  0  0  0
  -26.8390  -30.8406   22.0096 H   0  0  0  0  0  0
  -28.1061  -28.9848   21.2050 H   0  0  0  0  0  0
  -25.9476  -25.9903   18.9284 H   0  0  0  0  0  0
  -23.9683  -27.3491   18.9789 H   0  0  0  0  0  0
  -23.7469  -30.6127   19.4091 H   0  0  0  0  0  0
  -22.7506  -29.2614   19.8600 H   0  0  0  0  0  0
  -25.1293  -36.1954   25.0823 H   0  0  0  0  0  0
  -20.9967  -28.3258   24.1417 H   0  0  0  0  0  0
  -20.5681  -26.2298   23.3616 H   0  0  0  0  0  0
  -21.6648  -26.7445   22.1214 H   0  0  0  0  0  0
  -19.6921  -25.6291   21.1250 H   0  0  0  0  0  0
  -19.6697  -27.3189   20.6745 H   0  0  0  0  0  0
  -17.4210  -26.6685   21.4007 H   0  0  0  0  0  0
  -18.0316  -26.0064   22.9005 H   0  0  0  0  0  0
  -19.7936  -30.7268   24.2264 H   0  0  0  0  0  0
  -17.5015  -31.6264   24.5166 H   0  0  0  0  0  0
  -15.5351  -30.2981   23.7655 H   0  0  0  0  0  0
  -15.8672  -28.0814   22.7067 H   0  0  0  0  0  0
  -24.5900  -30.7097   25.7818 H   0  0  0  0  0  0
  -24.8946  -32.2909   26.4916 H   0  0  0  0  0  0
  -25.8074  -30.8909   27.0245 H   0  0  0  0  0  0
  -26.2890  -29.6777   24.1214 H   0  0  0  0  0  0
  -27.4026  -29.7265   25.4683 H   0  0  0  0  0  0
  -27.8766  -30.4296   23.9403 H   0  0  0  0  0  0
  -27.2659  -33.3622   26.2096 H   0  0  0  0  0  0
  -28.3850  -32.6921   25.0321 H   0  0  0  0  0  0
  -28.0748  -31.8457   26.5403 H   0  0  0  0  0  0
  -28.2608  -38.0098   24.7505 H   0  0  0  0  0  0
  -28.1074  -36.2628   24.6290 H   0  0  0  0  0  0
  -27.2304  -37.1463   25.8867 H   0  0  0  0  0  0
  -20.9371  -29.8771   21.6905 H   0  0  0  0  0  0
  -26.0184  -38.2863   24.1403 H   0  0  0  0  0  0
  -28.1654  -22.3857   19.0091 H   0  0  0  0  0  0
  -29.7652  -16.7619   22.5293 H   0  0  0  0  0  0
  -31.4228  -16.4456   22.1456 H   0  0  0  0  0  0
  -30.3288  -16.7683   18.8533 H   0  0  0  0  0  0
  -28.8710  -15.8500   18.9028 H   0  0  0  0  0  0
  -31.5091  -18.2953   20.5304 H   0  0  0  0  0  0
  -30.9442  -18.9104   22.0571 H   0  0  0  0  0  0
  -27.8607  -17.5193   20.5108 H   0  0  0  0  0  0
  -28.1895  -18.1683   18.9450 H   0  0  0  0  0  0
  -32.1562  -22.4401   23.1417 H   0  0  0  0  0  0
  -31.0647  -23.6668   23.7864 H   0  0  0  0  0  0
  -32.2871  -24.1077   22.5873 H   0  0  0  0  0  0
  -30.6869  -19.9898   19.1763 H   0  0  0  0  0  0
  -28.9981  -20.1312   18.8822 H   0  0  0  0  0  0
  -27.1045  -24.7603   20.3009 H   0  0  0  0  0  0
  -27.9707  -24.9571   18.7854 H   0  0  0  0  0  0
  -28.8631  -19.2217   21.2651 H   0  0  0  0  0  0
  1 25  1  0  0  0
  1 30  2  0  0  0
  1 84  1  0  0  0
  2  3  1  0  0  0
  2 25  1  0  0  0
  2 86  1  0  0  0
  2 87  1  0  0  0
  3  4  1  0  0  0
  3 88  1  0  0  0
  3 89  1  0  0  0
  4  5  1  0  0  0
  4 90  1  0  0  0
  4 91  1  0  0  0
  5  6  1  0  0  0
  5 26  1  0  0  0
  5 92  1  0  0  0
  6 25  1  0  0  0
  6 93  1  0  0  0
  6 94  1  0  0  0
  7  8  2  0  0  0
  7 26  1  0  0  0
  7 29  1  0  0  0
  8  9  1  0  0  0
  8 22  1  0  0  0
  9 10  1  0  0  0
  9 27  2  0  0  0
 10 11  2  0  0  0
 10 15  1  0  0  0
 11 12  1  0  0  0
 11 95  1  0  0  0
 12 13  2  0  0  0
 12 96  1  0  0  0
 13 14  1  0  0  0
 13 31  1  0  0  0
 14 15  2  0  0  0
 14 97  1  0  0  0
 15 98  1  0  0  0
 16 17  2  0  0  0
 16 21  1  0  0  0
 16 31  1  0  0  0
 17 18  1  0  0  0
 17 99  1  0  0  0
 18 19  2  0  0  0
 18100  1  0  0  0
 19 20  1  0  0  0
 19 24  1  0  0  0
 20 21  2  0  0  0
 20101  1  0  0  0
 21 23  1  0  0  0
 22 28  1  0  0  0
 22 32  2  0  0  0
 26 27  1  0  0  0
 28102  1  0  0  0
 28103  1  0  0  0
 29104  1  0  0  0
 29105  1  0  0  0
 33 34  1  0  0  0
 33 66  1  0  0  0
 33 70  2  0  0  0
 34 36  1  0  0  0
 34 59  1  0  0  0
 34106  1  0  0  0
 35 44  2  0  0  0
 35 45  1  0  0  0
 35 68  1  0  0  0
 36 56  1  0  0  0
 36107  1  0  0  0
 37 39  1  0  0  0
 37 47  1  0  0  0
 37 66  1  0  0  0
 37108  1  0  0  0
 38 43  2  0  0  0
 38 46  1  0  0  0
 38 47  1  0  0  0
 39 64  1  0  0  0
 39 67  2  0  0  0
 40 52  1  0  0  0
 40 53  2  0  0  0
 40 58  1  0  0  0
 41109  1  0  0  0
 41110  1  0  0  0
 41111  1  0  0  0
 41 48  1  0  0  0
 42 43  1  0  0  0
 42 66  1  0  0  0
 42112  1  0  0  0
 42113  1  0  0  0
 43 44  1  0  0  0
 44114  1  0  0  0
 45 46  2  0  0  0
 45115  1  0  0  0
 46116  1  0  0  0
 47117  1  0  0  0
 47118  1  0  0  0
 48 56  1  0  0  0
 48 65  1  0  0  0
 48119  1  0  0  0
 49 50  1  0  0  0
 49 53  1  0  0  0
 49 64  1  0  0  0
 49120  1  0  0  0
 50 51  1  0  0  0
 50121  1  0  0  0
 50122  1  0  0  0
 51 52  1  0  0  0
 51123  1  0  0  0
 51124  1  0  0  0
 52125  1  0  0  0
 52126  1  0  0  0
 53 54  1  0  0  0
 54 55  2  0  0  0
 54127  1  0  0  0
 55 57  1  0  0  0
 55128  1  0  0  0
 56 69  2  0  0  0
 57 58  2  0  0  0
 57129  1  0  0  0
 58130  1  0  0  0
 59 60  1  0  0  0
 59 61  1  0  0  0
 59 62  1  0  0  0
 60131  1  0  0  0
 60132  1  0  0  0
 60133  1  0  0  0
 61134  1  0  0  0
 61135  1  0  0  0
 61136  1  0  0  0
 62137  1  0  0  0
 62138  1  0  0  0
 62139  1  0  0  0
 63 65  1  0  0  0
 63140  1  0  0  0
 63141  1  0  0  0
 63142  1  0  0  0
 64143  1  0  0  0
 65144  1  0  0  0
 68 81  1  0  0  0
 71 72  2  0  0  0
 71 73  1  0  0  0
 71145  1  0  0  0
 72 80  1  0  0  0
 72 82  1  0  0  0
 73 81  1  0  0  0
 73 83  2  0  0  0
 74 79  1  0  0  0
 74 82  2  0  0  0
 74 83  1  0  0  0
 75 77  1  0  0  0
 75 84  1  0  0  0
 75146  1  0  0  0
 75147  1  0  0  0
 76 78  1  0  0  0
 76 84  1  0  0  0
 76148  1  0  0  0
 76149  1  0  0  0
 77 85  1  0  0  0
 77150  1  0  0  0
 77151  1  0  0  0
 78 85  1  0  0  0
 78152  1  0  0  0
 78153  1  0  0  0
 79154  1  0  0  0
 79155  1  0  0  0
 79156  1  0  0  0
 80157  1  0  0  0
 80158  1  0  0  0
 80 85  1  0  0  0
 81159  1  0  0  0
 81160  1  0  0  0
 85161  1  0  0  0
M  CHG  1  85   1
M  ISO  4   1 100  68 101  81 101  84 100
M  END
> <chiral flag>
0

> <version>
0

> <s_m_source_file>
/data/baiqing/PycharmProjects/Reinvent-master-3.2/result/LINK_invent/BTK/process_docking_weight1_custom_sum_contain_oxygen_bond_distance_aromatic_linkinvent_7_9_3/rearranged_h_0188.sdf

> <i_m_source_file_index>
93

> <r_mmod_Potential_Energy-OPLS-2005>
-327.876800537109

> <r_mmod_Stretch_Energy-OPLS-2005>
71.7117691040039

> <r_mmod_Bend_Energy-OPLS-2005>
144.898056030273

> <r_mmod_Torsional_Energy-OPLS-2005>
395.342407226562

> <r_mmod_Improper_Torsional_Energy-OPLS-2005>
9.4833812713623

> <r_mmod_Van_der_Waal_Energy-OPLS-2005>
170.064422607422

> <r_mmod_Electrostatic_Energy-OPLS-2005>
-690.801025390625

> <r_mmod_Solvation_Energy-OPLS-2005>
-479.623931884766

> <b_mmod_Minimization_Converged-OPLS-2005>
0

> <r_mmod_RMS_Derivative-OPLS-2005>
1.49051856994629

$$$$
94
                    3D
 Structure written by MMmdl.
156165  0  0  1  0            999 V2000
  -30.5743  -14.9528   20.4379 C   0  0  0  0  0  0
  -30.4311  -12.6012   19.5017 C   0  0  0  0  0  0
  -29.5185  -12.5493   18.2555 C   0  0  0  0  0  0
  -28.0507  -12.3316   18.6664 C   0  0  0  0  0  0
  -27.6255  -13.2568   19.8385 C   0  0  2  0  0  0
  -28.6685  -13.3020   20.9763 C   0  0  0  0  0  0
  -25.2462  -13.8224   20.5751 C   0  0  0  0  0  0
  -24.1768  -13.0443   20.9220 C   0  0  0  0  0  0
  -24.6390  -11.6927   20.8736 C   0  0  0  0  0  0
  -23.9060  -10.4298   21.0387 C   0  0  0  0  0  0
  -24.3614   -9.4218   21.9174 C   0  0  0  0  0  0
  -23.6311   -8.2246   22.0747 C   0  0  0  0  0  0
  -22.4295   -8.0278   21.3531 C   0  0  0  0  0  0
  -21.9915   -9.0248   20.4630 C   0  0  0  0  0  0
  -22.7225  -10.2142   20.3028 C   0  0  0  0  0  0
  -21.6850   -6.0733   22.5280 C   0  0  0  0  0  0
  -21.4021   -6.5639   23.8214 C   0  0  0  0  0  0
  -21.3665   -5.6796   24.9177 C   0  0  0  0  0  0
  -21.6056   -4.3060   24.7220 C   0  0  0  0  0  0
  -21.8821   -3.8140   23.4342 C   0  0  0  0  0  0
  -21.9196   -4.6961   22.3403 C   0  0  0  0  0  0
  -22.7796  -13.5226   21.1885 C   0  0  0  0  0  0
  -22.1657   -4.2152   21.0975 F   0  0  0  0  0  0
  -21.5635   -3.4540   25.7729 F   0  0  0  0  0  0
  -29.9394  -13.7113   20.3686 N   0  0  0  0  0  0
  -26.2877  -12.9460   20.3265 N   0  0  0  0  0  0
  -25.9322  -11.6581   20.5724 N   0  0  0  0  0  0
  -22.0428  -12.8213   22.0416 N   0  0  0  0  0  0
  -25.4192  -15.1952   20.4254 N   0  0  0  0  0  0
  -31.7875  -14.9561   20.1930 O   0  0  0  0  0  0
  -21.6650   -6.8877   21.4243 O   0  0  0  0  0  0
  -22.3497  -14.5549   20.6747 O   0  0  0  0  0  0
  -24.6454  -31.8439   23.1873 C   0  0  0  0  0  0
  -25.9223  -32.4695   23.8256 C   0  0  1  0  0  0
  -27.2166  -27.1240   20.1463 C   0  0  0  0  0  0
  -25.5980  -33.8500   24.2193 N   0  0  0  0  0  0
  -23.4484  -30.4622   21.5365 C   0  0  2  0  0  0
  -24.8958  -28.8849   20.1173 C   0  0  0  0  0  0
  -22.7568  -29.4558   22.4903 C   0  0  0  0  0  0
  -18.0302  -28.1394   22.8482 C   0  0  0  0  0  0
  -24.1500  -36.7254   23.2636 C   0  0  0  0  0  0
  -26.0050  -30.7134   21.3852 C   0  0  0  0  0  0
  -26.0765  -29.3210   20.7327 C   0  0  0  0  0  0
  -27.2388  -28.4573   20.7294 C   0  0  0  0  0  0
  -26.0097  -26.7993   19.4869 C   0  0  0  0  0  0
  -24.8761  -27.6369   19.4798 C   0  0  0  0  0  0
  -23.6726  -29.7866   20.1585 C   0  0  0  0  0  0
  -25.4127  -36.3034   24.0320 C   0  0  1  0  0  0
  -20.5917  -28.3724   23.1249 C   0  0  2  0  0  0
  -20.6800  -26.9434   22.5409 C   0  0  0  0  0  0
  -19.5776  -26.6387   21.5218 C   0  0  0  0  0  0
  -18.1950  -26.7937   22.1613 C   0  0  0  0  0  0
  -19.1559  -28.8876   23.2860 C   0  0  0  0  0  0
  -18.9471  -30.1471   23.8883 C   0  0  0  0  0  0
  -17.6471  -30.6597   24.0550 C   0  0  0  0  0  0
  -25.9085  -34.9411   23.5065 C   0  0  0  0  0  0
  -16.5363  -29.9087   23.6335 C   0  0  0  0  0  0
  -16.7287  -28.6502   23.0362 C   0  0  0  0  0  0
  -26.4540  -31.6543   25.0686 C   0  0  0  0  0  0
  -25.3721  -31.3719   26.1377 C   0  0  0  0  0  0
  -27.0392  -30.2946   24.6229 C   0  0  0  0  0  0
  -27.6091  -32.4275   25.7478 C   0  0  0  0  0  0
  -27.5591  -37.1774   24.8448 C   0  0  0  0  0  0
  -21.4264  -29.3053   22.3632 N   0  0  0  0  0  0
  -26.4284  -37.3756   23.9422 N   0  0  0  0  0  0
  -24.7203  -31.0277   22.0922 N   0  0  0  0  0  0
  -23.4204  -28.8107   23.3061 O   0  0  0  0  0  0
  -28.2696  -26.1304   20.1715 O   0  0  0  0  0  0
  -26.5657  -34.8907   22.4635 O   0  0  0  0  0  0
  -23.5574  -32.1324   23.7087 O   0  0  0  0  0  0
  -30.8531  -22.6672   19.0470 C   0  0  0  0  0  0
  -28.9645  -23.3304   20.0544 C   0  0  0  0  0  0
  -29.6135  -21.0252   19.9729 C   0  0  0  0  0  0
  -30.4410  -18.6124   19.3648 C   0  0  0  0  0  0
  -28.9051  -18.6503   21.1617 C   0  0  0  0  0  0
  -29.9675  -17.0877   19.1640 C   0  0  0  0  0  0
  -29.5971  -17.1878   21.4865 C   0  0  0  0  0  0
  -32.0935  -23.0194   18.2471 C   0  0  0  0  0  0
  -27.9518  -24.6035   20.3525 C   0  0  0  0  0  0
  -30.0567  -23.6763   19.3819 N   0  0  0  0  0  0
  -30.6950  -21.3735   19.2962 N   0  0  0  0  0  0
  -28.7000  -21.9855   20.3858 N   0  0  0  0  0  0
  -29.5468  -19.5347   20.1357 N   0  0  0  0  0  0
  -29.8552  -16.1923   20.3660 N   0  0  0  0  0  0
  -31.4674  -12.7464   19.1918 H   0  0  0  0  0  0
  -30.4136  -11.6532   20.0407 H   0  0  0  0  0  0
  -29.8444  -11.7600   17.5765 H   0  0  0  0  0  0
  -29.6072  -13.4853   17.7025 H   0  0  0  0  0  0
  -27.9427  -11.2872   18.9598 H   0  0  0  0  0  0
  -27.3908  -12.4731   17.8083 H   0  0  0  0  0  0
  -27.5833  -14.2602   19.4142 H   0  0  0  0  0  0
  -28.7601  -12.3324   21.4681 H   0  0  0  0  0  0
  -28.3678  -14.0168   21.7436 H   0  0  0  0  0  0
  -25.2740   -9.5719   22.4785 H   0  0  0  0  0  0
  -24.0022   -7.4637   22.7469 H   0  0  0  0  0  0
  -21.0843   -8.8739   19.8950 H   0  0  0  0  0  0
  -22.3641  -10.9688   19.6154 H   0  0  0  0  0  0
  -21.2000   -7.6147   23.9720 H   0  0  0  0  0  0
  -21.1500   -6.0517   25.9090 H   0  0  0  0  0  0
  -22.0597   -2.7604   23.2821 H   0  0  0  0  0  0
  -22.4005  -11.9841   22.4786 H   0  0  0  0  0  0
  -21.1056  -13.1262   22.2607 H   0  0  0  0  0  0
  -24.6691  -15.8630   20.5621 H   0  0  0  0  0  0
  -26.2915  -15.6298   20.1538 H   0  0  0  0  0  0
  -26.7287  -32.5299   23.0982 H   0  0  0  0  0  0
  -25.0116  -33.9614   25.0337 H   0  0  0  0  0  0
  -22.7518  -31.2887   21.3802 H   0  0  0  0  0  0
  -23.3793  -35.9549   23.3220 H   0  0  0  0  0  0
  -24.3607  -36.8958   22.2066 H   0  0  0  0  0  0
  -23.7198  -37.6407   23.6715 H   0  0  0  0  0  0
  -26.1489  -31.4609   20.6046 H   0  0  0  0  0  0
  -26.8817  -30.7757   22.0179 H   0  0  0  0  0  0
  -28.1405  -28.7894   21.2242 H   0  0  0  0  0  0
  -25.9062  -25.8643   18.9604 H   0  0  0  0  0  0
  -23.9786  -27.3005   18.9795 H   0  0  0  0  0  0
  -23.8028  -30.5571   19.3977 H   0  0  0  0  0  0
  -22.7879  -29.2238   19.8542 H   0  0  0  0  0  0
  -25.1307  -36.1861   25.0811 H   0  0  0  0  0  0
  -20.9991  -28.3306   24.1376 H   0  0  0  0  0  0
  -20.5709  -26.2338   23.3621 H   0  0  0  0  0  0
  -21.6662  -26.7460   22.1187 H   0  0  0  0  0  0
  -19.6943  -25.6292   21.1261 H   0  0  0  0  0  0
  -19.6720  -27.3186   20.6738 H   0  0  0  0  0  0
  -17.4231  -26.6693   21.4003 H   0  0  0  0  0  0
  -18.0339  -26.0076   22.9001 H   0  0  0  0  0  0
  -19.7951  -30.7292   24.2246 H   0  0  0  0  0  0
  -17.5025  -31.6280   24.5140 H   0  0  0  0  0  0
  -15.5362  -30.2982   23.7676 H   0  0  0  0  0  0
  -15.8680  -28.0808   22.7100 H   0  0  0  0  0  0
  -24.5931  -30.7046   25.7678 H   0  0  0  0  0  0
  -24.8881  -32.2891   26.4742 H   0  0  0  0  0  0
  -25.8002  -30.8923   27.0188 H   0  0  0  0  0  0
  -26.2987  -29.6675   24.1259 H   0  0  0  0  0  0
  -27.4053  -29.7236   25.4770 H   0  0  0  0  0  0
  -27.8875  -30.4197   23.9500 H   0  0  0  0  0  0
  -27.2734  -33.3628   26.1969 H   0  0  0  0  0  0
  -28.3967  -32.6728   25.0339 H   0  0  0  0  0  0
  -28.0679  -31.8423   26.5462 H   0  0  0  0  0  0
  -28.2539  -38.0143   24.7595 H   0  0  0  0  0  0
  -28.1161  -36.2679   24.6147 H   0  0  0  0  0  0
  -27.2324  -37.1248   25.8849 H   0  0  0  0  0  0
  -20.9490  -29.8738   21.6774 H   0  0  0  0  0  0
  -26.0147  -38.2816   24.1467 H   0  0  0  0  0  0
  -30.5860  -19.0331   18.3687 H   0  0  0  0  0  0
  -31.4275  -18.6290   19.8304 H   0  0  0  0  0  0
  -28.8211  -19.2221   22.0874 H   0  0  0  0  0  0
  -27.8786  -18.4811   20.8368 H   0  0  0  0  0  0
  -30.6481  -16.6221   18.4490 H   0  0  0  0  0  0
  -28.9952  -17.0854   18.6704 H   0  0  0  0  0  0
  -28.9902  -16.6800   22.2387 H   0  0  0  0  0  0
  -30.5556  -17.3701   21.9763 H   0  0  0  0  0  0
  -32.3892  -24.0580   18.3918 H   0  0  0  0  0  0
  -31.9128  -22.8606   17.1842 H   0  0  0  0  0  0
  -32.9355  -22.3910   18.5386 H   0  0  0  0  0  0
  -27.6420  -24.4930   21.3920 H   0  0  0  0  0  0
  -27.0676  -24.3509   19.7742 H   0  0  0  0  0  0
  1 25  1  0  0  0
  1 30  2  0  0  0
  1 84  1  0  0  0
  2  3  1  0  0  0
  2 25  1  0  0  0
  2 85  1  0  0  0
  2 86  1  0  0  0
  3  4  1  0  0  0
  3 87  1  0  0  0
  3 88  1  0  0  0
  4  5  1  0  0  0
  4 89  1  0  0  0
  4 90  1  0  0  0
  5  6  1  0  0  0
  5 26  1  0  0  0
  5 91  1  0  0  0
  6 25  1  0  0  0
  6 92  1  0  0  0
  6 93  1  0  0  0
  7  8  2  0  0  0
  7 26  1  0  0  0
  7 29  1  0  0  0
  8  9  1  0  0  0
  8 22  1  0  0  0
  9 10  1  0  0  0
  9 27  2  0  0  0
 10 11  2  0  0  0
 10 15  1  0  0  0
 11 12  1  0  0  0
 11 94  1  0  0  0
 12 13  2  0  0  0
 12 95  1  0  0  0
 13 14  1  0  0  0
 13 31  1  0  0  0
 14 15  2  0  0  0
 14 96  1  0  0  0
 15 97  1  0  0  0
 16 17  2  0  0  0
 16 21  1  0  0  0
 16 31  1  0  0  0
 17 18  1  0  0  0
 17 98  1  0  0  0
 18 19  2  0  0  0
 18 99  1  0  0  0
 19 20  1  0  0  0
 19 24  1  0  0  0
 20 21  2  0  0  0
 20100  1  0  0  0
 21 23  1  0  0  0
 22 28  1  0  0  0
 22 32  2  0  0  0
 26 27  1  0  0  0
 28101  1  0  0  0
 28102  1  0  0  0
 29103  1  0  0  0
 29104  1  0  0  0
 33 34  1  0  0  0
 33 66  1  0  0  0
 33 70  2  0  0  0
 34 36  1  0  0  0
 34 59  1  0  0  0
 34105  1  0  0  0
 35 44  2  0  0  0
 35 45  1  0  0  0
 35 68  1  0  0  0
 36 56  1  0  0  0
 36106  1  0  0  0
 37 39  1  0  0  0
 37 47  1  0  0  0
 37 66  1  0  0  0
 37107  1  0  0  0
 38 43  2  0  0  0
 38 46  1  0  0  0
 38 47  1  0  0  0
 39 64  1  0  0  0
 39 67  2  0  0  0
 40 52  1  0  0  0
 40 53  2  0  0  0
 40 58  1  0  0  0
 41108  1  0  0  0
 41109  1  0  0  0
 41110  1  0  0  0
 41 48  1  0  0  0
 42 43  1  0  0  0
 42 66  1  0  0  0
 42111  1  0  0  0
 42112  1  0  0  0
 43 44  1  0  0  0
 44113  1  0  0  0
 45 46  2  0  0  0
 45114  1  0  0  0
 46115  1  0  0  0
 47116  1  0  0  0
 47117  1  0  0  0
 48 56  1  0  0  0
 48 65  1  0  0  0
 48118  1  0  0  0
 49 50  1  0  0  0
 49 53  1  0  0  0
 49 64  1  0  0  0
 49119  1  0  0  0
 50 51  1  0  0  0
 50120  1  0  0  0
 50121  1  0  0  0
 51 52  1  0  0  0
 51122  1  0  0  0
 51123  1  0  0  0
 52124  1  0  0  0
 52125  1  0  0  0
 53 54  1  0  0  0
 54 55  2  0  0  0
 54126  1  0  0  0
 55 57  1  0  0  0
 55127  1  0  0  0
 56 69  2  0  0  0
 57 58  2  0  0  0
 57128  1  0  0  0
 58129  1  0  0  0
 59 60  1  0  0  0
 59 61  1  0  0  0
 59 62  1  0  0  0
 60130  1  0  0  0
 60131  1  0  0  0
 60132  1  0  0  0
 61133  1  0  0  0
 61134  1  0  0  0
 61135  1  0  0  0
 62136  1  0  0  0
 62137  1  0  0  0
 62138  1  0  0  0
 63 65  1  0  0  0
 63139  1  0  0  0
 63140  1  0  0  0
 63141  1  0  0  0
 64142  1  0  0  0
 65143  1  0  0  0
 68 79  1  0  0  0
 71 78  1  0  0  0
 71 80  2  0  0  0
 71 81  1  0  0  0
 72 79  1  0  0  0
 72 80  1  0  0  0
 72 82  2  0  0  0
 73 81  2  0  0  0
 73 82  1  0  0  0
 73 83  1  0  0  0
 74 76  1  0  0  0
 74 83  1  0  0  0
 74144  1  0  0  0
 74145  1  0  0  0
 75 77  1  0  0  0
 75 83  1  0  0  0
 75146  1  0  0  0
 75147  1  0  0  0
 76 84  1  0  0  0
 76148  1  0  0  0
 76149  1  0  0  0
 77 84  1  0  0  0
 77150  1  0  0  0
 77151  1  0  0  0
 78152  1  0  0  0
 78153  1  0  0  0
 78154  1  0  0  0
 79155  1  0  0  0
 79156  1  0  0  0
M  ISO  4   1 100  68 101  79 101  84 100
M  END
> <chiral flag>
0

> <version>
0

> <s_m_source_file>
/data/baiqing/PycharmProjects/Reinvent-master-3.2/result/LINK_invent/BTK/process_docking_weight1_custom_sum_contain_oxygen_bond_distance_aromatic_linkinvent_7_9_3/rearranged_h_0188.sdf

> <i_m_source_file_index>
94

> <r_mmod_Potential_Energy-OPLS-2005>
-32.3341484069824

> <r_mmod_Stretch_Energy-OPLS-2005>
241.76286315918

> <r_mmod_Bend_Energy-OPLS-2005>
275.590362548828

> <r_mmod_Torsional_Energy-OPLS-2005>
355.689727783203

> <r_mmod_Improper_Torsional_Energy-OPLS-2005>
15.340425491333

> <r_mmod_Van_der_Waal_Energy-OPLS-2005>
167.034957885742

> <r_mmod_Electrostatic_Energy-OPLS-2005>
-1038.48315429688

> <r_mmod_Solvation_Energy-OPLS-2005>
-245.539459228516

> <b_mmod_Minimization_Converged-OPLS-2005>
0

> <r_mmod_RMS_Derivative-OPLS-2005>
2.42874813079834

$$$$
95
                    3D
 Structure written by MMmdl.
153162  0  0  1  0            999 V2000
  -30.4385  -15.3903   20.3495 C   0  0  0  0  0  0
  -30.4306  -12.8969   19.5373 C   0  0  0  0  0  0
  -29.5412  -12.5910   18.3035 C   0  0  0  0  0  0
  -28.0962  -12.3000   18.7398 C   0  0  0  0  0  0
  -27.6057  -13.2916   19.8217 C   0  0  2  0  0  0
  -28.6375  -13.5325   20.9465 C   0  0  0  0  0  0
  -25.2346  -13.8258   20.5800 C   0  0  0  0  0  0
  -24.1710  -13.0423   20.9291 C   0  0  0  0  0  0
  -24.6392  -11.6931   20.8781 C   0  0  0  0  0  0
  -23.9078  -10.4305   21.0426 C   0  0  0  0  0  0
  -24.3614   -9.4213   21.9204 C   0  0  0  0  0  0
  -23.6272   -8.2257   22.0772 C   0  0  0  0  0  0
  -22.4262   -8.0306   21.3556 C   0  0  0  0  0  0
  -21.9897   -9.0286   20.4675 C   0  0  0  0  0  0
  -22.7237  -10.2159   20.3088 C   0  0  0  0  0  0
  -21.6876   -6.0742   22.5283 C   0  0  0  0  0  0
  -21.4036   -6.5646   23.8209 C   0  0  0  0  0  0
  -21.3646   -5.6800   24.9164 C   0  0  0  0  0  0
  -21.6025   -4.3060   24.7234 C   0  0  0  0  0  0
  -21.8805   -3.8150   23.4356 C   0  0  0  0  0  0
  -21.9189   -4.6968   22.3409 C   0  0  0  0  0  0
  -22.7723  -13.5195   21.1919 C   0  0  0  0  0  0
  -22.1657   -4.2138   21.0992 F   0  0  0  0  0  0
  -21.5611   -3.4547   25.7746 F   0  0  0  0  0  0
  -29.8470  -14.0771   20.2974 N   0  0  0  0  0  0
  -26.2797  -12.9575   20.3261 N   0  0  0  0  0  0
  -25.9344  -11.6655   20.5764 N   0  0  0  0  0  0
  -22.0364  -12.8233   22.0482 N   0  0  0  0  0  0
  -25.3923  -15.1989   20.4251 N   0  0  0  0  0  0
  -31.6589  -15.3104   20.1355 O   0  0  0  0  0  0
  -21.6650   -6.8896   21.4245 O   0  0  0  0  0  0
  -22.3440  -14.5498   20.6750 O   0  0  0  0  0  0
  -24.6711  -31.8152   23.1639 C   0  0  0  0  0  0
  -25.9343  -32.4534   23.8135 C   0  0  1  0  0  0
  -27.2220  -26.8584   20.1877 C   0  0  0  0  0  0
  -25.5990  -33.8358   24.2034 N   0  0  0  0  0  0
  -23.4905  -30.4230   21.5136 C   0  0  2  0  0  0
  -24.9462  -28.7968   20.1118 C   0  0  0  0  0  0
  -22.7708  -29.4381   22.4737 C   0  0  0  0  0  0
  -18.0345  -28.1397   22.8467 C   0  0  0  0  0  0
  -24.1508  -36.7190   23.2654 C   0  0  0  0  0  0
  -26.0637  -30.5956   21.4070 C   0  0  0  0  0  0
  -26.1293  -29.1795   20.7518 C   0  0  0  0  0  0
  -27.2609  -28.2324   20.7635 C   0  0  0  0  0  0
  -26.0072  -26.6429   19.4975 C   0  0  0  0  0  0
  -24.9130  -27.5507   19.4625 C   0  0  0  0  0  0
  -23.7359  -29.7347   20.1416 C   0  0  0  0  0  0
  -25.4147  -36.2918   24.0286 C   0  0  1  0  0  0
  -20.5970  -28.3743   23.1169 C   0  0  2  0  0  0
  -20.6809  -26.9416   22.5391 C   0  0  0  0  0  0
  -19.5782  -26.6356   21.5207 C   0  0  0  0  0  0
  -18.1967  -26.7930   22.1624 C   0  0  0  0  0  0
  -19.1603  -28.8891   23.2814 C   0  0  0  0  0  0
  -18.9504  -30.1479   23.8854 C   0  0  0  0  0  0
  -17.6490  -30.6581   24.0537 C   0  0  0  0  0  0
  -25.9103  -34.9303   23.4971 C   0  0  0  0  0  0
  -16.5384  -29.9059   23.6328 C   0  0  0  0  0  0
  -16.7328  -28.6476   23.0368 C   0  0  0  0  0  0
  -26.4569  -31.6525   25.0701 C   0  0  0  0  0  0
  -25.3659  -31.3822   26.1332 C   0  0  0  0  0  0
  -27.0480  -30.2885   24.6495 C   0  0  0  0  0  0
  -27.6054  -32.4346   25.7505 C   0  0  0  0  0  0
  -27.5554  -37.1772   24.8475 C   0  0  0  0  0  0
  -21.4361  -29.3028   22.3501 N   0  0  0  0  0  0
  -26.4297  -37.3641   23.9361 N   0  0  0  0  0  0
  -24.7633  -30.9742   22.0796 N   0  0  0  0  0  0
  -23.4239  -28.7943   23.2992 O   0  0  0  0  0  0
  -28.2151  -25.7208   20.2696 O   0  0  0  0  0  0
  -26.5715  -34.8844   22.4572 O   0  0  0  0  0  0
  -23.5753  -32.1142   23.6687 O   0  0  0  0  0  0
  -31.1375  -22.5021   21.1615 C   0  0  0  0  0  0
  -29.1553  -22.8055   20.4461 C   0  0  0  0  0  0
  -28.3489  -18.7863   21.2062 C   0  0  0  0  0  0
  -28.4517  -17.1922   20.9051 C   0  0  0  0  0  0
  -30.2285  -18.2917   20.0264 C   0  0  0  0  0  0
  -29.1240  -19.6502   20.1565 C   0  0  2  0  0  0
  -32.5060  -22.8317   21.6660 C   0  0  0  0  0  0
  -27.9762  -24.0600   20.0857 C   0  0  0  0  0  0
  -30.2259  -23.4646   20.9030 N   0  0  0  0  0  0
  -30.7665  -21.2491   20.9376 N   0  0  0  0  0  0
  -29.4879  -21.2970   20.4552 N   0  0  0  0  0  0
  -29.7727  -16.7588   20.3611 N   0  0  0  0  0  0
  -31.4490  -13.0948   19.1976 H   0  0  0  0  0  0
  -30.5182  -12.0198   20.1807 H   0  0  0  0  0  0
  -29.9374  -11.7397   17.7449 H   0  0  0  0  0  0
  -29.5568  -13.4454   17.6251 H   0  0  0  0  0  0
  -28.0773  -11.2865   19.1397 H   0  0  0  0  0  0
  -27.4232  -12.3066   17.8825 H   0  0  0  0  0  0
  -27.4992  -14.2414   19.2947 H   0  0  0  0  0  0
  -28.8425  -12.6201   21.5051 H   0  0  0  0  0  0
  -28.2518  -14.2542   21.6671 H   0  0  0  0  0  0
  -25.2730   -9.5697   22.4803 H   0  0  0  0  0  0
  -23.9949   -7.4676   22.7518 H   0  0  0  0  0  0
  -21.0803   -8.8828   19.9029 H   0  0  0  0  0  0
  -22.3652  -10.9714   19.6237 H   0  0  0  0  0  0
  -21.2064   -7.6162   23.9706 H   0  0  0  0  0  0
  -21.1466   -6.0548   25.9063 H   0  0  0  0  0  0
  -22.0587   -2.7616   23.2883 H   0  0  0  0  0  0
  -22.3919  -11.9873   22.4892 H   0  0  0  0  0  0
  -21.1008  -13.1354   22.2701 H   0  0  0  0  0  0
  -24.6210  -15.8418   20.5659 H   0  0  0  0  0  0
  -26.2364  -15.6529   20.1046 H   0  0  0  0  0  0
  -26.7425  -32.5038   23.0857 H   0  0  0  0  0  0
  -25.0080  -33.9438   25.0148 H   0  0  0  0  0  0
  -22.8057  -31.2562   21.3363 H   0  0  0  0  0  0
  -23.3725  -35.9576   23.3358 H   0  0  0  0  0  0
  -24.3569  -36.8788   22.2058 H   0  0  0  0  0  0
  -23.7349  -37.6424   23.6692 H   0  0  0  0  0  0
  -26.2604  -31.3320   20.6269 H   0  0  0  0  0  0
  -26.9184  -30.6523   22.0704 H   0  0  0  0  0  0
  -28.1545  -28.5217   21.2956 H   0  0  0  0  0  0
  -25.8647  -25.6941   18.9989 H   0  0  0  0  0  0
  -24.0150  -27.2557   18.9382 H   0  0  0  0  0  0
  -23.9031  -30.5015   19.3853 H   0  0  0  0  0  0
  -22.8439  -29.1963   19.8166 H   0  0  0  0  0  0
  -25.1368  -36.1699   25.0783 H   0  0  0  0  0  0
  -21.0089  -28.3343   24.1286 H   0  0  0  0  0  0
  -20.5667  -26.2356   23.3635 H   0  0  0  0  0  0
  -21.6661  -26.7355   22.1201 H   0  0  0  0  0  0
  -19.6924  -25.6245   21.1280 H   0  0  0  0  0  0
  -19.6729  -27.3118   20.6696 H   0  0  0  0  0  0
  -17.4234  -26.6681   21.4038 H   0  0  0  0  0  0
  -18.0377  -26.0088   22.9035 H   0  0  0  0  0  0
  -19.7966  -30.7307   24.2229 H   0  0  0  0  0  0
  -17.5024  -31.6261   24.5133 H   0  0  0  0  0  0
  -15.5376  -30.2939   23.7653 H   0  0  0  0  0  0
  -15.8739  -28.0748   22.7136 H   0  0  0  0  0  0
  -24.5821  -30.7218   25.7603 H   0  0  0  0  0  0
  -24.8889  -32.3050   26.4631 H   0  0  0  0  0  0
  -25.7836  -30.9025   27.0189 H   0  0  0  0  0  0
  -26.3158  -29.6534   24.1495 H   0  0  0  0  0  0
  -27.3978  -29.7288   25.5179 H   0  0  0  0  0  0
  -27.9110  -30.4059   23.9943 H   0  0  0  0  0  0
  -27.2614  -33.3675   26.1976 H   0  0  0  0  0  0
  -28.3912  -32.6861   25.0373 H   0  0  0  0  0  0
  -28.0665  -31.8548   26.5508 H   0  0  0  0  0  0
  -28.2606  -38.0019   24.7365 H   0  0  0  0  0  0
  -28.1008  -36.2532   24.6495 H   0  0  0  0  0  0
  -27.2245  -37.1625   25.8876 H   0  0  0  0  0  0
  -20.9634  -29.8744   21.6639 H   0  0  0  0  0  0
  -26.0131  -38.2711   24.1281 H   0  0  0  0  0  0
  -28.7783  -18.9827   22.1899 H   0  0  0  0  0  0
  -27.3055  -19.0972   21.2677 H   0  0  0  0  0  0
  -27.7034  -16.9297   20.1568 H   0  0  0  0  0  0
  -28.1995  -16.6189   21.7979 H   0  0  0  0  0  0
  -31.0858  -18.4909   20.6690 H   0  0  0  0  0  0
  -30.6419  -18.2923   19.0172 H   0  0  0  0  0  0
  -28.5240  -19.6549   19.2450 H   0  0  0  0  0  0
  -32.6432  -23.9127   21.7418 H   0  0  0  0  0  0
  -33.2729  -22.4510   20.9918 H   0  0  0  0  0  0
  -32.6703  -22.4023   22.6537 H   0  0  0  0  0  0
  -27.0879  -23.8077   20.6643 H   0  0  0  0  0  0
  -27.6761  -23.9083   19.0478 H   0  0  0  0  0  0
  1 25  1  0  0  0
  1 30  2  0  0  0
  1 82  1  0  0  0
  2  3  1  0  0  0
  2 25  1  0  0  0
  2 83  1  0  0  0
  2 84  1  0  0  0
  3  4  1  0  0  0
  3 85  1  0  0  0
  3 86  1  0  0  0
  4  5  1  0  0  0
  4 87  1  0  0  0
  4 88  1  0  0  0
  5  6  1  0  0  0
  5 26  1  0  0  0
  5 89  1  0  0  0
  6 25  1  0  0  0
  6 90  1  0  0  0
  6 91  1  0  0  0
  7  8  2  0  0  0
  7 26  1  0  0  0
  7 29  1  0  0  0
  8  9  1  0  0  0
  8 22  1  0  0  0
  9 10  1  0  0  0
  9 27  2  0  0  0
 10 11  2  0  0  0
 10 15  1  0  0  0
 11 12  1  0  0  0
 11 92  1  0  0  0
 12 13  2  0  0  0
 12 93  1  0  0  0
 13 14  1  0  0  0
 13 31  1  0  0  0
 14 15  2  0  0  0
 14 94  1  0  0  0
 15 95  1  0  0  0
 16 17  2  0  0  0
 16 21  1  0  0  0
 16 31  1  0  0  0
 17 18  1  0  0  0
 17 96  1  0  0  0
 18 19  2  0  0  0
 18 97  1  0  0  0
 19 20  1  0  0  0
 19 24  1  0  0  0
 20 21  2  0  0  0
 20 98  1  0  0  0
 21 23  1  0  0  0
 22 28  1  0  0  0
 22 32  2  0  0  0
 26 27  1  0  0  0
 28 99  1  0  0  0
 28100  1  0  0  0
 29101  1  0  0  0
 29102  1  0  0  0
 33 34  1  0  0  0
 33 66  1  0  0  0
 33 70  2  0  0  0
 34 36  1  0  0  0
 34 59  1  0  0  0
 34103  1  0  0  0
 35 44  2  0  0  0
 35 45  1  0  0  0
 35 68  1  0  0  0
 36 56  1  0  0  0
 36104  1  0  0  0
 37 39  1  0  0  0
 37 47  1  0  0  0
 37 66  1  0  0  0
 37105  1  0  0  0
 38 43  2  0  0  0
 38 46  1  0  0  0
 38 47  1  0  0  0
 39 64  1  0  0  0
 39 67  2  0  0  0
 40 52  1  0  0  0
 40 53  2  0  0  0
 40 58  1  0  0  0
 41106  1  0  0  0
 41107  1  0  0  0
 41108  1  0  0  0
 41 48  1  0  0  0
 42 43  1  0  0  0
 42 66  1  0  0  0
 42109  1  0  0  0
 42110  1  0  0  0
 43 44  1  0  0  0
 44111  1  0  0  0
 45 46  2  0  0  0
 45112  1  0  0  0
 46113  1  0  0  0
 47114  1  0  0  0
 47115  1  0  0  0
 48 56  1  0  0  0
 48 65  1  0  0  0
 48116  1  0  0  0
 49 50  1  0  0  0
 49 53  1  0  0  0
 49 64  1  0  0  0
 49117  1  0  0  0
 50 51  1  0  0  0
 50118  1  0  0  0
 50119  1  0  0  0
 51 52  1  0  0  0
 51120  1  0  0  0
 51121  1  0  0  0
 52122  1  0  0  0
 52123  1  0  0  0
 53 54  1  0  0  0
 54 55  2  0  0  0
 54124  1  0  0  0
 55 57  1  0  0  0
 55125  1  0  0  0
 56 69  2  0  0  0
 57 58  2  0  0  0
 57126  1  0  0  0
 58127  1  0  0  0
 59 60  1  0  0  0
 59 61  1  0  0  0
 59 62  1  0  0  0
 60128  1  0  0  0
 60129  1  0  0  0
 60130  1  0  0  0
 61131  1  0  0  0
 61132  1  0  0  0
 61133  1  0  0  0
 62134  1  0  0  0
 62135  1  0  0  0
 62136  1  0  0  0
 63 65  1  0  0  0
 63137  1  0  0  0
 63138  1  0  0  0
 63139  1  0  0  0
 64140  1  0  0  0
 65141  1  0  0  0
 68 78  1  0  0  0
 71 77  1  0  0  0
 71 79  1  0  0  0
 71 80  2  0  0  0
 72 78  1  0  0  0
 72 79  2  0  0  0
 72 81  1  0  0  0
 73 74  1  0  0  0
 73 76  1  0  0  0
 73142  1  0  0  0
 73143  1  0  0  0
 74 82  1  0  0  0
 74144  1  0  0  0
 74145  1  0  0  0
 75 76  1  0  0  0
 75 82  1  0  0  0
 75146  1  0  0  0
 75147  1  0  0  0
 76 81  1  0  0  0
 76148  1  0  0  0
 77149  1  0  0  0
 77150  1  0  0  0
 77151  1  0  0  0
 78152  1  0  0  0
 78153  1  0  0  0
 80 81  1  0  0  0
M  ISO  4   1 100  68 101  78 101  82 100
M  END
> <chiral flag>
0

> <version>
0

> <s_m_source_file>
/data/baiqing/PycharmProjects/Reinvent-master-3.2/result/LINK_invent/BTK/process_docking_weight1_custom_sum_contain_oxygen_bond_distance_aromatic_linkinvent_7_9_3/rearranged_h_0188.sdf

> <i_m_source_file_index>
95

> <r_mmod_Potential_Energy-OPLS-2005>
1792.99243164062

> <r_mmod_Stretch_Energy-OPLS-2005>
703.822021484375

> <r_mmod_Bend_Energy-OPLS-2005>
609.385070800781

> <r_mmod_Torsional_Energy-OPLS-2005>
319.794708251953

> <r_mmod_Improper_Torsional_Energy-OPLS-2005>
6.4520058631897

> <r_mmod_Van_der_Waal_Energy-OPLS-2005>
98.4626312255859

> <r_mmod_Electrostatic_Energy-OPLS-2005>
-286.151702880859

> <r_mmod_Solvation_Energy-OPLS-2005>
-238.22541809082

> <b_mmod_Minimization_Converged-OPLS-2005>
0

> <r_mmod_RMS_Derivative-OPLS-2005>
4.09834432601929

$$$$
96
                    3D
 Structure written by MMmdl.
163172  0  0  1  0            999 V2000
  -30.6978  -14.4720   20.6081 C   0  0  0  0  0  0
  -30.4274  -12.3202   19.4224 C   0  0  0  0  0  0
  -29.4948  -12.5182   18.2087 C   0  0  0  0  0  0
  -28.0181  -12.3656   18.6220 C   0  0  0  0  0  0
  -27.6635  -13.2032   19.8790 C   0  0  2  0  0  0
  -28.7039  -12.9764   21.0000 C   0  0  0  0  0  0
  -25.2596  -13.8145   20.5671 C   0  0  0  0  0  0
  -24.1844  -13.0437   20.9173 C   0  0  0  0  0  0
  -24.6389  -11.6901   20.8735 C   0  0  0  0  0  0
  -23.9054  -10.4290   21.0402 C   0  0  0  0  0  0
  -24.3605   -9.4204   21.9181 C   0  0  0  0  0  0
  -23.6285   -8.2240   22.0755 C   0  0  0  0  0  0
  -22.4271   -8.0273   21.3543 C   0  0  0  0  0  0
  -21.9903   -9.0245   20.4645 C   0  0  0  0  0  0
  -22.7229  -10.2126   20.3052 C   0  0  0  0  0  0
  -21.6850   -6.0733   22.5275 C   0  0  0  0  0  0
  -21.4011   -6.5635   23.8210 C   0  0  0  0  0  0
  -21.3662   -5.6790   24.9172 C   0  0  0  0  0  0
  -21.6043   -4.3053   24.7227 C   0  0  0  0  0  0
  -21.8822   -3.8148   23.4348 C   0  0  0  0  0  0
  -21.9192   -4.6962   22.3402 C   0  0  0  0  0  0
  -22.7868  -13.5235   21.1837 C   0  0  0  0  0  0
  -22.1662   -4.2148   21.0980 F   0  0  0  0  0  0
  -21.5632   -3.4539   25.7746 F   0  0  0  0  0  0
  -30.0359  -13.2928   20.4554 N   0  0  0  0  0  0
  -26.3029  -12.9309   20.3371 N   0  0  0  0  0  0
  -25.9315  -11.6475   20.5775 N   0  0  0  0  0  0
  -22.0510  -12.8221   22.0389 N   0  0  0  0  0  0
  -25.4331  -15.1862   20.4050 N   0  0  0  0  0  0
  -31.8002  -14.6961   20.0987 O   0  0  0  0  0  0
  -21.6633   -6.8872   21.4238 O   0  0  0  0  0  0
  -22.3557  -14.5554   20.6703 O   0  0  0  0  0  0
  -24.6197  -31.8684   23.2119 C   0  0  0  0  0  0
  -25.9090  -32.4813   23.8424 C   0  0  1  0  0  0
  -27.2351  -27.4111   20.0938 C   0  0  0  0  0  0
  -25.5967  -33.8618   24.2365 N   0  0  0  0  0  0
  -23.4089  -30.4906   21.5539 C   0  0  2  0  0  0
  -24.8548  -28.9603   20.1127 C   0  0  0  0  0  0
  -22.7448  -29.4653   22.5019 C   0  0  0  0  0  0
  -18.0281  -28.1340   22.8474 C   0  0  0  0  0  0
  -24.1494  -36.7291   23.2635 C   0  0  0  0  0  0
  -25.9422  -30.8213   21.3747 C   0  0  0  0  0  0
  -26.0170  -29.4576   20.7141 C   0  0  0  0  0  0
  -27.2087  -28.6922   20.7010 C   0  0  0  0  0  0
  -26.0498  -26.9441   19.4733 C   0  0  0  0  0  0
  -24.8683  -27.7052   19.4859 C   0  0  0  0  0  0
  -23.6195  -29.8299   20.1658 C   0  0  0  0  0  0
  -25.4110  -36.3098   24.0351 C   0  0  1  0  0  0
  -20.5871  -28.3651   23.1308 C   0  0  2  0  0  0
  -20.6784  -26.9388   22.5417 C   0  0  0  0  0  0
  -19.5765  -26.6367   21.5212 C   0  0  0  0  0  0
  -18.1930  -26.7892   22.1596 C   0  0  0  0  0  0
  -19.1529  -28.8815   23.2867 C   0  0  0  0  0  0
  -18.9456  -30.1421   23.8877 C   0  0  0  0  0  0
  -17.6453  -30.6547   24.0548 C   0  0  0  0  0  0
  -25.9057  -34.9464   23.5146 C   0  0  0  0  0  0
  -16.5347  -29.9043   23.6312 C   0  0  0  0  0  0
  -16.7268  -28.6458   23.0340 C   0  0  0  0  0  0
  -26.4516  -31.6581   25.0749 C   0  0  0  0  0  0
  -25.3780  -31.3655   26.1491 C   0  0  0  0  0  0
  -27.0375  -30.3031   24.6126 C   0  0  0  0  0  0
  -27.6106  -32.4294   25.7489 C   0  0  0  0  0  0
  -27.5584  -37.1791   24.8464 C   0  0  0  0  0  0
  -21.4177  -29.3023   22.3745 N   0  0  0  0  0  0
  -26.4288  -37.3787   23.9426 N   0  0  0  0  0  0
  -24.6746  -31.0754   22.1035 N   0  0  0  0  0  0
  -23.4206  -28.8197   23.3073 O   0  0  0  0  0  0
  -28.3953  -26.6490   20.1308 O   0  0  0  0  0  0
  -26.5592  -34.8902   22.4687 O   0  0  0  0  0  0
  -23.5388  -32.1485   23.7472 O   0  0  0  0  0  0
  -28.3068  -20.8101   21.3901 C   0  0  0  0  0  0
  -29.6231  -20.6725   19.1786 C   0  0  0  0  0  0
  -28.9280  -22.2177   21.5773 C   0  0  0  0  0  0
  -30.1511  -22.0988   19.4923 C   0  0  0  0  0  0
  -29.3223  -17.8283   21.8610 C   0  0  0  0  0  0
  -30.3332  -17.7154   20.1030 C   0  0  0  0  0  0
  -30.4104  -16.8626   21.3739 C   0  0  2  0  0  0
  -29.0236  -19.8698   20.3737 C   0  0  1  0  0  0
  -29.4624  -24.3598   20.3701 C   0  0  0  0  0  0
  -28.2438  -25.2223   19.9476 C   0  0  0  0  0  0
  -30.0158  -15.4437   21.2476 N   0  0  0  0  0  0
  -29.9425  -18.8429   20.9791 N   0  3  1  0  0  0
  -29.1635  -22.8895   20.2723 N   0  3  2  0  0  0
  -31.4705  -12.4310   19.1214 H   0  0  0  0  0  0
  -30.3383  -11.3058   19.8136 H   0  0  0  0  0  0
  -29.7400  -11.8023   17.4233 H   0  0  0  0  0  0
  -29.6524  -13.5087   17.7792 H   0  0  0  0  0  0
  -27.8380  -11.3082   18.8196 H   0  0  0  0  0  0
  -27.3633  -12.6369   17.7928 H   0  0  0  0  0  0
  -27.7109  -14.2519   19.5847 H   0  0  0  0  0  0
  -28.6852  -11.9361   21.3285 H   0  0  0  0  0  0
  -28.4569  -13.5621   21.8863 H   0  0  0  0  0  0
  -25.2749   -9.5684   22.4751 H   0  0  0  0  0  0
  -24.0000   -7.4634   22.7471 H   0  0  0  0  0  0
  -21.0838   -8.8753   19.8947 H   0  0  0  0  0  0
  -22.3681  -10.9659   19.6157 H   0  0  0  0  0  0
  -21.1997   -7.6142   23.9713 H   0  0  0  0  0  0
  -21.1481   -6.0521   25.9076 H   0  0  0  0  0  0
  -22.0600   -2.7612   23.2853 H   0  0  0  0  0  0
  -22.4123  -11.9858   22.4745 H   0  0  0  0  0  0
  -21.1131  -13.1238   22.2620 H   0  0  0  0  0  0
  -24.6620  -15.8393   20.4911 H   0  0  0  0  0  0
  -26.2770  -15.6141   20.0475 H   0  0  0  0  0  0
  -26.7167  -32.5515   23.1192 H   0  0  0  0  0  0
  -25.0229  -33.9795   25.0587 H   0  0  0  0  0  0
  -22.6967  -31.3063   21.4157 H   0  0  0  0  0  0
  -23.3770  -35.9608   23.3291 H   0  0  0  0  0  0
  -24.3608  -36.8922   22.2054 H   0  0  0  0  0  0
  -23.7225  -37.6481   23.6661 H   0  0  0  0  0  0
  -26.0727  -31.5904   20.6131 H   0  0  0  0  0  0
  -26.8231  -30.8652   22.0033 H   0  0  0  0  0  0
  -28.1022  -29.0693   21.1797 H   0  0  0  0  0  0
  -26.0101  -25.9904   18.9679 H   0  0  0  0  0  0
  -23.9782  -27.3244   19.0046 H   0  0  0  0  0  0
  -23.7347  -30.6099   19.4118 H   0  0  0  0  0  0
  -22.7426  -29.2549   19.8630 H   0  0  0  0  0  0
  -25.1274  -36.1969   25.0845 H   0  0  0  0  0  0
  -20.9918  -28.3204   24.1444 H   0  0  0  0  0  0
  -20.5711  -26.2253   23.3603 H   0  0  0  0  0  0
  -21.6659  -26.7450   22.1205 H   0  0  0  0  0  0
  -19.6945  -25.6289   21.1210 H   0  0  0  0  0  0
  -19.6695  -27.3203   20.6757 H   0  0  0  0  0  0
  -17.4227  -26.6668   21.3962 H   0  0  0  0  0  0
  -18.0293  -26.0000   22.8946 H   0  0  0  0  0  0
  -19.7939  -30.7226   24.2238 H   0  0  0  0  0  0
  -17.5020  -31.6223   24.5162 H   0  0  0  0  0  0
  -15.5349  -30.2938   23.7649 H   0  0  0  0  0  0
  -15.8668  -28.0770   22.7056 H   0  0  0  0  0  0
  -24.6005  -30.6938   25.7843 H   0  0  0  0  0  0
  -24.8888  -32.2776   26.4917 H   0  0  0  0  0  0
  -25.8150  -30.8869   27.0262 H   0  0  0  0  0  0
  -26.2917  -29.6739   24.1253 H   0  0  0  0  0  0
  -27.4268  -29.7315   25.4567 H   0  0  0  0  0  0
  -27.8708  -30.4397   23.9226 H   0  0  0  0  0  0
  -27.2773  -33.3617   26.2059 H   0  0  0  0  0  0
  -28.3898  -32.6810   25.0282 H   0  0  0  0  0  0
  -28.0801  -31.8411   26.5391 H   0  0  0  0  0  0
  -28.2583  -38.0104   24.7556 H   0  0  0  0  0  0
  -28.1096  -36.2640   24.6233 H   0  0  0  0  0  0
  -27.2315  -37.1389   25.8867 H   0  0  0  0  0  0
  -20.9379  -29.8741   21.6936 H   0  0  0  0  0  0
  -26.0174  -38.2866   24.1425 H   0  0  0  0  0  0
  -27.2878  -20.9617   21.0304 H   0  0  0  0  0  0
  -28.1870  -20.3263   22.3598 H   0  0  0  0  0  0
  -30.3986  -20.0992   18.6704 H   0  0  0  0  0  0
  -28.8319  -20.7824   18.4354 H   0  0  0  0  0  0
  -29.8671  -22.1530   22.1300 H   0  0  0  0  0  0
  -28.2572  -22.8232   22.1898 H   0  0  0  0  0  0
  -30.3641  -22.6071   18.5508 H   0  0  0  0  0  0
  -31.0980  -22.0524   20.0328 H   0  0  0  0  0  0
  -29.3729  -18.0777   22.9219 H   0  0  0  0  0  0
  -28.3091  -17.5451   21.5653 H   0  0  0  0  0  0
  -29.5513  -17.4016   19.4073 H   0  0  0  0  0  0
  -31.2870  -17.8600   19.5952 H   0  0  0  0  0  0
  -31.3527  -17.0009   21.9115 H   0  0  0  0  0  0
  -28.2249  -19.2644   19.9392 H   0  0  0  0  0  0
  -29.7634  -24.6180   21.3868 H   0  0  0  0  0  0
  -30.3079  -24.6235   19.7338 H   0  0  0  0  0  0
  -27.3836  -24.8792   20.5249 H   0  0  0  0  0  0
  -28.0325  -25.0276   18.8956 H   0  0  0  0  0  0
  -29.1400  -15.1616   21.6639 H   0  0  0  0  0  0
  -30.7555  -19.2433   21.4233 H   0  0  0  0  0  0
  -28.2976  -22.8400   19.7541 H   0  0  0  0  0  0
  1 25  1  0  0  0
  1 30  2  0  0  0
  1 81  1  0  0  0
  2  3  1  0  0  0
  2 25  1  0  0  0
  2 84  1  0  0  0
  2 85  1  0  0  0
  3  4  1  0  0  0
  3 86  1  0  0  0
  3 87  1  0  0  0
  4  5  1  0  0  0
  4 88  1  0  0  0
  4 89  1  0  0  0
  5  6  1  0  0  0
  5 26  1  0  0  0
  5 90  1  0  0  0
  6 25  1  0  0  0
  6 91  1  0  0  0
  6 92  1  0  0  0
  7  8  2  0  0  0
  7 26  1  0  0  0
  7 29  1  0  0  0
  8  9  1  0  0  0
  8 22  1  0  0  0
  9 10  1  0  0  0
  9 27  2  0  0  0
 10 11  2  0  0  0
 10 15  1  0  0  0
 11 12  1  0  0  0
 11 93  1  0  0  0
 12 13  2  0  0  0
 12 94  1  0  0  0
 13 14  1  0  0  0
 13 31  1  0  0  0
 14 15  2  0  0  0
 14 95  1  0  0  0
 15 96  1  0  0  0
 16 17  2  0  0  0
 16 21  1  0  0  0
 16 31  1  0  0  0
 17 18  1  0  0  0
 17 97  1  0  0  0
 18 19  2  0  0  0
 18 98  1  0  0  0
 19 20  1  0  0  0
 19 24  1  0  0  0
 20 21  2  0  0  0
 20 99  1  0  0  0
 21 23  1  0  0  0
 22 28  1  0  0  0
 22 32  2  0  0  0
 26 27  1  0  0  0
 28100  1  0  0  0
 28101  1  0  0  0
 29102  1  0  0  0
 29103  1  0  0  0
 33 34  1  0  0  0
 33 66  1  0  0  0
 33 70  2  0  0  0
 34 36  1  0  0  0
 34 59  1  0  0  0
 34104  1  0  0  0
 35 44  2  0  0  0
 35 45  1  0  0  0
 35 68  1  0  0  0
 36 56  1  0  0  0
 36105  1  0  0  0
 37 39  1  0  0  0
 37 47  1  0  0  0
 37 66  1  0  0  0
 37106  1  0  0  0
 38 43  2  0  0  0
 38 46  1  0  0  0
 38 47  1  0  0  0
 39 64  1  0  0  0
 39 67  2  0  0  0
 40 52  1  0  0  0
 40 53  2  0  0  0
 40 58  1  0  0  0
 41107  1  0  0  0
 41108  1  0  0  0
 41109  1  0  0  0
 41 48  1  0  0  0
 42 43  1  0  0  0
 42 66  1  0  0  0
 42110  1  0  0  0
 42111  1  0  0  0
 43 44  1  0  0  0
 44112  1  0  0  0
 45 46  2  0  0  0
 45113  1  0  0  0
 46114  1  0  0  0
 47115  1  0  0  0
 47116  1  0  0  0
 48 56  1  0  0  0
 48 65  1  0  0  0
 48117  1  0  0  0
 49 50  1  0  0  0
 49 53  1  0  0  0
 49 64  1  0  0  0
 49118  1  0  0  0
 50 51  1  0  0  0
 50119  1  0  0  0
 50120  1  0  0  0
 51 52  1  0  0  0
 51121  1  0  0  0
 51122  1  0  0  0
 52123  1  0  0  0
 52124  1  0  0  0
 53 54  1  0  0  0
 54 55  2  0  0  0
 54125  1  0  0  0
 55 57  1  0  0  0
 55126  1  0  0  0
 56 69  2  0  0  0
 57 58  2  0  0  0
 57127  1  0  0  0
 58128  1  0  0  0
 59 60  1  0  0  0
 59 61  1  0  0  0
 59 62  1  0  0  0
 60129  1  0  0  0
 60130  1  0  0  0
 60131  1  0  0  0
 61132  1  0  0  0
 61133  1  0  0  0
 61134  1  0  0  0
 62135  1  0  0  0
 62136  1  0  0  0
 62137  1  0  0  0
 63 65  1  0  0  0
 63138  1  0  0  0
 63139  1  0  0  0
 63140  1  0  0  0
 64141  1  0  0  0
 65142  1  0  0  0
 68 80  1  0  0  0
 71 73  1  0  0  0
 71143  1  0  0  0
 71144  1  0  0  0
 71 78  1  0  0  0
 72 74  1  0  0  0
 72 78  1  0  0  0
 72145  1  0  0  0
 72146  1  0  0  0
 73 83  1  0  0  0
 73147  1  0  0  0
 73148  1  0  0  0
 74 83  1  0  0  0
 74149  1  0  0  0
 74150  1  0  0  0
 75 77  1  0  0  0
 75151  1  0  0  0
 75152  1  0  0  0
 75 82  1  0  0  0
 76 77  1  0  0  0
 76 82  1  0  0  0
 76153  1  0  0  0
 76154  1  0  0  0
 77 81  1  0  0  0
 77155  1  0  0  0
 78 82  1  0  0  0
 78156  1  0  0  0
 79 80  1  0  0  0
 79157  1  0  0  0
 79158  1  0  0  0
 79 83  1  0  0  0
 80159  1  0  0  0
 80160  1  0  0  0
 81161  1  0  0  0
 82162  1  0  0  0
 83163  1  0  0  0
M  CHG  2  82   1  83   1
M  ISO  4   1 100  68 101  80 101  81 100
M  END
> <chiral flag>
0

> <version>
0

> <s_m_source_file>
/data/baiqing/PycharmProjects/Reinvent-master-3.2/result/LINK_invent/BTK/process_docking_weight1_custom_sum_contain_oxygen_bond_distance_aromatic_linkinvent_7_9_3/rearranged_h_0188.sdf

> <i_m_source_file_index>
96

> <r_mmod_Potential_Energy-OPLS-2005>
-223.088043212891

> <r_mmod_Stretch_Energy-OPLS-2005>
45.1724510192871

> <r_mmod_Bend_Energy-OPLS-2005>
133.264221191406

> <r_mmod_Torsional_Energy-OPLS-2005>
295.82275390625

> <r_mmod_Improper_Torsional_Energy-OPLS-2005>
3.0591185092926

> <r_mmod_Van_der_Waal_Energy-OPLS-2005>
141.222457885742

> <r_mmod_Electrostatic_Energy-OPLS-2005>
130.189086914062

> <r_mmod_Solvation_Energy-OPLS-2005>
-986.4189453125

> <b_mmod_Minimization_Converged-OPLS-2005>
0

> <r_mmod_RMS_Derivative-OPLS-2005>
1.71021461486816

$$$$
