0
                    3D
 Structure written by MMmdl.
165173  0  0  1  0            999 V2000
  -30.4721  -15.2319   20.2736 C   0  0  0  0  0  0
  -30.4497  -12.7768   19.4486 C   0  0  0  0  0  0
  -29.5003  -12.5600   18.2438 C   0  0  0  0  0  0
  -28.0416  -12.3254   18.6908 C   0  0  0  0  0  0
  -27.6149  -13.2250   19.8768 C   0  0  2  0  0  0
  -28.7180  -13.3284   20.9507 C   0  0  0  0  0  0
  -25.1941  -13.7683   20.5532 C   0  0  0  0  0  0
  -24.1469  -12.9972   20.9398 C   0  0  0  0  0  0
  -24.6294  -11.6605   20.9091 C   0  0  0  0  0  0
  -23.9017  -10.4015   21.0590 C   0  0  0  0  0  0
  -24.3534   -9.3910   21.9315 C   0  0  0  0  0  0
  -23.6177   -8.1963   22.0784 C   0  0  0  0  0  0
  -22.4193   -8.0061   21.3510 C   0  0  0  0  0  0
  -21.9857   -9.0087   20.4650 C   0  0  0  0  0  0
  -22.7218  -10.1952   20.3138 C   0  0  0  0  0  0
  -21.6778   -6.0607   22.5285 C   0  0  0  0  0  0
  -21.3957   -6.5554   23.8225 C   0  0  0  0  0  0
  -21.3670   -5.6748   24.9211 C   0  0  0  0  0  0
  -21.6103   -4.3010   24.7283 C   0  0  0  0  0  0
  -21.8830   -3.8056   23.4408 C   0  0  0  0  0  0
  -21.9159   -4.6844   22.3447 C   0  0  0  0  0  0
  -22.7477  -13.4838   21.1921 C   0  0  0  0  0  0
  -22.1605   -4.2017   21.1017 F   0  0  0  0  0  0
  -21.5663   -3.4517   25.7818 F   0  0  0  0  0  0
  -29.9101  -13.9087   20.2800 N   0  0  0  0  0  0
  -26.2759  -12.9162   20.3691 N   0  0  0  0  0  0
  -25.9298  -11.6313   20.6247 N   0  0  0  0  0  0
  -22.0081  -12.7920   22.0504 N   0  0  0  0  0  0
  -25.2363  -15.1181   20.3028 N   0  0  0  0  0  0
  -31.7109  -15.1722   20.2780 O   0  0  0  0  0  0
  -21.6519   -6.8681   21.4219 O   0  0  0  0  0  0
  -22.3208  -14.5163   20.6751 O   0  0  0  0  0  0
  -24.6550  -31.8326   23.1756 C   0  0  0  0  0  0
  -25.9257  -32.4629   23.8191 C   0  0  1  0  0  0
  -27.2411  -27.0540   20.1886 C   0  0  0  0  0  0
  -25.5944  -33.8433   24.2100 N   0  0  0  0  0  0
  -23.4644  -30.4485   21.5233 C   0  0  2  0  0  0
  -24.9125  -28.8426   20.1262 C   0  0  0  0  0  0
  -22.7639  -29.4524   22.4822 C   0  0  0  0  0  0
  -18.0335  -28.1447   22.8493 C   0  0  0  0  0  0
  -24.1497  -36.7254   23.2654 C   0  0  0  0  0  0
  -26.0225  -30.6842   21.3808 C   0  0  0  0  0  0
  -26.0930  -29.2820   20.7372 C   0  0  0  0  0  0
  -27.2548  -28.4094   20.7402 C   0  0  0  0  0  0
  -26.0237  -26.7171   19.5550 C   0  0  0  0  0  0
  -24.8934  -27.5743   19.5196 C   0  0  0  0  0  0
  -23.6957  -29.7620   20.1515 C   0  0  0  0  0  0
  -25.4120  -36.2987   24.0317 C   0  0  1  0  0  0
  -20.5955  -28.3761   23.1219 C   0  0  2  0  0  0
  -20.6830  -26.9442   22.5422 C   0  0  0  0  0  0
  -19.5787  -26.6391   21.5254 C   0  0  0  0  0  0
  -18.1963  -26.7970   22.1663 C   0  0  0  0  0  0
  -19.1592  -28.8924   23.2843 C   0  0  0  0  0  0
  -18.9505  -30.1528   23.8839 C   0  0  0  0  0  0
  -17.6491  -30.6595   24.0600 C   0  0  0  0  0  0
  -25.9086  -34.9370   23.5028 C   0  0  0  0  0  0
  -16.5385  -29.9093   23.6379 C   0  0  0  0  0  0
  -16.7320  -28.6565   23.0319 C   0  0  0  0  0  0
  -26.4516  -31.6544   25.0690 C   0  0  0  0  0  0
  -25.3679  -31.3758   26.1384 C   0  0  0  0  0  0
  -27.0398  -30.2940   24.6342 C   0  0  0  0  0  0
  -27.6022  -32.4333   25.7469 C   0  0  0  0  0  0
  -27.5563  -37.1774   24.8465 C   0  0  0  0  0  0
  -21.4320  -29.3052   22.3556 N   0  0  0  0  0  0
  -26.4273  -37.3717   23.9406 N   0  0  0  0  0  0
  -24.7346  -31.0134   22.0815 N   0  0  0  0  0  0
  -23.4237  -28.8109   23.3030 O   0  0  0  0  0  0
  -28.3377  -26.0875   20.1704 O   0  0  0  0  0  0
  -26.5702  -34.8900   22.4623 O   0  0  0  0  0  0
  -23.5653  -32.1210   23.6936 O   0  0  0  0  0  0
  -30.4072  -20.8741   19.2804 C   0  0  0  0  0  0
  -30.6964  -19.4404   19.3496 C   0  0  0  0  0  0
  -28.8165  -20.5906   20.9017 C   0  0  0  0  0  0
  -29.3741  -21.5873   20.0098 C   0  0  0  0  0  0
  -30.0069  -18.4743   20.1755 C   0  0  0  0  0  0
  -27.5076  -16.3386   18.3406 C   0  0  0  0  0  0
  -27.5512  -16.5930   21.0413 C   0  0  0  0  0  0
  -27.6215  -22.9322   18.6954 C   0  0  0  0  0  0
  -29.9500  -23.8261   18.7305 C   0  0  0  0  0  0
  -30.3045  -16.7475   18.2967 C   0  0  0  0  0  0
  -28.3197  -24.5336   20.5492 C   0  0  0  0  0  0
  -28.1981  -16.8153   19.6571 C   0  0  0  0  0  0
  -28.8485  -23.1800   19.6029 C   0  0  0  0  0  0
  -29.7688  -16.7909   19.7612 C   0  0  1  0  0  0
  -29.1278  -19.2068   20.9919 N   0  0  0  0  0  0
  -31.4565  -12.9892   19.0871 H   0  0  0  0  0  0
  -30.5492  -11.8590   20.0286 H   0  0  0  0  0  0
  -29.8416  -11.7182   17.6389 H   0  0  0  0  0  0
  -29.5427  -13.4338   17.5966 H   0  0  0  0  0  0
  -27.9480  -11.2814   18.9881 H   0  0  0  0  0  0
  -27.3608  -12.4703   17.8499 H   0  0  0  0  0  0
  -27.5171  -14.2120   19.4902 H   0  0  0  0  0  0
  -28.9224  -12.3353   21.3511 H   0  0  0  0  0  0
  -28.4428  -13.8973   21.8321 H   0  0  0  0  0  0
  -25.2585   -9.5343   22.5021 H   0  0  0  0  0  0
  -23.9830   -7.4321   22.7489 H   0  0  0  0  0  0
  -21.0789   -8.8654   19.8940 H   0  0  0  0  0  0
  -22.3649  -10.9563   19.6328 H   0  0  0  0  0  0
  -21.1868   -7.6057   23.9708 H   0  0  0  0  0  0
  -21.1522   -6.0449   25.9144 H   0  0  0  0  0  0
  -22.0588   -2.7500   23.2968 H   0  0  0  0  0  0
  -22.3753  -11.9754   22.5128 H   0  0  0  0  0  0
  -21.0695  -13.0987   22.2652 H   0  0  0  0  0  0
  -24.4105  -15.6974   20.4129 H   0  0  0  0  0  0
  -26.0407  -15.6156   19.9421 H   0  0  0  0  0  0
  -26.7347  -32.5221   23.0937 H   0  0  0  0  0  0
  -25.0020  -33.9524   25.0202 H   0  0  0  0  0  0
  -22.7726  -31.2756   21.3550 H   0  0  0  0  0  0
  -23.3750  -35.9602   23.3283 H   0  0  0  0  0  0
  -24.3600  -36.8922   22.2082 H   0  0  0  0  0  0
  -23.7269  -37.6445   23.6718 H   0  0  0  0  0  0
  -26.1837  -31.4234   20.5943 H   0  0  0  0  0  0
  -26.8920  -30.7405   22.0265 H   0  0  0  0  0  0
  -28.1583  -28.7564   21.2230 H   0  0  0  0  0  0
  -25.9321  -25.7452   19.0923 H   0  0  0  0  0  0
  -23.9911  -27.2309   19.0317 H   0  0  0  0  0  0
  -23.8455  -30.5252   19.3852 H   0  0  0  0  0  0
  -22.8080  -29.2076   19.8426 H   0  0  0  0  0  0
  -25.1305  -36.1801   25.0814 H   0  0  0  0  0  0
  -21.0056  -28.3381   24.1346 H   0  0  0  0  0  0
  -20.5784  -26.2364   23.3660 H   0  0  0  0  0  0
  -21.6676  -26.7478   22.1156 H   0  0  0  0  0  0
  -19.6924  -25.6297   21.1290 H   0  0  0  0  0  0
  -19.6704  -27.3218   20.6793 H   0  0  0  0  0  0
  -17.4230  -26.6756   21.4055 H   0  0  0  0  0  0
  -18.0323  -26.0115   22.9067 H   0  0  0  0  0  0
  -19.7966  -30.7412   24.2116 H   0  0  0  0  0  0
  -17.5026  -31.6251   24.5236 H   0  0  0  0  0  0
  -15.5383  -30.2963   23.7710 H   0  0  0  0  0  0
  -15.8755  -28.0901   22.6946 H   0  0  0  0  0  0
  -24.5860  -30.7106   25.7708 H   0  0  0  0  0  0
  -24.8893  -32.2956   26.4762 H   0  0  0  0  0  0
  -25.7967  -30.8965   27.0202 H   0  0  0  0  0  0
  -26.3058  -29.6623   24.1358 H   0  0  0  0  0  0
  -27.3971  -29.7282   25.4948 H   0  0  0  0  0  0
  -27.8950  -30.4134   23.9694 H   0  0  0  0  0  0
  -27.2599  -33.3665   26.1948 H   0  0  0  0  0  0
  -28.3871  -32.6848   25.0320 H   0  0  0  0  0  0
  -28.0646  -31.8539   26.5469 H   0  0  0  0  0  0
  -28.2557  -38.0089   24.7494 H   0  0  0  0  0  0
  -28.1063  -36.2610   24.6278 H   0  0  0  0  0  0
  -27.2293  -37.1414   25.8873 H   0  0  0  0  0  0
  -20.9560  -29.8705   21.6664 H   0  0  0  0  0  0
  -26.0127  -38.2788   24.1389 H   0  0  0  0  0  0
  -30.9657  -21.4160   18.5343 H   0  0  0  0  0  0
  -31.4196  -19.0721   18.6375 H   0  0  0  0  0  0
  -28.0000  -20.8930   21.5390 H   0  0  0  0  0  0
  -26.4249  -16.2877   18.4205 H   0  0  0  0  0  0
  -27.8828  -15.4079   17.9237 H   0  0  0  0  0  0
  -27.6802  -17.0658   17.5465 H   0  0  0  0  0  0
  -26.5837  -17.0866   21.1212 H   0  0  0  0  0  0
  -28.1557  -17.0094   21.8478 H   0  0  0  0  0  0
  -27.4355  -15.5579   21.3030 H   0  0  0  0  0  0
  -27.2269  -23.8696   18.3021 H   0  0  0  0  0  0
  -26.8141  -22.4540   19.2556 H   0  0  0  0  0  0
  -27.8473  -22.2940   17.8374 H   0  0  0  0  0  0
  -30.1437  -23.2684   17.8147 H   0  0  0  0  0  0
  -30.8841  -23.9425   19.2821 H   0  0  0  0  0  0
  -29.6648  -24.8254   18.4018 H   0  0  0  0  0  0
  -30.0853  -15.8047   17.7911 H   0  0  0  0  0  0
  -31.3886  -16.8681   18.2519 H   0  0  0  0  0  0
  -29.8801  -17.5399   17.6809 H   0  0  0  0  0  0
  -28.9291  -24.5118   21.4539 H   0  0  0  0  0  0
  -27.3224  -24.3097   20.9245 H   0  0  0  0  0  0
  -27.8996  -17.8453   19.4746 H   0  0  0  0  0  0
  1 25  1  0  0  0
  1 30  2  0  0  0
  1 84  1  0  0  0
  2  3  1  0  0  0
  2 25  1  0  0  0
  2 86  1  0  0  0
  2 87  1  0  0  0
  3  4  1  0  0  0
  3 88  1  0  0  0
  3 89  1  0  0  0
  4  5  1  0  0  0
  4 90  1  0  0  0
  4 91  1  0  0  0
  5  6  1  0  0  0
  5 26  1  0  0  0
  5 92  1  0  0  0
  6 25  1  0  0  0
  6 93  1  0  0  0
  6 94  1  0  0  0
  7  8  2  0  0  0
  7 26  1  0  0  0
  7 29  1  0  0  0
  8  9  1  0  0  0
  8 22  1  0  0  0
  9 10  1  0  0  0
  9 27  2  0  0  0
 10 11  2  0  0  0
 10 15  1  0  0  0
 11 12  1  0  0  0
 11 95  1  0  0  0
 12 13  2  0  0  0
 12 96  1  0  0  0
 13 14  1  0  0  0
 13 31  1  0  0  0
 14 15  2  0  0  0
 14 97  1  0  0  0
 15 98  1  0  0  0
 16 17  2  0  0  0
 16 21  1  0  0  0
 16 31  1  0  0  0
 17 18  1  0  0  0
 17 99  1  0  0  0
 18 19  2  0  0  0
 18100  1  0  0  0
 19 20  1  0  0  0
 19 24  1  0  0  0
 20 21  2  0  0  0
 20101  1  0  0  0
 21 23  1  0  0  0
 22 28  1  0  0  0
 22 32  2  0  0  0
 26 27  1  0  0  0
 28102  1  0  0  0
 28103  1  0  0  0
 29104  1  0  0  0
 29105  1  0  0  0
 33 34  1  0  0  0
 33 66  1  0  0  0
 33 70  2  0  0  0
 34 36  1  0  0  0
 34 59  1  0  0  0
 34106  1  0  0  0
 35 44  2  0  0  0
 35 45  1  0  0  0
 35 68  1  0  0  0
 36 56  1  0  0  0
 36107  1  0  0  0
 37 39  1  0  0  0
 37 47  1  0  0  0
 37 66  1  0  0  0
 37108  1  0  0  0
 38 43  2  0  0  0
 38 46  1  0  0  0
 38 47  1  0  0  0
 39 64  1  0  0  0
 39 67  2  0  0  0
 40 52  1  0  0  0
 40 53  2  0  0  0
 40 58  1  0  0  0
 41109  1  0  0  0
 41110  1  0  0  0
 41111  1  0  0  0
 41 48  1  0  0  0
 42 43  1  0  0  0
 42 66  1  0  0  0
 42112  1  0  0  0
 42113  1  0  0  0
 43 44  1  0  0  0
 44114  1  0  0  0
 45 46  2  0  0  0
 45115  1  0  0  0
 46116  1  0  0  0
 47117  1  0  0  0
 47118  1  0  0  0
 48 56  1  0  0  0
 48 65  1  0  0  0
 48119  1  0  0  0
 49 50  1  0  0  0
 49 53  1  0  0  0
 49 64  1  0  0  0
 49120  1  0  0  0
 50 51  1  0  0  0
 50121  1  0  0  0
 50122  1  0  0  0
 51 52  1  0  0  0
 51123  1  0  0  0
 51124  1  0  0  0
 52125  1  0  0  0
 52126  1  0  0  0
 53 54  1  0  0  0
 54 55  2  0  0  0
 54127  1  0  0  0
 55 57  1  0  0  0
 55128  1  0  0  0
 56 69  2  0  0  0
 57 58  2  0  0  0
 57129  1  0  0  0
 58130  1  0  0  0
 59 60  1  0  0  0
 59 61  1  0  0  0
 59 62  1  0  0  0
 60131  1  0  0  0
 60132  1  0  0  0
 60133  1  0  0  0
 61134  1  0  0  0
 61135  1  0  0  0
 61136  1  0  0  0
 62137  1  0  0  0
 62138  1  0  0  0
 62139  1  0  0  0
 63 65  1  0  0  0
 63140  1  0  0  0
 63141  1  0  0  0
 63142  1  0  0  0
 64143  1  0  0  0
 65144  1  0  0  0
 68 81  1  0  0  0
 71 72  2  0  0  0
 71 74  1  0  0  0
 71145  1  0  0  0
 72 75  1  0  0  0
 72146  1  0  0  0
 73 74  2  0  0  0
 73 85  1  0  0  0
 73147  1  0  0  0
 74 83  1  0  0  0
 75 84  1  0  0  0
 75 85  2  0  0  0
 76148  1  0  0  0
 76149  1  0  0  0
 76150  1  0  0  0
 76 82  1  0  0  0
 77 82  1  0  0  0
 77151  1  0  0  0
 77152  1  0  0  0
 77153  1  0  0  0
 78154  1  0  0  0
 78155  1  0  0  0
 78156  1  0  0  0
 78 83  1  0  0  0
 79 83  1  0  0  0
 79157  1  0  0  0
 79158  1  0  0  0
 79159  1  0  0  0
 80160  1  0  0  0
 80161  1  0  0  0
 80162  1  0  0  0
 80 84  1  0  0  0
 81 83  1  0  0  0
 81163  1  0  0  0
 81164  1  0  0  0
 82 84  1  0  0  0
 82165  1  0  0  0
M  ISO  4   1 100  68 101  81 101  84 100
M  END
> <chiral flag>
0

> <version>
0

> <s_m_source_file>
/data/baiqing/PycharmProjects/Reinvent-master-3.2/result/LINK_invent/BTK/process_docking_weight1_custom_sum_contain_oxygen_bond_distance_aromatic_linkinvent_7_9_3/rearranged_h_0074.sdf

> <i_m_source_file_index>
1

> <r_mmod_Potential_Energy-OPLS-2005>
1312.46533203125

> <r_mmod_Stretch_Energy-OPLS-2005>
468.797546386719

> <r_mmod_Bend_Energy-OPLS-2005>
519.374877929688

> <r_mmod_Torsional_Energy-OPLS-2005>
284.002990722656

> <r_mmod_Improper_Torsional_Energy-OPLS-2005>
22.4001388549805

> <r_mmod_Van_der_Waal_Energy-OPLS-2005>
201.141632080078

> <r_mmod_Electrostatic_Energy-OPLS-2005>
-349.737670898438

> <r_mmod_Solvation_Energy-OPLS-2005>
-182.867279052734

> <b_mmod_Minimization_Converged-OPLS-2005>
0

> <r_mmod_RMS_Derivative-OPLS-2005>
5.69509935379028

$$$$
1
                    3D
 Structure written by MMmdl.
163171  0  0  1  0            999 V2000
  -30.5337  -14.9620   20.4200 C   0  0  0  0  0  0
  -30.4428  -12.5821   19.5338 C   0  0  0  0  0  0
  -29.5401  -12.5313   18.2800 C   0  0  0  0  0  0
  -28.0698  -12.3138   18.6834 C   0  0  0  0  0  0
  -27.6331  -13.2493   19.8414 C   0  0  2  0  0  0
  -28.6655  -13.2894   20.9860 C   0  0  0  0  0  0
  -25.2469  -13.8197   20.5687 C   0  0  0  0  0  0
  -24.1791  -13.0412   20.9238 C   0  0  0  0  0  0
  -24.6430  -11.6912   20.8785 C   0  0  0  0  0  0
  -23.9090  -10.4285   21.0449 C   0  0  0  0  0  0
  -24.3639   -9.4199   21.9222 C   0  0  0  0  0  0
  -23.6307   -8.2223   22.0789 C   0  0  0  0  0  0
  -22.4278   -8.0278   21.3578 C   0  0  0  0  0  0
  -21.9935   -9.0240   20.4646 C   0  0  0  0  0  0
  -22.7277  -10.2117   20.3075 C   0  0  0  0  0  0
  -21.6825   -6.0726   22.5315 C   0  0  0  0  0  0
  -21.4010   -6.5642   23.8244 C   0  0  0  0  0  0
  -21.3691   -5.6806   24.9210 C   0  0  0  0  0  0
  -21.6050   -4.3065   24.7257 C   0  0  0  0  0  0
  -21.8795   -3.8143   23.4375 C   0  0  0  0  0  0
  -21.9180   -4.6957   22.3433 C   0  0  0  0  0  0
  -22.7817  -13.5194   21.1894 C   0  0  0  0  0  0
  -22.1642   -4.2138   21.1010 F   0  0  0  0  0  0
  -21.5655   -3.4561   25.7774 F   0  0  0  0  0  0
  -29.9499  -13.6912   20.4028 N   0  0  0  0  0  0
  -26.2907  -12.9433   20.3209 N   0  0  0  0  0  0
  -25.9369  -11.6563   20.5751 N   0  0  0  0  0  0
  -22.0448  -12.8171   22.0427 N   0  0  0  0  0  0
  -25.4071  -15.1917   20.4103 N   0  0  0  0  0  0
  -31.7369  -14.9779   20.1405 O   0  0  0  0  0  0
  -21.6637   -6.8881   21.4280 O   0  0  0  0  0  0
  -22.3504  -14.5493   20.6744 O   0  0  0  0  0  0
  -24.6449  -31.8471   23.1794 C   0  0  0  0  0  0
  -25.9202  -32.4736   23.8227 C   0  0  1  0  0  0
  -27.2175  -27.1139   20.1372 C   0  0  0  0  0  0
  -25.5947  -33.8551   24.2160 N   0  0  0  0  0  0
  -23.4501  -30.4655   21.5295 C   0  0  2  0  0  0
  -24.8998  -28.8895   20.1119 C   0  0  0  0  0  0
  -22.7573  -29.4573   22.4832 C   0  0  0  0  0  0
  -18.0320  -28.1384   22.8492 C   0  0  0  0  0  0
  -24.1542  -36.7380   23.2624 C   0  0  0  0  0  0
  -26.0086  -30.7159   21.3775 C   0  0  0  0  0  0
  -26.0837  -29.3224   20.7210 C   0  0  0  0  0  0
  -27.2458  -28.4556   20.7104 C   0  0  0  0  0  0
  -25.9889  -26.7789   19.5245 C   0  0  0  0  0  0
  -24.8664  -27.6305   19.4997 C   0  0  0  0  0  0
  -23.6800  -29.7975   20.1497 C   0  0  0  0  0  0
  -25.4160  -36.3095   24.0269 C   0  0  1  0  0  0
  -20.5932  -28.3754   23.1211 C   0  0  2  0  0  0
  -20.6839  -26.9459   22.5383 C   0  0  0  0  0  0
  -19.5813  -26.6387   21.5204 C   0  0  0  0  0  0
  -18.1979  -26.7933   22.1597 C   0  0  0  0  0  0
  -19.1568  -28.8889   23.2846 C   0  0  0  0  0  0
  -18.9467  -30.1482   23.8869 C   0  0  0  0  0  0
  -17.6463  -30.6597   24.0552 C   0  0  0  0  0  0
  -25.9064  -34.9450   23.5022 C   0  0  0  0  0  0
  -16.5368  -29.9049   23.6375 C   0  0  0  0  0  0
  -16.7296  -28.6460   23.0401 C   0  0  0  0  0  0
  -26.4493  -31.6585   25.0668 C   0  0  0  0  0  0
  -25.3618  -31.3791   26.1312 C   0  0  0  0  0  0
  -27.0329  -30.2961   24.6259 C   0  0  0  0  0  0
  -27.6028  -32.4331   25.7493 C   0  0  0  0  0  0
  -27.5621  -37.1861   24.8424 C   0  0  0  0  0  0
  -21.4256  -29.3078   22.3574 N   0  0  0  0  0  0
  -26.4351  -37.3779   23.9336 N   0  0  0  0  0  0
  -24.7220  -31.0293   22.0855 N   0  0  0  0  0  0
  -23.4207  -28.8108   23.2978 O   0  0  0  0  0  0
  -28.2778  -26.1224   20.1913 O   0  0  0  0  0  0
  -26.5653  -34.8928   22.4606 O   0  0  0  0  0  0
  -23.5544  -32.1372   23.6972 O   0  0  0  0  0  0
  -27.7055  -20.9323   20.8538 C   0  0  0  0  0  0
  -28.8256  -21.6709   20.3689 C   0  0  0  0  0  0
  -27.9972  -19.5728   20.8019 C   0  0  0  0  0  0
  -27.1018  -18.4552   21.2119 C   0  0  0  0  0  0
  -31.3686  -17.0598   17.8840 C   0  0  0  0  0  0
  -31.9587  -19.2952   18.7568 C   0  0  0  0  0  0
  -28.0963  -24.4769   18.3421 C   0  0  0  0  0  0
  -29.0821  -23.3171   20.4276 C   0  0  0  0  0  0
  -29.7696  -16.4326   20.7031 C   0  0  0  0  0  0
  -31.3333  -17.9475   19.1519 C   0  0  0  0  0  0
  -29.9152  -17.9049   19.8363 C   0  0  2  0  0  0
  -28.0941  -24.5869   19.8791 C   0  0  1  0  0  0
  -29.7336  -20.6636   20.0240 N   0  0  0  0  0  0
  -29.2739  -19.3266   20.2866 N   0  0  0  0  0  0
  -31.4854  -12.7157   19.2393 H   0  0  0  0  0  0
  -30.4104  -11.6319   20.0717 H   0  0  0  0  0  0
  -29.8697  -11.7392   17.6076 H   0  0  0  0  0  0
  -29.6362  -13.4636   17.7244 H   0  0  0  0  0  0
  -27.9662  -11.2725   18.9894 H   0  0  0  0  0  0
  -27.4170  -12.4461   17.8207 H   0  0  0  0  0  0
  -27.5980  -14.2501   19.4124 H   0  0  0  0  0  0
  -28.7467  -12.3218   21.4836 H   0  0  0  0  0  0
  -28.3581  -14.0000   21.7541 H   0  0  0  0  0  0
  -25.2785   -9.5661   22.4807 H   0  0  0  0  0  0
  -24.0002   -7.4616   22.7536 H   0  0  0  0  0  0
  -21.0869   -8.8773   19.8944 H   0  0  0  0  0  0
  -22.3775  -10.9656   19.6184 H   0  0  0  0  0  0
  -21.1997   -7.6152   23.9752 H   0  0  0  0  0  0
  -21.1558   -6.0547   25.9122 H   0  0  0  0  0  0
  -22.0543   -2.7602   23.2899 H   0  0  0  0  0  0
  -22.3996  -11.9799   22.4796 H   0  0  0  0  0  0
  -21.1111  -13.1277   22.2665 H   0  0  0  0  0  0
  -24.6175  -15.8240   20.4796 H   0  0  0  0  0  0
  -26.2375  -15.6319   20.0379 H   0  0  0  0  0  0
  -26.7274  -32.5329   23.0956 H   0  0  0  0  0  0
  -25.0100  -33.9705   25.0310 H   0  0  0  0  0  0
  -22.7544  -31.2920   21.3735 H   0  0  0  0  0  0
  -23.3762  -35.9753   23.3246 H   0  0  0  0  0  0
  -24.3647  -36.9096   22.2060 H   0  0  0  0  0  0
  -23.7362  -37.6577   23.6716 H   0  0  0  0  0  0
  -26.1476  -31.4633   20.5965 H   0  0  0  0  0  0
  -26.8834  -30.7823   22.0112 H   0  0  0  0  0  0
  -28.1511  -28.7895   21.1990 H   0  0  0  0  0  0
  -25.8407  -25.8072   19.0860 H   0  0  0  0  0  0
  -23.9572  -27.2880   19.0267 H   0  0  0  0  0  0
  -23.8218  -30.5759   19.3976 H   0  0  0  0  0  0
  -22.7913  -29.2478   19.8356 H   0  0  0  0  0  0
  -25.1368  -36.1941   25.0759 H   0  0  0  0  0  0
  -21.0065  -28.3368   24.1312 H   0  0  0  0  0  0
  -20.5804  -26.2351   23.3602 H   0  0  0  0  0  0
  -21.6689  -26.7507   22.1128 H   0  0  0  0  0  0
  -19.6995  -25.6276   21.1280 H   0  0  0  0  0  0
  -19.6753  -27.3162   20.6708 H   0  0  0  0  0  0
  -17.4268  -26.6726   21.3977 H   0  0  0  0  0  0
  -18.0339  -26.0044   22.8949 H   0  0  0  0  0  0
  -19.7926  -30.7324   24.2237 H   0  0  0  0  0  0
  -17.4989  -31.6288   24.5119 H   0  0  0  0  0  0
  -15.5355  -30.2917   23.7731 H   0  0  0  0  0  0
  -15.8694  -28.0752   22.7166 H   0  0  0  0  0  0
  -24.5820  -30.7145   25.7568 H   0  0  0  0  0  0
  -24.8744  -32.2973   26.4601 H   0  0  0  0  0  0
  -25.7804  -30.9012   27.0177 H   0  0  0  0  0  0
  -26.2908  -29.6684   24.1301 H   0  0  0  0  0  0
  -27.3961  -29.7283   25.4838 H   0  0  0  0  0  0
  -27.8817  -30.4169   23.9525 H   0  0  0  0  0  0
  -27.2641  -33.3662   26.2016 H   0  0  0  0  0  0
  -28.3886  -32.6858   25.0358 H   0  0  0  0  0  0
  -28.0637  -31.8470   26.5462 H   0  0  0  0  0  0
  -28.2566  -38.0230   24.7498 H   0  0  0  0  0  0
  -28.1210  -36.2748   24.6229 H   0  0  0  0  0  0
  -27.2323  -37.1477   25.8822 H   0  0  0  0  0  0
  -20.9445  -29.8807   21.6772 H   0  0  0  0  0  0
  -26.0239  -38.2865   24.1249 H   0  0  0  0  0  0
  -26.7845  -21.3537   21.2321 H   0  0  0  0  0  0
  -26.9035  -17.7870   20.3755 H   0  0  0  0  0  0
  -26.1456  -18.8305   21.5725 H   0  0  0  0  0  0
  -27.5506  -17.8772   22.0178 H   0  0  0  0  0  0
  -32.3937  -16.8384   17.5802 H   0  0  0  0  0  0
  -30.8734  -17.5498   17.0467 H   0  0  0  0  0  0
  -30.8606  -16.1071   18.0088 H   0  0  0  0  0  0
  -32.9281  -19.1441   18.2795 H   0  0  0  0  0  0
  -32.1379  -19.9315   19.6226 H   0  0  0  0  0  0
  -31.3352  -19.8299   18.0387 H   0  0  0  0  0  0
  -27.8248  -23.4687   18.0297 H   0  0  0  0  0  0
  -29.0861  -24.6887   17.9401 H   0  0  0  0  0  0
  -27.4106  -25.1617   17.8511 H   0  0  0  0  0  0
  -30.0611  -23.4959   19.9847 H   0  0  0  0  0  0
  -29.2426  -23.5407   21.4819 H   0  0  0  0  0  0
  -28.7084  -16.1962   20.7440 H   0  0  0  0  0  0
  -30.0367  -16.6673   21.7330 H   0  0  0  0  0  0
  -32.0278  -17.5293   19.8799 H   0  0  0  0  0  0
  -29.2555  -17.6936   18.9956 H   0  0  0  0  0  0
  -27.0976  -24.3408   20.2468 H   0  0  0  0  0  0
  1 25  1  0  0  0
  1 30  2  0  0  0
  1 79  1  0  0  0
  2  3  1  0  0  0
  2 25  1  0  0  0
  2 85  1  0  0  0
  2 86  1  0  0  0
  3  4  1  0  0  0
  3 87  1  0  0  0
  3 88  1  0  0  0
  4  5  1  0  0  0
  4 89  1  0  0  0
  4 90  1  0  0  0
  5  6  1  0  0  0
  5 26  1  0  0  0
  5 91  1  0  0  0
  6 25  1  0  0  0
  6 92  1  0  0  0
  6 93  1  0  0  0
  7  8  2  0  0  0
  7 26  1  0  0  0
  7 29  1  0  0  0
  8  9  1  0  0  0
  8 22  1  0  0  0
  9 10  1  0  0  0
  9 27  2  0  0  0
 10 11  2  0  0  0
 10 15  1  0  0  0
 11 12  1  0  0  0
 11 94  1  0  0  0
 12 13  2  0  0  0
 12 95  1  0  0  0
 13 14  1  0  0  0
 13 31  1  0  0  0
 14 15  2  0  0  0
 14 96  1  0  0  0
 15 97  1  0  0  0
 16 17  2  0  0  0
 16 21  1  0  0  0
 16 31  1  0  0  0
 17 18  1  0  0  0
 17 98  1  0  0  0
 18 19  2  0  0  0
 18 99  1  0  0  0
 19 20  1  0  0  0
 19 24  1  0  0  0
 20 21  2  0  0  0
 20100  1  0  0  0
 21 23  1  0  0  0
 22 28  1  0  0  0
 22 32  2  0  0  0
 26 27  1  0  0  0
 28101  1  0  0  0
 28102  1  0  0  0
 29103  1  0  0  0
 29104  1  0  0  0
 33 34  1  0  0  0
 33 66  1  0  0  0
 33 70  2  0  0  0
 34 36  1  0  0  0
 34 59  1  0  0  0
 34105  1  0  0  0
 35 44  2  0  0  0
 35 45  1  0  0  0
 35 68  1  0  0  0
 36 56  1  0  0  0
 36106  1  0  0  0
 37 39  1  0  0  0
 37 47  1  0  0  0
 37 66  1  0  0  0
 37107  1  0  0  0
 38 43  2  0  0  0
 38 46  1  0  0  0
 38 47  1  0  0  0
 39 64  1  0  0  0
 39 67  2  0  0  0
 40 52  1  0  0  0
 40 53  2  0  0  0
 40 58  1  0  0  0
 41108  1  0  0  0
 41109  1  0  0  0
 41110  1  0  0  0
 41 48  1  0  0  0
 42 43  1  0  0  0
 42 66  1  0  0  0
 42111  1  0  0  0
 42112  1  0  0  0
 43 44  1  0  0  0
 44113  1  0  0  0
 45 46  2  0  0  0
 45114  1  0  0  0
 46115  1  0  0  0
 47116  1  0  0  0
 47117  1  0  0  0
 48 56  1  0  0  0
 48 65  1  0  0  0
 48118  1  0  0  0
 49 50  1  0  0  0
 49 53  1  0  0  0
 49 64  1  0  0  0
 49119  1  0  0  0
 50 51  1  0  0  0
 50120  1  0  0  0
 50121  1  0  0  0
 51 52  1  0  0  0
 51122  1  0  0  0
 51123  1  0  0  0
 52124  1  0  0  0
 52125  1  0  0  0
 53 54  1  0  0  0
 54 55  2  0  0  0
 54126  1  0  0  0
 55 57  1  0  0  0
 55127  1  0  0  0
 56 69  2  0  0  0
 57 58  2  0  0  0
 57128  1  0  0  0
 58129  1  0  0  0
 59 60  1  0  0  0
 59 61  1  0  0  0
 59 62  1  0  0  0
 60130  1  0  0  0
 60131  1  0  0  0
 60132  1  0  0  0
 61133  1  0  0  0
 61134  1  0  0  0
 61135  1  0  0  0
 62136  1  0  0  0
 62137  1  0  0  0
 62138  1  0  0  0
 63 65  1  0  0  0
 63139  1  0  0  0
 63140  1  0  0  0
 63141  1  0  0  0
 64142  1  0  0  0
 65143  1  0  0  0
 68 82  1  0  0  0
 71 72  1  0  0  0
 71 73  2  0  0  0
 71144  1  0  0  0
 72 78  1  0  0  0
 72 83  2  0  0  0
 73 74  1  0  0  0
 73 84  1  0  0  0
 74145  1  0  0  0
 74146  1  0  0  0
 74147  1  0  0  0
 75148  1  0  0  0
 75149  1  0  0  0
 75150  1  0  0  0
 75 80  1  0  0  0
 76 80  1  0  0  0
 76151  1  0  0  0
 76152  1  0  0  0
 76153  1  0  0  0
 77154  1  0  0  0
 77155  1  0  0  0
 77156  1  0  0  0
 77 82  1  0  0  0
 78 82  1  0  0  0
 78157  1  0  0  0
 78158  1  0  0  0
 79159  1  0  0  0
 79160  1  0  0  0
 79 81  1  0  0  0
 80 81  1  0  0  0
 80161  1  0  0  0
 81 84  1  0  0  0
 81162  1  0  0  0
 82163  1  0  0  0
 83 84  1  0  0  0
M  ISO  4   1 100  68 101  79 100  82 101
M  END
> <chiral flag>
0

> <version>
0

> <s_m_source_file>
/data/baiqing/PycharmProjects/Reinvent-master-3.2/result/LINK_invent/BTK/process_docking_weight1_custom_sum_contain_oxygen_bond_distance_aromatic_linkinvent_7_9_3/rearranged_h_0074.sdf

> <i_m_source_file_index>
2

> <r_mmod_Potential_Energy-OPLS-2005>
624.916137695312

> <r_mmod_Stretch_Energy-OPLS-2005>
319.455383300781

> <r_mmod_Bend_Energy-OPLS-2005>
320.234436035156

> <r_mmod_Torsional_Energy-OPLS-2005>
197.947616577148

> <r_mmod_Improper_Torsional_Energy-OPLS-2005>
4.35422039031982

> <r_mmod_Van_der_Waal_Energy-OPLS-2005>
119.072929382324

> <r_mmod_Electrostatic_Energy-OPLS-2005>
-334.631164550781

> <r_mmod_Solvation_Energy-OPLS-2005>
-202.838531494141

> <b_mmod_Minimization_Converged-OPLS-2005>
0

> <r_mmod_RMS_Derivative-OPLS-2005>
3.48719644546509

$$$$
2
                    3D
 Structure written by MMmdl.
158166  0  0  1  0            999 V2000
  -30.5346  -14.9925   20.4491 C   0  0  0  0  0  0
  -30.4556  -12.6206   19.4867 C   0  0  0  0  0  0
  -29.5217  -12.5415   18.2531 C   0  0  0  0  0  0
  -28.0598  -12.2922   18.6759 C   0  0  0  0  0  0
  -27.6346  -13.2116   19.8445 C   0  0  2  0  0  0
  -28.6952  -13.2172   20.9757 C   0  0  0  0  0  0
  -25.2395  -13.8067   20.5596 C   0  0  0  0  0  0
  -24.1742  -13.0329   20.9229 C   0  0  0  0  0  0
  -24.6375  -11.6824   20.8807 C   0  0  0  0  0  0
  -23.9053  -10.4221   21.0451 C   0  0  0  0  0  0
  -24.3613   -9.4155   21.9226 C   0  0  0  0  0  0
  -23.6294   -8.2186   22.0760 C   0  0  0  0  0  0
  -22.4280   -8.0240   21.3540 C   0  0  0  0  0  0
  -21.9921   -9.0219   20.4656 C   0  0  0  0  0  0
  -22.7235  -10.2097   20.3080 C   0  0  0  0  0  0
  -21.6843   -6.0727   22.5291 C   0  0  0  0  0  0
  -21.3999   -6.5626   23.8229 C   0  0  0  0  0  0
  -21.3653   -5.6781   24.9193 C   0  0  0  0  0  0
  -21.6047   -4.3048   24.7232 C   0  0  0  0  0  0
  -21.8816   -3.8142   23.4352 C   0  0  0  0  0  0
  -21.9185   -4.6960   22.3408 C   0  0  0  0  0  0
  -22.7765  -13.5129   21.1888 C   0  0  0  0  0  0
  -22.1653   -4.2156   21.0987 F   0  0  0  0  0  0
  -21.5658   -3.4521   25.7736 F   0  0  0  0  0  0
  -29.9568  -13.7067   20.3902 N   0  0  0  0  0  0
  -26.2893  -12.9274   20.3290 N   0  0  0  0  0  0
  -25.9312  -11.6447   20.5833 N   0  0  0  0  0  0
  -22.0419  -12.8159   22.0474 N   0  0  0  0  0  0
  -25.3793  -15.1779   20.3800 N   0  0  0  0  0  0
  -31.7221  -15.0199   20.0997 O   0  0  0  0  0  0
  -21.6637   -6.8849   21.4235 O   0  0  0  0  0  0
  -22.3447  -14.5432   20.6719 O   0  0  0  0  0  0
  -24.6425  -31.8433   23.1876 C   0  0  0  0  0  0
  -25.9197  -32.4695   23.8266 C   0  0  1  0  0  0
  -27.2418  -27.1494   20.1527 C   0  0  0  0  0  0
  -25.5948  -33.8503   24.2182 N   0  0  0  0  0  0
  -23.4483  -30.4608   21.5328 C   0  0  2  0  0  0
  -24.9026  -28.8860   20.1134 C   0  0  0  0  0  0
  -22.7573  -29.4543   22.4866 C   0  0  0  0  0  0
  -18.0301  -28.1385   22.8478 C   0  0  0  0  0  0
  -24.1493  -36.7260   23.2645 C   0  0  0  0  0  0
  -26.0034  -30.7228   21.3851 C   0  0  0  0  0  0
  -26.0796  -29.3341   20.7269 C   0  0  0  0  0  0
  -27.2482  -28.4844   20.7245 C   0  0  0  0  0  0
  -26.0340  -26.7965   19.5072 C   0  0  0  0  0  0
  -24.8927  -27.6302   19.4874 C   0  0  0  0  0  0
  -23.6754  -29.7839   20.1539 C   0  0  0  0  0  0
  -25.4127  -36.3033   24.0307 C   0  0  1  0  0  0
  -20.5918  -28.3719   23.1235 C   0  0  2  0  0  0
  -20.6786  -26.9416   22.5409 C   0  0  0  0  0  0
  -19.5759  -26.6369   21.5219 C   0  0  0  0  0  0
  -18.1941  -26.7925   22.1627 C   0  0  0  0  0  0
  -19.1559  -28.8872   23.2849 C   0  0  0  0  0  0
  -18.9476  -30.1472   23.8870 C   0  0  0  0  0  0
  -17.6470  -30.6583   24.0561 C   0  0  0  0  0  0
  -25.9071  -34.9409   23.5051 C   0  0  0  0  0  0
  -16.5362  -29.9074   23.6337 C   0  0  0  0  0  0
  -16.7282  -28.6491   23.0361 C   0  0  0  0  0  0
  -26.4516  -31.6571   25.0714 C   0  0  0  0  0  0
  -25.3695  -31.3781   26.1406 C   0  0  0  0  0  0
  -27.0384  -30.2959   24.6321 C   0  0  0  0  0  0
  -27.6029  -32.4360   25.7508 C   0  0  0  0  0  0
  -27.5581  -37.1785   24.8459 C   0  0  0  0  0  0
  -21.4267  -29.3048   22.3608 N   0  0  0  0  0  0
  -26.4285  -37.3750   23.9404 N   0  0  0  0  0  0
  -24.7175  -31.0301   22.0901 N   0  0  0  0  0  0
  -23.4208  -28.8094   23.3017 O   0  0  0  0  0  0
  -28.3183  -26.1867   20.2146 O   0  0  0  0  0  0
  -26.5664  -34.8905   22.4631 O   0  0  0  0  0  0
  -23.5543  -32.1303   23.7095 O   0  0  0  0  0  0
  -31.3504  -18.2396   19.5992 C   0  0  0  0  0  0
  -31.6457  -19.5590   19.2039 C   0  0  0  0  0  0
  -30.1941  -17.9845   20.3464 C   0  0  0  0  0  0
  -29.7508  -20.4386   20.2052 C   0  0  0  0  0  0
  -32.9016  -19.8463   18.4104 C   0  0  0  0  0  0
  -28.2939  -16.4013   20.5482 C   0  0  0  0  0  0
  -29.9546  -16.5252   22.4198 C   0  0  0  0  0  0
  -28.7470  -21.7424   20.2978 C   0  0  0  0  0  0
  -29.1637  -23.3783   20.3314 C   0  0  0  0  0  0
  -28.0708  -24.6508   20.1427 C   0  0  0  0  0  0
  -29.7898  -16.4625   20.8884 C   0  0  0  0  0  0
  -30.8539  -20.6220   19.4871 N   0  0  0  0  0  0
  -29.4260  -19.1516   20.6350 N   0  0  0  0  0  0
  -31.4815  -12.7930   19.1577 H   0  0  0  0  0  0
  -30.4813  -11.6619   20.0065 H   0  0  0  0  0  0
  -29.8522  -11.7551   17.5739 H   0  0  0  0  0  0
  -29.5851  -13.4754   17.6937 H   0  0  0  0  0  0
  -27.9701  -11.2481   18.9786 H   0  0  0  0  0  0
  -27.3909  -12.4230   17.8243 H   0  0  0  0  0  0
  -27.5876  -14.1923   19.3892 H   0  0  0  0  0  0
  -28.8196  -12.2092   21.3754 H   0  0  0  0  0  0
  -28.3963  -13.8046   21.8413 H   0  0  0  0  0  0
  -25.2758   -9.5638   22.4807 H   0  0  0  0  0  0
  -24.0014   -7.4574   22.7462 H   0  0  0  0  0  0
  -21.0861   -8.8733   19.8953 H   0  0  0  0  0  0
  -22.3703  -10.9651   19.6196 H   0  0  0  0  0  0
  -21.1954   -7.6129   23.9722 H   0  0  0  0  0  0
  -21.1501   -6.0521   25.9104 H   0  0  0  0  0  0
  -22.0602   -2.7602   23.2858 H   0  0  0  0  0  0
  -22.4018  -11.9850   22.4912 H   0  0  0  0  0  0
  -21.1030  -13.1195   22.2657 H   0  0  0  0  0  0
  -24.5959  -15.8113   20.4941 H   0  0  0  0  0  0
  -26.2180  -15.6412   20.0547 H   0  0  0  0  0  0
  -26.7267  -32.5307   23.0999 H   0  0  0  0  0  0
  -25.0070  -33.9624   25.0318 H   0  0  0  0  0  0
  -22.7498  -31.2847   21.3752 H   0  0  0  0  0  0
  -23.3753  -35.9594   23.3285 H   0  0  0  0  0  0
  -24.3578  -36.8922   22.2066 H   0  0  0  0  0  0
  -23.7243  -37.6447   23.6694 H   0  0  0  0  0  0
  -26.1591  -31.4786   20.6142 H   0  0  0  0  0  0
  -26.8715  -30.7720   22.0296 H   0  0  0  0  0  0
  -28.1473  -28.8300   21.2179 H   0  0  0  0  0  0
  -25.9403  -25.8374   19.0227 H   0  0  0  0  0  0
  -23.9960  -27.2801   18.9945 H   0  0  0  0  0  0
  -23.8048  -30.5550   19.3938 H   0  0  0  0  0  0
  -22.7926  -29.2196   19.8485 H   0  0  0  0  0  0
  -25.1316  -36.1862   25.0797 H   0  0  0  0  0  0
  -21.0013  -28.3301   24.1357 H   0  0  0  0  0  0
  -20.5682  -26.2328   23.3630 H   0  0  0  0  0  0
  -21.6648  -26.7415   22.1207 H   0  0  0  0  0  0
  -19.6922  -25.6274   21.1265 H   0  0  0  0  0  0
  -19.6693  -27.3165   20.6739 H   0  0  0  0  0  0
  -17.4215  -26.6677   21.4024 H   0  0  0  0  0  0
  -18.0328  -26.0060   22.9015 H   0  0  0  0  0  0
  -19.7953  -30.7305   24.2208 H   0  0  0  0  0  0
  -17.5020  -31.6258   24.5170 H   0  0  0  0  0  0
  -15.5361  -30.2968   23.7673 H   0  0  0  0  0  0
  -15.8685  -28.0803   22.7086 H   0  0  0  0  0  0
  -24.5852  -30.7157   25.7728 H   0  0  0  0  0  0
  -24.8908  -32.2975   26.4785 H   0  0  0  0  0  0
  -25.7959  -30.8973   27.0217 H   0  0  0  0  0  0
  -26.3010  -29.6682   24.1302 H   0  0  0  0  0  0
  -27.3949  -29.7268   25.4916 H   0  0  0  0  0  0
  -27.8934  -30.4178   23.9668 H   0  0  0  0  0  0
  -27.2584  -33.3665   26.2033 H   0  0  0  0  0  0
  -28.3859  -32.6927   25.0361 H   0  0  0  0  0  0
  -28.0669  -31.8531   26.5476 H   0  0  0  0  0  0
  -28.2575  -38.0109   24.7519 H   0  0  0  0  0  0
  -28.1095  -36.2625   24.6254 H   0  0  0  0  0  0
  -27.2293  -37.1409   25.8865 H   0  0  0  0  0  0
  -20.9473  -29.8744   21.6781 H   0  0  0  0  0  0
  -26.0146  -38.2815   24.1414 H   0  0  0  0  0  0
  -32.0202  -17.4320   19.3321 H   0  0  0  0  0  0
  -33.7845  -19.6142   19.0054 H   0  0  0  0  0  0
  -32.9628  -20.8915   18.1082 H   0  0  0  0  0  0
  -32.9291  -19.2310   17.5110 H   0  0  0  0  0  0
  -27.7609  -17.3059   20.8385 H   0  0  0  0  0  0
  -27.7828  -15.6301   21.1005 H   0  0  0  0  0  0
  -28.1485  -16.2816   19.4739 H   0  0  0  0  0  0
  -29.3324  -17.3089   22.8538 H   0  0  0  0  0  0
  -30.9876  -16.7465   22.6886 H   0  0  0  0  0  0
  -29.6812  -15.5867   22.9040 H   0  0  0  0  0  0
  -28.1181  -21.5600   21.1689 H   0  0  0  0  0  0
  -28.0744  -21.6227   19.4501 H   0  0  0  0  0  0
  -29.9158  -23.5114   19.5556 H   0  0  0  0  0  0
  -29.7012  -23.5412   21.2652 H   0  0  0  0  0  0
  -27.2722  -24.4647   20.8614 H   0  0  0  0  0  0
  -27.6180  -24.4740   19.1680 H   0  0  0  0  0  0
  1 25  1  0  0  0
  1 30  2  0  0  0
  1 81  1  0  0  0
  2  3  1  0  0  0
  2 25  1  0  0  0
  2 84  1  0  0  0
  2 85  1  0  0  0
  3  4  1  0  0  0
  3 86  1  0  0  0
  3 87  1  0  0  0
  4  5  1  0  0  0
  4 88  1  0  0  0
  4 89  1  0  0  0
  5  6  1  0  0  0
  5 26  1  0  0  0
  5 90  1  0  0  0
  6 25  1  0  0  0
  6 91  1  0  0  0
  6 92  1  0  0  0
  7  8  2  0  0  0
  7 26  1  0  0  0
  7 29  1  0  0  0
  8  9  1  0  0  0
  8 22  1  0  0  0
  9 10  1  0  0  0
  9 27  2  0  0  0
 10 11  2  0  0  0
 10 15  1  0  0  0
 11 12  1  0  0  0
 11 93  1  0  0  0
 12 13  2  0  0  0
 12 94  1  0  0  0
 13 14  1  0  0  0
 13 31  1  0  0  0
 14 15  2  0  0  0
 14 95  1  0  0  0
 15 96  1  0  0  0
 16 17  2  0  0  0
 16 21  1  0  0  0
 16 31  1  0  0  0
 17 18  1  0  0  0
 17 97  1  0  0  0
 18 19  2  0  0  0
 18 98  1  0  0  0
 19 20  1  0  0  0
 19 24  1  0  0  0
 20 21  2  0  0  0
 20 99  1  0  0  0
 21 23  1  0  0  0
 22 28  1  0  0  0
 22 32  2  0  0  0
 26 27  1  0  0  0
 28100  1  0  0  0
 28101  1  0  0  0
 29102  1  0  0  0
 29103  1  0  0  0
 33 34  1  0  0  0
 33 66  1  0  0  0
 33 70  2  0  0  0
 34 36  1  0  0  0
 34 59  1  0  0  0
 34104  1  0  0  0
 35 44  2  0  0  0
 35 45  1  0  0  0
 35 68  1  0  0  0
 36 56  1  0  0  0
 36105  1  0  0  0
 37 39  1  0  0  0
 37 47  1  0  0  0
 37 66  1  0  0  0
 37106  1  0  0  0
 38 43  2  0  0  0
 38 46  1  0  0  0
 38 47  1  0  0  0
 39 64  1  0  0  0
 39 67  2  0  0  0
 40 52  1  0  0  0
 40 53  2  0  0  0
 40 58  1  0  0  0
 41107  1  0  0  0
 41108  1  0  0  0
 41109  1  0  0  0
 41 48  1  0  0  0
 42 43  1  0  0  0
 42 66  1  0  0  0
 42110  1  0  0  0
 42111  1  0  0  0
 43 44  1  0  0  0
 44112  1  0  0  0
 45 46  2  0  0  0
 45113  1  0  0  0
 46114  1  0  0  0
 47115  1  0  0  0
 47116  1  0  0  0
 48 56  1  0  0  0
 48 65  1  0  0  0
 48117  1  0  0  0
 49 50  1  0  0  0
 49 53  1  0  0  0
 49 64  1  0  0  0
 49118  1  0  0  0
 50 51  1  0  0  0
 50119  1  0  0  0
 50120  1  0  0  0
 51 52  1  0  0  0
 51121  1  0  0  0
 51122  1  0  0  0
 52123  1  0  0  0
 52124  1  0  0  0
 53 54  1  0  0  0
 54 55  2  0  0  0
 54125  1  0  0  0
 55 57  1  0  0  0
 55126  1  0  0  0
 56 69  2  0  0  0
 57 58  2  0  0  0
 57127  1  0  0  0
 58128  1  0  0  0
 59 60  1  0  0  0
 59 61  1  0  0  0
 59 62  1  0  0  0
 60129  1  0  0  0
 60130  1  0  0  0
 60131  1  0  0  0
 61132  1  0  0  0
 61133  1  0  0  0
 61134  1  0  0  0
 62135  1  0  0  0
 62136  1  0  0  0
 62137  1  0  0  0
 63 65  1  0  0  0
 63138  1  0  0  0
 63139  1  0  0  0
 63140  1  0  0  0
 64141  1  0  0  0
 65142  1  0  0  0
 68 80  1  0  0  0
 71 72  2  0  0  0
 71 73  1  0  0  0
 71143  1  0  0  0
 72 75  1  0  0  0
 72 82  1  0  0  0
 73 81  1  0  0  0
 73 83  2  0  0  0
 74 78  1  0  0  0
 74 82  2  0  0  0
 74 83  1  0  0  0
 75144  1  0  0  0
 75145  1  0  0  0
 75146  1  0  0  0
 76147  1  0  0  0
 76148  1  0  0  0
 76149  1  0  0  0
 76 81  1  0  0  0
 77 81  1  0  0  0
 77150  1  0  0  0
 77151  1  0  0  0
 77152  1  0  0  0
 78 79  1  0  0  0
 78153  1  0  0  0
 78154  1  0  0  0
 79 80  1  0  0  0
 79155  1  0  0  0
 79156  1  0  0  0
 80157  1  0  0  0
 80158  1  0  0  0
M  ISO  4   1 100  68 101  80 101  81 100
M  END
> <chiral flag>
0

> <version>
0

> <s_m_source_file>
/data/baiqing/PycharmProjects/Reinvent-master-3.2/result/LINK_invent/BTK/process_docking_weight1_custom_sum_contain_oxygen_bond_distance_aromatic_linkinvent_7_9_3/rearranged_h_0074.sdf

> <i_m_source_file_index>
3

> <r_mmod_Potential_Energy-OPLS-2005>
186.452606201172

> <r_mmod_Stretch_Energy-OPLS-2005>
283.646057128906

> <r_mmod_Bend_Energy-OPLS-2005>
285.388641357422

> <r_mmod_Torsional_Energy-OPLS-2005>
188.022445678711

> <r_mmod_Improper_Torsional_Energy-OPLS-2005>
2.91780209541321

> <r_mmod_Van_der_Waal_Energy-OPLS-2005>
151.834350585938

> <r_mmod_Electrostatic_Energy-OPLS-2005>
-703.814880371094

> <r_mmod_Solvation_Energy-OPLS-2005>
-212.125762939453

> <b_mmod_Minimization_Converged-OPLS-2005>
0

> <r_mmod_RMS_Derivative-OPLS-2005>
2.22748732566833

$$$$
3
                    3D
 Structure written by MMmdl.
173180  0  0  1  0            999 V2000
  -30.5420  -14.8953   20.4351 C   0  0  0  0  0  0
  -30.4512  -12.5494   19.5056 C   0  0  0  0  0  0
  -29.5360  -12.5428   18.2597 C   0  0  0  0  0  0
  -28.0607  -12.3498   18.6624 C   0  0  0  0  0  0
  -27.6437  -13.2509   19.8564 C   0  0  2  0  0  0
  -28.6846  -13.2230   20.9988 C   0  0  0  0  0  0
  -25.2498  -13.8221   20.5692 C   0  0  0  0  0  0
  -24.1799  -13.0438   20.9182 C   0  0  0  0  0  0
  -24.6423  -11.6938   20.8748 C   0  0  0  0  0  0
  -23.9088  -10.4323   21.0397 C   0  0  0  0  0  0
  -24.3629   -9.4249   21.9172 C   0  0  0  0  0  0
  -23.6315   -8.2281   22.0739 C   0  0  0  0  0  0
  -22.4301   -8.0294   21.3532 C   0  0  0  0  0  0
  -21.9943   -9.0265   20.4639 C   0  0  0  0  0  0
  -22.7257  -10.2150   20.3056 C   0  0  0  0  0  0
  -21.6881   -6.0751   22.5279 C   0  0  0  0  0  0
  -21.4016   -6.5636   23.8208 C   0  0  0  0  0  0
  -21.3670   -5.6788   24.9170 C   0  0  0  0  0  0
  -21.6056   -4.3050   24.7213 C   0  0  0  0  0  0
  -21.8818   -3.8144   23.4331 C   0  0  0  0  0  0
  -21.9203   -4.6978   22.3400 C   0  0  0  0  0  0
  -22.7815  -13.5200   21.1846 C   0  0  0  0  0  0
  -22.1656   -4.2167   21.0968 F   0  0  0  0  0  0
  -21.5648   -3.4528   25.7723 F   0  0  0  0  0  0
  -29.9773  -13.6237   20.4236 N   0  0  0  0  0  0
  -26.2957  -12.9467   20.3277 N   0  0  0  0  0  0
  -25.9355  -11.6592   20.5710 N   0  0  0  0  0  0
  -22.0441  -12.8219   22.0420 N   0  0  0  0  0  0
  -25.4160  -15.1962   20.4163 N   0  0  0  0  0  0
  -31.7057  -15.0118   20.0337 O   0  0  0  0  0  0
  -21.6662   -6.8891   21.4238 O   0  0  0  0  0  0
  -22.3522  -14.5522   20.6705 O   0  0  0  0  0  0
  -24.6420  -31.8449   23.1890 C   0  0  0  0  0  0
  -25.9189  -32.4720   23.8266 C   0  0  1  0  0  0
  -27.2260  -27.1590   20.1609 C   0  0  0  0  0  0
  -25.5952  -33.8517   24.2197 N   0  0  0  0  0  0
  -23.4446  -30.4630   21.5339 C   0  0  2  0  0  0
  -24.8945  -28.8833   20.1149 C   0  0  0  0  0  0
  -22.7539  -29.4558   22.4884 C   0  0  0  0  0  0
  -18.0298  -28.1400   22.8478 C   0  0  0  0  0  0
  -24.1498  -36.7260   23.2647 C   0  0  0  0  0  0
  -25.9968  -30.7277   21.3813 C   0  0  0  0  0  0
  -26.0701  -29.3373   20.7280 C   0  0  0  0  0  0
  -27.2354  -28.4921   20.7281 C   0  0  0  0  0  0
  -26.0229  -26.7900   19.5228 C   0  0  0  0  0  0
  -24.8819  -27.6216   19.4988 C   0  0  0  0  0  0
  -23.6726  -29.7849   20.1561 C   0  0  0  0  0  0
  -25.4124  -36.3050   24.0334 C   0  0  1  0  0  0
  -20.5899  -28.3729   23.1255 C   0  0  2  0  0  0
  -20.6792  -26.9439   22.5422 C   0  0  0  0  0  0
  -19.5765  -26.6385   21.5230 C   0  0  0  0  0  0
  -18.1939  -26.7933   22.1627 C   0  0  0  0  0  0
  -19.1548  -28.8880   23.2859 C   0  0  0  0  0  0
  -18.9465  -30.1471   23.8897 C   0  0  0  0  0  0
  -17.6466  -30.6604   24.0559 C   0  0  0  0  0  0
  -25.9072  -34.9432   23.5078 C   0  0  0  0  0  0
  -16.5359  -29.9098   23.6336 C   0  0  0  0  0  0
  -16.7279  -28.6511   23.0360 C   0  0  0  0  0  0
  -26.4519  -31.6562   25.0692 C   0  0  0  0  0  0
  -25.3702  -31.3732   26.1388 C   0  0  0  0  0  0
  -27.0387  -30.2969   24.6238 C   0  0  0  0  0  0
  -27.6061  -32.4303   25.7483 C   0  0  0  0  0  0
  -27.5571  -37.1794   24.8461 C   0  0  0  0  0  0
  -21.4240  -29.3049   22.3615 N   0  0  0  0  0  0
  -26.4286  -37.3760   23.9419 N   0  0  0  0  0  0
  -24.7144  -31.0328   22.0911 N   0  0  0  0  0  0
  -23.4172  -28.8105   23.3024 O   0  0  0  0  0  0
  -28.3143  -26.2261   20.2051 O   0  0  0  0  0  0
  -26.5655  -34.8914   22.4650 O   0  0  0  0  0  0
  -23.5537  -32.1321   23.7118 O   0  0  0  0  0  0
  -27.9493  -21.0313   18.2839 C   0  0  0  0  0  0
  -31.5460  -18.8531   20.5713 C   0  0  0  0  0  0
  -29.7843  -18.7174   22.3463 C   0  0  0  0  0  0
  -30.2593  -24.6819   21.3921 C   0  0  0  0  0  0
  -30.1890  -23.7958   19.0381 C   0  0  0  0  0  0
  -28.9905  -22.0856   22.3880 C   0  0  0  0  0  0
  -31.2264  -21.8344   21.2150 C   0  0  0  0  0  0
  -29.2991  -20.5265   18.8184 C   0  0  0  0  0  0
  -29.5471  -17.4760   20.1415 C   0  0  0  0  0  0
  -28.1573  -24.6777   20.2889 C   0  0  0  0  0  0
  -29.3398  -20.4679   20.3591 C   0  0  1  0  0  0
  -30.0188  -18.9299   20.8367 C   0  0  0  0  0  0
  -29.5103  -23.6911   20.4202 C   0  0  0  0  0  0
  -29.6953  -22.0393   21.0109 C   0  0  0  0  0  0
  -29.7380  -16.0208   20.7222 N   0  0  0  0  0  0
  -31.4907  -12.6971   19.2055 H   0  0  0  0  0  0
  -30.4226  -11.5784   20.0024 H   0  0  0  0  0  0
  -29.8386  -11.7534   17.5685 H   0  0  0  0  0  0
  -29.6544  -13.4835   17.7204 H   0  0  0  0  0  0
  -27.9270  -11.3014   18.9312 H   0  0  0  0  0  0
  -27.4118  -12.5346   17.8049 H   0  0  0  0  0  0
  -27.6231  -14.2689   19.4677 H   0  0  0  0  0  0
  -28.7476  -12.2275   21.4416 H   0  0  0  0  0  0
  -28.3927  -13.8998   21.8026 H   0  0  0  0  0  0
  -25.2756   -9.5749   22.4739 H   0  0  0  0  0  0
  -24.0043   -7.4693   22.7451 H   0  0  0  0  0  0
  -21.0880   -8.8777   19.8959 H   0  0  0  0  0  0
  -22.3691  -10.9682   19.6179 H   0  0  0  0  0  0
  -21.1973   -7.6139   23.9721 H   0  0  0  0  0  0
  -21.1500   -6.0502   25.9082 H   0  0  0  0  0  0
  -22.0589   -2.7608   23.2820 H   0  0  0  0  0  0
  -22.4033  -11.9909   22.4891 H   0  0  0  0  0  0
  -21.1035  -13.1270   22.2522 H   0  0  0  0  0  0
  -24.6404  -15.8405   20.5167 H   0  0  0  0  0  0
  -26.2583  -15.6460   20.0825 H   0  0  0  0  0  0
  -26.7251  -32.5346   23.0988 H   0  0  0  0  0  0
  -25.0074  -33.9623   25.0333 H   0  0  0  0  0  0
  -22.7471  -31.2881   21.3760 H   0  0  0  0  0  0
  -23.3782  -35.9569   23.3290 H   0  0  0  0  0  0
  -24.3573  -36.8905   22.2060 H   0  0  0  0  0  0
  -23.7221  -37.6445   23.6674 H   0  0  0  0  0  0
  -26.1388  -31.4795   20.6034 H   0  0  0  0  0  0
  -26.8745  -30.7856   22.0162 H   0  0  0  0  0  0
  -28.1343  -28.8370   21.2192 H   0  0  0  0  0  0
  -25.9437  -25.8214   19.0543 H   0  0  0  0  0  0
  -23.9800  -27.2682   19.0187 H   0  0  0  0  0  0
  -23.8153  -30.5576   19.4012 H   0  0  0  0  0  0
  -22.7884  -29.2284   19.8423 H   0  0  0  0  0  0
  -25.1305  -36.1885   25.0827 H   0  0  0  0  0  0
  -20.9988  -28.3335   24.1374 H   0  0  0  0  0  0
  -20.5714  -26.2339   23.3631 H   0  0  0  0  0  0
  -21.6650  -26.7469   22.1192 H   0  0  0  0  0  0
  -19.6935  -25.6289   21.1262 H   0  0  0  0  0  0
  -19.6713  -27.3189   20.6750 H   0  0  0  0  0  0
  -17.4216  -26.6695   21.4021 H   0  0  0  0  0  0
  -18.0333  -26.0081   22.9024 H   0  0  0  0  0  0
  -19.7953  -30.7283   24.2259 H   0  0  0  0  0  0
  -17.5034  -31.6282   24.5159 H   0  0  0  0  0  0
  -15.5358  -30.3004   23.7672 H   0  0  0  0  0  0
  -15.8676  -28.0834   22.7078 H   0  0  0  0  0  0
  -24.5900  -30.7064   25.7684 H   0  0  0  0  0  0
  -24.8873  -32.2915   26.4746 H   0  0  0  0  0  0
  -25.7996  -30.8933   27.0196 H   0  0  0  0  0  0
  -26.2995  -29.6690   24.1253 H   0  0  0  0  0  0
  -27.4030  -29.7257   25.4783 H   0  0  0  0  0  0
  -27.8879  -30.4220   23.9521 H   0  0  0  0  0  0
  -27.2673  -33.3626   26.2009 H   0  0  0  0  0  0
  -28.3916  -32.6822   25.0343 H   0  0  0  0  0  0
  -28.0680  -31.8450   26.5447 H   0  0  0  0  0  0
  -28.2593  -38.0088   24.7520 H   0  0  0  0  0  0
  -28.1073  -36.2626   24.6286 H   0  0  0  0  0  0
  -27.2288  -37.1426   25.8862 H   0  0  0  0  0  0
  -20.9447  -29.8738   21.6785 H   0  0  0  0  0  0
  -26.0168  -38.2841   24.1408 H   0  0  0  0  0  0
  -27.7146  -22.0260   18.6617 H   0  0  0  0  0  0
  -27.1369  -20.3696   18.5900 H   0  0  0  0  0  0
  -27.9468  -21.0710   17.1942 H   0  0  0  0  0  0
  -31.9215  -17.8328   20.6581 H   0  0  0  0  0  0
  -32.1585  -19.4133   21.2710 H   0  0  0  0  0  0
  -31.7853  -19.1776   19.5569 H   0  0  0  0  0  0
  -30.1443  -17.7445   22.6782 H   0  0  0  0  0  0
  -28.7248  -18.7734   22.5994 H   0  0  0  0  0  0
  -30.3140  -19.4426   22.9595 H   0  0  0  0  0  0
  -30.5111  -25.6164   20.8892 H   0  0  0  0  0  0
  -31.1919  -24.3958   21.8512 H   0  0  0  0  0  0
  -29.6317  -24.9552   22.2414 H   0  0  0  0  0  0
  -30.3143  -24.8344   18.7282 H   0  0  0  0  0  0
  -29.5887  -23.3231   18.2634 H   0  0  0  0  0  0
  -31.1759  -23.3411   19.0187 H   0  0  0  0  0  0
  -29.0268  -21.1412   22.9203 H   0  0  0  0  0  0
  -27.9347  -22.3405   22.2864 H   0  0  0  0  0  0
  -29.4365  -22.8187   23.0576 H   0  0  0  0  0  0
  -31.4181  -21.1944   22.0721 H   0  0  0  0  0  0
  -31.8781  -22.6754   21.3781 H   0  0  0  0  0  0
  -31.6685  -21.4003   20.3196 H   0  0  0  0  0  0
  -30.1207  -21.1348   18.4446 H   0  0  0  0  0  0
  -29.4754  -19.5407   18.3908 H   0  0  0  0  0  0
  -29.9341  -17.4322   19.1241 H   0  0  0  0  0  0
  -28.4682  -17.5566   20.0003 H   0  0  0  0  0  0
  -27.5185  -24.4832   21.1522 H   0  0  0  0  0  0
  -27.5773  -24.3454   19.4283 H   0  0  0  0  0  0
  -28.2966  -20.3254   20.6421 H   0  0  0  0  0  0
  -28.9033  -15.7305   21.2086 H   0  0  0  0  0  0
  1 25  1  0  0  0
  1 30  2  0  0  0
  1 85  1  0  0  0
  2  3  1  0  0  0
  2 25  1  0  0  0
  2 86  1  0  0  0
  2 87  1  0  0  0
  3  4  1  0  0  0
  3 88  1  0  0  0
  3 89  1  0  0  0
  4  5  1  0  0  0
  4 90  1  0  0  0
  4 91  1  0  0  0
  5  6  1  0  0  0
  5 26  1  0  0  0
  5 92  1  0  0  0
  6 25  1  0  0  0
  6 93  1  0  0  0
  6 94  1  0  0  0
  7  8  2  0  0  0
  7 26  1  0  0  0
  7 29  1  0  0  0
  8  9  1  0  0  0
  8 22  1  0  0  0
  9 10  1  0  0  0
  9 27  2  0  0  0
 10 11  2  0  0  0
 10 15  1  0  0  0
 11 12  1  0  0  0
 11 95  1  0  0  0
 12 13  2  0  0  0
 12 96  1  0  0  0
 13 14  1  0  0  0
 13 31  1  0  0  0
 14 15  2  0  0  0
 14 97  1  0  0  0
 15 98  1  0  0  0
 16 17  2  0  0  0
 16 21  1  0  0  0
 16 31  1  0  0  0
 17 18  1  0  0  0
 17 99  1  0  0  0
 18 19  2  0  0  0
 18100  1  0  0  0
 19 20  1  0  0  0
 19 24  1  0  0  0
 20 21  2  0  0  0
 20101  1  0  0  0
 21 23  1  0  0  0
 22 28  1  0  0  0
 22 32  2  0  0  0
 26 27  1  0  0  0
 28102  1  0  0  0
 28103  1  0  0  0
 29104  1  0  0  0
 29105  1  0  0  0
 33 34  1  0  0  0
 33 66  1  0  0  0
 33 70  2  0  0  0
 34 36  1  0  0  0
 34 59  1  0  0  0
 34106  1  0  0  0
 35 44  2  0  0  0
 35 45  1  0  0  0
 35 68  1  0  0  0
 36 56  1  0  0  0
 36107  1  0  0  0
 37 39  1  0  0  0
 37 47  1  0  0  0
 37 66  1  0  0  0
 37108  1  0  0  0
 38 43  2  0  0  0
 38 46  1  0  0  0
 38 47  1  0  0  0
 39 64  1  0  0  0
 39 67  2  0  0  0
 40 52  1  0  0  0
 40 53  2  0  0  0
 40 58  1  0  0  0
 41109  1  0  0  0
 41110  1  0  0  0
 41111  1  0  0  0
 41 48  1  0  0  0
 42 43  1  0  0  0
 42 66  1  0  0  0
 42112  1  0  0  0
 42113  1  0  0  0
 43 44  1  0  0  0
 44114  1  0  0  0
 45 46  2  0  0  0
 45115  1  0  0  0
 46116  1  0  0  0
 47117  1  0  0  0
 47118  1  0  0  0
 48 56  1  0  0  0
 48 65  1  0  0  0
 48119  1  0  0  0
 49 50  1  0  0  0
 49 53  1  0  0  0
 49 64  1  0  0  0
 49120  1  0  0  0
 50 51  1  0  0  0
 50121  1  0  0  0
 50122  1  0  0  0
 51 52  1  0  0  0
 51123  1  0  0  0
 51124  1  0  0  0
 52125  1  0  0  0
 52126  1  0  0  0
 53 54  1  0  0  0
 54 55  2  0  0  0
 54127  1  0  0  0
 55 57  1  0  0  0
 55128  1  0  0  0
 56 69  2  0  0  0
 57 58  2  0  0  0
 57129  1  0  0  0
 58130  1  0  0  0
 59 60  1  0  0  0
 59 61  1  0  0  0
 59 62  1  0  0  0
 60131  1  0  0  0
 60132  1  0  0  0
 60133  1  0  0  0
 61134  1  0  0  0
 61135  1  0  0  0
 61136  1  0  0  0
 62137  1  0  0  0
 62138  1  0  0  0
 62139  1  0  0  0
 63 65  1  0  0  0
 63140  1  0  0  0
 63141  1  0  0  0
 63142  1  0  0  0
 64143  1  0  0  0
 65144  1  0  0  0
 68 80  1  0  0  0
 71 78  1  0  0  0
 71145  1  0  0  0
 71146  1  0  0  0
 71147  1  0  0  0
 72148  1  0  0  0
 72149  1  0  0  0
 72150  1  0  0  0
 72 82  1  0  0  0
 73 82  1  0  0  0
 73151  1  0  0  0
 73152  1  0  0  0
 73153  1  0  0  0
 74154  1  0  0  0
 74155  1  0  0  0
 74156  1  0  0  0
 74 83  1  0  0  0
 75 83  1  0  0  0
 75157  1  0  0  0
 75158  1  0  0  0
 75159  1  0  0  0
 76160  1  0  0  0
 76161  1  0  0  0
 76162  1  0  0  0
 76 84  1  0  0  0
 77 84  1  0  0  0
 77163  1  0  0  0
 77164  1  0  0  0
 77165  1  0  0  0
 78166  1  0  0  0
 78167  1  0  0  0
 78 81  1  0  0  0
 79 82  1  0  0  0
 79 85  1  0  0  0
 79168  1  0  0  0
 79169  1  0  0  0
 80 83  1  0  0  0
 80170  1  0  0  0
 80171  1  0  0  0
 81 82  1  0  0  0
 81 84  1  0  0  0
 81172  1  0  0  0
 83 84  1  0  0  0
 85173  1  0  0  0
M  ISO  4   1 100  68 101  80 101  85 100
M  END
> <chiral flag>
0

> <version>
0

> <s_m_source_file>
/data/baiqing/PycharmProjects/Reinvent-master-3.2/result/LINK_invent/BTK/process_docking_weight1_custom_sum_contain_oxygen_bond_distance_aromatic_linkinvent_7_9_3/rearranged_h_0074.sdf

> <i_m_source_file_index>
4

> <r_mmod_Potential_Energy-OPLS-2005>
733.848937988281

> <r_mmod_Stretch_Energy-OPLS-2005>
342.805938720703

> <r_mmod_Bend_Energy-OPLS-2005>
382.738159179688

> <r_mmod_Torsional_Energy-OPLS-2005>
308.803405761719

> <r_mmod_Improper_Torsional_Energy-OPLS-2005>
5.48309183120728

> <r_mmod_Van_der_Waal_Energy-OPLS-2005>
152.225234985352

> <r_mmod_Electrostatic_Energy-OPLS-2005>
-432.587829589844

> <r_mmod_Solvation_Energy-OPLS-2005>
-184.679946899414

> <b_mmod_Minimization_Converged-OPLS-2005>
0

> <r_mmod_RMS_Derivative-OPLS-2005>
3.83266162872314

$$$$
4
                    3D
 Structure written by MMmdl.
166174  0  0  1  0            999 V2000
  -30.7430  -14.4448   20.6940 C   0  0  0  0  0  0
  -30.4309  -12.3353   19.4153 C   0  0  0  0  0  0
  -29.5047  -12.5503   18.1989 C   0  0  0  0  0  0
  -28.0212  -12.3957   18.5932 C   0  0  0  0  0  0
  -27.6692  -13.1984   19.8730 C   0  0  2  0  0  0
  -28.7027  -12.8854   20.9714 C   0  0  0  0  0  0
  -25.2609  -13.8111   20.5587 C   0  0  0  0  0  0
  -24.1856  -13.0415   20.9091 C   0  0  0  0  0  0
  -24.6387  -11.6870   20.8646 C   0  0  0  0  0  0
  -23.9043  -10.4278   21.0375 C   0  0  0  0  0  0
  -24.3598   -9.4207   21.9172 C   0  0  0  0  0  0
  -23.6263   -8.2257   22.0779 C   0  0  0  0  0  0
  -22.4247   -8.0275   21.3572 C   0  0  0  0  0  0
  -21.9871   -9.0233   20.4673 C   0  0  0  0  0  0
  -22.7198  -10.2108   20.3056 C   0  0  0  0  0  0
  -21.6833   -6.0728   22.5272 C   0  0  0  0  0  0
  -21.4018   -6.5641   23.8202 C   0  0  0  0  0  0
  -21.3655   -5.6793   24.9160 C   0  0  0  0  0  0
  -21.6036   -4.3054   24.7215 C   0  0  0  0  0  0
  -21.8825   -3.8144   23.4341 C   0  0  0  0  0  0
  -21.9183   -4.6956   22.3392 C   0  0  0  0  0  0
  -22.7872  -13.5222   21.1751 C   0  0  0  0  0  0
  -22.1652   -4.2140   21.0964 F   0  0  0  0  0  0
  -21.5628   -3.4554   25.7740 F   0  0  0  0  0  0
  -30.0375  -13.2829   20.4864 N   0  0  0  0  0  0
  -26.3055  -12.9286   20.3263 N   0  0  0  0  0  0
  -25.9294  -11.6455   20.5602 N   0  0  0  0  0  0
  -22.0507  -12.8270   22.0345 N   0  0  0  0  0  0
  -25.4344  -15.1830   20.4023 N   0  0  0  0  0  0
  -31.7463  -14.6630   20.0047 O   0  0  0  0  0  0
  -21.6631   -6.8862   21.4237 O   0  0  0  0  0  0
  -22.3554  -14.5513   20.6557 O   0  0  0  0  0  0
  -24.6149  -31.8676   23.2150 C   0  0  0  0  0  0
  -25.9042  -32.4814   23.8414 C   0  0  1  0  0  0
  -27.2168  -27.4196   20.0927 C   0  0  0  0  0  0
  -25.5904  -33.8616   24.2333 N   0  0  0  0  0  0
  -23.4014  -30.4970   21.5547 C   0  0  2  0  0  0
  -24.8491  -28.9756   20.1049 C   0  0  0  0  0  0
  -22.7405  -29.4662   22.4973 C   0  0  0  0  0  0
  -18.0261  -28.1360   22.8477 C   0  0  0  0  0  0
  -24.1489  -36.7315   23.2638 C   0  0  0  0  0  0
  -25.9366  -30.8276   21.3766 C   0  0  0  0  0  0
  -26.0114  -29.4666   20.7141 C   0  0  0  0  0  0
  -27.2014  -28.6946   20.7095 C   0  0  0  0  0  0
  -26.0448  -26.9731   19.4414 C   0  0  0  0  0  0
  -24.8620  -27.7287   19.4619 C   0  0  0  0  0  0
  -23.6113  -29.8426   20.1645 C   0  0  0  0  0  0
  -25.4111  -36.3111   24.0331 C   0  0  1  0  0  0
  -20.5857  -28.3659   23.1303 C   0  0  2  0  0  0
  -20.6763  -26.9393   22.5414 C   0  0  0  0  0  0
  -19.5750  -26.6375   21.5197 C   0  0  0  0  0  0
  -18.1925  -26.7908   22.1606 C   0  0  0  0  0  0
  -19.1513  -28.8819   23.2889 C   0  0  0  0  0  0
  -18.9448  -30.1418   23.8909 C   0  0  0  0  0  0
  -17.6460  -30.6580   24.0551 C   0  0  0  0  0  0
  -25.9029  -34.9479   23.5128 C   0  0  0  0  0  0
  -16.5346  -29.9081   23.6333 C   0  0  0  0  0  0
  -16.7253  -28.6496   23.0353 C   0  0  0  0  0  0
  -26.4489  -31.6591   25.0736 C   0  0  0  0  0  0
  -25.3757  -31.3696   26.1481 C   0  0  0  0  0  0
  -27.0335  -30.3028   24.6137 C   0  0  0  0  0  0
  -27.6059  -32.4315   25.7505 C   0  0  0  0  0  0
  -27.5582  -37.1809   24.8464 C   0  0  0  0  0  0
  -21.4129  -29.3029   22.3710 N   0  0  0  0  0  0
  -26.4304  -37.3789   23.9407 N   0  0  0  0  0  0
  -24.6684  -31.0764   22.1072 N   0  0  0  0  0  0
  -23.4181  -28.8182   23.2995 O   0  0  0  0  0  0
  -28.3273  -26.5948   20.1425 O   0  0  0  0  0  0
  -26.5601  -34.8928   22.4694 O   0  0  0  0  0  0
  -23.5330  -32.1447   23.7522 O   0  0  0  0  0  0
  -28.9795  -21.5144   20.9962 C   0  0  0  0  0  0
  -28.6567  -20.1939   20.7266 C   0  0  0  0  0  0
  -30.2333  -20.2609   22.2391 C   0  0  0  0  0  0
  -27.5941  -19.6625   19.8142 C   0  0  0  0  0  0
  -31.2126  -19.8489   23.2893 C   0  0  0  0  0  0
  -29.4636  -15.1805   22.9085 C   0  0  0  0  0  0
  -31.7864  -15.8668   22.4731 C   0  0  0  0  0  0
  -28.1849  -22.7673   20.6720 C   0  0  0  0  0  0
  -28.9398  -24.0994   20.3709 C   0  0  0  0  0  0
  -29.9700  -16.9025   21.0437 C   0  0  0  0  0  0
  -29.2484  -17.9635   21.9333 C   0  0  0  0  0  0
  -28.0370  -25.3090   20.7428 C   0  0  0  0  0  0
  -30.4339  -15.5727   21.7644 C   0  0  0  0  0  0
  -30.0092  -21.5357   21.9296 N   0  0  0  0  0  0
  -29.4137  -19.3949   21.6038 N   0  0  0  0  0  0
  -31.4736  -12.4415   19.1168 H   0  0  0  0  0  0
  -30.3573  -11.3062   19.7736 H   0  0  0  0  0  0
  -29.7604  -11.8495   17.4045 H   0  0  0  0  0  0
  -29.6705  -13.5438   17.7795 H   0  0  0  0  0  0
  -27.8301  -11.3342   18.7582 H   0  0  0  0  0  0
  -27.3793  -12.6961   17.7656 H   0  0  0  0  0  0
  -27.7381  -14.2584   19.6307 H   0  0  0  0  0  0
  -28.7050  -11.8096   21.1521 H   0  0  0  0  0  0
  -28.3786  -13.2721   21.9216 H   0  0  0  0  0  0
  -25.2745   -9.5669   22.4757 H   0  0  0  0  0  0
  -23.9952   -7.4649   22.7519 H   0  0  0  0  0  0
  -21.0809   -8.8713   19.8979 H   0  0  0  0  0  0
  -22.3635  -10.9624   19.6167 H   0  0  0  0  0  0
  -21.2038   -7.6144   23.9686 H   0  0  0  0  0  0
  -21.1470   -6.0540   25.9052 H   0  0  0  0  0  0
  -22.0620   -2.7618   23.2825 H   0  0  0  0  0  0
  -22.4105  -11.9924   22.4760 H   0  0  0  0  0  0
  -21.1128  -13.1330   22.2537 H   0  0  0  0  0  0
  -24.6754  -15.8432   20.5295 H   0  0  0  0  0  0
  -26.2956  -15.6195   20.0987 H   0  0  0  0  0  0
  -26.7105  -32.5539   23.1159 H   0  0  0  0  0  0
  -25.0063  -33.9777   25.0485 H   0  0  0  0  0  0
  -22.6900  -31.3149   21.4211 H   0  0  0  0  0  0
  -23.3748  -35.9651   23.3309 H   0  0  0  0  0  0
  -24.3583  -36.8927   22.2052 H   0  0  0  0  0  0
  -23.7257  -37.6520   23.6660 H   0  0  0  0  0  0
  -26.0588  -31.6011   20.6164 H   0  0  0  0  0  0
  -26.8183  -30.8687   22.0041 H   0  0  0  0  0  0
  -28.0920  -29.0570   21.2019 H   0  0  0  0  0  0
  -26.0358  -26.0274   18.9191 H   0  0  0  0  0  0
  -23.9724  -27.3534   18.9748 H   0  0  0  0  0  0
  -23.7178  -30.6255   19.4131 H   0  0  0  0  0  0
  -22.7333  -29.2658   19.8643 H   0  0  0  0  0  0
  -25.1287  -36.1971   25.0822 H   0  0  0  0  0  0
  -20.9927  -28.3237   24.1425 H   0  0  0  0  0  0
  -20.5648  -26.2264   23.3597 H   0  0  0  0  0  0
  -21.6642  -26.7439   22.1211 H   0  0  0  0  0  0
  -19.6925  -25.6286   21.1221 H   0  0  0  0  0  0
  -19.6695  -27.3185   20.6728 H   0  0  0  0  0  0
  -17.4187  -26.6621   21.4017 H   0  0  0  0  0  0
  -18.0342  -26.0042   22.8995 H   0  0  0  0  0  0
  -19.7937  -30.7202   24.2306 H   0  0  0  0  0  0
  -17.5040  -31.6274   24.5130 H   0  0  0  0  0  0
  -15.5352  -30.3000   23.7662 H   0  0  0  0  0  0
  -15.8641  -28.0825   22.7082 H   0  0  0  0  0  0
  -24.5933  -30.7029   25.7835 H   0  0  0  0  0  0
  -24.8937  -32.2836   26.4946 H   0  0  0  0  0  0
  -25.8110  -30.8866   27.0238 H   0  0  0  0  0  0
  -26.2892  -29.6751   24.1212 H   0  0  0  0  0  0
  -27.4114  -29.7294   25.4616 H   0  0  0  0  0  0
  -27.8731  -30.4327   23.9307 H   0  0  0  0  0  0
  -27.2679  -33.3612   26.2103 H   0  0  0  0  0  0
  -28.3871  -32.6872   25.0331 H   0  0  0  0  0  0
  -28.0729  -31.8423   26.5401 H   0  0  0  0  0  0
  -28.2598  -38.0111   24.7515 H   0  0  0  0  0  0
  -28.1076  -36.2634   24.6284 H   0  0  0  0  0  0
  -27.2292  -37.1457   25.8867 H   0  0  0  0  0  0
  -20.9270  -29.8779   21.6966 H   0  0  0  0  0  0
  -26.0182  -38.2866   24.1404 H   0  0  0  0  0  0
  -26.6024  -19.9694   20.1469 H   0  0  0  0  0  0
  -27.6085  -18.5751   19.7526 H   0  0  0  0  0  0
  -27.7321  -20.0517   18.8038 H   0  0  0  0  0  0
  -31.9912  -20.6031   23.4019 H   0  0  0  0  0  0
  -31.6878  -18.9039   23.0288 H   0  0  0  0  0  0
  -30.7094  -19.7345   24.2500 H   0  0  0  0  0  0
  -29.5380  -15.8503   23.7647 H   0  0  0  0  0  0
  -29.6879  -14.1958   23.3205 H   0  0  0  0  0  0
  -28.4192  -15.2277   22.5967 H   0  0  0  0  0  0
  -32.5231  -16.3095   21.7987 H   0  0  0  0  0  0
  -32.2367  -14.9554   22.8716 H   0  0  0  0  0  0
  -31.6789  -16.5524   23.3121 H   0  0  0  0  0  0
  -27.5193  -22.9351   21.5209 H   0  0  0  0  0  0
  -27.5086  -22.5729   19.8384 H   0  0  0  0  0  0
  -29.2230  -24.1257   19.3195 H   0  0  0  0  0  0
  -29.8612  -24.1586   20.9512 H   0  0  0  0  0  0
  -30.8374  -17.3638   20.5708 H   0  0  0  0  0  0
  -29.3053  -16.6508   20.2162 H   0  0  0  0  0  0
  -29.5666  -17.8514   22.9676 H   0  0  0  0  0  0
  -28.1808  -17.7429   21.9604 H   0  0  0  0  0  0
  -28.0628  -25.4441   21.8239 H   0  0  0  0  0  0
  -27.0163  -24.9919   20.5361 H   0  0  0  0  0  0
  1 25  1  0  0  0
  1 30  2  0  0  0
  1 83  1  0  0  0
  2  3  1  0  0  0
  2 25  1  0  0  0
  2 86  1  0  0  0
  2 87  1  0  0  0
  3  4  1  0  0  0
  3 88  1  0  0  0
  3 89  1  0  0  0
  4  5  1  0  0  0
  4 90  1  0  0  0
  4 91  1  0  0  0
  5  6  1  0  0  0
  5 26  1  0  0  0
  5 92  1  0  0  0
  6 25  1  0  0  0
  6 93  1  0  0  0
  6 94  1  0  0  0
  7  8  2  0  0  0
  7 26  1  0  0  0
  7 29  1  0  0  0
  8  9  1  0  0  0
  8 22  1  0  0  0
  9 10  1  0  0  0
  9 27  2  0  0  0
 10 11  2  0  0  0
 10 15  1  0  0  0
 11 12  1  0  0  0
 11 95  1  0  0  0
 12 13  2  0  0  0
 12 96  1  0  0  0
 13 14  1  0  0  0
 13 31  1  0  0  0
 14 15  2  0  0  0
 14 97  1  0  0  0
 15 98  1  0  0  0
 16 17  2  0  0  0
 16 21  1  0  0  0
 16 31  1  0  0  0
 17 18  1  0  0  0
 17 99  1  0  0  0
 18 19  2  0  0  0
 18100  1  0  0  0
 19 20  1  0  0  0
 19 24  1  0  0  0
 20 21  2  0  0  0
 20101  1  0  0  0
 21 23  1  0  0  0
 22 28  1  0  0  0
 22 32  2  0  0  0
 26 27  1  0  0  0
 28102  1  0  0  0
 28103  1  0  0  0
 29104  1  0  0  0
 29105  1  0  0  0
 33 34  1  0  0  0
 33 66  1  0  0  0
 33 70  2  0  0  0
 34 36  1  0  0  0
 34 59  1  0  0  0
 34106  1  0  0  0
 35 44  2  0  0  0
 35 45  1  0  0  0
 35 68  1  0  0  0
 36 56  1  0  0  0
 36107  1  0  0  0
 37 39  1  0  0  0
 37 47  1  0  0  0
 37 66  1  0  0  0
 37108  1  0  0  0
 38 43  2  0  0  0
 38 46  1  0  0  0
 38 47  1  0  0  0
 39 64  1  0  0  0
 39 67  2  0  0  0
 40 52  1  0  0  0
 40 53  2  0  0  0
 40 58  1  0  0  0
 41109  1  0  0  0
 41110  1  0  0  0
 41111  1  0  0  0
 41 48  1  0  0  0
 42 43  1  0  0  0
 42 66  1  0  0  0
 42112  1  0  0  0
 42113  1  0  0  0
 43 44  1  0  0  0
 44114  1  0  0  0
 45 46  2  0  0  0
 45115  1  0  0  0
 46116  1  0  0  0
 47117  1  0  0  0
 47118  1  0  0  0
 48 56  1  0  0  0
 48 65  1  0  0  0
 48119  1  0  0  0
 49 50  1  0  0  0
 49 53  1  0  0  0
 49 64  1  0  0  0
 49120  1  0  0  0
 50 51  1  0  0  0
 50121  1  0  0  0
 50122  1  0  0  0
 51 52  1  0  0  0
 51123  1  0  0  0
 51124  1  0  0  0
 52125  1  0  0  0
 52126  1  0  0  0
 53 54  1  0  0  0
 54 55  2  0  0  0
 54127  1  0  0  0
 55 57  1  0  0  0
 55128  1  0  0  0
 56 69  2  0  0  0
 57 58  2  0  0  0
 57129  1  0  0  0
 58130  1  0  0  0
 59 60  1  0  0  0
 59 61  1  0  0  0
 59 62  1  0  0  0
 60131  1  0  0  0
 60132  1  0  0  0
 60133  1  0  0  0
 61134  1  0  0  0
 61135  1  0  0  0
 61136  1  0  0  0
 62137  1  0  0  0
 62138  1  0  0  0
 62139  1  0  0  0
 63 65  1  0  0  0
 63140  1  0  0  0
 63141  1  0  0  0
 63142  1  0  0  0
 64143  1  0  0  0
 65144  1  0  0  0
 68 82  1  0  0  0
 71 72  2  0  0  0
 71 78  1  0  0  0
 71 84  1  0  0  0
 72 74  1  0  0  0
 72 85  1  0  0  0
 73 75  1  0  0  0
 73 84  2  0  0  0
 73 85  1  0  0  0
 74145  1  0  0  0
 74146  1  0  0  0
 74147  1  0  0  0
 75148  1  0  0  0
 75149  1  0  0  0
 75150  1  0  0  0
 76151  1  0  0  0
 76152  1  0  0  0
 76153  1  0  0  0
 76 83  1  0  0  0
 77 83  1  0  0  0
 77154  1  0  0  0
 77155  1  0  0  0
 77156  1  0  0  0
 78 79  1  0  0  0
 78157  1  0  0  0
 78158  1  0  0  0
 79 82  1  0  0  0
 79159  1  0  0  0
 79160  1  0  0  0
 80 81  1  0  0  0
 80 83  1  0  0  0
 80161  1  0  0  0
 80162  1  0  0  0
 81 85  1  0  0  0
 81163  1  0  0  0
 81164  1  0  0  0
 82165  1  0  0  0
 82166  1  0  0  0
M  ISO  4   1 100  68 101  82 101  83 100
M  END
> <chiral flag>
0

> <version>
0

> <s_m_source_file>
/data/baiqing/PycharmProjects/Reinvent-master-3.2/result/LINK_invent/BTK/process_docking_weight1_custom_sum_contain_oxygen_bond_distance_aromatic_linkinvent_7_9_3/rearranged_h_0074.sdf

> <i_m_source_file_index>
5

> <r_mmod_Potential_Energy-OPLS-2005>
44.0126152038574

> <r_mmod_Stretch_Energy-OPLS-2005>
52.6005172729492

> <r_mmod_Bend_Energy-OPLS-2005>
148.646438598633

> <r_mmod_Torsional_Energy-OPLS-2005>
243.45036315918

> <r_mmod_Improper_Torsional_Energy-OPLS-2005>
5.41103839874268

> <r_mmod_Van_der_Waal_Energy-OPLS-2005>
148.986770629883

> <r_mmod_Electrostatic_Energy-OPLS-2005>
-370.737152099609

> <r_mmod_Solvation_Energy-OPLS-2005>
-201.176422119141

> <b_mmod_Minimization_Converged-OPLS-2005>
0

> <r_mmod_RMS_Derivative-OPLS-2005>
3.81736660003662

$$$$
5
                    3D
 Structure written by MMmdl.
165173  0  0  1  0            999 V2000
  -30.6164  -14.7068   20.4912 C   0  0  0  0  0  0
  -30.4282  -12.4286   19.4780 C   0  0  0  0  0  0
  -29.5129  -12.5205   18.2375 C   0  0  0  0  0  0
  -28.0361  -12.3444   18.6405 C   0  0  0  0  0  0
  -27.6453  -13.2302   19.8547 C   0  0  2  0  0  0
  -28.6831  -13.1418   20.9932 C   0  0  0  0  0  0
  -25.2535  -13.8197   20.5674 C   0  0  0  0  0  0
  -24.1816  -13.0442   20.9165 C   0  0  0  0  0  0
  -24.6390  -11.6916   20.8683 C   0  0  0  0  0  0
  -23.9055  -10.4290   21.0366 C   0  0  0  0  0  0
  -24.3614   -9.4236   21.9161 C   0  0  0  0  0  0
  -23.6299   -8.2266   22.0748 C   0  0  0  0  0  0
  -22.4279   -8.0269   21.3544 C   0  0  0  0  0  0
  -21.9902   -9.0236   20.4640 C   0  0  0  0  0  0
  -22.7215  -10.2127   20.3034 C   0  0  0  0  0  0
  -21.6876   -6.0718   22.5269 C   0  0  0  0  0  0
  -21.4020   -6.5629   23.8194 C   0  0  0  0  0  0
  -21.3677   -5.6788   24.9164 C   0  0  0  0  0  0
  -21.6056   -4.3050   24.7231 C   0  0  0  0  0  0
  -21.8826   -3.8137   23.4347 C   0  0  0  0  0  0
  -21.9208   -4.6942   22.3398 C   0  0  0  0  0  0
  -22.7841  -13.5214   21.1864 C   0  0  0  0  0  0
  -22.1672   -4.2131   21.0972 F   0  0  0  0  0  0
  -21.5654   -3.4531   25.7742 F   0  0  0  0  0  0
  -29.9962  -13.4786   20.4308 N   0  0  0  0  0  0
  -26.2955  -12.9400   20.3266 N   0  0  0  0  0  0
  -25.9323  -11.6536   20.5695 N   0  0  0  0  0  0
  -22.0507  -12.8175   22.0411 N   0  0  0  0  0  0
  -25.4241  -15.1930   20.4131 N   0  0  0  0  0  0
  -31.7805  -14.8065   20.0940 O   0  0  0  0  0  0
  -21.6672   -6.8853   21.4216 O   0  0  0  0  0  0
  -22.3514  -14.5519   20.6718 O   0  0  0  0  0  0
  -24.6320  -31.8547   23.2008 C   0  0  0  0  0  0
  -25.9155  -32.4748   23.8348 C   0  0  1  0  0  0
  -27.2237  -27.2764   20.1266 C   0  0  0  0  0  0
  -25.5968  -33.8551   24.2279 N   0  0  0  0  0  0
  -23.4265  -30.4770   21.5444 C   0  0  2  0  0  0
  -24.8714  -28.9260   20.1115 C   0  0  0  0  0  0
  -22.7500  -29.4595   22.4953 C   0  0  0  0  0  0
  -18.0285  -28.1384   22.8485 C   0  0  0  0  0  0
  -24.1501  -36.7279   23.2639 C   0  0  0  0  0  0
  -25.9699  -30.7742   21.3747 C   0  0  0  0  0  0
  -26.0412  -29.3975   20.7181 C   0  0  0  0  0  0
  -27.2156  -28.5849   20.7143 C   0  0  0  0  0  0
  -26.0228  -26.8594   19.5071 C   0  0  0  0  0  0
  -24.8662  -27.6642   19.4991 C   0  0  0  0  0  0
  -23.6429  -29.8117   20.1595 C   0  0  0  0  0  0
  -25.4118  -36.3059   24.0330 C   0  0  1  0  0  0
  -20.5888  -28.3674   23.1283 C   0  0  2  0  0  0
  -20.6778  -26.9397   22.5407 C   0  0  0  0  0  0
  -19.5760  -26.6374   21.5211 C   0  0  0  0  0  0
  -18.1931  -26.7926   22.1613 C   0  0  0  0  0  0
  -19.1536  -28.8849   23.2874 C   0  0  0  0  0  0
  -18.9452  -30.1458   23.8883 C   0  0  0  0  0  0
  -17.6451  -30.6579   24.0557 C   0  0  0  0  0  0
  -25.9059  -34.9430   23.5097 C   0  0  0  0  0  0
  -16.5339  -29.9061   23.6332 C   0  0  0  0  0  0
  -16.7265  -28.6487   23.0352 C   0  0  0  0  0  0
  -26.4517  -31.6577   25.0742 C   0  0  0  0  0  0
  -25.3754  -31.3685   26.1471 C   0  0  0  0  0  0
  -27.0374  -30.3013   24.6203 C   0  0  0  0  0  0
  -27.6090  -32.4299   25.7510 C   0  0  0  0  0  0
  -27.5578  -37.1791   24.8462 C   0  0  0  0  0  0
  -21.4211  -29.3025   22.3691 N   0  0  0  0  0  0
  -26.4283  -37.3759   23.9413 N   0  0  0  0  0  0
  -24.6959  -31.0531   22.0973 N   0  0  0  0  0  0
  -23.4204  -28.8133   23.3052 O   0  0  0  0  0  0
  -28.3563  -26.4374   20.2142 O   0  0  0  0  0  0
  -26.5608  -34.8900   22.4651 O   0  0  0  0  0  0
  -23.5477  -32.1372   23.7311 O   0  0  0  0  0  0
  -29.7990  -18.8514   20.5461 C   0  0  0  0  0  0
  -29.2794  -20.9819   20.4068 C   0  0  0  0  0  0
  -28.0695  -19.2778   15.3439 C   0  0  0  0  0  0
  -29.8430  -21.0490   14.9841 C   0  0  0  0  0  0
  -30.2396  -17.4006   20.1127 C   0  0  0  0  0  0
  -28.9381  -22.3737   19.7536 C   0  0  0  0  0  0
  -29.8771  -16.0582   20.9285 C   0  0  0  0  0  0
  -28.6556  -23.7356   20.5598 C   0  0  0  0  0  0
  -29.5783  -20.0057   17.2767 C   0  0  0  0  0  0
  -28.6164  -19.5850   18.4065 C   0  0  0  0  0  0
  -28.4344  -25.0528   19.6536 C   0  0  0  0  0  0
  -28.8535  -20.4350   15.9869 C   0  0  0  0  0  0
  -30.1984  -19.4401   21.6855 N   0  0  0  0  0  0
  -29.8822  -20.8014   21.5914 N   0  0  0  0  0  0
  -29.1897  -19.7821   19.7301 N   0  0  0  0  0  0
  -31.4740  -12.5366   19.1847 H   0  0  0  0  0  0
  -30.3484  -11.4421   19.9383 H   0  0  0  0  0  0
  -29.7911  -11.7640   17.5032 H   0  0  0  0  0  0
  -29.6509  -13.4862   17.7494 H   0  0  0  0  0  0
  -27.8874  -11.2909   18.8846 H   0  0  0  0  0  0
  -27.3838  -12.5558   17.7917 H   0  0  0  0  0  0
  -27.6472  -14.2568   19.4927 H   0  0  0  0  0  0
  -28.7001  -12.1381   21.4205 H   0  0  0  0  0  0
  -28.4130  -13.8125   21.8105 H   0  0  0  0  0  0
  -25.2759   -9.5759   22.4735 H   0  0  0  0  0  0
  -24.0049   -7.4672   22.7473 H   0  0  0  0  0  0
  -21.0853   -8.8720   19.8926 H   0  0  0  0  0  0
  -22.3646  -10.9659   19.6159 H   0  0  0  0  0  0
  -21.1979   -7.6136   23.9677 H   0  0  0  0  0  0
  -21.1514   -6.0527   25.9065 H   0  0  0  0  0  0
  -22.0586   -2.7591   23.2852 H   0  0  0  0  0  0
  -22.4156  -11.9846   22.4810 H   0  0  0  0  0  0
  -21.1103  -13.1174   22.2588 H   0  0  0  0  0  0
  -24.6582  -15.8466   20.5286 H   0  0  0  0  0  0
  -26.2814  -15.6356   20.1076 H   0  0  0  0  0  0
  -26.7237  -32.5381   23.1100 H   0  0  0  0  0  0
  -25.0176  -33.9687   25.0467 H   0  0  0  0  0  0
  -22.7221  -31.2981   21.3986 H   0  0  0  0  0  0
  -23.3762  -35.9613   23.3284 H   0  0  0  0  0  0
  -24.3596  -36.8916   22.2057 H   0  0  0  0  0  0
  -23.7258  -37.6476   23.6672 H   0  0  0  0  0  0
  -26.1053  -31.5337   20.6037 H   0  0  0  0  0  0
  -26.8498  -30.8218   22.0043 H   0  0  0  0  0  0
  -28.1122  -28.9424   21.2007 H   0  0  0  0  0  0
  -25.9197  -25.8909   19.0464 H   0  0  0  0  0  0
  -23.9662  -27.2882   19.0312 H   0  0  0  0  0  0
  -23.7705  -30.5882   19.4044 H   0  0  0  0  0  0
  -22.7609  -29.2464   19.8534 H   0  0  0  0  0  0
  -25.1304  -36.1899   25.0821 H   0  0  0  0  0  0
  -20.9958  -28.3239   24.1412 H   0  0  0  0  0  0
  -20.5678  -26.2281   23.3602 H   0  0  0  0  0  0
  -21.6645  -26.7428   22.1198 H   0  0  0  0  0  0
  -19.6911  -25.6279   21.1251 H   0  0  0  0  0  0
  -19.6710  -27.3178   20.6739 H   0  0  0  0  0  0
  -17.4209  -26.6681   21.4002 H   0  0  0  0  0  0
  -18.0316  -26.0055   22.8996 H   0  0  0  0  0  0
  -19.7924  -30.7286   24.2244 H   0  0  0  0  0  0
  -17.4987  -31.6252   24.5157 H   0  0  0  0  0  0
  -15.5339  -30.2948   23.7666 H   0  0  0  0  0  0
  -15.8669  -28.0789   22.7076 H   0  0  0  0  0  0
  -24.5951  -30.7010   25.7793 H   0  0  0  0  0  0
  -24.8916  -32.2827   26.4922 H   0  0  0  0  0  0
  -25.8091  -30.8851   27.0237 H   0  0  0  0  0  0
  -26.2951  -29.6739   24.1258 H   0  0  0  0  0  0
  -27.4122  -29.7290   25.4698 H   0  0  0  0  0  0
  -27.8799  -30.4321   23.9408 H   0  0  0  0  0  0
  -27.2742  -33.3614   26.2081 H   0  0  0  0  0  0
  -28.3911  -32.6820   25.0339 H   0  0  0  0  0  0
  -28.0756  -31.8422   26.5426 H   0  0  0  0  0  0
  -28.2578  -38.0103   24.7515 H   0  0  0  0  0  0
  -28.1090  -36.2629   24.6280 H   0  0  0  0  0  0
  -27.2293  -37.1436   25.8862 H   0  0  0  0  0  0
  -20.9409  -29.8750   21.6893 H   0  0  0  0  0  0
  -26.0160  -38.2831   24.1408 H   0  0  0  0  0  0
  -27.4681  -19.6276   14.5050 H   0  0  0  0  0  0
  -27.3834  -18.8112   16.0504 H   0  0  0  0  0  0
  -28.7398  -18.5024   14.9727 H   0  0  0  0  0  0
  -29.3302  -21.4447   14.1070 H   0  0  0  0  0  0
  -30.5717  -20.3131   14.6432 H   0  0  0  0  0  0
  -30.3966  -21.8758   15.4301 H   0  0  0  0  0  0
  -31.3273  -17.4453   20.0519 H   0  0  0  0  0  0
  -29.9256  -17.2451   19.0820 H   0  0  0  0  0  0
  -28.0711  -22.2246   19.1129 H   0  0  0  0  0  0
  -29.7568  -22.5857   19.0675 H   0  0  0  0  0  0
  -28.7980  -15.9172   20.8933 H   0  0  0  0  0  0
  -30.1250  -16.2160   21.9784 H   0  0  0  0  0  0
  -29.5014  -23.9114   21.2237 H   0  0  0  0  0  0
  -27.7921  -23.5917   21.2102 H   0  0  0  0  0  0
  -30.2780  -19.1953   17.0691 H   0  0  0  0  0  0
  -30.1914  -20.8400   17.6164 H   0  0  0  0  0  0
  -28.3085  -18.5460   18.2916 H   0  0  0  0  0  0
  -27.6906  -20.1582   18.3595 H   0  0  0  0  0  0
  -27.6361  -24.8406   18.9506 H   0  0  0  0  0  0
  -29.3110  -25.1044   19.0073 H   0  0  0  0  0  0
  -28.1385  -21.2165   16.2531 H   0  0  0  0  0  0
  1 25  1  0  0  0
  1 30  2  0  0  0
  1 77  1  0  0  0
  2  3  1  0  0  0
  2 25  1  0  0  0
  2 86  1  0  0  0
  2 87  1  0  0  0
  3  4  1  0  0  0
  3 88  1  0  0  0
  3 89  1  0  0  0
  4  5  1  0  0  0
  4 90  1  0  0  0
  4 91  1  0  0  0
  5  6  1  0  0  0
  5 26  1  0  0  0
  5 92  1  0  0  0
  6 25  1  0  0  0
  6 93  1  0  0  0
  6 94  1  0  0  0
  7  8  2  0  0  0
  7 26  1  0  0  0
  7 29  1  0  0  0
  8  9  1  0  0  0
  8 22  1  0  0  0
  9 10  1  0  0  0
  9 27  2  0  0  0
 10 11  2  0  0  0
 10 15  1  0  0  0
 11 12  1  0  0  0
 11 95  1  0  0  0
 12 13  2  0  0  0
 12 96  1  0  0  0
 13 14  1  0  0  0
 13 31  1  0  0  0
 14 15  2  0  0  0
 14 97  1  0  0  0
 15 98  1  0  0  0
 16 17  2  0  0  0
 16 21  1  0  0  0
 16 31  1  0  0  0
 17 18  1  0  0  0
 17 99  1  0  0  0
 18 19  2  0  0  0
 18100  1  0  0  0
 19 20  1  0  0  0
 19 24  1  0  0  0
 20 21  2  0  0  0
 20101  1  0  0  0
 21 23  1  0  0  0
 22 28  1  0  0  0
 22 32  2  0  0  0
 26 27  1  0  0  0
 28102  1  0  0  0
 28103  1  0  0  0
 29104  1  0  0  0
 29105  1  0  0  0
 33 34  1  0  0  0
 33 66  1  0  0  0
 33 70  2  0  0  0
 34 36  1  0  0  0
 34 59  1  0  0  0
 34106  1  0  0  0
 35 44  2  0  0  0
 35 45  1  0  0  0
 35 68  1  0  0  0
 36 56  1  0  0  0
 36107  1  0  0  0
 37 39  1  0  0  0
 37 47  1  0  0  0
 37 66  1  0  0  0
 37108  1  0  0  0
 38 43  2  0  0  0
 38 46  1  0  0  0
 38 47  1  0  0  0
 39 64  1  0  0  0
 39 67  2  0  0  0
 40 52  1  0  0  0
 40 53  2  0  0  0
 40 58  1  0  0  0
 41109  1  0  0  0
 41110  1  0  0  0
 41111  1  0  0  0
 41 48  1  0  0  0
 42 43  1  0  0  0
 42 66  1  0  0  0
 42112  1  0  0  0
 42113  1  0  0  0
 43 44  1  0  0  0
 44114  1  0  0  0
 45 46  2  0  0  0
 45115  1  0  0  0
 46116  1  0  0  0
 47117  1  0  0  0
 47118  1  0  0  0
 48 56  1  0  0  0
 48 65  1  0  0  0
 48119  1  0  0  0
 49 50  1  0  0  0
 49 53  1  0  0  0
 49 64  1  0  0  0
 49120  1  0  0  0
 50 51  1  0  0  0
 50121  1  0  0  0
 50122  1  0  0  0
 51 52  1  0  0  0
 51123  1  0  0  0
 51124  1  0  0  0
 52125  1  0  0  0
 52126  1  0  0  0
 53 54  1  0  0  0
 54 55  2  0  0  0
 54127  1  0  0  0
 55 57  1  0  0  0
 55128  1  0  0  0
 56 69  2  0  0  0
 57 58  2  0  0  0
 57129  1  0  0  0
 58130  1  0  0  0
 59 60  1  0  0  0
 59 61  1  0  0  0
 59 62  1  0  0  0
 60131  1  0  0  0
 60132  1  0  0  0
 60133  1  0  0  0
 61134  1  0  0  0
 61135  1  0  0  0
 61136  1  0  0  0
 62137  1  0  0  0
 62138  1  0  0  0
 62139  1  0  0  0
 63 65  1  0  0  0
 63140  1  0  0  0
 63141  1  0  0  0
 63142  1  0  0  0
 64143  1  0  0  0
 65144  1  0  0  0
 68 81  1  0  0  0
 71 75  1  0  0  0
 71 83  2  0  0  0
 71 85  1  0  0  0
 72 76  1  0  0  0
 72 84  2  0  0  0
 72 85  1  0  0  0
 73145  1  0  0  0
 73146  1  0  0  0
 73147  1  0  0  0
 73 82  1  0  0  0
 74 82  1  0  0  0
 74148  1  0  0  0
 74149  1  0  0  0
 74150  1  0  0  0
 75 77  1  0  0  0
 75151  1  0  0  0
 75152  1  0  0  0
 76 78  1  0  0  0
 76153  1  0  0  0
 76154  1  0  0  0
 77155  1  0  0  0
 77156  1  0  0  0
 78 81  1  0  0  0
 78157  1  0  0  0
 78158  1  0  0  0
 79 80  1  0  0  0
 79 82  1  0  0  0
 79159  1  0  0  0
 79160  1  0  0  0
 80 85  1  0  0  0
 80161  1  0  0  0
 80162  1  0  0  0
 81163  1  0  0  0
 81164  1  0  0  0
 82165  1  0  0  0
 83 84  1  0  0  0
M  ISO  4   1 100  68 101  77 100  81 101
M  END
> <chiral flag>
0

> <version>
0

> <s_m_source_file>
/data/baiqing/PycharmProjects/Reinvent-master-3.2/result/LINK_invent/BTK/process_docking_weight1_custom_sum_contain_oxygen_bond_distance_aromatic_linkinvent_7_9_3/rearranged_h_0074.sdf

> <i_m_source_file_index>
6

> <r_mmod_Potential_Energy-OPLS-2005>
60.7054214477539

> <r_mmod_Stretch_Energy-OPLS-2005>
108.648010253906

> <r_mmod_Bend_Energy-OPLS-2005>
185.470764160156

> <r_mmod_Torsional_Energy-OPLS-2005>
195.354400634766

> <r_mmod_Improper_Torsional_Energy-OPLS-2005>
5.12063837051392

> <r_mmod_Van_der_Waal_Energy-OPLS-2005>
114.050750732422

> <r_mmod_Electrostatic_Energy-OPLS-2005>
-386.436584472656

> <r_mmod_Solvation_Energy-OPLS-2005>
-230.421508789062

> <b_mmod_Minimization_Converged-OPLS-2005>
0

> <r_mmod_RMS_Derivative-OPLS-2005>
2.79016780853271

$$$$
6
                    3D
 Structure written by MMmdl.
167175  0  0  1  0            999 V2000
  -28.3596  -16.7563   20.8950 C   0  0  0  0  0  0
  -29.8182  -14.2575   19.8008 C   0  0  0  0  0  0
  -29.4513  -13.1799   18.6439 C   0  0  0  0  0  0
  -28.2031  -12.3694   18.9822 C   0  0  0  0  0  0
  -27.3941  -13.3108   19.8634 C   0  0  2  0  0  0
  -28.0873  -13.9138   21.0993 C   0  0  0  0  0  0
  -25.1129  -13.8000   20.5508 C   0  0  0  0  0  0
  -24.0836  -13.0139   20.9352 C   0  0  0  0  0  0
  -24.5697  -11.6690   20.8840 C   0  0  0  0  0  0
  -23.8658  -10.4095   21.0513 C   0  0  0  0  0  0
  -24.3398   -9.4087   21.9244 C   0  0  0  0  0  0
  -23.6171   -8.2088   22.0765 C   0  0  0  0  0  0
  -22.4161   -8.0116   21.3541 C   0  0  0  0  0  0
  -21.9706   -9.0032   20.4642 C   0  0  0  0  0  0
  -22.6923  -10.1939   20.3084 C   0  0  0  0  0  0
  -21.6791   -6.0648   22.5298 C   0  0  0  0  0  0
  -21.3971   -6.5587   23.8222 C   0  0  0  0  0  0
  -21.3639   -5.6755   24.9194 C   0  0  0  0  0  0
  -21.6047   -4.3020   24.7257 C   0  0  0  0  0  0
  -21.8826   -3.8095   23.4385 C   0  0  0  0  0  0
  -21.9178   -4.6893   22.3434 C   0  0  0  0  0  0
  -22.7008  -13.4977   21.2107 C   0  0  0  0  0  0
  -22.1657   -4.2089   21.1011 F   0  0  0  0  0  0
  -21.5633   -3.4519   25.7779 F   0  0  0  0  0  0
  -28.6405  -15.1727   20.5646 N   0  0  0  0  0  0
  -26.1238  -12.9132   20.2757 N   0  0  0  0  0  0
  -25.8475  -11.6279   20.5471 N   0  0  0  0  0  0
  -21.9762  -12.8015   22.0741 N   0  0  0  0  0  0
  -25.2707  -15.1798   20.3893 N   0  0  0  0  0  0
  -29.6714  -16.8272   20.7341 O   0  0  0  0  0  0
  -21.6553   -6.8728   21.4234 O   0  0  0  0  0  0
  -22.2819  -14.5349   20.6971 O   0  0  0  0  0  0
  -24.6544  -31.9448   23.2352 C   0  0  0  0  0  0
  -25.9469  -32.5160   23.8688 C   0  0  1  0  0  0
  -26.9236  -27.4388   19.9257 C   0  0  0  0  0  0
  -25.6333  -33.8899   24.2641 N   0  0  0  0  0  0
  -23.4564  -30.5519   21.6479 C   0  0  2  0  0  0
  -24.8501  -29.2114   19.9728 C   0  0  0  0  0  0
  -23.1296  -29.4379   22.6659 C   0  0  0  0  0  0
  -18.5557  -26.9082   22.7826 C   0  0  0  0  0  0
  -24.1499  -36.7406   23.2597 C   0  0  0  0  0  0
  -25.9952  -30.8219   21.4604 C   0  0  0  0  0  0
  -25.9901  -29.5015   20.7296 C   0  0  0  0  0  0
  -27.0455  -28.5579   20.7850 C   0  0  0  0  0  0
  -26.0669  -27.4595   18.8521 C   0  0  0  0  0  0
  -24.9371  -28.2531   18.9646 C   0  0  0  0  0  0
  -23.6162  -30.0568   20.1874 C   0  0  0  0  0  0
  -25.4115  -36.3273   24.0353 C   0  0  1  0  0  0
  -21.6837  -27.6697   23.3418 C   0  0  2  0  0  0
  -23.1328  -26.3346   22.1343 C   0  0  0  0  0  0
  -20.9391  -24.5917   20.3903 C   0  0  0  0  0  0
  -18.7557  -25.1485   21.6841 C   0  0  0  0  0  0
  -19.7519  -27.8448   23.4168 C   0  0  0  0  0  0
  -19.3247  -29.2088   23.8831 C   0  0  0  0  0  0
  -18.0304  -29.8140   23.8691 C   0  0  0  0  0  0
  -25.9118  -34.9669   23.5202 C   0  0  0  0  0  0
  -16.9935  -29.0325   23.3499 C   0  0  0  0  0  0
  -17.2690  -27.6960   22.8406 C   0  0  0  0  0  0
  -26.4602  -31.6758   25.1006 C   0  0  0  0  0  0
  -25.3703  -31.3844   26.1585 C   0  0  0  0  0  0
  -27.0510  -30.3191   24.6523 C   0  0  0  0  0  0
  -27.6132  -32.4390   25.7904 C   0  0  0  0  0  0
  -27.5604  -37.1915   24.8473 C   0  0  0  0  0  0
  -21.9116  -29.0886   22.9379 N   0  0  0  0  0  0
  -26.4302  -37.3950   23.9440 N   0  0  0  0  0  0
  -24.7156  -31.1770   22.1217 N   0  0  0  0  0  0
  -24.0003  -28.8773   23.3121 O   0  0  0  0  0  0
  -26.9896  -26.1510   20.3010 O   0  0  0  0  0  0
  -26.5481  -34.9042   22.4640 O   0  0  0  0  0  0
  -23.5723  -32.2185   23.7761 O   0  0  0  0  0  0
  -20.8201  -27.8820   20.9832 C   0  0  0  0  0  0
  -21.4161  -25.1677   22.7524 C   0  0  0  0  0  0
  -21.2809  -26.6544   21.1350 C   0  0  0  0  0  0
  -20.4565  -26.6013   21.3170 C   0  0  0  0  0  0
  -22.2890  -23.8551   22.3060 C   0  0  0  0  0  0
  -19.3038  -26.7569   19.9222 C   0  0  0  0  0  0
  -22.4994  -20.8583   21.6648 C   0  0  0  0  0  0
  -23.6585  -21.5450   23.7873 C   0  0  0  0  0  0
  -27.9705  -19.1653   20.7922 C   0  0  0  0  0  0
  -22.5069  -26.5494   19.7911 C   0  0  0  0  0  0
  -23.9880  -25.5929   19.7076 C   0  0  0  0  0  0
  -25.6052  -20.0582   21.6704 C   0  0  0  0  0  0
  -25.5461  -25.5453   20.5173 C   0  0  0  0  0  0
  -23.5947  -21.7493   22.2645 C   0  0  0  0  0  0
  -20.9397  -24.9652   22.5222 N   0  0  0  0  0  0
  -26.9781  -18.1501   21.2127 N   0  0  0  0  0  0
  -30.4827  -14.9710   19.3112 H   0  0  0  0  0  0
  -30.4837  -13.7999   20.5384 H   0  0  0  0  0  0
  -30.2967  -12.5271   18.4230 H   0  0  0  0  0  0
  -29.2592  -13.7298   17.7234 H   0  0  0  0  0  0
  -28.4691  -11.4722   19.5415 H   0  0  0  0  0  0
  -27.6643  -12.0613   18.0863 H   0  0  0  0  0  0
  -27.1687  -14.1040   19.1455 H   0  0  0  0  0  0
  -28.7638  -13.2240   21.6079 H   0  0  0  0  0  0
  -27.3894  -14.2101   21.8844 H   0  0  0  0  0  0
  -25.2535   -9.5654   22.4807 H   0  0  0  0  0  0
  -23.9924   -7.4481   22.7466 H   0  0  0  0  0  0
  -21.0644   -8.8478   19.8951 H   0  0  0  0  0  0
  -22.3341  -10.9479   19.6215 H   0  0  0  0  0  0
  -21.1938   -7.6094   23.9707 H   0  0  0  0  0  0
  -21.1460   -6.0494   25.9096 H   0  0  0  0  0  0
  -22.0632   -2.7561   23.2897 H   0  0  0  0  0  0
  -22.3383  -11.9673   22.5109 H   0  0  0  0  0  0
  -21.0426  -13.1078   22.3072 H   0  0  0  0  0  0
  -24.4489  -15.7742   20.4414 H   0  0  0  0  0  0
  -25.9832  -15.5565   19.7793 H   0  0  0  0  0  0
  -26.7566  -32.5731   23.1442 H   0  0  0  0  0  0
  -25.0652  -34.0076   25.0905 H   0  0  0  0  0  0
  -22.6414  -31.2774   21.6563 H   0  0  0  0  0  0
  -23.3790  -35.9709   23.3280 H   0  0  0  0  0  0
  -24.3628  -36.8975   22.2010 H   0  0  0  0  0  0
  -23.7192  -37.6612   23.6549 H   0  0  0  0  0  0
  -26.2236  -31.5998   20.7320 H   0  0  0  0  0  0
  -26.8527  -30.7778   22.1194 H   0  0  0  0  0  0
  -27.7915  -28.6002   21.5655 H   0  0  0  0  0  0
  -26.0529  -26.6571   18.1265 H   0  0  0  0  0  0
  -24.1576  -28.1472   18.2233 H   0  0  0  0  0  0
  -23.7322  -30.9350   19.5509 H   0  0  0  0  0  0
  -22.6984  -29.6001   19.8332 H   0  0  0  0  0  0
  -25.1247  -36.2180   25.0843 H   0  0  0  0  0  0
  -21.9866  -27.6086   24.3900 H   0  0  0  0  0  0
  -23.7768  -25.7875   22.8331 H   0  0  0  0  0  0
  -23.8334  -27.0231   21.6620 H   0  0  0  0  0  0
  -21.0798  -23.5094   20.3091 H   0  0  0  0  0  0
  -20.8427  -24.8077   19.3251 H   0  0  0  0  0  0
  -17.8731  -25.0022   21.0588 H   0  0  0  0  0  0
  -18.5887  -24.3538   22.4171 H   0  0  0  0  0  0
  -20.0863  -29.8491   24.3055 H   0  0  0  0  0  0
  -17.8610  -30.8135   24.2468 H   0  0  0  0  0  0
  -15.9895  -29.4295   23.3082 H   0  0  0  0  0  0
  -16.4163  -27.1960   22.4032 H   0  0  0  0  0  0
  -24.5914  -30.7212   25.7801 H   0  0  0  0  0  0
  -24.8845  -32.2986   26.5010 H   0  0  0  0  0  0
  -25.7934  -30.8983   27.0381 H   0  0  0  0  0  0
  -26.3227  -29.6995   24.1319 H   0  0  0  0  0  0
  -27.3931  -29.7380   25.5096 H   0  0  0  0  0  0
  -27.9185  -30.4502   24.0050 H   0  0  0  0  0  0
  -27.2740  -33.3637   26.2578 H   0  0  0  0  0  0
  -28.3991  -32.7015   25.0812 H   0  0  0  0  0  0
  -28.0729  -31.8408   26.5778 H   0  0  0  0  0  0
  -28.2623  -38.0215   24.7563 H   0  0  0  0  0  0
  -28.1098  -36.2761   24.6236 H   0  0  0  0  0  0
  -27.2341  -37.1505   25.8878 H   0  0  0  0  0  0
  -21.1511  -29.5277   22.4391 H   0  0  0  0  0  0
  -26.0217  -38.3037   24.1446 H   0  0  0  0  0  0
  -20.7657  -28.4627   20.0710 H   0  0  0  0  0  0
  -21.9706  -25.4803   23.9120 H   0  0  0  0  0  0
  -19.7184  -27.1823   19.0034 H   0  0  0  0  0  0
  -18.4411  -27.3750   20.1758 H   0  0  0  0  0  0
  -18.9229  -25.8478   19.4540 H   0  0  0  0  0  0
  -21.5474  -20.9940   22.1789 H   0  0  0  0  0  0
  -22.7708  -19.8047   21.7325 H   0  0  0  0  0  0
  -22.3350  -21.0982   20.6144 H   0  0  0  0  0  0
  -22.6846  -21.7051   24.2524 H   0  0  0  0  0  0
  -24.3534  -22.2509   24.2440 H   0  0  0  0  0  0
  -23.9924  -20.5430   24.0531 H   0  0  0  0  0  0
  -27.5525  -20.1161   20.4787 H   0  0  0  0  0  0
  -28.5361  -18.9028   19.8945 H   0  0  0  0  0  0
  -28.6766  -19.3745   21.5997 H   0  0  0  0  0  0
  -22.7834  -27.5719   19.6832 H   0  0  0  0  0  0
  -22.0007  -26.4015   18.8398 H   0  0  0  0  0  0
  -24.2114  -25.5271   18.6425 H   0  0  0  0  0  0
  -23.6144  -24.5899   19.9014 H   0  0  0  0  0  0
  -25.2046  -19.3959   22.4351 H   0  0  0  0  0  0
  -26.3706  -20.6550   22.1701 H   0  0  0  0  0  0
  -25.8075  -24.4961   20.3852 H   0  0  0  0  0  0
  -25.4387  -25.5834   21.5925 H   0  0  0  0  0  0
  1 25  1  0  0  0
  1 30  2  0  0  0
  1 86  1  0  0  0
  2  3  1  0  0  0
  2 25  1  0  0  0
  2 87  1  0  0  0
  2 88  1  0  0  0
  3  4  1  0  0  0
  3 89  1  0  0  0
  3 90  1  0  0  0
  4  5  1  0  0  0
  4 91  1  0  0  0
  4 92  1  0  0  0
  5  6  1  0  0  0
  5 26  1  0  0  0
  5 93  1  0  0  0
  6 25  1  0  0  0
  6 94  1  0  0  0
  6 95  1  0  0  0
  7  8  2  0  0  0
  7 26  1  0  0  0
  7 29  1  0  0  0
  8  9  1  0  0  0
  8 22  1  0  0  0
  9 10  1  0  0  0
  9 27  2  0  0  0
 10 11  2  0  0  0
 10 15  1  0  0  0
 11 12  1  0  0  0
 11 96  1  0  0  0
 12 13  2  0  0  0
 12 97  1  0  0  0
 13 14  1  0  0  0
 13 31  1  0  0  0
 14 15  2  0  0  0
 14 98  1  0  0  0
 15 99  1  0  0  0
 16 17  2  0  0  0
 16 21  1  0  0  0
 16 31  1  0  0  0
 17 18  1  0  0  0
 17100  1  0  0  0
 18 19  2  0  0  0
 18101  1  0  0  0
 19 20  1  0  0  0
 19 24  1  0  0  0
 20 21  2  0  0  0
 20102  1  0  0  0
 21 23  1  0  0  0
 22 28  1  0  0  0
 22 32  2  0  0  0
 26 27  1  0  0  0
 28103  1  0  0  0
 28104  1  0  0  0
 29105  1  0  0  0
 29106  1  0  0  0
 33 34  1  0  0  0
 33 66  1  0  0  0
 33 70  2  0  0  0
 34 36  1  0  0  0
 34 59  1  0  0  0
 34107  1  0  0  0
 35 44  2  0  0  0
 35 45  1  0  0  0
 35 68  1  0  0  0
 36 56  1  0  0  0
 36108  1  0  0  0
 37 39  1  0  0  0
 37 47  1  0  0  0
 37 66  1  0  0  0
 37109  1  0  0  0
 38 43  2  0  0  0
 38 46  1  0  0  0
 38 47  1  0  0  0
 39 64  1  0  0  0
 39 67  2  0  0  0
 40 52  1  0  0  0
 40 53  2  0  0  0
 40 58  1  0  0  0
 41110  1  0  0  0
 41111  1  0  0  0
 41112  1  0  0  0
 41 48  1  0  0  0
 42 43  1  0  0  0
 42 66  1  0  0  0
 42113  1  0  0  0
 42114  1  0  0  0
 43 44  1  0  0  0
 44115  1  0  0  0
 45 46  2  0  0  0
 45116  1  0  0  0
 46117  1  0  0  0
 47118  1  0  0  0
 47119  1  0  0  0
 48 56  1  0  0  0
 48 65  1  0  0  0
 48120  1  0  0  0
 49 50  1  0  0  0
 49 53  1  0  0  0
 49 64  1  0  0  0
 49121  1  0  0  0
 50 51  1  0  0  0
 50122  1  0  0  0
 50123  1  0  0  0
 51 52  1  0  0  0
 51124  1  0  0  0
 51125  1  0  0  0
 52126  1  0  0  0
 52127  1  0  0  0
 53 54  1  0  0  0
 54 55  2  0  0  0
 54128  1  0  0  0
 55 57  1  0  0  0
 55129  1  0  0  0
 56 69  2  0  0  0
 57 58  2  0  0  0
 57130  1  0  0  0
 58131  1  0  0  0
 59 60  1  0  0  0
 59 61  1  0  0  0
 59 62  1  0  0  0
 60132  1  0  0  0
 60133  1  0  0  0
 60134  1  0  0  0
 61135  1  0  0  0
 61136  1  0  0  0
 61137  1  0  0  0
 62138  1  0  0  0
 62139  1  0  0  0
 62140  1  0  0  0
 63 65  1  0  0  0
 63141  1  0  0  0
 63142  1  0  0  0
 63143  1  0  0  0
 64144  1  0  0  0
 65145  1  0  0  0
 68 83  1  0  0  0
 71 73  2  0  0  0
 71 74  1  0  0  0
 71146  1  0  0  0
 72 73  1  0  0  0
 72 75  2  0  0  0
 72147  1  0  0  0
 73 80  1  0  0  0
 74 76  1  0  0  0
 74 85  2  0  0  0
 75 84  1  0  0  0
 75 85  1  0  0  0
 76148  1  0  0  0
 76149  1  0  0  0
 76150  1  0  0  0
 77151  1  0  0  0
 77152  1  0  0  0
 77153  1  0  0  0
 77 84  1  0  0  0
 78 84  1  0  0  0
 78154  1  0  0  0
 78155  1  0  0  0
 78156  1  0  0  0
 79 86  1  0  0  0
 79157  1  0  0  0
 79158  1  0  0  0
 79159  1  0  0  0
 80 81  1  0  0  0
 80160  1  0  0  0
 80161  1  0  0  0
 81 83  1  0  0  0
 81162  1  0  0  0
 81163  1  0  0  0
 82 84  1  0  0  0
 82 86  1  0  0  0
 82164  1  0  0  0
 82165  1  0  0  0
 83166  1  0  0  0
 83167  1  0  0  0
M  ISO  4   1 100  68 101  83 101  86 100
M  END
> <chiral flag>
0

> <version>
0

> <s_m_source_file>
/data/baiqing/PycharmProjects/Reinvent-master-3.2/result/LINK_invent/BTK/process_docking_weight1_custom_sum_contain_oxygen_bond_distance_aromatic_linkinvent_7_9_3/rearranged_h_0074.sdf

> <i_m_source_file_index>
7

> <r_mmod_Potential_Energy-OPLS-2005>
29343.6328125

> <r_mmod_Stretch_Energy-OPLS-2005>
14952.619140625

> <r_mmod_Bend_Energy-OPLS-2005>
4029.24389648438

> <r_mmod_Torsional_Energy-OPLS-2005>
706.008544921875

> <r_mmod_Improper_Torsional_Energy-OPLS-2005>
57.7075538635254

> <r_mmod_Van_der_Waal_Energy-OPLS-2005>
3774.9560546875

> <r_mmod_Electrostatic_Energy-OPLS-2005>
-516.297546386719

> <r_mmod_Solvation_Energy-OPLS-2005>
-233.651885986328

> <b_mmod_Minimization_Converged-OPLS-2005>
0

> <r_mmod_RMS_Derivative-OPLS-2005>
6.4410457611084

$$$$
7
                    3D
 Structure written by MMmdl.
176184  0  0  1  0            999 V2000
  -30.7503  -14.5310   20.6623 C   0  0  0  0  0  0
  -30.3977  -12.3725   19.4525 C   0  0  0  0  0  0
  -29.4898  -12.5505   18.2187 C   0  0  0  0  0  0
  -28.0154  -12.3771   18.6147 C   0  0  0  0  0  0
  -27.6507  -13.2157   19.8622 C   0  0  2  0  0  0
  -28.6798  -13.0432   20.9925 C   0  0  0  0  0  0
  -25.2542  -13.8106   20.5679 C   0  0  0  0  0  0
  -24.1790  -13.0362   20.9106 C   0  0  0  0  0  0
  -24.6371  -11.6843   20.8611 C   0  0  0  0  0  0
  -23.9029  -10.4213   21.0335 C   0  0  0  0  0  0
  -24.3601   -9.4122   21.9120 C   0  0  0  0  0  0
  -23.6246   -8.2194   22.0762 C   0  0  0  0  0  0
  -22.4220   -8.0238   21.3562 C   0  0  0  0  0  0
  -21.9821   -9.0231   20.4711 C   0  0  0  0  0  0
  -22.7182  -10.2074   20.3030 C   0  0  0  0  0  0
  -21.6874   -6.0667   22.5253 C   0  0  0  0  0  0
  -21.4048   -6.5538   23.8186 C   0  0  0  0  0  0
  -21.3675   -5.6704   24.9163 C   0  0  0  0  0  0
  -21.6070   -4.2944   24.7209 C   0  0  0  0  0  0
  -21.8839   -3.8070   23.4317 C   0  0  0  0  0  0
  -21.9192   -4.6900   22.3382 C   0  0  0  0  0  0
  -22.7850  -13.5126   21.1888 C   0  0  0  0  0  0
  -22.1648   -4.2082   21.0966 F   0  0  0  0  0  0
  -21.5668   -3.4422   25.7701 F   0  0  0  0  0  0
  -30.0166  -13.3775   20.4759 N   0  0  0  0  0  0
  -26.2947  -12.9302   20.3254 N   0  0  0  0  0  0
  -25.9286  -11.6422   20.5668 N   0  0  0  0  0  0
  -22.0658  -12.7947   22.0383 N   0  0  0  0  0  0
  -25.4367  -15.1817   20.4331 N   0  0  0  0  0  0
  -31.7357  -14.7033   19.9354 O   0  0  0  0  0  0
  -21.6626   -6.8822   21.4208 O   0  0  0  0  0  0
  -22.3422  -14.5475   20.6891 O   0  0  0  0  0  0
  -24.6208  -31.8603   23.2056 C   0  0  0  0  0  0
  -25.9066  -32.4792   23.8387 C   0  0  1  0  0  0
  -27.2186  -27.3344   20.1176 C   0  0  0  0  0  0
  -25.5893  -33.8596   24.2321 N   0  0  0  0  0  0
  -23.4146  -30.4834   21.5467 C   0  0  2  0  0  0
  -24.8624  -28.9392   20.1118 C   0  0  0  0  0  0
  -22.7441  -29.4630   22.4956 C   0  0  0  0  0  0
  -18.0280  -28.1357   22.8490 C   0  0  0  0  0  0
  -24.1481  -36.7294   23.2649 C   0  0  0  0  0  0
  -25.9535  -30.7960   21.3708 C   0  0  0  0  0  0
  -26.0315  -29.4243   20.7129 C   0  0  0  0  0  0
  -27.2157  -28.6352   20.7040 C   0  0  0  0  0  0
  -26.0337  -26.8963   19.4925 C   0  0  0  0  0  0
  -24.8641  -27.6790   19.4906 C   0  0  0  0  0  0
  -23.6303  -29.8156   20.1627 C   0  0  0  0  0  0
  -25.4109  -36.3103   24.0354 C   0  0  1  0  0  0
  -20.5866  -28.3673   23.1292 C   0  0  2  0  0  0
  -20.6755  -26.9402   22.5403 C   0  0  0  0  0  0
  -19.5739  -26.6372   21.5196 C   0  0  0  0  0  0
  -18.1927  -26.7904   22.1618 C   0  0  0  0  0  0
  -19.1526  -28.8836   23.2888 C   0  0  0  0  0  0
  -18.9461  -30.1434   23.8903 C   0  0  0  0  0  0
  -17.6460  -30.6573   24.0559 C   0  0  0  0  0  0
  -25.9044  -34.9460   23.5149 C   0  0  0  0  0  0
  -16.5357  -29.9068   23.6307 C   0  0  0  0  0  0
  -16.7268  -28.6475   23.0361 C   0  0  0  0  0  0
  -26.4480  -31.6595   25.0728 C   0  0  0  0  0  0
  -25.3741  -31.3683   26.1473 C   0  0  0  0  0  0
  -27.0327  -30.3040   24.6134 C   0  0  0  0  0  0
  -27.6048  -32.4323   25.7488 C   0  0  0  0  0  0
  -27.5578  -37.1804   24.8474 C   0  0  0  0  0  0
  -21.4157  -29.3027   22.3683 N   0  0  0  0  0  0
  -26.4292  -37.3789   23.9414 N   0  0  0  0  0  0
  -24.6818  -31.0621   22.0988 N   0  0  0  0  0  0
  -23.4190  -28.8165   23.3004 O   0  0  0  0  0  0
  -28.3260  -26.4878   20.1334 O   0  0  0  0  0  0
  -26.5608  -34.8920   22.4712 O   0  0  0  0  0  0
  -23.5378  -32.1413   23.7375 O   0  0  0  0  0  0
  -28.8926  -18.9835   22.2894 C   0  0  0  0  0  0
  -29.5839  -17.8220   22.6996 C   0  0  0  0  0  0
  -28.6648  -18.8974   20.9504 C   0  0  0  0  0  0
  -29.8213  -16.9894   21.6356 C   0  0  0  0  0  0
  -25.8554  -20.5484   17.8928 C   0  0  0  0  0  0
  -28.1930  -16.8864   18.4149 C   0  0  0  0  0  0
  -30.0145  -14.9357   23.1164 C   0  0  0  0  0  0
  -32.0206  -15.9972   22.2520 C   0  0  0  0  0  0
  -29.0640  -20.9244   18.3885 C   0  0  0  0  0  0
  -27.6673  -19.7816   20.1790 C   0  0  0  0  0  0
  -26.6346  -21.5909   18.7181 C   0  0  0  0  0  0
  -28.4982  -23.8800   19.7389 C   0  0  0  0  0  0
  -28.3463  -22.4114   20.3692 C   0  0  0  0  0  0
  -29.4875  -17.3412   19.1018 C   0  0  0  0  0  0
  -28.1291  -25.1205   20.6541 C   0  0  0  0  0  0
  -30.5662  -15.6152   21.8332 C   0  0  0  0  0  0
  -27.9645  -21.1667   19.4371 C   0  0  2  0  0  0
  -29.3317  -17.7145   20.5079 N   0  0  0  0  0  0
  -31.4450  -12.4284   19.1617 H   0  0  0  0  0  0
  -30.2856  -11.3653   19.8571 H   0  0  0  0  0  0
  -29.7600  -11.8324   17.4435 H   0  0  0  0  0  0
  -29.6325  -13.5434   17.7878 H   0  0  0  0  0  0
  -27.8391  -11.3208   18.8146 H   0  0  0  0  0  0
  -27.3679  -12.6470   17.7813 H   0  0  0  0  0  0
  -27.6809  -14.2612   19.5570 H   0  0  0  0  0  0
  -28.6767  -12.0209   21.3691 H   0  0  0  0  0  0
  -28.3409  -13.6566   21.8158 H   0  0  0  0  0  0
  -25.2830   -9.5554   22.4575 H   0  0  0  0  0  0
  -23.9952   -7.4585   22.7498 H   0  0  0  0  0  0
  -21.0747   -8.8723   19.9049 H   0  0  0  0  0  0
  -22.3638  -10.9565   19.6077 H   0  0  0  0  0  0
  -21.2043   -7.6051   23.9684 H   0  0  0  0  0  0
  -21.1548   -6.0435   25.9069 H   0  0  0  0  0  0
  -22.0619   -2.7511   23.2816 H   0  0  0  0  0  0
  -22.4484  -11.9604   22.4609 H   0  0  0  0  0  0
  -21.1218  -13.0735   22.2618 H   0  0  0  0  0  0
  -24.7047  -15.8535   20.6323 H   0  0  0  0  0  0
  -26.3231  -15.6104   20.2069 H   0  0  0  0  0  0
  -26.7120  -32.5469   23.1130 H   0  0  0  0  0  0
  -25.0002  -33.9757   25.0442 H   0  0  0  0  0  0
  -22.7087  -31.3027   21.3999 H   0  0  0  0  0  0
  -23.3755  -35.9614   23.3319 H   0  0  0  0  0  0
  -24.3566  -36.8891   22.2054 H   0  0  0  0  0  0
  -23.7217  -37.6497   23.6661 H   0  0  0  0  0  0
  -26.0811  -31.5610   20.6044 H   0  0  0  0  0  0
  -26.8342  -30.8497   21.9976 H   0  0  0  0  0  0
  -28.1146  -29.0003   21.1807 H   0  0  0  0  0  0
  -26.0116  -25.9279   19.0161 H   0  0  0  0  0  0
  -23.9698  -27.2963   19.0165 H   0  0  0  0  0  0
  -23.7478  -30.5876   19.4025 H   0  0  0  0  0  0
  -22.7516  -29.2438   19.8597 H   0  0  0  0  0  0
  -25.1283  -36.1983   25.0849 H   0  0  0  0  0  0
  -20.9992  -28.3234   24.1401 H   0  0  0  0  0  0
  -20.5622  -26.2287   23.3597 H   0  0  0  0  0  0
  -21.6632  -26.7393   22.1222 H   0  0  0  0  0  0
  -19.6899  -25.6284   21.1220 H   0  0  0  0  0  0
  -19.6668  -27.3175   20.6725 H   0  0  0  0  0  0
  -17.4183  -26.6644   21.4033 H   0  0  0  0  0  0
  -18.0351  -26.0043   22.9018 H   0  0  0  0  0  0
  -19.7949  -30.7236   24.2299 H   0  0  0  0  0  0
  -17.5023  -31.6263   24.5145 H   0  0  0  0  0  0
  -15.5361  -30.2982   23.7624 H   0  0  0  0  0  0
  -15.8669  -28.0784   22.7108 H   0  0  0  0  0  0
  -24.5924  -30.7029   25.7802 H   0  0  0  0  0  0
  -24.8914  -32.2809   26.4969 H   0  0  0  0  0  0
  -25.8087  -30.8819   27.0216 H   0  0  0  0  0  0
  -26.2884  -29.6778   24.1204 H   0  0  0  0  0  0
  -27.4111  -29.7309   25.4611 H   0  0  0  0  0  0
  -27.8719  -30.4367   23.9305 H   0  0  0  0  0  0
  -27.2689  -33.3628   26.2091 H   0  0  0  0  0  0
  -28.3850  -32.6874   25.0301 H   0  0  0  0  0  0
  -28.0745  -31.8432   26.5383 H   0  0  0  0  0  0
  -28.2614  -38.0079   24.7507 H   0  0  0  0  0  0
  -28.1051  -36.2609   24.6336 H   0  0  0  0  0  0
  -27.2283  -37.1499   25.8872 H   0  0  0  0  0  0
  -20.9349  -29.8805   21.6941 H   0  0  0  0  0  0
  -26.0186  -38.2875   24.1400 H   0  0  0  0  0  0
  -28.5261  -19.7671   22.9360 H   0  0  0  0  0  0
  -29.8667  -17.5962   23.7174 H   0  0  0  0  0  0
  -25.0830  -21.0423   17.3018 H   0  0  0  0  0  0
  -25.3342  -19.8258   18.5200 H   0  0  0  0  0  0
  -26.4930  -20.0061   17.1959 H   0  0  0  0  0  0
  -28.3754  -16.0244   17.7700 H   0  0  0  0  0  0
  -27.7827  -17.6774   17.7827 H   0  0  0  0  0  0
  -27.4284  -16.6211   19.1398 H   0  0  0  0  0  0
  -28.9387  -15.0751   23.2120 H   0  0  0  0  0  0
  -30.4203  -15.3605   24.0344 H   0  0  0  0  0  0
  -30.2403  -13.8699   23.1550 H   0  0  0  0  0  0
  -32.0515  -16.6084   23.1542 H   0  0  0  0  0  0
  -32.5262  -16.5753   21.4775 H   0  0  0  0  0  0
  -32.6277  -15.1138   22.4610 H   0  0  0  0  0  0
  -28.8255  -20.0699   17.7550 H   0  0  0  0  0  0
  -30.0251  -20.7185   18.8584 H   0  0  0  0  0  0
  -29.1952  -21.7771   17.7251 H   0  0  0  0  0  0
  -26.8368  -19.9742   20.8606 H   0  0  0  0  0  0
  -27.2180  -19.1115   19.4547 H   0  0  0  0  0  0
  -25.9419  -22.0008   19.4544 H   0  0  0  0  0  0
  -26.8311  -22.4045   18.0247 H   0  0  0  0  0  0
  -27.9099  -23.9838   18.8325 H   0  0  0  0  0  0
  -29.5304  -23.9935   19.4084 H   0  0  0  0  0  0
  -27.6010  -22.4669   21.1632 H   0  0  0  0  0  0
  -29.2755  -22.1743   20.8926 H   0  0  0  0  0  0
  -29.9097  -18.1934   18.5681 H   0  0  0  0  0  0
  -30.2402  -16.5669   19.0106 H   0  0  0  0  0  0
  -28.7435  -25.0538   21.5521 H   0  0  0  0  0  0
  -27.1073  -24.9916   21.0145 H   0  0  0  0  0  0
  1 25  1  0  0  0
  1 30  2  0  0  0
  1 86  1  0  0  0
  2  3  1  0  0  0
  2 25  1  0  0  0
  2 89  1  0  0  0
  2 90  1  0  0  0
  3  4  1  0  0  0
  3 91  1  0  0  0
  3 92  1  0  0  0
  4  5  1  0  0  0
  4 93  1  0  0  0
  4 94  1  0  0  0
  5  6  1  0  0  0
  5 26  1  0  0  0
  5 95  1  0  0  0
  6 25  1  0  0  0
  6 96  1  0  0  0
  6 97  1  0  0  0
  7  8  2  0  0  0
  7 26  1  0  0  0
  7 29  1  0  0  0
  8  9  1  0  0  0
  8 22  1  0  0  0
  9 10  1  0  0  0
  9 27  2  0  0  0
 10 11  2  0  0  0
 10 15  1  0  0  0
 11 12  1  0  0  0
 11 98  1  0  0  0
 12 13  2  0  0  0
 12 99  1  0  0  0
 13 14  1  0  0  0
 13 31  1  0  0  0
 14 15  2  0  0  0
 14100  1  0  0  0
 15101  1  0  0  0
 16 17  2  0  0  0
 16 21  1  0  0  0
 16 31  1  0  0  0
 17 18  1  0  0  0
 17102  1  0  0  0
 18 19  2  0  0  0
 18103  1  0  0  0
 19 20  1  0  0  0
 19 24  1  0  0  0
 20 21  2  0  0  0
 20104  1  0  0  0
 21 23  1  0  0  0
 22 28  1  0  0  0
 22 32  2  0  0  0
 26 27  1  0  0  0
 28105  1  0  0  0
 28106  1  0  0  0
 29107  1  0  0  0
 29108  1  0  0  0
 33 34  1  0  0  0
 33 66  1  0  0  0
 33 70  2  0  0  0
 34 36  1  0  0  0
 34 59  1  0  0  0
 34109  1  0  0  0
 35 44  2  0  0  0
 35 45  1  0  0  0
 35 68  1  0  0  0
 36 56  1  0  0  0
 36110  1  0  0  0
 37 39  1  0  0  0
 37 47  1  0  0  0
 37 66  1  0  0  0
 37111  1  0  0  0
 38 43  2  0  0  0
 38 46  1  0  0  0
 38 47  1  0  0  0
 39 64  1  0  0  0
 39 67  2  0  0  0
 40 52  1  0  0  0
 40 53  2  0  0  0
 40 58  1  0  0  0
 41112  1  0  0  0
 41113  1  0  0  0
 41114  1  0  0  0
 41 48  1  0  0  0
 42 43  1  0  0  0
 42 66  1  0  0  0
 42115  1  0  0  0
 42116  1  0  0  0
 43 44  1  0  0  0
 44117  1  0  0  0
 45 46  2  0  0  0
 45118  1  0  0  0
 46119  1  0  0  0
 47120  1  0  0  0
 47121  1  0  0  0
 48 56  1  0  0  0
 48 65  1  0  0  0
 48122  1  0  0  0
 49 50  1  0  0  0
 49 53  1  0  0  0
 49 64  1  0  0  0
 49123  1  0  0  0
 50 51  1  0  0  0
 50124  1  0  0  0
 50125  1  0  0  0
 51 52  1  0  0  0
 51126  1  0  0  0
 51127  1  0  0  0
 52128  1  0  0  0
 52129  1  0  0  0
 53 54  1  0  0  0
 54 55  2  0  0  0
 54130  1  0  0  0
 55 57  1  0  0  0
 55131  1  0  0  0
 56 69  2  0  0  0
 57 58  2  0  0  0
 57132  1  0  0  0
 58133  1  0  0  0
 59 60  1  0  0  0
 59 61  1  0  0  0
 59 62  1  0  0  0
 60134  1  0  0  0
 60135  1  0  0  0
 60136  1  0  0  0
 61137  1  0  0  0
 61138  1  0  0  0
 61139  1  0  0  0
 62140  1  0  0  0
 62141  1  0  0  0
 62142  1  0  0  0
 63 65  1  0  0  0
 63143  1  0  0  0
 63144  1  0  0  0
 63145  1  0  0  0
 64146  1  0  0  0
 65147  1  0  0  0
 68 85  1  0  0  0
 71 72  1  0  0  0
 71 73  2  0  0  0
 71148  1  0  0  0
 72 74  2  0  0  0
 72149  1  0  0  0
 73 80  1  0  0  0
 73 88  1  0  0  0
 74 86  1  0  0  0
 74 88  1  0  0  0
 75 81  1  0  0  0
 75150  1  0  0  0
 75151  1  0  0  0
 75152  1  0  0  0
 76 84  1  0  0  0
 76153  1  0  0  0
 76154  1  0  0  0
 76155  1  0  0  0
 77156  1  0  0  0
 77157  1  0  0  0
 77158  1  0  0  0
 77 86  1  0  0  0
 78 86  1  0  0  0
 78159  1  0  0  0
 78160  1  0  0  0
 78161  1  0  0  0
 79162  1  0  0  0
 79163  1  0  0  0
 79164  1  0  0  0
 79 87  1  0  0  0
 80 87  1  0  0  0
 80165  1  0  0  0
 80166  1  0  0  0
 81 87  1  0  0  0
 81167  1  0  0  0
 81168  1  0  0  0
 82 83  1  0  0  0
 82 85  1  0  0  0
 82169  1  0  0  0
 82170  1  0  0  0
 83 87  1  0  0  0
 83171  1  0  0  0
 83172  1  0  0  0
 84 88  1  0  0  0
 84173  1  0  0  0
 84174  1  0  0  0
 85175  1  0  0  0
 85176  1  0  0  0
M  ISO  4   1 100  68 101  85 101  86 100
M  END
> <chiral flag>
0

> <version>
0

> <s_m_source_file>
/data/baiqing/PycharmProjects/Reinvent-master-3.2/result/LINK_invent/BTK/process_docking_weight1_custom_sum_contain_oxygen_bond_distance_aromatic_linkinvent_7_9_3/rearranged_h_0074.sdf

> <i_m_source_file_index>
8

> <r_mmod_Potential_Energy-OPLS-2005>
293.903533935547

> <r_mmod_Stretch_Energy-OPLS-2005>
99.2634887695312

> <r_mmod_Bend_Energy-OPLS-2005>
233.865325927734

> <r_mmod_Torsional_Energy-OPLS-2005>
268.483764648438

> <r_mmod_Improper_Torsional_Energy-OPLS-2005>
4.21048212051392

> <r_mmod_Van_der_Waal_Energy-OPLS-2005>
134.381256103516

> <r_mmod_Electrostatic_Energy-OPLS-2005>
-313.913330078125

> <r_mmod_Solvation_Energy-OPLS-2005>
-165.372207641602

> <b_mmod_Minimization_Converged-OPLS-2005>
0

> <r_mmod_RMS_Derivative-OPLS-2005>
5.39138031005859

$$$$
8
                    3D
 Structure written by MMmdl.
163171  0  0  1  0            999 V2000
  -30.5944  -14.5676   20.5206 C   0  0  0  0  0  0
  -30.4428  -12.3652   19.4234 C   0  0  0  0  0  0
  -29.4838  -12.4590   18.2115 C   0  0  0  0  0  0
  -28.0059  -12.3379   18.6450 C   0  0  0  0  0  0
  -27.6524  -13.2024   19.8841 C   0  0  2  0  0  0
  -28.6965  -12.9823   21.0005 C   0  0  0  0  0  0
  -25.2528  -13.8189   20.5765 C   0  0  0  0  0  0
  -24.1781  -13.0421   20.9287 C   0  0  0  0  0  0
  -24.6393  -11.6917   20.8815 C   0  0  0  0  0  0
  -23.9060  -10.4312   21.0405 C   0  0  0  0  0  0
  -24.3625   -9.4203   21.9150 C   0  0  0  0  0  0
  -23.6306   -8.2227   22.0685 C   0  0  0  0  0  0
  -22.4283   -8.0296   21.3515 C   0  0  0  0  0  0
  -21.9940   -9.0258   20.4604 C   0  0  0  0  0  0
  -22.7255  -10.2151   20.3015 C   0  0  0  0  0  0
  -21.6872   -6.0717   22.5265 C   0  0  0  0  0  0
  -21.4016   -6.5603   23.8200 C   0  0  0  0  0  0
  -21.3656   -5.6760   24.9155 C   0  0  0  0  0  0
  -21.6039   -4.3030   24.7217 C   0  0  0  0  0  0
  -21.8838   -3.8125   23.4345 C   0  0  0  0  0  0
  -21.9218   -4.6940   22.3399 C   0  0  0  0  0  0
  -22.7810  -13.5128   21.2023 C   0  0  0  0  0  0
  -22.1683   -4.2118   21.0979 F   0  0  0  0  0  0
  -21.5645   -3.4525   25.7740 F   0  0  0  0  0  0
  -30.0118  -13.3391   20.4458 N   0  0  0  0  0  0
  -26.2974  -12.9353   20.3498 N   0  0  0  0  0  0
  -25.9292  -11.6523   20.5848 N   0  0  0  0  0  0
  -22.0555  -12.7962   22.0603 N   0  0  0  0  0  0
  -25.4101  -15.1897   20.4069 N   0  0  0  0  0  0
  -31.7303  -14.7830   20.0856 O   0  0  0  0  0  0
  -21.6653   -6.8867   21.4230 O   0  0  0  0  0  0
  -22.3406  -14.5436   20.6939 O   0  0  0  0  0  0
  -24.6151  -31.8685   23.2084 C   0  0  0  0  0  0
  -25.9046  -32.4811   23.8427 C   0  0  1  0  0  0
  -27.2247  -27.4357   20.1294 C   0  0  0  0  0  0
  -25.5904  -33.8626   24.2360 N   0  0  0  0  0  0
  -23.4068  -30.5035   21.5360 C   0  0  2  0  0  0
  -24.8539  -28.9693   20.1005 C   0  0  0  0  0  0
  -22.7439  -29.4698   22.4795 C   0  0  0  0  0  0
  -18.0411  -28.1597   22.8351 C   0  0  0  0  0  0
  -24.1492  -36.7359   23.2643 C   0  0  0  0  0  0
  -25.9349  -30.8464   21.3535 C   0  0  0  0  0  0
  -26.0120  -29.4832   20.6997 C   0  0  0  0  0  0
  -27.2053  -28.7293   20.6948 C   0  0  0  0  0  0
  -26.0531  -26.9274   19.5285 C   0  0  0  0  0  0
  -24.8740  -27.6983   19.4938 C   0  0  0  0  0  0
  -23.6216  -29.8481   20.1421 C   0  0  0  0  0  0
  -25.4097  -36.3102   24.0343 C   0  0  1  0  0  0
  -20.5967  -28.3712   23.1236 C   0  0  2  0  0  0
  -20.6745  -26.9344   22.5641 C   0  0  0  0  0  0
  -19.5914  -26.6503   21.5172 C   0  0  0  0  0  0
  -18.2041  -26.8212   22.1326 C   0  0  0  0  0  0
  -19.1697  -28.8887   23.2902 C   0  0  0  0  0  0
  -18.9764  -30.1386   23.9202 C   0  0  0  0  0  0
  -17.6845  -30.6574   24.0992 C   0  0  0  0  0  0
  -25.9038  -34.9465   23.5141 C   0  0  0  0  0  0
  -16.5677  -29.9320   23.6437 C   0  0  0  0  0  0
  -16.7457  -28.6832   23.0171 C   0  0  0  0  0  0
  -26.4429  -31.6567   25.0763 C   0  0  0  0  0  0
  -25.3677  -31.3746   26.1538 C   0  0  0  0  0  0
  -27.0294  -30.2987   24.6169 C   0  0  0  0  0  0
  -27.5991  -32.4290   25.7544 C   0  0  0  0  0  0
  -27.5575  -37.1850   24.8443 C   0  0  0  0  0  0
  -21.4192  -29.2930   22.3464 N   0  0  0  0  0  0
  -26.4288  -37.3763   23.9373 N   0  0  0  0  0  0
  -24.6707  -31.0864   22.0918 N   0  0  0  0  0  0
  -23.4186  -28.8354   23.2937 O   0  0  0  0  0  0
  -28.3833  -26.6955   20.1560 O   0  0  0  0  0  0
  -26.5563  -34.8922   22.4687 O   0  0  0  0  0  0
  -23.5366  -32.1393   23.7501 O   0  0  0  0  0  0
  -29.3143  -18.0121   21.4140 C   0  0  0  0  0  0
  -29.7877  -16.9781   20.6281 C   0  0  0  0  0  0
  -30.1198  -18.8965   19.5289 C   0  0  0  0  0  0
  -30.6255  -19.8167   18.4488 C   0  0  0  0  0  0
  -27.4600  -20.8958   19.5413 C   0  0  0  0  0  0
  -27.2949  -22.0424   21.7496 C   0  0  0  0  0  0
  -28.2015  -24.2260   19.7591 C   0  0  0  0  0  0
  -28.9961  -22.9218   20.1246 C   0  0  0  0  0  0
  -29.4009  -20.6184   21.2588 C   0  0  0  0  0  0
  -28.3036  -25.4008   20.7794 C   0  0  0  0  0  0
  -28.2893  -21.6035   20.6470 C   0  0  0  0  0  0
  -29.5659  -19.2027   20.7295 N   0  0  0  0  0  0
  -30.2206  -17.5503   19.4593 N   0  3  0  0  0  0
  -29.7917  -15.5682   20.9703 N   0  0  0  0  0  0
  -31.4632  -12.5442   19.0738 H   0  0  0  0  0  0
  -30.4473  -11.3609   19.8443 H   0  0  0  0  0  0
  -29.7202  -11.6461   17.5242 H   0  0  0  0  0  0
  -29.6413  -13.3830   17.6584 H   0  0  0  0  0  0
  -27.8320  -11.2863   18.8768 H   0  0  0  0  0  0
  -27.3310  -12.5772   17.8223 H   0  0  0  0  0  0
  -27.6902  -14.2460   19.5765 H   0  0  0  0  0  0
  -28.6986  -11.9328   21.3096 H   0  0  0  0  0  0
  -28.4402  -13.5565   21.8935 H   0  0  0  0  0  0
  -25.2792   -9.5632   22.4685 H   0  0  0  0  0  0
  -24.0052   -7.4529   22.7301 H   0  0  0  0  0  0
  -21.0903   -8.8715   19.8836 H   0  0  0  0  0  0
  -22.3720  -10.9640   19.6066 H   0  0  0  0  0  0
  -21.1993   -7.6106   23.9698 H   0  0  0  0  0  0
  -21.1451   -6.0485   25.9052 H   0  0  0  0  0  0
  -22.0635   -2.7596   23.2843 H   0  0  0  0  0  0
  -22.4340  -11.9637   22.4886 H   0  0  0  0  0  0
  -21.1111  -13.0687   22.2851 H   0  0  0  0  0  0
  -24.6278  -15.8240   20.5154 H   0  0  0  0  0  0
  -26.2453  -15.6595   20.0749 H   0  0  0  0  0  0
  -26.7142  -32.5508   23.1248 H   0  0  0  0  0  0
  -24.9995  -33.9754   25.0472 H   0  0  0  0  0  0
  -22.6931  -31.3180   21.4009 H   0  0  0  0  0  0
  -23.3692  -35.9763   23.3314 H   0  0  0  0  0  0
  -24.3584  -36.8941   22.2050 H   0  0  0  0  0  0
  -23.7344  -37.6613   23.6646 H   0  0  0  0  0  0
  -26.0617  -31.6201   20.5923 H   0  0  0  0  0  0
  -26.8146  -30.8927   21.9848 H   0  0  0  0  0  0
  -28.1011  -29.1344   21.1390 H   0  0  0  0  0  0
  -26.0443  -25.9454   19.0746 H   0  0  0  0  0  0
  -23.9947  -27.3085   19.0003 H   0  0  0  0  0  0
  -23.7468  -30.6401   19.4002 H   0  0  0  0  0  0
  -22.7368  -29.2860   19.8284 H   0  0  0  0  0  0
  -25.1291  -36.1973   25.0835 H   0  0  0  0  0  0
  -21.0119  -28.3422   24.1318 H   0  0  0  0  0  0
  -20.5258  -26.2488   23.4007 H   0  0  0  0  0  0
  -21.6681  -26.7069   22.1816 H   0  0  0  0  0  0
  -19.6999  -25.6449   21.1103 H   0  0  0  0  0  0
  -19.7055  -27.3473   20.6823 H   0  0  0  0  0  0
  -17.4451  -26.7167   21.3571 H   0  0  0  0  0  0
  -18.0220  -26.0305   22.8617 H   0  0  0  0  0  0
  -19.8313  -30.6945   24.2836 H   0  0  0  0  0  0
  -17.5546  -31.6084   24.5974 H   0  0  0  0  0  0
  -15.5765  -30.3370   23.7871 H   0  0  0  0  0  0
  -15.8811  -28.1398   22.6597 H   0  0  0  0  0  0
  -24.5797  -30.7117   25.7943 H   0  0  0  0  0  0
  -24.8961  -32.2958   26.4974 H   0  0  0  0  0  0
  -25.8057  -30.8930   27.0300 H   0  0  0  0  0  0
  -26.2921  -29.6730   24.1128 H   0  0  0  0  0  0
  -27.3933  -29.7219   25.4679 H   0  0  0  0  0  0
  -27.8763  -30.4261   23.9433 H   0  0  0  0  0  0
  -27.2536  -33.3529   26.2196 H   0  0  0  0  0  0
  -28.3774  -32.6947   25.0383 H   0  0  0  0  0  0
  -28.0684  -31.8380   26.5409 H   0  0  0  0  0  0
  -28.2625  -38.0116   24.7427 H   0  0  0  0  0  0
  -28.1046  -36.2651   24.6335 H   0  0  0  0  0  0
  -27.2286  -37.1568   25.8844 H   0  0  0  0  0  0
  -20.9304  -29.8640   21.6717 H   0  0  0  0  0  0
  -26.0179  -38.2872   24.1241 H   0  0  0  0  0  0
  -28.8836  -17.9822   22.4078 H   0  0  0  0  0  0
  -29.9466  -19.7852   17.5951 H   0  0  0  0  0  0
  -30.6986  -20.8345   18.8265 H   0  0  0  0  0  0
  -31.6166  -19.4916   18.1372 H   0  0  0  0  0  0
  -26.5101  -21.4045   19.3521 H   0  0  0  0  0  0
  -27.2014  -19.8742   19.8275 H   0  0  0  0  0  0
  -27.9795  -20.8334   18.5858 H   0  0  0  0  0  0
  -26.6456  -22.8532   21.4101 H   0  0  0  0  0  0
  -27.8106  -22.4247   22.6302 H   0  0  0  0  0  0
  -26.6163  -21.2466   22.0556 H   0  0  0  0  0  0
  -27.1584  -24.0128   19.5057 H   0  0  0  0  0  0
  -28.6395  -24.6185   18.8369 H   0  0  0  0  0  0
  -29.7631  -23.2185   20.8424 H   0  0  0  0  0  0
  -29.5537  -22.6586   19.2307 H   0  0  0  0  0  0
  -29.2869  -20.5354   22.3447 H   0  0  0  0  0  0
  -30.3845  -21.0921   21.1702 H   0  0  0  0  0  0
  -29.2363  -25.3143   21.3410 H   0  0  0  0  0  0
  -27.5154  -25.3413   21.5396 H   0  0  0  0  0  0
  -30.5826  -17.0513   18.6568 H   0  0  0  0  0  0
  -29.0194  -15.2340   21.5244 H   0  0  0  0  0  0
  1 25  1  0  0  0
  1 30  2  0  0  0
  1 84  1  0  0  0
  2  3  1  0  0  0
  2 25  1  0  0  0
  2 85  1  0  0  0
  2 86  1  0  0  0
  3  4  1  0  0  0
  3 87  1  0  0  0
  3 88  1  0  0  0
  4  5  1  0  0  0
  4 89  1  0  0  0
  4 90  1  0  0  0
  5  6  1  0  0  0
  5 26  1  0  0  0
  5 91  1  0  0  0
  6 25  1  0  0  0
  6 92  1  0  0  0
  6 93  1  0  0  0
  7  8  2  0  0  0
  7 26  1  0  0  0
  7 29  1  0  0  0
  8  9  1  0  0  0
  8 22  1  0  0  0
  9 10  1  0  0  0
  9 27  2  0  0  0
 10 11  2  0  0  0
 10 15  1  0  0  0
 11 12  1  0  0  0
 11 94  1  0  0  0
 12 13  2  0  0  0
 12 95  1  0  0  0
 13 14  1  0  0  0
 13 31  1  0  0  0
 14 15  2  0  0  0
 14 96  1  0  0  0
 15 97  1  0  0  0
 16 17  2  0  0  0
 16 21  1  0  0  0
 16 31  1  0  0  0
 17 18  1  0  0  0
 17 98  1  0  0  0
 18 19  2  0  0  0
 18 99  1  0  0  0
 19 20  1  0  0  0
 19 24  1  0  0  0
 20 21  2  0  0  0
 20100  1  0  0  0
 21 23  1  0  0  0
 22 28  1  0  0  0
 22 32  2  0  0  0
 26 27  1  0  0  0
 28101  1  0  0  0
 28102  1  0  0  0
 29103  1  0  0  0
 29104  1  0  0  0
 33 34  1  0  0  0
 33 66  1  0  0  0
 33 70  2  0  0  0
 34 36  1  0  0  0
 34 59  1  0  0  0
 34105  1  0  0  0
 35 44  2  0  0  0
 35 45  1  0  0  0
 35 68  1  0  0  0
 36 56  1  0  0  0
 36106  1  0  0  0
 37 39  1  0  0  0
 37 47  1  0  0  0
 37 66  1  0  0  0
 37107  1  0  0  0
 38 43  2  0  0  0
 38 46  1  0  0  0
 38 47  1  0  0  0
 39 64  1  0  0  0
 39 67  2  0  0  0
 40 52  1  0  0  0
 40 53  2  0  0  0
 40 58  1  0  0  0
 41108  1  0  0  0
 41109  1  0  0  0
 41110  1  0  0  0
 41 48  1  0  0  0
 42 43  1  0  0  0
 42 66  1  0  0  0
 42111  1  0  0  0
 42112  1  0  0  0
 43 44  1  0  0  0
 44113  1  0  0  0
 45 46  2  0  0  0
 45114  1  0  0  0
 46115  1  0  0  0
 47116  1  0  0  0
 47117  1  0  0  0
 48 56  1  0  0  0
 48 65  1  0  0  0
 48118  1  0  0  0
 49 50  1  0  0  0
 49 53  1  0  0  0
 49 64  1  0  0  0
 49119  1  0  0  0
 50 51  1  0  0  0
 50120  1  0  0  0
 50121  1  0  0  0
 51 52  1  0  0  0
 51122  1  0  0  0
 51123  1  0  0  0
 52124  1  0  0  0
 52125  1  0  0  0
 53 54  1  0  0  0
 54 55  2  0  0  0
 54126  1  0  0  0
 55 57  1  0  0  0
 55127  1  0  0  0
 56 69  2  0  0  0
 57 58  2  0  0  0
 57128  1  0  0  0
 58129  1  0  0  0
 59 60  1  0  0  0
 59 61  1  0  0  0
 59 62  1  0  0  0
 60130  1  0  0  0
 60131  1  0  0  0
 60132  1  0  0  0
 61133  1  0  0  0
 61134  1  0  0  0
 61135  1  0  0  0
 62136  1  0  0  0
 62137  1  0  0  0
 62138  1  0  0  0
 63 65  1  0  0  0
 63139  1  0  0  0
 63140  1  0  0  0
 63141  1  0  0  0
 64142  1  0  0  0
 65143  1  0  0  0
 68 80  1  0  0  0
 71 72  2  0  0  0
 71 82  1  0  0  0
 71144  1  0  0  0
 72 83  1  0  0  0
 72 84  1  0  0  0
 73 74  1  0  0  0
 73 82  1  0  0  0
 73 83  2  0  0  0
 74145  1  0  0  0
 74146  1  0  0  0
 74147  1  0  0  0
 75148  1  0  0  0
 75149  1  0  0  0
 75150  1  0  0  0
 75 81  1  0  0  0
 76 81  1  0  0  0
 76151  1  0  0  0
 76152  1  0  0  0
 76153  1  0  0  0
 77 78  1  0  0  0
 77 80  1  0  0  0
 77154  1  0  0  0
 77155  1  0  0  0
 78 81  1  0  0  0
 78156  1  0  0  0
 78157  1  0  0  0
 79 81  1  0  0  0
 79 82  1  0  0  0
 79158  1  0  0  0
 79159  1  0  0  0
 80160  1  0  0  0
 80161  1  0  0  0
 83162  1  0  0  0
 84163  1  0  0  0
M  CHG  1  83   1
M  ISO  4   1 100  68 101  80 101  84 100
M  END
> <chiral flag>
0

> <version>
0

> <s_m_source_file>
/data/baiqing/PycharmProjects/Reinvent-master-3.2/result/LINK_invent/BTK/process_docking_weight1_custom_sum_contain_oxygen_bond_distance_aromatic_linkinvent_7_9_3/rearranged_h_0074.sdf

> <i_m_source_file_index>
9

> <r_mmod_Potential_Energy-OPLS-2005>
-24.1565380096436

> <r_mmod_Stretch_Energy-OPLS-2005>
58.360538482666

> <r_mmod_Bend_Energy-OPLS-2005>
141.507217407227

> <r_mmod_Torsional_Energy-OPLS-2005>
278.342559814453

> <r_mmod_Improper_Torsional_Energy-OPLS-2005>
4.41258859634399

> <r_mmod_Van_der_Waal_Energy-OPLS-2005>
126.573089599609

> <r_mmod_Electrostatic_Energy-OPLS-2005>
-249.58447265625

> <r_mmod_Solvation_Energy-OPLS-2005>
-411.408355712891

> <b_mmod_Minimization_Converged-OPLS-2005>
0

> <r_mmod_RMS_Derivative-OPLS-2005>
11.8172731399536

$$$$
9
                    3D
 Structure written by MMmdl.
154162  0  0  1  0            999 V2000
  -30.4877  -14.9959   20.4143 C   0  0  0  0  0  0
  -30.4456  -12.6126   19.5017 C   0  0  0  0  0  0
  -29.5249  -12.5424   18.2590 C   0  0  0  0  0  0
  -28.0610  -12.3088   18.6784 C   0  0  0  0  0  0
  -27.6309  -13.2472   19.8362 C   0  0  2  0  0  0
  -28.6716  -13.2700   20.9746 C   0  0  0  0  0  0
  -25.2477  -13.8201   20.5665 C   0  0  0  0  0  0
  -24.1797  -13.0426   20.9185 C   0  0  0  0  0  0
  -24.6423  -11.6917   20.8759 C   0  0  0  0  0  0
  -23.9103  -10.4288   21.0425 C   0  0  0  0  0  0
  -24.3641   -9.4197   21.9208 C   0  0  0  0  0  0
  -23.6296   -8.2238   22.0779 C   0  0  0  0  0  0
  -22.4283   -8.0275   21.3555 C   0  0  0  0  0  0
  -21.9923   -9.0263   20.4680 C   0  0  0  0  0  0
  -22.7271  -10.2133   20.3089 C   0  0  0  0  0  0
  -21.6846   -6.0742   22.5291 C   0  0  0  0  0  0
  -21.4027   -6.5655   23.8216 C   0  0  0  0  0  0
  -21.3650   -5.6811   24.9182 C   0  0  0  0  0  0
  -21.6029   -4.3069   24.7255 C   0  0  0  0  0  0
  -21.8813   -3.8157   23.4374 C   0  0  0  0  0  0
  -21.9188   -4.6967   22.3425 C   0  0  0  0  0  0
  -22.7827  -13.5206   21.1834 C   0  0  0  0  0  0
  -22.1648   -4.2141   21.0998 F   0  0  0  0  0  0
  -21.5607   -3.4553   25.7760 F   0  0  0  0  0  0
  -29.9471  -13.7043   20.3892 N   0  0  0  0  0  0
  -26.2902  -12.9430   20.3213 N   0  0  0  0  0  0
  -25.9353  -11.6566   20.5747 N   0  0  0  0  0  0
  -22.0483  -12.8233   22.0430 N   0  0  0  0  0  0
  -25.4172  -15.1922   20.4094 N   0  0  0  0  0  0
  -31.6643  -15.0823   20.0351 O   0  0  0  0  0  0
  -21.6640   -6.8881   21.4244 O   0  0  0  0  0  0
  -22.3509  -14.5504   20.6650 O   0  0  0  0  0  0
  -24.6419  -31.8398   23.1788 C   0  0  0  0  0  0
  -25.9178  -32.4676   23.8211 C   0  0  1  0  0  0
  -27.2296  -27.1319   20.1314 C   0  0  0  0  0  0
  -25.5924  -33.8489   24.2145 N   0  0  0  0  0  0
  -23.4483  -30.4534   21.5225 C   0  0  2  0  0  0
  -24.8977  -28.8727   20.0955 C   0  0  0  0  0  0
  -22.7574  -29.4517   22.4806 C   0  0  0  0  0  0
  -18.0367  -28.1418   22.8429 C   0  0  0  0  0  0
  -24.1516  -36.7250   23.2644 C   0  0  0  0  0  0
  -26.0000  -30.7069   21.3783 C   0  0  0  0  0  0
  -26.0689  -29.3180   20.7193 C   0  0  0  0  0  0
  -27.2268  -28.4575   20.7257 C   0  0  0  0  0  0
  -26.0381  -26.7821   19.4689 C   0  0  0  0  0  0
  -24.8943  -27.6188   19.4584 C   0  0  0  0  0  0
  -23.6708  -29.7715   20.1435 C   0  0  0  0  0  0
  -25.4139  -36.3026   24.0316 C   0  0  1  0  0  0
  -20.5969  -28.3763   23.1236 C   0  0  2  0  0  0
  -20.6848  -26.9451   22.5454 C   0  0  0  0  0  0
  -19.5897  -26.6399   21.5227 C   0  0  0  0  0  0
  -18.2034  -26.7977   22.1549 C   0  0  0  0  0  0
  -19.1598  -28.8911   23.2828 C   0  0  0  0  0  0
  -18.9483  -30.1496   23.8882 C   0  0  0  0  0  0
  -17.6476  -30.6589   24.0538 C   0  0  0  0  0  0
  -25.9087  -34.9404   23.5052 C   0  0  0  0  0  0
  -16.5384  -29.9062   23.6322 C   0  0  0  0  0  0
  -16.7331  -28.6494   23.0325 C   0  0  0  0  0  0
  -26.4524  -31.6561   25.0675 C   0  0  0  0  0  0
  -25.3725  -31.3721   26.1376 C   0  0  0  0  0  0
  -27.0392  -30.2971   24.6252 C   0  0  0  0  0  0
  -27.6097  -32.4286   25.7449 C   0  0  0  0  0  0
  -27.5597  -37.1773   24.8462 C   0  0  0  0  0  0
  -21.4269  -29.3026   22.3527 N   0  0  0  0  0  0
  -26.4318  -37.3737   23.9399 N   0  0  0  0  0  0
  -24.7166  -31.0249   22.0812 N   0  0  0  0  0  0
  -23.4185  -28.8097   23.3010 O   0  0  0  0  0  0
  -28.3085  -26.1852   20.2622 O   0  0  0  0  0  0
  -26.5690  -34.8915   22.4646 O   0  0  0  0  0  0
  -23.5534  -32.1255   23.7009 O   0  0  0  0  0  0
  -29.8281  -19.2517   20.7312 C   0  0  0  0  0  0
  -28.4363  -19.5530   19.1578 C   0  0  0  0  0  0
  -29.4992  -17.9167   20.2947 C   0  0  0  0  0  0
  -26.8934  -22.7404   19.5082 C   0  0  0  0  0  0
  -27.9076  -23.3070   21.7116 C   0  0  0  0  0  0
  -29.6860  -16.3818   20.9282 C   0  0  0  0  0  0
  -29.3232  -21.9240   20.0000 C   0  0  0  0  0  0
  -28.5005  -24.7635   19.6450 C   0  0  0  0  0  0
  -28.1931  -23.1841   20.2052 C   0  0  0  0  0  0
  -28.5786  -18.2072   19.2690 N   0  0  0  0  0  0
  -29.1447  -20.3290   20.0108 N   0  0  0  0  0  0
  -31.4772  -12.7786   19.1920 H   0  0  0  0  0  0
  -30.4490  -11.6586   20.0328 H   0  0  0  0  0  0
  -29.8599  -11.7530   17.5840 H   0  0  0  0  0  0
  -29.5947  -13.4787   17.7039 H   0  0  0  0  0  0
  -27.9773  -11.2712   18.9993 H   0  0  0  0  0  0
  -27.3930  -12.4163   17.8222 H   0  0  0  0  0  0
  -27.5926  -14.2489   19.4040 H   0  0  0  0  0  0
  -28.7638  -12.2892   21.4408 H   0  0  0  0  0  0
  -28.3596  -13.9494   21.7669 H   0  0  0  0  0  0
  -25.2794   -9.5655   22.4786 H   0  0  0  0  0  0
  -23.9978   -7.4645   22.7535 H   0  0  0  0  0  0
  -21.0830   -8.8838   19.9019 H   0  0  0  0  0  0
  -22.3754  -10.9683   19.6204 H   0  0  0  0  0  0
  -21.2046   -7.6164   23.9722 H   0  0  0  0  0  0
  -21.1457   -6.0546   25.9075 H   0  0  0  0  0  0
  -22.0601   -2.7620   23.2887 H   0  0  0  0  0  0
  -22.4041  -11.9853   22.4778 H   0  0  0  0  0  0
  -21.1130  -13.1305   22.2682 H   0  0  0  0  0  0
  -24.6524  -15.8466   20.5340 H   0  0  0  0  0  0
  -26.2747  -15.6414   20.1088 H   0  0  0  0  0  0
  -26.7250  -32.5264   23.0947 H   0  0  0  0  0  0
  -25.0037  -33.9614   25.0262 H   0  0  0  0  0  0
  -22.7539  -31.2788   21.3639 H   0  0  0  0  0  0
  -23.3794  -35.9572   23.3270 H   0  0  0  0  0  0
  -24.3631  -36.8899   22.2073 H   0  0  0  0  0  0
  -23.7264  -37.6438   23.6700 H   0  0  0  0  0  0
  -26.1606  -31.4565   20.6010 H   0  0  0  0  0  0
  -26.8689  -30.7553   22.0239 H   0  0  0  0  0  0
  -28.1144  -28.7859   21.2486 H   0  0  0  0  0  0
  -25.9623  -25.8143   18.9949 H   0  0  0  0  0  0
  -23.9979  -27.2705   18.9621 H   0  0  0  0  0  0
  -23.8016  -30.5403   19.3792 H   0  0  0  0  0  0
  -22.7843  -29.2082   19.8422 H   0  0  0  0  0  0
  -25.1350  -36.1856   25.0819 H   0  0  0  0  0  0
  -21.0102  -28.3400   24.1345 H   0  0  0  0  0  0
  -20.5633  -26.2407   23.3697 H   0  0  0  0  0  0
  -21.6767  -26.7421   22.1329 H   0  0  0  0  0  0
  -19.7113  -25.6281   21.1357 H   0  0  0  0  0  0
  -19.6918  -27.3137   20.6709 H   0  0  0  0  0  0
  -17.4313  -26.6783   21.3925 H   0  0  0  0  0  0
  -18.0421  -26.0094   22.8915 H   0  0  0  0  0  0
  -19.7906  -30.7371   24.2275 H   0  0  0  0  0  0
  -17.4993  -31.6274   24.5109 H   0  0  0  0  0  0
  -15.5364  -30.2933   23.7653 H   0  0  0  0  0  0
  -15.8763  -28.0771   22.7051 H   0  0  0  0  0  0
  -24.5949  -30.7036   25.7684 H   0  0  0  0  0  0
  -24.8873  -32.2885   26.4747 H   0  0  0  0  0  0
  -25.8025  -30.8941   27.0177 H   0  0  0  0  0  0
  -26.3008  -29.6674   24.1291 H   0  0  0  0  0  0
  -27.4059  -29.7318   25.4819 H   0  0  0  0  0  0
  -27.8892  -30.4241   23.9541 H   0  0  0  0  0  0
  -27.2770  -33.3605   26.2014 H   0  0  0  0  0  0
  -28.3928  -32.6752   25.0280 H   0  0  0  0  0  0
  -28.0743  -31.8385   26.5350 H   0  0  0  0  0  0
  -28.2595  -38.0088   24.7539 H   0  0  0  0  0  0
  -28.1110  -36.2618   24.6258 H   0  0  0  0  0  0
  -27.2319  -37.1392   25.8867 H   0  0  0  0  0  0
  -20.9551  -29.8545   21.6507 H   0  0  0  0  0  0
  -26.0164  -38.2818   24.1354 H   0  0  0  0  0  0
  -30.4950  -19.5270   21.5380 H   0  0  0  0  0  0
  -27.8049  -19.9827   18.3923 H   0  0  0  0  0  0
  -26.4963  -21.8128   19.9224 H   0  0  0  0  0  0
  -27.0646  -22.5737   18.4444 H   0  0  0  0  0  0
  -26.1127  -23.4971   19.5983 H   0  0  0  0  0  0
  -27.6324  -22.3459   22.1461 H   0  0  0  0  0  0
  -27.0912  -24.0020   21.9070 H   0  0  0  0  0  0
  -28.7815  -23.6767   22.2496 H   0  0  0  0  0  0
  -28.6724  -16.0344   21.1105 H   0  0  0  0  0  0
  -30.0789  -16.5194   21.9352 H   0  0  0  0  0  0
  -30.1450  -22.1398   20.6831 H   0  0  0  0  0  0
  -29.7566  -22.1207   19.0190 H   0  0  0  0  0  0
  -28.1418  -24.8277   18.6186 H   0  0  0  0  0  0
  -29.5838  -24.7571   19.5183 H   0  0  0  0  0  0
  1 25  1  0  0  0
  1 30  2  0  0  0
  1 76  1  0  0  0
  2  3  1  0  0  0
  2 25  1  0  0  0
  2 82  1  0  0  0
  2 83  1  0  0  0
  3  4  1  0  0  0
  3 84  1  0  0  0
  3 85  1  0  0  0
  4  5  1  0  0  0
  4 86  1  0  0  0
  4 87  1  0  0  0
  5  6  1  0  0  0
  5 26  1  0  0  0
  5 88  1  0  0  0
  6 25  1  0  0  0
  6 89  1  0  0  0
  6 90  1  0  0  0
  7  8  2  0  0  0
  7 26  1  0  0  0
  7 29  1  0  0  0
  8  9  1  0  0  0
  8 22  1  0  0  0
  9 10  1  0  0  0
  9 27  2  0  0  0
 10 11  2  0  0  0
 10 15  1  0  0  0
 11 12  1  0  0  0
 11 91  1  0  0  0
 12 13  2  0  0  0
 12 92  1  0  0  0
 13 14  1  0  0  0
 13 31  1  0  0  0
 14 15  2  0  0  0
 14 93  1  0  0  0
 15 94  1  0  0  0
 16 17  2  0  0  0
 16 21  1  0  0  0
 16 31  1  0  0  0
 17 18  1  0  0  0
 17 95  1  0  0  0
 18 19  2  0  0  0
 18 96  1  0  0  0
 19 20  1  0  0  0
 19 24  1  0  0  0
 20 21  2  0  0  0
 20 97  1  0  0  0
 21 23  1  0  0  0
 22 28  1  0  0  0
 22 32  2  0  0  0
 26 27  1  0  0  0
 28 98  1  0  0  0
 28 99  1  0  0  0
 29100  1  0  0  0
 29101  1  0  0  0
 33 34  1  0  0  0
 33 66  1  0  0  0
 33 70  2  0  0  0
 34 36  1  0  0  0
 34 59  1  0  0  0
 34102  1  0  0  0
 35 44  2  0  0  0
 35 45  1  0  0  0
 35 68  1  0  0  0
 36 56  1  0  0  0
 36103  1  0  0  0
 37 39  1  0  0  0
 37 47  1  0  0  0
 37 66  1  0  0  0
 37104  1  0  0  0
 38 43  2  0  0  0
 38 46  1  0  0  0
 38 47  1  0  0  0
 39 64  1  0  0  0
 39 67  2  0  0  0
 40 52  1  0  0  0
 40 53  2  0  0  0
 40 58  1  0  0  0
 41105  1  0  0  0
 41106  1  0  0  0
 41107  1  0  0  0
 41 48  1  0  0  0
 42 43  1  0  0  0
 42 66  1  0  0  0
 42108  1  0  0  0
 42109  1  0  0  0
 43 44  1  0  0  0
 44110  1  0  0  0
 45 46  2  0  0  0
 45111  1  0  0  0
 46112  1  0  0  0
 47113  1  0  0  0
 47114  1  0  0  0
 48 56  1  0  0  0
 48 65  1  0  0  0
 48115  1  0  0  0
 49 50  1  0  0  0
 49 53  1  0  0  0
 49 64  1  0  0  0
 49116  1  0  0  0
 50 51  1  0  0  0
 50117  1  0  0  0
 50118  1  0  0  0
 51 52  1  0  0  0
 51119  1  0  0  0
 51120  1  0  0  0
 52121  1  0  0  0
 52122  1  0  0  0
 53 54  1  0  0  0
 54 55  2  0  0  0
 54123  1  0  0  0
 55 57  1  0  0  0
 55124  1  0  0  0
 56 69  2  0  0  0
 57 58  2  0  0  0
 57125  1  0  0  0
 58126  1  0  0  0
 59 60  1  0  0  0
 59 61  1  0  0  0
 59 62  1  0  0  0
 60127  1  0  0  0
 60128  1  0  0  0
 60129  1  0  0  0
 61130  1  0  0  0
 61131  1  0  0  0
 61132  1  0  0  0
 62133  1  0  0  0
 62134  1  0  0  0
 62135  1  0  0  0
 63 65  1  0  0  0
 63136  1  0  0  0
 63137  1  0  0  0
 63138  1  0  0  0
 64139  1  0  0  0
 65140  1  0  0  0
 68 78  1  0  0  0
 71 73  2  0  0  0
 71 81  1  0  0  0
 71141  1  0  0  0
 72 80  2  0  0  0
 72 81  1  0  0  0
 72142  1  0  0  0
 73 76  1  0  0  0
 73 80  1  0  0  0
 74143  1  0  0  0
 74144  1  0  0  0
 74145  1  0  0  0
 74 79  1  0  0  0
 75 79  1  0  0  0
 75146  1  0  0  0
 75147  1  0  0  0
 75148  1  0  0  0
 76149  1  0  0  0
 76150  1  0  0  0
 77 79  1  0  0  0
 77 81  1  0  0  0
 77151  1  0  0  0
 77152  1  0  0  0
 78 79  1  0  0  0
 78153  1  0  0  0
 78154  1  0  0  0
M  ISO  4   1 100  68 101  76 100  78 101
M  END
> <chiral flag>
0

> <version>
0

> <s_m_source_file>
/data/baiqing/PycharmProjects/Reinvent-master-3.2/result/LINK_invent/BTK/process_docking_weight1_custom_sum_contain_oxygen_bond_distance_aromatic_linkinvent_7_9_3/rearranged_h_0074.sdf

> <i_m_source_file_index>
10

> <r_mmod_Potential_Energy-OPLS-2005>
685.786499023438

> <r_mmod_Stretch_Energy-OPLS-2005>
296.404968261719

> <r_mmod_Bend_Energy-OPLS-2005>
350.919189453125

> <r_mmod_Torsional_Energy-OPLS-2005>
200.690490722656

> <r_mmod_Improper_Torsional_Energy-OPLS-2005>
5.30679512023926

> <r_mmod_Van_der_Waal_Energy-OPLS-2005>
101.52254486084

> <r_mmod_Electrostatic_Energy-OPLS-2005>
-268.831939697266

> <r_mmod_Solvation_Energy-OPLS-2005>
-211.079162597656

> <b_mmod_Minimization_Converged-OPLS-2005>
0

> <r_mmod_RMS_Derivative-OPLS-2005>
4.10402774810791

$$$$
10
                    3D
 Structure written by MMmdl.
158166  0  0  1  0            999 V2000
  -30.5270  -14.9818   20.4624 C   0  0  0  0  0  0
  -30.4583  -12.6198   19.4846 C   0  0  0  0  0  0
  -29.5223  -12.5492   18.2522 C   0  0  0  0  0  0
  -28.0583  -12.3063   18.6720 C   0  0  0  0  0  0
  -27.6372  -13.2174   19.8505 C   0  0  2  0  0  0
  -28.6985  -13.1975   20.9792 C   0  0  0  0  0  0
  -25.2408  -13.8080   20.5607 C   0  0  0  0  0  0
  -24.1745  -13.0341   20.9206 C   0  0  0  0  0  0
  -24.6377  -11.6842   20.8782 C   0  0  0  0  0  0
  -23.9060  -10.4238   21.0429 C   0  0  0  0  0  0
  -24.3611   -9.4158   21.9204 C   0  0  0  0  0  0
  -23.6281   -8.2200   22.0762 C   0  0  0  0  0  0
  -22.4264   -8.0253   21.3548 C   0  0  0  0  0  0
  -21.9903   -9.0228   20.4651 C   0  0  0  0  0  0
  -22.7239  -10.2099   20.3066 C   0  0  0  0  0  0
  -21.6841   -6.0721   22.5281 C   0  0  0  0  0  0
  -21.4003   -6.5629   23.8214 C   0  0  0  0  0  0
  -21.3656   -5.6785   24.9178 C   0  0  0  0  0  0
  -21.6045   -4.3048   24.7229 C   0  0  0  0  0  0
  -21.8819   -3.8138   23.4352 C   0  0  0  0  0  0
  -21.9189   -4.6951   22.3406 C   0  0  0  0  0  0
  -22.7772  -13.5143   21.1867 C   0  0  0  0  0  0
  -22.1659   -4.2140   21.0983 F   0  0  0  0  0  0
  -21.5637   -3.4533   25.7742 F   0  0  0  0  0  0
  -29.9575  -13.6956   20.3976 N   0  0  0  0  0  0
  -26.2908  -12.9302   20.3313 N   0  0  0  0  0  0
  -25.9318  -11.6463   20.5821 N   0  0  0  0  0  0
  -22.0427  -12.8163   22.0450 N   0  0  0  0  0  0
  -25.3825  -15.1791   20.3836 N   0  0  0  0  0  0
  -31.7106  -15.0240   20.1059 O   0  0  0  0  0  0
  -21.6626   -6.8857   21.4241 O   0  0  0  0  0  0
  -22.3458  -14.5452   20.6713 O   0  0  0  0  0  0
  -24.6427  -31.8447   23.1889 C   0  0  0  0  0  0
  -25.9204  -32.4698   23.8276 C   0  0  1  0  0  0
  -27.2299  -27.1492   20.1481 C   0  0  0  0  0  0
  -25.5955  -33.8505   24.2190 N   0  0  0  0  0  0
  -23.4464  -30.4637   21.5347 C   0  0  2  0  0  0
  -24.8974  -28.8901   20.1143 C   0  0  0  0  0  0
  -22.7565  -29.4552   22.4870 C   0  0  0  0  0  0
  -18.0304  -28.1397   22.8479 C   0  0  0  0  0  0
  -24.1490  -36.7254   23.2643 C   0  0  0  0  0  0
  -26.0021  -30.7222   21.3865 C   0  0  0  0  0  0
  -26.0752  -29.3343   20.7283 C   0  0  0  0  0  0
  -27.2417  -28.4816   20.7254 C   0  0  0  0  0  0
  -26.0210  -26.8022   19.5020 C   0  0  0  0  0  0
  -24.8824  -27.6362   19.4866 C   0  0  0  0  0  0
  -23.6730  -29.7910   20.1551 C   0  0  0  0  0  0
  -25.4124  -36.3033   24.0314 C   0  0  1  0  0  0
  -20.5916  -28.3722   23.1237 C   0  0  2  0  0  0
  -20.6789  -26.9426   22.5405 C   0  0  0  0  0  0
  -19.5763  -26.6381   21.5214 C   0  0  0  0  0  0
  -18.1944  -26.7934   22.1624 C   0  0  0  0  0  0
  -19.1561  -28.8878   23.2849 C   0  0  0  0  0  0
  -18.9478  -30.1474   23.8874 C   0  0  0  0  0  0
  -17.6475  -30.6593   24.0560 C   0  0  0  0  0  0
  -25.9074  -34.9409   23.5059 C   0  0  0  0  0  0
  -16.5364  -29.9085   23.6338 C   0  0  0  0  0  0
  -16.7288  -28.6504   23.0359 C   0  0  0  0  0  0
  -26.4525  -31.6569   25.0719 C   0  0  0  0  0  0
  -25.3709  -31.3761   26.1413 C   0  0  0  0  0  0
  -27.0394  -30.2966   24.6303 C   0  0  0  0  0  0
  -27.6051  -32.4341   25.7507 C   0  0  0  0  0  0
  -27.5574  -37.1786   24.8466 C   0  0  0  0  0  0
  -21.4259  -29.3048   22.3612 N   0  0  0  0  0  0
  -26.4285  -37.3747   23.9407 N   0  0  0  0  0  0
  -24.7168  -31.0311   22.0919 N   0  0  0  0  0  0
  -23.4207  -28.8103   23.3023 O   0  0  0  0  0  0
  -28.3050  -26.1871   20.1945 O   0  0  0  0  0  0
  -26.5660  -34.8905   22.4638 O   0  0  0  0  0  0
  -23.5547  -32.1320   23.7113 O   0  0  0  0  0  0
  -31.3287  -18.1330   19.5311 C   0  0  0  0  0  0
  -30.1814  -17.9414   20.3286 C   0  0  0  0  0  0
  -30.9613  -20.4573   19.3398 C   0  0  0  0  0  0
  -29.7753  -20.4228   20.1278 C   0  0  0  0  0  0
  -31.4968  -21.7237   18.7057 C   0  0  0  0  0  0
  -28.2715  -16.3913   20.6953 C   0  0  0  0  0  0
  -30.0515  -16.5267   22.4417 C   0  0  0  0  0  0
  -28.8022  -21.7503   20.3407 C   0  0  0  0  0  0
  -29.1683  -23.3996   20.2090 C   0  0  0  0  0  0
  -28.0453  -24.6523   20.2111 C   0  0  0  0  0  0
  -29.7909  -16.4437   20.9243 C   0  0  0  0  0  0
  -31.7062  -19.3508   19.0624 N   0  0  0  0  0  0
  -29.4337  -19.1300   20.6166 N   0  0  0  0  0  0
  -31.4811  -12.8024   19.1527 H   0  0  0  0  0  0
  -30.4940  -11.6572   19.9974 H   0  0  0  0  0  0
  -29.8516  -11.7645   17.5699 H   0  0  0  0  0  0
  -29.5901  -13.4852   17.6956 H   0  0  0  0  0  0
  -27.9632  -11.2599   18.9649 H   0  0  0  0  0  0
  -27.3904  -12.4482   17.8217 H   0  0  0  0  0  0
  -27.5998  -14.2095   19.4137 H   0  0  0  0  0  0
  -28.8205  -12.1793   21.3517 H   0  0  0  0  0  0
  -28.4100  -13.7610   21.8631 H   0  0  0  0  0  0
  -25.2751   -9.5632   22.4786 H   0  0  0  0  0  0
  -23.9984   -7.4585   22.7478 H   0  0  0  0  0  0
  -21.0836   -8.8748   19.8957 H   0  0  0  0  0  0
  -22.3704  -10.9642   19.6178 H   0  0  0  0  0  0
  -21.1986   -7.6135   23.9711 H   0  0  0  0  0  0
  -21.1485   -6.0519   25.9082 H   0  0  0  0  0  0
  -22.0604   -2.7601   23.2857 H   0  0  0  0  0  0
  -22.4042  -11.9834   22.4856 H   0  0  0  0  0  0
  -21.1050  -13.1200   22.2661 H   0  0  0  0  0  0
  -24.6037  -15.8176   20.5001 H   0  0  0  0  0  0
  -26.2317  -15.6404   20.0859 H   0  0  0  0  0  0
  -26.7270  -32.5308   23.1006 H   0  0  0  0  0  0
  -25.0083  -33.9621   25.0325 H   0  0  0  0  0  0
  -22.7484  -31.2892   21.3796 H   0  0  0  0  0  0
  -23.3757  -35.9581   23.3297 H   0  0  0  0  0  0
  -24.3573  -36.8896   22.2059 H   0  0  0  0  0  0
  -23.7240  -37.6445   23.6686 H   0  0  0  0  0  0
  -26.1580  -31.4774   20.6149 H   0  0  0  0  0  0
  -26.8717  -30.7707   22.0303 H   0  0  0  0  0  0
  -28.1405  -28.8216   21.2203 H   0  0  0  0  0  0
  -25.9195  -25.8503   19.0059 H   0  0  0  0  0  0
  -23.9837  -27.2900   18.9943 H   0  0  0  0  0  0
  -23.8092  -30.5646   19.3985 H   0  0  0  0  0  0
  -22.7881  -29.2325   19.8448 H   0  0  0  0  0  0
  -25.1313  -36.1859   25.0806 H   0  0  0  0  0  0
  -21.0007  -28.3311   24.1359 H   0  0  0  0  0  0
  -20.5688  -26.2335   23.3623 H   0  0  0  0  0  0
  -21.6654  -26.7436   22.1200 H   0  0  0  0  0  0
  -19.6925  -25.6287   21.1258 H   0  0  0  0  0  0
  -19.6698  -27.3179   20.6733 H   0  0  0  0  0  0
  -17.4213  -26.6679   21.4028 H   0  0  0  0  0  0
  -18.0343  -26.0081   22.9026 H   0  0  0  0  0  0
  -19.7954  -30.7298   24.2230 H   0  0  0  0  0  0
  -17.5028  -31.6271   24.5165 H   0  0  0  0  0  0
  -15.5364  -30.2980   23.7678 H   0  0  0  0  0  0
  -15.8687  -28.0815   22.7088 H   0  0  0  0  0  0
  -24.5884  -30.7116   25.7732 H   0  0  0  0  0  0
  -24.8905  -32.2946   26.4793 H   0  0  0  0  0  0
  -25.7988  -30.8959   27.0222 H   0  0  0  0  0  0
  -26.3017  -29.6689   24.1291 H   0  0  0  0  0  0
  -27.3986  -29.7266   25.4882 H   0  0  0  0  0  0
  -27.8931  -30.4204   23.9636 H   0  0  0  0  0  0
  -27.2633  -33.3653   26.2037 H   0  0  0  0  0  0
  -28.3885  -32.6887   25.0357 H   0  0  0  0  0  0
  -28.0692  -31.8503   26.5465 H   0  0  0  0  0  0
  -28.2587  -38.0087   24.7509 H   0  0  0  0  0  0
  -28.1073  -36.2614   24.6297 H   0  0  0  0  0  0
  -27.2289  -37.1439   25.8869 H   0  0  0  0  0  0
  -20.9472  -29.8751   21.6781 H   0  0  0  0  0  0
  -26.0150  -38.2813   24.1412 H   0  0  0  0  0  0
  -31.9753  -17.3138   19.2604 H   0  0  0  0  0  0
  -30.7848  -22.1153   17.9801 H   0  0  0  0  0  0
  -32.4315  -21.5408   18.1742 H   0  0  0  0  0  0
  -31.7029  -22.4764   19.4659 H   0  0  0  0  0  0
  -27.7727  -17.2836   21.0721 H   0  0  0  0  0  0
  -27.7876  -15.5976   21.2416 H   0  0  0  0  0  0
  -28.0374  -16.3301   19.6331 H   0  0  0  0  0  0
  -29.4803  -17.3336   22.9021 H   0  0  0  0  0  0
  -31.1058  -16.7183   22.6452 H   0  0  0  0  0  0
  -29.7798  -15.6036   22.9552 H   0  0  0  0  0  0
  -28.3532  -21.6174   21.3249 H   0  0  0  0  0  0
  -27.9793  -21.5800   19.6469 H   0  0  0  0  0  0
  -29.6946  -23.5460   19.2710 H   0  0  0  0  0  0
  -29.9009  -23.6215   20.9848 H   0  0  0  0  0  0
  -27.4003  -24.4845   21.0743 H   0  0  0  0  0  0
  -27.4208  -24.4334   19.3474 H   0  0  0  0  0  0
  1 25  1  0  0  0
  1 30  2  0  0  0
  1 81  1  0  0  0
  2  3  1  0  0  0
  2 25  1  0  0  0
  2 84  1  0  0  0
  2 85  1  0  0  0
  3  4  1  0  0  0
  3 86  1  0  0  0
  3 87  1  0  0  0
  4  5  1  0  0  0
  4 88  1  0  0  0
  4 89  1  0  0  0
  5  6  1  0  0  0
  5 26  1  0  0  0
  5 90  1  0  0  0
  6 25  1  0  0  0
  6 91  1  0  0  0
  6 92  1  0  0  0
  7  8  2  0  0  0
  7 26  1  0  0  0
  7 29  1  0  0  0
  8  9  1  0  0  0
  8 22  1  0  0  0
  9 10  1  0  0  0
  9 27  2  0  0  0
 10 11  2  0  0  0
 10 15  1  0  0  0
 11 12  1  0  0  0
 11 93  1  0  0  0
 12 13  2  0  0  0
 12 94  1  0  0  0
 13 14  1  0  0  0
 13 31  1  0  0  0
 14 15  2  0  0  0
 14 95  1  0  0  0
 15 96  1  0  0  0
 16 17  2  0  0  0
 16 21  1  0  0  0
 16 31  1  0  0  0
 17 18  1  0  0  0
 17 97  1  0  0  0
 18 19  2  0  0  0
 18 98  1  0  0  0
 19 20  1  0  0  0
 19 24  1  0  0  0
 20 21  2  0  0  0
 20 99  1  0  0  0
 21 23  1  0  0  0
 22 28  1  0  0  0
 22 32  2  0  0  0
 26 27  1  0  0  0
 28100  1  0  0  0
 28101  1  0  0  0
 29102  1  0  0  0
 29103  1  0  0  0
 33 34  1  0  0  0
 33 66  1  0  0  0
 33 70  2  0  0  0
 34 36  1  0  0  0
 34 59  1  0  0  0
 34104  1  0  0  0
 35 44  2  0  0  0
 35 45  1  0  0  0
 35 68  1  0  0  0
 36 56  1  0  0  0
 36105  1  0  0  0
 37 39  1  0  0  0
 37 47  1  0  0  0
 37 66  1  0  0  0
 37106  1  0  0  0
 38 43  2  0  0  0
 38 46  1  0  0  0
 38 47  1  0  0  0
 39 64  1  0  0  0
 39 67  2  0  0  0
 40 52  1  0  0  0
 40 53  2  0  0  0
 40 58  1  0  0  0
 41107  1  0  0  0
 41108  1  0  0  0
 41109  1  0  0  0
 41 48  1  0  0  0
 42 43  1  0  0  0
 42 66  1  0  0  0
 42110  1  0  0  0
 42111  1  0  0  0
 43 44  1  0  0  0
 44112  1  0  0  0
 45 46  2  0  0  0
 45113  1  0  0  0
 46114  1  0  0  0
 47115  1  0  0  0
 47116  1  0  0  0
 48 56  1  0  0  0
 48 65  1  0  0  0
 48117  1  0  0  0
 49 50  1  0  0  0
 49 53  1  0  0  0
 49 64  1  0  0  0
 49118  1  0  0  0
 50 51  1  0  0  0
 50119  1  0  0  0
 50120  1  0  0  0
 51 52  1  0  0  0
 51121  1  0  0  0
 51122  1  0  0  0
 52123  1  0  0  0
 52124  1  0  0  0
 53 54  1  0  0  0
 54 55  2  0  0  0
 54125  1  0  0  0
 55 57  1  0  0  0
 55126  1  0  0  0
 56 69  2  0  0  0
 57 58  2  0  0  0
 57127  1  0  0  0
 58128  1  0  0  0
 59 60  1  0  0  0
 59 61  1  0  0  0
 59 62  1  0  0  0
 60129  1  0  0  0
 60130  1  0  0  0
 60131  1  0  0  0
 61132  1  0  0  0
 61133  1  0  0  0
 61134  1  0  0  0
 62135  1  0  0  0
 62136  1  0  0  0
 62137  1  0  0  0
 63 65  1  0  0  0
 63138  1  0  0  0
 63139  1  0  0  0
 63140  1  0  0  0
 64141  1  0  0  0
 65142  1  0  0  0
 68 80  1  0  0  0
 71 72  2  0  0  0
 71 82  1  0  0  0
 71143  1  0  0  0
 72 81  1  0  0  0
 72 83  1  0  0  0
 73 74  1  0  0  0
 73 75  1  0  0  0
 73 82  2  0  0  0
 74 78  1  0  0  0
 74 83  2  0  0  0
 75144  1  0  0  0
 75145  1  0  0  0
 75146  1  0  0  0
 76147  1  0  0  0
 76148  1  0  0  0
 76149  1  0  0  0
 76 81  1  0  0  0
 77 81  1  0  0  0
 77150  1  0  0  0
 77151  1  0  0  0
 77152  1  0  0  0
 78 79  1  0  0  0
 78153  1  0  0  0
 78154  1  0  0  0
 79 80  1  0  0  0
 79155  1  0  0  0
 79156  1  0  0  0
 80157  1  0  0  0
 80158  1  0  0  0
M  ISO  4   1 100  68 101  80 101  81 100
M  END
> <chiral flag>
0

> <version>
0

> <s_m_source_file>
/data/baiqing/PycharmProjects/Reinvent-master-3.2/result/LINK_invent/BTK/process_docking_weight1_custom_sum_contain_oxygen_bond_distance_aromatic_linkinvent_7_9_3/rearranged_h_0074.sdf

> <i_m_source_file_index>
11

> <r_mmod_Potential_Energy-OPLS-2005>
630.902038574219

> <r_mmod_Stretch_Energy-OPLS-2005>
289.652465820312

> <r_mmod_Bend_Energy-OPLS-2005>
285.242553710938

> <r_mmod_Torsional_Energy-OPLS-2005>
185.982879638672

> <r_mmod_Improper_Torsional_Energy-OPLS-2005>
1.96167123317719

> <r_mmod_Van_der_Waal_Energy-OPLS-2005>
152.883666992188

> <r_mmod_Electrostatic_Energy-OPLS-2005>
-269.684112548828

> <r_mmod_Solvation_Energy-OPLS-2005>
-200.936904907227

> <b_mmod_Minimization_Converged-OPLS-2005>
0

> <r_mmod_RMS_Derivative-OPLS-2005>
0.438251376152039

$$$$
11
                    3D
 Structure written by MMmdl.
160168  0  0  1  0            999 V2000
  -30.6788  -14.7554   20.5329 C   0  0  0  0  0  0
  -30.4080  -12.4802   19.4993 C   0  0  0  0  0  0
  -29.5032  -12.5246   18.2510 C   0  0  0  0  0  0
  -28.0339  -12.3385   18.6623 C   0  0  0  0  0  0
  -27.6364  -13.2436   19.8597 C   0  0  2  0  0  0
  -28.6747  -13.2129   21.0042 C   0  0  0  0  0  0
  -25.2378  -13.8115   20.5452 C   0  0  0  0  0  0
  -24.1726  -13.0393   20.9116 C   0  0  0  0  0  0
  -24.6380  -11.6894   20.8767 C   0  0  0  0  0  0
  -23.9064  -10.4271   21.0424 C   0  0  0  0  0  0
  -24.3614   -9.4188   21.9201 C   0  0  0  0  0  0
  -23.6280   -8.2236   22.0771 C   0  0  0  0  0  0
  -22.4264   -8.0275   21.3556 C   0  0  0  0  0  0
  -21.9898   -9.0248   20.4661 C   0  0  0  0  0  0
  -22.7234  -10.2119   20.3068 C   0  0  0  0  0  0
  -21.6846   -6.0726   22.5275 C   0  0  0  0  0  0
  -21.4013   -6.5636   23.8208 C   0  0  0  0  0  0
  -21.3657   -5.6790   24.9170 C   0  0  0  0  0  0
  -21.6039   -4.3053   24.7222 C   0  0  0  0  0  0
  -21.8821   -3.8138   23.4345 C   0  0  0  0  0  0
  -21.9193   -4.6956   22.3403 C   0  0  0  0  0  0
  -22.7767  -13.5200   21.1814 C   0  0  0  0  0  0
  -22.1662   -4.2142   21.0977 F   0  0  0  0  0  0
  -21.5623   -3.4532   25.7733 F   0  0  0  0  0  0
  -29.9760  -13.5654   20.4267 N   0  0  0  0  0  0
  -26.2908  -12.9410   20.3348 N   0  0  0  0  0  0
  -25.9346  -11.6551   20.5885 N   0  0  0  0  0  0
  -22.0435  -12.8219   22.0413 N   0  0  0  0  0  0
  -25.3928  -15.1736   20.3417 N   0  0  0  0  0  0
  -31.8151  -14.7842   20.0386 O   0  0  0  0  0  0
  -21.6635   -6.8870   21.4241 O   0  0  0  0  0  0
  -22.3462  -14.5525   20.6683 O   0  0  0  0  0  0
  -24.6321  -31.8554   23.1979 C   0  0  0  0  0  0
  -25.9144  -32.4749   23.8331 C   0  0  1  0  0  0
  -27.2178  -27.2557   20.1469 C   0  0  0  0  0  0
  -25.5943  -33.8548   24.2252 N   0  0  0  0  0  0
  -23.4292  -30.4759   21.5416 C   0  0  2  0  0  0
  -24.8770  -28.9193   20.1138 C   0  0  0  0  0  0
  -22.7519  -29.4587   22.4921 C   0  0  0  0  0  0
  -18.0321  -28.1376   22.8481 C   0  0  0  0  0  0
  -24.1488  -36.7280   23.2637 C   0  0  0  0  0  0
  -25.9738  -30.7696   21.3746 C   0  0  0  0  0  0
  -26.0485  -29.3885   20.7230 C   0  0  0  0  0  0
  -27.2248  -28.5701   20.7261 C   0  0  0  0  0  0
  -26.0303  -26.8601   19.4961 C   0  0  0  0  0  0
  -24.8732  -27.6628   19.4878 C   0  0  0  0  0  0
  -23.6473  -29.8060   20.1592 C   0  0  0  0  0  0
  -25.4112  -36.3058   24.0322 C   0  0  1  0  0  0
  -20.5919  -28.3682   23.1290 C   0  0  2  0  0  0
  -20.6804  -26.9407   22.5397 C   0  0  0  0  0  0
  -19.5787  -26.6405   21.5188 C   0  0  0  0  0  0
  -18.1963  -26.7934   22.1595 C   0  0  0  0  0  0
  -19.1571  -28.8846   23.2885 C   0  0  0  0  0  0
  -18.9489  -30.1443   23.8903 C   0  0  0  0  0  0
  -17.6489  -30.6569   24.0574 C   0  0  0  0  0  0
  -25.9055  -34.9430   23.5086 C   0  0  0  0  0  0
  -16.5382  -29.9069   23.6339 C   0  0  0  0  0  0
  -16.7305  -28.6490   23.0348 C   0  0  0  0  0  0
  -26.4513  -31.6575   25.0720 C   0  0  0  0  0  0
  -25.3749  -31.3729   26.1455 C   0  0  0  0  0  0
  -27.0356  -30.2996   24.6187 C   0  0  0  0  0  0
  -27.6058  -32.4316   25.7510 C   0  0  0  0  0  0
  -27.5570  -37.1798   24.8464 C   0  0  0  0  0  0
  -21.4222  -29.3040   22.3684 N   0  0  0  0  0  0
  -26.4278  -37.3764   23.9411 N   0  0  0  0  0  0
  -24.6975  -31.0517   22.0950 N   0  0  0  0  0  0
  -23.4225  -28.8129   23.3013 O   0  0  0  0  0  0
  -28.3023  -26.3487   20.1778 O   0  0  0  0  0  0
  -26.5625  -34.8910   22.4651 O   0  0  0  0  0  0
  -23.5468  -32.1363   23.7284 O   0  0  0  0  0  0
  -27.4353  -18.9551   21.2844 C   0  0  0  0  0  0
  -27.2091  -17.6329   21.7242 C   0  0  0  0  0  0
  -28.7056  -19.2646   20.7367 C   0  0  0  0  0  0
  -29.2596  -16.9044   20.9617 C   0  0  0  0  0  0
  -26.3167  -19.9825   21.4004 C   0  0  0  0  0  0
  -25.9803  -17.2541   22.5345 C   0  0  0  0  0  0
  -31.2161  -16.3488   22.2338 C   0  0  0  0  0  0
  -29.0898  -20.7422   20.1956 C   0  0  0  0  0  0
  -28.5236  -22.1656   20.7999 C   0  0  0  0  0  0
  -28.8347  -23.6218   20.1314 C   0  0  0  0  0  0
  -28.0546  -24.9447   20.6740 C   0  0  0  0  0  0
  -28.0889  -16.6368   21.5197 N   0  0  0  0  0  0
  -29.6020  -18.1988   20.6192 N   0  0  0  0  0  0
  -30.2366  -15.8875   21.2374 N   0  0  0  0  0  0
  -31.4542  -12.5617   19.1997 H   0  0  0  0  0  0
  -30.3276  -11.5105   19.9936 H   0  0  0  0  0  0
  -29.7972  -11.7497   17.5408 H   0  0  0  0  0  0
  -29.6270  -13.4792   17.7383 H   0  0  0  0  0  0
  -27.8996  -11.2897   18.9298 H   0  0  0  0  0  0
  -27.3763  -12.5216   17.8114 H   0  0  0  0  0  0
  -27.6249  -14.2627   19.4730 H   0  0  0  0  0  0
  -28.7132  -12.2273   21.4711 H   0  0  0  0  0  0
  -28.3953  -13.9123   21.7918 H   0  0  0  0  0  0
  -25.2756   -9.5669   22.4773 H   0  0  0  0  0  0
  -23.9980   -7.4633   22.7498 H   0  0  0  0  0  0
  -21.0825   -8.8773   19.8961 H   0  0  0  0  0  0
  -22.3698  -10.9659   19.6173 H   0  0  0  0  0  0
  -21.2010   -7.6143   23.9709 H   0  0  0  0  0  0
  -21.1470   -6.0524   25.9074 H   0  0  0  0  0  0
  -22.0596   -2.7598   23.2854 H   0  0  0  0  0  0
  -22.4034  -11.9857   22.4766 H   0  0  0  0  0  0
  -21.1079  -13.1283   22.2662 H   0  0  0  0  0  0
  -24.6209  -15.8244   20.4166 H   0  0  0  0  0  0
  -26.2936  -15.6168   20.2033 H   0  0  0  0  0  0
  -26.7215  -32.5417   23.1080 H   0  0  0  0  0  0
  -25.0107  -33.9682   25.0409 H   0  0  0  0  0  0
  -22.7256  -31.2977   21.3947 H   0  0  0  0  0  0
  -23.3740  -35.9622   23.3291 H   0  0  0  0  0  0
  -24.3577  -36.8913   22.2054 H   0  0  0  0  0  0
  -23.7260  -37.6484   23.6672 H   0  0  0  0  0  0
  -26.1062  -31.5261   20.5992 H   0  0  0  0  0  0
  -26.8527  -30.8261   22.0052 H   0  0  0  0  0  0
  -28.1213  -28.9213   21.2170 H   0  0  0  0  0  0
  -25.9841  -25.9010   19.0003 H   0  0  0  0  0  0
  -23.9778  -27.2995   19.0024 H   0  0  0  0  0  0
  -23.7711  -30.5799   19.4012 H   0  0  0  0  0  0
  -22.7662  -29.2379   19.8553 H   0  0  0  0  0  0
  -25.1295  -36.1889   25.0813 H   0  0  0  0  0  0
  -21.0019  -28.3243   24.1405 H   0  0  0  0  0  0
  -20.5725  -26.2269   23.3582 H   0  0  0  0  0  0
  -21.6668  -26.7482   22.1166 H   0  0  0  0  0  0
  -19.6953  -25.6345   21.1142 H   0  0  0  0  0  0
  -19.6720  -27.3277   20.6770 H   0  0  0  0  0  0
  -17.4239  -26.6737   21.3980 H   0  0  0  0  0  0
  -18.0341  -26.0047   22.8955 H   0  0  0  0  0  0
  -19.7957  -30.7281   24.2269 H   0  0  0  0  0  0
  -17.5055  -31.6249   24.5179 H   0  0  0  0  0  0
  -15.5388  -30.2977   23.7681 H   0  0  0  0  0  0
  -15.8704  -28.0811   22.7062 H   0  0  0  0  0  0
  -24.5928  -30.7056   25.7816 H   0  0  0  0  0  0
  -24.8934  -32.2896   26.4870 H   0  0  0  0  0  0
  -25.8087  -30.8944   27.0242 H   0  0  0  0  0  0
  -26.2931  -29.6756   24.1193 H   0  0  0  0  0  0
  -27.4031  -29.7250   25.4698 H   0  0  0  0  0  0
  -27.8815  -30.4278   23.9426 H   0  0  0  0  0  0
  -27.2650  -33.3619   26.2070 H   0  0  0  0  0  0
  -28.3896  -32.6859   25.0363 H   0  0  0  0  0  0
  -28.0690  -31.8445   26.5456 H   0  0  0  0  0  0
  -28.2583  -38.0097   24.7493 H   0  0  0  0  0  0
  -28.1062  -36.2621   24.6296 H   0  0  0  0  0  0
  -27.2289  -37.1467   25.8869 H   0  0  0  0  0  0
  -20.9402  -29.8786   21.6922 H   0  0  0  0  0  0
  -26.0143  -38.2829   24.1419 H   0  0  0  0  0  0
  -25.3423  -19.5471   21.6151 H   0  0  0  0  0  0
  -26.1870  -20.5001   20.4503 H   0  0  0  0  0  0
  -26.5274  -20.6961   22.1967 H   0  0  0  0  0  0
  -25.8642  -17.9277   23.3824 H   0  0  0  0  0  0
  -26.0556  -16.2420   22.9319 H   0  0  0  0  0  0
  -25.0756  -17.3140   21.9300 H   0  0  0  0  0  0
  -30.7092  -16.8578   23.0548 H   0  0  0  0  0  0
  -31.9144  -17.0549   21.7807 H   0  0  0  0  0  0
  -31.7909  -15.5329   22.6766 H   0  0  0  0  0  0
  -28.8267  -20.7273   19.1376 H   0  0  0  0  0  0
  -30.1780  -20.7976   20.2114 H   0  0  0  0  0  0
  -27.4418  -22.1509   20.8035 H   0  0  0  0  0  0
  -28.8100  -22.2093   21.8511 H   0  0  0  0  0  0
  -28.6299  -23.5409   19.0631 H   0  0  0  0  0  0
  -29.9069  -23.8069   20.2079 H   0  0  0  0  0  0
  -28.2523  -24.9974   21.7445 H   0  0  0  0  0  0
  -26.9898  -24.7186   20.6219 H   0  0  0  0  0  0
  1 25  1  0  0  0
  1 30  2  0  0  0
  1 84  1  0  0  0
  2  3  1  0  0  0
  2 25  1  0  0  0
  2 85  1  0  0  0
  2 86  1  0  0  0
  3  4  1  0  0  0
  3 87  1  0  0  0
  3 88  1  0  0  0
  4  5  1  0  0  0
  4 89  1  0  0  0
  4 90  1  0  0  0
  5  6  1  0  0  0
  5 26  1  0  0  0
  5 91  1  0  0  0
  6 25  1  0  0  0
  6 92  1  0  0  0
  6 93  1  0  0  0
  7  8  2  0  0  0
  7 26  1  0  0  0
  7 29  1  0  0  0
  8  9  1  0  0  0
  8 22  1  0  0  0
  9 10  1  0  0  0
  9 27  2  0  0  0
 10 11  2  0  0  0
 10 15  1  0  0  0
 11 12  1  0  0  0
 11 94  1  0  0  0
 12 13  2  0  0  0
 12 95  1  0  0  0
 13 14  1  0  0  0
 13 31  1  0  0  0
 14 15  2  0  0  0
 14 96  1  0  0  0
 15 97  1  0  0  0
 16 17  2  0  0  0
 16 21  1  0  0  0
 16 31  1  0  0  0
 17 18  1  0  0  0
 17 98  1  0  0  0
 18 19  2  0  0  0
 18 99  1  0  0  0
 19 20  1  0  0  0
 19 24  1  0  0  0
 20 21  2  0  0  0
 20100  1  0  0  0
 21 23  1  0  0  0
 22 28  1  0  0  0
 22 32  2  0  0  0
 26 27  1  0  0  0
 28101  1  0  0  0
 28102  1  0  0  0
 29103  1  0  0  0
 29104  1  0  0  0
 33 34  1  0  0  0
 33 66  1  0  0  0
 33 70  2  0  0  0
 34 36  1  0  0  0
 34 59  1  0  0  0
 34105  1  0  0  0
 35 44  2  0  0  0
 35 45  1  0  0  0
 35 68  1  0  0  0
 36 56  1  0  0  0
 36106  1  0  0  0
 37 39  1  0  0  0
 37 47  1  0  0  0
 37 66  1  0  0  0
 37107  1  0  0  0
 38 43  2  0  0  0
 38 46  1  0  0  0
 38 47  1  0  0  0
 39 64  1  0  0  0
 39 67  2  0  0  0
 40 52  1  0  0  0
 40 53  2  0  0  0
 40 58  1  0  0  0
 41108  1  0  0  0
 41109  1  0  0  0
 41110  1  0  0  0
 41 48  1  0  0  0
 42 43  1  0  0  0
 42 66  1  0  0  0
 42111  1  0  0  0
 42112  1  0  0  0
 43 44  1  0  0  0
 44113  1  0  0  0
 45 46  2  0  0  0
 45114  1  0  0  0
 46115  1  0  0  0
 47116  1  0  0  0
 47117  1  0  0  0
 48 56  1  0  0  0
 48 65  1  0  0  0
 48118  1  0  0  0
 49 50  1  0  0  0
 49 53  1  0  0  0
 49 64  1  0  0  0
 49119  1  0  0  0
 50 51  1  0  0  0
 50120  1  0  0  0
 50121  1  0  0  0
 51 52  1  0  0  0
 51122  1  0  0  0
 51123  1  0  0  0
 52124  1  0  0  0
 52125  1  0  0  0
 53 54  1  0  0  0
 54 55  2  0  0  0
 54126  1  0  0  0
 55 57  1  0  0  0
 55127  1  0  0  0
 56 69  2  0  0  0
 57 58  2  0  0  0
 57128  1  0  0  0
 58129  1  0  0  0
 59 60  1  0  0  0
 59 61  1  0  0  0
 59 62  1  0  0  0
 60130  1  0  0  0
 60131  1  0  0  0
 60132  1  0  0  0
 61133  1  0  0  0
 61134  1  0  0  0
 61135  1  0  0  0
 62136  1  0  0  0
 62137  1  0  0  0
 62138  1  0  0  0
 63 65  1  0  0  0
 63139  1  0  0  0
 63140  1  0  0  0
 63141  1  0  0  0
 64142  1  0  0  0
 65143  1  0  0  0
 68 81  1  0  0  0
 71 72  2  0  0  0
 71 73  1  0  0  0
 71 75  1  0  0  0
 72 76  1  0  0  0
 72 82  1  0  0  0
 73 78  1  0  0  0
 73 83  2  0  0  0
 74 82  2  0  0  0
 74 83  1  0  0  0
 74 84  1  0  0  0
 75144  1  0  0  0
 75145  1  0  0  0
 75146  1  0  0  0
 76147  1  0  0  0
 76148  1  0  0  0
 76149  1  0  0  0
 77 84  1  0  0  0
 77150  1  0  0  0
 77151  1  0  0  0
 77152  1  0  0  0
 78 79  1  0  0  0
 78153  1  0  0  0
 78154  1  0  0  0
 79 80  1  0  0  0
 79155  1  0  0  0
 79156  1  0  0  0
 80 81  1  0  0  0
 80157  1  0  0  0
 80158  1  0  0  0
 81159  1  0  0  0
 81160  1  0  0  0
M  ISO  4   1 100  68 101  81 101  84 100
M  END
> <chiral flag>
0

> <version>
0

> <s_m_source_file>
/data/baiqing/PycharmProjects/Reinvent-master-3.2/result/LINK_invent/BTK/process_docking_weight1_custom_sum_contain_oxygen_bond_distance_aromatic_linkinvent_7_9_3/rearranged_h_0074.sdf

> <i_m_source_file_index>
12

> <r_mmod_Potential_Energy-OPLS-2005>
19.810661315918

> <r_mmod_Stretch_Energy-OPLS-2005>
148.74333190918

> <r_mmod_Bend_Energy-OPLS-2005>
220.003326416016

> <r_mmod_Torsional_Energy-OPLS-2005>
289.357788085938

> <r_mmod_Improper_Torsional_Energy-OPLS-2005>
8.49800395965576

> <r_mmod_Van_der_Waal_Energy-OPLS-2005>
153.777404785156

> <r_mmod_Electrostatic_Energy-OPLS-2005>
-693.564147949219

> <r_mmod_Solvation_Energy-OPLS-2005>
-196.608596801758

> <b_mmod_Minimization_Converged-OPLS-2005>
0

> <r_mmod_RMS_Derivative-OPLS-2005>
1.86655390262604

$$$$
12
                    3D
 Structure written by MMmdl.
166174  0  0  1  0            999 V2000
  -30.7174  -14.4831   20.6317 C   0  0  0  0  0  0
  -30.4257  -12.3325   19.4360 C   0  0  0  0  0  0
  -29.5051  -12.5242   18.2105 C   0  0  0  0  0  0
  -28.0192  -12.3919   18.6050 C   0  0  0  0  0  0
  -27.6600  -13.2093   19.8758 C   0  0  2  0  0  0
  -28.6933  -12.9528   20.9907 C   0  0  0  0  0  0
  -25.2552  -13.8142   20.5655 C   0  0  0  0  0  0
  -24.1811  -13.0432   20.9187 C   0  0  0  0  0  0
  -24.6362  -11.6902   20.8730 C   0  0  0  0  0  0
  -23.9031  -10.4298   21.0387 C   0  0  0  0  0  0
  -24.3606   -9.4234   21.9160 C   0  0  0  0  0  0
  -23.6282   -8.2272   22.0759 C   0  0  0  0  0  0
  -22.4261   -8.0302   21.3555 C   0  0  0  0  0  0
  -21.9880   -9.0256   20.4644 C   0  0  0  0  0  0
  -22.7201  -10.2134   20.3033 C   0  0  0  0  0  0
  -21.6857   -6.0733   22.5286 C   0  0  0  0  0  0
  -21.4006   -6.5634   23.8220 C   0  0  0  0  0  0
  -21.3671   -5.6786   24.9184 C   0  0  0  0  0  0
  -21.6062   -4.3054   24.7234 C   0  0  0  0  0  0
  -21.8818   -3.8142   23.4354 C   0  0  0  0  0  0
  -21.9193   -4.6959   22.3410 C   0  0  0  0  0  0
  -22.7857  -13.5264   21.1847 C   0  0  0  0  0  0
  -22.1660   -4.2149   21.0984 F   0  0  0  0  0  0
  -21.5642   -3.4541   25.7747 F   0  0  0  0  0  0
  -30.0238  -13.3120   20.4669 N   0  0  0  0  0  0
  -26.2981  -12.9312   20.3318 N   0  0  0  0  0  0
  -25.9280  -11.6475   20.5725 N   0  0  0  0  0  0
  -22.0441  -12.8297   22.0396 N   0  0  0  0  0  0
  -25.4291  -15.1855   20.4097 N   0  0  0  0  0  0
  -31.8155  -14.6479   20.0852 O   0  0  0  0  0  0
  -21.6636   -6.8886   21.4251 O   0  0  0  0  0  0
  -22.3596  -14.5591   20.6702 O   0  0  0  0  0  0
  -24.6196  -31.8674   23.2111 C   0  0  0  0  0  0
  -25.9075  -32.4817   23.8403 C   0  0  1  0  0  0
  -27.2186  -27.3959   20.0791 C   0  0  0  0  0  0
  -25.5924  -33.8617   24.2352 N   0  0  0  0  0  0
  -23.4063  -30.4954   21.5523 C   0  0  2  0  0  0
  -24.8445  -28.9649   20.1120 C   0  0  0  0  0  0
  -22.7438  -29.4664   22.4982 C   0  0  0  0  0  0
  -18.0284  -28.1376   22.8502 C   0  0  0  0  0  0
  -24.1486  -36.7304   23.2646 C   0  0  0  0  0  0
  -25.9416  -30.8197   21.3695 C   0  0  0  0  0  0
  -26.0105  -29.4528   20.7120 C   0  0  0  0  0  0
  -27.1952  -28.6728   20.6996 C   0  0  0  0  0  0
  -26.0328  -26.9556   19.4432 C   0  0  0  0  0  0
  -24.8523  -27.7152   19.4767 C   0  0  0  0  0  0
  -23.6107  -29.8373   20.1649 C   0  0  0  0  0  0
  -25.4103  -36.3114   24.0365 C   0  0  1  0  0  0
  -20.5887  -28.3660   23.1325 C   0  0  2  0  0  0
  -20.6776  -26.9397   22.5419 C   0  0  0  0  0  0
  -19.5737  -26.6392   21.5227 C   0  0  0  0  0  0
  -18.1912  -26.7929   22.1630 C   0  0  0  0  0  0
  -19.1543  -28.8834   23.2907 C   0  0  0  0  0  0
  -18.9464  -30.1441   23.8916 C   0  0  0  0  0  0
  -17.6470  -30.6579   24.0575 C   0  0  0  0  0  0
  -25.9042  -34.9487   23.5156 C   0  0  0  0  0  0
  -16.5354  -29.9085   23.6329 C   0  0  0  0  0  0
  -16.7276  -28.6501   23.0340 C   0  0  0  0  0  0
  -26.4502  -31.6570   25.0711 C   0  0  0  0  0  0
  -25.3791  -31.3681   26.1475 C   0  0  0  0  0  0
  -27.0321  -30.3019   24.6051 C   0  0  0  0  0  0
  -27.6072  -32.4307   25.7450 C   0  0  0  0  0  0
  -27.5589  -37.1800   24.8480 C   0  0  0  0  0  0
  -21.4165  -29.3041   22.3732 N   0  0  0  0  0  0
  -26.4293  -37.3799   23.9436 N   0  0  0  0  0  0
  -24.6745  -31.0748   22.1022 N   0  0  0  0  0  0
  -23.4211  -28.8198   23.3018 O   0  0  0  0  0  0
  -28.3848  -26.6353   20.1283 O   0  0  0  0  0  0
  -26.5587  -34.8931   22.4708 O   0  0  0  0  0  0
  -23.5380  -32.1441   23.7501 O   0  0  0  0  0  0
  -29.0880  -21.7120   20.3387 C   0  0  0  0  0  0
  -28.4075  -20.4646   20.4151 C   0  0  0  0  0  0
  -28.4253  -22.8789   20.8046 C   0  0  0  0  0  0
  -27.0984  -20.5004   20.9664 C   0  0  0  0  0  0
  -25.2478  -19.1829   19.8184 C   0  0  0  0  0  0
  -29.1149  -25.2050   18.3492 C   0  0  0  0  0  0
  -29.6732  -15.5007   22.6189 C   0  0  0  0  0  0
  -29.0122  -19.1800   19.8082 C   0  0  0  0  0  0
  -29.0440  -24.2885   20.7490 C   0  0  0  0  0  0
  -26.1804  -19.2872   21.0354 C   0  0  0  0  0  0
  -29.2303  -17.9552   20.7822 C   0  0  0  0  0  0
  -30.4434  -16.9453   20.8092 C   0  0  0  0  0  0
  -28.3909  -25.2426   19.7028 C   0  0  1  0  0  0
  -27.1880  -22.8132   21.3516 N   0  0  0  0  0  0
  -26.5356  -21.6502   21.4179 N   0  0  0  0  0  0
  -30.0828  -15.5529   21.2084 N   0  0  0  0  0  0
  -31.4711  -12.4355   19.1423 H   0  0  0  0  0  0
  -30.3315  -11.3182   19.8260 H   0  0  0  0  0  0
  -29.7572  -11.7960   17.4368 H   0  0  0  0  0  0
  -29.6799  -13.5030   17.7610 H   0  0  0  0  0  0
  -27.8126  -11.3349   18.7716 H   0  0  0  0  0  0
  -27.3829  -12.6903   17.7701 H   0  0  0  0  0  0
  -27.7126  -14.2666   19.6119 H   0  0  0  0  0  0
  -28.6800  -11.8941   21.2610 H   0  0  0  0  0  0
  -28.4125  -13.4615   21.9054 H   0  0  0  0  0  0
  -25.2752   -9.5728   22.4729 H   0  0  0  0  0  0
  -24.0004   -7.4664   22.7469 H   0  0  0  0  0  0
  -21.0816   -8.8752   19.8946 H   0  0  0  0  0  0
  -22.3637  -10.9669   19.6152 H   0  0  0  0  0  0
  -21.1975   -7.6134   23.9729 H   0  0  0  0  0  0
  -21.1503   -6.0508   25.9091 H   0  0  0  0  0  0
  -22.0579   -2.7600   23.2842 H   0  0  0  0  0  0
  -22.4038  -12.0000   22.4880 H   0  0  0  0  0  0
  -21.1055  -13.1374   22.2510 H   0  0  0  0  0  0
  -24.6691  -15.8454   20.5317 H   0  0  0  0  0  0
  -26.2952  -15.6215   20.1201 H   0  0  0  0  0  0
  -26.7134  -32.5507   23.1147 H   0  0  0  0  0  0
  -25.0097  -33.9766   25.0510 H   0  0  0  0  0  0
  -22.6976  -31.3166   21.4203 H   0  0  0  0  0  0
  -23.3760  -35.9623   23.3296 H   0  0  0  0  0  0
  -24.3605  -36.8922   22.2070 H   0  0  0  0  0  0
  -23.7209  -37.6500   23.6644 H   0  0  0  0  0  0
  -26.0626  -31.5866   20.6027 H   0  0  0  0  0  0
  -26.8298  -30.8718   21.9869 H   0  0  0  0  0  0
  -28.0910  -29.0379   21.1810 H   0  0  0  0  0  0
  -25.9684  -26.0331   18.8896 H   0  0  0  0  0  0
  -23.9596  -27.3403   18.9955 H   0  0  0  0  0  0
  -23.7251  -30.6168   19.4110 H   0  0  0  0  0  0
  -22.7310  -29.2647   19.8634 H   0  0  0  0  0  0
  -25.1271  -36.1995   25.0861 H   0  0  0  0  0  0
  -20.9992  -28.3218   24.1441 H   0  0  0  0  0  0
  -20.5708  -26.2264   23.3600 H   0  0  0  0  0  0
  -21.6632  -26.7444   22.1186 H   0  0  0  0  0  0
  -19.6886  -25.6322   21.1206 H   0  0  0  0  0  0
  -19.6663  -27.3247   20.6797 H   0  0  0  0  0  0
  -17.4197  -26.6737   21.4004 H   0  0  0  0  0  0
  -18.0261  -26.0052   22.9004 H   0  0  0  0  0  0
  -19.7944  -30.7247   24.2282 H   0  0  0  0  0  0
  -17.5023  -31.6256   24.5178 H   0  0  0  0  0  0
  -15.5358  -30.2986   23.7632 H   0  0  0  0  0  0
  -15.8678  -28.0831   22.7026 H   0  0  0  0  0  0
  -24.5956  -30.7025   25.7836 H   0  0  0  0  0  0
  -24.8987  -32.2835   26.4936 H   0  0  0  0  0  0
  -25.8181  -30.8853   27.0211 H   0  0  0  0  0  0
  -26.2829  -29.6761   24.1180 H   0  0  0  0  0  0
  -27.4208  -29.7273   25.4458 H   0  0  0  0  0  0
  -27.8616  -30.4365   23.9111 H   0  0  0  0  0  0
  -27.2673  -33.3607   26.2021 H   0  0  0  0  0  0
  -28.3843  -32.6871   25.0243 H   0  0  0  0  0  0
  -28.0751  -31.8434   26.5357 H   0  0  0  0  0  0
  -28.2608  -38.0098   24.7536 H   0  0  0  0  0  0
  -28.1086  -36.2632   24.6277 H   0  0  0  0  0  0
  -27.2321  -37.1425   25.8888 H   0  0  0  0  0  0
  -20.9318  -29.8795   21.6982 H   0  0  0  0  0  0
  -26.0192  -38.2888   24.1415 H   0  0  0  0  0  0
  -30.0765  -21.7871   19.9084 H   0  0  0  0  0  0
  -25.8233  -19.0594   18.9012 H   0  0  0  0  0  0
  -24.5756  -18.3300   19.9141 H   0  0  0  0  0  0
  -24.6307  -20.0747   19.7052 H   0  0  0  0  0  0
  -29.1896  -24.1855   17.9685 H   0  0  0  0  0  0
  -30.1286  -25.5998   18.4342 H   0  0  0  0  0  0
  -28.5865  -25.8039   17.6070 H   0  0  0  0  0  0
  -29.9934  -16.3786   23.1826 H   0  0  0  0  0  0
  -30.0818  -14.6310   23.1374 H   0  0  0  0  0  0
  -28.5876  -15.4720   22.6962 H   0  0  0  0  0  0
  -29.9494  -19.4448   19.3115 H   0  0  0  0  0  0
  -28.3408  -18.9299   18.9795 H   0  0  0  0  0  0
  -30.1204  -24.2148   20.5895 H   0  0  0  0  0  0
  -28.9176  -24.7239   21.7418 H   0  0  0  0  0  0
  -25.5830  -19.3587   21.9450 H   0  0  0  0  0  0
  -26.7541  -18.3701   21.1444 H   0  0  0  0  0  0
  -29.9782  -18.6526   21.1600 H   0  0  0  0  0  0
  -29.0019  -17.3748   19.8873 H   0  0  0  0  0  0
  -31.2400  -17.2569   21.4944 H   0  0  0  0  0  0
  -30.9386  -16.9527   19.8319 H   0  0  0  0  0  0
  -27.3911  -24.8438   19.5768 H   0  0  0  0  0  0
  1 25  1  0  0  0
  1 30  2  0  0  0
  1 86  1  0  0  0
  2  3  1  0  0  0
  2 25  1  0  0  0
  2 87  1  0  0  0
  2 88  1  0  0  0
  3  4  1  0  0  0
  3 89  1  0  0  0
  3 90  1  0  0  0
  4  5  1  0  0  0
  4 91  1  0  0  0
  4 92  1  0  0  0
  5  6  1  0  0  0
  5 26  1  0  0  0
  5 93  1  0  0  0
  6 25  1  0  0  0
  6 94  1  0  0  0
  6 95  1  0  0  0
  7  8  2  0  0  0
  7 26  1  0  0  0
  7 29  1  0  0  0
  8  9  1  0  0  0
  8 22  1  0  0  0
  9 10  1  0  0  0
  9 27  2  0  0  0
 10 11  2  0  0  0
 10 15  1  0  0  0
 11 12  1  0  0  0
 11 96  1  0  0  0
 12 13  2  0  0  0
 12 97  1  0  0  0
 13 14  1  0  0  0
 13 31  1  0  0  0
 14 15  2  0  0  0
 14 98  1  0  0  0
 15 99  1  0  0  0
 16 17  2  0  0  0
 16 21  1  0  0  0
 16 31  1  0  0  0
 17 18  1  0  0  0
 17100  1  0  0  0
 18 19  2  0  0  0
 18101  1  0  0  0
 19 20  1  0  0  0
 19 24  1  0  0  0
 20 21  2  0  0  0
 20102  1  0  0  0
 21 23  1  0  0  0
 22 28  1  0  0  0
 22 32  2  0  0  0
 26 27  1  0  0  0
 28103  1  0  0  0
 28104  1  0  0  0
 29105  1  0  0  0
 29106  1  0  0  0
 33 34  1  0  0  0
 33 66  1  0  0  0
 33 70  2  0  0  0
 34 36  1  0  0  0
 34 59  1  0  0  0
 34107  1  0  0  0
 35 44  2  0  0  0
 35 45  1  0  0  0
 35 68  1  0  0  0
 36 56  1  0  0  0
 36108  1  0  0  0
 37 39  1  0  0  0
 37 47  1  0  0  0
 37 66  1  0  0  0
 37109  1  0  0  0
 38 43  2  0  0  0
 38 46  1  0  0  0
 38 47  1  0  0  0
 39 64  1  0  0  0
 39 67  2  0  0  0
 40 52  1  0  0  0
 40 53  2  0  0  0
 40 58  1  0  0  0
 41110  1  0  0  0
 41111  1  0  0  0
 41112  1  0  0  0
 41 48  1  0  0  0
 42 43  1  0  0  0
 42 66  1  0  0  0
 42113  1  0  0  0
 42114  1  0  0  0
 43 44  1  0  0  0
 44115  1  0  0  0
 45 46  2  0  0  0
 45116  1  0  0  0
 46117  1  0  0  0
 47118  1  0  0  0
 47119  1  0  0  0
 48 56  1  0  0  0
 48 65  1  0  0  0
 48120  1  0  0  0
 49 50  1  0  0  0
 49 53  1  0  0  0
 49 64  1  0  0  0
 49121  1  0  0  0
 50 51  1  0  0  0
 50122  1  0  0  0
 50123  1  0  0  0
 51 52  1  0  0  0
 51124  1  0  0  0
 51125  1  0  0  0
 52126  1  0  0  0
 52127  1  0  0  0
 53 54  1  0  0  0
 54 55  2  0  0  0
 54128  1  0  0  0
 55 57  1  0  0  0
 55129  1  0  0  0
 56 69  2  0  0  0
 57 58  2  0  0  0
 57130  1  0  0  0
 58131  1  0  0  0
 59 60  1  0  0  0
 59 61  1  0  0  0
 59 62  1  0  0  0
 60132  1  0  0  0
 60133  1  0  0  0
 60134  1  0  0  0
 61135  1  0  0  0
 61136  1  0  0  0
 61137  1  0  0  0
 62138  1  0  0  0
 62139  1  0  0  0
 62140  1  0  0  0
 63 65  1  0  0  0
 63141  1  0  0  0
 63142  1  0  0  0
 63143  1  0  0  0
 64144  1  0  0  0
 65145  1  0  0  0
 68 83  1  0  0  0
 71 72  2  0  0  0
 71 73  1  0  0  0
 71146  1  0  0  0
 72 74  1  0  0  0
 72 78  1  0  0  0
 73 79  1  0  0  0
 73 84  2  0  0  0
 74 80  1  0  0  0
 74 85  2  0  0  0
 75 80  1  0  0  0
 75147  1  0  0  0
 75148  1  0  0  0
 75149  1  0  0  0
 76150  1  0  0  0
 76151  1  0  0  0
 76152  1  0  0  0
 76 83  1  0  0  0
 77 86  1  0  0  0
 77153  1  0  0  0
 77154  1  0  0  0
 77155  1  0  0  0
 78 81  1  0  0  0
 78156  1  0  0  0
 78157  1  0  0  0
 79 83  1  0  0  0
 79158  1  0  0  0
 79159  1  0  0  0
 80160  1  0  0  0
 80161  1  0  0  0
 81 82  1  0  0  0
 81162  1  0  0  0
 81163  1  0  0  0
 82 86  1  0  0  0
 82164  1  0  0  0
 82165  1  0  0  0
 83166  1  0  0  0
 84 85  1  0  0  0
M  ISO  4   1 100  68 101  83 101  86 100
M  END
> <chiral flag>
0

> <version>
0

> <s_m_source_file>
/data/baiqing/PycharmProjects/Reinvent-master-3.2/result/LINK_invent/BTK/process_docking_weight1_custom_sum_contain_oxygen_bond_distance_aromatic_linkinvent_7_9_3/rearranged_h_0074.sdf

> <i_m_source_file_index>
13

> <r_mmod_Potential_Energy-OPLS-2005>
383.3837890625

> <r_mmod_Stretch_Energy-OPLS-2005>
57.0545616149902

> <r_mmod_Bend_Energy-OPLS-2005>
350.794281005859

> <r_mmod_Torsional_Energy-OPLS-2005>
258.508453369141

> <r_mmod_Improper_Torsional_Energy-OPLS-2005>
8.27164554595947

> <r_mmod_Van_der_Waal_Energy-OPLS-2005>
178.642623901367

> <r_mmod_Electrostatic_Energy-OPLS-2005>
-271.033843994141

> <r_mmod_Solvation_Energy-OPLS-2005>
-215.596755981445

> <b_mmod_Minimization_Converged-OPLS-2005>
0

> <r_mmod_RMS_Derivative-OPLS-2005>
3.36559748649597

$$$$
13
                    3D
 Structure written by MMmdl.
173181  0  0  1  0            999 V2000
  -30.7105  -14.6319   20.2718 C   0  0  0  0  0  0
  -30.4219  -12.3359   19.4648 C   0  0  0  0  0  0
  -29.5032  -12.3214   18.2298 C   0  0  0  0  0  0
  -28.0109  -12.2919   18.6373 C   0  0  0  0  0  0
  -27.6302  -13.2105   19.8395 C   0  0  2  0  0  0
  -28.7019  -13.2013   20.9441 C   0  0  0  0  0  0
  -25.2514  -13.8123   20.5787 C   0  0  0  0  0  0
  -24.1795  -13.0394   20.9323 C   0  0  0  0  0  0
  -24.6368  -11.6879   20.8843 C   0  0  0  0  0  0
  -23.9037  -10.4273   21.0452 C   0  0  0  0  0  0
  -24.3603   -9.4182   21.9210 C   0  0  0  0  0  0
  -23.6287   -8.2208   22.0767 C   0  0  0  0  0  0
  -22.4270   -8.0266   21.3550 C   0  0  0  0  0  0
  -21.9907   -9.0238   20.4656 C   0  0  0  0  0  0
  -22.7224  -10.2123   20.3079 C   0  0  0  0  0  0
  -21.6835   -6.0722   22.5276 C   0  0  0  0  0  0
  -21.3989   -6.5627   23.8202 C   0  0  0  0  0  0
  -21.3673   -5.6792   24.9180 C   0  0  0  0  0  0
  -21.6058   -4.3047   24.7232 C   0  0  0  0  0  0
  -21.8816   -3.8139   23.4346 C   0  0  0  0  0  0
  -21.9181   -4.6953   22.3407 C   0  0  0  0  0  0
  -22.7805  -13.5193   21.1914 C   0  0  0  0  0  0
  -22.1656   -4.2144   21.0980 F   0  0  0  0  0  0
  -21.5663   -3.4532   25.7742 F   0  0  0  0  0  0
  -30.0057  -13.4597   20.3175 N   0  0  0  0  0  0
  -26.2916  -12.9275   20.3386 N   0  0  0  0  0  0
  -25.9289  -11.6450   20.5884 N   0  0  0  0  0  0
  -22.0408  -12.8217   22.0465 N   0  0  0  0  0  0
  -25.4143  -15.1843   20.4070 N   0  0  0  0  0  0
  -31.9326  -14.5953   20.4009 O   0  0  0  0  0  0
  -21.6637   -6.8865   21.4234 O   0  0  0  0  0  0
  -22.3508  -14.5475   20.6718 O   0  0  0  0  0  0
  -24.6185  -31.8662   23.2101 C   0  0  0  0  0  0
  -25.9069  -32.4806   23.8393 C   0  0  1  0  0  0
  -27.2242  -27.3910   20.1013 C   0  0  0  0  0  0
  -25.5918  -33.8618   24.2335 N   0  0  0  0  0  0
  -23.4074  -30.4934   21.5499 C   0  0  2  0  0  0
  -24.8481  -28.9538   20.1187 C   0  0  0  0  0  0
  -22.7429  -29.4664   22.4964 C   0  0  0  0  0  0
  -18.0281  -28.1386   22.8469 C   0  0  0  0  0  0
  -24.1486  -36.7314   23.2642 C   0  0  0  0  0  0
  -25.9394  -30.8213   21.3651 C   0  0  0  0  0  0
  -26.0134  -29.4521   20.7121 C   0  0  0  0  0  0
  -27.2013  -28.6814   20.6938 C   0  0  0  0  0  0
  -26.0266  -26.9109   19.5185 C   0  0  0  0  0  0
  -24.8514  -27.6835   19.5229 C   0  0  0  0  0  0
  -23.6186  -29.8305   20.1635 C   0  0  0  0  0  0
  -25.4101  -36.3114   24.0344 C   0  0  1  0  0  0
  -20.5868  -28.3685   23.1292 C   0  0  2  0  0  0
  -20.6772  -26.9419   22.5417 C   0  0  0  0  0  0
  -19.5771  -26.6384   21.5206 C   0  0  0  0  0  0
  -18.1942  -26.7928   22.1604 C   0  0  0  0  0  0
  -19.1529  -28.8851   23.2877 C   0  0  0  0  0  0
  -18.9458  -30.1442   23.8909 C   0  0  0  0  0  0
  -17.6468  -30.6586   24.0563 C   0  0  0  0  0  0
  -25.9033  -34.9474   23.5132 C   0  0  0  0  0  0
  -16.5357  -29.9097   23.6316 C   0  0  0  0  0  0
  -16.7272  -28.6512   23.0337 C   0  0  0  0  0  0
  -26.4497  -31.6583   25.0725 C   0  0  0  0  0  0
  -25.3775  -31.3671   26.1481 C   0  0  0  0  0  0
  -27.0331  -30.3028   24.6100 C   0  0  0  0  0  0
  -27.6073  -32.4298   25.7488 C   0  0  0  0  0  0
  -27.5576  -37.1815   24.8472 C   0  0  0  0  0  0
  -21.4157  -29.3062   22.3707 N   0  0  0  0  0  0
  -26.4286  -37.3792   23.9422 N   0  0  0  0  0  0
  -24.6740  -31.0754   22.1002 N   0  0  0  0  0  0
  -23.4191  -28.8199   23.3005 O   0  0  0  0  0  0
  -28.4125  -26.6710   20.1202 O   0  0  0  0  0  0
  -26.5595  -34.8919   22.4694 O   0  0  0  0  0  0
  -23.5378  -32.1435   23.7475 O   0  0  0  0  0  0
  -28.8434  -17.7589   20.8083 C   0  0  0  0  0  0
  -28.9797  -19.1325   20.9315 C   0  0  0  0  0  0
  -30.9171  -18.2554   20.2324 C   0  0  0  0  0  0
  -32.3371  -18.2267   19.7556 C   0  0  0  0  0  0
  -28.3625  -16.9054   17.8595 C   0  0  0  0  0  0
  -30.3529  -15.6969   16.9235 C   0  0  0  0  0  0
  -26.9566  -20.1879   20.0124 C   0  0  0  0  0  0
  -27.1506  -19.7636   22.4598 C   0  0  0  0  0  0
  -28.2984  -22.7777   20.3732 C   0  0  0  0  0  0
  -28.5302  -24.2494   20.8346 C   0  0  0  0  0  0
  -28.4976  -21.6730   21.4697 C   0  0  0  0  0  0
  -28.4803  -25.2935   19.6800 C   0  0  0  0  0  0
  -30.2031  -15.9456   19.5208 C   0  0  1  0  0  0
  -29.4222  -15.8249   18.1529 C   0  0  0  0  0  0
  -27.9329  -20.2112   21.2088 C   0  0  0  0  0  0
  -30.0010  -17.2583   20.2434 N   0  0  0  0  0  0
  -30.2892  -19.3777   20.6125 N   0  3  0  0  0  0
  -31.4657  -12.4124   19.1537 H   0  0  0  0  0  0
  -30.3440  -11.3989   20.0186 H   0  0  0  0  0  0
  -29.7239  -11.4326   17.6380 H   0  0  0  0  0  0
  -29.7366  -13.1399   17.5593 H   0  0  0  0  0  0
  -27.7931  -11.2561   18.9000 H   0  0  0  0  0  0
  -27.3797  -12.5157   17.7774 H   0  0  0  0  0  0
  -27.5697  -14.2268   19.4800 H   0  0  0  0  0  0
  -28.7112  -12.2430   21.4676 H   0  0  0  0  0  0
  -28.4819  -13.9609   21.6964 H   0  0  0  0  0  0
  -25.2748   -9.5656   22.4773 H   0  0  0  0  0  0
  -23.9996   -7.4594   22.7479 H   0  0  0  0  0  0
  -21.0843   -8.8755   19.8951 H   0  0  0  0  0  0
  -22.3697  -10.9667   19.6184 H   0  0  0  0  0  0
  -21.1959   -7.6131   23.9693 H   0  0  0  0  0  0
  -21.1505   -6.0533   25.9077 H   0  0  0  0  0  0
  -22.0584   -2.7605   23.2852 H   0  0  0  0  0  0
  -22.3979  -11.9917   22.4942 H   0  0  0  0  0  0
  -21.0972  -13.1187   22.2517 H   0  0  0  0  0  0
  -24.6224  -15.8153   20.4821 H   0  0  0  0  0  0
  -26.1934  -15.5818   19.9010 H   0  0  0  0  0  0
  -26.7128  -32.5512   23.1148 H   0  0  0  0  0  0
  -25.0087  -33.9773   25.0496 H   0  0  0  0  0  0
  -22.6980  -31.3112   21.4111 H   0  0  0  0  0  0
  -23.3739  -35.9653   23.3314 H   0  0  0  0  0  0
  -24.3581  -36.8922   22.2054 H   0  0  0  0  0  0
  -23.7243  -37.6523   23.6643 H   0  0  0  0  0  0
  -26.0565  -31.5825   20.5928 H   0  0  0  0  0  0
  -26.8276  -30.8755   21.9840 H   0  0  0  0  0  0
  -28.1034  -29.0662   21.1489 H   0  0  0  0  0  0
  -25.9461  -25.9402   19.0569 H   0  0  0  0  0  0
  -23.9490  -27.2910   19.0743 H   0  0  0  0  0  0
  -23.7454  -30.6084   19.4103 H   0  0  0  0  0  0
  -22.7363  -29.2660   19.8559 H   0  0  0  0  0  0
  -25.1275  -36.1968   25.0832 H   0  0  0  0  0  0
  -20.9961  -28.3269   24.1415 H   0  0  0  0  0  0
  -20.5660  -26.2322   23.3625 H   0  0  0  0  0  0
  -21.6646  -26.7458   22.1231 H   0  0  0  0  0  0
  -19.6951  -25.6299   21.1243 H   0  0  0  0  0  0
  -19.6699  -27.3178   20.6724 H   0  0  0  0  0  0
  -17.4213  -26.6654   21.4002 H   0  0  0  0  0  0
  -18.0339  -26.0074   22.9005 H   0  0  0  0  0  0
  -19.7934  -30.7240   24.2303 H   0  0  0  0  0  0
  -17.5027  -31.6265   24.5175 H   0  0  0  0  0  0
  -15.5361  -30.3016   23.7632 H   0  0  0  0  0  0
  -15.8659  -28.0842   22.7055 H   0  0  0  0  0  0
  -24.5951  -30.7019   25.7820 H   0  0  0  0  0  0
  -24.8970  -32.2817   26.4962 H   0  0  0  0  0  0
  -25.8148  -30.8823   27.0220 H   0  0  0  0  0  0
  -26.2865  -29.6764   24.1209 H   0  0  0  0  0  0
  -27.4172  -29.7284   25.4539 H   0  0  0  0  0  0
  -27.8668  -30.4356   23.9201 H   0  0  0  0  0  0
  -27.2701  -33.3588   26.2098 H   0  0  0  0  0  0
  -28.3865  -32.6881   25.0303 H   0  0  0  0  0  0
  -28.0766  -31.8409   26.5380 H   0  0  0  0  0  0
  -28.2605  -38.0104   24.7510 H   0  0  0  0  0  0
  -28.1063  -36.2639   24.6296 H   0  0  0  0  0  0
  -27.2311  -37.1467   25.8882 H   0  0  0  0  0  0
  -20.9337  -29.8842   21.6961 H   0  0  0  0  0  0
  -26.0177  -38.2869   24.1416 H   0  0  0  0  0  0
  -27.9600  -17.1504   20.9377 H   0  0  0  0  0  0
  -32.8180  -17.3136   20.1067 H   0  0  0  0  0  0
  -32.8650  -19.0887   20.1654 H   0  0  0  0  0  0
  -32.3435  -18.2658   18.6664 H   0  0  0  0  0  0
  -27.8884  -16.7289   16.8930 H   0  0  0  0  0  0
  -28.7933  -17.9071   17.8257 H   0  0  0  0  0  0
  -27.5622  -16.8955   18.5977 H   0  0  0  0  0  0
  -29.8175  -15.2752   16.0719 H   0  0  0  0  0  0
  -31.2066  -15.0461   17.1186 H   0  0  0  0  0  0
  -30.7392  -16.6686   16.6125 H   0  0  0  0  0  0
  -26.5609  -19.1888   19.8305 H   0  0  0  0  0  0
  -27.4443  -20.5041   19.0903 H   0  0  0  0  0  0
  -26.0974  -20.8365   20.1793 H   0  0  0  0  0  0
  -26.6734  -18.7935   22.3154 H   0  0  0  0  0  0
  -26.3573  -20.4681   22.7082 H   0  0  0  0  0  0
  -27.8048  -19.6821   23.3290 H   0  0  0  0  0  0
  -28.9398  -22.5521   19.5193 H   0  0  0  0  0  0
  -27.2745  -22.7509   20.0025 H   0  0  0  0  0  0
  -29.4978  -24.3289   21.3312 H   0  0  0  0  0  0
  -27.7829  -24.5059   21.5867 H   0  0  0  0  0  0
  -27.9953  -22.0629   22.3548 H   0  0  0  0  0  0
  -29.5437  -21.6436   21.7753 H   0  0  0  0  0  0
  -27.7285  -25.0204   18.9453 H   0  0  0  0  0  0
  -29.4106  -25.1997   19.1209 H   0  0  0  0  0  0
  -31.1626  -16.1645   19.0639 H   0  0  0  0  0  0
  -28.8666  -14.9081   18.1517 H   0  0  0  0  0  0
  -30.7185  -20.2960   20.5993 H   0  0  0  0  0  0
  1 25  1  0  0  0
  1 30  2  0  0  0
  1 83  1  0  0  0
  2  3  1  0  0  0
  2 25  1  0  0  0
  2 88  1  0  0  0
  2 89  1  0  0  0
  3  4  1  0  0  0
  3 90  1  0  0  0
  3 91  1  0  0  0
  4  5  1  0  0  0
  4 92  1  0  0  0
  4 93  1  0  0  0
  5  6  1  0  0  0
  5 26  1  0  0  0
  5 94  1  0  0  0
  6 25  1  0  0  0
  6 95  1  0  0  0
  6 96  1  0  0  0
  7  8  2  0  0  0
  7 26  1  0  0  0
  7 29  1  0  0  0
  8  9  1  0  0  0
  8 22  1  0  0  0
  9 10  1  0  0  0
  9 27  2  0  0  0
 10 11  2  0  0  0
 10 15  1  0  0  0
 11 12  1  0  0  0
 11 97  1  0  0  0
 12 13  2  0  0  0
 12 98  1  0  0  0
 13 14  1  0  0  0
 13 31  1  0  0  0
 14 15  2  0  0  0
 14 99  1  0  0  0
 15100  1  0  0  0
 16 17  2  0  0  0
 16 21  1  0  0  0
 16 31  1  0  0  0
 17 18  1  0  0  0
 17101  1  0  0  0
 18 19  2  0  0  0
 18102  1  0  0  0
 19 20  1  0  0  0
 19 24  1  0  0  0
 20 21  2  0  0  0
 20103  1  0  0  0
 21 23  1  0  0  0
 22 28  1  0  0  0
 22 32  2  0  0  0
 26 27  1  0  0  0
 28104  1  0  0  0
 28105  1  0  0  0
 29106  1  0  0  0
 29107  1  0  0  0
 33 34  1  0  0  0
 33 66  1  0  0  0
 33 70  2  0  0  0
 34 36  1  0  0  0
 34 59  1  0  0  0
 34108  1  0  0  0
 35 44  2  0  0  0
 35 45  1  0  0  0
 35 68  1  0  0  0
 36 56  1  0  0  0
 36109  1  0  0  0
 37 39  1  0  0  0
 37 47  1  0  0  0
 37 66  1  0  0  0
 37110  1  0  0  0
 38 43  2  0  0  0
 38 46  1  0  0  0
 38 47  1  0  0  0
 39 64  1  0  0  0
 39 67  2  0  0  0
 40 52  1  0  0  0
 40 53  2  0  0  0
 40 58  1  0  0  0
 41111  1  0  0  0
 41112  1  0  0  0
 41113  1  0  0  0
 41 48  1  0  0  0
 42 43  1  0  0  0
 42 66  1  0  0  0
 42114  1  0  0  0
 42115  1  0  0  0
 43 44  1  0  0  0
 44116  1  0  0  0
 45 46  2  0  0  0
 45117  1  0  0  0
 46118  1  0  0  0
 47119  1  0  0  0
 47120  1  0  0  0
 48 56  1  0  0  0
 48 65  1  0  0  0
 48121  1  0  0  0
 49 50  1  0  0  0
 49 53  1  0  0  0
 49 64  1  0  0  0
 49122  1  0  0  0
 50 51  1  0  0  0
 50123  1  0  0  0
 50124  1  0  0  0
 51 52  1  0  0  0
 51125  1  0  0  0
 51126  1  0  0  0
 52127  1  0  0  0
 52128  1  0  0  0
 53 54  1  0  0  0
 54 55  2  0  0  0
 54129  1  0  0  0
 55 57  1  0  0  0
 55130  1  0  0  0
 56 69  2  0  0  0
 57 58  2  0  0  0
 57131  1  0  0  0
 58132  1  0  0  0
 59 60  1  0  0  0
 59 61  1  0  0  0
 59 62  1  0  0  0
 60133  1  0  0  0
 60134  1  0  0  0
 60135  1  0  0  0
 61136  1  0  0  0
 61137  1  0  0  0
 61138  1  0  0  0
 62139  1  0  0  0
 62140  1  0  0  0
 62141  1  0  0  0
 63 65  1  0  0  0
 63142  1  0  0  0
 63143  1  0  0  0
 63144  1  0  0  0
 64145  1  0  0  0
 65146  1  0  0  0
 68 82  1  0  0  0
 71 72  2  0  0  0
 71 86  1  0  0  0
 71147  1  0  0  0
 72 85  1  0  0  0
 72 87  1  0  0  0
 73 74  1  0  0  0
 73 86  1  0  0  0
 73 87  2  0  0  0
 74148  1  0  0  0
 74149  1  0  0  0
 74150  1  0  0  0
 75151  1  0  0  0
 75152  1  0  0  0
 75153  1  0  0  0
 75 84  1  0  0  0
 76 84  1  0  0  0
 76154  1  0  0  0
 76155  1  0  0  0
 76156  1  0  0  0
 77157  1  0  0  0
 77158  1  0  0  0
 77159  1  0  0  0
 77 85  1  0  0  0
 78 85  1  0  0  0
 78160  1  0  0  0
 78161  1  0  0  0
 78162  1  0  0  0
 79 80  1  0  0  0
 79 81  1  0  0  0
 79163  1  0  0  0
 79164  1  0  0  0
 80 82  1  0  0  0
 80165  1  0  0  0
 80166  1  0  0  0
 81 85  1  0  0  0
 81167  1  0  0  0
 81168  1  0  0  0
 82169  1  0  0  0
 82170  1  0  0  0
 83 84  1  0  0  0
 83 86  1  0  0  0
 83171  1  0  0  0
 84172  1  0  0  0
 87173  1  0  0  0
M  CHG  1  87   1
M  ISO  4   1 100  68 101  82 101  83 100
M  END
> <chiral flag>
0

> <version>
0

> <s_m_source_file>
/data/baiqing/PycharmProjects/Reinvent-master-3.2/result/LINK_invent/BTK/process_docking_weight1_custom_sum_contain_oxygen_bond_distance_aromatic_linkinvent_7_9_3/rearranged_h_0074.sdf

> <i_m_source_file_index>
14

> <r_mmod_Potential_Energy-OPLS-2005>
232.91276550293

> <r_mmod_Stretch_Energy-OPLS-2005>
61.0464820861816

> <r_mmod_Bend_Energy-OPLS-2005>
190.238967895508

> <r_mmod_Torsional_Energy-OPLS-2005>
294.583312988281

> <r_mmod_Improper_Torsional_Energy-OPLS-2005>
19.5578479766846

> <r_mmod_Van_der_Waal_Energy-OPLS-2005>
142.304306030273

> <r_mmod_Electrostatic_Energy-OPLS-2005>
-167.252685546875

> <r_mmod_Solvation_Energy-OPLS-2005>
-379.403198242188

> <b_mmod_Minimization_Converged-OPLS-2005>
0

> <r_mmod_RMS_Derivative-OPLS-2005>
3.05754399299622

$$$$
14
                    3D
 Structure written by MMmdl.
166174  0  0  1  0            999 V2000
  -30.6065  -14.7403   20.3693 C   0  0  0  0  0  0
  -30.4362  -12.4065   19.5056 C   0  0  0  0  0  0
  -29.5057  -12.3093   18.2738 C   0  0  0  0  0  0
  -28.0185  -12.2522   18.6667 C   0  0  0  0  0  0
  -27.6292  -13.2022   19.8342 C   0  0  2  0  0  0
  -28.6740  -13.1935   20.9669 C   0  0  0  0  0  0
  -25.2511  -13.8136   20.5708 C   0  0  0  0  0  0
  -24.1791  -13.0382   20.9245 C   0  0  0  0  0  0
  -24.6347  -11.6868   20.8797 C   0  0  0  0  0  0
  -23.9016  -10.4267   21.0430 C   0  0  0  0  0  0
  -24.3588   -9.4200   21.9202 C   0  0  0  0  0  0
  -23.6306   -8.2216   22.0761 C   0  0  0  0  0  0
  -22.4300   -8.0244   21.3515 C   0  0  0  0  0  0
  -21.9897   -9.0202   20.4626 C   0  0  0  0  0  0
  -22.7199  -10.2097   20.3061 C   0  0  0  0  0  0
  -21.6846   -6.0781   22.5328 C   0  0  0  0  0  0
  -21.4049   -6.5693   23.8261 C   0  0  0  0  0  0
  -21.3638   -5.6831   24.9212 C   0  0  0  0  0  0
  -21.6029   -4.3095   24.7262 C   0  0  0  0  0  0
  -21.8810   -3.8201   23.4378 C   0  0  0  0  0  0
  -21.9183   -4.7013   22.3438 C   0  0  0  0  0  0
  -22.7833  -13.5172   21.1895 C   0  0  0  0  0  0
  -22.1633   -4.2198   21.1004 F   0  0  0  0  0  0
  -21.5575   -3.4561   25.7759 F   0  0  0  0  0  0
  -29.9809  -13.5111   20.3816 N   0  0  0  0  0  0
  -26.2872  -12.9259   20.3277 N   0  0  0  0  0  0
  -25.9253  -11.6439   20.5831 N   0  0  0  0  0  0
  -22.0476  -12.8157   22.0467 N   0  0  0  0  0  0
  -25.4244  -15.1844   20.4150 N   0  0  0  0  0  0
  -31.8248  -14.7691   20.1784 O   0  0  0  0  0  0
  -21.6623   -6.8887   21.4272 O   0  0  0  0  0  0
  -22.3514  -14.5451   20.6732 O   0  0  0  0  0  0
  -24.6296  -31.8589   23.2041 C   0  0  0  0  0  0
  -25.9136  -32.4775   23.8389 C   0  0  1  0  0  0
  -27.2123  -27.2951   20.1300 C   0  0  0  0  0  0
  -25.5930  -33.8575   24.2290 N   0  0  0  0  0  0
  -23.4259  -30.4851   21.5453 C   0  0  2  0  0  0
  -24.8713  -28.9474   20.1069 C   0  0  0  0  0  0
  -22.7514  -29.4625   22.4916 C   0  0  0  0  0  0
  -18.0305  -28.1377   22.8487 C   0  0  0  0  0  0
  -24.1485  -36.7281   23.2641 C   0  0  0  0  0  0
  -25.9733  -30.7830   21.3850 C   0  0  0  0  0  0
  -26.0437  -29.4143   20.7152 C   0  0  0  0  0  0
  -27.2204  -28.6030   20.7114 C   0  0  0  0  0  0
  -26.0193  -26.8977   19.4806 C   0  0  0  0  0  0
  -24.8644  -27.6980   19.4737 C   0  0  0  0  0  0
  -23.6400  -29.8268   20.1596 C   0  0  0  0  0  0
  -25.4115  -36.3080   24.0329 C   0  0  1  0  0  0
  -20.5905  -28.3700   23.1255 C   0  0  2  0  0  0
  -20.6780  -26.9409   22.5395 C   0  0  0  0  0  0
  -19.5750  -26.6379   21.5208 C   0  0  0  0  0  0
  -18.1937  -26.7921   22.1621 C   0  0  0  0  0  0
  -19.1551  -28.8847   23.2868 C   0  0  0  0  0  0
  -18.9474  -30.1450   23.8881 C   0  0  0  0  0  0
  -17.6468  -30.6576   24.0555 C   0  0  0  0  0  0
  -25.9053  -34.9443   23.5116 C   0  0  0  0  0  0
  -16.5358  -29.9072   23.6323 C   0  0  0  0  0  0
  -16.7292  -28.6487   23.0356 C   0  0  0  0  0  0
  -26.4492  -31.6599   25.0772 C   0  0  0  0  0  0
  -25.3702  -31.3745   26.1473 C   0  0  0  0  0  0
  -27.0341  -30.3002   24.6300 C   0  0  0  0  0  0
  -27.6023  -32.4353   25.7554 C   0  0  0  0  0  0
  -27.5582  -37.1795   24.8462 C   0  0  0  0  0  0
  -21.4225  -29.3051   22.3652 N   0  0  0  0  0  0
  -26.4295  -37.3773   23.9411 N   0  0  0  0  0  0
  -24.6947  -31.0590   22.1000 N   0  0  0  0  0  0
  -23.4222  -28.8157   23.2999 O   0  0  0  0  0  0
  -28.2934  -26.3953   20.2203 O   0  0  0  0  0  0
  -26.5630  -34.8906   22.4689 O   0  0  0  0  0  0
  -23.5440  -32.1384   23.7347 O   0  0  0  0  0  0
  -28.7432  -19.7421   21.2347 C   0  0  0  0  0  0
  -30.4501  -20.9198   20.6371 C   0  0  0  0  0  0
  -29.8266  -18.8559   21.1199 C   0  0  0  0  0  0
  -31.3086  -17.0887   22.1961 C   0  0  0  0  0  0
  -29.6427  -15.6578   17.6720 C   0  0  0  0  0  0
  -31.1623  -17.3982   18.3566 C   0  0  0  0  0  0
  -28.6559  -17.7413   18.5360 C   0  0  0  0  0  0
  -28.9728  -23.7705   20.6225 C   0  0  0  0  0  0
  -28.3109  -22.3242   20.8444 C   0  0  0  0  0  0
  -27.9403  -24.9477   20.2962 C   0  0  0  0  0  0
  -30.0032  -17.2988   21.3967 C   0  0  2  0  0  0
  -29.8086  -16.1532   20.2419 C   0  0  1  0  0  0
  -29.8232  -16.7383   18.7541 C   0  0  0  0  0  0
  -30.9100  -19.6711   20.7583 N   0  0  0  0  0  0
  -29.1480  -21.0697   20.9099 N   0  0  0  0  0  0
  -31.4645  -12.5403   19.1681 H   0  0  0  0  0  0
  -30.4277  -11.4686   20.0657 H   0  0  0  0  0  0
  -29.7614  -11.4032   17.7202 H   0  0  0  0  0  0
  -29.6813  -13.1031   17.5632 H   0  0  0  0  0  0
  -27.8117  -11.2171   18.9491 H   0  0  0  0  0  0
  -27.3919  -12.4402   17.7934 H   0  0  0  0  0  0
  -27.5936  -14.2045   19.4216 H   0  0  0  0  0  0
  -28.6950  -12.2223   21.4643 H   0  0  0  0  0  0
  -28.4060  -13.9268   21.7299 H   0  0  0  0  0  0
  -25.2721   -9.5692   22.4783 H   0  0  0  0  0  0
  -24.0034   -7.4621   22.7485 H   0  0  0  0  0  0
  -21.0827   -8.8680   19.8938 H   0  0  0  0  0  0
  -22.3629  -10.9623   19.6181 H   0  0  0  0  0  0
  -21.2102   -7.6213   23.9780 H   0  0  0  0  0  0
  -21.1437   -6.0574   25.9096 H   0  0  0  0  0  0
  -22.0607   -2.7665   23.2881 H   0  0  0  0  0  0
  -22.4069  -11.9826   22.4892 H   0  0  0  0  0  0
  -21.1080  -13.1177   22.2590 H   0  0  0  0  0  0
  -24.6665  -15.8421   20.5713 H   0  0  0  0  0  0
  -26.2813  -15.6292   20.1108 H   0  0  0  0  0  0
  -26.7212  -32.5424   23.1142 H   0  0  0  0  0  0
  -25.0071  -33.9736   25.0436 H   0  0  0  0  0  0
  -22.7217  -31.3083   21.4035 H   0  0  0  0  0  0
  -23.3755  -35.9603   23.3289 H   0  0  0  0  0  0
  -24.3572  -36.8920   22.2056 H   0  0  0  0  0  0
  -23.7219  -37.6471   23.6673 H   0  0  0  0  0  0
  -26.1278  -31.5562   20.6304 H   0  0  0  0  0  0
  -26.8444  -30.8122   22.0301 H   0  0  0  0  0  0
  -28.1193  -28.9529   21.1985 H   0  0  0  0  0  0
  -25.9392  -25.9467   18.9780 H   0  0  0  0  0  0
  -23.9689  -27.3420   18.9834 H   0  0  0  0  0  0
  -23.7579  -30.6061   19.4059 H   0  0  0  0  0  0
  -22.7601  -29.2557   19.8575 H   0  0  0  0  0  0
  -25.1292  -36.1946   25.0820 H   0  0  0  0  0  0
  -21.0006  -28.3265   24.1376 H   0  0  0  0  0  0
  -20.5698  -26.2298   23.3614 H   0  0  0  0  0  0
  -21.6644  -26.7421   22.1182 H   0  0  0  0  0  0
  -19.6914  -25.6293   21.1246 H   0  0  0  0  0  0
  -19.6698  -27.3190   20.6747 H   0  0  0  0  0  0
  -17.4212  -26.6682   21.4021 H   0  0  0  0  0  0
  -18.0324  -26.0063   22.9013 H   0  0  0  0  0  0
  -19.7936  -30.7277   24.2251 H   0  0  0  0  0  0
  -17.5008  -31.6258   24.5157 H   0  0  0  0  0  0
  -15.5350  -30.2966   23.7653 H   0  0  0  0  0  0
  -15.8695  -28.0809   22.7066 H   0  0  0  0  0  0
  -24.5897  -30.7077   25.7798 H   0  0  0  0  0  0
  -24.8869  -32.2899   26.4874 H   0  0  0  0  0  0
  -25.8004  -30.8944   27.0268 H   0  0  0  0  0  0
  -26.2942  -29.6754   24.1270 H   0  0  0  0  0  0
  -27.3917  -29.7276   25.4874 H   0  0  0  0  0  0
  -27.8871  -30.4250   23.9625 H   0  0  0  0  0  0
  -27.2603  -33.3652   26.2112 H   0  0  0  0  0  0
  -28.3834  -32.6923   25.0390 H   0  0  0  0  0  0
  -28.0678  -31.8495   26.5489 H   0  0  0  0  0  0
  -28.2579  -38.0111   24.7526 H   0  0  0  0  0  0
  -28.1101  -36.2635   24.6273 H   0  0  0  0  0  0
  -27.2293  -37.1422   25.8863 H   0  0  0  0  0  0
  -20.9421  -29.8765   21.6849 H   0  0  0  0  0  0
  -26.0172  -38.2850   24.1417 H   0  0  0  0  0  0
  -27.7181  -19.5331   21.5122 H   0  0  0  0  0  0
  -31.0824  -21.7467   20.3466 H   0  0  0  0  0  0
  -31.4297  -17.8272   22.9877 H   0  0  0  0  0  0
  -32.1754  -17.1658   21.5383 H   0  0  0  0  0  0
  -31.3394  -16.1108   22.6760 H   0  0  0  0  0  0
  -29.5459  -16.0826   16.6717 H   0  0  0  0  0  0
  -28.7596  -15.0525   17.8415 H   0  0  0  0  0  0
  -30.5213  -15.0142   17.6319 H   0  0  0  0  0  0
  -31.0430  -18.0284   17.4746 H   0  0  0  0  0  0
  -31.9366  -16.6712   18.1238 H   0  0  0  0  0  0
  -31.5783  -18.0173   19.1365 H   0  0  0  0  0  0
  -28.1839  -17.6383   17.5582 H   0  0  0  0  0  0
  -28.9939  -18.7767   18.5870 H   0  0  0  0  0  0
  -27.8566  -17.6143   19.2681 H   0  0  0  0  0  0
  -29.6771  -23.7063   19.7929 H   0  0  0  0  0  0
  -29.5607  -24.0329   21.5028 H   0  0  0  0  0  0
  -27.5909  -22.1631   20.0402 H   0  0  0  0  0  0
  -27.7191  -22.3518   21.7619 H   0  0  0  0  0  0
  -27.1382  -24.8594   21.0313 H   0  0  0  0  0  0
  -27.5138  -24.6567   19.3372 H   0  0  0  0  0  0
  -29.2232  -17.0653   22.1226 H   0  0  0  0  0  0
  -28.7729  -15.8531   20.3804 H   0  0  0  0  0  0
  1 25  1  0  0  0
  1 30  2  0  0  0
  1 82  1  0  0  0
  2  3  1  0  0  0
  2 25  1  0  0  0
  2 86  1  0  0  0
  2 87  1  0  0  0
  3  4  1  0  0  0
  3 88  1  0  0  0
  3 89  1  0  0  0
  4  5  1  0  0  0
  4 90  1  0  0  0
  4 91  1  0  0  0
  5  6  1  0  0  0
  5 26  1  0  0  0
  5 92  1  0  0  0
  6 25  1  0  0  0
  6 93  1  0  0  0
  6 94  1  0  0  0
  7  8  2  0  0  0
  7 26  1  0  0  0
  7 29  1  0  0  0
  8  9  1  0  0  0
  8 22  1  0  0  0
  9 10  1  0  0  0
  9 27  2  0  0  0
 10 11  2  0  0  0
 10 15  1  0  0  0
 11 12  1  0  0  0
 11 95  1  0  0  0
 12 13  2  0  0  0
 12 96  1  0  0  0
 13 14  1  0  0  0
 13 31  1  0  0  0
 14 15  2  0  0  0
 14 97  1  0  0  0
 15 98  1  0  0  0
 16 17  2  0  0  0
 16 21  1  0  0  0
 16 31  1  0  0  0
 17 18  1  0  0  0
 17 99  1  0  0  0
 18 19  2  0  0  0
 18100  1  0  0  0
 19 20  1  0  0  0
 19 24  1  0  0  0
 20 21  2  0  0  0
 20101  1  0  0  0
 21 23  1  0  0  0
 22 28  1  0  0  0
 22 32  2  0  0  0
 26 27  1  0  0  0
 28102  1  0  0  0
 28103  1  0  0  0
 29104  1  0  0  0
 29105  1  0  0  0
 33 34  1  0  0  0
 33 66  1  0  0  0
 33 70  2  0  0  0
 34 36  1  0  0  0
 34 59  1  0  0  0
 34106  1  0  0  0
 35 44  2  0  0  0
 35 45  1  0  0  0
 35 68  1  0  0  0
 36 56  1  0  0  0
 36107  1  0  0  0
 37 39  1  0  0  0
 37 47  1  0  0  0
 37 66  1  0  0  0
 37108  1  0  0  0
 38 43  2  0  0  0
 38 46  1  0  0  0
 38 47  1  0  0  0
 39 64  1  0  0  0
 39 67  2  0  0  0
 40 52  1  0  0  0
 40 53  2  0  0  0
 40 58  1  0  0  0
 41109  1  0  0  0
 41110  1  0  0  0
 41111  1  0  0  0
 41 48  1  0  0  0
 42 43  1  0  0  0
 42 66  1  0  0  0
 42112  1  0  0  0
 42113  1  0  0  0
 43 44  1  0  0  0
 44114  1  0  0  0
 45 46  2  0  0  0
 45115  1  0  0  0
 46116  1  0  0  0
 47117  1  0  0  0
 47118  1  0  0  0
 48 56  1  0  0  0
 48 65  1  0  0  0
 48119  1  0  0  0
 49 50  1  0  0  0
 49 53  1  0  0  0
 49 64  1  0  0  0
 49120  1  0  0  0
 50 51  1  0  0  0
 50121  1  0  0  0
 50122  1  0  0  0
 51 52  1  0  0  0
 51123  1  0  0  0
 51124  1  0  0  0
 52125  1  0  0  0
 52126  1  0  0  0
 53 54  1  0  0  0
 54 55  2  0  0  0
 54127  1  0  0  0
 55 57  1  0  0  0
 55128  1  0  0  0
 56 69  2  0  0  0
 57 58  2  0  0  0
 57129  1  0  0  0
 58130  1  0  0  0
 59 60  1  0  0  0
 59 61  1  0  0  0
 59 62  1  0  0  0
 60131  1  0  0  0
 60132  1  0  0  0
 60133  1  0  0  0
 61134  1  0  0  0
 61135  1  0  0  0
 61136  1  0  0  0
 62137  1  0  0  0
 62138  1  0  0  0
 62139  1  0  0  0
 63 65  1  0  0  0
 63140  1  0  0  0
 63141  1  0  0  0
 63142  1  0  0  0
 64143  1  0  0  0
 65144  1  0  0  0
 68 80  1  0  0  0
 71 73  2  0  0  0
 71 85  1  0  0  0
 71145  1  0  0  0
 72 84  2  0  0  0
 72 85  1  0  0  0
 72146  1  0  0  0
 73 81  1  0  0  0
 73 84  1  0  0  0
 74147  1  0  0  0
 74148  1  0  0  0
 74149  1  0  0  0
 74 81  1  0  0  0
 75150  1  0  0  0
 75151  1  0  0  0
 75152  1  0  0  0
 75 83  1  0  0  0
 76 83  1  0  0  0
 76153  1  0  0  0
 76154  1  0  0  0
 76155  1  0  0  0
 77 83  1  0  0  0
 77156  1  0  0  0
 77157  1  0  0  0
 77158  1  0  0  0
 78 79  1  0  0  0
 78 80  1  0  0  0
 78159  1  0  0  0
 78160  1  0  0  0
 79 85  1  0  0  0
 79161  1  0  0  0
 79162  1  0  0  0
 80163  1  0  0  0
 80164  1  0  0  0
 81 82  1  0  0  0
 81165  1  0  0  0
 82 83  1  0  0  0
 82166  1  0  0  0
M  ISO  4   1 100  68 101  80 101  82 100
M  END
> <chiral flag>
0

> <version>
0

> <s_m_source_file>
/data/baiqing/PycharmProjects/Reinvent-master-3.2/result/LINK_invent/BTK/process_docking_weight1_custom_sum_contain_oxygen_bond_distance_aromatic_linkinvent_7_9_3/rearranged_h_0074.sdf

> <i_m_source_file_index>
15

> <r_mmod_Potential_Energy-OPLS-2005>
279.518920898438

> <r_mmod_Stretch_Energy-OPLS-2005>
120.493850708008

> <r_mmod_Bend_Energy-OPLS-2005>
187.236663818359

> <r_mmod_Torsional_Energy-OPLS-2005>
215.192260742188

> <r_mmod_Improper_Torsional_Energy-OPLS-2005>
7.56602954864502

> <r_mmod_Van_der_Waal_Energy-OPLS-2005>
143.010055541992

> <r_mmod_Electrostatic_Energy-OPLS-2005>
-283.271697998047

> <r_mmod_Solvation_Energy-OPLS-2005>
-202.688293457031

> <b_mmod_Minimization_Converged-OPLS-2005>
0

> <r_mmod_RMS_Derivative-OPLS-2005>
4.90641021728516

$$$$
15
                    3D
 Structure written by MMmdl.
158166  0  0  1  0            999 V2000
  -30.4522  -15.3030   20.3137 C   0  0  0  0  0  0
  -30.4395  -12.8286   19.5173 C   0  0  0  0  0  0
  -29.5337  -12.5682   18.2870 C   0  0  0  0  0  0
  -28.0900  -12.2635   18.7253 C   0  0  0  0  0  0
  -27.6023  -13.2482   19.8119 C   0  0  2  0  0  0
  -28.6406  -13.4910   20.9288 C   0  0  0  0  0  0
  -25.2345  -13.8120   20.5737 C   0  0  0  0  0  0
  -24.1702  -13.0347   20.9287 C   0  0  0  0  0  0
  -24.6361  -11.6850   20.8807 C   0  0  0  0  0  0
  -23.9058  -10.4235   21.0440 C   0  0  0  0  0  0
  -24.3606   -9.4152   21.9212 C   0  0  0  0  0  0
  -23.6275   -8.2195   22.0764 C   0  0  0  0  0  0
  -22.4262   -8.0247   21.3546 C   0  0  0  0  0  0
  -21.9909   -9.0225   20.4647 C   0  0  0  0  0  0
  -22.7244  -10.2096   20.3069 C   0  0  0  0  0  0
  -21.6833   -6.0721   22.5282 C   0  0  0  0  0  0
  -21.4006   -6.5636   23.8215 C   0  0  0  0  0  0
  -21.3652   -5.6789   24.9178 C   0  0  0  0  0  0
  -21.6040   -4.3053   24.7231 C   0  0  0  0  0  0
  -21.8820   -3.8140   23.4354 C   0  0  0  0  0  0
  -21.9188   -4.6950   22.3407 C   0  0  0  0  0  0
  -22.7728  -13.5136   21.1914 C   0  0  0  0  0  0
  -22.1665   -4.2139   21.0986 F   0  0  0  0  0  0
  -21.5628   -3.4538   25.7746 F   0  0  0  0  0  0
  -29.8771  -13.9927   20.2974 N   0  0  0  0  0  0
  -26.2772  -12.9358   20.3233 N   0  0  0  0  0  0
  -25.9291  -11.6497   20.5772 N   0  0  0  0  0  0
  -22.0386  -12.8134   22.0476 N   0  0  0  0  0  0
  -25.3870  -15.1836   20.4097 N   0  0  0  0  0  0
  -31.6887  -15.2267   20.2625 O   0  0  0  0  0  0
  -21.6614   -6.8858   21.4242 O   0  0  0  0  0  0
  -22.3433  -14.5450   20.6748 O   0  0  0  0  0  0
  -24.6613  -31.8257   23.1725 C   0  0  0  0  0  0
  -25.9298  -32.4607   23.8183 C   0  0  1  0  0  0
  -27.2217  -26.9431   20.1878 C   0  0  0  0  0  0
  -25.5975  -33.8419   24.2094 N   0  0  0  0  0  0
  -23.4756  -30.4372   21.5222 C   0  0  2  0  0  0
  -24.9296  -28.8267   20.1174 C   0  0  0  0  0  0
  -22.7659  -29.4450   22.4800 C   0  0  0  0  0  0
  -18.0319  -28.1409   22.8469 C   0  0  0  0  0  0
  -24.1495  -36.7214   23.2648 C   0  0  0  0  0  0
  -26.0442  -30.6386   21.3992 C   0  0  0  0  0  0
  -26.1145  -29.2283   20.7477 C   0  0  0  0  0  0
  -27.2574  -28.3092   20.7553 C   0  0  0  0  0  0
  -26.0063  -26.6929   19.5094 C   0  0  0  0  0  0
  -24.9000  -27.5786   19.4780 C   0  0  0  0  0  0
  -23.7151  -29.7527   20.1493 C   0  0  0  0  0  0
  -25.4136  -36.2978   24.0301 C   0  0  1  0  0  0
  -20.5944  -28.3750   23.1196 C   0  0  2  0  0  0
  -20.6799  -26.9434   22.5405 C   0  0  0  0  0  0
  -19.5773  -26.6379   21.5216 C   0  0  0  0  0  0
  -18.1955  -26.7943   22.1625 C   0  0  0  0  0  0
  -19.1581  -28.8902   23.2817 C   0  0  0  0  0  0
  -18.9490  -30.1491   23.8852 C   0  0  0  0  0  0
  -17.6482  -30.6598   24.0557 C   0  0  0  0  0  0
  -25.9095  -34.9359   23.5017 C   0  0  0  0  0  0
  -16.5372  -29.9085   23.6345 C   0  0  0  0  0  0
  -16.7301  -28.6507   23.0364 C   0  0  0  0  0  0
  -26.4557  -31.6538   25.0697 C   0  0  0  0  0  0
  -25.3687  -31.3784   26.1356 C   0  0  0  0  0  0
  -27.0444  -30.2909   24.6403 C   0  0  0  0  0  0
  -27.6057  -32.4334   25.7502 C   0  0  0  0  0  0
  -27.5565  -37.1777   24.8471 C   0  0  0  0  0  0
  -21.4329  -29.3041   22.3546 N   0  0  0  0  0  0
  -26.4289  -37.3703   23.9392 N   0  0  0  0  0  0
  -24.7485  -30.9932   22.0855 N   0  0  0  0  0  0
  -23.4216  -28.8012   23.3029 O   0  0  0  0  0  0
  -28.2326  -25.8481   20.2247 O   0  0  0  0  0  0
  -26.5698  -34.8888   22.4609 O   0  0  0  0  0  0
  -23.5684  -32.1216   23.6825 O   0  0  0  0  0  0
  -28.6531  -21.3388   20.6174 C   0  0  0  0  0  0
  -28.8446  -22.7863   20.1627 C   0  0  0  0  0  0
  -29.5100  -20.1400   20.2272 C   0  0  0  0  0  0
  -30.6580  -21.8221   19.0325 C   0  0  0  0  0  0
  -31.8336  -22.0885   18.1169 C   0  0  0  0  0  0
  -30.8035  -18.4978   21.8206 C   0  0  0  0  0  0
  -28.2903  -16.6616   19.5659 C   0  0  0  0  0  0
  -30.4674  -17.2871   18.6313 C   0  0  0  0  0  0
  -27.9082  -24.2422   20.3849 C   0  0  0  0  0  0
  -29.6600  -18.4890   20.7988 C   0  0  2  0  0  0
  -29.7511  -16.9058   19.9473 C   0  0  0  0  0  0
  -29.9136  -22.8986   19.3447 N   0  0  0  0  0  0
  -30.5161  -20.5402   19.4177 N   0  0  0  0  0  0
  -31.4543  -13.0317   19.1715 H   0  0  0  0  0  0
  -30.5154  -11.9388   20.1439 H   0  0  0  0  0  0
  -29.9260  -11.7443   17.6890 H   0  0  0  0  0  0
  -29.5417  -13.4475   17.6409 H   0  0  0  0  0  0
  -28.0692  -11.2474   19.1204 H   0  0  0  0  0  0
  -27.4179  -12.2743   17.8665 H   0  0  0  0  0  0
  -27.4735  -14.1708   19.2653 H   0  0  0  0  0  0
  -28.8225  -12.5811   21.5025 H   0  0  0  0  0  0
  -28.2683  -14.2327   21.6372 H   0  0  0  0  0  0
  -25.2749   -9.5618   22.4789 H   0  0  0  0  0  0
  -23.9970   -7.4576   22.7477 H   0  0  0  0  0  0
  -21.0848   -8.8751   19.8943 H   0  0  0  0  0  0
  -22.3718  -10.9644   19.6180 H   0  0  0  0  0  0
  -21.2004   -7.6147   23.9717 H   0  0  0  0  0  0
  -21.1478   -6.0524   25.9082 H   0  0  0  0  0  0
  -22.0607   -2.7603   23.2857 H   0  0  0  0  0  0
  -22.4011  -11.9795   22.4859 H   0  0  0  0  0  0
  -21.1005  -13.1153   22.2705 H   0  0  0  0  0  0
  -24.6113  -15.8278   20.5148 H   0  0  0  0  0  0
  -26.2234  -15.6252   20.0521 H   0  0  0  0  0  0
  -26.7366  -32.5156   23.0900 H   0  0  0  0  0  0
  -25.0085  -33.9501   25.0220 H   0  0  0  0  0  0
  -22.7880  -31.2684   21.3517 H   0  0  0  0  0  0
  -23.3755  -35.9549   23.3323 H   0  0  0  0  0  0
  -24.3557  -36.8841   22.2057 H   0  0  0  0  0  0
  -23.7268  -37.6416   23.6690 H   0  0  0  0  0  0
  -26.2175  -31.3789   20.6169 H   0  0  0  0  0  0
  -26.9070  -30.7005   22.0505 H   0  0  0  0  0  0
  -28.1577  -28.6185   21.2675 H   0  0  0  0  0  0
  -25.8785  -25.7490   19.0014 H   0  0  0  0  0  0
  -24.0009  -27.2674   18.9640 H   0  0  0  0  0  0
  -23.8693  -30.5201   19.3898 H   0  0  0  0  0  0
  -22.8256  -29.2049   19.8335 H   0  0  0  0  0  0
  -25.1340  -36.1788   25.0794 H   0  0  0  0  0  0
  -21.0030  -28.3354   24.1320 H   0  0  0  0  0  0
  -20.5684  -26.2364   23.3638 H   0  0  0  0  0  0
  -21.6660  -26.7415   22.1206 H   0  0  0  0  0  0
  -19.6930  -25.6276   21.1274 H   0  0  0  0  0  0
  -19.6714  -27.3163   20.6723 H   0  0  0  0  0  0
  -17.4222  -26.6685   21.4029 H   0  0  0  0  0  0
  -18.0349  -26.0094   22.9031 H   0  0  0  0  0  0
  -19.7965  -30.7323   24.2203 H   0  0  0  0  0  0
  -17.5033  -31.6277   24.5162 H   0  0  0  0  0  0
  -15.5370  -30.2974   23.7691 H   0  0  0  0  0  0
  -15.8702  -28.0806   22.7110 H   0  0  0  0  0  0
  -24.5886  -30.7118   25.7665 H   0  0  0  0  0  0
  -24.8859  -32.2984   26.4660 H   0  0  0  0  0  0
  -25.7920  -30.9033   27.0214 H   0  0  0  0  0  0
  -26.3102  -29.6600   24.1385 H   0  0  0  0  0  0
  -27.3962  -29.7260   25.5045 H   0  0  0  0  0  0
  -27.9050  -30.4103   23.9821 H   0  0  0  0  0  0
  -27.2638  -33.3679   26.1965 H   0  0  0  0  0  0
  -28.3935  -32.6819   25.0377 H   0  0  0  0  0  0
  -28.0650  -31.8531   26.5516 H   0  0  0  0  0  0
  -28.2601  -38.0052   24.7462 H   0  0  0  0  0  0
  -28.1043  -36.2576   24.6380 H   0  0  0  0  0  0
  -27.2265  -37.1517   25.8871 H   0  0  0  0  0  0
  -20.9579  -29.8734   21.6679 H   0  0  0  0  0  0
  -26.0146  -38.2772   24.1365 H   0  0  0  0  0  0
  -27.8307  -21.1503   21.2952 H   0  0  0  0  0  0
  -32.0371  -23.1553   18.0212 H   0  0  0  0  0  0
  -31.6326  -21.6916   17.1224 H   0  0  0  0  0  0
  -32.7357  -21.6101   18.4983 H   0  0  0  0  0  0
  -30.6576  -19.2854   22.5600 H   0  0  0  0  0  0
  -31.7593  -18.6763   21.3286 H   0  0  0  0  0  0
  -30.8703  -17.5511   22.3547 H   0  0  0  0  0  0
  -27.7846  -17.5871   19.2879 H   0  0  0  0  0  0
  -27.7542  -16.2439   20.4140 H   0  0  0  0  0  0
  -28.2142  -16.0077   18.6999 H   0  0  0  0  0  0
  -29.9338  -18.0705   18.0933 H   0  0  0  0  0  0
  -30.5597  -16.4402   17.9493 H   0  0  0  0  0  0
  -31.4737  -17.6601   18.8283 H   0  0  0  0  0  0
  -27.5108  -24.1509   21.3955 H   0  0  0  0  0  0
  -27.0448  -24.0612   19.7473 H   0  0  0  0  0  0
  -28.7600  -18.3980   21.4092 H   0  0  0  0  0  0
  1 25  1  0  0  0
  1 30  2  0  0  0
  1 81  1  0  0  0
  2  3  1  0  0  0
  2 25  1  0  0  0
  2 84  1  0  0  0
  2 85  1  0  0  0
  3  4  1  0  0  0
  3 86  1  0  0  0
  3 87  1  0  0  0
  4  5  1  0  0  0
  4 88  1  0  0  0
  4 89  1  0  0  0
  5  6  1  0  0  0
  5 26  1  0  0  0
  5 90  1  0  0  0
  6 25  1  0  0  0
  6 91  1  0  0  0
  6 92  1  0  0  0
  7  8  2  0  0  0
  7 26  1  0  0  0
  7 29  1  0  0  0
  8  9  1  0  0  0
  8 22  1  0  0  0
  9 10  1  0  0  0
  9 27  2  0  0  0
 10 11  2  0  0  0
 10 15  1  0  0  0
 11 12  1  0  0  0
 11 93  1  0  0  0
 12 13  2  0  0  0
 12 94  1  0  0  0
 13 14  1  0  0  0
 13 31  1  0  0  0
 14 15  2  0  0  0
 14 95  1  0  0  0
 15 96  1  0  0  0
 16 17  2  0  0  0
 16 21  1  0  0  0
 16 31  1  0  0  0
 17 18  1  0  0  0
 17 97  1  0  0  0
 18 19  2  0  0  0
 18 98  1  0  0  0
 19 20  1  0  0  0
 19 24  1  0  0  0
 20 21  2  0  0  0
 20 99  1  0  0  0
 21 23  1  0  0  0
 22 28  1  0  0  0
 22 32  2  0  0  0
 26 27  1  0  0  0
 28100  1  0  0  0
 28101  1  0  0  0
 29102  1  0  0  0
 29103  1  0  0  0
 33 34  1  0  0  0
 33 66  1  0  0  0
 33 70  2  0  0  0
 34 36  1  0  0  0
 34 59  1  0  0  0
 34104  1  0  0  0
 35 44  2  0  0  0
 35 45  1  0  0  0
 35 68  1  0  0  0
 36 56  1  0  0  0
 36105  1  0  0  0
 37 39  1  0  0  0
 37 47  1  0  0  0
 37 66  1  0  0  0
 37106  1  0  0  0
 38 43  2  0  0  0
 38 46  1  0  0  0
 38 47  1  0  0  0
 39 64  1  0  0  0
 39 67  2  0  0  0
 40 52  1  0  0  0
 40 53  2  0  0  0
 40 58  1  0  0  0
 41107  1  0  0  0
 41108  1  0  0  0
 41109  1  0  0  0
 41 48  1  0  0  0
 42 43  1  0  0  0
 42 66  1  0  0  0
 42110  1  0  0  0
 42111  1  0  0  0
 43 44  1  0  0  0
 44112  1  0  0  0
 45 46  2  0  0  0
 45113  1  0  0  0
 46114  1  0  0  0
 47115  1  0  0  0
 47116  1  0  0  0
 48 56  1  0  0  0
 48 65  1  0  0  0
 48117  1  0  0  0
 49 50  1  0  0  0
 49 53  1  0  0  0
 49 64  1  0  0  0
 49118  1  0  0  0
 50 51  1  0  0  0
 50119  1  0  0  0
 50120  1  0  0  0
 51 52  1  0  0  0
 51121  1  0  0  0
 51122  1  0  0  0
 52123  1  0  0  0
 52124  1  0  0  0
 53 54  1  0  0  0
 54 55  2  0  0  0
 54125  1  0  0  0
 55 57  1  0  0  0
 55126  1  0  0  0
 56 69  2  0  0  0
 57 58  2  0  0  0
 57127  1  0  0  0
 58128  1  0  0  0
 59 60  1  0  0  0
 59 61  1  0  0  0
 59 62  1  0  0  0
 60129  1  0  0  0
 60130  1  0  0  0
 60131  1  0  0  0
 61132  1  0  0  0
 61133  1  0  0  0
 61134  1  0  0  0
 62135  1  0  0  0
 62136  1  0  0  0
 62137  1  0  0  0
 63 65  1  0  0  0
 63138  1  0  0  0
 63139  1  0  0  0
 63140  1  0  0  0
 64141  1  0  0  0
 65142  1  0  0  0
 68 79  1  0  0  0
 71 72  2  0  0  0
 71 73  1  0  0  0
 71143  1  0  0  0
 72 79  1  0  0  0
 72 82  1  0  0  0
 73 80  1  0  0  0
 73 83  2  0  0  0
 74 75  1  0  0  0
 74 82  2  0  0  0
 74 83  1  0  0  0
 75144  1  0  0  0
 75145  1  0  0  0
 75146  1  0  0  0
 76147  1  0  0  0
 76148  1  0  0  0
 76149  1  0  0  0
 76 80  1  0  0  0
 77150  1  0  0  0
 77151  1  0  0  0
 77152  1  0  0  0
 77 81  1  0  0  0
 78 81  1  0  0  0
 78153  1  0  0  0
 78154  1  0  0  0
 78155  1  0  0  0
 79156  1  0  0  0
 79157  1  0  0  0
 80 81  1  0  0  0
 80158  1  0  0  0
M  ISO  4   1 100  68 101  79 101  81 100
M  END
> <chiral flag>
0

> <version>
0

> <s_m_source_file>
/data/baiqing/PycharmProjects/Reinvent-master-3.2/result/LINK_invent/BTK/process_docking_weight1_custom_sum_contain_oxygen_bond_distance_aromatic_linkinvent_7_9_3/rearranged_h_0074.sdf

> <i_m_source_file_index>
16

> <r_mmod_Potential_Energy-OPLS-2005>
920.237365722656

> <r_mmod_Stretch_Energy-OPLS-2005>
579.945739746094

> <r_mmod_Bend_Energy-OPLS-2005>
436.149383544922

> <r_mmod_Torsional_Energy-OPLS-2005>
214.117385864258

> <r_mmod_Improper_Torsional_Energy-OPLS-2005>
13.1661195755005

> <r_mmod_Van_der_Waal_Energy-OPLS-2005>
136.775909423828

> <r_mmod_Electrostatic_Energy-OPLS-2005>
-705.600708007812

> <r_mmod_Solvation_Energy-OPLS-2005>
-222.440246582031

> <b_mmod_Minimization_Converged-OPLS-2005>
0

> <r_mmod_RMS_Derivative-OPLS-2005>
1.18901181221008

$$$$
16
                    3D
 Structure written by MMmdl.
160168  0  0  1  0            999 V2000
  -30.6280  -14.7435   20.5115 C   0  0  0  0  0  0
  -30.4391  -12.4688   19.4621 C   0  0  0  0  0  0
  -29.5060  -12.5186   18.2303 C   0  0  0  0  0  0
  -28.0321  -12.3268   18.6439 C   0  0  0  0  0  0
  -27.6462  -13.2080   19.8602 C   0  0  2  0  0  0
  -28.7027  -13.0941   20.9850 C   0  0  0  0  0  0
  -25.2504  -13.8125   20.5661 C   0  0  0  0  0  0
  -24.1782  -13.0397   20.9185 C   0  0  0  0  0  0
  -24.6366  -11.6878   20.8766 C   0  0  0  0  0  0
  -23.9040  -10.4264   21.0422 C   0  0  0  0  0  0
  -24.3599   -9.4180   21.9191 C   0  0  0  0  0  0
  -23.6277   -8.2220   22.0757 C   0  0  0  0  0  0
  -22.4258   -8.0265   21.3549 C   0  0  0  0  0  0
  -21.9893   -9.0233   20.4647 C   0  0  0  0  0  0
  -22.7221  -10.2108   20.3062 C   0  0  0  0  0  0
  -21.6848   -6.0720   22.5278 C   0  0  0  0  0  0
  -21.4008   -6.5628   23.8208 C   0  0  0  0  0  0
  -21.3660   -5.6782   24.9173 C   0  0  0  0  0  0
  -21.6053   -4.3047   24.7227 C   0  0  0  0  0  0
  -21.8824   -3.8135   23.4350 C   0  0  0  0  0  0
  -21.9190   -4.6949   22.3401 C   0  0  0  0  0  0
  -22.7805  -13.5192   21.1844 C   0  0  0  0  0  0
  -22.1658   -4.2136   21.0978 F   0  0  0  0  0  0
  -21.5635   -3.4529   25.7740 F   0  0  0  0  0  0
  -29.9920  -13.5147   20.4213 N   0  0  0  0  0  0
  -26.2949  -12.9302   20.3341 N   0  0  0  0  0  0
  -25.9303  -11.6469   20.5813 N   0  0  0  0  0  0
  -22.0451  -12.8197   22.0416 N   0  0  0  0  0  0
  -25.4126  -15.1840   20.4029 N   0  0  0  0  0  0
  -31.7857  -14.8011   20.0839 O   0  0  0  0  0  0
  -21.6631   -6.8862   21.4237 O   0  0  0  0  0  0
  -22.3483  -14.5487   20.6679 O   0  0  0  0  0  0
  -24.6295  -31.8573   23.2005 C   0  0  0  0  0  0
  -25.9122  -32.4767   23.8347 C   0  0  1  0  0  0
  -27.2223  -27.2845   20.1200 C   0  0  0  0  0  0
  -25.5926  -33.8569   24.2265 N   0  0  0  0  0  0
  -23.4253  -30.4814   21.5441 C   0  0  2  0  0  0
  -24.8723  -28.9350   20.1096 C   0  0  0  0  0  0
  -22.7490  -29.4612   22.4917 C   0  0  0  0  0  0
  -18.0290  -28.1381   22.8486 C   0  0  0  0  0  0
  -24.1488  -36.7296   23.2642 C   0  0  0  0  0  0
  -25.9709  -30.7766   21.3794 C   0  0  0  0  0  0
  -26.0435  -29.4029   20.7186 C   0  0  0  0  0  0
  -27.2208  -28.5897   20.7133 C   0  0  0  0  0  0
  -26.0278  -26.8874   19.4737 C   0  0  0  0  0  0
  -24.8681  -27.6840   19.4782 C   0  0  0  0  0  0
  -23.6413  -29.8181   20.1594 C   0  0  0  0  0  0
  -25.4114  -36.3081   24.0325 C   0  0  1  0  0  0
  -20.5891  -28.3690   23.1271 C   0  0  2  0  0  0
  -20.6773  -26.9407   22.5408 C   0  0  0  0  0  0
  -19.5747  -26.6375   21.5212 C   0  0  0  0  0  0
  -18.1926  -26.7924   22.1623 C   0  0  0  0  0  0
  -19.1541  -28.8851   23.2877 C   0  0  0  0  0  0
  -18.9463  -30.1453   23.8894 C   0  0  0  0  0  0
  -17.6463  -30.6586   24.0557 C   0  0  0  0  0  0
  -25.9049  -34.9447   23.5096 C   0  0  0  0  0  0
  -16.5354  -29.9080   23.6335 C   0  0  0  0  0  0
  -16.7277  -28.6497   23.0359 C   0  0  0  0  0  0
  -26.4490  -31.6596   25.0740 C   0  0  0  0  0  0
  -25.3711  -31.3752   26.1461 C   0  0  0  0  0  0
  -27.0344  -30.3009   24.6236 C   0  0  0  0  0  0
  -27.6033  -32.4352   25.7515 C   0  0  0  0  0  0
  -27.5582  -37.1802   24.8458 C   0  0  0  0  0  0
  -21.4195  -29.3045   22.3660 N   0  0  0  0  0  0
  -26.4292  -37.3777   23.9405 N   0  0  0  0  0  0
  -24.6942  -31.0556   22.0977 N   0  0  0  0  0  0
  -23.4199  -28.8151   23.3003 O   0  0  0  0  0  0
  -28.3200  -26.3958   20.1918 O   0  0  0  0  0  0
  -26.5622  -34.8913   22.4666 O   0  0  0  0  0  0
  -23.5450  -32.1382   23.7313 O   0  0  0  0  0  0
  -30.6583  -20.9798   21.4000 C   0  0  0  0  0  0
  -29.5438  -21.0183   20.5183 C   0  0  0  0  0  0
  -31.1030  -19.6763   21.4154 C   0  0  0  0  0  0
  -32.3083  -19.1390   22.1166 C   0  0  0  0  0  0
  -30.5681  -16.3243   22.4868 C   0  0  0  0  0  0
  -28.4935  -16.2883   21.1236 C   0  0  0  0  0  0
  -28.6595  -22.2522   20.0911 C   0  0  0  0  0  0
  -29.0846  -23.7720   20.4300 C   0  0  0  0  0  0
  -30.4652  -17.4482   20.1542 C   0  0  0  0  0  0
  -28.0697  -24.9350   19.9744 C   0  0  0  0  0  0
  -30.0304  -16.1644   21.0505 C   0  0  0  0  0  0
  -29.3235  -19.7525   20.0655 N   0  0  0  0  0  0
  -30.2733  -18.8964   20.6109 N   0  0  0  0  0  0
  -31.4740  -12.5986   19.1420 H   0  0  0  0  0  0
  -30.4082  -11.4818   19.9259 H   0  0  0  0  0  0
  -29.7937  -11.7553   17.5054 H   0  0  0  0  0  0
  -29.6234  -13.4792   17.7257 H   0  0  0  0  0  0
  -27.8859  -11.2739   18.8874 H   0  0  0  0  0  0
  -27.3699  -12.5369   17.8027 H   0  0  0  0  0  0
  -27.6466  -14.2224   19.4767 H   0  0  0  0  0  0
  -28.7602  -12.0588   21.3255 H   0  0  0  0  0  0
  -28.4445  -13.6444   21.8832 H   0  0  0  0  0  0
  -25.2748   -9.5653   22.4749 H   0  0  0  0  0  0
  -23.9992   -7.4606   22.7473 H   0  0  0  0  0  0
  -21.0827   -8.8754   19.8940 H   0  0  0  0  0  0
  -22.3695  -10.9649   19.6164 H   0  0  0  0  0  0
  -21.1999   -7.6137   23.9705 H   0  0  0  0  0  0
  -21.1480   -6.0512   25.9072 H   0  0  0  0  0  0
  -22.0606   -2.7601   23.2854 H   0  0  0  0  0  0
  -22.4075  -11.9881   22.4839 H   0  0  0  0  0  0
  -21.1065  -13.1219   22.2615 H   0  0  0  0  0  0
  -24.6446  -15.8343   20.5238 H   0  0  0  0  0  0
  -26.2727  -15.6331   20.1182 H   0  0  0  0  0  0
  -26.7192  -32.5417   23.1097 H   0  0  0  0  0  0
  -25.0063  -33.9699   25.0402 H   0  0  0  0  0  0
  -22.7215  -31.3035   21.4011 H   0  0  0  0  0  0
  -23.3749  -35.9631   23.3299 H   0  0  0  0  0  0
  -24.3579  -36.8928   22.2059 H   0  0  0  0  0  0
  -23.7235  -37.6490   23.6672 H   0  0  0  0  0  0
  -26.1104  -31.5398   20.6123 H   0  0  0  0  0  0
  -26.8476  -30.8214   22.0144 H   0  0  0  0  0  0
  -28.1173  -28.9417   21.2047 H   0  0  0  0  0  0
  -25.9523  -25.9369   18.9671 H   0  0  0  0  0  0
  -23.9720  -27.3223   18.9923 H   0  0  0  0  0  0
  -23.7615  -30.5954   19.4038 H   0  0  0  0  0  0
  -22.7597  -29.2495   19.8573 H   0  0  0  0  0  0
  -25.1296  -36.1940   25.0818 H   0  0  0  0  0  0
  -20.9982  -28.3270   24.1391 H   0  0  0  0  0  0
  -20.5665  -26.2299   23.3611 H   0  0  0  0  0  0
  -21.6641  -26.7419   22.1206 H   0  0  0  0  0  0
  -19.6901  -25.6281   21.1248 H   0  0  0  0  0  0
  -19.6685  -27.3177   20.6734 H   0  0  0  0  0  0
  -17.4192  -26.6673   21.4028 H   0  0  0  0  0  0
  -18.0326  -26.0068   22.9020 H   0  0  0  0  0  0
  -19.7938  -30.7268   24.2259 H   0  0  0  0  0  0
  -17.5017  -31.6265   24.5158 H   0  0  0  0  0  0
  -15.5352  -30.2980   23.7658 H   0  0  0  0  0  0
  -15.8678  -28.0810   22.7083 H   0  0  0  0  0  0
  -24.5864  -30.7130   25.7788 H   0  0  0  0  0  0
  -24.8928  -32.2929   26.4897 H   0  0  0  0  0  0
  -25.8019  -30.8912   27.0236 H   0  0  0  0  0  0
  -26.2942  -29.6756   24.1231 H   0  0  0  0  0  0
  -27.3987  -29.7278   25.4773 H   0  0  0  0  0  0
  -27.8836  -30.4282   23.9517 H   0  0  0  0  0  0
  -27.2621  -33.3647   26.2091 H   0  0  0  0  0  0
  -28.3843  -32.6932   25.0348 H   0  0  0  0  0  0
  -28.0711  -31.8491   26.5437 H   0  0  0  0  0  0
  -28.2588  -38.0111   24.7517 H   0  0  0  0  0  0
  -28.1089  -36.2638   24.6275 H   0  0  0  0  0  0
  -27.2297  -37.1442   25.8859 H   0  0  0  0  0  0
  -20.9373  -29.8795   21.6894 H   0  0  0  0  0  0
  -26.0175  -38.2853   24.1408 H   0  0  0  0  0  0
  -31.1031  -21.8129   21.9271 H   0  0  0  0  0  0
  -33.0756  -19.9079   22.2022 H   0  0  0  0  0  0
  -32.7546  -18.3012   21.5830 H   0  0  0  0  0  0
  -32.0556  -18.8107   23.1244 H   0  0  0  0  0  0
  -30.1894  -17.2301   22.9605 H   0  0  0  0  0  0
  -31.6571  -16.3669   22.5034 H   0  0  0  0  0  0
  -30.2714  -15.4861   23.1194 H   0  0  0  0  0  0
  -28.2119  -17.2856   21.4625 H   0  0  0  0  0  0
  -28.0144  -15.6253   21.8366 H   0  0  0  0  0  0
  -28.0410  -16.1802   20.1421 H   0  0  0  0  0  0
  -27.6631  -22.1013   20.5073 H   0  0  0  0  0  0
  -28.5096  -22.1982   19.0129 H   0  0  0  0  0  0
  -30.0577  -23.9673   19.9800 H   0  0  0  0  0  0
  -29.2310  -23.8530   21.5073 H   0  0  0  0  0  0
  -29.9720  -17.3579   19.1854 H   0  0  0  0  0  0
  -31.5224  -17.3520   19.9084 H   0  0  0  0  0  0
  -27.1217  -24.6896   20.4556 H   0  0  0  0  0  0
  -27.9063  -24.8038   18.9042 H   0  0  0  0  0  0
  1 25  1  0  0  0
  1 30  2  0  0  0
  1 81  1  0  0  0
  2  3  1  0  0  0
  2 25  1  0  0  0
  2 84  1  0  0  0
  2 85  1  0  0  0
  3  4  1  0  0  0
  3 86  1  0  0  0
  3 87  1  0  0  0
  4  5  1  0  0  0
  4 88  1  0  0  0
  4 89  1  0  0  0
  5  6  1  0  0  0
  5 26  1  0  0  0
  5 90  1  0  0  0
  6 25  1  0  0  0
  6 91  1  0  0  0
  6 92  1  0  0  0
  7  8  2  0  0  0
  7 26  1  0  0  0
  7 29  1  0  0  0
  8  9  1  0  0  0
  8 22  1  0  0  0
  9 10  1  0  0  0
  9 27  2  0  0  0
 10 11  2  0  0  0
 10 15  1  0  0  0
 11 12  1  0  0  0
 11 93  1  0  0  0
 12 13  2  0  0  0
 12 94  1  0  0  0
 13 14  1  0  0  0
 13 31  1  0  0  0
 14 15  2  0  0  0
 14 95  1  0  0  0
 15 96  1  0  0  0
 16 17  2  0  0  0
 16 21  1  0  0  0
 16 31  1  0  0  0
 17 18  1  0  0  0
 17 97  1  0  0  0
 18 19  2  0  0  0
 18 98  1  0  0  0
 19 20  1  0  0  0
 19 24  1  0  0  0
 20 21  2  0  0  0
 20 99  1  0  0  0
 21 23  1  0  0  0
 22 28  1  0  0  0
 22 32  2  0  0  0
 26 27  1  0  0  0
 28100  1  0  0  0
 28101  1  0  0  0
 29102  1  0  0  0
 29103  1  0  0  0
 33 34  1  0  0  0
 33 66  1  0  0  0
 33 70  2  0  0  0
 34 36  1  0  0  0
 34 59  1  0  0  0
 34104  1  0  0  0
 35 44  2  0  0  0
 35 45  1  0  0  0
 35 68  1  0  0  0
 36 56  1  0  0  0
 36105  1  0  0  0
 37 39  1  0  0  0
 37 47  1  0  0  0
 37 66  1  0  0  0
 37106  1  0  0  0
 38 43  2  0  0  0
 38 46  1  0  0  0
 38 47  1  0  0  0
 39 64  1  0  0  0
 39 67  2  0  0  0
 40 52  1  0  0  0
 40 53  2  0  0  0
 40 58  1  0  0  0
 41107  1  0  0  0
 41108  1  0  0  0
 41109  1  0  0  0
 41 48  1  0  0  0
 42 43  1  0  0  0
 42 66  1  0  0  0
 42110  1  0  0  0
 42111  1  0  0  0
 43 44  1  0  0  0
 44112  1  0  0  0
 45 46  2  0  0  0
 45113  1  0  0  0
 46114  1  0  0  0
 47115  1  0  0  0
 47116  1  0  0  0
 48 56  1  0  0  0
 48 65  1  0  0  0
 48117  1  0  0  0
 49 50  1  0  0  0
 49 53  1  0  0  0
 49 64  1  0  0  0
 49118  1  0  0  0
 50 51  1  0  0  0
 50119  1  0  0  0
 50120  1  0  0  0
 51 52  1  0  0  0
 51121  1  0  0  0
 51122  1  0  0  0
 52123  1  0  0  0
 52124  1  0  0  0
 53 54  1  0  0  0
 54 55  2  0  0  0
 54125  1  0  0  0
 55 57  1  0  0  0
 55126  1  0  0  0
 56 69  2  0  0  0
 57 58  2  0  0  0
 57127  1  0  0  0
 58128  1  0  0  0
 59 60  1  0  0  0
 59 61  1  0  0  0
 59 62  1  0  0  0
 60129  1  0  0  0
 60130  1  0  0  0
 60131  1  0  0  0
 61132  1  0  0  0
 61133  1  0  0  0
 61134  1  0  0  0
 62135  1  0  0  0
 62136  1  0  0  0
 62137  1  0  0  0
 63 65  1  0  0  0
 63138  1  0  0  0
 63139  1  0  0  0
 63140  1  0  0  0
 64141  1  0  0  0
 65142  1  0  0  0
 68 80  1  0  0  0
 71 72  1  0  0  0
 71 73  2  0  0  0
 71143  1  0  0  0
 72 77  1  0  0  0
 72 82  2  0  0  0
 73 74  1  0  0  0
 73 83  1  0  0  0
 74144  1  0  0  0
 74145  1  0  0  0
 74146  1  0  0  0
 75147  1  0  0  0
 75148  1  0  0  0
 75149  1  0  0  0
 75 81  1  0  0  0
 76 81  1  0  0  0
 76150  1  0  0  0
 76151  1  0  0  0
 76152  1  0  0  0
 77 78  1  0  0  0
 77153  1  0  0  0
 77154  1  0  0  0
 78 80  1  0  0  0
 78155  1  0  0  0
 78156  1  0  0  0
 79 81  1  0  0  0
 79 83  1  0  0  0
 79157  1  0  0  0
 79158  1  0  0  0
 80159  1  0  0  0
 80160  1  0  0  0
 82 83  1  0  0  0
M  ISO  4   1 100  68 101  80 101  81 100
M  END
> <chiral flag>
0

> <version>
0

> <s_m_source_file>
/data/baiqing/PycharmProjects/Reinvent-master-3.2/result/LINK_invent/BTK/process_docking_weight1_custom_sum_contain_oxygen_bond_distance_aromatic_linkinvent_7_9_3/rearranged_h_0074.sdf

> <i_m_source_file_index>
17

> <r_mmod_Potential_Energy-OPLS-2005>
144.100372314453

> <r_mmod_Stretch_Energy-OPLS-2005>
121.522598266602

> <r_mmod_Bend_Energy-OPLS-2005>
188.487640380859

> <r_mmod_Torsional_Energy-OPLS-2005>
196.573226928711

> <r_mmod_Improper_Torsional_Energy-OPLS-2005>
2.96801972389221

> <r_mmod_Van_der_Waal_Energy-OPLS-2005>
125.281059265137

> <r_mmod_Electrostatic_Energy-OPLS-2005>
-369.67529296875

> <r_mmod_Solvation_Energy-OPLS-2005>
-194.781616210938

> <b_mmod_Minimization_Converged-OPLS-2005>
0

> <r_mmod_RMS_Derivative-OPLS-2005>
1.36913049221039

$$$$
17
                    3D
 Structure written by MMmdl.
168176  0  0  1  0            999 V2000
  -30.7353  -14.5623   20.6572 C   0  0  0  0  0  0
  -30.4204  -12.3930   19.4538 C   0  0  0  0  0  0
  -29.5022  -12.5348   18.2206 C   0  0  0  0  0  0
  -28.0229  -12.3707   18.6167 C   0  0  0  0  0  0
  -27.6540  -13.2157   19.8619 C   0  0  2  0  0  0
  -28.6868  -13.0064   20.9835 C   0  0  0  0  0  0
  -25.2553  -13.8166   20.5660 C   0  0  0  0  0  0
  -24.1822  -13.0440   20.9163 C   0  0  0  0  0  0
  -24.6382  -11.6907   20.8707 C   0  0  0  0  0  0
  -23.9052  -10.4295   21.0393 C   0  0  0  0  0  0
  -24.3614   -9.4219   21.9176 C   0  0  0  0  0  0
  -23.6292   -8.2252   22.0750 C   0  0  0  0  0  0
  -22.4275   -8.0281   21.3542 C   0  0  0  0  0  0
  -21.9908   -9.0252   20.4644 C   0  0  0  0  0  0
  -22.7227  -10.2131   20.3047 C   0  0  0  0  0  0
  -21.6854   -6.0732   22.5277 C   0  0  0  0  0  0
  -21.4014   -6.5636   23.8210 C   0  0  0  0  0  0
  -21.3660   -5.6791   24.9175 C   0  0  0  0  0  0
  -21.6047   -4.3054   24.7229 C   0  0  0  0  0  0
  -21.8818   -3.8144   23.4349 C   0  0  0  0  0  0
  -21.9194   -4.6958   22.3403 C   0  0  0  0  0  0
  -22.7850  -13.5235   21.1853 C   0  0  0  0  0  0
  -22.1662   -4.2147   21.0981 F   0  0  0  0  0  0
  -21.5631   -3.4537   25.7742 F   0  0  0  0  0  0
  -30.0148  -13.3964   20.4743 N   0  0  0  0  0  0
  -26.2972  -12.9348   20.3255 N   0  0  0  0  0  0
  -25.9301  -11.6499   20.5687 N   0  0  0  0  0  0
  -22.0494  -12.8220   22.0406 N   0  0  0  0  0  0
  -25.4277  -15.1890   20.4127 N   0  0  0  0  0  0
  -31.7870  -14.6818   20.0195 O   0  0  0  0  0  0
  -21.6638   -6.8880   21.4242 O   0  0  0  0  0  0
  -22.3542  -14.5555   20.6717 O   0  0  0  0  0  0
  -24.6224  -31.8634   23.2056 C   0  0  0  0  0  0
  -25.9084  -32.4803   23.8371 C   0  0  1  0  0  0
  -27.2243  -27.3492   20.1211 C   0  0  0  0  0  0
  -25.5911  -33.8599   24.2308 N   0  0  0  0  0  0
  -23.4153  -30.4847   21.5482 C   0  0  2  0  0  0
  -24.8629  -28.9422   20.1184 C   0  0  0  0  0  0
  -22.7455  -29.4626   22.4965 C   0  0  0  0  0  0
  -18.0272  -28.1386   22.8480 C   0  0  0  0  0  0
  -24.1489  -36.7299   23.2635 C   0  0  0  0  0  0
  -25.9512  -30.8011   21.3757 C   0  0  0  0  0  0
  -26.0264  -29.4257   20.7298 C   0  0  0  0  0  0
  -27.2101  -28.6356   20.7331 C   0  0  0  0  0  0
  -26.0560  -26.9290   19.4565 C   0  0  0  0  0  0
  -24.8755  -27.6945   19.4765 C   0  0  0  0  0  0
  -23.6295  -29.8191   20.1642 C   0  0  0  0  0  0
  -25.4107  -36.3089   24.0327 C   0  0  1  0  0  0
  -20.5872  -28.3681   23.1296 C   0  0  2  0  0  0
  -20.6769  -26.9415   22.5407 C   0  0  0  0  0  0
  -19.5752  -26.6383   21.5208 C   0  0  0  0  0  0
  -18.1923  -26.7927   22.1612 C   0  0  0  0  0  0
  -19.1526  -28.8848   23.2882 C   0  0  0  0  0  0
  -18.9452  -30.1445   23.8909 C   0  0  0  0  0  0
  -17.6456  -30.6590   24.0563 C   0  0  0  0  0  0
  -25.9037  -34.9456   23.5116 C   0  0  0  0  0  0
  -16.5343  -29.9085   23.6332 C   0  0  0  0  0  0
  -16.7261  -28.6500   23.0351 C   0  0  0  0  0  0
  -26.4483  -31.6592   25.0723 C   0  0  0  0  0  0
  -25.3720  -31.3691   26.1455 C   0  0  0  0  0  0
  -27.0330  -30.3035   24.6120 C   0  0  0  0  0  0
  -27.6060  -32.4315   25.7478 C   0  0  0  0  0  0
  -27.5582  -37.1788   24.8456 C   0  0  0  0  0  0
  -21.4175  -29.3041   22.3709 N   0  0  0  0  0  0
  -26.4290  -37.3778   23.9407 N   0  0  0  0  0  0
  -24.6814  -31.0656   22.1006 N   0  0  0  0  0  0
  -23.4186  -28.8155   23.3032 O   0  0  0  0  0  0
  -28.3639  -26.5512   20.0818 O   0  0  0  0  0  0
  -26.5604  -34.8909   22.4684 O   0  0  0  0  0  0
  -23.5394  -32.1429   23.7397 O   0  0  0  0  0  0
  -29.3344  -18.9054   19.3634 C   0  0  0  0  0  0
  -29.5479  -18.2214   21.9673 C   0  0  0  0  0  0
  -29.7389  -17.5754   19.6723 C   0  0  0  0  0  0
  -29.8751  -17.1838   21.0429 C   0  0  0  0  0  0
  -29.0241  -19.8456   20.3714 C   0  0  0  0  0  0
  -29.9741  -16.6522   18.4900 C   0  0  0  0  0  0
  -29.5461  -15.3819   22.8539 C   0  0  0  0  0  0
  -31.7875  -16.1514   22.2720 C   0  0  0  0  0  0
  -26.5261  -23.5889   20.2317 C   0  0  0  0  0  0
  -28.3585  -24.0737   18.5282 C   0  0  0  0  0  0
  -28.3082  -21.1876   20.0223 C   0  0  0  0  0  0
  -28.8211  -22.5959   20.5494 C   0  0  0  0  0  0
  -28.3878  -25.2525   20.7783 C   0  0  0  0  0  0
  -30.4087  -15.7989   21.6367 C   0  0  0  0  0  0
  -28.0307  -23.8891   20.0251 C   0  0  0  0  0  0
  -29.1242  -19.4792   21.6645 N   0  0  0  0  0  0
  -31.4642  -12.4818   19.1496 H   0  0  0  0  0  0
  -30.3417  -11.3864   19.8670 H   0  0  0  0  0  0
  -29.7690  -11.7940   17.4656 H   0  0  0  0  0  0
  -29.6551  -13.5097   17.7574 H   0  0  0  0  0  0
  -27.8505  -11.3132   18.8238 H   0  0  0  0  0  0
  -27.3734  -12.6255   17.7784 H   0  0  0  0  0  0
  -27.6922  -14.2637   19.5646 H   0  0  0  0  0  0
  -28.7037  -11.9560   21.2747 H   0  0  0  0  0  0
  -28.3464  -13.5080   21.8739 H   0  0  0  0  0  0
  -25.2765   -9.5700   22.4743 H   0  0  0  0  0  0
  -24.0006   -7.4648   22.7475 H   0  0  0  0  0  0
  -21.0838   -8.8767   19.8952 H   0  0  0  0  0  0
  -22.3687  -10.9668   19.6152 H   0  0  0  0  0  0
  -21.2001   -7.6143   23.9716 H   0  0  0  0  0  0
  -21.1484   -6.0520   25.9081 H   0  0  0  0  0  0
  -22.0595   -2.7608   23.2849 H   0  0  0  0  0  0
  -22.4111  -11.9879   22.4791 H   0  0  0  0  0  0
  -21.1111  -13.1237   22.2616 H   0  0  0  0  0  0
  -24.6659  -15.8462   20.5395 H   0  0  0  0  0  0
  -26.2902  -15.6330   20.1229 H   0  0  0  0  0  0
  -26.7145  -32.5495   23.1115 H   0  0  0  0  0  0
  -25.0062  -33.9754   25.0459 H   0  0  0  0  0  0
  -22.7065  -31.3026   21.4040 H   0  0  0  0  0  0
  -23.3747  -35.9639   23.3311 H   0  0  0  0  0  0
  -24.3590  -36.8924   22.2052 H   0  0  0  0  0  0
  -23.7246  -37.6500   23.6665 H   0  0  0  0  0  0
  -26.0723  -31.5622   20.6040 H   0  0  0  0  0  0
  -26.8359  -30.8590   21.9976 H   0  0  0  0  0  0
  -28.1069  -29.0015   21.2136 H   0  0  0  0  0  0
  -26.0560  -26.0146   18.8865 H   0  0  0  0  0  0
  -23.9923  -27.3281   18.9714 H   0  0  0  0  0  0
  -23.7451  -30.5955   19.4065 H   0  0  0  0  0  0
  -22.7512  -29.2447   19.8650 H   0  0  0  0  0  0
  -25.1283  -36.1948   25.0817 H   0  0  0  0  0  0
  -20.9950  -28.3248   24.1423 H   0  0  0  0  0  0
  -20.5689  -26.2282   23.3592 H   0  0  0  0  0  0
  -21.6633  -26.7461   22.1193 H   0  0  0  0  0  0
  -19.6937  -25.6297   21.1237 H   0  0  0  0  0  0
  -19.6708  -27.3197   20.6743 H   0  0  0  0  0  0
  -17.4196  -26.6672   21.4011 H   0  0  0  0  0  0
  -18.0325  -26.0075   22.9016 H   0  0  0  0  0  0
  -19.7934  -30.7238   24.2312 H   0  0  0  0  0  0
  -17.5016  -31.6284   24.5140 H   0  0  0  0  0  0
  -15.5348  -30.2985   23.7663 H   0  0  0  0  0  0
  -15.8658  -28.0818   22.7074 H   0  0  0  0  0  0
  -24.5921  -30.7016   25.7768 H   0  0  0  0  0  0
  -24.8864  -32.2830   26.4885 H   0  0  0  0  0  0
  -25.8050  -30.8873   27.0230 H   0  0  0  0  0  0
  -26.2898  -29.6773   24.1166 H   0  0  0  0  0  0
  -27.4096  -29.7284   25.4583 H   0  0  0  0  0  0
  -27.8726  -30.4356   23.9290 H   0  0  0  0  0  0
  -27.2716  -33.3640   26.2032 H   0  0  0  0  0  0
  -28.3868  -32.6835   25.0290 H   0  0  0  0  0  0
  -28.0723  -31.8444   26.5403 H   0  0  0  0  0  0
  -28.2562  -38.0119   24.7548 H   0  0  0  0  0  0
  -28.1111  -36.2648   24.6235 H   0  0  0  0  0  0
  -27.2305  -37.1382   25.8858 H   0  0  0  0  0  0
  -20.9353  -29.8759   21.6917 H   0  0  0  0  0  0
  -26.0177  -38.2848   24.1443 H   0  0  0  0  0  0
  -29.2061  -19.1976   18.3291 H   0  0  0  0  0  0
  -29.6269  -18.0543   23.0297 H   0  0  0  0  0  0
  -29.6175  -17.0991   17.5618 H   0  0  0  0  0  0
  -29.4304  -15.7172   18.6036 H   0  0  0  0  0  0
  -31.0366  -16.4512   18.3567 H   0  0  0  0  0  0
  -29.7008  -16.0173   23.7251 H   0  0  0  0  0  0
  -29.7924  -14.3777   23.2032 H   0  0  0  0  0  0
  -28.4811  -15.4456   22.6314 H   0  0  0  0  0  0
  -31.7129  -16.8769   23.0820 H   0  0  0  0  0  0
  -32.4727  -16.5825   21.5403 H   0  0  0  0  0  0
  -32.2761  -15.2703   22.6925 H   0  0  0  0  0  0
  -26.1375  -22.9150   19.4681 H   0  0  0  0  0  0
  -25.8959  -24.4687   20.2370 H   0  0  0  0  0  0
  -26.3532  -23.1190   21.2006 H   0  0  0  0  0  0
  -29.4336  -24.1878   18.3800 H   0  0  0  0  0  0
  -27.8843  -24.9601   18.1071 H   0  0  0  0  0  0
  -28.0329  -23.2273   17.9255 H   0  0  0  0  0  0
  -27.2775  -21.0438   20.3436 H   0  0  0  0  0  0
  -28.2569  -21.2353   18.9360 H   0  0  0  0  0  0
  -29.8787  -22.7013   20.3054 H   0  0  0  0  0  0
  -28.7804  -22.5765   21.6382 H   0  0  0  0  0  0
  -29.4189  -25.1613   21.1211 H   0  0  0  0  0  0
  -27.8068  -25.3323   21.6995 H   0  0  0  0  0  0
  1 25  1  0  0  0
  1 30  2  0  0  0
  1 84  1  0  0  0
  2  3  1  0  0  0
  2 25  1  0  0  0
  2 87  1  0  0  0
  2 88  1  0  0  0
  3  4  1  0  0  0
  3 89  1  0  0  0
  3 90  1  0  0  0
  4  5  1  0  0  0
  4 91  1  0  0  0
  4 92  1  0  0  0
  5  6  1  0  0  0
  5 26  1  0  0  0
  5 93  1  0  0  0
  6 25  1  0  0  0
  6 94  1  0  0  0
  6 95  1  0  0  0
  7  8  2  0  0  0
  7 26  1  0  0  0
  7 29  1  0  0  0
  8  9  1  0  0  0
  8 22  1  0  0  0
  9 10  1  0  0  0
  9 27  2  0  0  0
 10 11  2  0  0  0
 10 15  1  0  0  0
 11 12  1  0  0  0
 11 96  1  0  0  0
 12 13  2  0  0  0
 12 97  1  0  0  0
 13 14  1  0  0  0
 13 31  1  0  0  0
 14 15  2  0  0  0
 14 98  1  0  0  0
 15 99  1  0  0  0
 16 17  2  0  0  0
 16 21  1  0  0  0
 16 31  1  0  0  0
 17 18  1  0  0  0
 17100  1  0  0  0
 18 19  2  0  0  0
 18101  1  0  0  0
 19 20  1  0  0  0
 19 24  1  0  0  0
 20 21  2  0  0  0
 20102  1  0  0  0
 21 23  1  0  0  0
 22 28  1  0  0  0
 22 32  2  0  0  0
 26 27  1  0  0  0
 28103  1  0  0  0
 28104  1  0  0  0
 29105  1  0  0  0
 29106  1  0  0  0
 33 34  1  0  0  0
 33 66  1  0  0  0
 33 70  2  0  0  0
 34 36  1  0  0  0
 34 59  1  0  0  0
 34107  1  0  0  0
 35 44  2  0  0  0
 35 45  1  0  0  0
 35 68  1  0  0  0
 36 56  1  0  0  0
 36108  1  0  0  0
 37 39  1  0  0  0
 37 47  1  0  0  0
 37 66  1  0  0  0
 37109  1  0  0  0
 38 43  2  0  0  0
 38 46  1  0  0  0
 38 47  1  0  0  0
 39 64  1  0  0  0
 39 67  2  0  0  0
 40 52  1  0  0  0
 40 53  2  0  0  0
 40 58  1  0  0  0
 41110  1  0  0  0
 41111  1  0  0  0
 41112  1  0  0  0
 41 48  1  0  0  0
 42 43  1  0  0  0
 42 66  1  0  0  0
 42113  1  0  0  0
 42114  1  0  0  0
 43 44  1  0  0  0
 44115  1  0  0  0
 45 46  2  0  0  0
 45116  1  0  0  0
 46117  1  0  0  0
 47118  1  0  0  0
 47119  1  0  0  0
 48 56  1  0  0  0
 48 65  1  0  0  0
 48120  1  0  0  0
 49 50  1  0  0  0
 49 53  1  0  0  0
 49 64  1  0  0  0
 49121  1  0  0  0
 50 51  1  0  0  0
 50122  1  0  0  0
 50123  1  0  0  0
 51 52  1  0  0  0
 51124  1  0  0  0
 51125  1  0  0  0
 52126  1  0  0  0
 52127  1  0  0  0
 53 54  1  0  0  0
 54 55  2  0  0  0
 54128  1  0  0  0
 55 57  1  0  0  0
 55129  1  0  0  0
 56 69  2  0  0  0
 57 58  2  0  0  0
 57130  1  0  0  0
 58131  1  0  0  0
 59 60  1  0  0  0
 59 61  1  0  0  0
 59 62  1  0  0  0
 60132  1  0  0  0
 60133  1  0  0  0
 60134  1  0  0  0
 61135  1  0  0  0
 61136  1  0  0  0
 61137  1  0  0  0
 62138  1  0  0  0
 62139  1  0  0  0
 62140  1  0  0  0
 63 65  1  0  0  0
 63141  1  0  0  0
 63142  1  0  0  0
 63143  1  0  0  0
 64144  1  0  0  0
 65145  1  0  0  0
 68 83  1  0  0  0
 71 73  2  0  0  0
 71 75  1  0  0  0
 71146  1  0  0  0
 72 74  2  0  0  0
 72 86  1  0  0  0
 72147  1  0  0  0
 73 74  1  0  0  0
 73 76  1  0  0  0
 74 84  1  0  0  0
 75 81  1  0  0  0
 75 86  2  0  0  0
 76148  1  0  0  0
 76149  1  0  0  0
 76150  1  0  0  0
 77151  1  0  0  0
 77152  1  0  0  0
 77153  1  0  0  0
 77 84  1  0  0  0
 78 84  1  0  0  0
 78154  1  0  0  0
 78155  1  0  0  0
 78156  1  0  0  0
 79157  1  0  0  0
 79158  1  0  0  0
 79159  1  0  0  0
 79 85  1  0  0  0
 80 85  1  0  0  0
 80160  1  0  0  0
 80161  1  0  0  0
 80162  1  0  0  0
 81 82  1  0  0  0
 81163  1  0  0  0
 81164  1  0  0  0
 82 85  1  0  0  0
 82165  1  0  0  0
 82166  1  0  0  0
 83 85  1  0  0  0
 83167  1  0  0  0
 83168  1  0  0  0
M  ISO  4   1 100  68 101  83 101  84 100
M  END
> <chiral flag>
0

> <version>
0

> <s_m_source_file>
/data/baiqing/PycharmProjects/Reinvent-master-3.2/result/LINK_invent/BTK/process_docking_weight1_custom_sum_contain_oxygen_bond_distance_aromatic_linkinvent_7_9_3/rearranged_h_0074.sdf

> <i_m_source_file_index>
18

> <r_mmod_Potential_Energy-OPLS-2005>
63.0679359436035

> <r_mmod_Stretch_Energy-OPLS-2005>
90.9851837158203

> <r_mmod_Bend_Energy-OPLS-2005>
197.745651245117

> <r_mmod_Torsional_Energy-OPLS-2005>
217.722625732422

> <r_mmod_Improper_Torsional_Energy-OPLS-2005>
3.36138606071472

> <r_mmod_Van_der_Waal_Energy-OPLS-2005>
174.523971557617

> <r_mmod_Electrostatic_Energy-OPLS-2005>
-462.793975830078

> <r_mmod_Solvation_Energy-OPLS-2005>
-186.197967529297

> <b_mmod_Minimization_Converged-OPLS-2005>
0

> <r_mmod_RMS_Derivative-OPLS-2005>
1.77997434139252

$$$$
18
                    3D
 Structure written by MMmdl.
179187  0  0  1  0            999 V2000
  -30.6155  -14.8007   20.3693 C   0  0  0  0  0  0
  -30.4013  -12.4822   19.4737 C   0  0  0  0  0  0
  -29.4859  -12.4826   18.2292 C   0  0  0  0  0  0
  -28.0260  -12.2358   18.6496 C   0  0  0  0  0  0
  -27.5961  -13.1723   19.8044 C   0  0  2  0  0  0
  -28.6440  -13.2674   20.9367 C   0  0  0  0  0  0
  -25.2348  -13.7819   20.5717 C   0  0  0  0  0  0
  -24.1646  -13.0191   20.9240 C   0  0  0  0  0  0
  -24.6203  -11.6648   20.8836 C   0  0  0  0  0  0
  -23.8888  -10.4096   21.0499 C   0  0  0  0  0  0
  -24.3476   -9.4010   21.9235 C   0  0  0  0  0  0
  -23.6144   -8.2061   22.0769 C   0  0  0  0  0  0
  -22.4136   -8.0177   21.3557 C   0  0  0  0  0  0
  -21.9763   -9.0116   20.4659 C   0  0  0  0  0  0
  -22.7100  -10.1981   20.3085 C   0  0  0  0  0  0
  -21.6752   -6.0652   22.5278 C   0  0  0  0  0  0
  -21.4005   -6.5579   23.8218 C   0  0  0  0  0  0
  -21.3671   -5.6781   24.9191 C   0  0  0  0  0  0
  -21.6013   -4.3016   24.7245 C   0  0  0  0  0  0
  -21.8798   -3.8090   23.4372 C   0  0  0  0  0  0
  -21.9138   -4.6873   22.3428 C   0  0  0  0  0  0
  -22.7713  -13.5116   21.1869 C   0  0  0  0  0  0
  -22.1598   -4.2076   21.1000 F   0  0  0  0  0  0
  -21.5628   -3.4529   25.7758 F   0  0  0  0  0  0
  -29.9515  -13.5872   20.3514 N   0  0  0  0  0  0
  -26.2687  -12.8932   20.3138 N   0  0  0  0  0  0
  -25.9086  -11.6134   20.5698 N   0  0  0  0  0  0
  -22.0329  -12.8245   22.0475 N   0  0  0  0  0  0
  -25.4005  -15.1545   20.4148 N   0  0  0  0  0  0
  -31.8419  -14.7822   20.2443 O   0  0  0  0  0  0
  -21.6515   -6.8775   21.4238 O   0  0  0  0  0  0
  -22.3480  -14.5444   20.6668 O   0  0  0  0  0  0
  -24.6277  -31.8647   23.2064 C   0  0  0  0  0  0
  -25.9162  -32.4767   23.8383 C   0  0  1  0  0  0
  -27.1931  -27.3078   20.0741 C   0  0  0  0  0  0
  -25.5958  -33.8556   24.2315 N   0  0  0  0  0  0
  -23.4129  -30.4972   21.5501 C   0  0  2  0  0  0
  -24.8499  -28.9578   20.0998 C   0  0  0  0  0  0
  -22.7455  -29.4658   22.4930 C   0  0  0  0  0  0
  -18.0270  -28.1351   22.8438 C   0  0  0  0  0  0
  -24.1482  -36.7316   23.2640 C   0  0  0  0  0  0
  -25.9653  -30.7817   21.3817 C   0  0  0  0  0  0
  -26.0229  -29.4121   20.7118 C   0  0  0  0  0  0
  -27.1933  -28.5963   20.6960 C   0  0  0  0  0  0
  -25.9999  -26.9256   19.4155 C   0  0  0  0  0  0
  -24.8417  -27.7199   19.4487 C   0  0  0  0  0  0
  -23.6223  -29.8438   20.1585 C   0  0  0  0  0  0
  -25.4108  -36.3096   24.0347 C   0  0  1  0  0  0
  -20.5874  -28.3691   23.1249 C   0  0  2  0  0  0
  -20.6740  -26.9412   22.5385 C   0  0  0  0  0  0
  -19.5734  -26.6372   21.5149 C   0  0  0  0  0  0
  -18.1922  -26.7887   22.1586 C   0  0  0  0  0  0
  -19.1530  -28.8836   23.2835 C   0  0  0  0  0  0
  -18.9455  -30.1427   23.8899 C   0  0  0  0  0  0
  -17.6466  -30.6575   24.0551 C   0  0  0  0  0  0
  -25.9054  -34.9441   23.5149 C   0  0  0  0  0  0
  -16.5344  -29.9084   23.6298 C   0  0  0  0  0  0
  -16.7271  -28.6469   23.0347 C   0  0  0  0  0  0
  -26.4442  -31.6464   25.0714 C   0  0  0  0  0  0
  -25.3648  -31.3663   26.1436 C   0  0  0  0  0  0
  -27.0101  -30.2787   24.6144 C   0  0  0  0  0  0
  -27.6015  -32.4044   25.7575 C   0  0  0  0  0  0
  -27.5592  -37.1806   24.8479 C   0  0  0  0  0  0
  -21.4162  -29.3087   22.3681 N   0  0  0  0  0  0
  -26.4320  -37.3776   23.9421 N   0  0  0  0  0  0
  -24.6880  -31.0645   22.1006 N   0  0  0  0  0  0
  -23.4196  -28.8129   23.2950 O   0  0  0  0  0  0
  -28.3111  -26.4541   20.1224 O   0  0  0  0  0  0
  -26.5607  -34.8921   22.4715 O   0  0  0  0  0  0
  -23.5444  -32.1524   23.7357 O   0  0  0  0  0  0
  -29.0932  -21.4264   21.5351 C   0  0  0  0  0  0
  -29.0561  -21.7351   22.8846 C   0  0  0  0  0  0
  -30.6790  -20.2793   22.5173 C   0  0  0  0  0  0
  -27.9228  -22.2874   25.1011 C   0  0  0  0  0  0
  -34.4626  -20.4222   21.6809 C   0  0  0  0  0  0
  -26.7605  -20.5727   19.6612 C   0  0  0  0  0  0
  -28.6193  -16.2818   19.3394 C   0  0  0  0  0  0
  -28.2919  -22.7522   23.6855 C   0  0  0  0  0  0
  -32.1156  -19.8352   22.5554 C   0  0  0  0  0  0
  -33.0286  -20.9019   21.8970 C   0  0  0  0  0  0
  -27.0503  -22.0103   20.1058 C   0  0  0  0  0  0
  -29.9322  -17.4975   21.1397 C   0  0  0  0  0  0
  -28.7508  -23.9073   20.7097 C   0  0  0  0  0  0
  -29.9514  -19.0154   20.5290 C   0  0  0  0  0  0
  -28.1842  -25.0206   19.7431 C   0  0  0  0  0  0
  -28.5349  -22.3318   20.4018 C   0  0  1  0  0  0
  -29.9427  -16.2643   20.1070 C   0  0  1  0  0  0
  -29.8127  -20.1942   21.4949 N   0  0  0  0  0  0
  -30.0907  -21.0366   23.4360 N   0  3  0  0  0  0
  -31.4455  -12.5933   19.1816 H   0  0  0  0  0  0
  -30.3213  -11.5355   20.0121 H   0  0  0  0  0  0
  -29.8135  -11.7258   17.5181 H   0  0  0  0  0  0
  -29.5633  -13.4397   17.7087 H   0  0  0  0  0  0
  -27.9341  -11.1951   18.9630 H   0  0  0  0  0  0
  -27.3677  -12.3529   17.7882 H   0  0  0  0  0  0
  -27.4802  -14.1120   19.3019 H   0  0  0  0  0  0
  -28.6924  -12.3304   21.4916 H   0  0  0  0  0  0
  -28.3479  -14.0363   21.6520 H   0  0  0  0  0  0
  -25.2587   -9.5400   22.4854 H   0  0  0  0  0  0
  -23.9761   -7.4406   22.7492 H   0  0  0  0  0  0
  -21.0678   -8.8636   19.8995 H   0  0  0  0  0  0
  -22.3564  -10.9522   19.6210 H   0  0  0  0  0  0
  -21.2058   -7.6103   23.9693 H   0  0  0  0  0  0
  -21.1533   -6.0532   25.9103 H   0  0  0  0  0  0
  -22.0581   -2.7538   23.2899 H   0  0  0  0  0  0
  -22.3856  -11.9940   22.5006 H   0  0  0  0  0  0
  -21.0966  -13.1389   22.2622 H   0  0  0  0  0  0
  -24.6267  -15.7978   20.5377 H   0  0  0  0  0  0
  -26.2387  -15.5976   20.0699 H   0  0  0  0  0  0
  -26.7235  -32.5382   23.1125 H   0  0  0  0  0  0
  -25.0036  -33.9672   25.0410 H   0  0  0  0  0  0
  -22.7045  -31.3226   21.4187 H   0  0  0  0  0  0
  -23.3771  -35.9635   23.3292 H   0  0  0  0  0  0
  -24.3592  -36.8940   22.2068 H   0  0  0  0  0  0
  -23.7222  -37.6493   23.6652 H   0  0  0  0  0  0
  -26.1160  -31.5493   20.6185 H   0  0  0  0  0  0
  -26.8352  -30.8022   22.0295 H   0  0  0  0  0  0
  -28.0957  -28.9382   21.1777 H   0  0  0  0  0  0
  -25.9055  -26.0152   18.8455 H   0  0  0  0  0  0
  -23.9405  -27.3863   18.9516 H   0  0  0  0  0  0
  -23.7409  -30.6307   19.4130 H   0  0  0  0  0  0
  -22.7336  -29.2851   19.8535 H   0  0  0  0  0  0
  -25.1287  -36.1963   25.0842 H   0  0  0  0  0  0
  -20.9939  -28.3243   24.1376 H   0  0  0  0  0  0
  -20.5520  -26.2326   23.3602 H   0  0  0  0  0  0
  -21.6628  -26.7381   22.1256 H   0  0  0  0  0  0
  -19.6908  -25.6267   21.1202 H   0  0  0  0  0  0
  -19.6650  -27.3174   20.6658 H   0  0  0  0  0  0
  -17.4165  -26.6589   21.4022 H   0  0  0  0  0  0
  -18.0396  -26.0038   22.9006 H   0  0  0  0  0  0
  -19.7955  -30.7203   24.2298 H   0  0  0  0  0  0
  -17.5047  -31.6255   24.5159 H   0  0  0  0  0  0
  -15.5357  -30.3007   23.7632 H   0  0  0  0  0  0
  -15.8636  -28.0801   22.7102 H   0  0  0  0  0  0
  -24.5778  -30.7116   25.7719 H   0  0  0  0  0  0
  -24.8957  -32.2903   26.4859 H   0  0  0  0  0  0
  -25.7901  -30.8710   27.0194 H   0  0  0  0  0  0
  -26.2637  -29.6696   24.1012 H   0  0  0  0  0  0
  -27.3488  -29.6842   25.4619 H   0  0  0  0  0  0
  -27.8676  -30.3863   23.9496 H   0  0  0  0  0  0
  -27.2683  -33.3456   26.1948 H   0  0  0  0  0  0
  -28.3986  -32.6371   25.0530 H   0  0  0  0  0  0
  -28.0410  -31.8139   26.5609 H   0  0  0  0  0  0
  -28.2609  -38.0100   24.7581 H   0  0  0  0  0  0
  -28.1090  -36.2659   24.6262 H   0  0  0  0  0  0
  -27.2333  -37.1410   25.8878 H   0  0  0  0  0  0
  -20.9347  -29.8934   21.6995 H   0  0  0  0  0  0
  -26.0220  -38.2876   24.1358 H   0  0  0  0  0  0
  -27.2925  -21.3998   25.0759 H   0  0  0  0  0  0
  -27.3621  -23.0649   25.6209 H   0  0  0  0  0  0
  -28.8026  -22.0689   25.7028 H   0  0  0  0  0  0
  -35.0625  -21.1934   21.1962 H   0  0  0  0  0  0
  -34.4918  -19.5243   21.0627 H   0  0  0  0  0  0
  -34.9349  -20.1774   22.6305 H   0  0  0  0  0  0
  -25.7427  -20.4871   19.2803 H   0  0  0  0  0  0
  -26.8556  -19.8623   20.4842 H   0  0  0  0  0  0
  -27.4183  -20.2681   18.8468 H   0  0  0  0  0  0
  -28.6376  -15.5835   18.5062 H   0  0  0  0  0  0
  -27.7932  -16.0881   20.0203 H   0  0  0  0  0  0
  -28.4189  -17.2499   18.8840 H   0  0  0  0  0  0
  -27.3727  -23.0096   23.1582 H   0  0  0  0  0  0
  -28.8823  -23.6619   23.7624 H   0  0  0  0  0  0
  -32.2123  -18.8846   22.0350 H   0  0  0  0  0  0
  -32.3939  -19.6786   23.5998 H   0  0  0  0  0  0
  -32.6264  -21.2161   20.9325 H   0  0  0  0  0  0
  -33.0463  -21.8080   22.4991 H   0  0  0  0  0  0
  -26.4249  -22.2490   20.9664 H   0  0  0  0  0  0
  -26.7023  -22.6603   19.3085 H   0  0  0  0  0  0
  -30.7480  -17.3530   21.8441 H   0  0  0  0  0  0
  -29.0256  -17.4027   21.7442 H   0  0  0  0  0  0
  -28.2755  -24.1582   21.6468 H   0  0  0  0  0  0
  -29.8120  -24.0863   20.8791 H   0  0  0  0  0  0
  -29.1610  -19.1204   19.7915 H   0  0  0  0  0  0
  -30.8846  -19.1691   19.9898 H   0  0  0  0  0  0
  -27.1489  -24.7313   19.6458 H   0  0  0  0  0  0
  -28.6292  -24.8791   18.7643 H   0  0  0  0  0  0
  -29.1125  -22.1249   19.4988 H   0  0  0  0  0  0
  -30.6440  -16.6382   19.3581 H   0  0  0  0  0  0
  -30.4361  -21.1688   24.3817 H   0  0  0  0  0  0
  1 25  1  0  0  0
  1 30  2  0  0  0
  1 87  1  0  0  0
  2  3  1  0  0  0
  2 25  1  0  0  0
  2 90  1  0  0  0
  2 91  1  0  0  0
  3  4  1  0  0  0
  3 92  1  0  0  0
  3 93  1  0  0  0
  4  5  1  0  0  0
  4 94  1  0  0  0
  4 95  1  0  0  0
  5  6  1  0  0  0
  5 26  1  0  0  0
  5 96  1  0  0  0
  6 25  1  0  0  0
  6 97  1  0  0  0
  6 98  1  0  0  0
  7  8  2  0  0  0
  7 26  1  0  0  0
  7 29  1  0  0  0
  8  9  1  0  0  0
  8 22  1  0  0  0
  9 10  1  0  0  0
  9 27  2  0  0  0
 10 11  2  0  0  0
 10 15  1  0  0  0
 11 12  1  0  0  0
 11 99  1  0  0  0
 12 13  2  0  0  0
 12100  1  0  0  0
 13 14  1  0  0  0
 13 31  1  0  0  0
 14 15  2  0  0  0
 14101  1  0  0  0
 15102  1  0  0  0
 16 17  2  0  0  0
 16 21  1  0  0  0
 16 31  1  0  0  0
 17 18  1  0  0  0
 17103  1  0  0  0
 18 19  2  0  0  0
 18104  1  0  0  0
 19 20  1  0  0  0
 19 24  1  0  0  0
 20 21  2  0  0  0
 20105  1  0  0  0
 21 23  1  0  0  0
 22 28  1  0  0  0
 22 32  2  0  0  0
 26 27  1  0  0  0
 28106  1  0  0  0
 28107  1  0  0  0
 29108  1  0  0  0
 29109  1  0  0  0
 33 34  1  0  0  0
 33 66  1  0  0  0
 33 70  2  0  0  0
 34 36  1  0  0  0
 34 59  1  0  0  0
 34110  1  0  0  0
 35 44  2  0  0  0
 35 45  1  0  0  0
 35 68  1  0  0  0
 36 56  1  0  0  0
 36111  1  0  0  0
 37 39  1  0  0  0
 37 47  1  0  0  0
 37 66  1  0  0  0
 37112  1  0  0  0
 38 43  2  0  0  0
 38 46  1  0  0  0
 38 47  1  0  0  0
 39 64  1  0  0  0
 39 67  2  0  0  0
 40 52  1  0  0  0
 40 53  2  0  0  0
 40 58  1  0  0  0
 41113  1  0  0  0
 41114  1  0  0  0
 41115  1  0  0  0
 41 48  1  0  0  0
 42 43  1  0  0  0
 42 66  1  0  0  0
 42116  1  0  0  0
 42117  1  0  0  0
 43 44  1  0  0  0
 44118  1  0  0  0
 45 46  2  0  0  0
 45119  1  0  0  0
 46120  1  0  0  0
 47121  1  0  0  0
 47122  1  0  0  0
 48 56  1  0  0  0
 48 65  1  0  0  0
 48123  1  0  0  0
 49 50  1  0  0  0
 49 53  1  0  0  0
 49 64  1  0  0  0
 49124  1  0  0  0
 50 51  1  0  0  0
 50125  1  0  0  0
 50126  1  0  0  0
 51 52  1  0  0  0
 51127  1  0  0  0
 51128  1  0  0  0
 52129  1  0  0  0
 52130  1  0  0  0
 53 54  1  0  0  0
 54 55  2  0  0  0
 54131  1  0  0  0
 55 57  1  0  0  0
 55132  1  0  0  0
 56 69  2  0  0  0
 57 58  2  0  0  0
 57133  1  0  0  0
 58134  1  0  0  0
 59 60  1  0  0  0
 59 61  1  0  0  0
 59 62  1  0  0  0
 60135  1  0  0  0
 60136  1  0  0  0
 60137  1  0  0  0
 61138  1  0  0  0
 61139  1  0  0  0
 61140  1  0  0  0
 62141  1  0  0  0
 62142  1  0  0  0
 62143  1  0  0  0
 63 65  1  0  0  0
 63144  1  0  0  0
 63145  1  0  0  0
 63146  1  0  0  0
 64147  1  0  0  0
 65148  1  0  0  0
 68 85  1  0  0  0
 71 72  2  0  0  0
 71 86  1  0  0  0
 71 88  1  0  0  0
 72 78  1  0  0  0
 72 89  1  0  0  0
 73 79  1  0  0  0
 73 88  1  0  0  0
 73 89  2  0  0  0
 74 78  1  0  0  0
 74149  1  0  0  0
 74150  1  0  0  0
 74151  1  0  0  0
 75 80  1  0  0  0
 75152  1  0  0  0
 75153  1  0  0  0
 75154  1  0  0  0
 76 81  1  0  0  0
 76155  1  0  0  0
 76156  1  0  0  0
 76157  1  0  0  0
 77158  1  0  0  0
 77159  1  0  0  0
 77160  1  0  0  0
 77 87  1  0  0  0
 78161  1  0  0  0
 78162  1  0  0  0
 79 80  1  0  0  0
 79163  1  0  0  0
 79164  1  0  0  0
 80165  1  0  0  0
 80166  1  0  0  0
 81167  1  0  0  0
 81168  1  0  0  0
 81 86  1  0  0  0
 82 84  1  0  0  0
 82 87  1  0  0  0
 82169  1  0  0  0
 82170  1  0  0  0
 83 85  1  0  0  0
 83 86  1  0  0  0
 83171  1  0  0  0
 83172  1  0  0  0
 84 88  1  0  0  0
 84173  1  0  0  0
 84174  1  0  0  0
 85175  1  0  0  0
 85176  1  0  0  0
 86177  1  0  0  0
 87178  1  0  0  0
 89179  1  0  0  0
M  CHG  1  89   1
M  ISO  4   1 100  68 101  85 101  87 100
M  END
> <chiral flag>
0

> <version>
0

> <s_m_source_file>
/data/baiqing/PycharmProjects/Reinvent-master-3.2/result/LINK_invent/BTK/process_docking_weight1_custom_sum_contain_oxygen_bond_distance_aromatic_linkinvent_7_9_3/rearranged_h_0074.sdf

> <i_m_source_file_index>
19

> <r_mmod_Potential_Energy-OPLS-2005>
385.103729248047

> <r_mmod_Stretch_Energy-OPLS-2005>
119.146560668945

> <r_mmod_Bend_Energy-OPLS-2005>
206.181625366211

> <r_mmod_Torsional_Energy-OPLS-2005>
332.185974121094

> <r_mmod_Improper_Torsional_Energy-OPLS-2005>
13.8332786560059

> <r_mmod_Van_der_Waal_Energy-OPLS-2005>
132.325653076172

> <r_mmod_Electrostatic_Energy-OPLS-2005>
-152.139236450195

> <r_mmod_Solvation_Energy-OPLS-2005>
-370.561248779297

> <b_mmod_Minimization_Converged-OPLS-2005>
0

> <r_mmod_RMS_Derivative-OPLS-2005>
8.48821544647217

$$$$
19
                    3D
 Structure written by MMmdl.
161169  0  0  1  0            999 V2000
  -30.5060  -14.9936   20.4627 C   0  0  0  0  0  0
  -30.4513  -12.6241   19.4908 C   0  0  0  0  0  0
  -29.5168  -12.5364   18.2575 C   0  0  0  0  0  0
  -28.0560  -12.2858   18.6810 C   0  0  0  0  0  0
  -27.6294  -13.2074   19.8464 C   0  0  2  0  0  0
  -28.6863  -13.2042   20.9772 C   0  0  0  0  0  0
  -25.2351  -13.8036   20.5578 C   0  0  0  0  0  0
  -24.1720  -13.0316   20.9259 C   0  0  0  0  0  0
  -24.6345  -11.6816   20.8845 C   0  0  0  0  0  0
  -23.9050  -10.4215   21.0445 C   0  0  0  0  0  0
  -24.3616   -9.4141   21.9207 C   0  0  0  0  0  0
  -23.6290   -8.2187   22.0758 C   0  0  0  0  0  0
  -22.4267   -8.0257   21.3547 C   0  0  0  0  0  0
  -21.9907   -9.0224   20.4643 C   0  0  0  0  0  0
  -22.7239  -10.2092   20.3068 C   0  0  0  0  0  0
  -21.6831   -6.0756   22.5287 C   0  0  0  0  0  0
  -21.4007   -6.5656   23.8224 C   0  0  0  0  0  0
  -21.3649   -5.6798   24.9175 C   0  0  0  0  0  0
  -21.6033   -4.3062   24.7222 C   0  0  0  0  0  0
  -21.8818   -3.8173   23.4342 C   0  0  0  0  0  0
  -21.9185   -4.6994   22.3408 C   0  0  0  0  0  0
  -22.7748  -13.5127   21.1897 C   0  0  0  0  0  0
  -22.1660   -4.2191   21.0985 F   0  0  0  0  0  0
  -21.5609   -3.4537   25.7735 F   0  0  0  0  0  0
  -29.9443  -13.7038   20.3965 N   0  0  0  0  0  0
  -26.2853  -12.9255   20.3303 N   0  0  0  0  0  0
  -25.9276  -11.6435   20.5872 N   0  0  0  0  0  0
  -22.0377  -12.8160   22.0466 N   0  0  0  0  0  0
  -25.3665  -15.1748   20.3706 N   0  0  0  0  0  0
  -31.6899  -15.0426   20.1102 O   0  0  0  0  0  0
  -21.6606   -6.8886   21.4247 O   0  0  0  0  0  0
  -22.3456  -14.5443   20.6727 O   0  0  0  0  0  0
  -24.6416  -31.8467   23.1884 C   0  0  0  0  0  0
  -25.9198  -32.4701   23.8270 C   0  0  1  0  0  0
  -27.2230  -27.1582   20.1597 C   0  0  0  0  0  0
  -25.5959  -33.8507   24.2200 N   0  0  0  0  0  0
  -23.4431  -30.4644   21.5338 C   0  0  2  0  0  0
  -24.8937  -28.8889   20.1157 C   0  0  0  0  0  0
  -22.7550  -29.4567   22.4876 C   0  0  0  0  0  0
  -18.0308  -28.1394   22.8483 C   0  0  0  0  0  0
  -24.1497  -36.7261   23.2643 C   0  0  0  0  0  0
  -25.9962  -30.7282   21.3833 C   0  0  0  0  0  0
  -26.0693  -29.3391   20.7308 C   0  0  0  0  0  0
  -27.2369  -28.4913   20.7309 C   0  0  0  0  0  0
  -26.0225  -26.7987   19.5106 C   0  0  0  0  0  0
  -24.8822  -27.6316   19.4906 C   0  0  0  0  0  0
  -23.6684  -29.7898   20.1543 C   0  0  0  0  0  0
  -25.4130  -36.3041   24.0319 C   0  0  1  0  0  0
  -20.5910  -28.3722   23.1254 C   0  0  2  0  0  0
  -20.6805  -26.9434   22.5415 C   0  0  0  0  0  0
  -19.5774  -26.6385   21.5228 C   0  0  0  0  0  0
  -18.1948  -26.7936   22.1627 C   0  0  0  0  0  0
  -19.1556  -28.8875   23.2863 C   0  0  0  0  0  0
  -18.9482  -30.1471   23.8891 C   0  0  0  0  0  0
  -17.6479  -30.6593   24.0567 C   0  0  0  0  0  0
  -25.9081  -34.9415   23.5063 C   0  0  0  0  0  0
  -16.5371  -29.9088   23.6334 C   0  0  0  0  0  0
  -16.7295  -28.6501   23.0364 C   0  0  0  0  0  0
  -26.4541  -31.6550   25.0696 C   0  0  0  0  0  0
  -25.3726  -31.3712   26.1377 C   0  0  0  0  0  0
  -27.0402  -30.2953   24.6249 C   0  0  0  0  0  0
  -27.6068  -32.4313   25.7491 C   0  0  0  0  0  0
  -27.5581  -37.1784   24.8465 C   0  0  0  0  0  0
  -21.4245  -29.3051   22.3627 N   0  0  0  0  0  0
  -26.4293  -37.3754   23.9410 N   0  0  0  0  0  0
  -24.7124  -31.0341   22.0900 N   0  0  0  0  0  0
  -23.4212  -28.8130   23.3022 O   0  0  0  0  0  0
  -28.3015  -26.2095   20.1705 O   0  0  0  0  0  0
  -26.5662  -34.8899   22.4643 O   0  0  0  0  0  0
  -23.5540  -32.1343   23.7113 O   0  0  0  0  0  0
  -27.8507  -20.6506   18.7561 C   0  0  0  0  0  0
  -27.7703  -19.4839   18.0600 C   0  0  0  0  0  0
  -29.2080  -19.1332   19.7573 C   0  0  0  0  0  0
  -31.5522  -18.0935   19.7868 C   0  0  0  0  0  0
  -28.2355  -16.3963   20.6564 C   0  0  0  0  0  0
  -29.9012  -16.4305   22.4573 C   0  0  0  0  0  0
  -28.9013  -23.3866   19.9275 C   0  0  0  0  0  0
  -29.0379  -21.8303   20.5963 C   0  0  0  0  0  0
  -28.1072  -24.7211   20.5632 C   0  0  0  0  0  0
  -30.1933  -18.0648   20.4995 C   0  0  2  0  0  0
  -29.7485  -16.4502   20.9182 C   0  0  0  0  0  0
  -28.7949  -20.5137   19.7505 N   0  0  0  0  0  0
  -28.6295  -18.6202   18.6603 N   0  3  0  0  0  0
  -31.4725  -12.8104   19.1583 H   0  0  0  0  0  0
  -30.4944  -11.6660   20.0122 H   0  0  0  0  0  0
  -29.8534  -11.7437   17.5870 H   0  0  0  0  0  0
  -29.5772  -13.4649   17.6883 H   0  0  0  0  0  0
  -27.9740  -11.2433   18.9929 H   0  0  0  0  0  0
  -27.3813  -12.4088   17.8329 H   0  0  0  0  0  0
  -27.5868  -14.1898   19.3944 H   0  0  0  0  0  0
  -28.8126  -12.1898   21.3614 H   0  0  0  0  0  0
  -28.3815  -13.7796   21.8473 H   0  0  0  0  0  0
  -25.2737   -9.5637   22.4824 H   0  0  0  0  0  0
  -23.9995   -7.4576   22.7481 H   0  0  0  0  0  0
  -21.0846   -8.8753   19.8949 H   0  0  0  0  0  0
  -22.3696  -10.9662   19.6217 H   0  0  0  0  0  0
  -21.1998   -7.6158   23.9748 H   0  0  0  0  0  0
  -21.1467   -6.0515   25.9081 H   0  0  0  0  0  0
  -22.0604   -2.7645   23.2816 H   0  0  0  0  0  0
  -22.4021  -11.9888   22.4974 H   0  0  0  0  0  0
  -21.0983  -13.1198   22.2630 H   0  0  0  0  0  0
  -24.5684  -15.7918   20.4754 H   0  0  0  0  0  0
  -26.1884  -15.6422   20.0171 H   0  0  0  0  0  0
  -26.7254  -32.5331   23.0991 H   0  0  0  0  0  0
  -25.0066  -33.9628   25.0317 H   0  0  0  0  0  0
  -22.7457  -31.2895   21.3783 H   0  0  0  0  0  0
  -23.3762  -35.9587   23.3289 H   0  0  0  0  0  0
  -24.3574  -36.8915   22.2059 H   0  0  0  0  0  0
  -23.7239  -37.6449   23.6687 H   0  0  0  0  0  0
  -26.1463  -31.4808   20.6072 H   0  0  0  0  0  0
  -26.8695  -30.7808   22.0212 H   0  0  0  0  0  0
  -28.1371  -28.8370   21.2194 H   0  0  0  0  0  0
  -25.9557  -25.8391   19.0182 H   0  0  0  0  0  0
  -23.9848  -27.2845   18.9970 H   0  0  0  0  0  0
  -23.8028  -30.5624   19.3964 H   0  0  0  0  0  0
  -22.7840  -29.2287   19.8465 H   0  0  0  0  0  0
  -25.1312  -36.1873   25.0811 H   0  0  0  0  0  0
  -21.0012  -28.3314   24.1368 H   0  0  0  0  0  0
  -20.5723  -26.2342   23.3632 H   0  0  0  0  0  0
  -21.6675  -26.7462   22.1203 H   0  0  0  0  0  0
  -19.6951  -25.6293   21.1269 H   0  0  0  0  0  0
  -19.6706  -27.3188   20.6749 H   0  0  0  0  0  0
  -17.4231  -26.6687   21.4020 H   0  0  0  0  0  0
  -18.0333  -26.0081   22.9020 H   0  0  0  0  0  0
  -19.7963  -30.7289   24.2261 H   0  0  0  0  0  0
  -17.5040  -31.6275   24.5164 H   0  0  0  0  0  0
  -15.5375  -30.2995   23.7661 H   0  0  0  0  0  0
  -15.8696  -28.0821   22.7095 H   0  0  0  0  0  0
  -24.5922  -30.7052   25.7679 H   0  0  0  0  0  0
  -24.8892  -32.2885   26.4751 H   0  0  0  0  0  0
  -25.8008  -30.8912   27.0182 H   0  0  0  0  0  0
  -26.3009  -29.6668   24.1269 H   0  0  0  0  0  0
  -27.4045  -29.7254   25.4806 H   0  0  0  0  0  0
  -27.8906  -30.4199   23.9538 H   0  0  0  0  0  0
  -27.2663  -33.3630   26.2012 H   0  0  0  0  0  0
  -28.3912  -32.6839   25.0348 H   0  0  0  0  0  0
  -28.0691  -31.8468   26.5453 H   0  0  0  0  0  0
  -28.2586  -38.0093   24.7520 H   0  0  0  0  0  0
  -28.1088  -36.2618   24.6281 H   0  0  0  0  0  0
  -27.2292  -37.1421   25.8866 H   0  0  0  0  0  0
  -20.9463  -29.8740   21.6782 H   0  0  0  0  0  0
  -26.0161  -38.2826   24.1400 H   0  0  0  0  0  0
  -27.3031  -21.5659   18.5854 H   0  0  0  0  0  0
  -27.1746  -19.2096   17.2005 H   0  0  0  0  0  0
  -31.4922  -17.6190   18.8072 H   0  0  0  0  0  0
  -32.3145  -17.5742   20.3667 H   0  0  0  0  0  0
  -31.9044  -19.1151   19.6375 H   0  0  0  0  0  0
  -27.7385  -17.3192   20.9593 H   0  0  0  0  0  0
  -27.7364  -15.6453   21.2517 H   0  0  0  0  0  0
  -28.0167  -16.2412   19.6029 H   0  0  0  0  0  0
  -29.2825  -17.1941   22.9328 H   0  0  0  0  0  0
  -30.9342  -16.6130   22.7531 H   0  0  0  0  0  0
  -29.6049  -15.4757   22.8949 H   0  0  0  0  0  0
  -28.5457  -23.2970   18.9033 H   0  0  0  0  0  0
  -29.9319  -23.7138   19.7914 H   0  0  0  0  0  0
  -28.3517  -21.7666   21.4402 H   0  0  0  0  0  0
  -30.0306  -21.7282   21.0342 H   0  0  0  0  0  0
  -28.3222  -24.7090   21.6331 H   0  0  0  0  0  0
  -27.0426  -24.4937   20.5136 H   0  0  0  0  0  0
  -30.3679  -18.5924   21.4375 H   0  0  0  0  0  0
  -28.7875  -17.6761   18.3330 H   0  0  0  0  0  0
  1 25  1  0  0  0
  1 30  2  0  0  0
  1 81  1  0  0  0
  2  3  1  0  0  0
  2 25  1  0  0  0
  2 84  1  0  0  0
  2 85  1  0  0  0
  3  4  1  0  0  0
  3 86  1  0  0  0
  3 87  1  0  0  0
  4  5  1  0  0  0
  4 88  1  0  0  0
  4 89  1  0  0  0
  5  6  1  0  0  0
  5 26  1  0  0  0
  5 90  1  0  0  0
  6 25  1  0  0  0
  6 91  1  0  0  0
  6 92  1  0  0  0
  7  8  2  0  0  0
  7 26  1  0  0  0
  7 29  1  0  0  0
  8  9  1  0  0  0
  8 22  1  0  0  0
  9 10  1  0  0  0
  9 27  2  0  0  0
 10 11  2  0  0  0
 10 15  1  0  0  0
 11 12  1  0  0  0
 11 93  1  0  0  0
 12 13  2  0  0  0
 12 94  1  0  0  0
 13 14  1  0  0  0
 13 31  1  0  0  0
 14 15  2  0  0  0
 14 95  1  0  0  0
 15 96  1  0  0  0
 16 17  2  0  0  0
 16 21  1  0  0  0
 16 31  1  0  0  0
 17 18  1  0  0  0
 17 97  1  0  0  0
 18 19  2  0  0  0
 18 98  1  0  0  0
 19 20  1  0  0  0
 19 24  1  0  0  0
 20 21  2  0  0  0
 20 99  1  0  0  0
 21 23  1  0  0  0
 22 28  1  0  0  0
 22 32  2  0  0  0
 26 27  1  0  0  0
 28100  1  0  0  0
 28101  1  0  0  0
 29102  1  0  0  0
 29103  1  0  0  0
 33 34  1  0  0  0
 33 66  1  0  0  0
 33 70  2  0  0  0
 34 36  1  0  0  0
 34 59  1  0  0  0
 34104  1  0  0  0
 35 44  2  0  0  0
 35 45  1  0  0  0
 35 68  1  0  0  0
 36 56  1  0  0  0
 36105  1  0  0  0
 37 39  1  0  0  0
 37 47  1  0  0  0
 37 66  1  0  0  0
 37106  1  0  0  0
 38 43  2  0  0  0
 38 46  1  0  0  0
 38 47  1  0  0  0
 39 64  1  0  0  0
 39 67  2  0  0  0
 40 52  1  0  0  0
 40 53  2  0  0  0
 40 58  1  0  0  0
 41107  1  0  0  0
 41108  1  0  0  0
 41109  1  0  0  0
 41 48  1  0  0  0
 42 43  1  0  0  0
 42 66  1  0  0  0
 42110  1  0  0  0
 42111  1  0  0  0
 43 44  1  0  0  0
 44112  1  0  0  0
 45 46  2  0  0  0
 45113  1  0  0  0
 46114  1  0  0  0
 47115  1  0  0  0
 47116  1  0  0  0
 48 56  1  0  0  0
 48 65  1  0  0  0
 48117  1  0  0  0
 49 50  1  0  0  0
 49 53  1  0  0  0
 49 64  1  0  0  0
 49118  1  0  0  0
 50 51  1  0  0  0
 50119  1  0  0  0
 50120  1  0  0  0
 51 52  1  0  0  0
 51121  1  0  0  0
 51122  1  0  0  0
 52123  1  0  0  0
 52124  1  0  0  0
 53 54  1  0  0  0
 54 55  2  0  0  0
 54125  1  0  0  0
 55 57  1  0  0  0
 55126  1  0  0  0
 56 69  2  0  0  0
 57 58  2  0  0  0
 57127  1  0  0  0
 58128  1  0  0  0
 59 60  1  0  0  0
 59 61  1  0  0  0
 59 62  1  0  0  0
 60129  1  0  0  0
 60130  1  0  0  0
 60131  1  0  0  0
 61132  1  0  0  0
 61133  1  0  0  0
 61134  1  0  0  0
 62135  1  0  0  0
 62136  1  0  0  0
 62137  1  0  0  0
 63 65  1  0  0  0
 63138  1  0  0  0
 63139  1  0  0  0
 63140  1  0  0  0
 64141  1  0  0  0
 65142  1  0  0  0
 68 79  1  0  0  0
 71 72  2  0  0  0
 71 82  1  0  0  0
 71143  1  0  0  0
 72 83  1  0  0  0
 72144  1  0  0  0
 73 80  1  0  0  0
 73 82  1  0  0  0
 73 83  2  0  0  0
 74145  1  0  0  0
 74146  1  0  0  0
 74147  1  0  0  0
 74 80  1  0  0  0
 75148  1  0  0  0
 75149  1  0  0  0
 75150  1  0  0  0
 75 81  1  0  0  0
 76 81  1  0  0  0
 76151  1  0  0  0
 76152  1  0  0  0
 76153  1  0  0  0
 77 78  1  0  0  0
 77 79  1  0  0  0
 77154  1  0  0  0
 77155  1  0  0  0
 78 82  1  0  0  0
 78156  1  0  0  0
 78157  1  0  0  0
 79158  1  0  0  0
 79159  1  0  0  0
 80 81  1  0  0  0
 80160  1  0  0  0
 83161  1  0  0  0
M  CHG  1  83   1
M  ISO  4   1 100  68 101  79 101  81 100
M  END
> <chiral flag>
0

> <version>
0

> <s_m_source_file>
/data/baiqing/PycharmProjects/Reinvent-master-3.2/result/LINK_invent/BTK/process_docking_weight1_custom_sum_contain_oxygen_bond_distance_aromatic_linkinvent_7_9_3/rearranged_h_0074.sdf

> <i_m_source_file_index>
20

> <r_mmod_Potential_Energy-OPLS-2005>
639.109008789062

> <r_mmod_Stretch_Energy-OPLS-2005>
304.287994384766

> <r_mmod_Bend_Energy-OPLS-2005>
338.185577392578

> <r_mmod_Torsional_Energy-OPLS-2005>
241.71142578125

> <r_mmod_Improper_Torsional_Energy-OPLS-2005>
2.49462199211121

> <r_mmod_Van_der_Waal_Energy-OPLS-2005>
129.869903564453

> <r_mmod_Electrostatic_Energy-OPLS-2005>
-157.516479492188

> <r_mmod_Solvation_Energy-OPLS-2005>
-407.635620117188

> <b_mmod_Minimization_Converged-OPLS-2005>
0

> <r_mmod_RMS_Derivative-OPLS-2005>
2.52370619773865

$$$$
20
                    3D
 Structure written by MMmdl.
187195  0  0  1  0            999 V2000
  -30.7406  -14.4338   20.6076 C   0  0  0  0  0  0
  -30.4118  -12.2962   19.4155 C   0  0  0  0  0  0
  -29.4892  -12.5161   18.2008 C   0  0  0  0  0  0
  -28.0091  -12.3829   18.6090 C   0  0  0  0  0  0
  -27.6624  -13.2119   19.8750 C   0  0  2  0  0  0
  -28.7019  -12.9711   20.9902 C   0  0  0  0  0  0
  -25.2597  -13.8185   20.5675 C   0  0  0  0  0  0
  -24.1846  -13.0453   20.9160 C   0  0  0  0  0  0
  -24.6403  -11.6919   20.8716 C   0  0  0  0  0  0
  -23.9068  -10.4303   21.0396 C   0  0  0  0  0  0
  -24.3616   -9.4217   21.9180 C   0  0  0  0  0  0
  -23.6293   -8.2251   22.0751 C   0  0  0  0  0  0
  -22.4276   -8.0287   21.3540 C   0  0  0  0  0  0
  -21.9910   -9.0262   20.4647 C   0  0  0  0  0  0
  -22.7238  -10.2142   20.3051 C   0  0  0  0  0  0
  -21.6856   -6.0736   22.5276 C   0  0  0  0  0  0
  -21.4017   -6.5638   23.8209 C   0  0  0  0  0  0
  -21.3658   -5.6790   24.9172 C   0  0  0  0  0  0
  -21.6043   -4.3053   24.7224 C   0  0  0  0  0  0
  -21.8821   -3.8147   23.4345 C   0  0  0  0  0  0
  -21.9192   -4.6963   22.3401 C   0  0  0  0  0  0
  -22.7870  -13.5248   21.1831 C   0  0  0  0  0  0
  -22.1659   -4.2147   21.0979 F   0  0  0  0  0  0
  -21.5630   -3.4539   25.7738 F   0  0  0  0  0  0
  -30.0336  -13.2786   20.4461 N   0  0  0  0  0  0
  -26.3032  -12.9358   20.3360 N   0  0  0  0  0  0
  -25.9332  -11.6511   20.5747 N   0  0  0  0  0  0
  -22.0516  -12.8233   22.0388 N   0  0  0  0  0  0
  -25.4345  -15.1900   20.4102 N   0  0  0  0  0  0
  -31.8469  -14.5785   20.0725 O   0  0  0  0  0  0
  -21.6641   -6.8883   21.4239 O   0  0  0  0  0  0
  -22.3549  -14.5557   20.6690 O   0  0  0  0  0  0
  -24.6156  -31.8676   23.2097 C   0  0  0  0  0  0
  -25.9053  -32.4811   23.8387 C   0  0  1  0  0  0
  -27.2329  -27.4458   20.0946 C   0  0  0  0  0  0
  -25.5916  -33.8608   24.2319 N   0  0  0  0  0  0
  -23.4025  -30.4912   21.5512 C   0  0  2  0  0  0
  -24.8475  -28.9545   20.1182 C   0  0  0  0  0  0
  -22.7412  -29.4658   22.5004 C   0  0  0  0  0  0
  -18.0273  -28.1379   22.8488 C   0  0  0  0  0  0
  -24.1493  -36.7313   23.2634 C   0  0  0  0  0  0
  -25.9292  -30.8371   21.3587 C   0  0  0  0  0  0
  -26.0067  -29.4702   20.7111 C   0  0  0  0  0  0
  -27.2056  -28.7228   20.6953 C   0  0  0  0  0  0
  -26.0605  -26.9378   19.4993 C   0  0  0  0  0  0
  -24.8681  -27.6867   19.5095 C   0  0  0  0  0  0
  -23.6091  -29.8199   20.1671 C   0  0  0  0  0  0
  -25.4109  -36.3100   24.0333 C   0  0  1  0  0  0
  -20.5862  -28.3659   23.1331 C   0  0  2  0  0  0
  -20.6766  -26.9399   22.5423 C   0  0  0  0  0  0
  -19.5749  -26.6385   21.5219 C   0  0  0  0  0  0
  -18.1918  -26.7923   22.1618 C   0  0  0  0  0  0
  -19.1522  -28.8832   23.2899 C   0  0  0  0  0  0
  -18.9448  -30.1439   23.8905 C   0  0  0  0  0  0
  -17.6450  -30.6577   24.0565 C   0  0  0  0  0  0
  -25.9045  -34.9464   23.5121 C   0  0  0  0  0  0
  -16.5339  -29.9078   23.6328 C   0  0  0  0  0  0
  -16.7259  -28.6502   23.0341 C   0  0  0  0  0  0
  -26.4476  -31.6587   25.0718 C   0  0  0  0  0  0
  -25.3745  -31.3667   26.1471 C   0  0  0  0  0  0
  -27.0296  -30.3034   24.6065 C   0  0  0  0  0  0
  -27.6062  -32.4297   25.7482 C   0  0  0  0  0  0
  -27.5568  -37.1801   24.8461 C   0  0  0  0  0  0
  -21.4145  -29.3028   22.3739 N   0  0  0  0  0  0
  -26.4284  -37.3788   23.9409 N   0  0  0  0  0  0
  -24.6678  -31.0805   22.0981 N   0  0  0  0  0  0
  -23.4184  -28.8204   23.3054 O   0  0  0  0  0  0
  -28.3979  -26.7180   20.0544 O   0  0  0  0  0  0
  -26.5600  -34.8918   22.4678 O   0  0  0  0  0  0
  -23.5354  -32.1417   23.7512 O   0  0  0  0  0  0
  -29.0775  -17.8418   18.7067 C   0  0  0  0  0  0
  -28.5859  -18.5487   19.7766 C   0  0  0  0  0  0
  -29.6516  -16.7354   20.4979 C   0  0  0  0  0  0
  -28.9504  -18.1296   17.2424 C   0  0  0  0  0  0
  -31.3283  -16.1349   22.3630 C   0  0  0  0  0  0
  -30.5266  -23.9787   24.5720 C   0  0  0  0  0  0
  -30.2769  -22.1674   26.3137 C   0  0  0  0  0  0
  -25.9488  -22.1272   19.6258 C   0  0  0  0  0  0
  -27.6917  -19.7720   19.7385 C   0  0  0  0  0  0
  -28.2340  -21.0934   20.3392 C   0  0  0  0  0  0
  -29.5363  -20.2698   23.8400 C   0  0  0  0  0  0
  -29.9335  -19.3277   22.6923 C   0  0  0  0  0  0
  -29.0711  -24.3513   20.0020 C   0  0  0  0  0  0
  -30.3811  -21.5566   23.8417 C   0  0  0  0  0  0
  -28.1001  -23.4377   19.2232 C   0  0  0  0  0  0
  -28.8266  -18.3224   22.2948 C   0  0  0  0  0  0
  -28.3825  -25.4901   20.7891 C   0  0  0  0  0  0
  -30.2008  -15.6446   21.4285 C   0  0  2  0  0  0
  -29.9270  -22.5981   24.8811 C   0  0  0  0  0  0
  -27.3878  -22.3840   20.1095 C   0  0  1  0  0  0
  -29.7340  -16.7106   19.1647 N   0  0  0  0  0  0
  -29.0213  -17.8642   20.9248 N   0  0  0  0  0  0
  -31.4576  -12.3733   19.1138 H   0  0  0  0  0  0
  -30.2963  -11.2832   19.8042 H   0  0  0  0  0  0
  -29.7259  -11.8002   17.4126 H   0  0  0  0  0  0
  -29.6667  -13.5073   17.7799 H   0  0  0  0  0  0
  -27.8088  -11.3263   18.7900 H   0  0  0  0  0  0
  -27.3632  -12.6756   17.7805 H   0  0  0  0  0  0
  -27.7147  -14.2646   19.5948 H   0  0  0  0  0  0
  -28.6755  -11.9249   21.2992 H   0  0  0  0  0  0
  -28.4461  -13.5260   21.8890 H   0  0  0  0  0  0
  -25.2766   -9.5691   22.4747 H   0  0  0  0  0  0
  -24.0005   -7.4641   22.7469 H   0  0  0  0  0  0
  -21.0839   -8.8782   19.8954 H   0  0  0  0  0  0
  -22.3703  -10.9675   19.6153 H   0  0  0  0  0  0
  -21.2009   -7.6146   23.9711 H   0  0  0  0  0  0
  -21.1476   -6.0521   25.9073 H   0  0  0  0  0  0
  -22.0601   -2.7608   23.2847 H   0  0  0  0  0  0
  -22.4134  -11.9888   22.4759 H   0  0  0  0  0  0
  -21.1138  -13.1260   22.2607 H   0  0  0  0  0  0
  -24.6726  -15.8500   20.5199 H   0  0  0  0  0  0
  -26.2940  -15.6252   20.0979 H   0  0  0  0  0  0
  -26.7128  -32.5530   23.1156 H   0  0  0  0  0  0
  -25.0105  -33.9765   25.0490 H   0  0  0  0  0  0
  -22.6922  -31.3084   21.4099 H   0  0  0  0  0  0
  -23.3744  -35.9652   23.3311 H   0  0  0  0  0  0
  -24.3587  -36.8926   22.2044 H   0  0  0  0  0  0
  -23.7259  -37.6525   23.6652 H   0  0  0  0  0  0
  -26.0404  -31.5995   20.5863 H   0  0  0  0  0  0
  -26.8185  -30.8932   21.9742 H   0  0  0  0  0  0
  -28.1057  -29.1176   21.1464 H   0  0  0  0  0  0
  -26.0710  -25.9696   19.0217 H   0  0  0  0  0  0
  -23.9782  -27.2842   19.0460 H   0  0  0  0  0  0
  -23.7143  -30.5921   19.4044 H   0  0  0  0  0  0
  -22.7330  -29.2379   19.8750 H   0  0  0  0  0  0
  -25.1283  -36.1954   25.0823 H   0  0  0  0  0  0
  -20.9939  -28.3219   24.1460 H   0  0  0  0  0  0
  -20.5703  -26.2252   23.3605 H   0  0  0  0  0  0
  -21.6632  -26.7471   22.1185 H   0  0  0  0  0  0
  -19.6918  -25.6308   21.1230 H   0  0  0  0  0  0
  -19.6689  -27.3214   20.6769 H   0  0  0  0  0  0
  -17.4196  -26.6685   21.4016 H   0  0  0  0  0  0
  -18.0300  -26.0068   22.9012 H   0  0  0  0  0  0
  -19.7918  -30.7252   24.2277 H   0  0  0  0  0  0
  -17.5000  -31.6261   24.5162 H   0  0  0  0  0  0
  -15.5333  -30.2971   23.7659 H   0  0  0  0  0  0
  -15.8667  -28.0824   22.7043 H   0  0  0  0  0  0
  -24.5930  -30.7007   25.7805 H   0  0  0  0  0  0
  -24.8920  -32.2804   26.4949 H   0  0  0  0  0  0
  -25.8100  -30.8815   27.0218 H   0  0  0  0  0  0
  -26.2811  -29.6795   24.1166 H   0  0  0  0  0  0
  -27.4136  -29.7264   25.4492 H   0  0  0  0  0  0
  -27.8621  -30.4373   23.9150 H   0  0  0  0  0  0
  -27.2696  -33.3590   26.2076 H   0  0  0  0  0  0
  -28.3848  -32.6859   25.0291 H   0  0  0  0  0  0
  -28.0747  -31.8408   26.5374 H   0  0  0  0  0  0
  -28.2587  -38.0096   24.7509 H   0  0  0  0  0  0
  -28.1055  -36.2629   24.6278 H   0  0  0  0  0  0
  -27.2288  -37.1447   25.8863 H   0  0  0  0  0  0
  -20.9313  -29.8744   21.6954 H   0  0  0  0  0  0
  -26.0170  -38.2865   24.1414 H   0  0  0  0  0  0
  -27.9215  -18.3636   16.9713 H   0  0  0  0  0  0
  -29.2606  -17.2795   16.6341 H   0  0  0  0  0  0
  -29.5663  -18.9822   16.9547 H   0  0  0  0  0  0
  -30.9330  -16.6803   23.2152 H   0  0  0  0  0  0
  -32.0364  -16.7738   21.8344 H   0  0  0  0  0  0
  -31.8883  -15.3001   22.7864 H   0  0  0  0  0  0
  -30.1733  -24.7300   25.2790 H   0  0  0  0  0  0
  -30.2459  -24.3172   23.5739 H   0  0  0  0  0  0
  -31.6162  -23.9637   24.6208 H   0  0  0  0  0  0
  -29.9278  -22.9011   27.0405 H   0  0  0  0  0  0
  -31.3546  -22.0610   26.4435 H   0  0  0  0  0  0
  -29.8167  -21.2145   26.5742 H   0  0  0  0  0  0
  -25.4214  -21.4412   20.2894 H   0  0  0  0  0  0
  -25.9262  -21.7132   18.6181 H   0  0  0  0  0  0
  -25.3746  -23.0540   19.6069 H   0  0  0  0  0  0
  -26.7492  -19.5163   20.2231 H   0  0  0  0  0  0
  -27.4338  -19.9634   18.6971 H   0  0  0  0  0  0
  -29.2556  -21.2522   19.9911 H   0  0  0  0  0  0
  -28.3033  -20.9677   21.4149 H   0  0  0  0  0  0
  -29.6271  -19.7391   24.7882 H   0  0  0  0  0  0
  -28.4862  -20.5475   23.7428 H   0  0  0  0  0  0
  -30.8597  -18.8191   22.9487 H   0  0  0  0  0  0
  -30.2005  -19.9225   21.8198 H   0  0  0  0  0  0
  -29.7991  -24.7854   19.3155 H   0  0  0  0  0  0
  -29.6546  -23.7376   20.6900 H   0  0  0  0  0  0
  -30.3105  -22.0080   22.8501 H   0  0  0  0  0  0
  -31.4356  -21.3154   23.9827 H   0  0  0  0  0  0
  -28.6352  -22.9309   18.4191 H   0  0  0  0  0  0
  -27.3701  -24.0725   18.7202 H   0  0  0  0  0  0
  -27.8434  -18.7895   22.3497 H   0  0  0  0  0  0
  -28.7863  -17.4766   22.9805 H   0  0  0  0  0  0
  -28.9351  -25.6714   21.7118 H   0  0  0  0  0  0
  -27.3795  -25.1912   21.1016 H   0  0  0  0  0  0
  -29.3847  -15.3347   22.0708 H   0  0  0  0  0  0
  -28.8420  -22.6958   24.8108 H   0  0  0  0  0  0
  -27.2690  -22.8420   21.0928 H   0  0  0  0  0  0
  1 25  1  0  0  0
  1 30  2  0  0  0
  1 88  1  0  0  0
  2  3  1  0  0  0
  2 25  1  0  0  0
  2 93  1  0  0  0
  2 94  1  0  0  0
  3  4  1  0  0  0
  3 95  1  0  0  0
  3 96  1  0  0  0
  4  5  1  0  0  0
  4 97  1  0  0  0
  4 98  1  0  0  0
  5  6  1  0  0  0
  5 26  1  0  0  0
  5 99  1  0  0  0
  6 25  1  0  0  0
  6100  1  0  0  0
  6101  1  0  0  0
  7  8  2  0  0  0
  7 26  1  0  0  0
  7 29  1  0  0  0
  8  9  1  0  0  0
  8 22  1  0  0  0
  9 10  1  0  0  0
  9 27  2  0  0  0
 10 11  2  0  0  0
 10 15  1  0  0  0
 11 12  1  0  0  0
 11102  1  0  0  0
 12 13  2  0  0  0
 12103  1  0  0  0
 13 14  1  0  0  0
 13 31  1  0  0  0
 14 15  2  0  0  0
 14104  1  0  0  0
 15105  1  0  0  0
 16 17  2  0  0  0
 16 21  1  0  0  0
 16 31  1  0  0  0
 17 18  1  0  0  0
 17106  1  0  0  0
 18 19  2  0  0  0
 18107  1  0  0  0
 19 20  1  0  0  0
 19 24  1  0  0  0
 20 21  2  0  0  0
 20108  1  0  0  0
 21 23  1  0  0  0
 22 28  1  0  0  0
 22 32  2  0  0  0
 26 27  1  0  0  0
 28109  1  0  0  0
 28110  1  0  0  0
 29111  1  0  0  0
 29112  1  0  0  0
 33 34  1  0  0  0
 33 66  1  0  0  0
 33 70  2  0  0  0
 34 36  1  0  0  0
 34 59  1  0  0  0
 34113  1  0  0  0
 35 44  2  0  0  0
 35 45  1  0  0  0
 35 68  1  0  0  0
 36 56  1  0  0  0
 36114  1  0  0  0
 37 39  1  0  0  0
 37 47  1  0  0  0
 37 66  1  0  0  0
 37115  1  0  0  0
 38 43  2  0  0  0
 38 46  1  0  0  0
 38 47  1  0  0  0
 39 64  1  0  0  0
 39 67  2  0  0  0
 40 52  1  0  0  0
 40 53  2  0  0  0
 40 58  1  0  0  0
 41116  1  0  0  0
 41117  1  0  0  0
 41118  1  0  0  0
 41 48  1  0  0  0
 42 43  1  0  0  0
 42 66  1  0  0  0
 42119  1  0  0  0
 42120  1  0  0  0
 43 44  1  0  0  0
 44121  1  0  0  0
 45 46  2  0  0  0
 45122  1  0  0  0
 46123  1  0  0  0
 47124  1  0  0  0
 47125  1  0  0  0
 48 56  1  0  0  0
 48 65  1  0  0  0
 48126  1  0  0  0
 49 50  1  0  0  0
 49 53  1  0  0  0
 49 64  1  0  0  0
 49127  1  0  0  0
 50 51  1  0  0  0
 50128  1  0  0  0
 50129  1  0  0  0
 51 52  1  0  0  0
 51130  1  0  0  0
 51131  1  0  0  0
 52132  1  0  0  0
 52133  1  0  0  0
 53 54  1  0  0  0
 54 55  2  0  0  0
 54134  1  0  0  0
 55 57  1  0  0  0
 55135  1  0  0  0
 56 69  2  0  0  0
 57 58  2  0  0  0
 57136  1  0  0  0
 58137  1  0  0  0
 59 60  1  0  0  0
 59 61  1  0  0  0
 59 62  1  0  0  0
 60138  1  0  0  0
 60139  1  0  0  0
 60140  1  0  0  0
 61141  1  0  0  0
 61142  1  0  0  0
 61143  1  0  0  0
 62144  1  0  0  0
 62145  1  0  0  0
 62146  1  0  0  0
 63 65  1  0  0  0
 63147  1  0  0  0
 63148  1  0  0  0
 63149  1  0  0  0
 64150  1  0  0  0
 65151  1  0  0  0
 68 87  1  0  0  0
 71 72  2  0  0  0
 71 74  1  0  0  0
 71 91  1  0  0  0
 72 79  1  0  0  0
 72 92  1  0  0  0
 73 88  1  0  0  0
 73 91  2  0  0  0
 73 92  1  0  0  0
 74152  1  0  0  0
 74153  1  0  0  0
 74154  1  0  0  0
 75155  1  0  0  0
 75156  1  0  0  0
 75157  1  0  0  0
 75 88  1  0  0  0
 76158  1  0  0  0
 76159  1  0  0  0
 76160  1  0  0  0
 76 89  1  0  0  0
 77 89  1  0  0  0
 77161  1  0  0  0
 77162  1  0  0  0
 77163  1  0  0  0
 78164  1  0  0  0
 78165  1  0  0  0
 78166  1  0  0  0
 78 90  1  0  0  0
 79 80  1  0  0  0
 79167  1  0  0  0
 79168  1  0  0  0
 80 90  1  0  0  0
 80169  1  0  0  0
 80170  1  0  0  0
 81 82  1  0  0  0
 81 84  1  0  0  0
 81171  1  0  0  0
 81172  1  0  0  0
 82 86  1  0  0  0
 82173  1  0  0  0
 82174  1  0  0  0
 83 85  1  0  0  0
 83 87  1  0  0  0
 83175  1  0  0  0
 83176  1  0  0  0
 84 89  1  0  0  0
 84177  1  0  0  0
 84178  1  0  0  0
 85 90  1  0  0  0
 85179  1  0  0  0
 85180  1  0  0  0
 86 92  1  0  0  0
 86181  1  0  0  0
 86182  1  0  0  0
 87183  1  0  0  0
 87184  1  0  0  0
 88185  1  0  0  0
 89186  1  0  0  0
 90187  1  0  0  0
M  ISO  4   1 100  68 101  87 101  88 100
M  END
> <chiral flag>
0

> <version>
0

> <s_m_source_file>
/data/baiqing/PycharmProjects/Reinvent-master-3.2/result/LINK_invent/BTK/process_docking_weight1_custom_sum_contain_oxygen_bond_distance_aromatic_linkinvent_7_9_3/rearranged_h_0074.sdf

> <i_m_source_file_index>
21

> <r_mmod_Potential_Energy-OPLS-2005>
66.9575881958008

> <r_mmod_Stretch_Energy-OPLS-2005>
41.7012100219727

> <r_mmod_Bend_Energy-OPLS-2005>
120.391662597656

> <r_mmod_Torsional_Energy-OPLS-2005>
259.977935791016

> <r_mmod_Improper_Torsional_Energy-OPLS-2005>
1.90796434879303

> <r_mmod_Van_der_Waal_Energy-OPLS-2005>
120.864227294922

> <r_mmod_Electrostatic_Energy-OPLS-2005>
-299.836364746094

> <r_mmod_Solvation_Energy-OPLS-2005>
-187.992919921875

> <b_mmod_Minimization_Converged-OPLS-2005>
0

> <r_mmod_RMS_Derivative-OPLS-2005>
1.46169531345367

$$$$
21
                    3D
 Structure written by MMmdl.
160168  0  0  1  0            999 V2000
  -30.6225  -14.6857   20.4685 C   0  0  0  0  0  0
  -30.4293  -12.4106   19.4738 C   0  0  0  0  0  0
  -29.5098  -12.5013   18.2350 C   0  0  0  0  0  0
  -28.0324  -12.3351   18.6420 C   0  0  0  0  0  0
  -27.6444  -13.2271   19.8507 C   0  0  2  0  0  0
  -28.6863  -13.1333   20.9860 C   0  0  0  0  0  0
  -25.2533  -13.8190   20.5696 C   0  0  0  0  0  0
  -24.1814  -13.0438   20.9195 C   0  0  0  0  0  0
  -24.6396  -11.6916   20.8739 C   0  0  0  0  0  0
  -23.9070  -10.4293   21.0407 C   0  0  0  0  0  0
  -24.3619   -9.4206   21.9181 C   0  0  0  0  0  0
  -23.6290   -8.2244   22.0756 C   0  0  0  0  0  0
  -22.4273   -8.0279   21.3548 C   0  0  0  0  0  0
  -21.9912   -9.0254   20.4651 C   0  0  0  0  0  0
  -22.7242  -10.2132   20.3058 C   0  0  0  0  0  0
  -21.6852   -6.0735   22.5282 C   0  0  0  0  0  0
  -21.4012   -6.5641   23.8213 C   0  0  0  0  0  0
  -21.3664   -5.6798   24.9175 C   0  0  0  0  0  0
  -21.6046   -4.3060   24.7228 C   0  0  0  0  0  0
  -21.8818   -3.8148   23.4350 C   0  0  0  0  0  0
  -21.9194   -4.6964   22.3406 C   0  0  0  0  0  0
  -22.7840  -13.5221   21.1859 C   0  0  0  0  0  0
  -22.1663   -4.2152   21.0983 F   0  0  0  0  0  0
  -21.5631   -3.4547   25.7742 F   0  0  0  0  0  0
  -29.9993  -13.4621   20.4213 N   0  0  0  0  0  0
  -26.2948  -12.9390   20.3270 N   0  0  0  0  0  0
  -25.9322  -11.6535   20.5730 N   0  0  0  0  0  0
  -22.0496  -12.8212   22.0420 N   0  0  0  0  0  0
  -25.4246  -15.1915   20.4143 N   0  0  0  0  0  0
  -31.8084  -14.7643   20.1321 O   0  0  0  0  0  0
  -21.6634   -6.8878   21.4243 O   0  0  0  0  0  0
  -22.3526  -14.5530   20.6712 O   0  0  0  0  0  0
  -24.6288  -31.8590   23.2018 C   0  0  0  0  0  0
  -25.9128  -32.4773   23.8350 C   0  0  1  0  0  0
  -27.2184  -27.2895   20.1108 C   0  0  0  0  0  0
  -25.5933  -33.8579   24.2272 N   0  0  0  0  0  0
  -23.4220  -30.4843   21.5460 C   0  0  2  0  0  0
  -24.8638  -28.9375   20.1118 C   0  0  0  0  0  0
  -22.7478  -29.4625   22.4935 C   0  0  0  0  0  0
  -18.0289  -28.1383   22.8488 C   0  0  0  0  0  0
  -24.1487  -36.7290   23.2641 C   0  0  0  0  0  0
  -25.9665  -30.7800   21.3761 C   0  0  0  0  0  0
  -26.0361  -29.4058   20.7159 C   0  0  0  0  0  0
  -27.2120  -28.5942   20.7057 C   0  0  0  0  0  0
  -26.0117  -26.8785   19.4942 C   0  0  0  0  0  0
  -24.8560  -27.6796   19.4941 C   0  0  0  0  0  0
  -23.6356  -29.8229   20.1604 C   0  0  0  0  0  0
  -25.4113  -36.3080   24.0325 C   0  0  1  0  0  0
  -20.5889  -28.3692   23.1274 C   0  0  2  0  0  0
  -20.6776  -26.9413   22.5407 C   0  0  0  0  0  0
  -19.5752  -26.6380   21.5214 C   0  0  0  0  0  0
  -18.1930  -26.7926   22.1625 C   0  0  0  0  0  0
  -19.1540  -28.8853   23.2880 C   0  0  0  0  0  0
  -18.9465  -30.1454   23.8896 C   0  0  0  0  0  0
  -17.6463  -30.6588   24.0562 C   0  0  0  0  0  0
  -25.9058  -34.9451   23.5100 C   0  0  0  0  0  0
  -16.5355  -29.9084   23.6332 C   0  0  0  0  0  0
  -16.7273  -28.6501   23.0358 C   0  0  0  0  0  0
  -26.4495  -31.6597   25.0737 C   0  0  0  0  0  0
  -25.3717  -31.3740   26.1458 C   0  0  0  0  0  0
  -27.0345  -30.3019   24.6215 C   0  0  0  0  0  0
  -27.6050  -32.4338   25.7507 C   0  0  0  0  0  0
  -27.5576  -37.1799   24.8465 C   0  0  0  0  0  0
  -21.4193  -29.3049   22.3672 N   0  0  0  0  0  0
  -26.4288  -37.3775   23.9407 N   0  0  0  0  0  0
  -24.6919  -31.0587   22.0975 N   0  0  0  0  0  0
  -23.4192  -28.8157   23.3020 O   0  0  0  0  0  0
  -28.3552  -26.4548   20.1694 O   0  0  0  0  0  0
  -26.5630  -34.8918   22.4672 O   0  0  0  0  0  0
  -23.5449  -32.1404   23.7334 O   0  0  0  0  0  0
  -30.1110  -19.0013   18.3986 C   0  0  0  0  0  0
  -30.3922  -16.8880   18.4416 C   0  0  0  0  0  0
  -29.7768  -18.6023   19.6762 C   0  0  0  0  0  0
  -26.3548  -22.2895   18.6871 C   0  0  0  0  0  0
  -29.2348  -19.5920   20.7397 C   0  0  0  0  0  0
  -29.8511  -16.0688   20.7414 C   0  0  0  0  0  0
  -27.8706  -22.0683   18.8225 C   0  0  0  0  0  0
  -29.5451  -21.1772   20.5915 C   0  0  0  0  0  0
  -28.6662  -23.8149   20.6573 C   0  0  0  0  0  0
  -28.3810  -25.0484   19.6645 C   0  0  0  0  0  0
  -28.4021  -22.2593   20.2596 C   0  0  1  0  0  0
  -30.4933  -17.9210   17.6209 N   0  0  0  0  0  0
  -30.0083  -17.1647   19.7042 N   0  0  0  0  0  0
  -31.4741  -12.5149   19.1773 H   0  0  0  0  0  0
  -30.3503  -11.4274   19.9403 H   0  0  0  0  0  0
  -29.7831  -11.7394   17.5045 H   0  0  0  0  0  0
  -29.6498  -13.4633   17.7405 H   0  0  0  0  0  0
  -27.8780  -11.2851   18.8932 H   0  0  0  0  0  0
  -27.3791  -12.5417   17.7939 H   0  0  0  0  0  0
  -27.6460  -14.2522   19.4798 H   0  0  0  0  0  0
  -28.7010  -12.1288   21.4116 H   0  0  0  0  0  0
  -28.4316  -13.8049   21.8074 H   0  0  0  0  0  0
  -25.2766   -9.5686   22.4752 H   0  0  0  0  0  0
  -24.0008   -7.4637   22.7474 H   0  0  0  0  0  0
  -21.0848   -8.8763   19.8952 H   0  0  0  0  0  0
  -22.3693  -10.9667   19.6169 H   0  0  0  0  0  0
  -21.1994   -7.6148   23.9718 H   0  0  0  0  0  0
  -21.1493   -6.0526   25.9080 H   0  0  0  0  0  0
  -22.0591   -2.7610   23.2846 H   0  0  0  0  0  0
  -22.4115  -11.9864   22.4790 H   0  0  0  0  0  0
  -21.1117  -13.1244   22.2639 H   0  0  0  0  0  0
  -24.6591  -15.8463   20.5304 H   0  0  0  0  0  0
  -26.2770  -15.6342   20.0962 H   0  0  0  0  0  0
  -26.7191  -32.5420   23.1091 H   0  0  0  0  0  0
  -25.0066  -33.9726   25.0407 H   0  0  0  0  0  0
  -22.7168  -31.3058   21.4043 H   0  0  0  0  0  0
  -23.3753  -35.9620   23.3311 H   0  0  0  0  0  0
  -24.3576  -36.8916   22.2054 H   0  0  0  0  0  0
  -23.7237  -37.6491   23.6666 H   0  0  0  0  0  0
  -26.1048  -31.5428   20.6080 H   0  0  0  0  0  0
  -26.8441  -30.8241   22.0092 H   0  0  0  0  0  0
  -28.1125  -28.9516   21.1857 H   0  0  0  0  0  0
  -25.8956  -25.9230   19.0130 H   0  0  0  0  0  0
  -23.9556  -27.3120   19.0221 H   0  0  0  0  0  0
  -23.7570  -30.6005   19.4054 H   0  0  0  0  0  0
  -22.7521  -29.2586   19.8570 H   0  0  0  0  0  0
  -25.1293  -36.1931   25.0815 H   0  0  0  0  0  0
  -20.9991  -28.3271   24.1393 H   0  0  0  0  0  0
  -20.5676  -26.2304   23.3610 H   0  0  0  0  0  0
  -21.6641  -26.7437   22.1203 H   0  0  0  0  0  0
  -19.6913  -25.6291   21.1245 H   0  0  0  0  0  0
  -19.6687  -27.3187   20.6740 H   0  0  0  0  0  0
  -17.4199  -26.6678   21.4028 H   0  0  0  0  0  0
  -18.0331  -26.0065   22.9015 H   0  0  0  0  0  0
  -19.7940  -30.7269   24.2268 H   0  0  0  0  0  0
  -17.5021  -31.6273   24.5155 H   0  0  0  0  0  0
  -15.5355  -30.2985   23.7666 H   0  0  0  0  0  0
  -15.8673  -28.0819   22.7076 H   0  0  0  0  0  0
  -24.5886  -30.7093   25.7789 H   0  0  0  0  0  0
  -24.8907  -32.2905   26.4884 H   0  0  0  0  0  0
  -25.8031  -30.8915   27.0238 H   0  0  0  0  0  0
  -26.2932  -29.6762   24.1225 H   0  0  0  0  0  0
  -27.4022  -29.7281   25.4735 H   0  0  0  0  0  0
  -27.8808  -30.4313   23.9464 H   0  0  0  0  0  0
  -27.2663  -33.3642   26.2079 H   0  0  0  0  0  0
  -28.3859  -32.6901   25.0333 H   0  0  0  0  0  0
  -28.0719  -31.8471   26.5429 H   0  0  0  0  0  0
  -28.2594  -38.0097   24.7513 H   0  0  0  0  0  0
  -28.1070  -36.2627   24.6287 H   0  0  0  0  0  0
  -27.2297  -37.1452   25.8870 H   0  0  0  0  0  0
  -20.9368  -29.8777   21.6888 H   0  0  0  0  0  0
  -26.0170  -38.2851   24.1410 H   0  0  0  0  0  0
  -30.0798  -19.9919   17.9669 H   0  0  0  0  0  0
  -30.6073  -15.8909   18.0856 H   0  0  0  0  0  0
  -26.0450  -22.2062   17.6451 H   0  0  0  0  0  0
  -26.0309  -23.2646   19.0474 H   0  0  0  0  0  0
  -25.8008  -21.5397   19.2522 H   0  0  0  0  0  0
  -29.6249  -19.2701   21.7061 H   0  0  0  0  0  0
  -28.1562  -19.4586   20.8218 H   0  0  0  0  0  0
  -28.7850  -15.8838   20.8543 H   0  0  0  0  0  0
  -30.1960  -16.4620   21.6975 H   0  0  0  0  0  0
  -28.4193  -22.7029   18.1256 H   0  0  0  0  0  0
  -28.0624  -21.0463   18.4973 H   0  0  0  0  0  0
  -30.3967  -21.3296   19.9296 H   0  0  0  0  0  0
  -29.9327  -21.4741   21.5672 H   0  0  0  0  0  0
  -28.0743  -24.0030   21.5540 H   0  0  0  0  0  0
  -29.6972  -23.9080   20.9989 H   0  0  0  0  0  0
  -29.1958  -25.0374   18.9404 H   0  0  0  0  0  0
  -27.5284  -24.8161   19.0457 H   0  0  0  0  0  0
  -27.5831  -21.9544   20.9136 H   0  0  0  0  0  0
  1 25  1  0  0  0
  1 30  2  0  0  0
  1 76  1  0  0  0
  2  3  1  0  0  0
  2 25  1  0  0  0
  2 84  1  0  0  0
  2 85  1  0  0  0
  3  4  1  0  0  0
  3 86  1  0  0  0
  3 87  1  0  0  0
  4  5  1  0  0  0
  4 88  1  0  0  0
  4 89  1  0  0  0
  5  6  1  0  0  0
  5 26  1  0  0  0
  5 90  1  0  0  0
  6 25  1  0  0  0
  6 91  1  0  0  0
  6 92  1  0  0  0
  7  8  2  0  0  0
  7 26  1  0  0  0
  7 29  1  0  0  0
  8  9  1  0  0  0
  8 22  1  0  0  0
  9 10  1  0  0  0
  9 27  2  0  0  0
 10 11  2  0  0  0
 10 15  1  0  0  0
 11 12  1  0  0  0
 11 93  1  0  0  0
 12 13  2  0  0  0
 12 94  1  0  0  0
 13 14  1  0  0  0
 13 31  1  0  0  0
 14 15  2  0  0  0
 14 95  1  0  0  0
 15 96  1  0  0  0
 16 17  2  0  0  0
 16 21  1  0  0  0
 16 31  1  0  0  0
 17 18  1  0  0  0
 17 97  1  0  0  0
 18 19  2  0  0  0
 18 98  1  0  0  0
 19 20  1  0  0  0
 19 24  1  0  0  0
 20 21  2  0  0  0
 20 99  1  0  0  0
 21 23  1  0  0  0
 22 28  1  0  0  0
 22 32  2  0  0  0
 26 27  1  0  0  0
 28100  1  0  0  0
 28101  1  0  0  0
 29102  1  0  0  0
 29103  1  0  0  0
 33 34  1  0  0  0
 33 66  1  0  0  0
 33 70  2  0  0  0
 34 36  1  0  0  0
 34 59  1  0  0  0
 34104  1  0  0  0
 35 44  2  0  0  0
 35 45  1  0  0  0
 35 68  1  0  0  0
 36 56  1  0  0  0
 36105  1  0  0  0
 37 39  1  0  0  0
 37 47  1  0  0  0
 37 66  1  0  0  0
 37106  1  0  0  0
 38 43  2  0  0  0
 38 46  1  0  0  0
 38 47  1  0  0  0
 39 64  1  0  0  0
 39 67  2  0  0  0
 40 52  1  0  0  0
 40 53  2  0  0  0
 40 58  1  0  0  0
 41107  1  0  0  0
 41108  1  0  0  0
 41109  1  0  0  0
 41 48  1  0  0  0
 42 43  1  0  0  0
 42 66  1  0  0  0
 42110  1  0  0  0
 42111  1  0  0  0
 43 44  1  0  0  0
 44112  1  0  0  0
 45 46  2  0  0  0
 45113  1  0  0  0
 46114  1  0  0  0
 47115  1  0  0  0
 47116  1  0  0  0
 48 56  1  0  0  0
 48 65  1  0  0  0
 48117  1  0  0  0
 49 50  1  0  0  0
 49 53  1  0  0  0
 49 64  1  0  0  0
 49118  1  0  0  0
 50 51  1  0  0  0
 50119  1  0  0  0
 50120  1  0  0  0
 51 52  1  0  0  0
 51121  1  0  0  0
 51122  1  0  0  0
 52123  1  0  0  0
 52124  1  0  0  0
 53 54  1  0  0  0
 54 55  2  0  0  0
 54125  1  0  0  0
 55 57  1  0  0  0
 55126  1  0  0  0
 56 69  2  0  0  0
 57 58  2  0  0  0
 57127  1  0  0  0
 58128  1  0  0  0
 59 60  1  0  0  0
 59 61  1  0  0  0
 59 62  1  0  0  0
 60129  1  0  0  0
 60130  1  0  0  0
 60131  1  0  0  0
 61132  1  0  0  0
 61133  1  0  0  0
 61134  1  0  0  0
 62135  1  0  0  0
 62136  1  0  0  0
 62137  1  0  0  0
 63 65  1  0  0  0
 63138  1  0  0  0
 63139  1  0  0  0
 63140  1  0  0  0
 64141  1  0  0  0
 65142  1  0  0  0
 68 80  1  0  0  0
 71 73  2  0  0  0
 71 82  1  0  0  0
 71143  1  0  0  0
 72 82  2  0  0  0
 72 83  1  0  0  0
 72144  1  0  0  0
 73 75  1  0  0  0
 73 83  1  0  0  0
 74 77  1  0  0  0
 74145  1  0  0  0
 74146  1  0  0  0
 74147  1  0  0  0
 75 78  1  0  0  0
 75148  1  0  0  0
 75149  1  0  0  0
 76 83  1  0  0  0
 76150  1  0  0  0
 76151  1  0  0  0
 77152  1  0  0  0
 77153  1  0  0  0
 77 81  1  0  0  0
 78 81  1  0  0  0
 78154  1  0  0  0
 78155  1  0  0  0
 79 80  1  0  0  0
 79 81  1  0  0  0
 79156  1  0  0  0
 79157  1  0  0  0
 80158  1  0  0  0
 80159  1  0  0  0
 81160  1  0  0  0
M  ISO  4   1 100  68 101  76 100  80 101
M  END
> <chiral flag>
0

> <version>
0

> <s_m_source_file>
/data/baiqing/PycharmProjects/Reinvent-master-3.2/result/LINK_invent/BTK/process_docking_weight1_custom_sum_contain_oxygen_bond_distance_aromatic_linkinvent_7_9_3/rearranged_h_0074.sdf

> <i_m_source_file_index>
22

> <r_mmod_Potential_Energy-OPLS-2005>
203.50715637207

> <r_mmod_Stretch_Energy-OPLS-2005>
117.482032775879

> <r_mmod_Bend_Energy-OPLS-2005>
190.74674987793

> <r_mmod_Torsional_Energy-OPLS-2005>
222.854385375977

> <r_mmod_Improper_Torsional_Energy-OPLS-2005>
4.09959888458252

> <r_mmod_Van_der_Waal_Energy-OPLS-2005>
122.598365783691

> <r_mmod_Electrostatic_Energy-OPLS-2005>
-304.759552001953

> <r_mmod_Solvation_Energy-OPLS-2005>
-211.206069946289

> <b_mmod_Minimization_Converged-OPLS-2005>
0

> <r_mmod_RMS_Derivative-OPLS-2005>
1.12740433216095

$$$$
22
                    3D
 Structure written by MMmdl.
169177  0  0  1  0            999 V2000
  -30.6312  -14.7380   20.5533 C   0  0  0  0  0  0
  -30.4242  -12.4680   19.4796 C   0  0  0  0  0  0
  -29.5072  -12.5412   18.2361 C   0  0  0  0  0  0
  -28.0290  -12.3579   18.6319 C   0  0  0  0  0  0
  -27.6412  -13.2265   19.8568 C   0  0  2  0  0  0
  -28.6783  -13.0814   20.9856 C   0  0  0  0  0  0
  -25.2453  -13.8097   20.5588 C   0  0  0  0  0  0
  -24.1765  -13.0379   20.9192 C   0  0  0  0  0  0
  -24.6380  -11.6871   20.8740 C   0  0  0  0  0  0
  -23.9066  -10.4270   21.0408 C   0  0  0  0  0  0
  -24.3620   -9.4190   21.9186 C   0  0  0  0  0  0
  -23.6298   -8.2222   22.0750 C   0  0  0  0  0  0
  -22.4277   -8.0266   21.3543 C   0  0  0  0  0  0
  -21.9914   -9.0239   20.4637 C   0  0  0  0  0  0
  -22.7241  -10.2110   20.3055 C   0  0  0  0  0  0
  -21.6855   -6.0730   22.5277 C   0  0  0  0  0  0
  -21.4014   -6.5638   23.8203 C   0  0  0  0  0  0
  -21.3662   -5.6789   24.9169 C   0  0  0  0  0  0
  -21.6046   -4.3052   24.7215 C   0  0  0  0  0  0
  -21.8826   -3.8142   23.4339 C   0  0  0  0  0  0
  -21.9200   -4.6963   22.3394 C   0  0  0  0  0  0
  -22.7804  -13.5192   21.1862 C   0  0  0  0  0  0
  -22.1672   -4.2147   21.0973 F   0  0  0  0  0  0
  -21.5626   -3.4539   25.7732 F   0  0  0  0  0  0
  -29.9824  -13.5102   20.4534 N   0  0  0  0  0  0
  -26.2908  -12.9339   20.3254 N   0  0  0  0  0  0
  -25.9314  -11.6489   20.5744 N   0  0  0  0  0  0
  -22.0444  -12.8186   22.0411 N   0  0  0  0  0  0
  -25.4045  -15.1744   20.3807 N   0  0  0  0  0  0
  -31.7553  -14.7986   20.0443 O   0  0  0  0  0  0
  -21.6649   -6.8859   21.4229 O   0  0  0  0  0  0
  -22.3493  -14.5509   20.6726 O   0  0  0  0  0  0
  -24.6263  -31.8573   23.1978 C   0  0  0  0  0  0
  -25.9099  -32.4773   23.8332 C   0  0  1  0  0  0
  -27.2436  -27.3042   20.1492 C   0  0  0  0  0  0
  -25.5906  -33.8572   24.2251 N   0  0  0  0  0  0
  -23.4252  -30.4739   21.5390 C   0  0  2  0  0  0
  -24.8801  -28.9172   20.1201 C   0  0  0  0  0  0
  -22.7493  -29.4582   22.4913 C   0  0  0  0  0  0
  -18.0300  -28.1403   22.8471 C   0  0  0  0  0  0
  -24.1483  -36.7297   23.2644 C   0  0  0  0  0  0
  -25.9643  -30.7856   21.3703 C   0  0  0  0  0  0
  -26.0448  -29.4056   20.7255 C   0  0  0  0  0  0
  -27.2317  -28.6117   20.7256 C   0  0  0  0  0  0
  -26.0562  -26.8582   19.5342 C   0  0  0  0  0  0
  -24.8864  -27.6477   19.5165 C   0  0  0  0  0  0
  -23.6482  -29.8008   20.1573 C   0  0  0  0  0  0
  -25.4107  -36.3079   24.0331 C   0  0  1  0  0  0
  -20.5892  -28.3691   23.1285 C   0  0  2  0  0  0
  -20.6788  -26.9411   22.5417 C   0  0  0  0  0  0
  -19.5769  -26.6385   21.5223 C   0  0  0  0  0  0
  -18.1945  -26.7935   22.1624 C   0  0  0  0  0  0
  -19.1548  -28.8865   23.2867 C   0  0  0  0  0  0
  -18.9482  -30.1466   23.8879 C   0  0  0  0  0  0
  -17.6487  -30.6599   24.0565 C   0  0  0  0  0  0
  -25.9043  -34.9450   23.5094 C   0  0  0  0  0  0
  -16.5370  -29.9103   23.6338 C   0  0  0  0  0  0
  -16.7287  -28.6528   23.0328 C   0  0  0  0  0  0
  -26.4486  -31.6583   25.0703 C   0  0  0  0  0  0
  -25.3722  -31.3748   26.1438 C   0  0  0  0  0  0
  -27.0334  -30.3011   24.6150 C   0  0  0  0  0  0
  -27.6028  -32.4326   25.7483 C   0  0  0  0  0  0
  -27.5570  -37.1799   24.8463 C   0  0  0  0  0  0
  -21.4193  -29.3032   22.3665 N   0  0  0  0  0  0
  -26.4279  -37.3774   23.9421 N   0  0  0  0  0  0
  -24.6901  -31.0569   22.0937 N   0  0  0  0  0  0
  -23.4209  -28.8136   23.3000 O   0  0  0  0  0  0
  -28.3712  -26.4683   20.1122 O   0  0  0  0  0  0
  -26.5622  -34.8918   22.4668 O   0  0  0  0  0  0
  -23.5414  -32.1368   23.7292 O   0  0  0  0  0  0
  -28.9995  -21.0644   20.7765 C   0  0  0  0  0  0
  -27.7530  -20.4959   20.7368 C   0  0  0  0  0  0
  -29.2265  -18.8039   20.5529 C   0  0  0  0  0  0
  -26.4394  -21.2183   20.8114 C   0  0  0  0  0  0
  -26.0914  -18.0495   22.0086 C   0  0  0  0  0  0
  -29.2566  -25.5604   22.1157 C   0  0  0  0  0  0
  -28.9761  -15.9825   22.2359 C   0  0  0  0  0  0
  -31.3100  -16.6605   22.0654 C   0  0  0  0  0  0
  -29.2989  -22.5723   21.1153 C   0  0  0  0  0  0
  -29.7840  -17.3541   20.1776 C   0  0  0  0  0  0
  -28.8106  -23.8158   20.2040 C   0  0  0  0  0  0
  -26.7768  -18.1720   20.6326 C   0  0  0  0  0  0
  -28.3763  -25.2110   20.9025 C   0  0  2  0  0  0
  -30.1176  -16.1462   21.2184 C   0  0  0  0  0  0
  -29.9233  -19.9766   20.6548 N   0  0  0  0  0  0
  -27.8991  -19.0960   20.6530 N   0  0  0  0  0  0
  -31.4642  -12.5780   19.1696 H   0  0  0  0  0  0
  -30.3680  -11.4746   19.9271 H   0  0  0  0  0  0
  -29.7952  -11.7843   17.5058 H   0  0  0  0  0  0
  -29.6347  -13.5060   17.7427 H   0  0  0  0  0  0
  -27.8732  -11.3030   18.8612 H   0  0  0  0  0  0
  -27.3783  -12.5803   17.7864 H   0  0  0  0  0  0
  -27.6570  -14.2639   19.5236 H   0  0  0  0  0  0
  -28.7242  -12.0391   21.3046 H   0  0  0  0  0  0
  -28.3579  -13.6019   21.8774 H   0  0  0  0  0  0
  -25.2753   -9.5693   22.4766 H   0  0  0  0  0  0
  -24.0017   -7.4623   22.7473 H   0  0  0  0  0  0
  -21.0849   -8.8756   19.8940 H   0  0  0  0  0  0
  -22.3699  -10.9658   19.6172 H   0  0  0  0  0  0
  -21.2004   -7.6147   23.9701 H   0  0  0  0  0  0
  -21.1481   -6.0520   25.9067 H   0  0  0  0  0  0
  -22.0603   -2.7606   23.2841 H   0  0  0  0  0  0
  -22.4085  -11.9885   22.4848 H   0  0  0  0  0  0
  -21.1050  -13.1206   22.2600 H   0  0  0  0  0  0
  -24.6277  -15.8189   20.4690 H   0  0  0  0  0  0
  -26.2437  -15.5994   20.0144 H   0  0  0  0  0  0
  -26.7158  -32.5443   23.1072 H   0  0  0  0  0  0
  -25.0028  -33.9707   25.0382 H   0  0  0  0  0  0
  -22.7183  -31.2920   21.3878 H   0  0  0  0  0  0
  -23.3732  -35.9636   23.3301 H   0  0  0  0  0  0
  -24.3571  -36.8929   22.2056 H   0  0  0  0  0  0
  -23.7241  -37.6505   23.6671 H   0  0  0  0  0  0
  -26.0842  -31.5380   20.5903 H   0  0  0  0  0  0
  -26.8486  -30.8477   21.9932 H   0  0  0  0  0  0
  -28.1301  -28.9868   21.1951 H   0  0  0  0  0  0
  -26.0351  -25.8812   19.0720 H   0  0  0  0  0  0
  -23.9926  -27.2633   19.0439 H   0  0  0  0  0  0
  -23.7754  -30.5753   19.3997 H   0  0  0  0  0  0
  -22.7692  -29.2319   19.8493 H   0  0  0  0  0  0
  -25.1277  -36.1921   25.0819 H   0  0  0  0  0  0
  -20.9970  -28.3280   24.1416 H   0  0  0  0  0  0
  -20.5720  -26.2299   23.3617 H   0  0  0  0  0  0
  -21.6658  -26.7463   22.1199 H   0  0  0  0  0  0
  -19.6939  -25.6302   21.1253 H   0  0  0  0  0  0
  -19.6721  -27.3196   20.6755 H   0  0  0  0  0  0
  -17.4217  -26.6666   21.4026 H   0  0  0  0  0  0
  -18.0343  -26.0092   22.9034 H   0  0  0  0  0  0
  -19.7959  -30.7278   24.2231 H   0  0  0  0  0  0
  -17.5053  -31.6274   24.5178 H   0  0  0  0  0  0
  -15.5373  -30.3010   23.7687 H   0  0  0  0  0  0
  -15.8673  -28.0873   22.7022 H   0  0  0  0  0  0
  -24.5888  -30.7099   25.7799 H   0  0  0  0  0  0
  -24.8917  -32.2921   26.4840 H   0  0  0  0  0  0
  -25.8038  -30.8961   27.0233 H   0  0  0  0  0  0
  -26.2919  -29.6760   24.1164 H   0  0  0  0  0  0
  -27.4042  -29.7265   25.4646 H   0  0  0  0  0  0
  -27.8765  -30.4307   23.9361 H   0  0  0  0  0  0
  -27.2630  -33.3634   26.2030 H   0  0  0  0  0  0
  -28.3856  -32.6875   25.0333 H   0  0  0  0  0  0
  -28.0665  -31.8473   26.5431 H   0  0  0  0  0  0
  -28.2577  -38.0103   24.7509 H   0  0  0  0  0  0
  -28.1072  -36.2635   24.6277 H   0  0  0  0  0  0
  -27.2296  -37.1435   25.8867 H   0  0  0  0  0  0
  -20.9388  -29.8764   21.6867 H   0  0  0  0  0  0
  -26.0154  -38.2846   24.1442 H   0  0  0  0  0  0
  -26.3051  -21.8496   19.9329 H   0  0  0  0  0  0
  -26.3977  -21.8605   21.6926 H   0  0  0  0  0  0
  -25.5800  -20.5537   20.8438 H   0  0  0  0  0  0
  -25.1807  -17.4548   21.9388 H   0  0  0  0  0  0
  -25.8074  -19.0158   22.4220 H   0  0  0  0  0  0
  -26.7343  -17.5741   22.7447 H   0  0  0  0  0  0
  -29.2292  -24.7870   22.8812 H   0  0  0  0  0  0
  -28.9142  -26.4791   22.5950 H   0  0  0  0  0  0
  -30.2958  -25.7128   21.8244 H   0  0  0  0  0  0
  -29.2099  -15.2198   22.9802 H   0  0  0  0  0  0
  -28.8254  -16.9062   22.7943 H   0  0  0  0  0  0
  -28.0308  -15.7356   21.7576 H   0  0  0  0  0  0
  -32.1648  -16.9205   21.4398 H   0  0  0  0  0  0
  -31.6503  -15.9169   22.7875 H   0  0  0  0  0  0
  -31.0507  -17.5609   22.6248 H   0  0  0  0  0  0
  -30.3664  -22.6902   21.3013 H   0  0  0  0  0  0
  -28.8447  -22.7380   22.0903 H   0  0  0  0  0  0
  -30.6869  -17.5297   19.5927 H   0  0  0  0  0  0
  -29.1019  -16.9427   19.4329 H   0  0  0  0  0  0
  -27.9558  -23.4921   19.6130 H   0  0  0  0  0  0
  -29.5930  -24.0143   19.4712 H   0  0  0  0  0  0
  -26.0566  -18.5222   19.8927 H   0  0  0  0  0  0
  -27.1095  -17.2028   20.2782 H   0  0  0  0  0  0
  -27.3669  -25.0553   21.2890 H   0  0  0  0  0  0
  1 25  1  0  0  0
  1 30  2  0  0  0
  1 84  1  0  0  0
  2  3  1  0  0  0
  2 25  1  0  0  0
  2 87  1  0  0  0
  2 88  1  0  0  0
  3  4  1  0  0  0
  3 89  1  0  0  0
  3 90  1  0  0  0
  4  5  1  0  0  0
  4 91  1  0  0  0
  4 92  1  0  0  0
  5  6  1  0  0  0
  5 26  1  0  0  0
  5 93  1  0  0  0
  6 25  1  0  0  0
  6 94  1  0  0  0
  6 95  1  0  0  0
  7  8  2  0  0  0
  7 26  1  0  0  0
  7 29  1  0  0  0
  8  9  1  0  0  0
  8 22  1  0  0  0
  9 10  1  0  0  0
  9 27  2  0  0  0
 10 11  2  0  0  0
 10 15  1  0  0  0
 11 12  1  0  0  0
 11 96  1  0  0  0
 12 13  2  0  0  0
 12 97  1  0  0  0
 13 14  1  0  0  0
 13 31  1  0  0  0
 14 15  2  0  0  0
 14 98  1  0  0  0
 15 99  1  0  0  0
 16 17  2  0  0  0
 16 21  1  0  0  0
 16 31  1  0  0  0
 17 18  1  0  0  0
 17100  1  0  0  0
 18 19  2  0  0  0
 18101  1  0  0  0
 19 20  1  0  0  0
 19 24  1  0  0  0
 20 21  2  0  0  0
 20102  1  0  0  0
 21 23  1  0  0  0
 22 28  1  0  0  0
 22 32  2  0  0  0
 26 27  1  0  0  0
 28103  1  0  0  0
 28104  1  0  0  0
 29105  1  0  0  0
 29106  1  0  0  0
 33 34  1  0  0  0
 33 66  1  0  0  0
 33 70  2  0  0  0
 34 36  1  0  0  0
 34 59  1  0  0  0
 34107  1  0  0  0
 35 44  2  0  0  0
 35 45  1  0  0  0
 35 68  1  0  0  0
 36 56  1  0  0  0
 36108  1  0  0  0
 37 39  1  0  0  0
 37 47  1  0  0  0
 37 66  1  0  0  0
 37109  1  0  0  0
 38 43  2  0  0  0
 38 46  1  0  0  0
 38 47  1  0  0  0
 39 64  1  0  0  0
 39 67  2  0  0  0
 40 52  1  0  0  0
 40 53  2  0  0  0
 40 58  1  0  0  0
 41110  1  0  0  0
 41111  1  0  0  0
 41112  1  0  0  0
 41 48  1  0  0  0
 42 43  1  0  0  0
 42 66  1  0  0  0
 42113  1  0  0  0
 42114  1  0  0  0
 43 44  1  0  0  0
 44115  1  0  0  0
 45 46  2  0  0  0
 45116  1  0  0  0
 46117  1  0  0  0
 47118  1  0  0  0
 47119  1  0  0  0
 48 56  1  0  0  0
 48 65  1  0  0  0
 48120  1  0  0  0
 49 50  1  0  0  0
 49 53  1  0  0  0
 49 64  1  0  0  0
 49121  1  0  0  0
 50 51  1  0  0  0
 50122  1  0  0  0
 50123  1  0  0  0
 51 52  1  0  0  0
 51124  1  0  0  0
 51125  1  0  0  0
 52126  1  0  0  0
 52127  1  0  0  0
 53 54  1  0  0  0
 54 55  2  0  0  0
 54128  1  0  0  0
 55 57  1  0  0  0
 55129  1  0  0  0
 56 69  2  0  0  0
 57 58  2  0  0  0
 57130  1  0  0  0
 58131  1  0  0  0
 59 60  1  0  0  0
 59 61  1  0  0  0
 59 62  1  0  0  0
 60132  1  0  0  0
 60133  1  0  0  0
 60134  1  0  0  0
 61135  1  0  0  0
 61136  1  0  0  0
 61137  1  0  0  0
 62138  1  0  0  0
 62139  1  0  0  0
 62140  1  0  0  0
 63 65  1  0  0  0
 63141  1  0  0  0
 63142  1  0  0  0
 63143  1  0  0  0
 64144  1  0  0  0
 65145  1  0  0  0
 68 83  1  0  0  0
 71 72  2  0  0  0
 71 79  1  0  0  0
 71 85  1  0  0  0
 72 74  1  0  0  0
 72 86  1  0  0  0
 73 80  1  0  0  0
 73 85  2  0  0  0
 73 86  1  0  0  0
 74146  1  0  0  0
 74147  1  0  0  0
 74148  1  0  0  0
 75 82  1  0  0  0
 75149  1  0  0  0
 75150  1  0  0  0
 75151  1  0  0  0
 76152  1  0  0  0
 76153  1  0  0  0
 76154  1  0  0  0
 76 83  1  0  0  0
 77155  1  0  0  0
 77156  1  0  0  0
 77157  1  0  0  0
 77 84  1  0  0  0
 78 84  1  0  0  0
 78158  1  0  0  0
 78159  1  0  0  0
 78160  1  0  0  0
 79 81  1  0  0  0
 79161  1  0  0  0
 79162  1  0  0  0
 80 84  1  0  0  0
 80163  1  0  0  0
 80164  1  0  0  0
 81 83  1  0  0  0
 81165  1  0  0  0
 81166  1  0  0  0
 82 86  1  0  0  0
 82167  1  0  0  0
 82168  1  0  0  0
 83169  1  0  0  0
M  ISO  4   1 100  68 101  83 101  84 100
M  END
> <chiral flag>
0

> <version>
0

> <s_m_source_file>
/data/baiqing/PycharmProjects/Reinvent-master-3.2/result/LINK_invent/BTK/process_docking_weight1_custom_sum_contain_oxygen_bond_distance_aromatic_linkinvent_7_9_3/rearranged_h_0074.sdf

> <i_m_source_file_index>
23

> <r_mmod_Potential_Energy-OPLS-2005>
200.463668823242

> <r_mmod_Stretch_Energy-OPLS-2005>
129.687728881836

> <r_mmod_Bend_Energy-OPLS-2005>
216.357406616211

> <r_mmod_Torsional_Energy-OPLS-2005>
236.161239624023

> <r_mmod_Improper_Torsional_Energy-OPLS-2005>
3.53079319000244

> <r_mmod_Van_der_Waal_Energy-OPLS-2005>
119.143463134766

> <r_mmod_Electrostatic_Energy-OPLS-2005>
-366.860809326172

> <r_mmod_Solvation_Energy-OPLS-2005>
-200.238235473633

> <b_mmod_Minimization_Converged-OPLS-2005>
0

> <r_mmod_RMS_Derivative-OPLS-2005>
2.56160593032837

$$$$
23
                    3D
 Structure written by MMmdl.
163171  0  0  1  0            999 V2000
  -30.6578  -14.5011   20.5426 C   0  0  0  0  0  0
  -30.4327  -12.3129   19.4256 C   0  0  0  0  0  0
  -29.4997  -12.5021   18.2096 C   0  0  0  0  0  0
  -28.0198  -12.3600   18.6202 C   0  0  0  0  0  0
  -27.6629  -13.1998   19.8762 C   0  0  2  0  0  0
  -28.7047  -12.9742   20.9967 C   0  0  0  0  0  0
  -25.2594  -13.8141   20.5669 C   0  0  0  0  0  0
  -24.1839  -13.0430   20.9175 C   0  0  0  0  0  0
  -24.6382  -11.6895   20.8735 C   0  0  0  0  0  0
  -23.9052  -10.4286   21.0402 C   0  0  0  0  0  0
  -24.3609   -9.4204   21.9182 C   0  0  0  0  0  0
  -23.6285   -8.2242   22.0754 C   0  0  0  0  0  0
  -22.4266   -8.0277   21.3546 C   0  0  0  0  0  0
  -21.9903   -9.0246   20.4647 C   0  0  0  0  0  0
  -22.7228  -10.2127   20.3049 C   0  0  0  0  0  0
  -21.6852   -6.0734   22.5281 C   0  0  0  0  0  0
  -21.4013   -6.5641   23.8213 C   0  0  0  0  0  0
  -21.3656   -5.6792   24.9177 C   0  0  0  0  0  0
  -21.6043   -4.3055   24.7229 C   0  0  0  0  0  0
  -21.8819   -3.8148   23.4348 C   0  0  0  0  0  0
  -21.9195   -4.6962   22.3406 C   0  0  0  0  0  0
  -22.7866  -13.5237   21.1847 C   0  0  0  0  0  0
  -22.1663   -4.2150   21.0981 F   0  0  0  0  0  0
  -21.5628   -3.4537   25.7740 F   0  0  0  0  0  0
  -30.0360  -13.2925   20.4490 N   0  0  0  0  0  0
  -26.3023  -12.9295   20.3356 N   0  0  0  0  0  0
  -25.9307  -11.6465   20.5762 N   0  0  0  0  0  0
  -22.0502  -12.8224   22.0396 N   0  0  0  0  0  0
  -25.4332  -15.1855   20.4076 N   0  0  0  0  0  0
  -31.7834  -14.7183   20.0837 O   0  0  0  0  0  0
  -21.6636   -6.8873   21.4239 O   0  0  0  0  0  0
  -22.3560  -14.5550   20.6703 O   0  0  0  0  0  0
  -24.6152  -31.8669   23.2075 C   0  0  0  0  0  0
  -25.9037  -32.4822   23.8383 C   0  0  1  0  0  0
  -27.2391  -27.4247   20.1005 C   0  0  0  0  0  0
  -25.5897  -33.8619   24.2323 N   0  0  0  0  0  0
  -23.4060  -30.4879   21.5473 C   0  0  2  0  0  0
  -24.8560  -28.9484   20.1179 C   0  0  0  0  0  0
  -22.7425  -29.4657   22.4985 C   0  0  0  0  0  0
  -18.0280  -28.1383   22.8497 C   0  0  0  0  0  0
  -24.1488  -36.7305   23.2643 C   0  0  0  0  0  0
  -25.9350  -30.8273   21.3639 C   0  0  0  0  0  0
  -26.0148  -29.4568   20.7206 C   0  0  0  0  0  0
  -27.2116  -28.6994   20.7158 C   0  0  0  0  0  0
  -26.0678  -26.9319   19.4927 C   0  0  0  0  0  0
  -24.8770  -27.6833   19.5046 C   0  0  0  0  0  0
  -23.6166  -29.8151   20.1639 C   0  0  0  0  0  0
  -25.4112  -36.3110   24.0336 C   0  0  1  0  0  0
  -20.5867  -28.3667   23.1319 C   0  0  2  0  0  0
  -20.6773  -26.9404   22.5421 C   0  0  0  0  0  0
  -19.5744  -26.6388   21.5222 C   0  0  0  0  0  0
  -18.1921  -26.7932   22.1622 C   0  0  0  0  0  0
  -19.1527  -28.8840   23.2906 C   0  0  0  0  0  0
  -18.9455  -30.1456   23.8904 C   0  0  0  0  0  0
  -17.6454  -30.6585   24.0570 C   0  0  0  0  0  0
  -25.9036  -34.9477   23.5124 C   0  0  0  0  0  0
  -16.5347  -29.9085   23.6329 C   0  0  0  0  0  0
  -16.7267  -28.6504   23.0343 C   0  0  0  0  0  0
  -26.4463  -31.6591   25.0707 C   0  0  0  0  0  0
  -25.3728  -31.3676   26.1454 C   0  0  0  0  0  0
  -27.0307  -30.3049   24.6063 C   0  0  0  0  0  0
  -27.6049  -32.4299   25.7464 C   0  0  0  0  0  0
  -27.5577  -37.1817   24.8469 C   0  0  0  0  0  0
  -21.4147  -29.3033   22.3725 N   0  0  0  0  0  0
  -26.4296  -37.3800   23.9402 N   0  0  0  0  0  0
  -24.6701  -31.0769   22.0974 N   0  0  0  0  0  0
  -23.4192  -28.8203   23.3034 O   0  0  0  0  0  0
  -28.3818  -26.6584   20.0364 O   0  0  0  0  0  0
  -26.5605  -34.8927   22.4695 O   0  0  0  0  0  0
  -23.5333  -32.1425   23.7453 O   0  0  0  0  0  0
  -29.7428  -22.3994   19.7076 C   0  0  0  0  0  0
  -28.7084  -23.4420   22.0081 C   0  0  0  0  0  0
  -29.4585  -23.7873   19.7456 C   0  0  0  0  0  0
  -28.9230  -24.3417   20.9391 C   0  0  0  0  0  0
  -29.4948  -21.5899   20.8318 C   0  0  0  0  0  0
  -29.7567  -24.6278   18.5183 C   0  0  0  0  0  0
  -30.9895  -18.1073   22.6547 C   0  0  0  0  0  0
  -28.6825  -17.1860   22.8861 C   0  0  0  0  0  0
  -28.6523  -25.8451   21.1884 C   0  0  0  0  0  0
  -29.0000  -19.2512   21.5343 C   0  0  0  0  0  0
  -29.9279  -16.9419   20.6762 C   0  0  0  0  0  0
  -29.6630  -17.8749   21.9073 C   0  0  0  0  0  0
  -28.9748  -22.1123   21.9608 N   0  0  0  0  0  0
  -29.8306  -20.2204   20.8066 N   0  0  0  0  0  0
  -29.8608  -15.4952   20.9797 N   0  0  0  0  0  0
  -31.4755  -12.4276   19.1244 H   0  0  0  0  0  0
  -30.3469  -11.3000   19.8221 H   0  0  0  0  0  0
  -29.7415  -11.7753   17.4332 H   0  0  0  0  0  0
  -29.6637  -13.4863   17.7679 H   0  0  0  0  0  0
  -27.8320  -11.3039   18.8175 H   0  0  0  0  0  0
  -27.3696  -12.6315   17.7878 H   0  0  0  0  0  0
  -27.7062  -14.2474   19.5774 H   0  0  0  0  0  0
  -28.6832  -11.9340   21.3264 H   0  0  0  0  0  0
  -28.4638  -13.5635   21.8826 H   0  0  0  0  0  0
  -25.2754   -9.5685   22.4753 H   0  0  0  0  0  0
  -24.0002   -7.4630   22.7466 H   0  0  0  0  0  0
  -21.0842   -8.8757   19.8945 H   0  0  0  0  0  0
  -22.3687  -10.9662   19.6155 H   0  0  0  0  0  0
  -21.1998   -7.6148   23.9719 H   0  0  0  0  0  0
  -21.1476   -6.0523   25.9081 H   0  0  0  0  0  0
  -22.0600   -2.7608   23.2848 H   0  0  0  0  0  0
  -22.4119  -11.9882   22.4780 H   0  0  0  0  0  0
  -21.1114  -13.1243   22.2590 H   0  0  0  0  0  0
  -24.6652  -15.8402   20.5085 H   0  0  0  0  0  0
  -26.2843  -15.6228   20.0784 H   0  0  0  0  0  0
  -26.7117  -32.5539   23.1153 H   0  0  0  0  0  0
  -25.0077  -33.9784   25.0486 H   0  0  0  0  0  0
  -22.6963  -31.3047   21.4031 H   0  0  0  0  0  0
  -23.3747  -35.9641   23.3323 H   0  0  0  0  0  0
  -24.3595  -36.8901   22.2057 H   0  0  0  0  0  0
  -23.7232  -37.6516   23.6642 H   0  0  0  0  0  0
  -26.0485  -31.5862   20.5884 H   0  0  0  0  0  0
  -26.8237  -30.8868   21.9801 H   0  0  0  0  0  0
  -28.1084  -29.0910   21.1759 H   0  0  0  0  0  0
  -26.0802  -25.9639   19.0115 H   0  0  0  0  0  0
  -23.9876  -27.2855   19.0353 H   0  0  0  0  0  0
  -23.7249  -30.5866   19.4002 H   0  0  0  0  0  0
  -22.7409  -29.2338   19.8691 H   0  0  0  0  0  0
  -25.1288  -36.1984   25.0828 H   0  0  0  0  0  0
  -20.9966  -28.3221   24.1435 H   0  0  0  0  0  0
  -20.5703  -26.2266   23.3607 H   0  0  0  0  0  0
  -21.6642  -26.7463   22.1194 H   0  0  0  0  0  0
  -19.6916  -25.6309   21.1229 H   0  0  0  0  0  0
  -19.6681  -27.3223   20.6772 H   0  0  0  0  0  0
  -17.4206  -26.6698   21.4013 H   0  0  0  0  0  0
  -18.0300  -26.0071   22.9004 H   0  0  0  0  0  0
  -19.7934  -30.7277   24.2262 H   0  0  0  0  0  0
  -17.5008  -31.6263   24.5179 H   0  0  0  0  0  0
  -15.5347  -30.2988   23.7663 H   0  0  0  0  0  0
  -15.8665  -28.0837   22.7041 H   0  0  0  0  0  0
  -24.5917  -30.7007   25.7782 H   0  0  0  0  0  0
  -24.8892  -32.2821   26.4906 H   0  0  0  0  0  0
  -25.8088  -30.8844   27.0207 H   0  0  0  0  0  0
  -26.2843  -29.6813   24.1135 H   0  0  0  0  0  0
  -27.4131  -29.7282   25.4492 H   0  0  0  0  0  0
  -27.8647  -30.4400   23.9172 H   0  0  0  0  0  0
  -27.2691  -33.3608   26.2046 H   0  0  0  0  0  0
  -28.3861  -32.6847   25.0285 H   0  0  0  0  0  0
  -28.0716  -31.8408   26.5375 H   0  0  0  0  0  0
  -28.2615  -38.0098   24.7522 H   0  0  0  0  0  0
  -28.1052  -36.2639   24.6289 H   0  0  0  0  0  0
  -27.2297  -37.1453   25.8873 H   0  0  0  0  0  0
  -20.9317  -29.8735   21.6931 H   0  0  0  0  0  0
  -26.0182  -38.2878   24.1404 H   0  0  0  0  0  0
  -30.1615  -21.9617   18.8111 H   0  0  0  0  0  0
  -28.3288  -23.8040   22.9526 H   0  0  0  0  0  0
  -30.2694  -24.0439   17.7530 H   0  0  0  0  0  0
  -30.3962  -25.4728   18.7717 H   0  0  0  0  0  0
  -28.8317  -25.0041   18.0819 H   0  0  0  0  0  0
  -30.8450  -18.7245   23.5420 H   0  0  0  0  0  0
  -31.7217  -18.6114   22.0231 H   0  0  0  0  0  0
  -31.4353  -17.1643   22.9740 H   0  0  0  0  0  0
  -28.4240  -17.8441   23.7166 H   0  0  0  0  0  0
  -29.1048  -16.2847   23.3326 H   0  0  0  0  0  0
  -27.7507  -16.9084   22.3903 H   0  0  0  0  0  0
  -29.5383  -26.2601   21.6696 H   0  0  0  0  0  0
  -27.8482  -25.9341   21.9222 H   0  0  0  0  0  0
  -28.6469  -19.7143   22.4561 H   0  0  0  0  0  0
  -28.1026  -19.0723   20.9397 H   0  0  0  0  0  0
  -30.8737  -17.1970   20.1950 H   0  0  0  0  0  0
  -29.1617  -17.1252   19.9218 H   0  0  0  0  0  0
  -30.2296  -19.8843   19.9377 H   0  0  0  0  0  0
  -28.9821  -15.1827   21.3631 H   0  0  0  0  0  0
  1 25  1  0  0  0
  1 30  2  0  0  0
  1 85  1  0  0  0
  2  3  1  0  0  0
  2 25  1  0  0  0
  2 86  1  0  0  0
  2 87  1  0  0  0
  3  4  1  0  0  0
  3 88  1  0  0  0
  3 89  1  0  0  0
  4  5  1  0  0  0
  4 90  1  0  0  0
  4 91  1  0  0  0
  5  6  1  0  0  0
  5 26  1  0  0  0
  5 92  1  0  0  0
  6 25  1  0  0  0
  6 93  1  0  0  0
  6 94  1  0  0  0
  7  8  2  0  0  0
  7 26  1  0  0  0
  7 29  1  0  0  0
  8  9  1  0  0  0
  8 22  1  0  0  0
  9 10  1  0  0  0
  9 27  2  0  0  0
 10 11  2  0  0  0
 10 15  1  0  0  0
 11 12  1  0  0  0
 11 95  1  0  0  0
 12 13  2  0  0  0
 12 96  1  0  0  0
 13 14  1  0  0  0
 13 31  1  0  0  0
 14 15  2  0  0  0
 14 97  1  0  0  0
 15 98  1  0  0  0
 16 17  2  0  0  0
 16 21  1  0  0  0
 16 31  1  0  0  0
 17 18  1  0  0  0
 17 99  1  0  0  0
 18 19  2  0  0  0
 18100  1  0  0  0
 19 20  1  0  0  0
 19 24  1  0  0  0
 20 21  2  0  0  0
 20101  1  0  0  0
 21 23  1  0  0  0
 22 28  1  0  0  0
 22 32  2  0  0  0
 26 27  1  0  0  0
 28102  1  0  0  0
 28103  1  0  0  0
 29104  1  0  0  0
 29105  1  0  0  0
 33 34  1  0  0  0
 33 66  1  0  0  0
 33 70  2  0  0  0
 34 36  1  0  0  0
 34 59  1  0  0  0
 34106  1  0  0  0
 35 44  2  0  0  0
 35 45  1  0  0  0
 35 68  1  0  0  0
 36 56  1  0  0  0
 36107  1  0  0  0
 37 39  1  0  0  0
 37 47  1  0  0  0
 37 66  1  0  0  0
 37108  1  0  0  0
 38 43  2  0  0  0
 38 46  1  0  0  0
 38 47  1  0  0  0
 39 64  1  0  0  0
 39 67  2  0  0  0
 40 52  1  0  0  0
 40 53  2  0  0  0
 40 58  1  0  0  0
 41109  1  0  0  0
 41110  1  0  0  0
 41111  1  0  0  0
 41 48  1  0  0  0
 42 43  1  0  0  0
 42 66  1  0  0  0
 42112  1  0  0  0
 42113  1  0  0  0
 43 44  1  0  0  0
 44114  1  0  0  0
 45 46  2  0  0  0
 45115  1  0  0  0
 46116  1  0  0  0
 47117  1  0  0  0
 47118  1  0  0  0
 48 56  1  0  0  0
 48 65  1  0  0  0
 48119  1  0  0  0
 49 50  1  0  0  0
 49 53  1  0  0  0
 49 64  1  0  0  0
 49120  1  0  0  0
 50 51  1  0  0  0
 50121  1  0  0  0
 50122  1  0  0  0
 51 52  1  0  0  0
 51123  1  0  0  0
 51124  1  0  0  0
 52125  1  0  0  0
 52126  1  0  0  0
 53 54  1  0  0  0
 54 55  2  0  0  0
 54127  1  0  0  0
 55 57  1  0  0  0
 55128  1  0  0  0
 56 69  2  0  0  0
 57 58  2  0  0  0
 57129  1  0  0  0
 58130  1  0  0  0
 59 60  1  0  0  0
 59 61  1  0  0  0
 59 62  1  0  0  0
 60131  1  0  0  0
 60132  1  0  0  0
 60133  1  0  0  0
 61134  1  0  0  0
 61135  1  0  0  0
 61136  1  0  0  0
 62137  1  0  0  0
 62138  1  0  0  0
 62139  1  0  0  0
 63 65  1  0  0  0
 63140  1  0  0  0
 63141  1  0  0  0
 63142  1  0  0  0
 64143  1  0  0  0
 65144  1  0  0  0
 68 79  1  0  0  0
 71 73  2  0  0  0
 71 75  1  0  0  0
 71145  1  0  0  0
 72 74  2  0  0  0
 72 83  1  0  0  0
 72146  1  0  0  0
 73 74  1  0  0  0
 73 76  1  0  0  0
 74 79  1  0  0  0
 75 83  2  0  0  0
 75 84  1  0  0  0
 76147  1  0  0  0
 76148  1  0  0  0
 76149  1  0  0  0
 77150  1  0  0  0
 77151  1  0  0  0
 77152  1  0  0  0
 77 82  1  0  0  0
 78 82  1  0  0  0
 78153  1  0  0  0
 78154  1  0  0  0
 78155  1  0  0  0
 79156  1  0  0  0
 79157  1  0  0  0
 80 82  1  0  0  0
 80 84  1  0  0  0
 80158  1  0  0  0
 80159  1  0  0  0
 81 82  1  0  0  0
 81 85  1  0  0  0
 81160  1  0  0  0
 81161  1  0  0  0
 84162  1  0  0  0
 85163  1  0  0  0
M  ISO  4   1 100  68 101  79 101  85 100
M  END
> <chiral flag>
0

> <version>
0

> <s_m_source_file>
/data/baiqing/PycharmProjects/Reinvent-master-3.2/result/LINK_invent/BTK/process_docking_weight1_custom_sum_contain_oxygen_bond_distance_aromatic_linkinvent_7_9_3/rearranged_h_0074.sdf

> <i_m_source_file_index>
24

> <r_mmod_Potential_Energy-OPLS-2005>
-241.555786132812

> <r_mmod_Stretch_Energy-OPLS-2005>
43.0543022155762

> <r_mmod_Bend_Energy-OPLS-2005>
113.885589599609

> <r_mmod_Torsional_Energy-OPLS-2005>
270.757690429688

> <r_mmod_Improper_Torsional_Energy-OPLS-2005>
8.72520351409912

> <r_mmod_Van_der_Waal_Energy-OPLS-2005>
156.347091674805

> <r_mmod_Electrostatic_Energy-OPLS-2005>
-624.537048339844

> <r_mmod_Solvation_Energy-OPLS-2005>
-224.37825012207

> <b_mmod_Minimization_Converged-OPLS-2005>
0

> <r_mmod_RMS_Derivative-OPLS-2005>
1.58265173435211

$$$$
24
                    3D
 Structure written by MMmdl.
167175  0  0  1  0            999 V2000
  -30.7118  -14.7407   20.3434 C   0  0  0  0  0  0
  -30.4163  -12.4408   19.4636 C   0  0  0  0  0  0
  -29.4896  -12.4230   18.2319 C   0  0  0  0  0  0
  -28.0278  -12.2217   18.6722 C   0  0  0  0  0  0
  -27.6119  -13.1719   19.8193 C   0  0  2  0  0  0
  -28.6797  -13.2769   20.9351 C   0  0  0  0  0  0
  -25.2507  -13.8014   20.5742 C   0  0  0  0  0  0
  -24.1760  -13.0346   20.9281 C   0  0  0  0  0  0
  -24.6295  -11.6817   20.8862 C   0  0  0  0  0  0
  -23.8990  -10.4233   21.0497 C   0  0  0  0  0  0
  -24.3576   -9.4152   21.9246 C   0  0  0  0  0  0
  -23.6260   -8.2188   22.0781 C   0  0  0  0  0  0
  -22.4249   -8.0250   21.3551 C   0  0  0  0  0  0
  -21.9885   -9.0233   20.4657 C   0  0  0  0  0  0
  -22.7206  -10.2113   20.3098 C   0  0  0  0  0  0
  -21.6824   -6.0729   22.5281 C   0  0  0  0  0  0
  -21.3988   -6.5642   23.8216 C   0  0  0  0  0  0
  -21.3659   -5.6800   24.9179 C   0  0  0  0  0  0
  -21.6046   -4.3058   24.7229 C   0  0  0  0  0  0
  -21.8812   -3.8152   23.4345 C   0  0  0  0  0  0
  -21.9180   -4.6964   22.3400 C   0  0  0  0  0  0
  -22.7812  -13.5204   21.1889 C   0  0  0  0  0  0
  -22.1653   -4.2163   21.0976 F   0  0  0  0  0  0
  -21.5646   -3.4542   25.7736 F   0  0  0  0  0  0
  -29.9864  -13.5653   20.3241 N   0  0  0  0  0  0
  -26.2825  -12.9058   20.3324 N   0  0  0  0  0  0
  -25.9197  -11.6289   20.5891 N   0  0  0  0  0  0
  -22.0422  -12.8225   22.0442 N   0  0  0  0  0  0
  -25.4218  -15.1730   20.4090 N   0  0  0  0  0  0
  -31.9379  -14.6324   20.3647 O   0  0  0  0  0  0
  -21.6612   -6.8864   21.4236 O   0  0  0  0  0  0
  -22.3541  -14.5519   20.6716 O   0  0  0  0  0  0
  -24.6229  -31.8605   23.2030 C   0  0  0  0  0  0
  -25.9081  -32.4762   23.8361 C   0  0  1  0  0  0
  -27.2159  -27.3208   20.1289 C   0  0  0  0  0  0
  -25.5920  -33.8560   24.2312 N   0  0  0  0  0  0
  -23.4154  -30.4828   21.5467 C   0  0  2  0  0  0
  -24.8621  -28.9395   20.1088 C   0  0  0  0  0  0
  -22.7464  -29.4613   22.4955 C   0  0  0  0  0  0
  -18.0285  -28.1366   22.8485 C   0  0  0  0  0  0
  -24.1486  -36.7293   23.2645 C   0  0  0  0  0  0
  -25.9524  -30.7946   21.3696 C   0  0  0  0  0  0
  -26.0284  -29.4184   20.7186 C   0  0  0  0  0  0
  -27.2101  -28.6192   20.7201 C   0  0  0  0  0  0
  -26.0390  -26.9054   19.4752 C   0  0  0  0  0  0
  -24.8676  -27.6884   19.4751 C   0  0  0  0  0  0
  -23.6273  -29.8168   20.1608 C   0  0  0  0  0  0
  -25.4109  -36.3084   24.0333 C   0  0  1  0  0  0
  -20.5896  -28.3642   23.1306 C   0  0  2  0  0  0
  -20.6774  -26.9368   22.5436 C   0  0  0  0  0  0
  -19.5758  -26.6362   21.5233 C   0  0  0  0  0  0
  -18.1919  -26.7915   22.1624 C   0  0  0  0  0  0
  -19.1545  -28.8821   23.2887 C   0  0  0  0  0  0
  -18.9473  -30.1430   23.8874 C   0  0  0  0  0  0
  -17.6474  -30.6563   24.0556 C   0  0  0  0  0  0
  -25.9045  -34.9437   23.5122 C   0  0  0  0  0  0
  -16.5356  -29.9059   23.6352 C   0  0  0  0  0  0
  -16.7287  -28.6491   23.0342 C   0  0  0  0  0  0
  -26.4469  -31.6555   25.0723 C   0  0  0  0  0  0
  -25.3724  -31.3663   26.1474 C   0  0  0  0  0  0
  -27.0319  -30.3007   24.6111 C   0  0  0  0  0  0
  -27.6042  -32.4251   25.7495 C   0  0  0  0  0  0
  -27.5586  -37.1782   24.8478 C   0  0  0  0  0  0
  -21.4178  -29.2996   22.3691 N   0  0  0  0  0  0
  -26.4296  -37.3765   23.9424 N   0  0  0  0  0  0
  -24.6822  -31.0625   22.0978 N   0  0  0  0  0  0
  -23.4203  -28.8152   23.3021 O   0  0  0  0  0  0
  -28.3377  -26.4835   20.1144 O   0  0  0  0  0  0
  -26.5612  -34.8909   22.4685 O   0  0  0  0  0  0
  -23.5392  -32.1415   23.7379 O   0  0  0  0  0  0
  -30.0002  -19.8487   22.2659 C   0  0  0  0  0  0
  -29.6859  -19.8548   20.8933 C   0  0  0  0  0  0
  -30.4521  -17.5446   22.2085 C   0  0  0  0  0  0
  -30.1387  -17.4842   20.8169 C   0  0  0  0  0  0
  -30.8938  -16.3584   23.0478 C   0  0  0  0  0  0
  -31.2057  -16.6089   18.7363 C   0  0  0  0  0  0
  -28.8319  -16.1444   19.1496 C   0  0  0  0  0  0
  -26.9447  -23.2681   19.7649 C   0  0  0  0  0  0
  -29.0916  -24.0236   18.7063 C   0  0  0  0  0  0
  -29.2108  -21.1366   20.1211 C   0  0  0  0  0  0
  -29.1095  -22.5736   20.8280 C   0  0  0  0  0  0
  -28.2917  -25.1811   20.8267 C   0  0  0  0  0  0
  -30.1939  -16.2113   19.8550 C   0  0  0  0  0  0
  -28.3753  -23.7752   20.0444 C   0  0  0  0  0  0
  -30.3777  -18.7127   22.9076 N   0  0  0  0  0  0
  -29.7648  -18.6712   20.1986 N   0  0  0  0  0  0
  -31.4550  -12.5336   19.1409 H   0  0  0  0  0  0
  -30.3520  -11.4963   20.0053 H   0  0  0  0  0  0
  -29.7798  -11.6138   17.5609 H   0  0  0  0  0  0
  -29.5959  -13.3459   17.6600 H   0  0  0  0  0  0
  -27.9298  -11.1880   19.0060 H   0  0  0  0  0  0
  -27.3524  -12.3284   17.8226 H   0  0  0  0  0  0
  -27.4874  -14.1077   19.3141 H   0  0  0  0  0  0
  -28.7295  -12.3477   21.5051 H   0  0  0  0  0  0
  -28.4145  -14.0630   21.6431 H   0  0  0  0  0  0
  -25.2716   -9.5624   22.4830 H   0  0  0  0  0  0
  -23.9969   -7.4563   22.7480 H   0  0  0  0  0  0
  -21.0841   -8.8759   19.8936 H   0  0  0  0  0  0
  -22.3692  -10.9677   19.6223 H   0  0  0  0  0  0
  -21.1961   -7.6148   23.9716 H   0  0  0  0  0  0
  -21.1498   -6.0535   25.9088 H   0  0  0  0  0  0
  -22.0589   -2.7615   23.2837 H   0  0  0  0  0  0
  -22.4013  -11.9893   22.4849 H   0  0  0  0  0  0
  -21.1035  -13.1278   22.2596 H   0  0  0  0  0  0
  -24.6582  -15.8290   20.5300 H   0  0  0  0  0  0
  -26.2737  -15.6119   20.0851 H   0  0  0  0  0  0
  -26.7124  -32.5456   23.1088 H   0  0  0  0  0  0
  -25.0079  -33.9674   25.0470 H   0  0  0  0  0  0
  -22.7088  -31.3039   21.4042 H   0  0  0  0  0  0
  -23.3731  -35.9639   23.3324 H   0  0  0  0  0  0
  -24.3600  -36.8924   22.2070 H   0  0  0  0  0  0
  -23.7245  -37.6498   23.6657 H   0  0  0  0  0  0
  -26.0724  -31.5586   20.5992 H   0  0  0  0  0  0
  -26.8361  -30.8519   21.9928 H   0  0  0  0  0  0
  -28.1108  -28.9822   21.1948 H   0  0  0  0  0  0
  -26.0220  -25.9812   18.9279 H   0  0  0  0  0  0
  -23.9839  -27.3278   18.9675 H   0  0  0  0  0  0
  -23.7329  -30.5940   19.4029 H   0  0  0  0  0  0
  -22.7467  -29.2434   19.8666 H   0  0  0  0  0  0
  -25.1258  -36.1959   25.0816 H   0  0  0  0  0  0
  -20.9981  -28.3202   24.1441 H   0  0  0  0  0  0
  -20.5736  -26.2210   23.3611 H   0  0  0  0  0  0
  -21.6623  -26.7450   22.1181 H   0  0  0  0  0  0
  -19.6961  -25.6297   21.1214 H   0  0  0  0  0  0
  -19.6719  -27.3210   20.6795 H   0  0  0  0  0  0
  -17.4219  -26.6687   21.4006 H   0  0  0  0  0  0
  -18.0289  -26.0056   22.9015 H   0  0  0  0  0  0
  -19.7956  -30.7244   24.2210 H   0  0  0  0  0  0
  -17.5041  -31.6249   24.5138 H   0  0  0  0  0  0
  -15.5351  -30.2931   23.7702 H   0  0  0  0  0  0
  -15.8697  -28.0809   22.7031 H   0  0  0  0  0  0
  -24.5973  -30.6898   25.7863 H   0  0  0  0  0  0
  -24.8780  -32.2772   26.4853 H   0  0  0  0  0  0
  -25.8093  -30.8971   27.0293 H   0  0  0  0  0  0
  -26.2898  -29.6741   24.1150 H   0  0  0  0  0  0
  -27.4112  -29.7264   25.4564 H   0  0  0  0  0  0
  -27.8692  -30.4348   23.9263 H   0  0  0  0  0  0
  -27.2742  -33.3620   26.1979 H   0  0  0  0  0  0
  -28.3906  -32.6677   25.0349 H   0  0  0  0  0  0
  -28.0591  -31.8390   26.5496 H   0  0  0  0  0  0
  -28.2547  -38.0125   24.7543 H   0  0  0  0  0  0
  -28.1125  -36.2643   24.6249 H   0  0  0  0  0  0
  -27.2299  -37.1377   25.8879 H   0  0  0  0  0  0
  -20.9362  -29.8758   21.6930 H   0  0  0  0  0  0
  -26.0189  -38.2831   24.1459 H   0  0  0  0  0  0
  -29.9450  -20.7489   22.8610 H   0  0  0  0  0  0
  -31.8052  -15.9102   22.6555 H   0  0  0  0  0  0
  -30.1101  -15.6019   23.0980 H   0  0  0  0  0  0
  -31.1157  -16.6657   24.0706 H   0  0  0  0  0  0
  -30.8609  -17.4527   18.1378 H   0  0  0  0  0  0
  -31.3971  -15.7913   18.0388 H   0  0  0  0  0  0
  -32.1639  -16.9069   19.1659 H   0  0  0  0  0  0
  -28.6009  -17.0590   18.6032 H   0  0  0  0  0  0
  -28.0348  -16.0295   19.8790 H   0  0  0  0  0  0
  -28.8111  -15.3633   18.3931 H   0  0  0  0  0  0
  -26.9262  -22.5224   18.9702 H   0  0  0  0  0  0
  -26.2666  -24.0537   19.4627 H   0  0  0  0  0  0
  -26.5053  -22.8143   20.6547 H   0  0  0  0  0  0
  -29.1881  -23.1118   18.1173 H   0  0  0  0  0  0
  -30.0902  -24.4356   18.8544 H   0  0  0  0  0  0
  -28.5351  -24.7322   18.0920 H   0  0  0  0  0  0
  -28.2311  -20.8713   19.7275 H   0  0  0  0  0  0
  -29.8595  -21.2290   19.2508 H   0  0  0  0  0  0
  -30.1164  -22.8938   21.0987 H   0  0  0  0  0  0
  -28.5898  -22.4363   21.7768 H   0  0  0  0  0  0
  -29.1540  -25.2240   21.4937 H   0  0  0  0  0  0
  -27.4348  -25.1632   21.5036 H   0  0  0  0  0  0
  1 25  1  0  0  0
  1 30  2  0  0  0
  1 83  1  0  0  0
  2  3  1  0  0  0
  2 25  1  0  0  0
  2 87  1  0  0  0
  2 88  1  0  0  0
  3  4  1  0  0  0
  3 89  1  0  0  0
  3 90  1  0  0  0
  4  5  1  0  0  0
  4 91  1  0  0  0
  4 92  1  0  0  0
  5  6  1  0  0  0
  5 26  1  0  0  0
  5 93  1  0  0  0
  6 25  1  0  0  0
  6 94  1  0  0  0
  6 95  1  0  0  0
  7  8  2  0  0  0
  7 26  1  0  0  0
  7 29  1  0  0  0
  8  9  1  0  0  0
  8 22  1  0  0  0
  9 10  1  0  0  0
  9 27  2  0  0  0
 10 11  2  0  0  0
 10 15  1  0  0  0
 11 12  1  0  0  0
 11 96  1  0  0  0
 12 13  2  0  0  0
 12 97  1  0  0  0
 13 14  1  0  0  0
 13 31  1  0  0  0
 14 15  2  0  0  0
 14 98  1  0  0  0
 15 99  1  0  0  0
 16 17  2  0  0  0
 16 21  1  0  0  0
 16 31  1  0  0  0
 17 18  1  0  0  0
 17100  1  0  0  0
 18 19  2  0  0  0
 18101  1  0  0  0
 19 20  1  0  0  0
 19 24  1  0  0  0
 20 21  2  0  0  0
 20102  1  0  0  0
 21 23  1  0  0  0
 22 28  1  0  0  0
 22 32  2  0  0  0
 26 27  1  0  0  0
 28103  1  0  0  0
 28104  1  0  0  0
 29105  1  0  0  0
 29106  1  0  0  0
 33 34  1  0  0  0
 33 66  1  0  0  0
 33 70  2  0  0  0
 34 36  1  0  0  0
 34 59  1  0  0  0
 34107  1  0  0  0
 35 44  2  0  0  0
 35 45  1  0  0  0
 35 68  1  0  0  0
 36 56  1  0  0  0
 36108  1  0  0  0
 37 39  1  0  0  0
 37 47  1  0  0  0
 37 66  1  0  0  0
 37109  1  0  0  0
 38 43  2  0  0  0
 38 46  1  0  0  0
 38 47  1  0  0  0
 39 64  1  0  0  0
 39 67  2  0  0  0
 40 52  1  0  0  0
 40 53  2  0  0  0
 40 58  1  0  0  0
 41110  1  0  0  0
 41111  1  0  0  0
 41112  1  0  0  0
 41 48  1  0  0  0
 42 43  1  0  0  0
 42 66  1  0  0  0
 42113  1  0  0  0
 42114  1  0  0  0
 43 44  1  0  0  0
 44115  1  0  0  0
 45 46  2  0  0  0
 45116  1  0  0  0
 46117  1  0  0  0
 47118  1  0  0  0
 47119  1  0  0  0
 48 56  1  0  0  0
 48 65  1  0  0  0
 48120  1  0  0  0
 49 50  1  0  0  0
 49 53  1  0  0  0
 49 64  1  0  0  0
 49121  1  0  0  0
 50 51  1  0  0  0
 50122  1  0  0  0
 50123  1  0  0  0
 51 52  1  0  0  0
 51124  1  0  0  0
 51125  1  0  0  0
 52126  1  0  0  0
 52127  1  0  0  0
 53 54  1  0  0  0
 54 55  2  0  0  0
 54128  1  0  0  0
 55 57  1  0  0  0
 55129  1  0  0  0
 56 69  2  0  0  0
 57 58  2  0  0  0
 57130  1  0  0  0
 58131  1  0  0  0
 59 60  1  0  0  0
 59 61  1  0  0  0
 59 62  1  0  0  0
 60132  1  0  0  0
 60133  1  0  0  0
 60134  1  0  0  0
 61135  1  0  0  0
 61136  1  0  0  0
 61137  1  0  0  0
 62138  1  0  0  0
 62139  1  0  0  0
 62140  1  0  0  0
 63 65  1  0  0  0
 63141  1  0  0  0
 63142  1  0  0  0
 63143  1  0  0  0
 64144  1  0  0  0
 65145  1  0  0  0
 68 82  1  0  0  0
 71 72  2  0  0  0
 71 85  1  0  0  0
 71146  1  0  0  0
 72 80  1  0  0  0
 72 86  1  0  0  0
 73 74  1  0  0  0
 73 75  1  0  0  0
 73 85  2  0  0  0
 74 83  1  0  0  0
 74 86  2  0  0  0
 75147  1  0  0  0
 75148  1  0  0  0
 75149  1  0  0  0
 76150  1  0  0  0
 76151  1  0  0  0
 76152  1  0  0  0
 76 83  1  0  0  0
 77 83  1  0  0  0
 77153  1  0  0  0
 77154  1  0  0  0
 77155  1  0  0  0
 78156  1  0  0  0
 78157  1  0  0  0
 78158  1  0  0  0
 78 84  1  0  0  0
 79 84  1  0  0  0
 79159  1  0  0  0
 79160  1  0  0  0
 79161  1  0  0  0
 80 81  1  0  0  0
 80162  1  0  0  0
 80163  1  0  0  0
 81 84  1  0  0  0
 81164  1  0  0  0
 81165  1  0  0  0
 82 84  1  0  0  0
 82166  1  0  0  0
 82167  1  0  0  0
M  ISO  4   1 100  68 101  82 101  83 100
M  END
> <chiral flag>
0

> <version>
0

> <s_m_source_file>
/data/baiqing/PycharmProjects/Reinvent-master-3.2/result/LINK_invent/BTK/process_docking_weight1_custom_sum_contain_oxygen_bond_distance_aromatic_linkinvent_7_9_3/rearranged_h_0074.sdf

> <i_m_source_file_index>
25

> <r_mmod_Potential_Energy-OPLS-2005>
393.830688476562

> <r_mmod_Stretch_Energy-OPLS-2005>
110.88240814209

> <r_mmod_Bend_Energy-OPLS-2005>
204.259918212891

> <r_mmod_Torsional_Energy-OPLS-2005>
252.233535766602

> <r_mmod_Improper_Torsional_Energy-OPLS-2005>
13.1195993423462

> <r_mmod_Van_der_Waal_Energy-OPLS-2005>
165.612152099609

> <r_mmod_Electrostatic_Energy-OPLS-2005>
-263.433135986328

> <r_mmod_Solvation_Energy-OPLS-2005>
-184.924591064453

> <b_mmod_Minimization_Converged-OPLS-2005>
0

> <r_mmod_RMS_Derivative-OPLS-2005>
3.4380795955658

$$$$
25
                    3D
 Structure written by MMmdl.
167175  0  0  1  0            999 V2000
  -30.6207  -14.8371   20.5257 C   0  0  0  0  0  0
  -30.4400  -12.5237   19.5069 C   0  0  0  0  0  0
  -29.5263  -12.5316   18.2595 C   0  0  0  0  0  0
  -28.0500  -12.3418   18.6552 C   0  0  0  0  0  0
  -27.6435  -13.2423   19.8497 C   0  0  2  0  0  0
  -28.6800  -13.1792   20.9886 C   0  0  0  0  0  0
  -25.2502  -13.8220   20.5654 C   0  0  0  0  0  0
  -24.1808  -13.0447   20.9202 C   0  0  0  0  0  0
  -24.6428  -11.6936   20.8757 C   0  0  0  0  0  0
  -23.9118  -10.4297   21.0415 C   0  0  0  0  0  0
  -24.3654   -9.4204   21.9194 C   0  0  0  0  0  0
  -23.6306   -8.2244   22.0770 C   0  0  0  0  0  0
  -22.4295   -8.0283   21.3554 C   0  0  0  0  0  0
  -21.9943   -9.0267   20.4668 C   0  0  0  0  0  0
  -22.7287  -10.2141   20.3070 C   0  0  0  0  0  0
  -21.6862   -6.0750   22.5280 C   0  0  0  0  0  0
  -21.4021   -6.5651   23.8214 C   0  0  0  0  0  0
  -21.3649   -5.6795   24.9172 C   0  0  0  0  0  0
  -21.6043   -4.3059   24.7225 C   0  0  0  0  0  0
  -21.8820   -3.8157   23.4346 C   0  0  0  0  0  0
  -21.9199   -4.6976   22.3404 C   0  0  0  0  0  0
  -22.7823  -13.5213   21.1848 C   0  0  0  0  0  0
  -22.1659   -4.2167   21.0978 F   0  0  0  0  0  0
  -21.5624   -3.4537   25.7734 F   0  0  0  0  0  0
  -29.9815  -13.5971   20.4401 N   0  0  0  0  0  0
  -26.2945  -12.9443   20.3241 N   0  0  0  0  0  0
  -25.9366  -11.6579   20.5735 N   0  0  0  0  0  0
  -22.0471  -12.8196   22.0409 N   0  0  0  0  0  0
  -25.4181  -15.1927   20.4019 N   0  0  0  0  0  0
  -31.7371  -14.9035   19.9979 O   0  0  0  0  0  0
  -21.6645   -6.8893   21.4247 O   0  0  0  0  0  0
  -22.3490  -14.5507   20.6699 O   0  0  0  0  0  0
  -24.6343  -31.8494   23.1946 C   0  0  0  0  0  0
  -25.9151  -32.4714   23.8306 C   0  0  1  0  0  0
  -27.2099  -27.2088   20.1468 C   0  0  0  0  0  0
  -25.5936  -33.8526   24.2225 N   0  0  0  0  0  0
  -23.4347  -30.4717   21.5364 C   0  0  2  0  0  0
  -24.8848  -28.9096   20.1061 C   0  0  0  0  0  0
  -22.7512  -29.4572   22.4869 C   0  0  0  0  0  0
  -18.0285  -28.1379   22.8473 C   0  0  0  0  0  0
  -24.1492  -36.7275   23.2642 C   0  0  0  0  0  0
  -25.9843  -30.7442   21.3833 C   0  0  0  0  0  0
  -26.0556  -29.3621   20.7282 C   0  0  0  0  0  0
  -27.2236  -28.5251   20.7358 C   0  0  0  0  0  0
  -26.0292  -26.8479   19.4673 C   0  0  0  0  0  0
  -24.8796  -27.6634   19.4607 C   0  0  0  0  0  0
  -23.6578  -29.8033   20.1530 C   0  0  0  0  0  0
  -25.4115  -36.3049   24.0322 C   0  0  1  0  0  0
  -20.5887  -28.3707   23.1241 C   0  0  2  0  0  0
  -20.6770  -26.9414   22.5406 C   0  0  0  0  0  0
  -19.5758  -26.6386   21.5196 C   0  0  0  0  0  0
  -18.1934  -26.7926   22.1604 C   0  0  0  0  0  0
  -19.1536  -28.8862   23.2856 C   0  0  0  0  0  0
  -18.9469  -30.1465   23.8882 C   0  0  0  0  0  0
  -17.6468  -30.6587   24.0550 C   0  0  0  0  0  0
  -25.9058  -34.9417   23.5076 C   0  0  0  0  0  0
  -16.5355  -29.9082   23.6326 C   0  0  0  0  0  0
  -16.7275  -28.6492   23.0355 C   0  0  0  0  0  0
  -26.4513  -31.6541   25.0713 C   0  0  0  0  0  0
  -25.3734  -31.3686   26.1437 C   0  0  0  0  0  0
  -27.0362  -30.2948   24.6238 C   0  0  0  0  0  0
  -27.6066  -32.4299   25.7472 C   0  0  0  0  0  0
  -27.5569  -37.1780   24.8470 C   0  0  0  0  0  0
  -21.4205  -29.3047   22.3613 N   0  0  0  0  0  0
  -26.4281  -37.3755   23.9413 N   0  0  0  0  0  0
  -24.7036  -31.0429   22.0929 N   0  0  0  0  0  0
  -23.4182  -28.8111   23.2989 O   0  0  0  0  0  0
  -28.2769  -26.2640   20.1795 O   0  0  0  0  0  0
  -26.5646  -34.8904   22.4655 O   0  0  0  0  0  0
  -23.5482  -32.1351   23.7201 O   0  0  0  0  0  0
  -28.5081  -18.2276   20.5030 C   0  0  0  0  0  0
  -29.8275  -17.6985   20.6956 C   0  0  0  0  0  0
  -29.1636  -20.5421   20.5993 C   0  0  0  0  0  0
  -30.4999  -20.0222   20.7080 C   0  0  0  0  0  0
  -33.3541  -23.5199   18.3365 C   0  0  0  0  0  0
  -29.3209  -15.9734   22.5856 C   0  0  0  0  0  0
  -26.7642  -24.6450   21.4656 C   0  0  0  0  0  0
  -28.7105  -22.0580   21.0012 C   0  0  0  0  0  0
  -31.6837  -20.9726   20.8252 C   0  0  0  0  0  0
  -33.0455  -22.8074   19.6585 C   0  0  0  0  0  0
  -28.6424  -23.4440   20.1016 C   0  0  0  0  0  0
  -32.0166  -21.6758   19.4952 C   0  0  0  0  0  0
  -30.1293  -16.2069   21.2992 C   0  0  1  0  0  0
  -28.1397  -24.8632   20.7975 C   0  0  1  0  0  0
  -28.1915  -19.5806   20.4573 N   0  0  0  0  0  0
  -30.8088  -18.6658   20.7580 N   0  0  0  0  0  0
  -31.4796  -12.6490   19.1975 H   0  0  0  0  0  0
  -30.4085  -11.5481   19.9959 H   0  0  0  0  0  0
  -29.8319  -11.7465   17.5656 H   0  0  0  0  0  0
  -29.6461  -13.4765   17.7273 H   0  0  0  0  0  0
  -27.9114  -11.2934   18.9210 H   0  0  0  0  0  0
  -27.4017  -12.5289   17.7999 H   0  0  0  0  0  0
  -27.6384  -14.2673   19.4755 H   0  0  0  0  0  0
  -28.7396  -12.1699   21.3981 H   0  0  0  0  0  0
  -28.3394  -13.7959   21.8109 H   0  0  0  0  0  0
  -25.2804   -9.5661   22.4764 H   0  0  0  0  0  0
  -24.0022   -7.4630   22.7478 H   0  0  0  0  0  0
  -21.0880   -8.8800   19.8953 H   0  0  0  0  0  0
  -22.3760  -10.9689   19.6167 H   0  0  0  0  0  0
  -21.2027   -7.6160   23.9732 H   0  0  0  0  0  0
  -21.1459   -6.0522   25.9077 H   0  0  0  0  0  0
  -22.0621   -2.7627   23.2835 H   0  0  0  0  0  0
  -22.4094  -11.9868   22.4810 H   0  0  0  0  0  0
  -21.1099  -13.1239   22.2616 H   0  0  0  0  0  0
  -24.6502  -15.8467   20.5096 H   0  0  0  0  0  0
  -26.2602  -15.6230   20.0423 H   0  0  0  0  0  0
  -26.7197  -32.5348   23.1018 H   0  0  0  0  0  0
  -25.0069  -33.9653   25.0363 H   0  0  0  0  0  0
  -22.7344  -31.2959   21.3833 H   0  0  0  0  0  0
  -23.3747  -35.9609   23.3299 H   0  0  0  0  0  0
  -24.3588  -36.8920   22.2061 H   0  0  0  0  0  0
  -23.7246  -37.6469   23.6682 H   0  0  0  0  0  0
  -26.1347  -31.4991   20.6095 H   0  0  0  0  0  0
  -26.8574  -30.7935   22.0222 H   0  0  0  0  0  0
  -28.1179  -28.8631   21.2395 H   0  0  0  0  0  0
  -25.9867  -25.8952   18.9597 H   0  0  0  0  0  0
  -23.9893  -27.3184   18.9536 H   0  0  0  0  0  0
  -23.7839  -30.5775   19.3973 H   0  0  0  0  0  0
  -22.7762  -29.2390   19.8430 H   0  0  0  0  0  0
  -25.1280  -36.1890   25.0808 H   0  0  0  0  0  0
  -20.9983  -28.3311   24.1360 H   0  0  0  0  0  0
  -20.5640  -26.2327   23.3626 H   0  0  0  0  0  0
  -21.6645  -26.7417   22.1217 H   0  0  0  0  0  0
  -19.6932  -25.6297   21.1243 H   0  0  0  0  0  0
  -19.6705  -27.3173   20.6711 H   0  0  0  0  0  0
  -17.4200  -26.6657   21.4018 H   0  0  0  0  0  0
  -18.0348  -26.0068   22.9006 H   0  0  0  0  0  0
  -19.7949  -30.7269   24.2256 H   0  0  0  0  0  0
  -17.5025  -31.6263   24.5157 H   0  0  0  0  0  0
  -15.5356  -30.2976   23.7680 H   0  0  0  0  0  0
  -15.8668  -28.0807   22.7095 H   0  0  0  0  0  0
  -24.5957  -30.6978   25.7776 H   0  0  0  0  0  0
  -24.8884  -32.2847   26.4824 H   0  0  0  0  0  0
  -25.8084  -30.8920   27.0237 H   0  0  0  0  0  0
  -26.2944  -29.6682   24.1285 H   0  0  0  0  0  0
  -27.4024  -29.7230   25.4770 H   0  0  0  0  0  0
  -27.8837  -30.4183   23.9488 H   0  0  0  0  0  0
  -27.2671  -33.3623   26.1987 H   0  0  0  0  0  0
  -28.3893  -32.6817   25.0305 H   0  0  0  0  0  0
  -28.0704  -31.8471   26.5438 H   0  0  0  0  0  0
  -28.2567  -38.0089   24.7503 H   0  0  0  0  0  0
  -28.1072  -36.2617   24.6295 H   0  0  0  0  0  0
  -27.2295  -37.1427   25.8875 H   0  0  0  0  0  0
  -20.9407  -29.8784   21.6812 H   0  0  0  0  0  0
  -26.0157  -38.2827   24.1420 H   0  0  0  0  0  0
  -27.6614  -17.5566   20.5158 H   0  0  0  0  0  0
  -34.1009  -24.3013   18.4805 H   0  0  0  0  0  0
  -32.4629  -23.9916   17.9219 H   0  0  0  0  0  0
  -33.7428  -22.8221   17.5928 H   0  0  0  0  0  0
  -29.5076  -16.7781   23.2973 H   0  0  0  0  0  0
  -29.6045  -15.0443   23.0832 H   0  0  0  0  0  0
  -28.2490  -15.9602   22.3940 H   0  0  0  0  0  0
  -26.7953  -23.8291   22.1852 H   0  0  0  0  0  0
  -25.9972  -24.3952   20.7334 H   0  0  0  0  0  0
  -26.4312  -25.5205   22.0238 H   0  0  0  0  0  0
  -29.2901  -22.3059   21.8896 H   0  0  0  0  0  0
  -27.7046  -21.9159   21.3914 H   0  0  0  0  0  0
  -32.5636  -20.4243   21.1663 H   0  0  0  0  0  0
  -31.4795  -21.7039   21.6065 H   0  0  0  0  0  0
  -32.6747  -23.5398   20.3776 H   0  0  0  0  0  0
  -33.9688  -22.4065   20.0780 H   0  0  0  0  0  0
  -28.0172  -23.2533   19.2294 H   0  0  0  0  0  0
  -29.6361  -23.6351   19.7040 H   0  0  0  0  0  0
  -31.1069  -22.0919   19.0641 H   0  0  0  0  0  0
  -32.3748  -20.9427   18.7706 H   0  0  0  0  0  0
  -31.1005  -16.4214   21.7477 H   0  0  0  0  0  0
  -28.8205  -24.9661   21.6433 H   0  0  0  0  0  0
  1 25  1  0  0  0
  1 30  2  0  0  0
  1 83  1  0  0  0
  2  3  1  0  0  0
  2 25  1  0  0  0
  2 87  1  0  0  0
  2 88  1  0  0  0
  3  4  1  0  0  0
  3 89  1  0  0  0
  3 90  1  0  0  0
  4  5  1  0  0  0
  4 91  1  0  0  0
  4 92  1  0  0  0
  5  6  1  0  0  0
  5 26  1  0  0  0
  5 93  1  0  0  0
  6 25  1  0  0  0
  6 94  1  0  0  0
  6 95  1  0  0  0
  7  8  2  0  0  0
  7 26  1  0  0  0
  7 29  1  0  0  0
  8  9  1  0  0  0
  8 22  1  0  0  0
  9 10  1  0  0  0
  9 27  2  0  0  0
 10 11  2  0  0  0
 10 15  1  0  0  0
 11 12  1  0  0  0
 11 96  1  0  0  0
 12 13  2  0  0  0
 12 97  1  0  0  0
 13 14  1  0  0  0
 13 31  1  0  0  0
 14 15  2  0  0  0
 14 98  1  0  0  0
 15 99  1  0  0  0
 16 17  2  0  0  0
 16 21  1  0  0  0
 16 31  1  0  0  0
 17 18  1  0  0  0
 17100  1  0  0  0
 18 19  2  0  0  0
 18101  1  0  0  0
 19 20  1  0  0  0
 19 24  1  0  0  0
 20 21  2  0  0  0
 20102  1  0  0  0
 21 23  1  0  0  0
 22 28  1  0  0  0
 22 32  2  0  0  0
 26 27  1  0  0  0
 28103  1  0  0  0
 28104  1  0  0  0
 29105  1  0  0  0
 29106  1  0  0  0
 33 34  1  0  0  0
 33 66  1  0  0  0
 33 70  2  0  0  0
 34 36  1  0  0  0
 34 59  1  0  0  0
 34107  1  0  0  0
 35 44  2  0  0  0
 35 45  1  0  0  0
 35 68  1  0  0  0
 36 56  1  0  0  0
 36108  1  0  0  0
 37 39  1  0  0  0
 37 47  1  0  0  0
 37 66  1  0  0  0
 37109  1  0  0  0
 38 43  2  0  0  0
 38 46  1  0  0  0
 38 47  1  0  0  0
 39 64  1  0  0  0
 39 67  2  0  0  0
 40 52  1  0  0  0
 40 53  2  0  0  0
 40 58  1  0  0  0
 41110  1  0  0  0
 41111  1  0  0  0
 41112  1  0  0  0
 41 48  1  0  0  0
 42 43  1  0  0  0
 42 66  1  0  0  0
 42113  1  0  0  0
 42114  1  0  0  0
 43 44  1  0  0  0
 44115  1  0  0  0
 45 46  2  0  0  0
 45116  1  0  0  0
 46117  1  0  0  0
 47118  1  0  0  0
 47119  1  0  0  0
 48 56  1  0  0  0
 48 65  1  0  0  0
 48120  1  0  0  0
 49 50  1  0  0  0
 49 53  1  0  0  0
 49 64  1  0  0  0
 49121  1  0  0  0
 50 51  1  0  0  0
 50122  1  0  0  0
 50123  1  0  0  0
 51 52  1  0  0  0
 51124  1  0  0  0
 51125  1  0  0  0
 52126  1  0  0  0
 52127  1  0  0  0
 53 54  1  0  0  0
 54 55  2  0  0  0
 54128  1  0  0  0
 55 57  1  0  0  0
 55129  1  0  0  0
 56 69  2  0  0  0
 57 58  2  0  0  0
 57130  1  0  0  0
 58131  1  0  0  0
 59 60  1  0  0  0
 59 61  1  0  0  0
 59 62  1  0  0  0
 60132  1  0  0  0
 60133  1  0  0  0
 60134  1  0  0  0
 61135  1  0  0  0
 61136  1  0  0  0
 61137  1  0  0  0
 62138  1  0  0  0
 62139  1  0  0  0
 62140  1  0  0  0
 63 65  1  0  0  0
 63141  1  0  0  0
 63142  1  0  0  0
 63143  1  0  0  0
 64144  1  0  0  0
 65145  1  0  0  0
 68 84  1  0  0  0
 71 72  2  0  0  0
 71 85  1  0  0  0
 71146  1  0  0  0
 72 83  1  0  0  0
 72 86  1  0  0  0
 73 74  1  0  0  0
 73 78  1  0  0  0
 73 85  2  0  0  0
 74 79  1  0  0  0
 74 86  2  0  0  0
 75 80  1  0  0  0
 75147  1  0  0  0
 75148  1  0  0  0
 75149  1  0  0  0
 76150  1  0  0  0
 76151  1  0  0  0
 76152  1  0  0  0
 76 83  1  0  0  0
 77153  1  0  0  0
 77154  1  0  0  0
 77155  1  0  0  0
 77 84  1  0  0  0
 78 81  1  0  0  0
 78156  1  0  0  0
 78157  1  0  0  0
 79 82  1  0  0  0
 79158  1  0  0  0
 79159  1  0  0  0
 80 82  1  0  0  0
 80160  1  0  0  0
 80161  1  0  0  0
 81 84  1  0  0  0
 81162  1  0  0  0
 81163  1  0  0  0
 82164  1  0  0  0
 82165  1  0  0  0
 83166  1  0  0  0
 84167  1  0  0  0
M  ISO  4   1 100  68 101  83 100  84 101
M  END
> <chiral flag>
0

> <version>
0

> <s_m_source_file>
/data/baiqing/PycharmProjects/Reinvent-master-3.2/result/LINK_invent/BTK/process_docking_weight1_custom_sum_contain_oxygen_bond_distance_aromatic_linkinvent_7_9_3/rearranged_h_0074.sdf

> <i_m_source_file_index>
26

> <r_mmod_Potential_Energy-OPLS-2005>
510.285736083984

> <r_mmod_Stretch_Energy-OPLS-2005>
196.884521484375

> <r_mmod_Bend_Energy-OPLS-2005>
284.755676269531

> <r_mmod_Torsional_Energy-OPLS-2005>
215.959808349609

> <r_mmod_Improper_Torsional_Energy-OPLS-2005>
8.23977851867676

> <r_mmod_Van_der_Waal_Energy-OPLS-2005>
138.848922729492

> <r_mmod_Electrostatic_Energy-OPLS-2005>
-253.485946655273

> <r_mmod_Solvation_Energy-OPLS-2005>
-201.862930297852

> <b_mmod_Minimization_Converged-OPLS-2005>
0

> <r_mmod_RMS_Derivative-OPLS-2005>
2.66787934303284

$$$$
26
                    3D
 Structure written by MMmdl.
162170  0  0  1  0            999 V2000
  -30.5121  -15.1313   20.3638 C   0  0  0  0  0  0
  -30.4194  -12.7066   19.5438 C   0  0  0  0  0  0
  -29.5359  -12.5829   18.2790 C   0  0  0  0  0  0
  -28.0675  -12.3361   18.6739 C   0  0  0  0  0  0
  -27.6043  -13.2846   19.8115 C   0  0  2  0  0  0
  -28.6303  -13.4127   20.9519 C   0  0  0  0  0  0
  -25.2334  -13.8282   20.5746 C   0  0  0  0  0  0
  -24.1703  -13.0460   20.9285 C   0  0  0  0  0  0
  -24.6366  -11.6958   20.8717 C   0  0  0  0  0  0
  -23.9087  -10.4290   21.0339 C   0  0  0  0  0  0
  -24.3627   -9.4205   21.9131 C   0  0  0  0  0  0
  -23.6294   -8.2251   22.0719 C   0  0  0  0  0  0
  -22.4277   -8.0245   21.3494 C   0  0  0  0  0  0
  -21.9918   -9.0220   20.4607 C   0  0  0  0  0  0
  -22.7242  -10.2105   20.2983 C   0  0  0  0  0  0
  -21.6873   -6.0704   22.5279 C   0  0  0  0  0  0
  -21.4017   -6.5613   23.8232 C   0  0  0  0  0  0
  -21.3669   -5.6758   24.9190 C   0  0  0  0  0  0
  -21.6070   -4.3039   24.7208 C   0  0  0  0  0  0
  -21.8806   -3.8105   23.4323 C   0  0  0  0  0  0
  -21.9182   -4.6935   22.3391 C   0  0  0  0  0  0
  -22.7718  -13.5219   21.1898 C   0  0  0  0  0  0
  -22.1655   -4.2124   21.0945 F   0  0  0  0  0  0
  -21.5624   -3.4503   25.7713 F   0  0  0  0  0  0
  -29.8970  -13.8566   20.3593 N   0  0  0  0  0  0
  -26.2745  -12.9576   20.3095 N   0  0  0  0  0  0
  -25.9296  -11.6669   20.5619 N   0  0  0  0  0  0
  -22.0325  -12.8251   22.0477 N   0  0  0  0  0  0
  -25.3918  -15.2038   20.4226 N   0  0  0  0  0  0
  -31.7282  -15.0711   20.1350 O   0  0  0  0  0  0
  -21.6642   -6.8843   21.4227 O   0  0  0  0  0  0
  -22.3384  -14.5462   20.6666 O   0  0  0  0  0  0
  -24.6584  -31.8320   23.1789 C   0  0  0  0  0  0
  -25.9281  -32.4619   23.8240 C   0  0  1  0  0  0
  -27.2078  -27.0114   20.1630 C   0  0  0  0  0  0
  -25.5974  -33.8443   24.2117 N   0  0  0  0  0  0
  -23.4639  -30.4510   21.5270 C   0  0  2  0  0  0
  -24.9105  -28.8433   20.1209 C   0  0  0  0  0  0
  -22.7623  -29.4516   22.4808 C   0  0  0  0  0  0
  -18.0324  -28.1446   22.8446 C   0  0  0  0  0  0
  -24.1490  -36.7232   23.2653 C   0  0  0  0  0  0
  -26.0304  -30.6631   21.3916 C   0  0  0  0  0  0
  -26.0974  -29.2596   20.7380 C   0  0  0  0  0  0
  -27.2494  -28.3674   20.7287 C   0  0  0  0  0  0
  -25.9852  -26.7091   19.5251 C   0  0  0  0  0  0
  -24.8720  -27.5848   19.4986 C   0  0  0  0  0  0
  -23.7007  -29.7725   20.1521 C   0  0  0  0  0  0
  -25.4128  -36.3009   24.0311 C   0  0  1  0  0  0
  -20.5935  -28.3785   23.1219 C   0  0  2  0  0  0
  -20.6812  -26.9475   22.5440 C   0  0  0  0  0  0
  -19.5823  -26.6397   21.5225 C   0  0  0  0  0  0
  -18.1985  -26.7986   22.1584 C   0  0  0  0  0  0
  -19.1576  -28.8935   23.2828 C   0  0  0  0  0  0
  -18.9489  -30.1508   23.8896 C   0  0  0  0  0  0
  -17.6482  -30.6621   24.0577 C   0  0  0  0  0  0
  -25.9113  -34.9374   23.5043 C   0  0  0  0  0  0
  -16.5369  -29.9121   23.6337 C   0  0  0  0  0  0
  -16.7299  -28.6545   23.0335 C   0  0  0  0  0  0
  -26.4559  -31.6529   25.0728 C   0  0  0  0  0  0
  -25.3661  -31.3762   26.1357 C   0  0  0  0  0  0
  -27.0367  -30.2887   24.6371 C   0  0  0  0  0  0
  -27.6111  -32.4265   25.7516 C   0  0  0  0  0  0
  -27.5603  -37.1765   24.8450 C   0  0  0  0  0  0
  -21.4301  -29.3039   22.3535 N   0  0  0  0  0  0
  -26.4286  -37.3729   23.9446 N   0  0  0  0  0  0
  -24.7386  -31.0048   22.0862 N   0  0  0  0  0  0
  -23.4218  -28.8099   23.3031 O   0  0  0  0  0  0
  -28.2580  -25.9889   20.1149 O   0  0  0  0  0  0
  -26.5725  -34.8896   22.4646 O   0  0  0  0  0  0
  -23.5675  -32.1253   23.6943 O   0  0  0  0  0  0
  -29.8364  -19.0682   19.3578 C   0  0  0  0  0  0
  -30.1328  -17.6297   19.3138 C   0  0  0  0  0  0
  -29.2452  -19.7706   20.4757 C   0  0  0  0  0  0
  -29.8669  -16.6690   20.3620 C   0  0  0  0  0  0
  -28.9830  -18.7329   21.4855 C   0  0  0  0  0  0
  -27.1068  -18.3751   23.2126 C   0  0  0  0  0  0
  -31.4502  -21.2220   22.0595 C   0  0  0  0  0  0
  -27.2627  -22.3767   19.1354 C   0  0  0  0  0  0
  -28.4185  -19.1024   22.8598 C   0  0  0  0  0  0
  -30.7122  -21.8957   20.8945 C   0  0  0  0  0  0
  -28.1586  -24.4483   20.5739 C   0  0  0  0  0  0
  -29.2294  -21.4891   20.7063 C   0  0  1  0  0  0
  -28.5164  -22.8634   19.8832 C   0  0  1  0  0  0
  -29.2802  -17.3422   21.4264 N   0  0  0  0  0  0
  -31.4583  -12.8500   19.2473 H   0  0  0  0  0  0
  -30.4062  -11.7813   20.1222 H   0  0  0  0  0  0
  -29.9066  -11.7852   17.6349 H   0  0  0  0  0  0
  -29.5999  -13.5041   17.6974 H   0  0  0  0  0  0
  -27.9878  -11.2995   19.0013 H   0  0  0  0  0  0
  -27.4151  -12.4386   17.8047 H   0  0  0  0  0  0
  -27.5315  -14.2679   19.3474 H   0  0  0  0  0  0
  -28.7423  -12.4673   21.4807 H   0  0  0  0  0  0
  -28.2913  -14.1442   21.6851 H   0  0  0  0  0  0
  -25.2743   -9.5738   22.4740 H   0  0  0  0  0  0
  -23.9991   -7.4652   22.7451 H   0  0  0  0  0  0
  -21.0825   -8.8749   19.8939 H   0  0  0  0  0  0
  -22.3673  -10.9623   19.6095 H   0  0  0  0  0  0
  -21.2048   -7.6130   23.9763 H   0  0  0  0  0  0
  -21.1519   -6.0467   25.9124 H   0  0  0  0  0  0
  -22.0582   -2.7562   23.2834 H   0  0  0  0  0  0
  -22.3905  -11.9986   22.5026 H   0  0  0  0  0  0
  -21.0895  -13.1228   22.2505 H   0  0  0  0  0  0
  -24.6266  -15.8531   20.5628 H   0  0  0  0  0  0
  -26.2517  -15.6557   20.1409 H   0  0  0  0  0  0
  -26.7340  -32.5183   23.0966 H   0  0  0  0  0  0
  -24.9958  -33.9484   25.0161 H   0  0  0  0  0  0
  -22.7777  -31.2859   21.3651 H   0  0  0  0  0  0
  -23.3779  -35.9537   23.3243 H   0  0  0  0  0  0
  -24.3576  -36.8954   22.2088 H   0  0  0  0  0  0
  -23.7197  -37.6387   23.6735 H   0  0  0  0  0  0
  -26.1933  -31.4049   20.6083 H   0  0  0  0  0  0
  -26.9003  -30.7248   22.0352 H   0  0  0  0  0  0
  -28.1606  -28.6885   21.2164 H   0  0  0  0  0  0
  -25.8807  -25.7457   19.0446 H   0  0  0  0  0  0
  -23.9633  -27.2601   19.0087 H   0  0  0  0  0  0
  -23.8709  -30.5437   19.4022 H   0  0  0  0  0  0
  -22.8076  -29.2412   19.8209 H   0  0  0  0  0  0
  -25.1323  -36.1827   25.0801 H   0  0  0  0  0  0
  -21.0030  -28.3412   24.1340 H   0  0  0  0  0  0
  -20.5687  -26.2410   23.3671 H   0  0  0  0  0  0
  -21.6684  -26.7481   22.1252 H   0  0  0  0  0  0
  -19.6989  -25.6293   21.1287 H   0  0  0  0  0  0
  -19.6793  -27.3170   20.6731 H   0  0  0  0  0  0
  -17.4273  -26.6754   21.3958 H   0  0  0  0  0  0
  -18.0357  -26.0128   22.8977 H   0  0  0  0  0  0
  -19.7974  -30.7313   24.2294 H   0  0  0  0  0  0
  -17.5045  -31.6280   24.5219 H   0  0  0  0  0  0
  -15.5374  -30.3036   23.7683 H   0  0  0  0  0  0
  -15.8683  -28.0871   22.7051 H   0  0  0  0  0  0
  -24.5934  -30.6990   25.7702 H   0  0  0  0  0  0
  -24.8679  -32.2893   26.4614 H   0  0  0  0  0  0
  -25.7859  -30.9092   27.0264 H   0  0  0  0  0  0
  -26.2922  -29.6602   24.1426 H   0  0  0  0  0  0
  -27.3966  -29.7251   25.5008 H   0  0  0  0  0  0
  -27.8900  -30.4105   23.9682 H   0  0  0  0  0  0
  -27.2761  -33.3603   26.2068 H   0  0  0  0  0  0
  -28.3945  -32.6737   25.0329 H   0  0  0  0  0  0
  -28.0735  -31.8346   26.5436 H   0  0  0  0  0  0
  -28.2579  -38.0109   24.7529 H   0  0  0  0  0  0
  -28.1117  -36.2621   24.6182 H   0  0  0  0  0  0
  -27.2314  -37.1328   25.8848 H   0  0  0  0  0  0
  -20.9602  -29.8667   21.6587 H   0  0  0  0  0  0
  -26.0138  -38.2802   24.1443 H   0  0  0  0  0  0
  -30.1465  -19.6669   18.5110 H   0  0  0  0  0  0
  -30.6455  -17.2471   18.4388 H   0  0  0  0  0  0
  -26.7495  -18.6919   24.1916 H   0  0  0  0  0  0
  -27.2297  -17.2912   23.2434 H   0  0  0  0  0  0
  -26.3237  -18.6061   22.4892 H   0  0  0  0  0  0
  -32.5086  -21.4904   22.0378 H   0  0  0  0  0  0
  -31.4006  -20.1348   22.0206 H   0  0  0  0  0  0
  -31.0484  -21.5456   23.0200 H   0  0  0  0  0  0
  -26.9109  -23.1178   18.4158 H   0  0  0  0  0  0
  -26.4425  -22.1731   19.8250 H   0  0  0  0  0  0
  -27.4614  -21.4616   18.5772 H   0  0  0  0  0  0
  -28.2156  -20.1651   22.9451 H   0  0  0  0  0  0
  -29.1778  -18.8937   23.6169 H   0  0  0  0  0  0
  -31.2599  -21.6801   19.9757 H   0  0  0  0  0  0
  -30.7899  -22.9744   21.0321 H   0  0  0  0  0  0
  -28.8337  -24.4743   21.4290 H   0  0  0  0  0  0
  -27.1736  -24.3589   21.0334 H   0  0  0  0  0  0
  -28.7791  -21.6252   21.6825 H   0  0  0  0  0  0
  -29.2347  -23.0733   19.0876 H   0  0  0  0  0  0
  1 25  1  0  0  0
  1 30  2  0  0  0
  1 74  1  0  0  0
  2  3  1  0  0  0
  2 25  1  0  0  0
  2 85  1  0  0  0
  2 86  1  0  0  0
  3  4  1  0  0  0
  3 87  1  0  0  0
  3 88  1  0  0  0
  4  5  1  0  0  0
  4 89  1  0  0  0
  4 90  1  0  0  0
  5  6  1  0  0  0
  5 26  1  0  0  0
  5 91  1  0  0  0
  6 25  1  0  0  0
  6 92  1  0  0  0
  6 93  1  0  0  0
  7  8  2  0  0  0
  7 26  1  0  0  0
  7 29  1  0  0  0
  8  9  1  0  0  0
  8 22  1  0  0  0
  9 10  1  0  0  0
  9 27  2  0  0  0
 10 11  2  0  0  0
 10 15  1  0  0  0
 11 12  1  0  0  0
 11 94  1  0  0  0
 12 13  2  0  0  0
 12 95  1  0  0  0
 13 14  1  0  0  0
 13 31  1  0  0  0
 14 15  2  0  0  0
 14 96  1  0  0  0
 15 97  1  0  0  0
 16 17  2  0  0  0
 16 21  1  0  0  0
 16 31  1  0  0  0
 17 18  1  0  0  0
 17 98  1  0  0  0
 18 19  2  0  0  0
 18 99  1  0  0  0
 19 20  1  0  0  0
 19 24  1  0  0  0
 20 21  2  0  0  0
 20100  1  0  0  0
 21 23  1  0  0  0
 22 28  1  0  0  0
 22 32  2  0  0  0
 26 27  1  0  0  0
 28101  1  0  0  0
 28102  1  0  0  0
 29103  1  0  0  0
 29104  1  0  0  0
 33 34  1  0  0  0
 33 66  1  0  0  0
 33 70  2  0  0  0
 34 36  1  0  0  0
 34 59  1  0  0  0
 34105  1  0  0  0
 35 44  2  0  0  0
 35 45  1  0  0  0
 35 68  1  0  0  0
 36 56  1  0  0  0
 36106  1  0  0  0
 37 39  1  0  0  0
 37 47  1  0  0  0
 37 66  1  0  0  0
 37107  1  0  0  0
 38 43  2  0  0  0
 38 46  1  0  0  0
 38 47  1  0  0  0
 39 64  1  0  0  0
 39 67  2  0  0  0
 40 52  1  0  0  0
 40 53  2  0  0  0
 40 58  1  0  0  0
 41108  1  0  0  0
 41109  1  0  0  0
 41110  1  0  0  0
 41 48  1  0  0  0
 42 43  1  0  0  0
 42 66  1  0  0  0
 42111  1  0  0  0
 42112  1  0  0  0
 43 44  1  0  0  0
 44113  1  0  0  0
 45 46  2  0  0  0
 45114  1  0  0  0
 46115  1  0  0  0
 47116  1  0  0  0
 47117  1  0  0  0
 48 56  1  0  0  0
 48 65  1  0  0  0
 48118  1  0  0  0
 49 50  1  0  0  0
 49 53  1  0  0  0
 49 64  1  0  0  0
 49119  1  0  0  0
 50 51  1  0  0  0
 50120  1  0  0  0
 50121  1  0  0  0
 51 52  1  0  0  0
 51122  1  0  0  0
 51123  1  0  0  0
 52124  1  0  0  0
 52125  1  0  0  0
 53 54  1  0  0  0
 54 55  2  0  0  0
 54126  1  0  0  0
 55 57  1  0  0  0
 55127  1  0  0  0
 56 69  2  0  0  0
 57 58  2  0  0  0
 57128  1  0  0  0
 58129  1  0  0  0
 59 60  1  0  0  0
 59 61  1  0  0  0
 59 62  1  0  0  0
 60130  1  0  0  0
 60131  1  0  0  0
 60132  1  0  0  0
 61133  1  0  0  0
 61134  1  0  0  0
 61135  1  0  0  0
 62136  1  0  0  0
 62137  1  0  0  0
 62138  1  0  0  0
 63 65  1  0  0  0
 63139  1  0  0  0
 63140  1  0  0  0
 63141  1  0  0  0
 64142  1  0  0  0
 65143  1  0  0  0
 68 81  1  0  0  0
 71 72  2  0  0  0
 71 73  1  0  0  0
 71144  1  0  0  0
 72 74  1  0  0  0
 72145  1  0  0  0
 73 75  2  0  0  0
 73 82  1  0  0  0
 74 84  2  0  0  0
 75 79  1  0  0  0
 75 84  1  0  0  0
 76 79  1  0  0  0
 76146  1  0  0  0
 76147  1  0  0  0
 76148  1  0  0  0
 77 80  1  0  0  0
 77149  1  0  0  0
 77150  1  0  0  0
 77151  1  0  0  0
 78152  1  0  0  0
 78153  1  0  0  0
 78154  1  0  0  0
 78 83  1  0  0  0
 79155  1  0  0  0
 79156  1  0  0  0
 80157  1  0  0  0
 80158  1  0  0  0
 80 82  1  0  0  0
 81 83  1  0  0  0
 81159  1  0  0  0
 81160  1  0  0  0
 82 83  1  0  0  0
 82161  1  0  0  0
 83162  1  0  0  0
M  ISO  4   1 100  68 101  74 100  81 101
M  END
> <chiral flag>
0

> <version>
0

> <s_m_source_file>
/data/baiqing/PycharmProjects/Reinvent-master-3.2/result/LINK_invent/BTK/process_docking_weight1_custom_sum_contain_oxygen_bond_distance_aromatic_linkinvent_7_9_3/rearranged_h_0074.sdf

> <i_m_source_file_index>
27

> <r_mmod_Potential_Energy-OPLS-2005>
958.839111328125

> <r_mmod_Stretch_Energy-OPLS-2005>
428.694427490234

> <r_mmod_Bend_Energy-OPLS-2005>
412.952301025391

> <r_mmod_Torsional_Energy-OPLS-2005>
243.43115234375

> <r_mmod_Improper_Torsional_Energy-OPLS-2005>
10.3411140441895

> <r_mmod_Van_der_Waal_Energy-OPLS-2005>
124.60343170166

> <r_mmod_Electrostatic_Energy-OPLS-2005>
-396.419128417969

> <r_mmod_Solvation_Energy-OPLS-2005>
-187.616134643555

> <b_mmod_Minimization_Converged-OPLS-2005>
0

> <r_mmod_RMS_Derivative-OPLS-2005>
5.62956809997559

$$$$
27
                    3D
 Structure written by MMmdl.
167175  0  0  1  0            999 V2000
  -30.7243  -14.5065   20.4924 C   0  0  0  0  0  0
  -30.4088  -12.3012   19.4310 C   0  0  0  0  0  0
  -29.4896  -12.4585   18.2024 C   0  0  0  0  0  0
  -28.0051  -12.3506   18.6072 C   0  0  0  0  0  0
  -27.6479  -13.1980   19.8580 C   0  0  2  0  0  0
  -28.7023  -13.0702   20.9817 C   0  0  0  0  0  0
  -25.2578  -13.8111   20.5714 C   0  0  0  0  0  0
  -24.1841  -13.0411   20.9186 C   0  0  0  0  0  0
  -24.6380  -11.6873   20.8754 C   0  0  0  0  0  0
  -23.9047  -10.4281   21.0417 C   0  0  0  0  0  0
  -24.3609   -9.4201   21.9189 C   0  0  0  0  0  0
  -23.6285   -8.2241   22.0744 C   0  0  0  0  0  0
  -22.4267   -8.0281   21.3535 C   0  0  0  0  0  0
  -21.9904   -9.0253   20.4642 C   0  0  0  0  0  0
  -22.7222  -10.2132   20.3057 C   0  0  0  0  0  0
  -21.6859   -6.0734   22.5280 C   0  0  0  0  0  0
  -21.4022   -6.5640   23.8213 C   0  0  0  0  0  0
  -21.3655   -5.6793   24.9175 C   0  0  0  0  0  0
  -21.6043   -4.3054   24.7232 C   0  0  0  0  0  0
  -21.8824   -3.8142   23.4356 C   0  0  0  0  0  0
  -21.9201   -4.6958   22.3411 C   0  0  0  0  0  0
  -22.7869  -13.5213   21.1842 C   0  0  0  0  0  0
  -22.1667   -4.2144   21.0987 F   0  0  0  0  0  0
  -21.5622   -3.4538   25.7744 F   0  0  0  0  0  0
  -30.0232  -13.3406   20.3983 N   0  0  0  0  0  0
  -26.2987  -12.9255   20.3363 N   0  0  0  0  0  0
  -25.9300  -11.6431   20.5786 N   0  0  0  0  0  0
  -22.0537  -12.8200   22.0403 N   0  0  0  0  0  0
  -25.4318  -15.1838   20.4138 N   0  0  0  0  0  0
  -31.9162  -14.5849   20.1856 O   0  0  0  0  0  0
  -21.6637   -6.8874   21.4236 O   0  0  0  0  0  0
  -22.3567  -14.5524   20.6688 O   0  0  0  0  0  0
  -24.6165  -31.8697   23.2113 C   0  0  0  0  0  0
  -25.9058  -32.4841   23.8401 C   0  0  1  0  0  0
  -27.2220  -27.4187   20.0804 C   0  0  0  0  0  0
  -25.5920  -33.8644   24.2315 N   0  0  0  0  0  0
  -23.4033  -30.4978   21.5536 C   0  0  2  0  0  0
  -24.8432  -28.9714   20.1096 C   0  0  0  0  0  0
  -22.7428  -29.4667   22.4980 C   0  0  0  0  0  0
  -18.0274  -28.1394   22.8483 C   0  0  0  0  0  0
  -24.1484  -36.7299   23.2647 C   0  0  0  0  0  0
  -25.9371  -30.8251   21.3724 C   0  0  0  0  0  0
  -26.0052  -29.4624   20.7138 C   0  0  0  0  0  0
  -27.1920  -28.6924   20.7012 C   0  0  0  0  0  0
  -26.0313  -26.9526   19.4675 C   0  0  0  0  0  0
  -24.8530  -27.7175   19.4840 C   0  0  0  0  0  0
  -23.6100  -29.8434   20.1633 C   0  0  0  0  0  0
  -25.4116  -36.3119   24.0332 C   0  0  1  0  0  0
  -20.5874  -28.3674   23.1308 C   0  0  2  0  0  0
  -20.6773  -26.9408   22.5425 C   0  0  0  0  0  0
  -19.5747  -26.6386   21.5229 C   0  0  0  0  0  0
  -18.1919  -26.7931   22.1628 C   0  0  0  0  0  0
  -19.1531  -28.8848   23.2890 C   0  0  0  0  0  0
  -18.9468  -30.1457   23.8896 C   0  0  0  0  0  0
  -17.6474  -30.6594   24.0579 C   0  0  0  0  0  0
  -25.9061  -34.9495   23.5120 C   0  0  0  0  0  0
  -16.5357  -29.9111   23.6335 C   0  0  0  0  0  0
  -16.7267  -28.6539   23.0325 C   0  0  0  0  0  0
  -26.4465  -31.6645   25.0748 C   0  0  0  0  0  0
  -25.3725  -31.3761   26.1492 C   0  0  0  0  0  0
  -27.0303  -30.3089   24.6148 C   0  0  0  0  0  0
  -27.6030  -32.4386   25.7512 C   0  0  0  0  0  0
  -27.5568  -37.1806   24.8468 C   0  0  0  0  0  0
  -21.4158  -29.3036   22.3719 N   0  0  0  0  0  0
  -26.4286  -37.3810   23.9416 N   0  0  0  0  0  0
  -24.6705  -31.0794   22.1026 N   0  0  0  0  0  0
  -23.4203  -28.8206   23.3016 O   0  0  0  0  0  0
  -28.3996  -26.6851   20.1270 O   0  0  0  0  0  0
  -26.5627  -34.8937   22.4685 O   0  0  0  0  0  0
  -23.5355  -32.1459   23.7504 O   0  0  0  0  0  0
  -29.3949  -19.9607   20.9964 C   0  0  0  0  0  0
  -28.7574  -21.1388   20.6909 C   0  0  0  0  0  0
  -26.9747  -21.9888   22.2897 C   0  0  0  0  0  0
  -29.1134  -25.9393   17.9781 C   0  0  0  0  0  0
  -29.3200  -16.1826   19.5270 C   0  0  0  0  0  0
  -28.7790  -18.6893   21.5487 C   0  0  0  0  0  0
  -27.3249  -21.5495   20.8617 C   0  0  0  0  0  0
  -29.7039  -17.6754   22.2832 C   0  0  0  0  0  0
  -29.4338  -24.4416   20.0659 C   0  0  0  0  0  0
  -29.5795  -23.1263   19.2553 C   0  0  0  0  0  0
  -30.6587  -16.7569   21.4581 C   0  0  0  0  0  0
  -28.5542  -25.4914   19.3379 C   0  0  1  0  0  0
  -30.7140  -20.0591   20.5500 N   0  0  0  0  0  0
  -30.9032  -21.2231   20.0025 N   0  0  0  0  0  0
  -29.7239  -21.8921   20.0341 N   0  0  0  0  0  0
  -30.0153  -15.6500   20.7094 N   0  0  0  0  0  0
  -31.4555  -12.3702   19.1273 H   0  0  0  0  0  0
  -30.2865  -11.3123   19.8780 H   0  0  0  0  0  0
  -29.7236  -11.6949   17.4597 H   0  0  0  0  0  0
  -29.6746  -13.4152   17.7131 H   0  0  0  0  0  0
  -27.7815  -11.2991   18.7870 H   0  0  0  0  0  0
  -27.3730  -12.6526   17.7701 H   0  0  0  0  0  0
  -27.6435  -14.2230   19.5116 H   0  0  0  0  0  0
  -28.6891  -12.0705   21.4190 H   0  0  0  0  0  0
  -28.4810  -13.7665   21.7933 H   0  0  0  0  0  0
  -25.2762   -9.5670   22.4757 H   0  0  0  0  0  0
  -24.0012   -7.4619   22.7431 H   0  0  0  0  0  0
  -21.0854   -8.8754   19.8936 H   0  0  0  0  0  0
  -22.3681  -10.9672   19.6167 H   0  0  0  0  0  0
  -21.2013   -7.6147   23.9705 H   0  0  0  0  0  0
  -21.1468   -6.0530   25.9076 H   0  0  0  0  0  0
  -22.0605   -2.7604   23.2855 H   0  0  0  0  0  0
  -22.4187  -11.9876   22.4796 H   0  0  0  0  0  0
  -21.1146  -13.1190   22.2610 H   0  0  0  0  0  0
  -24.6630  -15.8372   20.5138 H   0  0  0  0  0  0
  -26.2962  -15.6246   20.1302 H   0  0  0  0  0  0
  -26.7128  -32.5522   23.1159 H   0  0  0  0  0  0
  -25.0067  -33.9830   25.0452 H   0  0  0  0  0  0
  -22.6919  -31.3162   21.4231 H   0  0  0  0  0  0
  -23.3758  -35.9622   23.3345 H   0  0  0  0  0  0
  -24.3561  -36.8886   22.2054 H   0  0  0  0  0  0
  -23.7215  -37.6503   23.6647 H   0  0  0  0  0  0
  -26.0666  -31.5895   20.6047 H   0  0  0  0  0  0
  -26.8193  -30.8658   21.9997 H   0  0  0  0  0  0
  -28.0886  -29.0733   21.1710 H   0  0  0  0  0  0
  -25.9510  -26.0036   18.9639 H   0  0  0  0  0  0
  -23.9591  -27.3401   19.0066 H   0  0  0  0  0  0
  -23.7233  -30.6282   19.4136 H   0  0  0  0  0  0
  -22.7292  -29.2736   19.8608 H   0  0  0  0  0  0
  -25.1293  -36.1986   25.0820 H   0  0  0  0  0  0
  -20.9960  -28.3251   24.1426 H   0  0  0  0  0  0
  -20.5697  -26.2284   23.3619 H   0  0  0  0  0  0
  -21.6640  -26.7453   22.1201 H   0  0  0  0  0  0
  -19.6921  -25.6306   21.1235 H   0  0  0  0  0  0
  -19.6693  -27.3225   20.6782 H   0  0  0  0  0  0
  -17.4197  -26.6680   21.4022 H   0  0  0  0  0  0
  -18.0308  -26.0075   22.9024 H   0  0  0  0  0  0
  -19.7952  -30.7271   24.2245 H   0  0  0  0  0  0
  -17.5041  -31.6268   24.5204 H   0  0  0  0  0  0
  -15.5365  -30.3031   23.7657 H   0  0  0  0  0  0
  -15.8655  -28.0892   22.6999 H   0  0  0  0  0  0
  -24.5889  -30.7124   25.7825 H   0  0  0  0  0  0
  -24.8927  -32.2927   26.4946 H   0  0  0  0  0  0
  -25.8062  -30.8922   27.0253 H   0  0  0  0  0  0
  -26.2863  -29.6879   24.1148 H   0  0  0  0  0  0
  -27.4020  -29.7303   25.4616 H   0  0  0  0  0  0
  -27.8723  -30.4419   23.9346 H   0  0  0  0  0  0
  -27.2633  -33.3687   26.2083 H   0  0  0  0  0  0
  -28.3825  -32.6961   25.0333 H   0  0  0  0  0  0
  -28.0712  -31.8529   26.5432 H   0  0  0  0  0  0
  -28.2607  -38.0083   24.7517 H   0  0  0  0  0  0
  -28.1029  -36.2617   24.6295 H   0  0  0  0  0  0
  -27.2277  -37.1458   25.8866 H   0  0  0  0  0  0
  -20.9331  -29.8777   21.6948 H   0  0  0  0  0  0
  -26.0175  -38.2884   24.1436 H   0  0  0  0  0  0
  -25.9279  -22.2887   22.3479 H   0  0  0  0  0  0
  -27.5812  -22.8370   22.6115 H   0  0  0  0  0  0
  -27.1204  -21.1794   23.0048 H   0  0  0  0  0  0
  -29.2956  -25.0989   17.3093 H   0  0  0  0  0  0
  -30.0490  -26.4860   18.0988 H   0  0  0  0  0  0
  -28.4108  -26.6021   17.4729 H   0  0  0  0  0  0
  -29.6932  -17.1640   19.2295 H   0  0  0  0  0  0
  -28.2568  -16.2812   19.7373 H   0  0  0  0  0  0
  -29.4214  -15.5497   18.6435 H   0  0  0  0  0  0
  -28.1731  -18.2022   20.7905 H   0  0  0  0  0  0
  -28.0396  -18.9973   22.2882 H   0  0  0  0  0  0
  -26.6804  -20.7199   20.5681 H   0  0  0  0  0  0
  -27.0777  -22.3621   20.1785 H   0  0  0  0  0  0
  -29.0629  -17.0211   22.8768 H   0  0  0  0  0  0
  -30.2934  -18.2367   23.0080 H   0  0  0  0  0  0
  -30.4200  -24.8543   20.2806 H   0  0  0  0  0  0
  -28.9756  -24.2237   21.0306 H   0  0  0  0  0  0
  -30.4227  -23.2153   18.5689 H   0  0  0  0  0  0
  -28.7108  -22.9864   18.6121 H   0  0  0  0  0  0
  -31.2914  -17.3438   20.7898 H   0  0  0  0  0  0
  -31.3601  -16.3150   22.1700 H   0  0  0  0  0  0
  -27.6174  -24.9676   19.1786 H   0  0  0  0  0  0
  1 25  1  0  0  0
  1 30  2  0  0  0
  1 86  1  0  0  0
  2  3  1  0  0  0
  2 25  1  0  0  0
  2 87  1  0  0  0
  2 88  1  0  0  0
  3  4  1  0  0  0
  3 89  1  0  0  0
  3 90  1  0  0  0
  4  5  1  0  0  0
  4 91  1  0  0  0
  4 92  1  0  0  0
  5  6  1  0  0  0
  5 26  1  0  0  0
  5 93  1  0  0  0
  6 25  1  0  0  0
  6 94  1  0  0  0
  6 95  1  0  0  0
  7  8  2  0  0  0
  7 26  1  0  0  0
  7 29  1  0  0  0
  8  9  1  0  0  0
  8 22  1  0  0  0
  9 10  1  0  0  0
  9 27  2  0  0  0
 10 11  2  0  0  0
 10 15  1  0  0  0
 11 12  1  0  0  0
 11 96  1  0  0  0
 12 13  2  0  0  0
 12 97  1  0  0  0
 13 14  1  0  0  0
 13 31  1  0  0  0
 14 15  2  0  0  0
 14 98  1  0  0  0
 15 99  1  0  0  0
 16 17  2  0  0  0
 16 21  1  0  0  0
 16 31  1  0  0  0
 17 18  1  0  0  0
 17100  1  0  0  0
 18 19  2  0  0  0
 18101  1  0  0  0
 19 20  1  0  0  0
 19 24  1  0  0  0
 20 21  2  0  0  0
 20102  1  0  0  0
 21 23  1  0  0  0
 22 28  1  0  0  0
 22 32  2  0  0  0
 26 27  1  0  0  0
 28103  1  0  0  0
 28104  1  0  0  0
 29105  1  0  0  0
 29106  1  0  0  0
 33 34  1  0  0  0
 33 66  1  0  0  0
 33 70  2  0  0  0
 34 36  1  0  0  0
 34 59  1  0  0  0
 34107  1  0  0  0
 35 44  2  0  0  0
 35 45  1  0  0  0
 35 68  1  0  0  0
 36 56  1  0  0  0
 36108  1  0  0  0
 37 39  1  0  0  0
 37 47  1  0  0  0
 37 66  1  0  0  0
 37109  1  0  0  0
 38 43  2  0  0  0
 38 46  1  0  0  0
 38 47  1  0  0  0
 39 64  1  0  0  0
 39 67  2  0  0  0
 40 52  1  0  0  0
 40 53  2  0  0  0
 40 58  1  0  0  0
 41110  1  0  0  0
 41111  1  0  0  0
 41112  1  0  0  0
 41 48  1  0  0  0
 42 43  1  0  0  0
 42 66  1  0  0  0
 42113  1  0  0  0
 42114  1  0  0  0
 43 44  1  0  0  0
 44115  1  0  0  0
 45 46  2  0  0  0
 45116  1  0  0  0
 46117  1  0  0  0
 47118  1  0  0  0
 47119  1  0  0  0
 48 56  1  0  0  0
 48 65  1  0  0  0
 48120  1  0  0  0
 49 50  1  0  0  0
 49 53  1  0  0  0
 49 64  1  0  0  0
 49121  1  0  0  0
 50 51  1  0  0  0
 50122  1  0  0  0
 50123  1  0  0  0
 51 52  1  0  0  0
 51124  1  0  0  0
 51125  1  0  0  0
 52126  1  0  0  0
 52127  1  0  0  0
 53 54  1  0  0  0
 54 55  2  0  0  0
 54128  1  0  0  0
 55 57  1  0  0  0
 55129  1  0  0  0
 56 69  2  0  0  0
 57 58  2  0  0  0
 57130  1  0  0  0
 58131  1  0  0  0
 59 60  1  0  0  0
 59 61  1  0  0  0
 59 62  1  0  0  0
 60132  1  0  0  0
 60133  1  0  0  0
 60134  1  0  0  0
 61135  1  0  0  0
 61136  1  0  0  0
 61137  1  0  0  0
 62138  1  0  0  0
 62139  1  0  0  0
 62140  1  0  0  0
 63 65  1  0  0  0
 63141  1  0  0  0
 63142  1  0  0  0
 63143  1  0  0  0
 64144  1  0  0  0
 65145  1  0  0  0
 68 82  1  0  0  0
 71 72  2  0  0  0
 71 76  1  0  0  0
 71 83  1  0  0  0
 72 77  1  0  0  0
 72 85  1  0  0  0
 73 77  1  0  0  0
 73146  1  0  0  0
 73147  1  0  0  0
 73148  1  0  0  0
 74149  1  0  0  0
 74150  1  0  0  0
 74151  1  0  0  0
 74 82  1  0  0  0
 75 86  1  0  0  0
 75152  1  0  0  0
 75153  1  0  0  0
 75154  1  0  0  0
 76 78  1  0  0  0
 76155  1  0  0  0
 76156  1  0  0  0
 77157  1  0  0  0
 77158  1  0  0  0
 78 81  1  0  0  0
 78159  1  0  0  0
 78160  1  0  0  0
 79 80  1  0  0  0
 79 82  1  0  0  0
 79161  1  0  0  0
 79162  1  0  0  0
 80 85  1  0  0  0
 80163  1  0  0  0
 80164  1  0  0  0
 81 86  1  0  0  0
 81165  1  0  0  0
 81166  1  0  0  0
 82167  1  0  0  0
 83 84  2  0  0  0
 84 85  1  0  0  0
M  ISO  4   1 100  68 101  82 101  86 100
M  END
> <chiral flag>
0

> <version>
0

> <s_m_source_file>
/data/baiqing/PycharmProjects/Reinvent-master-3.2/result/LINK_invent/BTK/process_docking_weight1_custom_sum_contain_oxygen_bond_distance_aromatic_linkinvent_7_9_3/rearranged_h_0074.sdf

> <i_m_source_file_index>
28

> <r_mmod_Potential_Energy-OPLS-2005>
135.755813598633

> <r_mmod_Stretch_Energy-OPLS-2005>
40.6858863830566

> <r_mmod_Bend_Energy-OPLS-2005>
129.790740966797

> <r_mmod_Torsional_Energy-OPLS-2005>
311.644348144531

> <r_mmod_Improper_Torsional_Energy-OPLS-2005>
10.9396896362305

> <r_mmod_Van_der_Waal_Energy-OPLS-2005>
131.266754150391

> <r_mmod_Electrostatic_Energy-OPLS-2005>
-311.467498779297

> <r_mmod_Solvation_Energy-OPLS-2005>
-201.999053955078

> <b_mmod_Minimization_Converged-OPLS-2005>
0

> <r_mmod_RMS_Derivative-OPLS-2005>
2.90931987762451

$$$$
28
                    3D
 Structure written by MMmdl.
164172  0  0  1  0            999 V2000
  -30.7041  -14.5282   20.5878 C   0  0  0  0  0  0
  -30.4265  -12.3246   19.4619 C   0  0  0  0  0  0
  -29.5125  -12.4807   18.2285 C   0  0  0  0  0  0
  -28.0318  -12.3260   18.6305 C   0  0  0  0  0  0
  -27.6625  -13.1844   19.8697 C   0  0  2  0  0  0
  -28.7070  -12.9959   21.0006 C   0  0  0  0  0  0
  -25.2568  -13.8067   20.5587 C   0  0  0  0  0  0
  -24.1814  -13.0393   20.9129 C   0  0  0  0  0  0
  -24.6355  -11.6859   20.8731 C   0  0  0  0  0  0
  -23.8999  -10.4281   21.0408 C   0  0  0  0  0  0
  -24.3566   -9.4219   21.9188 C   0  0  0  0  0  0
  -23.6252   -8.2259   22.0756 C   0  0  0  0  0  0
  -22.4241   -8.0296   21.3543 C   0  0  0  0  0  0
  -21.9858   -9.0251   20.4633 C   0  0  0  0  0  0
  -22.7168  -10.2137   20.3046 C   0  0  0  0  0  0
  -21.6831   -6.0746   22.5289 C   0  0  0  0  0  0
  -21.3998   -6.5645   23.8220 C   0  0  0  0  0  0
  -21.3651   -5.6796   24.9181 C   0  0  0  0  0  0
  -21.6032   -4.3062   24.7232 C   0  0  0  0  0  0
  -21.8799   -3.8153   23.4344 C   0  0  0  0  0  0
  -21.9171   -4.6975   22.3405 C   0  0  0  0  0  0
  -22.7836  -13.5211   21.1805 C   0  0  0  0  0  0
  -22.1630   -4.2161   21.0981 F   0  0  0  0  0  0
  -21.5638   -3.4542   25.7740 F   0  0  0  0  0  0
  -30.0295  -13.3379   20.4599 N   0  0  0  0  0  0
  -26.3023  -12.9214   20.3321 N   0  0  0  0  0  0
  -25.9288  -11.6400   20.5783 N   0  0  0  0  0  0
  -22.0459  -12.8245   22.0363 N   0  0  0  0  0  0
  -25.4218  -15.1787   20.3953 N   0  0  0  0  0  0
  -31.7804  -14.6606   20.0058 O   0  0  0  0  0  0
  -21.6606   -6.8901   21.4257 O   0  0  0  0  0  0
  -22.3561  -14.5531   20.6662 O   0  0  0  0  0  0
  -24.6176  -31.8649   23.2060 C   0  0  0  0  0  0
  -25.9053  -32.4793   23.8365 C   0  0  1  0  0  0
  -27.2380  -27.3859   20.1123 C   0  0  0  0  0  0
  -25.5888  -33.8584   24.2298 N   0  0  0  0  0  0
  -23.4101  -30.4834   21.5480 C   0  0  2  0  0  0
  -24.8558  -28.9401   20.1152 C   0  0  0  0  0  0
  -22.7415  -29.4648   22.4988 C   0  0  0  0  0  0
  -18.0263  -28.1387   22.8481 C   0  0  0  0  0  0
  -24.1479  -36.7310   23.2646 C   0  0  0  0  0  0
  -25.9400  -30.8149   21.3631 C   0  0  0  0  0  0
  -26.0175  -29.4441   20.7132 C   0  0  0  0  0  0
  -27.2073  -28.6740   20.7073 C   0  0  0  0  0  0
  -26.0558  -26.9113   19.4990 C   0  0  0  0  0  0
  -24.8720  -27.6744   19.5040 C   0  0  0  0  0  0
  -23.6215  -29.8122   20.1653 C   0  0  0  0  0  0
  -25.4091  -36.3076   24.0346 C   0  0  1  0  0  0
  -20.5845  -28.3679   23.1307 C   0  0  2  0  0  0
  -20.6730  -26.9412   22.5426 C   0  0  0  0  0  0
  -19.5728  -26.6396   21.5200 C   0  0  0  0  0  0
  -18.1909  -26.7931   22.1618 C   0  0  0  0  0  0
  -19.1513  -28.8848   23.2900 C   0  0  0  0  0  0
  -18.9445  -30.1440   23.8936 C   0  0  0  0  0  0
  -17.6464  -30.6602   24.0550 C   0  0  0  0  0  0
  -25.9029  -34.9453   23.5121 C   0  0  0  0  0  0
  -16.5352  -29.9105   23.6316 C   0  0  0  0  0  0
  -16.7254  -28.6504   23.0358 C   0  0  0  0  0  0
  -26.4469  -31.6576   25.0715 C   0  0  0  0  0  0
  -25.3761  -31.3716   26.1491 C   0  0  0  0  0  0
  -27.0313  -30.3019   24.6101 C   0  0  0  0  0  0
  -27.6036  -32.4294   25.7492 C   0  0  0  0  0  0
  -27.5563  -37.1799   24.8473 C   0  0  0  0  0  0
  -21.4141  -29.3045   22.3717 N   0  0  0  0  0  0
  -26.4272  -37.3762   23.9422 N   0  0  0  0  0  0
  -24.6741  -31.0706   22.0969 N   0  0  0  0  0  0
  -23.4160  -28.8194   23.3061 O   0  0  0  0  0  0
  -28.4076  -26.6377   20.1586 O   0  0  0  0  0  0
  -26.5596  -34.8903   22.4691 O   0  0  0  0  0  0
  -23.5356  -32.1406   23.7424 O   0  0  0  0  0  0
  -30.2199  -19.5893   21.6978 C   0  0  0  0  0  0
  -30.5176  -18.3999   21.0580 C   0  0  0  0  0  0
  -29.6983  -19.8656   19.5689 C   0  0  0  0  0  0
  -29.1598  -20.4052   18.2849 C   0  0  0  0  0  0
  -32.5748  -17.0121   21.3007 C   0  0  0  0  0  0
  -28.7101  -16.1758   20.9730 C   0  0  0  0  0  0
  -29.9246  -23.0319   20.3016 C   0  0  0  0  0  0
  -29.5596  -24.5032   20.7063 C   0  0  0  0  0  0
  -29.1883  -21.8609   21.0232 C   0  0  0  0  0  0
  -28.3404  -25.1945   20.0200 C   0  0  0  0  0  0
  -31.0623  -17.0717   21.5977 C   0  0  2  0  0  0
  -30.1425  -15.7629   21.4083 C   0  0  2  0  0  0
  -29.7202  -20.4796   20.7658 N   0  0  0  0  0  0
  -30.2271  -18.6434   19.7378 N   0  3  0  0  0  0
  -31.4767  -12.4003   19.1751 H   0  0  0  0  0  0
  -30.3245  -11.3263   19.8899 H   0  0  0  0  0  0
  -29.7796  -11.7356   17.4758 H   0  0  0  0  0  0
  -29.6738  -13.4582   17.7699 H   0  0  0  0  0  0
  -27.8597  -11.2706   18.8472 H   0  0  0  0  0  0
  -27.3843  -12.5676   17.7874 H   0  0  0  0  0  0
  -27.6933  -14.2135   19.5229 H   0  0  0  0  0  0
  -28.7015  -11.9561   21.3306 H   0  0  0  0  0  0
  -28.4639  -13.5615   21.8975 H   0  0  0  0  0  0
  -25.2727   -9.5718   22.4738 H   0  0  0  0  0  0
  -23.9950   -7.4648   22.7479 H   0  0  0  0  0  0
  -21.0777   -8.8753   19.8951 H   0  0  0  0  0  0
  -22.3614  -10.9664   19.6152 H   0  0  0  0  0  0
  -21.1991   -7.6153   23.9745 H   0  0  0  0  0  0
  -21.1480   -6.0519   25.9080 H   0  0  0  0  0  0
  -22.0573   -2.7610   23.2831 H   0  0  0  0  0  0
  -22.4045  -11.9942   22.4848 H   0  0  0  0  0  0
  -21.1113  -13.1364   22.2600 H   0  0  0  0  0  0
  -24.6464  -15.8209   20.5106 H   0  0  0  0  0  0
  -26.2798  -15.6348   20.1161 H   0  0  0  0  0  0
  -26.7125  -32.5490   23.1121 H   0  0  0  0  0  0
  -24.9971  -33.9712   25.0389 H   0  0  0  0  0  0
  -22.7044  -31.3036   21.4027 H   0  0  0  0  0  0
  -23.3721  -35.9667   23.3313 H   0  0  0  0  0  0
  -24.3591  -36.8918   22.2065 H   0  0  0  0  0  0
  -23.7261  -37.6525   23.6664 H   0  0  0  0  0  0
  -26.0460  -31.5760   20.5886 H   0  0  0  0  0  0
  -26.8287  -30.8769   21.9809 H   0  0  0  0  0  0
  -28.0985  -29.0511   21.1875 H   0  0  0  0  0  0
  -26.0266  -25.9470   19.0123 H   0  0  0  0  0  0
  -23.9790  -27.2789   19.0388 H   0  0  0  0  0  0
  -23.7320  -30.5845   19.4036 H   0  0  0  0  0  0
  -22.7430  -29.2343   19.8691 H   0  0  0  0  0  0
  -25.1264  -36.1925   25.0840 H   0  0  0  0  0  0
  -20.9918  -28.3233   24.1427 H   0  0  0  0  0  0
  -20.5581  -26.2295   23.3609 H   0  0  0  0  0  0
  -21.6604  -26.7419   22.1256 H   0  0  0  0  0  0
  -19.6903  -25.6304   21.1225 H   0  0  0  0  0  0
  -19.6673  -27.3188   20.6713 H   0  0  0  0  0  0
  -17.4159  -26.6654   21.4039 H   0  0  0  0  0  0
  -18.0354  -26.0078   22.9027 H   0  0  0  0  0  0
  -19.7941  -30.7218   24.2344 H   0  0  0  0  0  0
  -17.5035  -31.6287   24.5142 H   0  0  0  0  0  0
  -15.5353  -30.3030   23.7626 H   0  0  0  0  0  0
  -15.8645  -28.0828   22.7090 H   0  0  0  0  0  0
  -24.5905  -30.7064   25.7883 H   0  0  0  0  0  0
  -24.8999  -32.2893   26.4945 H   0  0  0  0  0  0
  -25.8139  -30.8907   27.0248 H   0  0  0  0  0  0
  -26.2901  -29.6826   24.1030 H   0  0  0  0  0  0
  -27.3970  -29.7181   25.4561 H   0  0  0  0  0  0
  -27.8762  -30.4360   23.9345 H   0  0  0  0  0  0
  -27.2627  -33.3567   26.2101 H   0  0  0  0  0  0
  -28.3828  -32.6890   25.0319 H   0  0  0  0  0  0
  -28.0725  -31.8420   26.5390 H   0  0  0  0  0  0
  -28.2568  -38.0096   24.7463 H   0  0  0  0  0  0
  -28.1061  -36.2618   24.6334 H   0  0  0  0  0  0
  -27.2304  -37.1509   25.8885 H   0  0  0  0  0  0
  -20.9303  -29.8786   21.6942 H   0  0  0  0  0  0
  -26.0153  -38.2839   24.1410 H   0  0  0  0  0  0
  -30.3068  -19.8488   22.7434 H   0  0  0  0  0  0
  -29.8662  -21.1297   17.8863 H   0  0  0  0  0  0
  -28.1993  -20.8806   18.4865 H   0  0  0  0  0  0
  -29.0277  -19.5864   17.5765 H   0  0  0  0  0  0
  -32.7827  -16.9178   20.2342 H   0  0  0  0  0  0
  -33.0580  -16.1854   21.8199 H   0  0  0  0  0  0
  -33.0659  -17.9251   21.6373 H   0  0  0  0  0  0
  -28.4037  -17.1370   21.3837 H   0  0  0  0  0  0
  -27.9455  -15.5107   21.3596 H   0  0  0  0  0  0
  -28.6178  -16.2344   19.8881 H   0  0  0  0  0  0
  -30.9881  -22.9024   20.5095 H   0  0  0  0  0  0
  -29.8331  -22.9380   19.2219 H   0  0  0  0  0  0
  -30.4312  -25.1115   20.4621 H   0  0  0  0  0  0
  -29.4580  -24.5767   21.7905 H   0  0  0  0  0  0
  -28.1309  -21.8581   20.7612 H   0  0  0  0  0  0
  -29.2369  -22.0229   22.1006 H   0  0  0  0  0  0
  -27.4253  -24.7934   20.4604 H   0  0  0  0  0  0
  -28.3231  -24.9528   18.9575 H   0  0  0  0  0  0
  -31.0486  -17.2146   22.6800 H   0  0  0  0  0  0
  -30.0378  -15.3510   22.4149 H   0  0  0  0  0  0
  -30.3541  -17.9734   18.9871 H   0  0  0  0  0  0
  1 25  1  0  0  0
  1 30  2  0  0  0
  1 82  1  0  0  0
  2  3  1  0  0  0
  2 25  1  0  0  0
  2 85  1  0  0  0
  2 86  1  0  0  0
  3  4  1  0  0  0
  3 87  1  0  0  0
  3 88  1  0  0  0
  4  5  1  0  0  0
  4 89  1  0  0  0
  4 90  1  0  0  0
  5  6  1  0  0  0
  5 26  1  0  0  0
  5 91  1  0  0  0
  6 25  1  0  0  0
  6 92  1  0  0  0
  6 93  1  0  0  0
  7  8  2  0  0  0
  7 26  1  0  0  0
  7 29  1  0  0  0
  8  9  1  0  0  0
  8 22  1  0  0  0
  9 10  1  0  0  0
  9 27  2  0  0  0
 10 11  2  0  0  0
 10 15  1  0  0  0
 11 12  1  0  0  0
 11 94  1  0  0  0
 12 13  2  0  0  0
 12 95  1  0  0  0
 13 14  1  0  0  0
 13 31  1  0  0  0
 14 15  2  0  0  0
 14 96  1  0  0  0
 15 97  1  0  0  0
 16 17  2  0  0  0
 16 21  1  0  0  0
 16 31  1  0  0  0
 17 18  1  0  0  0
 17 98  1  0  0  0
 18 19  2  0  0  0
 18 99  1  0  0  0
 19 20  1  0  0  0
 19 24  1  0  0  0
 20 21  2  0  0  0
 20100  1  0  0  0
 21 23  1  0  0  0
 22 28  1  0  0  0
 22 32  2  0  0  0
 26 27  1  0  0  0
 28101  1  0  0  0
 28102  1  0  0  0
 29103  1  0  0  0
 29104  1  0  0  0
 33 34  1  0  0  0
 33 66  1  0  0  0
 33 70  2  0  0  0
 34 36  1  0  0  0
 34 59  1  0  0  0
 34105  1  0  0  0
 35 44  2  0  0  0
 35 45  1  0  0  0
 35 68  1  0  0  0
 36 56  1  0  0  0
 36106  1  0  0  0
 37 39  1  0  0  0
 37 47  1  0  0  0
 37 66  1  0  0  0
 37107  1  0  0  0
 38 43  2  0  0  0
 38 46  1  0  0  0
 38 47  1  0  0  0
 39 64  1  0  0  0
 39 67  2  0  0  0
 40 52  1  0  0  0
 40 53  2  0  0  0
 40 58  1  0  0  0
 41108  1  0  0  0
 41109  1  0  0  0
 41110  1  0  0  0
 41 48  1  0  0  0
 42 43  1  0  0  0
 42 66  1  0  0  0
 42111  1  0  0  0
 42112  1  0  0  0
 43 44  1  0  0  0
 44113  1  0  0  0
 45 46  2  0  0  0
 45114  1  0  0  0
 46115  1  0  0  0
 47116  1  0  0  0
 47117  1  0  0  0
 48 56  1  0  0  0
 48 65  1  0  0  0
 48118  1  0  0  0
 49 50  1  0  0  0
 49 53  1  0  0  0
 49 64  1  0  0  0
 49119  1  0  0  0
 50 51  1  0  0  0
 50120  1  0  0  0
 50121  1  0  0  0
 51 52  1  0  0  0
 51122  1  0  0  0
 51123  1  0  0  0
 52124  1  0  0  0
 52125  1  0  0  0
 53 54  1  0  0  0
 54 55  2  0  0  0
 54126  1  0  0  0
 55 57  1  0  0  0
 55127  1  0  0  0
 56 69  2  0  0  0
 57 58  2  0  0  0
 57128  1  0  0  0
 58129  1  0  0  0
 59 60  1  0  0  0
 59 61  1  0  0  0
 59 62  1  0  0  0
 60130  1  0  0  0
 60131  1  0  0  0
 60132  1  0  0  0
 61133  1  0  0  0
 61134  1  0  0  0
 61135  1  0  0  0
 62136  1  0  0  0
 62137  1  0  0  0
 62138  1  0  0  0
 63 65  1  0  0  0
 63139  1  0  0  0
 63140  1  0  0  0
 63141  1  0  0  0
 64142  1  0  0  0
 65143  1  0  0  0
 68 80  1  0  0  0
 71 72  2  0  0  0
 71 83  1  0  0  0
 71144  1  0  0  0
 72 81  1  0  0  0
 72 84  1  0  0  0
 73 74  1  0  0  0
 73 83  1  0  0  0
 73 84  2  0  0  0
 74145  1  0  0  0
 74146  1  0  0  0
 74147  1  0  0  0
 75148  1  0  0  0
 75149  1  0  0  0
 75150  1  0  0  0
 75 81  1  0  0  0
 76151  1  0  0  0
 76152  1  0  0  0
 76153  1  0  0  0
 76 82  1  0  0  0
 77 78  1  0  0  0
 77 79  1  0  0  0
 77154  1  0  0  0
 77155  1  0  0  0
 78 80  1  0  0  0
 78156  1  0  0  0
 78157  1  0  0  0
 79 83  1  0  0  0
 79158  1  0  0  0
 79159  1  0  0  0
 80160  1  0  0  0
 80161  1  0  0  0
 81 82  1  0  0  0
 81162  1  0  0  0
 82163  1  0  0  0
 84164  1  0  0  0
M  CHG  1  84   1
M  ISO  4   1 100  68 101  80 101  82 100
M  END
> <chiral flag>
0

> <version>
0

> <s_m_source_file>
/data/baiqing/PycharmProjects/Reinvent-master-3.2/result/LINK_invent/BTK/process_docking_weight1_custom_sum_contain_oxygen_bond_distance_aromatic_linkinvent_7_9_3/rearranged_h_0074.sdf

> <i_m_source_file_index>
29

> <r_mmod_Potential_Energy-OPLS-2005>
3.08024120330811

> <r_mmod_Stretch_Energy-OPLS-2005>
59.4615631103516

> <r_mmod_Bend_Energy-OPLS-2005>
142.890243530273

> <r_mmod_Torsional_Energy-OPLS-2005>
203.196746826172

> <r_mmod_Improper_Torsional_Energy-OPLS-2005>
2.14288520812988

> <r_mmod_Van_der_Waal_Energy-OPLS-2005>
140.445541381836

> <r_mmod_Electrostatic_Energy-OPLS-2005>
-178.800964355469

> <r_mmod_Solvation_Energy-OPLS-2005>
-387.416717529297

> <b_mmod_Minimization_Converged-OPLS-2005>
0

> <r_mmod_RMS_Derivative-OPLS-2005>
3.9440610408783

$$$$
29
                    3D
 Structure written by MMmdl.
156164  0  0  1  0            999 V2000
  -30.5510  -14.8801   20.4403 C   0  0  0  0  0  0
  -30.4446  -12.5335   19.5099 C   0  0  0  0  0  0
  -29.5289  -12.5270   18.2625 C   0  0  0  0  0  0
  -28.0584  -12.3245   18.6731 C   0  0  0  0  0  0
  -27.6421  -13.2417   19.8546 C   0  0  2  0  0  0
  -28.6821  -13.2231   20.9976 C   0  0  0  0  0  0
  -25.2513  -13.8224   20.5688 C   0  0  0  0  0  0
  -24.1813  -13.0451   20.9212 C   0  0  0  0  0  0
  -24.6431  -11.6930   20.8766 C   0  0  0  0  0  0
  -23.9105  -10.4307   21.0432 C   0  0  0  0  0  0
  -24.3642   -9.4206   21.9205 C   0  0  0  0  0  0
  -23.6305   -8.2243   22.0764 C   0  0  0  0  0  0
  -22.4288   -8.0297   21.3546 C   0  0  0  0  0  0
  -21.9937   -9.0281   20.4650 C   0  0  0  0  0  0
  -22.7280  -10.2152   20.3070 C   0  0  0  0  0  0
  -21.6847   -6.0750   22.5286 C   0  0  0  0  0  0
  -21.4016   -6.5653   23.8223 C   0  0  0  0  0  0
  -21.3654   -5.6796   24.9178 C   0  0  0  0  0  0
  -21.6037   -4.3063   24.7222 C   0  0  0  0  0  0
  -21.8815   -3.8161   23.4347 C   0  0  0  0  0  0
  -21.9195   -4.6979   22.3405 C   0  0  0  0  0  0
  -22.7827  -13.5226   21.1866 C   0  0  0  0  0  0
  -22.1655   -4.2165   21.0977 F   0  0  0  0  0  0
  -21.5626   -3.4546   25.7735 F   0  0  0  0  0  0
  -29.9727  -13.6160   20.4203 N   0  0  0  0  0  0
  -26.2951  -12.9433   20.3285 N   0  0  0  0  0  0
  -25.9362  -11.6573   20.5764 N   0  0  0  0  0  0
  -22.0464  -12.8217   22.0417 N   0  0  0  0  0  0
  -25.4193  -15.1939   20.4059 N   0  0  0  0  0  0
  -31.7217  -14.9852   20.0638 O   0  0  0  0  0  0
  -21.6632   -6.8899   21.4253 O   0  0  0  0  0  0
  -22.3514  -14.5527   20.6703 O   0  0  0  0  0  0
  -24.6454  -31.8450   23.1905 C   0  0  0  0  0  0
  -25.9216  -32.4699   23.8291 C   0  0  1  0  0  0
  -27.2056  -27.1304   20.1411 C   0  0  0  0  0  0
  -25.5970  -33.8514   24.2210 N   0  0  0  0  0  0
  -23.4473  -30.4693   21.5362 C   0  0  2  0  0  0
  -24.8940  -28.9020   20.1112 C   0  0  0  0  0  0
  -22.7563  -29.4581   22.4845 C   0  0  0  0  0  0
  -18.0318  -28.1404   22.8475 C   0  0  0  0  0  0
  -24.1489  -36.7259   23.2640 C   0  0  0  0  0  0
  -26.0074  -30.7156   21.3924 C   0  0  0  0  0  0
  -26.0754  -29.3287   20.7311 C   0  0  0  0  0  0
  -27.2328  -28.4585   20.7315 C   0  0  0  0  0  0
  -25.9946  -26.8160   19.4763 C   0  0  0  0  0  0
  -24.8662  -27.6580   19.4704 C   0  0  0  0  0  0
  -23.6739  -29.8056   20.1550 C   0  0  0  0  0  0
  -25.4123  -36.3044   24.0316 C   0  0  1  0  0  0
  -20.5928  -28.3729   23.1208 C   0  0  2  0  0  0
  -20.6804  -26.9458   22.5313 C   0  0  0  0  0  0
  -19.5756  -26.6450   21.5134 C   0  0  0  0  0  0
  -18.1957  -26.7960   22.1603 C   0  0  0  0  0  0
  -19.1576  -28.8881   23.2837 C   0  0  0  0  0  0
  -18.9500  -30.1454   23.8898 C   0  0  0  0  0  0
  -17.6502  -30.6567   24.0589 C   0  0  0  0  0  0
  -25.9082  -34.9411   23.5068 C   0  0  0  0  0  0
  -16.5384  -29.9088   23.6341 C   0  0  0  0  0  0
  -16.7303  -28.6508   23.0349 C   0  0  0  0  0  0
  -26.4532  -31.6575   25.0740 C   0  0  0  0  0  0
  -25.3703  -31.3765   26.1423 C   0  0  0  0  0  0
  -27.0402  -30.2970   24.6329 C   0  0  0  0  0  0
  -27.6053  -32.4346   25.7530 C   0  0  0  0  0  0
  -27.5577  -37.1793   24.8470 C   0  0  0  0  0  0
  -21.4253  -29.3099   22.3620 N   0  0  0  0  0  0
  -26.4289  -37.3751   23.9413 N   0  0  0  0  0  0
  -24.7204  -31.0302   22.0940 N   0  0  0  0  0  0
  -23.4201  -28.8096   23.2975 O   0  0  0  0  0  0
  -28.2332  -26.1147   20.2237 O   0  0  0  0  0  0
  -26.5653  -34.8899   22.4639 O   0  0  0  0  0  0
  -23.5571  -32.1330   23.7131 O   0  0  0  0  0  0
  -29.0639  -20.9708   19.3948 C   0  0  0  0  0  0
  -29.2718  -20.4150   20.6999 C   0  0  0  0  0  0
  -28.6372  -23.1996   20.2162 C   0  0  0  0  0  0
  -29.1279  -20.0962   18.1606 C   0  0  0  0  0  0
  -28.4401  -18.4423   22.1327 C   0  0  0  0  0  0
  -30.8921  -18.8842   21.9823 C   0  0  0  0  0  0
  -27.8404  -24.6290   19.9600 C   0  0  0  0  0  0
  -29.7961  -17.5154   20.1787 C   0  0  0  0  0  0
  -29.5805  -18.8439   21.1727 C   0  0  0  0  0  0
  -28.7567  -22.3155   19.1788 N   0  0  0  0  0  0
  -29.1584  -21.3815   21.6881 N   0  0  0  0  0  0
  -28.8356  -22.7050   21.4702 N   0  0  0  0  0  0
  -29.7542  -16.0200   20.6789 N   0  0  0  0  0  0
  -31.4867  -12.6695   19.2147 H   0  0  0  0  0  0
  -30.4032  -11.5651   20.0130 H   0  0  0  0  0  0
  -29.8369  -11.7455   17.5669 H   0  0  0  0  0  0
  -29.6350  -13.4717   17.7266 H   0  0  0  0  0  0
  -27.9435  -11.2792   18.9636 H   0  0  0  0  0  0
  -27.3983  -12.4780   17.8190 H   0  0  0  0  0  0
  -27.6226  -14.2520   19.4479 H   0  0  0  0  0  0
  -28.7445  -12.2322   21.4511 H   0  0  0  0  0  0
  -28.3950  -13.9086   21.7958 H   0  0  0  0  0  0
  -25.2791   -9.5655   22.4782 H   0  0  0  0  0  0
  -24.0005   -7.4621   22.7479 H   0  0  0  0  0  0
  -21.0866   -8.8812   19.8949 H   0  0  0  0  0  0
  -22.3765  -10.9693   19.6173 H   0  0  0  0  0  0
  -21.2005   -7.6161   23.9729 H   0  0  0  0  0  0
  -21.1478   -6.0527   25.9078 H   0  0  0  0  0  0
  -22.0601   -2.7625   23.2839 H   0  0  0  0  0  0
  -22.4079  -11.9870   22.4801 H   0  0  0  0  0  0
  -21.1086  -13.1256   22.2623 H   0  0  0  0  0  0
  -24.6416  -15.8415   20.4794 H   0  0  0  0  0  0
  -26.2580  -15.6266   20.0423 H   0  0  0  0  0  0
  -26.7288  -32.5299   23.1020 H   0  0  0  0  0  0
  -25.0101  -33.9635   25.0350 H   0  0  0  0  0  0
  -22.7526  -31.2974   21.3843 H   0  0  0  0  0  0
  -23.3759  -35.9585   23.3295 H   0  0  0  0  0  0
  -24.3572  -36.8903   22.2060 H   0  0  0  0  0  0
  -23.7242  -37.6447   23.6683 H   0  0  0  0  0  0
  -26.1649  -31.4698   20.6199 H   0  0  0  0  0  0
  -26.8781  -30.7645   22.0357 H   0  0  0  0  0  0
  -28.1299  -28.7762   21.2455 H   0  0  0  0  0  0
  -25.8613  -25.8723   18.9698 H   0  0  0  0  0  0
  -23.9631  -27.3269   18.9761 H   0  0  0  0  0  0
  -23.8172  -30.5809   19.4029 H   0  0  0  0  0  0
  -22.7883  -29.2520   19.8398 H   0  0  0  0  0  0
  -25.1316  -36.1864   25.0808 H   0  0  0  0  0  0
  -21.0003  -28.3275   24.1329 H   0  0  0  0  0  0
  -20.5740  -26.2307   23.3498 H   0  0  0  0  0  0
  -21.6656  -26.7512   22.1054 H   0  0  0  0  0  0
  -19.6916  -25.6382   21.1105 H   0  0  0  0  0  0
  -19.6629  -27.3308   20.6696 H   0  0  0  0  0  0
  -17.4207  -26.6677   21.4026 H   0  0  0  0  0  0
  -18.0396  -26.0092   22.8985 H   0  0  0  0  0  0
  -19.7972  -30.7263   24.2278 H   0  0  0  0  0  0
  -17.5060  -31.6227   24.5231 H   0  0  0  0  0  0
  -15.5381  -30.2980   23.7685 H   0  0  0  0  0  0
  -15.8703  -28.0818   22.7068 H   0  0  0  0  0  0
  -24.5878  -30.7125   25.7727 H   0  0  0  0  0  0
  -24.8894  -32.2951   26.4792 H   0  0  0  0  0  0
  -25.7965  -30.8959   27.0236 H   0  0  0  0  0  0
  -26.3026  -29.6687   24.1318 H   0  0  0  0  0  0
  -27.3997  -29.7270   25.4907 H   0  0  0  0  0  0
  -27.8941  -30.4214   23.9664 H   0  0  0  0  0  0
  -27.2636  -33.3661   26.2049 H   0  0  0  0  0  0
  -28.3887  -32.6886   25.0381 H   0  0  0  0  0  0
  -28.0686  -31.8511   26.5494 H   0  0  0  0  0  0
  -28.2596  -38.0084   24.7503 H   0  0  0  0  0  0
  -28.1069  -36.2617   24.6314 H   0  0  0  0  0  0
  -27.2294  -37.1463   25.8870 H   0  0  0  0  0  0
  -20.9451  -29.8840   21.6832 H   0  0  0  0  0  0
  -26.0156  -38.2819   24.1394 H   0  0  0  0  0  0
  -29.1237  -20.6822   17.2420 H   0  0  0  0  0  0
  -28.2778  -19.4150   18.1360 H   0  0  0  0  0  0
  -30.0396  -19.5000   18.1645 H   0  0  0  0  0  0
  -28.6046  -17.4608   22.5802 H   0  0  0  0  0  0
  -27.4810  -18.4158   21.6160 H   0  0  0  0  0  0
  -28.3465  -19.1416   22.9635 H   0  0  0  0  0  0
  -31.7268  -19.2018   21.3558 H   0  0  0  0  0  0
  -30.8329  -19.5746   22.8245 H   0  0  0  0  0  0
  -31.1450  -17.9051   22.3916 H   0  0  0  0  0  0
  -26.8954  -24.4737   20.4814 H   0  0  0  0  0  0
  -27.5985  -24.5937   18.8976 H   0  0  0  0  0  0
  -28.9943  -17.5542   19.4421 H   0  0  0  0  0  0
  -30.7124  -17.6467   19.6007 H   0  0  0  0  0  0
  -28.8545  -15.7704   21.0606 H   0  0  0  0  0  0
  1 25  1  0  0  0
  1 30  2  0  0  0
  1 83  1  0  0  0
  2  3  1  0  0  0
  2 25  1  0  0  0
  2 84  1  0  0  0
  2 85  1  0  0  0
  3  4  1  0  0  0
  3 86  1  0  0  0
  3 87  1  0  0  0
  4  5  1  0  0  0
  4 88  1  0  0  0
  4 89  1  0  0  0
  5  6  1  0  0  0
  5 26  1  0  0  0
  5 90  1  0  0  0
  6 25  1  0  0  0
  6 91  1  0  0  0
  6 92  1  0  0  0
  7  8  2  0  0  0
  7 26  1  0  0  0
  7 29  1  0  0  0
  8  9  1  0  0  0
  8 22  1  0  0  0
  9 10  1  0  0  0
  9 27  2  0  0  0
 10 11  2  0  0  0
 10 15  1  0  0  0
 11 12  1  0  0  0
 11 93  1  0  0  0
 12 13  2  0  0  0
 12 94  1  0  0  0
 13 14  1  0  0  0
 13 31  1  0  0  0
 14 15  2  0  0  0
 14 95  1  0  0  0
 15 96  1  0  0  0
 16 17  2  0  0  0
 16 21  1  0  0  0
 16 31  1  0  0  0
 17 18  1  0  0  0
 17 97  1  0  0  0
 18 19  2  0  0  0
 18 98  1  0  0  0
 19 20  1  0  0  0
 19 24  1  0  0  0
 20 21  2  0  0  0
 20 99  1  0  0  0
 21 23  1  0  0  0
 22 28  1  0  0  0
 22 32  2  0  0  0
 26 27  1  0  0  0
 28100  1  0  0  0
 28101  1  0  0  0
 29102  1  0  0  0
 29103  1  0  0  0
 33 34  1  0  0  0
 33 66  1  0  0  0
 33 70  2  0  0  0
 34 36  1  0  0  0
 34 59  1  0  0  0
 34104  1  0  0  0
 35 44  2  0  0  0
 35 45  1  0  0  0
 35 68  1  0  0  0
 36 56  1  0  0  0
 36105  1  0  0  0
 37 39  1  0  0  0
 37 47  1  0  0  0
 37 66  1  0  0  0
 37106  1  0  0  0
 38 43  2  0  0  0
 38 46  1  0  0  0
 38 47  1  0  0  0
 39 64  1  0  0  0
 39 67  2  0  0  0
 40 52  1  0  0  0
 40 53  2  0  0  0
 40 58  1  0  0  0
 41107  1  0  0  0
 41108  1  0  0  0
 41109  1  0  0  0
 41 48  1  0  0  0
 42 43  1  0  0  0
 42 66  1  0  0  0
 42110  1  0  0  0
 42111  1  0  0  0
 43 44  1  0  0  0
 44112  1  0  0  0
 45 46  2  0  0  0
 45113  1  0  0  0
 46114  1  0  0  0
 47115  1  0  0  0
 47116  1  0  0  0
 48 56  1  0  0  0
 48 65  1  0  0  0
 48117  1  0  0  0
 49 50  1  0  0  0
 49 53  1  0  0  0
 49 64  1  0  0  0
 49118  1  0  0  0
 50 51  1  0  0  0
 50119  1  0  0  0
 50120  1  0  0  0
 51 52  1  0  0  0
 51121  1  0  0  0
 51122  1  0  0  0
 52123  1  0  0  0
 52124  1  0  0  0
 53 54  1  0  0  0
 54 55  2  0  0  0
 54125  1  0  0  0
 55 57  1  0  0  0
 55126  1  0  0  0
 56 69  2  0  0  0
 57 58  2  0  0  0
 57127  1  0  0  0
 58128  1  0  0  0
 59 60  1  0  0  0
 59 61  1  0  0  0
 59 62  1  0  0  0
 60129  1  0  0  0
 60130  1  0  0  0
 60131  1  0  0  0
 61132  1  0  0  0
 61133  1  0  0  0
 61134  1  0  0  0
 62135  1  0  0  0
 62136  1  0  0  0
 62137  1  0  0  0
 63 65  1  0  0  0
 63138  1  0  0  0
 63139  1  0  0  0
 63140  1  0  0  0
 64141  1  0  0  0
 65142  1  0  0  0
 68 77  1  0  0  0
 71 72  2  0  0  0
 71 74  1  0  0  0
 71 80  1  0  0  0
 72 79  1  0  0  0
 72 81  1  0  0  0
 73 77  1  0  0  0
 73 80  2  0  0  0
 73 82  1  0  0  0
 74143  1  0  0  0
 74144  1  0  0  0
 74145  1  0  0  0
 75146  1  0  0  0
 75147  1  0  0  0
 75148  1  0  0  0
 75 79  1  0  0  0
 76 79  1  0  0  0
 76149  1  0  0  0
 76150  1  0  0  0
 76151  1  0  0  0
 77152  1  0  0  0
 77153  1  0  0  0
 78 79  1  0  0  0
 78 83  1  0  0  0
 78154  1  0  0  0
 78155  1  0  0  0
 81 82  2  0  0  0
 83156  1  0  0  0
M  ISO  4   1 100  68 101  77 101  83 100
M  END
> <chiral flag>
0

> <version>
0

> <s_m_source_file>
/data/baiqing/PycharmProjects/Reinvent-master-3.2/result/LINK_invent/BTK/process_docking_weight1_custom_sum_contain_oxygen_bond_distance_aromatic_linkinvent_7_9_3/rearranged_h_0074.sdf

> <i_m_source_file_index>
30

> <r_mmod_Potential_Energy-OPLS-2005>
471.673156738281

> <r_mmod_Stretch_Energy-OPLS-2005>
241.321258544922

> <r_mmod_Bend_Energy-OPLS-2005>
284.371337890625

> <r_mmod_Torsional_Energy-OPLS-2005>
214.88166809082

> <r_mmod_Improper_Torsional_Energy-OPLS-2005>
9.22768402099609

> <r_mmod_Van_der_Waal_Energy-OPLS-2005>
143.622344970703

> <r_mmod_Electrostatic_Energy-OPLS-2005>
-355.507843017578

> <r_mmod_Solvation_Energy-OPLS-2005>
-240.067001342773

> <b_mmod_Minimization_Converged-OPLS-2005>
0

> <r_mmod_RMS_Derivative-OPLS-2005>
3.06851768493652

$$$$
30
                    3D
 Structure written by MMmdl.
160168  0  0  1  0            999 V2000
  -30.6792  -14.6550   20.3895 C   0  0  0  0  0  0
  -30.4237  -12.3730   19.4609 C   0  0  0  0  0  0
  -29.5025  -12.3936   18.2242 C   0  0  0  0  0  0
  -28.0159  -12.3141   18.6364 C   0  0  0  0  0  0
  -27.6344  -13.2182   19.8441 C   0  0  2  0  0  0
  -28.6948  -13.1753   20.9628 C   0  0  0  0  0  0
  -25.2511  -13.8171   20.5739 C   0  0  0  0  0  0
  -24.1787  -13.0435   20.9237 C   0  0  0  0  0  0
  -24.6370  -11.6911   20.8807 C   0  0  0  0  0  0
  -23.9059  -10.4294   21.0447 C   0  0  0  0  0  0
  -24.3619   -9.4195   21.9201 C   0  0  0  0  0  0
  -23.6292   -8.2233   22.0756 C   0  0  0  0  0  0
  -22.4272   -8.0286   21.3550 C   0  0  0  0  0  0
  -21.9917   -9.0269   20.4654 C   0  0  0  0  0  0
  -22.7248  -10.2145   20.3075 C   0  0  0  0  0  0
  -21.6848   -6.0743   22.5282 C   0  0  0  0  0  0
  -21.4008   -6.5638   23.8219 C   0  0  0  0  0  0
  -21.3659   -5.6785   24.9174 C   0  0  0  0  0  0
  -21.6047   -4.3052   24.7216 C   0  0  0  0  0  0
  -21.8820   -3.8149   23.4336 C   0  0  0  0  0  0
  -21.9188   -4.6970   22.3398 C   0  0  0  0  0  0
  -22.7810  -13.5232   21.1872 C   0  0  0  0  0  0
  -22.1651   -4.2155   21.0974 F   0  0  0  0  0  0
  -21.5635   -3.4529   25.7725 F   0  0  0  0  0  0
  -29.9935  -13.4691   20.3476 N   0  0  0  0  0  0
  -26.2919  -12.9334   20.3358 N   0  0  0  0  0  0
  -25.9292  -11.6501   20.5851 N   0  0  0  0  0  0
  -22.0423  -12.8249   22.0424 N   0  0  0  0  0  0
  -25.4247  -15.1898   20.4153 N   0  0  0  0  0  0
  -31.9069  -14.6672   20.2712 O   0  0  0  0  0  0
  -21.6624   -6.8892   21.4248 O   0  0  0  0  0  0
  -22.3506  -14.5528   20.6695 O   0  0  0  0  0  0
  -24.6211  -31.8621   23.2037 C   0  0  0  0  0  0
  -25.9069  -32.4794   23.8357 C   0  0  1  0  0  0
  -27.2278  -27.3497   20.1174 C   0  0  0  0  0  0
  -25.5895  -33.8597   24.2273 N   0  0  0  0  0  0
  -23.4139  -30.4850   21.5461 C   0  0  2  0  0  0
  -24.8609  -28.9426   20.1115 C   0  0  0  0  0  0
  -22.7444  -29.4635   22.4948 C   0  0  0  0  0  0
  -18.0277  -28.1393   22.8479 C   0  0  0  0  0  0
  -24.1487  -36.7303   23.2637 C   0  0  0  0  0  0
  -25.9512  -30.8028   21.3694 C   0  0  0  0  0  0
  -26.0266  -29.4326   20.7120 C   0  0  0  0  0  0
  -27.2131  -28.6480   20.7037 C   0  0  0  0  0  0
  -26.0391  -26.9010   19.4961 C   0  0  0  0  0  0
  -24.8668  -27.6807   19.4952 C   0  0  0  0  0  0
  -23.6262  -29.8174   20.1615 C   0  0  0  0  0  0
  -25.4114  -36.3096   24.0325 C   0  0  1  0  0  0
  -20.5872  -28.3682   23.1290 C   0  0  2  0  0  0
  -20.6770  -26.9408   22.5414 C   0  0  0  0  0  0
  -19.5756  -26.6385   21.5207 C   0  0  0  0  0  0
  -18.1931  -26.7935   22.1616 C   0  0  0  0  0  0
  -19.1529  -28.8855   23.2881 C   0  0  0  0  0  0
  -18.9459  -30.1461   23.8892 C   0  0  0  0  0  0
  -17.6463  -30.6594   24.0561 C   0  0  0  0  0  0
  -25.9050  -34.9462   23.5101 C   0  0  0  0  0  0
  -16.5350  -29.9093   23.6333 C   0  0  0  0  0  0
  -16.7267  -28.6515   23.0341 C   0  0  0  0  0  0
  -26.4468  -31.6607   25.0721 C   0  0  0  0  0  0
  -25.3710  -31.3739   26.1452 C   0  0  0  0  0  0
  -27.0301  -30.3035   24.6156 C   0  0  0  0  0  0
  -27.6023  -32.4346   25.7495 C   0  0  0  0  0  0
  -27.5581  -37.1805   24.8456 C   0  0  0  0  0  0
  -21.4162  -29.3035   22.3682 N   0  0  0  0  0  0
  -26.4290  -37.3790   23.9408 N   0  0  0  0  0  0
  -24.6811  -31.0656   22.0970 N   0  0  0  0  0  0
  -23.4181  -28.8172   23.3018 O   0  0  0  0  0  0
  -28.3650  -26.5395   20.1737 O   0  0  0  0  0  0
  -26.5627  -34.8927   22.4675 O   0  0  0  0  0  0
  -23.5385  -32.1396   23.7387 O   0  0  0  0  0  0
  -29.7045  -20.5744   21.4728 C   0  0  0  0  0  0
  -30.0030  -19.9358   20.2381 C   0  0  0  0  0  0
  -29.6661  -22.0119   19.1777 C   0  0  0  0  0  0
  -29.4327  -22.6672   20.4198 C   0  0  0  0  0  0
  -29.7216  -22.7705   17.8644 C   0  0  0  0  0  0
  -32.2535  -18.9021   20.3699 C   0  0  0  0  0  0
  -29.5377  -16.0309   18.7783 C   0  0  0  0  0  0
  -29.4229  -24.2289   20.5733 C   0  0  0  0  0  0
  -30.2833  -17.2071   20.8353 C   0  0  0  0  0  0
  -28.1995  -25.0808   20.0656 C   0  0  0  0  0  0
  -30.7591  -18.5678   20.0904 C   0  0  1  0  0  0
  -29.4142  -21.9137   21.5603 N   0  0  0  0  0  0
  -29.9321  -20.6759   19.0945 N   0  0  0  0  0  0
  -29.9761  -15.8440   20.1840 N   0  0  0  0  0  0
  -31.4658  -12.4694   19.1510 H   0  0  0  0  0  0
  -30.3526  -11.4169   19.9817 H   0  0  0  0  0  0
  -29.7420  -11.5459   17.5813 H   0  0  0  0  0  0
  -29.6976  -13.2708   17.6119 H   0  0  0  0  0  0
  -27.8171  -11.2728   18.8905 H   0  0  0  0  0  0
  -27.3765  -12.5382   17.7814 H   0  0  0  0  0  0
  -27.5974  -14.2362   19.4716 H   0  0  0  0  0  0
  -28.7136  -12.1983   21.4475 H   0  0  0  0  0  0
  -28.4629  -13.9084   21.7373 H   0  0  0  0  0  0
  -25.2763   -9.5651   22.4780 H   0  0  0  0  0  0
  -23.9997   -7.4608   22.7462 H   0  0  0  0  0  0
  -21.0848   -8.8808   19.8955 H   0  0  0  0  0  0
  -22.3723  -10.9700   19.6191 H   0  0  0  0  0  0
  -21.1992   -7.6145   23.9733 H   0  0  0  0  0  0
  -21.1483   -6.0504   25.9084 H   0  0  0  0  0  0
  -22.0601   -2.7615   23.2826 H   0  0  0  0  0  0
  -22.3995  -11.9901   22.4832 H   0  0  0  0  0  0
  -21.1053  -13.1321   22.2618 H   0  0  0  0  0  0
  -24.6679  -15.8553   20.5334 H   0  0  0  0  0  0
  -26.2934  -15.6274   20.1350 H   0  0  0  0  0  0
  -26.7133  -32.5477   23.1110 H   0  0  0  0  0  0
  -25.0015  -33.9752   25.0394 H   0  0  0  0  0  0
  -22.7065  -31.3047   21.4035 H   0  0  0  0  0  0
  -23.3756  -35.9629   23.3295 H   0  0  0  0  0  0
  -24.3568  -36.8932   22.2052 H   0  0  0  0  0  0
  -23.7235  -37.6499   23.6664 H   0  0  0  0  0  0
  -26.0773  -31.5675   20.6020 H   0  0  0  0  0  0
  -26.8329  -30.8506   21.9973 H   0  0  0  0  0  0
  -28.1102  -29.0202   21.1781 H   0  0  0  0  0  0
  -25.9922  -25.9361   19.0133 H   0  0  0  0  0  0
  -23.9716  -27.2994   19.0233 H   0  0  0  0  0  0
  -23.7399  -30.5916   19.4022 H   0  0  0  0  0  0
  -22.7483  -29.2419   19.8629 H   0  0  0  0  0  0
  -25.1298  -36.1946   25.0817 H   0  0  0  0  0  0
  -20.9962  -28.3262   24.1413 H   0  0  0  0  0  0
  -20.5664  -26.2293   23.3610 H   0  0  0  0  0  0
  -21.6644  -26.7447   22.1215 H   0  0  0  0  0  0
  -19.6919  -25.6291   21.1252 H   0  0  0  0  0  0
  -19.6710  -27.3184   20.6730 H   0  0  0  0  0  0
  -17.4200  -26.6661   21.4020 H   0  0  0  0  0  0
  -18.0345  -26.0081   22.9021 H   0  0  0  0  0  0
  -19.7937  -30.7274   24.2254 H   0  0  0  0  0  0
  -17.5022  -31.6273   24.5165 H   0  0  0  0  0  0
  -15.5353  -30.2999   23.7671 H   0  0  0  0  0  0
  -15.8661  -28.0848   22.7048 H   0  0  0  0  0  0
  -24.5875  -30.7099   25.7781 H   0  0  0  0  0  0
  -24.8910  -32.2904   26.4896 H   0  0  0  0  0  0
  -25.8037  -30.8902   27.0218 H   0  0  0  0  0  0
  -26.2864  -29.6813   24.1163 H   0  0  0  0  0  0
  -27.3983  -29.7268   25.4653 H   0  0  0  0  0  0
  -27.8741  -30.4330   23.9374 H   0  0  0  0  0  0
  -27.2619  -33.3638   26.2083 H   0  0  0  0  0  0
  -28.3830  -32.6931   25.0326 H   0  0  0  0  0  0
  -28.0694  -31.8471   26.5411 H   0  0  0  0  0  0
  -28.2594  -38.0110   24.7524 H   0  0  0  0  0  0
  -28.1086  -36.2645   24.6261 H   0  0  0  0  0  0
  -27.2299  -37.1422   25.8858 H   0  0  0  0  0  0
  -20.9330  -29.8750   21.6890 H   0  0  0  0  0  0
  -26.0174  -38.2861   24.1431 H   0  0  0  0  0  0
  -29.8061  -20.0383   22.4051 H   0  0  0  0  0  0
  -28.7328  -23.1417   17.5965 H   0  0  0  0  0  0
  -30.0675  -22.1325   17.0501 H   0  0  0  0  0  0
  -30.4040  -23.6178   17.9286 H   0  0  0  0  0  0
  -32.5801  -19.7578   19.7771 H   0  0  0  0  0  0
  -32.9339  -18.0850   20.1263 H   0  0  0  0  0  0
  -32.4065  -19.1538   21.4193 H   0  0  0  0  0  0
  -28.7867  -16.8133   18.6589 H   0  0  0  0  0  0
  -29.1007  -15.1482   18.3323 H   0  0  0  0  0  0
  -30.3905  -16.2888   18.1478 H   0  0  0  0  0  0
  -30.3224  -24.6025   20.0845 H   0  0  0  0  0  0
  -29.5691  -24.4590   21.6292 H   0  0  0  0  0  0
  -29.2594  -17.4822   20.5873 H   0  0  0  0  0  0
  -31.1907  -16.9256   20.3244 H   0  0  0  0  0  0
  -27.3170  -24.7680   20.6257 H   0  0  0  0  0  0
  -28.0119  -24.8426   19.0196 H   0  0  0  0  0  0
  -30.7068  -18.3797   19.0151 H   0  0  0  0  0  0
  1 25  1  0  0  0
  1 30  2  0  0  0
  1 84  1  0  0  0
  2  3  1  0  0  0
  2 25  1  0  0  0
  2 85  1  0  0  0
  2 86  1  0  0  0
  3  4  1  0  0  0
  3 87  1  0  0  0
  3 88  1  0  0  0
  4  5  1  0  0  0
  4 89  1  0  0  0
  4 90  1  0  0  0
  5  6  1  0  0  0
  5 26  1  0  0  0
  5 91  1  0  0  0
  6 25  1  0  0  0
  6 92  1  0  0  0
  6 93  1  0  0  0
  7  8  2  0  0  0
  7 26  1  0  0  0
  7 29  1  0  0  0
  8  9  1  0  0  0
  8 22  1  0  0  0
  9 10  1  0  0  0
  9 27  2  0  0  0
 10 11  2  0  0  0
 10 15  1  0  0  0
 11 12  1  0  0  0
 11 94  1  0  0  0
 12 13  2  0  0  0
 12 95  1  0  0  0
 13 14  1  0  0  0
 13 31  1  0  0  0
 14 15  2  0  0  0
 14 96  1  0  0  0
 15 97  1  0  0  0
 16 17  2  0  0  0
 16 21  1  0  0  0
 16 31  1  0  0  0
 17 18  1  0  0  0
 17 98  1  0  0  0
 18 19  2  0  0  0
 18 99  1  0  0  0
 19 20  1  0  0  0
 19 24  1  0  0  0
 20 21  2  0  0  0
 20100  1  0  0  0
 21 23  1  0  0  0
 22 28  1  0  0  0
 22 32  2  0  0  0
 26 27  1  0  0  0
 28101  1  0  0  0
 28102  1  0  0  0
 29103  1  0  0  0
 29104  1  0  0  0
 33 34  1  0  0  0
 33 66  1  0  0  0
 33 70  2  0  0  0
 34 36  1  0  0  0
 34 59  1  0  0  0
 34105  1  0  0  0
 35 44  2  0  0  0
 35 45  1  0  0  0
 35 68  1  0  0  0
 36 56  1  0  0  0
 36106  1  0  0  0
 37 39  1  0  0  0
 37 47  1  0  0  0
 37 66  1  0  0  0
 37107  1  0  0  0
 38 43  2  0  0  0
 38 46  1  0  0  0
 38 47  1  0  0  0
 39 64  1  0  0  0
 39 67  2  0  0  0
 40 52  1  0  0  0
 40 53  2  0  0  0
 40 58  1  0  0  0
 41108  1  0  0  0
 41109  1  0  0  0
 41110  1  0  0  0
 41 48  1  0  0  0
 42 43  1  0  0  0
 42 66  1  0  0  0
 42111  1  0  0  0
 42112  1  0  0  0
 43 44  1  0  0  0
 44113  1  0  0  0
 45 46  2  0  0  0
 45114  1  0  0  0
 46115  1  0  0  0
 47116  1  0  0  0
 47117  1  0  0  0
 48 56  1  0  0  0
 48 65  1  0  0  0
 48118  1  0  0  0
 49 50  1  0  0  0
 49 53  1  0  0  0
 49 64  1  0  0  0
 49119  1  0  0  0
 50 51  1  0  0  0
 50120  1  0  0  0
 50121  1  0  0  0
 51 52  1  0  0  0
 51122  1  0  0  0
 51123  1  0  0  0
 52124  1  0  0  0
 52125  1  0  0  0
 53 54  1  0  0  0
 54 55  2  0  0  0
 54126  1  0  0  0
 55 57  1  0  0  0
 55127  1  0  0  0
 56 69  2  0  0  0
 57 58  2  0  0  0
 57128  1  0  0  0
 58129  1  0  0  0
 59 60  1  0  0  0
 59 61  1  0  0  0
 59 62  1  0  0  0
 60130  1  0  0  0
 60131  1  0  0  0
 60132  1  0  0  0
 61133  1  0  0  0
 61134  1  0  0  0
 61135  1  0  0  0
 62136  1  0  0  0
 62137  1  0  0  0
 62138  1  0  0  0
 63 65  1  0  0  0
 63139  1  0  0  0
 63140  1  0  0  0
 63141  1  0  0  0
 64142  1  0  0  0
 65143  1  0  0  0
 68 80  1  0  0  0
 71 72  2  0  0  0
 71 82  1  0  0  0
 71144  1  0  0  0
 72 81  1  0  0  0
 72 83  1  0  0  0
 73 74  1  0  0  0
 73 75  1  0  0  0
 73 83  2  0  0  0
 74 78  1  0  0  0
 74 82  2  0  0  0
 75145  1  0  0  0
 75146  1  0  0  0
 75147  1  0  0  0
 76148  1  0  0  0
 76149  1  0  0  0
 76150  1  0  0  0
 76 81  1  0  0  0
 77 84  1  0  0  0
 77151  1  0  0  0
 77152  1  0  0  0
 77153  1  0  0  0
 78 80  1  0  0  0
 78154  1  0  0  0
 78155  1  0  0  0
 79 81  1  0  0  0
 79 84  1  0  0  0
 79156  1  0  0  0
 79157  1  0  0  0
 80158  1  0  0  0
 80159  1  0  0  0
 81160  1  0  0  0
M  ISO  4   1 100  68 101  80 101  84 100
M  END
> <chiral flag>
0

> <version>
0

> <s_m_source_file>
/data/baiqing/PycharmProjects/Reinvent-master-3.2/result/LINK_invent/BTK/process_docking_weight1_custom_sum_contain_oxygen_bond_distance_aromatic_linkinvent_7_9_3/rearranged_h_0074.sdf

> <i_m_source_file_index>
31

> <r_mmod_Potential_Energy-OPLS-2005>
570.601745605469

> <r_mmod_Stretch_Energy-OPLS-2005>
92.7099380493164

> <r_mmod_Bend_Energy-OPLS-2005>
370.351409912109

> <r_mmod_Torsional_Energy-OPLS-2005>
318.133972167969

> <r_mmod_Improper_Torsional_Energy-OPLS-2005>
16.1940937042236

> <r_mmod_Van_der_Waal_Energy-OPLS-2005>
187.195159912109

> <r_mmod_Electrostatic_Energy-OPLS-2005>
-266.829711914062

> <r_mmod_Solvation_Energy-OPLS-2005>
-207.85400390625

> <b_mmod_Minimization_Converged-OPLS-2005>
0

> <r_mmod_RMS_Derivative-OPLS-2005>
1.3029670715332

$$$$
31
                    3D
 Structure written by MMmdl.
160168  0  0  1  0            999 V2000
  -30.6827  -14.7999   20.2837 C   0  0  0  0  0  0
  -30.4228  -12.4789   19.4475 C   0  0  0  0  0  0
  -29.4890  -12.4356   18.2202 C   0  0  0  0  0  0
  -28.0267  -12.2303   18.6633 C   0  0  0  0  0  0
  -27.6100  -13.1718   19.8194 C   0  0  2  0  0  0
  -28.6868  -13.2968   20.9235 C   0  0  0  0  0  0
  -25.2507  -13.7982   20.5785 C   0  0  0  0  0  0
  -24.1745  -13.0333   20.9287 C   0  0  0  0  0  0
  -24.6287  -11.6791   20.8848 C   0  0  0  0  0  0
  -23.8958  -10.4228   21.0464 C   0  0  0  0  0  0
  -24.3538   -9.4150   21.9221 C   0  0  0  0  0  0
  -23.6234   -8.2184   22.0764 C   0  0  0  0  0  0
  -22.4225   -8.0232   21.3543 C   0  0  0  0  0  0
  -21.9846   -9.0201   20.4653 C   0  0  0  0  0  0
  -22.7155  -10.2089   20.3079 C   0  0  0  0  0  0
  -21.6826   -6.0711   22.5279 C   0  0  0  0  0  0
  -21.3996   -6.5625   23.8213 C   0  0  0  0  0  0
  -21.3655   -5.6777   24.9178 C   0  0  0  0  0  0
  -21.6049   -4.3041   24.7233 C   0  0  0  0  0  0
  -21.8815   -3.8133   23.4349 C   0  0  0  0  0  0
  -21.9184   -4.6948   22.3410 C   0  0  0  0  0  0
  -22.7790  -13.5193   21.1909 C   0  0  0  0  0  0
  -22.1652   -4.2139   21.0988 F   0  0  0  0  0  0
  -21.5635   -3.4534   25.7750 F   0  0  0  0  0  0
  -29.9808  -13.6072   20.2933 N   0  0  0  0  0  0
  -26.2831  -12.9032   20.3370 N   0  0  0  0  0  0
  -25.9191  -11.6263   20.5894 N   0  0  0  0  0  0
  -22.0390  -12.8225   22.0450 N   0  0  0  0  0  0
  -25.4241  -15.1702   20.4178 N   0  0  0  0  0  0
  -31.9055  -14.7234   20.4045 O   0  0  0  0  0  0
  -21.6592   -6.8836   21.4235 O   0  0  0  0  0  0
  -22.3541  -14.5530   20.6754 O   0  0  0  0  0  0
  -24.6229  -31.8591   23.1997 C   0  0  0  0  0  0
  -25.9062  -32.4785   23.8351 C   0  0  1  0  0  0
  -27.2434  -27.3242   20.1257 C   0  0  0  0  0  0
  -25.5878  -33.8588   24.2266 N   0  0  0  0  0  0
  -23.4193  -30.4781   21.5434 C   0  0  2  0  0  0
  -24.8700  -28.9202   20.1209 C   0  0  0  0  0  0
  -22.7441  -29.4641   22.4962 C   0  0  0  0  0  0
  -18.0257  -28.1360   22.8495 C   0  0  0  0  0  0
  -24.1485  -36.7299   23.2648 C   0  0  0  0  0  0
  -25.9580  -30.7901   21.3686 C   0  0  0  0  0  0
  -26.0371  -29.4126   20.7186 C   0  0  0  0  0  0
  -27.2276  -28.6289   20.7078 C   0  0  0  0  0  0
  -26.0576  -26.8783   19.5051 C   0  0  0  0  0  0
  -24.8814  -27.6560   19.5048 C   0  0  0  0  0  0
  -23.6364  -29.8015   20.1637 C   0  0  0  0  0  0
  -25.4112  -36.3108   24.0336 C   0  0  1  0  0  0
  -20.5860  -28.3694   23.1281 C   0  0  2  0  0  0
  -20.6758  -26.9425   22.5405 C   0  0  0  0  0  0
  -19.5727  -26.6371   21.5218 C   0  0  0  0  0  0
  -18.1896  -26.7900   22.1623 C   0  0  0  0  0  0
  -19.1508  -28.8837   23.2875 C   0  0  0  0  0  0
  -18.9446  -30.1436   23.8899 C   0  0  0  0  0  0
  -17.6448  -30.6569   24.0575 C   0  0  0  0  0  0
  -25.9044  -34.9467   23.5112 C   0  0  0  0  0  0
  -16.5337  -29.9078   23.6341 C   0  0  0  0  0  0
  -16.7243  -28.6491   23.0364 C   0  0  0  0  0  0
  -26.4446  -31.6601   25.0727 C   0  0  0  0  0  0
  -25.3679  -31.3697   26.1465 C   0  0  0  0  0  0
  -27.0314  -30.3046   24.6160 C   0  0  0  0  0  0
  -27.6026  -32.4346   25.7452 C   0  0  0  0  0  0
  -27.5568  -37.1798   24.8460 C   0  0  0  0  0  0
  -21.4157  -29.3057   22.3689 N   0  0  0  0  0  0
  -26.4289  -37.3796   23.9405 N   0  0  0  0  0  0
  -24.6861  -31.0584   22.0955 N   0  0  0  0  0  0
  -23.4152  -28.8201   23.3067 O   0  0  0  0  0  0
  -28.3780  -26.5004   20.1264 O   0  0  0  0  0  0
  -26.5639  -34.8937   22.4696 O   0  0  0  0  0  0
  -23.5389  -32.1394   23.7312 O   0  0  0  0  0  0
  -30.4649  -18.8291   19.5941 C   0  0  0  0  0  0
  -29.4900  -19.3122   21.4355 C   0  0  0  0  0  0
  -30.1886  -17.6075   20.2244 C   0  0  0  0  0  0
  -28.5848  -23.8820   18.4075 C   0  0  0  0  0  0
  -31.1365  -16.2837   18.3074 C   0  0  0  0  0  0
  -28.7891  -16.1050   18.9357 C   0  0  0  0  0  0
  -29.0324  -22.4683   20.5163 C   0  0  0  0  0  0
  -30.0508  -21.3794   19.9406 C   0  0  0  0  0  0
  -28.2476  -25.1030   20.6089 C   0  0  0  0  0  0
  -29.0611  -23.9446   19.8683 C   0  0  2  0  0  0
  -30.1899  -16.1777   19.5404 C   0  0  0  0  0  0
  -29.5573  -17.9631   21.4278 N   0  0  0  0  0  0
  -29.9684  -19.9218   20.3347 N   0  0  0  0  0  0
  -31.4569  -12.5961   19.1193 H   0  0  0  0  0  0
  -30.3829  -11.5431   20.0077 H   0  0  0  0  0  0
  -29.7886  -11.6302   17.5498 H   0  0  0  0  0  0
  -29.5828  -13.3508   17.6377 H   0  0  0  0  0  0
  -27.9271  -11.1927   18.9828 H   0  0  0  0  0  0
  -27.3522  -12.3476   17.8143 H   0  0  0  0  0  0
  -27.4715  -14.1092   19.3269 H   0  0  0  0  0  0
  -28.7607  -12.3719   21.4985 H   0  0  0  0  0  0
  -28.4162  -14.0833   21.6298 H   0  0  0  0  0  0
  -25.2670   -9.5635   22.4807 H   0  0  0  0  0  0
  -23.9952   -7.4566   22.7463 H   0  0  0  0  0  0
  -21.0784   -8.8693   19.8947 H   0  0  0  0  0  0
  -22.3599  -10.9633   19.6195 H   0  0  0  0  0  0
  -21.1973   -7.6132   23.9708 H   0  0  0  0  0  0
  -21.1485   -6.0519   25.9083 H   0  0  0  0  0  0
  -22.0603   -2.7599   23.2850 H   0  0  0  0  0  0
  -22.3942  -11.9851   22.4827 H   0  0  0  0  0  0
  -21.1021  -13.1297   22.2655 H   0  0  0  0  0  0
  -24.6606  -15.8273   20.5336 H   0  0  0  0  0  0
  -26.2890  -15.6110   20.1344 H   0  0  0  0  0  0
  -26.7139  -32.5457   23.1116 H   0  0  0  0  0  0
  -25.0056  -33.9754   25.0430 H   0  0  0  0  0  0
  -22.7152  -31.2989   21.3908 H   0  0  0  0  0  0
  -23.3764  -35.9609   23.3308 H   0  0  0  0  0  0
  -24.3593  -36.8924   22.2067 H   0  0  0  0  0  0
  -23.7214  -37.6490   23.6671 H   0  0  0  0  0  0
  -26.0784  -31.5456   20.5912 H   0  0  0  0  0  0
  -26.8431  -30.8514   21.9902 H   0  0  0  0  0  0
  -28.1253  -29.0114   21.1722 H   0  0  0  0  0  0
  -26.0406  -25.9146   19.0147 H   0  0  0  0  0  0
  -23.9920  -27.2701   19.0268 H   0  0  0  0  0  0
  -23.7522  -30.5724   19.4006 H   0  0  0  0  0  0
  -22.7570  -29.2262   19.8689 H   0  0  0  0  0  0
  -25.1280  -36.1995   25.0826 H   0  0  0  0  0  0
  -20.9920  -28.3277   24.1411 H   0  0  0  0  0  0
  -20.5660  -26.2314   23.3603 H   0  0  0  0  0  0
  -21.6628  -26.7462   22.1191 H   0  0  0  0  0  0
  -19.6916  -25.6284   21.1242 H   0  0  0  0  0  0
  -19.6657  -27.3187   20.6752 H   0  0  0  0  0  0
  -17.4178  -26.6674   21.4007 H   0  0  0  0  0  0
  -18.0280  -26.0013   22.8989 H   0  0  0  0  0  0
  -19.7937  -30.7238   24.2256 H   0  0  0  0  0  0
  -17.5022  -31.6249   24.5175 H   0  0  0  0  0  0
  -15.5344  -30.2991   23.7644 H   0  0  0  0  0  0
  -15.8640  -28.0811   22.7085 H   0  0  0  0  0  0
  -24.5865  -30.7034   25.7788 H   0  0  0  0  0  0
  -24.8837  -32.2824   26.4946 H   0  0  0  0  0  0
  -25.8010  -30.8845   27.0221 H   0  0  0  0  0  0
  -26.2892  -29.6763   24.1223 H   0  0  0  0  0  0
  -27.4103  -29.7337   25.4649 H   0  0  0  0  0  0
  -27.8692  -30.4374   23.9313 H   0  0  0  0  0  0
  -27.2675  -33.3675   26.1991 H   0  0  0  0  0  0
  -28.3800  -32.6877   25.0228 H   0  0  0  0  0  0
  -28.0716  -31.8497   26.5376 H   0  0  0  0  0  0
  -28.2599  -38.0087   24.7543 H   0  0  0  0  0  0
  -28.1061  -36.2637   24.6247 H   0  0  0  0  0  0
  -27.2287  -37.1390   25.8861 H   0  0  0  0  0  0
  -20.9322  -29.8790   21.6917 H   0  0  0  0  0  0
  -26.0188  -38.2874   24.1417 H   0  0  0  0  0  0
  -30.8951  -19.0057   18.6180 H   0  0  0  0  0  0
  -29.0459  -19.8720   22.2476 H   0  0  0  0  0  0
  -29.2237  -23.2490   17.7940 H   0  0  0  0  0  0
  -28.5860  -24.8719   17.9506 H   0  0  0  0  0  0
  -27.5679  -23.4926   18.3456 H   0  0  0  0  0  0
  -30.7821  -16.9961   17.5621 H   0  0  0  0  0  0
  -31.2424  -15.3306   17.7867 H   0  0  0  0  0  0
  -32.1381  -16.6018   18.6022 H   0  0  0  0  0  0
  -28.5626  -17.0051   18.3634 H   0  0  0  0  0  0
  -28.0445  -16.0600   19.7272 H   0  0  0  0  0  0
  -28.6936  -15.2920   18.2244 H   0  0  0  0  0  0
  -29.2140  -22.5571   21.5881 H   0  0  0  0  0  0
  -28.0189  -22.0745   20.4315 H   0  0  0  0  0  0
  -31.0679  -21.7155   20.1521 H   0  0  0  0  0  0
  -29.9733  -21.3903   18.8541 H   0  0  0  0  0  0
  -28.5924  -25.1267   21.6425 H   0  0  0  0  0  0
  -27.2006  -24.8062   20.6776 H   0  0  0  0  0  0
  -30.1019  -24.2700   19.8618 H   0  0  0  0  0  0
  1 25  1  0  0  0
  1 30  2  0  0  0
  1 81  1  0  0  0
  2  3  1  0  0  0
  2 25  1  0  0  0
  2 84  1  0  0  0
  2 85  1  0  0  0
  3  4  1  0  0  0
  3 86  1  0  0  0
  3 87  1  0  0  0
  4  5  1  0  0  0
  4 88  1  0  0  0
  4 89  1  0  0  0
  5  6  1  0  0  0
  5 26  1  0  0  0
  5 90  1  0  0  0
  6 25  1  0  0  0
  6 91  1  0  0  0
  6 92  1  0  0  0
  7  8  2  0  0  0
  7 26  1  0  0  0
  7 29  1  0  0  0
  8  9  1  0  0  0
  8 22  1  0  0  0
  9 10  1  0  0  0
  9 27  2  0  0  0
 10 11  2  0  0  0
 10 15  1  0  0  0
 11 12  1  0  0  0
 11 93  1  0  0  0
 12 13  2  0  0  0
 12 94  1  0  0  0
 13 14  1  0  0  0
 13 31  1  0  0  0
 14 15  2  0  0  0
 14 95  1  0  0  0
 15 96  1  0  0  0
 16 17  2  0  0  0
 16 21  1  0  0  0
 16 31  1  0  0  0
 17 18  1  0  0  0
 17 97  1  0  0  0
 18 19  2  0  0  0
 18 98  1  0  0  0
 19 20  1  0  0  0
 19 24  1  0  0  0
 20 21  2  0  0  0
 20 99  1  0  0  0
 21 23  1  0  0  0
 22 28  1  0  0  0
 22 32  2  0  0  0
 26 27  1  0  0  0
 28100  1  0  0  0
 28101  1  0  0  0
 29102  1  0  0  0
 29103  1  0  0  0
 33 34  1  0  0  0
 33 66  1  0  0  0
 33 70  2  0  0  0
 34 36  1  0  0  0
 34 59  1  0  0  0
 34104  1  0  0  0
 35 44  2  0  0  0
 35 45  1  0  0  0
 35 68  1  0  0  0
 36 56  1  0  0  0
 36105  1  0  0  0
 37 39  1  0  0  0
 37 47  1  0  0  0
 37 66  1  0  0  0
 37106  1  0  0  0
 38 43  2  0  0  0
 38 46  1  0  0  0
 38 47  1  0  0  0
 39 64  1  0  0  0
 39 67  2  0  0  0
 40 52  1  0  0  0
 40 53  2  0  0  0
 40 58  1  0  0  0
 41107  1  0  0  0
 41108  1  0  0  0
 41109  1  0  0  0
 41 48  1  0  0  0
 42 43  1  0  0  0
 42 66  1  0  0  0
 42110  1  0  0  0
 42111  1  0  0  0
 43 44  1  0  0  0
 44112  1  0  0  0
 45 46  2  0  0  0
 45113  1  0  0  0
 46114  1  0  0  0
 47115  1  0  0  0
 47116  1  0  0  0
 48 56  1  0  0  0
 48 65  1  0  0  0
 48117  1  0  0  0
 49 50  1  0  0  0
 49 53  1  0  0  0
 49 64  1  0  0  0
 49118  1  0  0  0
 50 51  1  0  0  0
 50119  1  0  0  0
 50120  1  0  0  0
 51 52  1  0  0  0
 51121  1  0  0  0
 51122  1  0  0  0
 52123  1  0  0  0
 52124  1  0  0  0
 53 54  1  0  0  0
 54 55  2  0  0  0
 54125  1  0  0  0
 55 57  1  0  0  0
 55126  1  0  0  0
 56 69  2  0  0  0
 57 58  2  0  0  0
 57127  1  0  0  0
 58128  1  0  0  0
 59 60  1  0  0  0
 59 61  1  0  0  0
 59 62  1  0  0  0
 60129  1  0  0  0
 60130  1  0  0  0
 60131  1  0  0  0
 61132  1  0  0  0
 61133  1  0  0  0
 61134  1  0  0  0
 62135  1  0  0  0
 62136  1  0  0  0
 62137  1  0  0  0
 63 65  1  0  0  0
 63138  1  0  0  0
 63139  1  0  0  0
 63140  1  0  0  0
 64141  1  0  0  0
 65142  1  0  0  0
 68 79  1  0  0  0
 71 73  2  0  0  0
 71 83  1  0  0  0
 71143  1  0  0  0
 72 82  2  0  0  0
 72 83  1  0  0  0
 72144  1  0  0  0
 73 81  1  0  0  0
 73 82  1  0  0  0
 74145  1  0  0  0
 74146  1  0  0  0
 74147  1  0  0  0
 74 80  1  0  0  0
 75148  1  0  0  0
 75149  1  0  0  0
 75150  1  0  0  0
 75 81  1  0  0  0
 76 81  1  0  0  0
 76151  1  0  0  0
 76152  1  0  0  0
 76153  1  0  0  0
 77 78  1  0  0  0
 77 80  1  0  0  0
 77154  1  0  0  0
 77155  1  0  0  0
 78 83  1  0  0  0
 78156  1  0  0  0
 78157  1  0  0  0
 79 80  1  0  0  0
 79158  1  0  0  0
 79159  1  0  0  0
 80160  1  0  0  0
M  ISO  4   1 100  68 101  79 101  81 100
M  END
> <chiral flag>
0

> <version>
0

> <s_m_source_file>
/data/baiqing/PycharmProjects/Reinvent-master-3.2/result/LINK_invent/BTK/process_docking_weight1_custom_sum_contain_oxygen_bond_distance_aromatic_linkinvent_7_9_3/rearranged_h_0074.sdf

> <i_m_source_file_index>
32

> <r_mmod_Potential_Energy-OPLS-2005>
368.480621337891

> <r_mmod_Stretch_Energy-OPLS-2005>
105.956665039062

> <r_mmod_Bend_Energy-OPLS-2005>
202.757614135742

> <r_mmod_Torsional_Energy-OPLS-2005>
264.970855712891

> <r_mmod_Improper_Torsional_Energy-OPLS-2005>
21.1882705688477

> <r_mmod_Van_der_Waal_Energy-OPLS-2005>
130.470672607422

> <r_mmod_Electrostatic_Energy-OPLS-2005>
-269.249084472656

> <r_mmod_Solvation_Energy-OPLS-2005>
-200.849090576172

> <b_mmod_Minimization_Converged-OPLS-2005>
0

> <r_mmod_RMS_Derivative-OPLS-2005>
2.80523920059204

$$$$
32
                    3D
 Structure written by MMmdl.
161169  0  0  1  0            999 V2000
  -30.6913  -14.6256   20.5585 C   0  0  0  0  0  0
  -30.4219  -12.4220   19.4329 C   0  0  0  0  0  0
  -29.4760  -12.5357   18.2176 C   0  0  0  0  0  0
  -28.0062  -12.3534   18.6325 C   0  0  0  0  0  0
  -27.6457  -13.2096   19.8733 C   0  0  2  0  0  0
  -28.7002  -13.0192   20.9865 C   0  0  0  0  0  0
  -25.2484  -13.8168   20.5708 C   0  0  0  0  0  0
  -24.1753  -13.0405   20.9247 C   0  0  0  0  0  0
  -24.6343  -11.6904   20.8811 C   0  0  0  0  0  0
  -23.9020  -10.4278   21.0464 C   0  0  0  0  0  0
  -24.3574   -9.4198   21.9215 C   0  0  0  0  0  0
  -23.6281   -8.2214   22.0741 C   0  0  0  0  0  0
  -22.4275   -8.0252   21.3515 C   0  0  0  0  0  0
  -21.9909   -9.0241   20.4634 C   0  0  0  0  0  0
  -22.7217  -10.2139   20.3090 C   0  0  0  0  0  0
  -21.6847   -6.0720   22.5262 C   0  0  0  0  0  0
  -21.4007   -6.5636   23.8192 C   0  0  0  0  0  0
  -21.3664   -5.6799   24.9161 C   0  0  0  0  0  0
  -21.6060   -4.3060   24.7222 C   0  0  0  0  0  0
  -21.8804   -3.8142   23.4340 C   0  0  0  0  0  0
  -21.9197   -4.6950   22.3401 C   0  0  0  0  0  0
  -22.7792  -13.5220   21.1908 C   0  0  0  0  0  0
  -22.1663   -4.2137   21.0981 F   0  0  0  0  0  0
  -21.5649   -3.4549   25.7738 F   0  0  0  0  0  0
  -30.0062  -13.4296   20.4414 N   0  0  0  0  0  0
  -26.2921  -12.9328   20.3424 N   0  0  0  0  0  0
  -25.9270  -11.6488   20.5862 N   0  0  0  0  0  0
  -22.0425  -12.8216   22.0486 N   0  0  0  0  0  0
  -25.4086  -15.1883   20.4071 N   0  0  0  0  0  0
  -31.8484  -14.6322   20.1418 O   0  0  0  0  0  0
  -21.6633   -6.8855   21.4219 O   0  0  0  0  0  0
  -22.3472  -14.5505   20.6761 O   0  0  0  0  0  0
  -24.6211  -31.8588   23.2062 C   0  0  0  0  0  0
  -25.9063  -32.4783   23.8360 C   0  0  1  0  0  0
  -27.2367  -27.3563   20.0856 C   0  0  0  0  0  0
  -25.5897  -33.8593   24.2277 N   0  0  0  0  0  0
  -23.4159  -30.4912   21.5403 C   0  0  2  0  0  0
  -24.8669  -28.9558   20.1073 C   0  0  0  0  0  0
  -22.7404  -29.4660   22.4812 C   0  0  0  0  0  0
  -18.0278  -28.1422   22.8461 C   0  0  0  0  0  0
  -24.1505  -36.7276   23.2628 C   0  0  0  0  0  0
  -25.9578  -30.8042   21.3733 C   0  0  0  0  0  0
  -26.0342  -29.4371   20.7097 C   0  0  0  0  0  0
  -27.2174  -28.6432   20.6992 C   0  0  0  0  0  0
  -26.0425  -26.9304   19.4516 C   0  0  0  0  0  0
  -24.8677  -27.7033   19.4783 C   0  0  0  0  0  0
  -23.6304  -29.8249   20.1575 C   0  0  0  0  0  0
  -25.4131  -36.3068   24.0303 C   0  0  1  0  0  0
  -20.5870  -28.3699   23.1236 C   0  0  2  0  0  0
  -20.6774  -26.9402   22.5394 C   0  0  0  0  0  0
  -19.5773  -26.6407   21.5183 C   0  0  0  0  0  0
  -18.1939  -26.7973   22.1599 C   0  0  0  0  0  0
  -19.1530  -28.8866   23.2870 C   0  0  0  0  0  0
  -18.9468  -30.1461   23.8894 C   0  0  0  0  0  0
  -17.6475  -30.6612   24.0579 C   0  0  0  0  0  0
  -25.9045  -34.9434   23.5076 C   0  0  0  0  0  0
  -16.5353  -29.9118   23.6362 C   0  0  0  0  0  0
  -16.7264  -28.6557   23.0328 C   0  0  0  0  0  0
  -26.4502  -31.6587   25.0699 C   0  0  0  0  0  0
  -25.3767  -31.3715   26.1431 C   0  0  0  0  0  0
  -27.0324  -30.3005   24.6160 C   0  0  0  0  0  0
  -27.6086  -32.4279   25.7470 C   0  0  0  0  0  0
  -27.5562  -37.1774   24.8436 C   0  0  0  0  0  0
  -21.4117  -29.3063   22.3565 N   0  0  0  0  0  0
  -26.4291  -37.3757   23.9367 N   0  0  0  0  0  0
  -24.6836  -31.0636   22.0982 N   0  0  0  0  0  0
  -23.4126  -28.8119   23.2833 O   0  0  0  0  0  0
  -28.3766  -26.5394   20.1298 O   0  0  0  0  0  0
  -26.5587  -34.8881   22.4633 O   0  0  0  0  0  0
  -23.5368  -32.1318   23.7426 O   0  0  0  0  0  0
  -28.8200  -20.4478   21.0687 C   0  0  0  0  0  0
  -31.2007  -19.6677   20.1040 C   0  0  0  0  0  0
  -29.5762  -21.3259   20.2402 C   0  0  0  0  0  0
  -30.4526  -18.7597   20.9212 C   0  0  0  0  0  0
  -28.8746  -15.9484   21.9150 C   0  0  0  0  0  0
  -31.2167  -17.3299   22.9071 C   0  0  0  0  0  0
  -32.4587  -17.2190   20.8346 C   0  0  0  0  0  0
  -28.9836  -22.6223   19.6198 C   0  0  0  0  0  0
  -29.2791  -24.0510   20.2269 C   0  0  0  0  0  0
  -28.2595  -25.1385   19.7045 C   0  0  0  0  0  0
  -30.0571  -16.0662   20.9300 C   0  0  1  0  0  0
  -31.0023  -17.3315   21.3656 C   0  0  0  0  0  0
  -30.7861  -20.9251   19.7799 N   0  0  0  0  0  0
  -29.2555  -19.1965   21.4146 N   0  0  0  0  0  0
  -31.4477  -12.5548   19.0862 H   0  0  0  0  0  0
  -30.3901  -11.4226   19.8599 H   0  0  0  0  0  0
  -29.7449  -11.8006   17.4576 H   0  0  0  0  0  0
  -29.5958  -13.5206   17.7655 H   0  0  0  0  0  0
  -27.8538  -11.2951   18.8495 H   0  0  0  0  0  0
  -27.3428  -12.5896   17.7988 H   0  0  0  0  0  0
  -27.6694  -14.2490   19.5486 H   0  0  0  0  0  0
  -28.7480  -11.9683   21.2768 H   0  0  0  0  0  0
  -28.4180  -13.4988   21.9160 H   0  0  0  0  0  0
  -25.2671   -9.5738   22.4828 H   0  0  0  0  0  0
  -24.0014   -7.4617   22.7454 H   0  0  0  0  0  0
  -21.0849   -8.8773   19.8929 H   0  0  0  0  0  0
  -22.3644  -10.9709   19.6255 H   0  0  0  0  0  0
  -21.1960   -7.6138   23.9707 H   0  0  0  0  0  0
  -21.1522   -6.0518   25.9081 H   0  0  0  0  0  0
  -22.0576   -2.7603   23.2841 H   0  0  0  0  0  0
  -22.4024  -11.9941   22.4991 H   0  0  0  0  0  0
  -21.1026  -13.1244   22.2605 H   0  0  0  0  0  0
  -24.6336  -15.8350   20.5159 H   0  0  0  0  0  0
  -26.2694  -15.6487   20.1413 H   0  0  0  0  0  0
  -26.7106  -32.5470   23.1076 H   0  0  0  0  0  0
  -25.0069  -33.9785   25.0438 H   0  0  0  0  0  0
  -22.7128  -31.3138   21.3923 H   0  0  0  0  0  0
  -23.3763  -35.9616   23.3310 H   0  0  0  0  0  0
  -24.3605  -36.8877   22.2041 H   0  0  0  0  0  0
  -23.7303  -37.6492   23.6664 H   0  0  0  0  0  0
  -26.0796  -31.5767   20.6136 H   0  0  0  0  0  0
  -26.8428  -30.8539   21.9965 H   0  0  0  0  0  0
  -28.1164  -29.0030   21.1764 H   0  0  0  0  0  0
  -25.9815  -25.9903   18.9243 H   0  0  0  0  0  0
  -23.9633  -27.3413   19.0054 H   0  0  0  0  0  0
  -23.7334  -30.5952   19.3927 H   0  0  0  0  0  0
  -22.7598  -29.2354   19.8645 H   0  0  0  0  0  0
  -25.1340  -36.1913   25.0804 H   0  0  0  0  0  0
  -21.0051  -28.3334   24.1320 H   0  0  0  0  0  0
  -20.5683  -26.2270   23.3581 H   0  0  0  0  0  0
  -21.6638  -26.7420   22.1174 H   0  0  0  0  0  0
  -19.6933  -25.6330   21.1180 H   0  0  0  0  0  0
  -19.6794  -27.3244   20.6742 H   0  0  0  0  0  0
  -17.4197  -26.6653   21.4022 H   0  0  0  0  0  0
  -18.0386  -26.0156   22.9048 H   0  0  0  0  0  0
  -19.7938  -30.7279   24.2264 H   0  0  0  0  0  0
  -17.5035  -31.6312   24.5145 H   0  0  0  0  0  0
  -15.5358  -30.3022   23.7746 H   0  0  0  0  0  0
  -15.8635  -28.0924   22.7001 H   0  0  0  0  0  0
  -24.6009  -30.6983   25.7756 H   0  0  0  0  0  0
  -24.8908  -32.2880   26.4796 H   0  0  0  0  0  0
  -25.8145  -30.8960   27.0222 H   0  0  0  0  0  0
  -26.2883  -29.6758   24.1215 H   0  0  0  0  0  0
  -27.3997  -29.7267   25.4677 H   0  0  0  0  0  0
  -27.8770  -30.4217   23.9379 H   0  0  0  0  0  0
  -27.2755  -33.3586   26.2076 H   0  0  0  0  0  0
  -28.3945  -32.6797   25.0336 H   0  0  0  0  0  0
  -28.0707  -31.8362   26.5384 H   0  0  0  0  0  0
  -28.2551  -38.0082   24.7476 H   0  0  0  0  0  0
  -28.1074  -36.2604   24.6310 H   0  0  0  0  0  0
  -27.2218  -37.1439   25.8812 H   0  0  0  0  0  0
  -20.9202  -29.8776   21.6815 H   0  0  0  0  0  0
  -26.0148  -38.2784   24.1517 H   0  0  0  0  0  0
  -27.8231  -20.7226   21.3959 H   0  0  0  0  0  0
  -32.1640  -19.4188   19.6874 H   0  0  0  0  0  0
  -28.5607  -16.9016   22.3307 H   0  0  0  0  0  0
  -29.1393  -15.3142   22.7646 H   0  0  0  0  0  0
  -27.9838  -15.5707   21.4242 H   0  0  0  0  0  0
  -31.6095  -16.3670   23.2386 H   0  0  0  0  0  0
  -30.3042  -17.5049   23.4766 H   0  0  0  0  0  0
  -31.9201  -18.1066   23.2180 H   0  0  0  0  0  0
  -33.0672  -18.0856   21.0930 H   0  0  0  0  0  0
  -32.4792  -17.1002   19.7493 H   0  0  0  0  0  0
  -32.9953  -16.3854   21.2883 H   0  0  0  0  0  0
  -27.9059  -22.4697   19.5801 H   0  0  0  0  0  0
  -29.2827  -22.6454   18.5690 H   0  0  0  0  0  0
  -30.3033  -24.3497   19.9975 H   0  0  0  0  0  0
  -29.2134  -23.9959   21.3148 H   0  0  0  0  0  0
  -27.2883  -24.7498   20.0085 H   0  0  0  0  0  0
  -28.2720  -25.1324   18.6118 H   0  0  0  0  0  0
  -29.6273  -16.3847   19.9790 H   0  0  0  0  0  0
  1 25  1  0  0  0
  1 30  2  0  0  0
  1 81  1  0  0  0
  2  3  1  0  0  0
  2 25  1  0  0  0
  2 85  1  0  0  0
  2 86  1  0  0  0
  3  4  1  0  0  0
  3 87  1  0  0  0
  3 88  1  0  0  0
  4  5  1  0  0  0
  4 89  1  0  0  0
  4 90  1  0  0  0
  5  6  1  0  0  0
  5 26  1  0  0  0
  5 91  1  0  0  0
  6 25  1  0  0  0
  6 92  1  0  0  0
  6 93  1  0  0  0
  7  8  2  0  0  0
  7 26  1  0  0  0
  7 29  1  0  0  0
  8  9  1  0  0  0
  8 22  1  0  0  0
  9 10  1  0  0  0
  9 27  2  0  0  0
 10 11  2  0  0  0
 10 15  1  0  0  0
 11 12  1  0  0  0
 11 94  1  0  0  0
 12 13  2  0  0  0
 12 95  1  0  0  0
 13 14  1  0  0  0
 13 31  1  0  0  0
 14 15  2  0  0  0
 14 96  1  0  0  0
 15 97  1  0  0  0
 16 17  2  0  0  0
 16 21  1  0  0  0
 16 31  1  0  0  0
 17 18  1  0  0  0
 17 98  1  0  0  0
 18 19  2  0  0  0
 18 99  1  0  0  0
 19 20  1  0  0  0
 19 24  1  0  0  0
 20 21  2  0  0  0
 20100  1  0  0  0
 21 23  1  0  0  0
 22 28  1  0  0  0
 22 32  2  0  0  0
 26 27  1  0  0  0
 28101  1  0  0  0
 28102  1  0  0  0
 29103  1  0  0  0
 29104  1  0  0  0
 33 34  1  0  0  0
 33 66  1  0  0  0
 33 70  2  0  0  0
 34 36  1  0  0  0
 34 59  1  0  0  0
 34105  1  0  0  0
 35 44  2  0  0  0
 35 45  1  0  0  0
 35 68  1  0  0  0
 36 56  1  0  0  0
 36106  1  0  0  0
 37 39  1  0  0  0
 37 47  1  0  0  0
 37 66  1  0  0  0
 37107  1  0  0  0
 38 43  2  0  0  0
 38 46  1  0  0  0
 38 47  1  0  0  0
 39 64  1  0  0  0
 39 67  2  0  0  0
 40 52  1  0  0  0
 40 53  2  0  0  0
 40 58  1  0  0  0
 41108  1  0  0  0
 41109  1  0  0  0
 41110  1  0  0  0
 41 48  1  0  0  0
 42 43  1  0  0  0
 42 66  1  0  0  0
 42111  1  0  0  0
 42112  1  0  0  0
 43 44  1  0  0  0
 44113  1  0  0  0
 45 46  2  0  0  0
 45114  1  0  0  0
 46115  1  0  0  0
 47116  1  0  0  0
 47117  1  0  0  0
 48 56  1  0  0  0
 48 65  1  0  0  0
 48118  1  0  0  0
 49 50  1  0  0  0
 49 53  1  0  0  0
 49 64  1  0  0  0
 49119  1  0  0  0
 50 51  1  0  0  0
 50120  1  0  0  0
 50121  1  0  0  0
 51 52  1  0  0  0
 51122  1  0  0  0
 51123  1  0  0  0
 52124  1  0  0  0
 52125  1  0  0  0
 53 54  1  0  0  0
 54 55  2  0  0  0
 54126  1  0  0  0
 55 57  1  0  0  0
 55127  1  0  0  0
 56 69  2  0  0  0
 57 58  2  0  0  0
 57128  1  0  0  0
 58129  1  0  0  0
 59 60  1  0  0  0
 59 61  1  0  0  0
 59 62  1  0  0  0
 60130  1  0  0  0
 60131  1  0  0  0
 60132  1  0  0  0
 61133  1  0  0  0
 61134  1  0  0  0
 61135  1  0  0  0
 62136  1  0  0  0
 62137  1  0  0  0
 62138  1  0  0  0
 63 65  1  0  0  0
 63139  1  0  0  0
 63140  1  0  0  0
 63141  1  0  0  0
 64142  1  0  0  0
 65143  1  0  0  0
 68 80  1  0  0  0
 71 73  2  0  0  0
 71 84  1  0  0  0
 71144  1  0  0  0
 72 74  1  0  0  0
 72 83  2  0  0  0
 72145  1  0  0  0
 73 78  1  0  0  0
 73 83  1  0  0  0
 74 82  1  0  0  0
 74 84  2  0  0  0
 75146  1  0  0  0
 75147  1  0  0  0
 75148  1  0  0  0
 75 81  1  0  0  0
 76149  1  0  0  0
 76150  1  0  0  0
 76151  1  0  0  0
 76 82  1  0  0  0
 77 82  1  0  0  0
 77152  1  0  0  0
 77153  1  0  0  0
 77154  1  0  0  0
 78 79  1  0  0  0
 78155  1  0  0  0
 78156  1  0  0  0
 79 80  1  0  0  0
 79157  1  0  0  0
 79158  1  0  0  0
 80159  1  0  0  0
 80160  1  0  0  0
 81 82  1  0  0  0
 81161  1  0  0  0
M  ISO  4   1 100  68 101  80 101  81 100
M  END
> <chiral flag>
0

> <version>
0

> <s_m_source_file>
/data/baiqing/PycharmProjects/Reinvent-master-3.2/result/LINK_invent/BTK/process_docking_weight1_custom_sum_contain_oxygen_bond_distance_aromatic_linkinvent_7_9_3/rearranged_h_0074.sdf

> <i_m_source_file_index>
33

> <r_mmod_Potential_Energy-OPLS-2005>
227.979568481445

> <r_mmod_Stretch_Energy-OPLS-2005>
96.9095916748047

> <r_mmod_Bend_Energy-OPLS-2005>
170.551712036133

> <r_mmod_Torsional_Energy-OPLS-2005>
170.880737304688

> <r_mmod_Improper_Torsional_Energy-OPLS-2005>
6.80342483520508

> <r_mmod_Van_der_Waal_Energy-OPLS-2005>
193.682373046875

> <r_mmod_Electrostatic_Energy-OPLS-2005>
-252.608276367188

> <r_mmod_Solvation_Energy-OPLS-2005>
-195.499801635742

> <b_mmod_Minimization_Converged-OPLS-2005>
0

> <r_mmod_RMS_Derivative-OPLS-2005>
5.51438093185425

$$$$
33
                    3D
 Structure written by MMmdl.
167175  0  0  1  0            999 V2000
  -30.8167  -14.5750   20.3676 C   0  0  0  0  0  0
  -30.4356  -12.3314   19.4545 C   0  0  0  0  0  0
  -29.5279  -12.4373   18.2148 C   0  0  0  0  0  0
  -28.0494  -12.2894   18.6202 C   0  0  0  0  0  0
  -27.6649  -13.1748   19.8323 C   0  0  2  0  0  0
  -28.7373  -13.1406   20.9499 C   0  0  0  0  0  0
  -25.2818  -13.7998   20.5635 C   0  0  0  0  0  0
  -24.1995  -13.0393   20.9108 C   0  0  0  0  0  0
  -24.6459  -11.6816   20.8671 C   0  0  0  0  0  0
  -23.9087  -10.4243   21.0374 C   0  0  0  0  0  0
  -24.3621   -9.4149   21.9182 C   0  0  0  0  0  0
  -23.6275   -8.2208   22.0743 C   0  0  0  0  0  0
  -22.4245   -8.0260   21.3538 C   0  0  0  0  0  0
  -21.9895   -9.0239   20.4645 C   0  0  0  0  0  0
  -22.7243  -10.2112   20.3046 C   0  0  0  0  0  0
  -21.6850   -6.0732   22.5284 C   0  0  0  0  0  0
  -21.3997   -6.5642   23.8212 C   0  0  0  0  0  0
  -21.3650   -5.6794   24.9180 C   0  0  0  0  0  0
  -21.6057   -4.3057   24.7219 C   0  0  0  0  0  0
  -21.8822   -3.8157   23.4339 C   0  0  0  0  0  0
  -21.9177   -4.6967   22.3396 C   0  0  0  0  0  0
  -22.8034  -13.5240   21.1784 C   0  0  0  0  0  0
  -22.1572   -4.2152   21.0964 F   0  0  0  0  0  0
  -21.5690   -3.4530   25.7718 F   0  0  0  0  0  0
  -30.0522  -13.4337   20.3542 N   0  0  0  0  0  0
  -26.3171  -12.9077   20.3222 N   0  0  0  0  0  0
  -25.9395  -11.6278   20.5666 N   0  0  0  0  0  0
  -22.0705  -12.8220   22.0320 N   0  0  0  0  0  0
  -25.4747  -15.1727   20.4028 N   0  0  0  0  0  0
  -32.0268  -14.4694   20.2026 O   0  0  0  0  0  0
  -21.6615   -6.8856   21.4233 O   0  0  0  0  0  0
  -22.3722  -14.5593   20.6688 O   0  0  0  0  0  0
  -24.5992  -31.8733   23.2129 C   0  0  0  0  0  0
  -25.8884  -32.4835   23.8476 C   0  0  1  0  0  0
  -27.2422  -27.4886   20.0760 C   0  0  0  0  0  0
  -25.5742  -33.8642   24.2343 N   0  0  0  0  0  0
  -23.3871  -30.4949   21.5526 C   0  0  2  0  0  0
  -24.8365  -28.9709   20.1184 C   0  0  0  0  0  0
  -22.7334  -29.4651   22.5026 C   0  0  0  0  0  0
  -18.0287  -28.1379   22.8528 C   0  0  0  0  0  0
  -24.1495  -36.7377   23.2645 C   0  0  0  0  0  0
  -25.9155  -30.8500   21.3633 C   0  0  0  0  0  0
  -25.9944  -29.4913   20.7104 C   0  0  0  0  0  0
  -27.1955  -28.7606   20.6797 C   0  0  0  0  0  0
  -26.0583  -26.9589   19.5065 C   0  0  0  0  0  0
  -24.8611  -27.7016   19.5190 C   0  0  0  0  0  0
  -23.5959  -29.8326   20.1701 C   0  0  0  0  0  0
  -25.4115  -36.3147   24.0334 C   0  0  1  0  0  0
  -20.5852  -28.3623   23.1382 C   0  0  2  0  0  0
  -20.6777  -26.9367   22.5454 C   0  0  0  0  0  0
  -19.5764  -26.6380   21.5229 C   0  0  0  0  0  0
  -18.1914  -26.7937   22.1636 C   0  0  0  0  0  0
  -19.1530  -28.8820   23.2960 C   0  0  0  0  0  0
  -18.9435  -30.1444   23.8935 C   0  0  0  0  0  0
  -17.6430  -30.6573   24.0592 C   0  0  0  0  0  0
  -25.8992  -34.9479   23.5165 C   0  0  0  0  0  0
  -16.5329  -29.9059   23.6355 C   0  0  0  0  0  0
  -16.7264  -28.6510   23.0350 C   0  0  0  0  0  0
  -26.4355  -31.6584   25.0750 C   0  0  0  0  0  0
  -25.3630  -31.3616   26.1512 C   0  0  0  0  0  0
  -27.0118  -30.3035   24.6028 C   0  0  0  0  0  0
  -27.5999  -32.4294   25.7413 C   0  0  0  0  0  0
  -27.5608  -37.1823   24.8451 C   0  0  0  0  0  0
  -21.4064  -29.2996   22.3763 N   0  0  0  0  0  0
  -26.4328  -37.3786   23.9387 N   0  0  0  0  0  0
  -24.6530  -31.0878   22.1008 N   0  0  0  0  0  0
  -23.4157  -28.8186   23.3028 O   0  0  0  0  0  0
  -28.4521  -26.8383   20.0548 O   0  0  0  0  0  0
  -26.5614  -34.8880   22.4768 O   0  0  0  0  0  0
  -23.5199  -32.1465   23.7565 O   0  0  0  0  0  0
  -32.7089  -18.9005   20.3065 C   0  0  0  0  0  0
  -30.5324  -19.3639   20.2269 C   0  0  0  0  0  0
  -32.5796  -20.1359   19.7218 C   0  0  0  0  0  0
  -31.1743  -20.3614   19.5493 C   0  0  0  0  0  0
  -33.7150  -21.0366   19.2820 C   0  0  0  0  0  0
  -28.8361  -16.3284   20.3702 C   0  0  0  0  0  0
  -30.6615  -16.4009   18.6602 C   0  0  0  0  0  0
  -30.4778  -21.4229   18.7298 C   0  0  0  0  0  0
  -30.1596  -22.7305   19.4695 C   0  0  0  0  0  0
  -30.2890  -23.9337   18.5135 C   0  0  0  0  0  0
  -30.0200  -25.3015   19.1516 C   0  0  0  0  0  0
  -31.1389  -17.0601   21.1211 C   0  0  0  0  0  0
  -28.5364  -25.6005   19.3692 C   0  0  0  0  0  0
  -30.3411  -16.0743   20.1601 C   0  0  0  0  0  0
  -31.4490  -18.3848   20.5644 N   0  0  0  0  0  0
  -31.4868  -12.3546   19.1598 H   0  0  0  0  0  0
  -30.3057  -11.3703   19.9561 H   0  0  0  0  0  0
  -29.7998  -11.6835   17.4757 H   0  0  0  0  0  0
  -29.6737  -13.4072   17.7418 H   0  0  0  0  0  0
  -27.8660  -11.2400   18.8451 H   0  0  0  0  0  0
  -27.4211  -12.5477   17.7684 H   0  0  0  0  0  0
  -27.6350  -14.1653   19.4105 H   0  0  0  0  0  0
  -28.7763  -12.1424   21.3890 H   0  0  0  0  0  0
  -28.5101  -13.8031   21.7824 H   0  0  0  0  0  0
  -25.2825   -9.5550   22.4708 H   0  0  0  0  0  0
  -24.0005   -7.4578   22.7417 H   0  0  0  0  0  0
  -21.0863   -8.8728   19.8930 H   0  0  0  0  0  0
  -22.3743  -10.9639   19.6087 H   0  0  0  0  0  0
  -21.1922   -7.6148   23.9678 H   0  0  0  0  0  0
  -21.1456   -6.0553   25.9085 H   0  0  0  0  0  0
  -22.0597   -2.7628   23.2836 H   0  0  0  0  0  0
  -22.4374  -11.9899   22.4712 H   0  0  0  0  0  0
  -21.1293  -13.1182   22.2520 H   0  0  0  0  0  0
  -24.7324  -15.8530   20.4693 H   0  0  0  0  0  0
  -26.3519  -15.5693   20.0946 H   0  0  0  0  0  0
  -26.6894  -32.5539   23.1208 H   0  0  0  0  0  0
  -24.9709  -33.9956   25.0333 H   0  0  0  0  0  0
  -22.6688  -31.3044   21.4164 H   0  0  0  0  0  0
  -23.3719  -35.9730   23.3311 H   0  0  0  0  0  0
  -24.3575  -36.9025   22.2049 H   0  0  0  0  0  0
  -23.7267  -37.6582   23.6699 H   0  0  0  0  0  0
  -26.0260  -31.6126   20.5960 H   0  0  0  0  0  0
  -26.8007  -30.9025   21.9816 H   0  0  0  0  0  0
  -28.0980  -29.1813   21.1091 H   0  0  0  0  0  0
  -26.0326  -25.9896   19.0380 H   0  0  0  0  0  0
  -23.9718  -27.2946   19.0590 H   0  0  0  0  0  0
  -23.6828  -30.6131   19.4135 H   0  0  0  0  0  0
  -22.7234  -29.2440   19.8820 H   0  0  0  0  0  0
  -25.1249  -36.2067   25.0808 H   0  0  0  0  0  0
  -20.9985  -28.3161   24.1478 H   0  0  0  0  0  0
  -20.5678  -26.2157   23.3592 H   0  0  0  0  0  0
  -21.6634  -26.7397   22.1202 H   0  0  0  0  0  0
  -19.6906  -25.6282   21.1251 H   0  0  0  0  0  0
  -19.6769  -27.3215   20.6771 H   0  0  0  0  0  0
  -17.4197  -26.6732   21.4030 H   0  0  0  0  0  0
  -18.0318  -26.0046   22.8993 H   0  0  0  0  0  0
  -19.7877  -30.7317   24.2262 H   0  0  0  0  0  0
  -17.4947  -31.6256   24.5183 H   0  0  0  0  0  0
  -15.5333  -30.2973   23.7637 H   0  0  0  0  0  0
  -15.8673  -28.0852   22.7001 H   0  0  0  0  0  0
  -24.5882  -30.6864   25.7874 H   0  0  0  0  0  0
  -24.8683  -32.2679   26.4986 H   0  0  0  0  0  0
  -25.7996  -30.8819   27.0268 H   0  0  0  0  0  0
  -26.2601  -29.6884   24.1058 H   0  0  0  0  0  0
  -27.3851  -29.7186   25.4440 H   0  0  0  0  0  0
  -27.8454  -30.4341   23.9115 H   0  0  0  0  0  0
  -27.2733  -33.3685   26.1887 H   0  0  0  0  0  0
  -28.3793  -32.6717   25.0167 H   0  0  0  0  0  0
  -28.0626  -31.8426   26.5368 H   0  0  0  0  0  0
  -28.2588  -38.0150   24.7512 H   0  0  0  0  0  0
  -28.1161  -36.2687   24.6275 H   0  0  0  0  0  0
  -27.2342  -37.1458   25.8856 H   0  0  0  0  0  0
  -20.9135  -29.8729   21.7063 H   0  0  0  0  0  0
  -26.0255  -38.2869   24.1371 H   0  0  0  0  0  0
  -33.6001  -18.3306   20.5435 H   0  0  0  0  0  0
  -29.4743  -19.2313   20.3876 H   0  0  0  0  0  0
  -34.6790  -20.5190   19.3103 H   0  0  0  0  0  0
  -33.8020  -21.9050   19.9400 H   0  0  0  0  0  0
  -33.5540  -21.3941   18.2640 H   0  0  0  0  0  0
  -28.6027  -17.3831   20.4834 H   0  0  0  0  0  0
  -28.4512  -15.8569   21.2690 H   0  0  0  0  0  0
  -28.2674  -16.0533   19.4854 H   0  0  0  0  0  0
  -31.7091  -16.2406   18.3990 H   0  0  0  0  0  0
  -30.4335  -17.4250   18.3699 H   0  0  0  0  0  0
  -30.0850  -15.7715   17.9822 H   0  0  0  0  0  0
  -29.5310  -21.0140   18.3655 H   0  0  0  0  0  0
  -31.0798  -21.5956   17.8377 H   0  0  0  0  0  0
  -30.8273  -22.8606   20.3234 H   0  0  0  0  0  0
  -29.1503  -22.6682   19.8869 H   0  0  0  0  0  0
  -29.6335  -23.7901   17.6519 H   0  0  0  0  0  0
  -31.3007  -23.9525   18.1132 H   0  0  0  0  0  0
  -30.4157  -26.0703   18.4920 H   0  0  0  0  0  0
  -30.5650  -25.3960   20.0897 H   0  0  0  0  0  0
  -32.0915  -16.6355   21.4416 H   0  0  0  0  0  0
  -30.5939  -17.2319   22.0465 H   0  0  0  0  0  0
  -28.0441  -24.8254   19.9555 H   0  0  0  0  0  0
  -28.0510  -25.6573   18.3942 H   0  0  0  0  0  0
  1 25  1  0  0  0
  1 30  2  0  0  0
  1 84  1  0  0  0
  2  3  1  0  0  0
  2 25  1  0  0  0
  2 86  1  0  0  0
  2 87  1  0  0  0
  3  4  1  0  0  0
  3 88  1  0  0  0
  3 89  1  0  0  0
  4  5  1  0  0  0
  4 90  1  0  0  0
  4 91  1  0  0  0
  5  6  1  0  0  0
  5 26  1  0  0  0
  5 92  1  0  0  0
  6 25  1  0  0  0
  6 93  1  0  0  0
  6 94  1  0  0  0
  7  8  2  0  0  0
  7 26  1  0  0  0
  7 29  1  0  0  0
  8  9  1  0  0  0
  8 22  1  0  0  0
  9 10  1  0  0  0
  9 27  2  0  0  0
 10 11  2  0  0  0
 10 15  1  0  0  0
 11 12  1  0  0  0
 11 95  1  0  0  0
 12 13  2  0  0  0
 12 96  1  0  0  0
 13 14  1  0  0  0
 13 31  1  0  0  0
 14 15  2  0  0  0
 14 97  1  0  0  0
 15 98  1  0  0  0
 16 17  2  0  0  0
 16 21  1  0  0  0
 16 31  1  0  0  0
 17 18  1  0  0  0
 17 99  1  0  0  0
 18 19  2  0  0  0
 18100  1  0  0  0
 19 20  1  0  0  0
 19 24  1  0  0  0
 20 21  2  0  0  0
 20101  1  0  0  0
 21 23  1  0  0  0
 22 28  1  0  0  0
 22 32  2  0  0  0
 26 27  1  0  0  0
 28102  1  0  0  0
 28103  1  0  0  0
 29104  1  0  0  0
 29105  1  0  0  0
 33 34  1  0  0  0
 33 66  1  0  0  0
 33 70  2  0  0  0
 34 36  1  0  0  0
 34 59  1  0  0  0
 34106  1  0  0  0
 35 44  2  0  0  0
 35 45  1  0  0  0
 35 68  1  0  0  0
 36 56  1  0  0  0
 36107  1  0  0  0
 37 39  1  0  0  0
 37 47  1  0  0  0
 37 66  1  0  0  0
 37108  1  0  0  0
 38 43  2  0  0  0
 38 46  1  0  0  0
 38 47  1  0  0  0
 39 64  1  0  0  0
 39 67  2  0  0  0
 40 52  1  0  0  0
 40 53  2  0  0  0
 40 58  1  0  0  0
 41109  1  0  0  0
 41110  1  0  0  0
 41111  1  0  0  0
 41 48  1  0  0  0
 42 43  1  0  0  0
 42 66  1  0  0  0
 42112  1  0  0  0
 42113  1  0  0  0
 43 44  1  0  0  0
 44114  1  0  0  0
 45 46  2  0  0  0
 45115  1  0  0  0
 46116  1  0  0  0
 47117  1  0  0  0
 47118  1  0  0  0
 48 56  1  0  0  0
 48 65  1  0  0  0
 48119  1  0  0  0
 49 50  1  0  0  0
 49 53  1  0  0  0
 49 64  1  0  0  0
 49120  1  0  0  0
 50 51  1  0  0  0
 50121  1  0  0  0
 50122  1  0  0  0
 51 52  1  0  0  0
 51123  1  0  0  0
 51124  1  0  0  0
 52125  1  0  0  0
 52126  1  0  0  0
 53 54  1  0  0  0
 54 55  2  0  0  0
 54127  1  0  0  0
 55 57  1  0  0  0
 55128  1  0  0  0
 56 69  2  0  0  0
 57 58  2  0  0  0
 57129  1  0  0  0
 58130  1  0  0  0
 59 60  1  0  0  0
 59 61  1  0  0  0
 59 62  1  0  0  0
 60131  1  0  0  0
 60132  1  0  0  0
 60133  1  0  0  0
 61134  1  0  0  0
 61135  1  0  0  0
 61136  1  0  0  0
 62137  1  0  0  0
 62138  1  0  0  0
 62139  1  0  0  0
 63 65  1  0  0  0
 63140  1  0  0  0
 63141  1  0  0  0
 63142  1  0  0  0
 64143  1  0  0  0
 65144  1  0  0  0
 68 83  1  0  0  0
 71 73  2  0  0  0
 71 85  1  0  0  0
 71145  1  0  0  0
 72 74  2  0  0  0
 72 85  1  0  0  0
 72146  1  0  0  0
 73 74  1  0  0  0
 73 75  1  0  0  0
 74 78  1  0  0  0
 75147  1  0  0  0
 75148  1  0  0  0
 75149  1  0  0  0
 76150  1  0  0  0
 76151  1  0  0  0
 76152  1  0  0  0
 76 84  1  0  0  0
 77 84  1  0  0  0
 77153  1  0  0  0
 77154  1  0  0  0
 77155  1  0  0  0
 78 79  1  0  0  0
 78156  1  0  0  0
 78157  1  0  0  0
 79 80  1  0  0  0
 79158  1  0  0  0
 79159  1  0  0  0
 80 81  1  0  0  0
 80160  1  0  0  0
 80161  1  0  0  0
 81 83  1  0  0  0
 81162  1  0  0  0
 81163  1  0  0  0
 82 84  1  0  0  0
 82 85  1  0  0  0
 82164  1  0  0  0
 82165  1  0  0  0
 83166  1  0  0  0
 83167  1  0  0  0
M  ISO  4   1 100  68 101  83 101  84 100
M  END
> <chiral flag>
0

> <version>
0

> <s_m_source_file>
/data/baiqing/PycharmProjects/Reinvent-master-3.2/result/LINK_invent/BTK/process_docking_weight1_custom_sum_contain_oxygen_bond_distance_aromatic_linkinvent_7_9_3/rearranged_h_0074.sdf

> <i_m_source_file_index>
34

> <r_mmod_Potential_Energy-OPLS-2005>
124.966110229492

> <r_mmod_Stretch_Energy-OPLS-2005>
44.8061714172363

> <r_mmod_Bend_Energy-OPLS-2005>
143.451370239258

> <r_mmod_Torsional_Energy-OPLS-2005>
239.81037902832

> <r_mmod_Improper_Torsional_Energy-OPLS-2005>
10.5444793701172

> <r_mmod_Van_der_Waal_Energy-OPLS-2005>
145.84521484375

> <r_mmod_Electrostatic_Energy-OPLS-2005>
-320.649536132812

> <r_mmod_Solvation_Energy-OPLS-2005>
-187.792938232422

> <b_mmod_Minimization_Converged-OPLS-2005>
0

> <r_mmod_RMS_Derivative-OPLS-2005>
9.45015525817871

$$$$
34
                    3D
 Structure written by MMmdl.
166174  0  0  1  0            999 V2000
  -30.7497  -14.4598   20.5431 C   0  0  0  0  0  0
  -30.4022  -12.2952   19.4271 C   0  0  0  0  0  0
  -29.4827  -12.4873   18.2063 C   0  0  0  0  0  0
  -28.0067  -12.3554   18.6262 C   0  0  0  0  0  0
  -27.6565  -13.2125   19.8716 C   0  0  2  0  0  0
  -28.7035  -13.0362   20.9964 C   0  0  0  0  0  0
  -25.2580  -13.8176   20.5708 C   0  0  0  0  0  0
  -24.1837  -13.0444   20.9197 C   0  0  0  0  0  0
  -24.6400  -11.6917   20.8769 C   0  0  0  0  0  0
  -23.9056  -10.4304   21.0438 C   0  0  0  0  0  0
  -24.3621   -9.4200   21.9201 C   0  0  0  0  0  0
  -23.6294   -8.2236   22.0764 C   0  0  0  0  0  0
  -22.4267   -8.0290   21.3562 C   0  0  0  0  0  0
  -21.9909   -9.0264   20.4646 C   0  0  0  0  0  0
  -22.7252  -10.2142   20.3073 C   0  0  0  0  0  0
  -21.6846   -6.0760   22.5281 C   0  0  0  0  0  0
  -21.4015   -6.5659   23.8216 C   0  0  0  0  0  0
  -21.3646   -5.6797   24.9170 C   0  0  0  0  0  0
  -21.6034   -4.3061   24.7197 C   0  0  0  0  0  0
  -21.8829   -3.8165   23.4307 C   0  0  0  0  0  0
  -21.9195   -4.6998   22.3387 C   0  0  0  0  0  0
  -22.7868  -13.5223   21.1863 C   0  0  0  0  0  0
  -22.1672   -4.2188   21.0967 F   0  0  0  0  0  0
  -21.5619   -3.4545   25.7707 F   0  0  0  0  0  0
  -30.0313  -13.3116   20.4246 N   0  0  0  0  0  0
  -26.3012  -12.9363   20.3403 N   0  0  0  0  0  0
  -25.9313  -11.6512   20.5793 N   0  0  0  0  0  0
  -22.0533  -12.8183   22.0419 N   0  0  0  0  0  0
  -25.4283  -15.1901   20.4101 N   0  0  0  0  0  0
  -31.8860  -14.5723   20.0807 O   0  0  0  0  0  0
  -21.6623   -6.8889   21.4244 O   0  0  0  0  0  0
  -22.3533  -14.5537   20.6750 O   0  0  0  0  0  0
  -24.6114  -31.8687   23.2148 C   0  0  0  0  0  0
  -25.9009  -32.4831   23.8426 C   0  0  1  0  0  0
  -27.2236  -27.4517   20.0820 C   0  0  0  0  0  0
  -25.5892  -33.8630   24.2344 N   0  0  0  0  0  0
  -23.3993  -30.4955   21.5548 C   0  0  2  0  0  0
  -24.8423  -28.9748   20.1092 C   0  0  0  0  0  0
  -22.7406  -29.4654   22.5003 C   0  0  0  0  0  0
  -18.0278  -28.1388   22.8483 C   0  0  0  0  0  0
  -24.1492  -36.7312   23.2639 C   0  0  0  0  0  0
  -25.9274  -30.8443   21.3648 C   0  0  0  0  0  0
  -26.0052  -29.4851   20.6987 C   0  0  0  0  0  0
  -27.2014  -28.7329   20.6754 C   0  0  0  0  0  0
  -26.0425  -26.9584   19.4806 C   0  0  0  0  0  0
  -24.8573  -27.7138   19.4922 C   0  0  0  0  0  0
  -23.6033  -29.8371   20.1664 C   0  0  0  0  0  0
  -25.4116  -36.3118   24.0338 C   0  0  1  0  0  0
  -20.5857  -28.3641   23.1336 C   0  0  2  0  0  0
  -20.6756  -26.9378   22.5430 C   0  0  0  0  0  0
  -19.5743  -26.6393   21.5204 C   0  0  0  0  0  0
  -18.1918  -26.7942   22.1607 C   0  0  0  0  0  0
  -19.1525  -28.8828   23.2904 C   0  0  0  0  0  0
  -18.9442  -30.1442   23.8904 C   0  0  0  0  0  0
  -17.6449  -30.6580   24.0577 C   0  0  0  0  0  0
  -25.9032  -34.9474   23.5130 C   0  0  0  0  0  0
  -16.5341  -29.9085   23.6331 C   0  0  0  0  0  0
  -16.7273  -28.6518   23.0327 C   0  0  0  0  0  0
  -26.4464  -31.6628   25.0750 C   0  0  0  0  0  0
  -25.3731  -31.3716   26.1500 C   0  0  0  0  0  0
  -27.0295  -30.3090   24.6105 C   0  0  0  0  0  0
  -27.6065  -32.4350   25.7471 C   0  0  0  0  0  0
  -27.5593  -37.1812   24.8465 C   0  0  0  0  0  0
  -21.4128  -29.3018   22.3745 N   0  0  0  0  0  0
  -26.4312  -37.3799   23.9398 N   0  0  0  0  0  0
  -24.6642  -31.0808   22.1045 N   0  0  0  0  0  0
  -23.4175  -28.8153   23.3008 O   0  0  0  0  0  0
  -28.3971  -26.7259   20.1093 O   0  0  0  0  0  0
  -26.5582  -34.8913   22.4686 O   0  0  0  0  0  0
  -23.5314  -32.1427   23.7555 O   0  0  0  0  0  0
  -29.4230  -21.2412   18.9606 C   0  0  0  0  0  0
  -30.1967  -20.5241   19.9084 C   0  0  0  0  0  0
  -30.6427  -22.5137   21.0359 C   0  0  0  0  0  0
  -29.8966  -23.2365   20.0590 C   0  0  0  0  0  0
  -28.7085  -20.5600   17.8085 C   0  0  0  0  0  0
  -32.5350  -22.4118   22.7818 C   0  0  0  0  0  0
  -27.6251  -24.8377   21.4660 C   0  0  0  0  0  0
  -31.3097  -23.1738   22.2441 C   0  0  0  0  0  0
  -30.5767  -19.0489   19.7534 C   0  0  0  0  0  0
  -29.7614  -24.7640   20.0447 C   0  0  0  0  0  0
  -29.8560  -18.0585   20.7107 C   0  0  0  0  0  0
  -30.7502  -16.8707   21.1635 C   0  0  0  0  0  0
  -28.3183  -25.2920   20.1638 C   0  0  2  0  0  0
  -29.2866  -22.5883   19.0315 N   0  0  0  0  0  0
  -30.7658  -21.1626   20.9591 N   0  0  0  0  0  0
  -30.1230  -15.5345   21.0618 N   0  0  0  0  0  0
  -31.4509  -12.3526   19.1293 H   0  0  0  0  0  0
  -30.2706  -11.2994   19.8494 H   0  0  0  0  0  0
  -29.7131  -11.7526   17.4350 H   0  0  0  0  0  0
  -29.6546  -13.4688   17.7624 H   0  0  0  0  0  0
  -27.8147  -11.3029   18.8332 H   0  0  0  0  0  0
  -27.3552  -12.6194   17.7931 H   0  0  0  0  0  0
  -27.6839  -14.2531   19.5506 H   0  0  0  0  0  0
  -28.6791  -12.0169   21.3850 H   0  0  0  0  0  0
  -28.4777  -13.6820   21.8480 H   0  0  0  0  0  0
  -25.2781   -9.5663   22.4743 H   0  0  0  0  0  0
  -24.0031   -7.4585   22.7442 H   0  0  0  0  0  0
  -21.0874   -8.8766   19.8893 H   0  0  0  0  0  0
  -22.3746  -10.9678   19.6157 H   0  0  0  0  0  0
  -21.2024   -7.6172   23.9728 H   0  0  0  0  0  0
  -21.1458   -6.0535   25.9072 H   0  0  0  0  0  0
  -22.0626   -2.7637   23.2792 H   0  0  0  0  0  0
  -22.4198  -11.9825   22.4744 H   0  0  0  0  0  0
  -21.1143  -13.1170   22.2667 H   0  0  0  0  0  0
  -24.6613  -15.8446   20.5070 H   0  0  0  0  0  0
  -26.2812  -15.6267   20.0852 H   0  0  0  0  0  0
  -26.7073  -32.5550   23.1186 H   0  0  0  0  0  0
  -25.0089  -33.9827   25.0513 H   0  0  0  0  0  0
  -22.6876  -31.3116   21.4219 H   0  0  0  0  0  0
  -23.3764  -35.9638   23.3327 H   0  0  0  0  0  0
  -24.3602  -36.8913   22.2056 H   0  0  0  0  0  0
  -23.7230  -37.6511   23.6647 H   0  0  0  0  0  0
  -26.0410  -31.6278   20.6125 H   0  0  0  0  0  0
  -26.8128  -30.8877   21.9872 H   0  0  0  0  0  0
  -28.1039  -29.1237   21.1241 H   0  0  0  0  0  0
  -26.0103  -25.9965   18.9920 H   0  0  0  0  0  0
  -23.9662  -27.3215   19.0206 H   0  0  0  0  0  0
  -23.6991  -30.6167   19.4098 H   0  0  0  0  0  0
  -22.7278  -29.2554   19.8736 H   0  0  0  0  0  0
  -25.1299  -36.2009   25.0836 H   0  0  0  0  0  0
  -20.9952  -28.3187   24.1453 H   0  0  0  0  0  0
  -20.5647  -26.2222   23.3593 H   0  0  0  0  0  0
  -21.6623  -26.7421   22.1208 H   0  0  0  0  0  0
  -19.6892  -25.6299   21.1234 H   0  0  0  0  0  0
  -19.6718  -27.3189   20.6711 H   0  0  0  0  0  0
  -17.4191  -26.6703   21.4015 H   0  0  0  0  0  0
  -18.0317  -26.0088   22.8999 H   0  0  0  0  0  0
  -19.7914  -30.7268   24.2274 H   0  0  0  0  0  0
  -17.5000  -31.6263   24.5179 H   0  0  0  0  0  0
  -15.5340  -30.2988   23.7659 H   0  0  0  0  0  0
  -15.8677  -28.0873   22.6984 H   0  0  0  0  0  0
  -24.5857  -30.7139   25.7805 H   0  0  0  0  0  0
  -24.8956  -32.2862   26.5030 H   0  0  0  0  0  0
  -25.8059  -30.8793   27.0214 H   0  0  0  0  0  0
  -26.2821  -29.6840   24.1203 H   0  0  0  0  0  0
  -27.4141  -29.7357   25.4548 H   0  0  0  0  0  0
  -27.8627  -30.4455   23.9205 H   0  0  0  0  0  0
  -27.2723  -33.3653   26.2068 H   0  0  0  0  0  0
  -28.3814  -32.6911   25.0237 H   0  0  0  0  0  0
  -28.0786  -31.8461   26.5344 H   0  0  0  0  0  0
  -28.2606  -38.0111   24.7507 H   0  0  0  0  0  0
  -28.1096  -36.2643   24.6305 H   0  0  0  0  0  0
  -27.2312  -37.1462   25.8868 H   0  0  0  0  0  0
  -20.9265  -29.8782   21.7028 H   0  0  0  0  0  0
  -26.0219  -38.2883   24.1412 H   0  0  0  0  0  0
  -28.3058  -19.6004   18.1301 H   0  0  0  0  0  0
  -29.3946  -20.3929   16.9785 H   0  0  0  0  0  0
  -27.8692  -21.1594   17.4500 H   0  0  0  0  0  0
  -32.9862  -22.9479   23.6148 H   0  0  0  0  0  0
  -33.2853  -22.2866   22.0012 H   0  0  0  0  0  0
  -32.2588  -21.4218   23.1455 H   0  0  0  0  0  0
  -27.5584  -23.7514   21.5179 H   0  0  0  0  0  0
  -26.6043  -25.2177   21.5360 H   0  0  0  0  0  0
  -28.1640  -25.1858   22.3468 H   0  0  0  0  0  0
  -30.5646  -23.3133   23.0316 H   0  0  0  0  0  0
  -31.6777  -24.1651   21.9814 H   0  0  0  0  0  0
  -31.6547  -19.0145   19.9120 H   0  0  0  0  0  0
  -30.4421  -18.7225   18.7216 H   0  0  0  0  0  0
  -30.1985  -25.1284   19.1150 H   0  0  0  0  0  0
  -30.3447  -25.2366   20.8310 H   0  0  0  0  0  0
  -28.9273  -17.7198   20.2538 H   0  0  0  0  0  0
  -29.5560  -18.6012   21.6090 H   0  0  0  0  0  0
  -31.0549  -17.0261   22.2003 H   0  0  0  0  0  0
  -31.6804  -16.9034   20.5928 H   0  0  0  0  0  0
  -27.7708  -24.9075   19.3048 H   0  0  0  0  0  0
  -29.1818  -15.4163   21.4097 H   0  0  0  0  0  0
  1 25  1  0  0  0
  1 30  2  0  0  0
  1 86  1  0  0  0
  2  3  1  0  0  0
  2 25  1  0  0  0
  2 87  1  0  0  0
  2 88  1  0  0  0
  3  4  1  0  0  0
  3 89  1  0  0  0
  3 90  1  0  0  0
  4  5  1  0  0  0
  4 91  1  0  0  0
  4 92  1  0  0  0
  5  6  1  0  0  0
  5 26  1  0  0  0
  5 93  1  0  0  0
  6 25  1  0  0  0
  6 94  1  0  0  0
  6 95  1  0  0  0
  7  8  2  0  0  0
  7 26  1  0  0  0
  7 29  1  0  0  0
  8  9  1  0  0  0
  8 22  1  0  0  0
  9 10  1  0  0  0
  9 27  2  0  0  0
 10 11  2  0  0  0
 10 15  1  0  0  0
 11 12  1  0  0  0
 11 96  1  0  0  0
 12 13  2  0  0  0
 12 97  1  0  0  0
 13 14  1  0  0  0
 13 31  1  0  0  0
 14 15  2  0  0  0
 14 98  1  0  0  0
 15 99  1  0  0  0
 16 17  2  0  0  0
 16 21  1  0  0  0
 16 31  1  0  0  0
 17 18  1  0  0  0
 17100  1  0  0  0
 18 19  2  0  0  0
 18101  1  0  0  0
 19 20  1  0  0  0
 19 24  1  0  0  0
 20 21  2  0  0  0
 20102  1  0  0  0
 21 23  1  0  0  0
 22 28  1  0  0  0
 22 32  2  0  0  0
 26 27  1  0  0  0
 28103  1  0  0  0
 28104  1  0  0  0
 29105  1  0  0  0
 29106  1  0  0  0
 33 34  1  0  0  0
 33 66  1  0  0  0
 33 70  2  0  0  0
 34 36  1  0  0  0
 34 59  1  0  0  0
 34107  1  0  0  0
 35 44  2  0  0  0
 35 45  1  0  0  0
 35 68  1  0  0  0
 36 56  1  0  0  0
 36108  1  0  0  0
 37 39  1  0  0  0
 37 47  1  0  0  0
 37 66  1  0  0  0
 37109  1  0  0  0
 38 43  2  0  0  0
 38 46  1  0  0  0
 38 47  1  0  0  0
 39 64  1  0  0  0
 39 67  2  0  0  0
 40 52  1  0  0  0
 40 53  2  0  0  0
 40 58  1  0  0  0
 41110  1  0  0  0
 41111  1  0  0  0
 41112  1  0  0  0
 41 48  1  0  0  0
 42 43  1  0  0  0
 42 66  1  0  0  0
 42113  1  0  0  0
 42114  1  0  0  0
 43 44  1  0  0  0
 44115  1  0  0  0
 45 46  2  0  0  0
 45116  1  0  0  0
 46117  1  0  0  0
 47118  1  0  0  0
 47119  1  0  0  0
 48 56  1  0  0  0
 48 65  1  0  0  0
 48120  1  0  0  0
 49 50  1  0  0  0
 49 53  1  0  0  0
 49 64  1  0  0  0
 49121  1  0  0  0
 50 51  1  0  0  0
 50122  1  0  0  0
 50123  1  0  0  0
 51 52  1  0  0  0
 51124  1  0  0  0
 51125  1  0  0  0
 52126  1  0  0  0
 52127  1  0  0  0
 53 54  1  0  0  0
 54 55  2  0  0  0
 54128  1  0  0  0
 55 57  1  0  0  0
 55129  1  0  0  0
 56 69  2  0  0  0
 57 58  2  0  0  0
 57130  1  0  0  0
 58131  1  0  0  0
 59 60  1  0  0  0
 59 61  1  0  0  0
 59 62  1  0  0  0
 60132  1  0  0  0
 60133  1  0  0  0
 60134  1  0  0  0
 61135  1  0  0  0
 61136  1  0  0  0
 61137  1  0  0  0
 62138  1  0  0  0
 62139  1  0  0  0
 62140  1  0  0  0
 63 65  1  0  0  0
 63141  1  0  0  0
 63142  1  0  0  0
 63143  1  0  0  0
 64144  1  0  0  0
 65145  1  0  0  0
 68 83  1  0  0  0
 71 72  2  0  0  0
 71 75  1  0  0  0
 71 84  1  0  0  0
 72 79  1  0  0  0
 72 85  1  0  0  0
 73 74  1  0  0  0
 73 78  1  0  0  0
 73 85  2  0  0  0
 74 80  1  0  0  0
 74 84  2  0  0  0
 75146  1  0  0  0
 75147  1  0  0  0
 75148  1  0  0  0
 76 78  1  0  0  0
 76149  1  0  0  0
 76150  1  0  0  0
 76151  1  0  0  0
 77152  1  0  0  0
 77153  1  0  0  0
 77154  1  0  0  0
 77 83  1  0  0  0
 78155  1  0  0  0
 78156  1  0  0  0
 79 81  1  0  0  0
 79157  1  0  0  0
 79158  1  0  0  0
 80 83  1  0  0  0
 80159  1  0  0  0
 80160  1  0  0  0
 81 82  1  0  0  0
 81161  1  0  0  0
 81162  1  0  0  0
 82 86  1  0  0  0
 82163  1  0  0  0
 82164  1  0  0  0
 83165  1  0  0  0
 86166  1  0  0  0
M  ISO  4   1 100  68 101  83 101  86 100
M  END
> <chiral flag>
0

> <version>
0

> <s_m_source_file>
/data/baiqing/PycharmProjects/Reinvent-master-3.2/result/LINK_invent/BTK/process_docking_weight1_custom_sum_contain_oxygen_bond_distance_aromatic_linkinvent_7_9_3/rearranged_h_0074.sdf

> <i_m_source_file_index>
35

> <r_mmod_Potential_Energy-OPLS-2005>
-38.0097885131836

> <r_mmod_Stretch_Energy-OPLS-2005>
39.8731079101562

> <r_mmod_Bend_Energy-OPLS-2005>
106.158988952637

> <r_mmod_Torsional_Energy-OPLS-2005>
205.569213867188

> <r_mmod_Improper_Torsional_Energy-OPLS-2005>
3.50784873962402

> <r_mmod_Van_der_Waal_Energy-OPLS-2005>
170.516204833984

> <r_mmod_Electrostatic_Energy-OPLS-2005>
-366.05859375

> <r_mmod_Solvation_Energy-OPLS-2005>
-212.99870300293

> <b_mmod_Minimization_Converged-OPLS-2005>
0

> <r_mmod_RMS_Derivative-OPLS-2005>
4.392493724823

$$$$
35
                    3D
 Structure written by MMmdl.
167175  0  0  1  0            999 V2000
  -30.6388  -14.2166   20.8703 C   0  0  0  0  0  0
  -30.4624  -12.2850   19.2931 C   0  0  0  0  0  0
  -29.4789  -12.4669   18.1098 C   0  0  0  0  0  0
  -27.9827  -12.2972   18.5006 C   0  0  0  0  0  0
  -27.6883  -13.1769   19.7207 C   0  0  2  0  0  0
  -28.6675  -12.6940   20.8455 C   0  0  0  0  0  0
  -25.4133  -14.5168   20.6974 C   0  0  0  0  0  0
  -24.3022  -13.4656   20.7976 C   0  0  0  0  0  0
  -24.6625  -12.0308   20.7812 C   0  0  0  0  0  0
  -23.9383  -10.6596   20.9830 C   0  0  0  0  0  0
  -24.3899   -9.6226   21.8652 C   0  0  0  0  0  0
  -23.6845   -8.3900   22.0522 C   0  0  0  0  0  0
  -22.4841   -8.1267   21.3426 C   0  0  0  0  0  0
  -22.0489   -9.1187   20.4402 C   0  0  0  0  0  0
  -22.7520  -10.3401   20.2707 C   0  0  0  0  0  0
  -21.7244   -6.1284   22.5171 C   0  0  0  0  0  0
  -21.4275   -6.6032   23.8144 C   0  0  0  0  0  0
  -21.3810   -5.7087   24.9072 C   0  0  0  0  0  0
  -21.6056   -4.3328   24.7052 C   0  0  0  0  0  0
  -21.8756   -3.8518   23.4133 C   0  0  0  0  0  0
  -21.9284   -4.7434   22.3256 C   0  0  0  0  0  0
  -22.8165  -13.6465   21.0556 C   0  0  0  0  0  0
  -22.1652   -4.2618   21.0820 F   0  0  0  0  0  0
  -21.5660   -3.4728   25.7504 F   0  0  0  0  0  0
  -30.0208  -13.0902   20.4306 N   0  0  0  0  0  0
  -26.2731  -13.3221   20.1957 N   0  0  0  0  0  0
  -25.8912  -12.0142   20.4332 N   0  0  0  0  0  0
  -22.2109  -12.9195   21.9997 N   0  0  0  0  0  0
  -26.0905  -16.7531   22.0223 N   0  0  0  0  0  0
  -31.6109  -14.7175   20.2630 O   0  0  0  0  0  0
  -21.7364   -6.9601   21.4182 O   0  0  0  0  0  0
  -22.1743  -14.4603   20.4077 O   0  0  0  0  0  0
  -24.6747  -31.8164   23.1702 C   0  0  0  0  0  0
  -25.9422  -32.4489   23.8143 C   0  0  1  0  0  0
  -26.8541  -26.7017   20.1743 C   0  0  0  0  0  0
  -25.6067  -33.8321   24.2022 N   0  0  0  0  0  0
  -23.4717  -30.4588   21.5320 C   0  0  2  0  0  0
  -24.8532  -28.8492   20.0755 C   0  0  0  0  0  0
  -22.7655  -29.4464   22.4734 C   0  0  0  0  0  0
  -18.0344  -28.1395   22.8498 C   0  0  0  0  0  0
  -24.1522  -36.7143   23.2649 C   0  0  0  0  0  0
  -26.0517  -30.5370   21.4321 C   0  0  0  0  0  0
  -26.0470  -29.1255   20.7497 C   0  0  0  0  0  0
  -27.0670  -28.0581   20.7851 C   0  0  0  0  0  0
  -25.7089  -26.6567   19.3898 C   0  0  0  0  0  0
  -24.7240  -27.6528   19.3697 C   0  0  0  0  0  0
  -23.6908  -29.8286   20.1367 C   0  0  0  0  0  0
  -25.4164  -36.2896   24.0285 C   0  0  1  0  0  0
  -20.5963  -28.3743   23.1171 C   0  0  2  0  0  0
  -20.6808  -26.9416   22.5396 C   0  0  0  0  0  0
  -19.5769  -26.6365   21.5232 C   0  0  0  0  0  0
  -18.1959  -26.7932   22.1655 C   0  0  0  0  0  0
  -19.1602  -28.8896   23.2833 C   0  0  0  0  0  0
  -18.9503  -30.1487   23.8860 C   0  0  0  0  0  0
  -17.6494  -30.6586   24.0557 C   0  0  0  0  0  0
  -25.9160  -34.9298   23.4982 C   0  0  0  0  0  0
  -16.5388  -29.9061   23.6339 C   0  0  0  0  0  0
  -16.7324  -28.6477   23.0368 C   0  0  0  0  0  0
  -26.4604  -31.6485   25.0741 C   0  0  0  0  0  0
  -25.3680  -31.3797   26.1360 C   0  0  0  0  0  0
  -27.0508  -30.2805   24.6653 C   0  0  0  0  0  0
  -27.6073  -32.4341   25.7505 C   0  0  0  0  0  0
  -27.5583  -37.1727   24.8461 C   0  0  0  0  0  0
  -21.4323  -29.3049   22.3499 N   0  0  0  0  0  0
  -26.4286  -37.3649   23.9414 N   0  0  0  0  0  0
  -24.7596  -30.9709   22.0929 N   0  0  0  0  0  0
  -23.4194  -28.7968   23.2940 O   0  0  0  0  0  0
  -27.4946  -25.3485   20.3064 O   0  0  0  0  0  0
  -26.5758  -34.8846   22.4579 O   0  0  0  0  0  0
  -23.5812  -32.1275   23.6742 O   0  0  0  0  0  0
  -26.4851  -14.6585   22.7169 C   0  0  0  0  0  0
  -27.5595  -15.2882   21.2437 C   0  0  0  0  0  0
  -24.0076  -16.2339   21.4027 C   0  0  0  0  0  0
  -25.1257  -16.8942   20.0079 C   0  0  0  0  0  0
  -21.9215  -16.4951   22.9341 C   0  0  0  0  0  0
  -31.4255  -14.3188   22.8469 C   0  0  0  0  0  0
  -30.2786  -16.1666   23.0319 C   0  0  0  0  0  0
  -29.0565  -15.6586   21.2287 C   0  0  0  0  0  0
  -22.7532  -17.0379   21.7631 C   0  0  0  0  0  0
  -25.1264  -18.7401   19.9979 C   0  0  0  0  0  0
  -26.1916  -20.2834   19.7337 C   0  0  0  0  0  0
  -26.2612  -22.0959   20.3156 C   0  0  0  0  0  0
  -27.0134  -23.7571   19.7904 C   0  0  0  0  0  0
  -30.0201  -14.7997   22.2284 C   0  0  0  0  0  0
  -24.7027  -15.1654   22.7670 N   0  0  0  0  0  0
  -26.7842  -16.2545   19.9294 N   0  0  0  0  0  0
  -31.4717  -12.5577   18.9743 H   0  0  0  0  0  0
  -30.5144  -11.2366   19.5944 H   0  0  0  0  0  0
  -29.7460  -11.7743   17.3106 H   0  0  0  0  0  0
  -29.6160  -13.4660   17.6975 H   0  0  0  0  0  0
  -27.7756  -11.2476   18.7144 H   0  0  0  0  0  0
  -27.3470  -12.5789   17.6609 H   0  0  0  0  0  0
  -27.9753  -14.1239   19.2737 H   0  0  0  0  0  0
  -28.6264  -11.6055   20.9116 H   0  0  0  0  0  0
  -28.3853  -12.9927   21.8521 H   0  0  0  0  0  0
  -25.3060   -9.7814   22.4130 H   0  0  0  0  0  0
  -24.0850   -7.6558   22.7390 H   0  0  0  0  0  0
  -21.1546   -8.9500   19.8560 H   0  0  0  0  0  0
  -22.3516  -11.0662   19.5756 H   0  0  0  0  0  0
  -21.2302   -7.6547   23.9743 H   0  0  0  0  0  0
  -21.1707   -6.0818   25.9005 H   0  0  0  0  0  0
  -22.0375   -2.7988   23.2428 H   0  0  0  0  0  0
  -22.7288  -12.2551   22.5554 H   0  0  0  0  0  0
  -21.2321  -13.0625   22.1901 H   0  0  0  0  0  0
  -26.6388  -17.2233   21.3028 H   0  0  0  0  0  0
  -25.2968  -17.2939   22.3417 H   0  0  0  0  0  0
  -26.7454  -32.4866   23.0786 H   0  0  0  0  0  0
  -25.0122  -33.9379   25.0112 H   0  0  0  0  0  0
  -22.7948  -31.3045   21.3946 H   0  0  0  0  0  0
  -23.3809  -35.9450   23.3240 H   0  0  0  0  0  0
  -24.3610  -36.8862   22.2083 H   0  0  0  0  0  0
  -23.7258  -37.6293   23.6763 H   0  0  0  0  0  0
  -26.2935  -31.2724   20.6628 H   0  0  0  0  0  0
  -26.8977  -30.5436   22.1056 H   0  0  0  0  0  0
  -27.9467  -28.2151   21.3938 H   0  0  0  0  0  0
  -25.4595  -25.7486   18.8681 H   0  0  0  0  0  0
  -23.8127  -27.4560   18.8206 H   0  0  0  0  0  0
  -23.8855  -30.6216   19.4144 H   0  0  0  0  0  0
  -22.7768  -29.3407   19.7940 H   0  0  0  0  0  0
  -25.1377  -36.1667   25.0770 H   0  0  0  0  0  0
  -21.0099  -28.3351   24.1282 H   0  0  0  0  0  0
  -20.5700  -26.2382   23.3651 H   0  0  0  0  0  0
  -21.6659  -26.7385   22.1197 H   0  0  0  0  0  0
  -19.6908  -25.6269   21.1273 H   0  0  0  0  0  0
  -19.6665  -27.3171   20.6753 H   0  0  0  0  0  0
  -17.4222  -26.6719   21.4045 H   0  0  0  0  0  0
  -18.0310  -26.0066   22.9041 H   0  0  0  0  0  0
  -19.7969  -30.7328   24.2184 H   0  0  0  0  0  0
  -17.5029  -31.6253   24.5175 H   0  0  0  0  0  0
  -15.5375  -30.2942   23.7666 H   0  0  0  0  0  0
  -15.8734  -28.0769   22.7094 H   0  0  0  0  0  0
  -24.5913  -30.7086   25.7666 H   0  0  0  0  0  0
  -24.8811  -32.3013   26.4564 H   0  0  0  0  0  0
  -25.7860  -30.9111   27.0280 H   0  0  0  0  0  0
  -26.3186  -29.6395   24.1716 H   0  0  0  0  0  0
  -27.3977  -29.7280   25.5404 H   0  0  0  0  0  0
  -27.9188  -30.3907   24.0140 H   0  0  0  0  0  0
  -27.2645  -33.3734   26.1856 H   0  0  0  0  0  0
  -28.3942  -32.6740   25.0343 H   0  0  0  0  0  0
  -28.0670  -31.8625   26.5578 H   0  0  0  0  0  0
  -28.2534  -38.0078   24.7537 H   0  0  0  0  0  0
  -28.1142  -36.2604   24.6258 H   0  0  0  0  0  0
  -27.2296  -37.1317   25.8855 H   0  0  0  0  0  0
  -20.9540  -29.8801   21.6690 H   0  0  0  0  0  0
  -26.0111  -38.2693   24.1420 H   0  0  0  0  0  0
  -26.9160  -14.2113   23.5995 H   0  0  0  0  0  0
  -22.4766  -16.5681   23.8673 H   0  0  0  0  0  0
  -21.6225  -15.4580   22.7999 H   0  0  0  0  0  0
  -21.0110  -17.0853   23.0449 H   0  0  0  0  0  0
  -31.2988  -14.1585   23.9214 H   0  0  0  0  0  0
  -32.2764  -15.0024   22.7290 H   0  0  0  0  0  0
  -31.8146  -13.3180   22.5977 H   0  0  0  0  0  0
  -29.3491  -16.6502   23.3504 H   0  0  0  0  0  0
  -30.8593  -16.8879   22.4522 H   0  0  0  0  0  0
  -30.7633  -16.1347   24.0111 H   0  0  0  0  0  0
  -28.9935  -16.7420   21.3656 H   0  0  0  0  0  0
  -29.2486  -15.7576   20.1483 H   0  0  0  0  0  0
  -22.1225  -17.1102   20.8758 H   0  0  0  0  0  0
  -23.0485  -18.0566   22.0150 H   0  0  0  0  0  0
  -24.7755  -18.9454   21.0077 H   0  0  0  0  0  0
  -24.2440  -18.9479   19.3910 H   0  0  0  0  0  0
  -26.1691  -20.3789   18.6471 H   0  0  0  0  0  0
  -27.2009  -19.9245   19.9303 H   0  0  0  0  0  0
  -26.6174  -21.9887   21.3408 H   0  0  0  0  0  0
  -25.2058  -22.3476   20.4421 H   0  0  0  0  0  0
  -26.5284  -23.9341   18.8332 H   0  0  0  0  0  0
  -28.0035  -23.4096   19.4908 H   0  0  0  0  0  0
  1 25  1  0  0  0
  1 30  2  0  0  0
  1 84  1  0  0  0
  2  3  1  0  0  0
  2 25  1  0  0  0
  2 87  1  0  0  0
  2 88  1  0  0  0
  3  4  1  0  0  0
  3 89  1  0  0  0
  3 90  1  0  0  0
  4  5  1  0  0  0
  4 91  1  0  0  0
  4 92  1  0  0  0
  5  6  1  0  0  0
  5 26  1  0  0  0
  5 93  1  0  0  0
  6 25  1  0  0  0
  6 94  1  0  0  0
  6 95  1  0  0  0
  7  8  2  0  0  0
  7 26  1  0  0  0
  7 29  1  0  0  0
  8  9  1  0  0  0
  8 22  1  0  0  0
  9 10  1  0  0  0
  9 27  2  0  0  0
 10 11  2  0  0  0
 10 15  1  0  0  0
 11 12  1  0  0  0
 11 96  1  0  0  0
 12 13  2  0  0  0
 12 97  1  0  0  0
 13 14  1  0  0  0
 13 31  1  0  0  0
 14 15  2  0  0  0
 14 98  1  0  0  0
 15 99  1  0  0  0
 16 17  2  0  0  0
 16 21  1  0  0  0
 16 31  1  0  0  0
 17 18  1  0  0  0
 17100  1  0  0  0
 18 19  2  0  0  0
 18101  1  0  0  0
 19 20  1  0  0  0
 19 24  1  0  0  0
 20 21  2  0  0  0
 20102  1  0  0  0
 21 23  1  0  0  0
 22 28  1  0  0  0
 22 32  2  0  0  0
 26 27  1  0  0  0
 28103  1  0  0  0
 28104  1  0  0  0
 29105  1  0  0  0
 29106  1  0  0  0
 33 34  1  0  0  0
 33 66  1  0  0  0
 33 70  2  0  0  0
 34 36  1  0  0  0
 34 59  1  0  0  0
 34107  1  0  0  0
 35 44  2  0  0  0
 35 45  1  0  0  0
 35 68  1  0  0  0
 36 56  1  0  0  0
 36108  1  0  0  0
 37 39  1  0  0  0
 37 47  1  0  0  0
 37 66  1  0  0  0
 37109  1  0  0  0
 38 43  2  0  0  0
 38 46  1  0  0  0
 38 47  1  0  0  0
 39 64  1  0  0  0
 39 67  2  0  0  0
 40 52  1  0  0  0
 40 53  2  0  0  0
 40 58  1  0  0  0
 41110  1  0  0  0
 41111  1  0  0  0
 41112  1  0  0  0
 41 48  1  0  0  0
 42 43  1  0  0  0
 42 66  1  0  0  0
 42113  1  0  0  0
 42114  1  0  0  0
 43 44  1  0  0  0
 44115  1  0  0  0
 45 46  2  0  0  0
 45116  1  0  0  0
 46117  1  0  0  0
 47118  1  0  0  0
 47119  1  0  0  0
 48 56  1  0  0  0
 48 65  1  0  0  0
 48120  1  0  0  0
 49 50  1  0  0  0
 49 53  1  0  0  0
 49 64  1  0  0  0
 49121  1  0  0  0
 50 51  1  0  0  0
 50122  1  0  0  0
 50123  1  0  0  0
 51 52  1  0  0  0
 51124  1  0  0  0
 51125  1  0  0  0
 52126  1  0  0  0
 52127  1  0  0  0
 53 54  1  0  0  0
 54 55  2  0  0  0
 54128  1  0  0  0
 55 57  1  0  0  0
 55129  1  0  0  0
 56 69  2  0  0  0
 57 58  2  0  0  0
 57130  1  0  0  0
 58131  1  0  0  0
 59 60  1  0  0  0
 59 61  1  0  0  0
 59 62  1  0  0  0
 60132  1  0  0  0
 60133  1  0  0  0
 60134  1  0  0  0
 61135  1  0  0  0
 61136  1  0  0  0
 61137  1  0  0  0
 62138  1  0  0  0
 62139  1  0  0  0
 62140  1  0  0  0
 63 65  1  0  0  0
 63141  1  0  0  0
 63142  1  0  0  0
 63143  1  0  0  0
 64144  1  0  0  0
 65145  1  0  0  0
 68 83  1  0  0  0
 71 72  2  0  0  0
 71 85  1  0  0  0
 71146  1  0  0  0
 72 78  1  0  0  0
 72 86  1  0  0  0
 73 74  1  0  0  0
 73 79  1  0  0  0
 73 85  2  0  0  0
 74 80  1  0  0  0
 74 86  2  0  0  0
 75 79  1  0  0  0
 75147  1  0  0  0
 75148  1  0  0  0
 75149  1  0  0  0
 76150  1  0  0  0
 76151  1  0  0  0
 76152  1  0  0  0
 76 84  1  0  0  0
 77 84  1  0  0  0
 77153  1  0  0  0
 77154  1  0  0  0
 77155  1  0  0  0
 78 84  1  0  0  0
 78156  1  0  0  0
 78157  1  0  0  0
 79158  1  0  0  0
 79159  1  0  0  0
 80 81  1  0  0  0
 80160  1  0  0  0
 80161  1  0  0  0
 81 82  1  0  0  0
 81162  1  0  0  0
 81163  1  0  0  0
 82 83  1  0  0  0
 82164  1  0  0  0
 82165  1  0  0  0
 83166  1  0  0  0
 83167  1  0  0  0
M  ISO  4   1 100  68 101  83 101  84 100
M  END
> <chiral flag>
0

> <version>
0

> <s_m_source_file>
/data/baiqing/PycharmProjects/Reinvent-master-3.2/result/LINK_invent/BTK/process_docking_weight1_custom_sum_contain_oxygen_bond_distance_aromatic_linkinvent_7_9_3/rearranged_h_0074.sdf

> <i_m_source_file_index>
36

> <r_mmod_Potential_Energy-OPLS-2005>
12289.111328125

> <r_mmod_Stretch_Energy-OPLS-2005>
6977.9873046875

> <r_mmod_Bend_Energy-OPLS-2005>
1184.68762207031

> <r_mmod_Torsional_Energy-OPLS-2005>
391.285491943359

> <r_mmod_Improper_Torsional_Energy-OPLS-2005>
60.0104675292969

> <r_mmod_Van_der_Waal_Energy-OPLS-2005>
2951.19604492188

> <r_mmod_Electrostatic_Energy-OPLS-2005>
-335.786834716797

> <r_mmod_Solvation_Energy-OPLS-2005>
-175.440963745117

> <b_mmod_Minimization_Converged-OPLS-2005>
0

> <r_mmod_RMS_Derivative-OPLS-2005>
8.67547607421875

$$$$
36
                    3D
 Structure written by MMmdl.
164172  0  0  1  0            999 V2000
  -30.6766  -14.5667   20.4347 C   0  0  0  0  0  0
  -30.4160  -12.3268   19.4554 C   0  0  0  0  0  0
  -29.4983  -12.4591   18.2203 C   0  0  0  0  0  0
  -28.0170  -12.3274   18.6311 C   0  0  0  0  0  0
  -27.6412  -13.2131   19.8493 C   0  0  2  0  0  0
  -28.6889  -13.1161   20.9793 C   0  0  0  0  0  0
  -25.2530  -13.8159   20.5708 C   0  0  0  0  0  0
  -24.1795  -13.0420   20.9199 C   0  0  0  0  0  0
  -24.6362  -11.6895   20.8748 C   0  0  0  0  0  0
  -23.9041  -10.4282   21.0420 C   0  0  0  0  0  0
  -24.3592   -9.4200   21.9199 C   0  0  0  0  0  0
  -23.6270   -8.2236   22.0762 C   0  0  0  0  0  0
  -22.4261   -8.0270   21.3549 C   0  0  0  0  0  0
  -21.9894   -9.0244   20.4659 C   0  0  0  0  0  0
  -22.7215  -10.2125   20.3071 C   0  0  0  0  0  0
  -21.6842   -6.0725   22.5277 C   0  0  0  0  0  0
  -21.4018   -6.5636   23.8208 C   0  0  0  0  0  0
  -21.3661   -5.6791   24.9170 C   0  0  0  0  0  0
  -21.6037   -4.3052   24.7232 C   0  0  0  0  0  0
  -21.8808   -3.8140   23.4354 C   0  0  0  0  0  0
  -21.9192   -4.6952   22.3406 C   0  0  0  0  0  0
  -22.7829  -13.5224   21.1858 C   0  0  0  0  0  0
  -22.1661   -4.2134   21.0984 F   0  0  0  0  0  0
  -21.5625   -3.4546   25.7752 F   0  0  0  0  0  0
  -30.0153  -13.3750   20.4091 N   0  0  0  0  0  0
  -26.2937  -12.9325   20.3310 N   0  0  0  0  0  0
  -25.9288  -11.6488   20.5771 N   0  0  0  0  0  0
  -22.0467  -12.8233   22.0420 N   0  0  0  0  0  0
  -25.4240  -15.1884   20.4163 N   0  0  0  0  0  0
  -31.8869  -14.6496   20.2203 O   0  0  0  0  0  0
  -21.6630   -6.8868   21.4241 O   0  0  0  0  0  0
  -22.3532  -14.5540   20.6712 O   0  0  0  0  0  0
  -24.6164  -31.8642   23.2053 C   0  0  0  0  0  0
  -25.9039  -32.4803   23.8363 C   0  0  1  0  0  0
  -27.2355  -27.3899   20.1111 C   0  0  0  0  0  0
  -25.5872  -33.8598   24.2295 N   0  0  0  0  0  0
  -23.4077  -30.4861   21.5452 C   0  0  2  0  0  0
  -24.8546  -28.9410   20.1150 C   0  0  0  0  0  0
  -22.7417  -29.4657   22.4960 C   0  0  0  0  0  0
  -18.0273  -28.1379   22.8501 C   0  0  0  0  0  0
  -24.1485  -36.7311   23.2642 C   0  0  0  0  0  0
  -25.9397  -30.8155   21.3664 C   0  0  0  0  0  0
  -26.0145  -29.4469   20.7128 C   0  0  0  0  0  0
  -27.2047  -28.6794   20.7029 C   0  0  0  0  0  0
  -26.0533  -26.9045   19.5081 C   0  0  0  0  0  0
  -24.8706  -27.6724   19.5083 C   0  0  0  0  0  0
  -23.6186  -29.8135   20.1615 C   0  0  0  0  0  0
  -25.4113  -36.3103   24.0334 C   0  0  1  0  0  0
  -20.5869  -28.3675   23.1303 C   0  0  2  0  0  0
  -20.6766  -26.9406   22.5416 C   0  0  0  0  0  0
  -19.5745  -26.6389   21.5211 C   0  0  0  0  0  0
  -18.1922  -26.7929   22.1621 C   0  0  0  0  0  0
  -19.1528  -28.8840   23.2902 C   0  0  0  0  0  0
  -18.9453  -30.1445   23.8915 C   0  0  0  0  0  0
  -17.6459  -30.6590   24.0575 C   0  0  0  0  0  0
  -25.9039  -34.9466   23.5127 C   0  0  0  0  0  0
  -16.5347  -29.9096   23.6333 C   0  0  0  0  0  0
  -16.7264  -28.6508   23.0361 C   0  0  0  0  0  0
  -26.4462  -31.6591   25.0703 C   0  0  0  0  0  0
  -25.3714  -31.3675   26.1436 C   0  0  0  0  0  0
  -27.0307  -30.3033   24.6105 C   0  0  0  0  0  0
  -27.6054  -32.4302   25.7448 C   0  0  0  0  0  0
  -27.5591  -37.1802   24.8468 C   0  0  0  0  0  0
  -21.4141  -29.3034   22.3691 N   0  0  0  0  0  0
  -26.4306  -37.3785   23.9409 N   0  0  0  0  0  0
  -24.6732  -31.0709   22.0969 N   0  0  0  0  0  0
  -23.4166  -28.8209   23.3030 O   0  0  0  0  0  0
  -28.4206  -26.6686   20.1440 O   0  0  0  0  0  0
  -26.5623  -34.8928   22.4698 O   0  0  0  0  0  0
  -23.5349  -32.1418   23.7426 O   0  0  0  0  0  0
  -30.0094  -17.0442   20.9553 C   0  0  0  0  0  0
  -29.8885  -15.8590   20.2545 C   0  0  0  0  0  0
  -29.0763  -17.4942   18.9815 C   0  0  0  0  0  0
  -28.5494  -18.1746   17.7561 C   0  0  0  0  0  0
  -25.7715  -20.4825   21.4001 C   0  0  0  0  0  0
  -27.2112  -19.9614   21.5284 C   0  0  0  0  0  0
  -28.5734  -22.8584   21.0633 C   0  0  0  0  0  0
  -27.9760  -24.3095   20.9662 C   0  0  0  0  0  0
  -28.1679  -21.8340   19.9617 C   0  0  0  0  0  0
  -29.4852  -19.5364   20.3907 C   0  0  0  0  0  0
  -28.4806  -25.2524   19.8326 C   0  0  0  0  0  0
  -28.1097  -20.2951   20.3167 C   0  0  1  0  0  0
  -29.4715  -18.0471   20.1515 N   0  0  0  0  0  0
  -29.3349  -16.1809   19.0474 N   0  3  0  0  0  0
  -31.4641  -12.4071   19.1612 H   0  0  0  0  0  0
  -30.3069  -11.3417   19.9119 H   0  0  0  0  0  0
  -29.7469  -11.6934   17.4834 H   0  0  0  0  0  0
  -29.6666  -13.4142   17.7231 H   0  0  0  0  0  0
  -27.8397  -11.2781   18.8734 H   0  0  0  0  0  0
  -27.3661  -12.5551   17.7854 H   0  0  0  0  0  0
  -27.6323  -14.2362   19.4847 H   0  0  0  0  0  0
  -28.6713  -12.1280   21.4409 H   0  0  0  0  0  0
  -28.4626  -13.8303   21.7736 H   0  0  0  0  0  0
  -25.2732   -9.5679   22.4779 H   0  0  0  0  0  0
  -23.9969   -7.4631   22.7487 H   0  0  0  0  0  0
  -21.0823   -8.8754   19.8972 H   0  0  0  0  0  0
  -22.3659  -10.9660   19.6187 H   0  0  0  0  0  0
  -21.2022   -7.6142   23.9715 H   0  0  0  0  0  0
  -21.1495   -6.0524   25.9071 H   0  0  0  0  0  0
  -22.0595   -2.7602   23.2864 H   0  0  0  0  0  0
  -22.4063  -11.9868   22.4776 H   0  0  0  0  0  0
  -21.1108  -13.1305   22.2662 H   0  0  0  0  0  0
  -24.6583  -15.8401   20.5462 H   0  0  0  0  0  0
  -26.2826  -15.6409   20.1332 H   0  0  0  0  0  0
  -26.7103  -32.5498   23.1114 H   0  0  0  0  0  0
  -24.9970  -33.9748   25.0403 H   0  0  0  0  0  0
  -22.6991  -31.3043   21.4012 H   0  0  0  0  0  0
  -23.3758  -35.9633   23.3305 H   0  0  0  0  0  0
  -24.3576  -36.8930   22.2060 H   0  0  0  0  0  0
  -23.7236  -37.6507   23.6665 H   0  0  0  0  0  0
  -26.0617  -31.5806   20.5992 H   0  0  0  0  0  0
  -26.8242  -30.8654   21.9905 H   0  0  0  0  0  0
  -28.1016  -29.0656   21.1661 H   0  0  0  0  0  0
  -26.0235  -25.9337   19.0372 H   0  0  0  0  0  0
  -23.9769  -27.2774   19.0456 H   0  0  0  0  0  0
  -23.7330  -30.5851   19.3994 H   0  0  0  0  0  0
  -22.7407  -29.2370   19.8651 H   0  0  0  0  0  0
  -25.1298  -36.1975   25.0832 H   0  0  0  0  0  0
  -20.9964  -28.3254   24.1427 H   0  0  0  0  0  0
  -20.5668  -26.2286   23.3607 H   0  0  0  0  0  0
  -21.6633  -26.7452   22.1211 H   0  0  0  0  0  0
  -19.6908  -25.6306   21.1227 H   0  0  0  0  0  0
  -19.6677  -27.3204   20.6744 H   0  0  0  0  0  0
  -17.4193  -26.6671   21.4026 H   0  0  0  0  0  0
  -18.0331  -26.0076   22.9020 H   0  0  0  0  0  0
  -19.7929  -30.7253   24.2289 H   0  0  0  0  0  0
  -17.5021  -31.6272   24.5164 H   0  0  0  0  0  0
  -15.5349  -30.3013   23.7640 H   0  0  0  0  0  0
  -15.8658  -28.0827   22.7080 H   0  0  0  0  0  0
  -24.5903  -30.7020   25.7742 H   0  0  0  0  0  0
  -24.8881  -32.2811   26.4905 H   0  0  0  0  0  0
  -25.8055  -30.8814   27.0184 H   0  0  0  0  0  0
  -26.2853  -29.6764   24.1201 H   0  0  0  0  0  0
  -27.4115  -29.7305   25.4573 H   0  0  0  0  0  0
  -27.8671  -30.4346   23.9236 H   0  0  0  0  0  0
  -27.2706  -33.3613   26.2026 H   0  0  0  0  0  0
  -28.3842  -32.6829   25.0242 H   0  0  0  0  0  0
  -28.0742  -31.8422   26.5345 H   0  0  0  0  0  0
  -28.2605  -38.0103   24.7541 H   0  0  0  0  0  0
  -28.1090  -36.2639   24.6277 H   0  0  0  0  0  0
  -27.2302  -37.1441   25.8866 H   0  0  0  0  0  0
  -20.9300  -29.8733   21.6891 H   0  0  0  0  0  0
  -26.0202  -38.2862   24.1416 H   0  0  0  0  0  0
  -30.4899  -17.2483   21.9014 H   0  0  0  0  0  0
  -28.9495  -19.1860   17.6923 H   0  0  0  0  0  0
  -27.4616  -18.1901   17.8070 H   0  0  0  0  0  0
  -28.8685  -17.6134   16.8777 H   0  0  0  0  0  0
  -25.1663  -20.1622   22.2480 H   0  0  0  0  0  0
  -25.2951  -20.1068   20.4929 H   0  0  0  0  0  0
  -25.7345  -21.5722   21.3722 H   0  0  0  0  0  0
  -27.1656  -18.8775   21.6463 H   0  0  0  0  0  0
  -27.6568  -20.3361   22.4501 H   0  0  0  0  0  0
  -28.2506  -22.4683   22.0277 H   0  0  0  0  0  0
  -29.6604  -22.9052   21.1321 H   0  0  0  0  0  0
  -28.2109  -24.7979   21.9131 H   0  0  0  0  0  0
  -26.8865  -24.2625   20.9369 H   0  0  0  0  0  0
  -28.8186  -21.9739   19.0964 H   0  0  0  0  0  0
  -27.1807  -22.1235   19.5980 H   0  0  0  0  0  0
  -29.9513  -19.7117   21.3608 H   0  0  0  0  0  0
  -30.1726  -19.9571   19.6556 H   0  0  0  0  0  0
  -28.0051  -25.0238   18.8789 H   0  0  0  0  0  0
  -29.5383  -25.0395   19.6759 H   0  0  0  0  0  0
  -27.5817  -19.8763   19.4641 H   0  0  0  0  0  0
  -29.2539  -15.5445   18.2643 H   0  0  0  0  0  0
  1 25  1  0  0  0
  1 30  2  0  0  0
  1 72  1  0  0  0
  2  3  1  0  0  0
  2 25  1  0  0  0
  2 85  1  0  0  0
  2 86  1  0  0  0
  3  4  1  0  0  0
  3 87  1  0  0  0
  3 88  1  0  0  0
  4  5  1  0  0  0
  4 89  1  0  0  0
  4 90  1  0  0  0
  5  6  1  0  0  0
  5 26  1  0  0  0
  5 91  1  0  0  0
  6 25  1  0  0  0
  6 92  1  0  0  0
  6 93  1  0  0  0
  7  8  2  0  0  0
  7 26  1  0  0  0
  7 29  1  0  0  0
  8  9  1  0  0  0
  8 22  1  0  0  0
  9 10  1  0  0  0
  9 27  2  0  0  0
 10 11  2  0  0  0
 10 15  1  0  0  0
 11 12  1  0  0  0
 11 94  1  0  0  0
 12 13  2  0  0  0
 12 95  1  0  0  0
 13 14  1  0  0  0
 13 31  1  0  0  0
 14 15  2  0  0  0
 14 96  1  0  0  0
 15 97  1  0  0  0
 16 17  2  0  0  0
 16 21  1  0  0  0
 16 31  1  0  0  0
 17 18  1  0  0  0
 17 98  1  0  0  0
 18 19  2  0  0  0
 18 99  1  0  0  0
 19 20  1  0  0  0
 19 24  1  0  0  0
 20 21  2  0  0  0
 20100  1  0  0  0
 21 23  1  0  0  0
 22 28  1  0  0  0
 22 32  2  0  0  0
 26 27  1  0  0  0
 28101  1  0  0  0
 28102  1  0  0  0
 29103  1  0  0  0
 29104  1  0  0  0
 33 34  1  0  0  0
 33 66  1  0  0  0
 33 70  2  0  0  0
 34 36  1  0  0  0
 34 59  1  0  0  0
 34105  1  0  0  0
 35 44  2  0  0  0
 35 45  1  0  0  0
 35 68  1  0  0  0
 36 56  1  0  0  0
 36106  1  0  0  0
 37 39  1  0  0  0
 37 47  1  0  0  0
 37 66  1  0  0  0
 37107  1  0  0  0
 38 43  2  0  0  0
 38 46  1  0  0  0
 38 47  1  0  0  0
 39 64  1  0  0  0
 39 67  2  0  0  0
 40 52  1  0  0  0
 40 53  2  0  0  0
 40 58  1  0  0  0
 41108  1  0  0  0
 41109  1  0  0  0
 41110  1  0  0  0
 41 48  1  0  0  0
 42 43  1  0  0  0
 42 66  1  0  0  0
 42111  1  0  0  0
 42112  1  0  0  0
 43 44  1  0  0  0
 44113  1  0  0  0
 45 46  2  0  0  0
 45114  1  0  0  0
 46115  1  0  0  0
 47116  1  0  0  0
 47117  1  0  0  0
 48 56  1  0  0  0
 48 65  1  0  0  0
 48118  1  0  0  0
 49 50  1  0  0  0
 49 53  1  0  0  0
 49 64  1  0  0  0
 49119  1  0  0  0
 50 51  1  0  0  0
 50120  1  0  0  0
 50121  1  0  0  0
 51 52  1  0  0  0
 51122  1  0  0  0
 51123  1  0  0  0
 52124  1  0  0  0
 52125  1  0  0  0
 53 54  1  0  0  0
 54 55  2  0  0  0
 54126  1  0  0  0
 55 57  1  0  0  0
 55127  1  0  0  0
 56 69  2  0  0  0
 57 58  2  0  0  0
 57128  1  0  0  0
 58129  1  0  0  0
 59 60  1  0  0  0
 59 61  1  0  0  0
 59 62  1  0  0  0
 60130  1  0  0  0
 60131  1  0  0  0
 60132  1  0  0  0
 61133  1  0  0  0
 61134  1  0  0  0
 61135  1  0  0  0
 62136  1  0  0  0
 62137  1  0  0  0
 62138  1  0  0  0
 63 65  1  0  0  0
 63139  1  0  0  0
 63140  1  0  0  0
 63141  1  0  0  0
 64142  1  0  0  0
 65143  1  0  0  0
 68 81  1  0  0  0
 71 72  2  0  0  0
 71 83  1  0  0  0
 71144  1  0  0  0
 72 84  1  0  0  0
 73 74  1  0  0  0
 73 83  1  0  0  0
 73 84  2  0  0  0
 74145  1  0  0  0
 74146  1  0  0  0
 74147  1  0  0  0
 75 76  1  0  0  0
 75148  1  0  0  0
 75149  1  0  0  0
 75150  1  0  0  0
 76151  1  0  0  0
 76152  1  0  0  0
 76 82  1  0  0  0
 77 78  1  0  0  0
 77 79  1  0  0  0
 77153  1  0  0  0
 77154  1  0  0  0
 78 81  1  0  0  0
 78155  1  0  0  0
 78156  1  0  0  0
 79 82  1  0  0  0
 79157  1  0  0  0
 79158  1  0  0  0
 80 82  1  0  0  0
 80 83  1  0  0  0
 80159  1  0  0  0
 80160  1  0  0  0
 81161  1  0  0  0
 81162  1  0  0  0
 82163  1  0  0  0
 84164  1  0  0  0
M  CHG  1  84   1
M  ISO  4   1 100  68 101  72 100  81 101
M  END
> <chiral flag>
0

> <version>
0

> <s_m_source_file>
/data/baiqing/PycharmProjects/Reinvent-master-3.2/result/LINK_invent/BTK/process_docking_weight1_custom_sum_contain_oxygen_bond_distance_aromatic_linkinvent_7_9_3/rearranged_h_0074.sdf

> <i_m_source_file_index>
37

> <r_mmod_Potential_Energy-OPLS-2005>
18.7064418792725

> <r_mmod_Stretch_Energy-OPLS-2005>
50.1929664611816

> <r_mmod_Bend_Energy-OPLS-2005>
135.984359741211

> <r_mmod_Torsional_Energy-OPLS-2005>
264.484069824219

> <r_mmod_Improper_Torsional_Energy-OPLS-2005>
17.7245941162109

> <r_mmod_Van_der_Waal_Energy-OPLS-2005>
108.707168579102

> <r_mmod_Electrostatic_Energy-OPLS-2005>
-187.814514160156

> <r_mmod_Solvation_Energy-OPLS-2005>
-404.544677734375

> <b_mmod_Minimization_Converged-OPLS-2005>
0

> <r_mmod_RMS_Derivative-OPLS-2005>
1.58590590953827

$$$$
37
                    3D
 Structure written by MMmdl.
160168  0  0  1  0            999 V2000
  -30.6378  -14.7684   20.4036 C   0  0  0  0  0  0
  -30.4343  -12.4631   19.4612 C   0  0  0  0  0  0
  -29.5143  -12.5287   18.2258 C   0  0  0  0  0  0
  -28.0363  -12.3670   18.6317 C   0  0  0  0  0  0
  -27.6475  -13.2472   19.8459 C   0  0  2  0  0  0
  -28.7038  -13.2001   20.9702 C   0  0  0  0  0  0
  -25.2511  -13.8261   20.5612 C   0  0  0  0  0  0
  -24.1813  -13.0495   20.9161 C   0  0  0  0  0  0
  -24.6420  -11.6987   20.8751 C   0  0  0  0  0  0
  -23.9082  -10.4357   21.0385 C   0  0  0  0  0  0
  -24.3642   -9.4270   21.9134 C   0  0  0  0  0  0
  -23.6361   -8.2282   22.0696 C   0  0  0  0  0  0
  -22.4339   -8.0307   21.3489 C   0  0  0  0  0  0
  -21.9984   -9.0269   20.4600 C   0  0  0  0  0  0
  -22.7264  -10.2172   20.3005 C   0  0  0  0  0  0
  -21.6871   -6.0763   22.5252 C   0  0  0  0  0  0
  -21.4032   -6.5629   23.8202 C   0  0  0  0  0  0
  -21.3698   -5.6769   24.9153 C   0  0  0  0  0  0
  -21.6072   -4.3018   24.7195 C   0  0  0  0  0  0
  -21.8824   -3.8138   23.4295 C   0  0  0  0  0  0
  -21.9205   -4.6982   22.3373 C   0  0  0  0  0  0
  -22.7835  -13.5245   21.1819 C   0  0  0  0  0  0
  -22.1643   -4.2166   21.0955 F   0  0  0  0  0  0
  -21.5659   -3.4485   25.7693 F   0  0  0  0  0  0
  -30.0011  -13.5423   20.3722 N   0  0  0  0  0  0
  -26.2994  -12.9461   20.3260 N   0  0  0  0  0  0
  -25.9357  -11.6612   20.5766 N   0  0  0  0  0  0
  -22.0441  -12.8255   22.0387 N   0  0  0  0  0  0
  -25.4268  -15.1984   20.3993 N   0  0  0  0  0  0
  -31.8383  -14.8464   20.1425 O   0  0  0  0  0  0
  -21.6673   -6.8912   21.4216 O   0  0  0  0  0  0
  -22.3504  -14.5525   20.6624 O   0  0  0  0  0  0
  -24.6411  -31.8553   23.1941 C   0  0  0  0  0  0
  -25.9228  -32.4751   23.8351 C   0  0  1  0  0  0
  -27.2464  -27.2470   20.1450 C   0  0  0  0  0  0
  -25.6019  -33.8550   24.2282 N   0  0  0  0  0  0
  -23.4442  -30.4727   21.5309 C   0  0  2  0  0  0
  -24.8984  -28.9100   20.1154 C   0  0  0  0  0  0
  -22.7616  -29.4600   22.4838 C   0  0  0  0  0  0
  -18.0352  -28.1383   22.8441 C   0  0  0  0  0  0
  -24.1494  -36.7291   23.2629 C   0  0  0  0  0  0
  -25.9898  -30.7657   21.3742 C   0  0  0  0  0  0
  -26.0691  -29.3822   20.7233 C   0  0  0  0  0  0
  -27.2443  -28.5656   20.7225 C   0  0  0  0  0  0
  -26.0509  -26.8452   19.5085 C   0  0  0  0  0  0
  -24.8967  -27.6514   19.4951 C   0  0  0  0  0  0
  -23.6754  -29.8021   20.1485 C   0  0  0  0  0  0
  -25.4096  -36.3057   24.0341 C   0  0  1  0  0  0
  -20.5968  -28.3733   23.1223 C   0  0  2  0  0  0
  -20.6805  -26.9440   22.5384 C   0  0  0  0  0  0
  -19.5770  -26.6362   21.5208 C   0  0  0  0  0  0
  -18.1954  -26.7921   22.1610 C   0  0  0  0  0  0
  -19.1599  -28.8878   23.2815 C   0  0  0  0  0  0
  -18.9495  -30.1458   23.8835 C   0  0  0  0  0  0
  -17.6490  -30.6552   24.0557 C   0  0  0  0  0  0
  -25.9064  -34.9449   23.5103 C   0  0  0  0  0  0
  -16.5392  -29.9048   23.6309 C   0  0  0  0  0  0
  -16.7328  -28.6493   23.0285 C   0  0  0  0  0  0
  -26.4564  -31.6567   25.0751 C   0  0  0  0  0  0
  -25.3756  -31.3732   26.1454 C   0  0  0  0  0  0
  -27.0445  -30.3004   24.6241 C   0  0  0  0  0  0
  -27.6153  -32.4240   25.7521 C   0  0  0  0  0  0
  -27.5585  -37.1780   24.8449 C   0  0  0  0  0  0
  -21.4316  -29.3101   22.3623 N   0  0  0  0  0  0
  -26.4246  -37.3782   23.9464 N   0  0  0  0  0  0
  -24.7091  -31.0535   22.0879 N   0  0  0  0  0  0
  -23.4311  -28.8138   23.2930 O   0  0  0  0  0  0
  -28.3475  -26.3567   20.2098 O   0  0  0  0  0  0
  -26.5600  -34.8950   22.4642 O   0  0  0  0  0  0
  -23.5540  -32.1371   23.7214 O   0  0  0  0  0  0
  -29.7980  -21.3241   19.6228 C   0  0  0  0  0  0
  -29.6130  -20.0293   20.1446 C   0  0  0  0  0  0
  -28.7077  -21.6179   21.5139 C   0  0  0  0  0  0
  -28.0526  -22.1865   22.7399 C   0  0  0  0  0  0
  -31.2715  -18.6671   18.7850 C   0  0  0  0  0  0
  -28.8472  -18.1219   18.6405 C   0  0  0  0  0  0
  -29.3698  -23.8530   20.4272 C   0  0  0  0  0  0
  -30.2131  -17.3944   20.7467 C   0  0  0  0  0  0
  -28.1674  -24.8649   20.0314 C   0  0  0  0  0  0
  -29.9652  -18.5568   19.6246 C   0  0  0  0  0  0
  -29.2451  -22.2994   20.4735 N   0  0  0  0  0  0
  -28.9049  -20.2946   21.2979 N   0  3  0  0  0  0
  -29.8626  -15.9077   20.5340 N   0  0  0  0  0  0
  -31.4747  -12.5770   19.1520 H   0  0  0  0  0  0
  -30.3660  -11.4924   19.9558 H   0  0  0  0  0  0
  -29.7974  -11.7610   17.5029 H   0  0  0  0  0  0
  -29.6485  -13.4895   17.7239 H   0  0  0  0  0  0
  -27.8591  -11.3164   18.8631 H   0  0  0  0  0  0
  -27.4014  -12.6049   17.7793 H   0  0  0  0  0  0
  -27.6369  -14.2714   19.4701 H   0  0  0  0  0  0
  -28.7424  -12.2105   21.4254 H   0  0  0  0  0  0
  -28.4306  -13.8875   21.7723 H   0  0  0  0  0  0
  -25.2783   -9.5746   22.4689 H   0  0  0  0  0  0
  -24.0076   -7.4678   22.7414 H   0  0  0  0  0  0
  -21.0903   -8.8810   19.8913 H   0  0  0  0  0  0
  -22.3725  -10.9709   19.6123 H   0  0  0  0  0  0
  -21.1993   -7.6140   23.9705 H   0  0  0  0  0  0
  -21.1521   -6.0479   25.9064 H   0  0  0  0  0  0
  -22.0574   -2.7617   23.2766 H   0  0  0  0  0  0
  -22.4077  -12.0027   22.4954 H   0  0  0  0  0  0
  -21.1017  -13.1211   22.2468 H   0  0  0  0  0  0
  -24.6621  -15.8605   20.4795 H   0  0  0  0  0  0
  -26.2729  -15.6152   20.0292 H   0  0  0  0  0  0
  -26.7325  -32.5421   23.1128 H   0  0  0  0  0  0
  -25.0263  -33.9661   25.0506 H   0  0  0  0  0  0
  -22.7446  -31.2923   21.3717 H   0  0  0  0  0  0
  -23.3768  -35.9605   23.3194 H   0  0  0  0  0  0
  -24.3610  -36.8992   22.2058 H   0  0  0  0  0  0
  -23.7225  -37.6467   23.6690 H   0  0  0  0  0  0
  -26.1307  -31.5174   20.5968 H   0  0  0  0  0  0
  -26.8661  -30.8261   22.0060 H   0  0  0  0  0  0
  -28.1380  -28.9271   21.2152 H   0  0  0  0  0  0
  -25.9850  -25.8771   19.0362 H   0  0  0  0  0  0
  -24.0047  -27.2758   19.0126 H   0  0  0  0  0  0
  -23.8462  -30.5775   19.4009 H   0  0  0  0  0  0
  -22.7949  -29.2510   19.8099 H   0  0  0  0  0  0
  -25.1261  -36.1865   25.0825 H   0  0  0  0  0  0
  -21.0045  -28.3276   24.1366 H   0  0  0  0  0  0
  -20.5673  -26.2386   23.3617 H   0  0  0  0  0  0
  -21.6660  -26.7410   22.1211 H   0  0  0  0  0  0
  -19.6917  -25.6270   21.1233 H   0  0  0  0  0  0
  -19.6654  -27.3174   20.6735 H   0  0  0  0  0  0
  -17.4248  -26.6709   21.3977 H   0  0  0  0  0  0
  -18.0321  -26.0055   22.8991 H   0  0  0  0  0  0
  -19.7978  -30.7282   24.2178 H   0  0  0  0  0  0
  -17.5051  -31.6218   24.5200 H   0  0  0  0  0  0
  -15.5383  -30.2907   23.7661 H   0  0  0  0  0  0
  -15.8765  -28.0811   22.6933 H   0  0  0  0  0  0
  -24.5946  -30.7066   25.7789 H   0  0  0  0  0  0
  -24.8925  -32.2901   26.4841 H   0  0  0  0  0  0
  -25.8048  -30.8942   27.0265 H   0  0  0  0  0  0
  -26.3067  -29.6662   24.1317 H   0  0  0  0  0  0
  -27.4246  -29.7346   25.4760 H   0  0  0  0  0  0
  -27.8881  -30.4337   23.9456 H   0  0  0  0  0  0
  -27.2871  -33.3568   26.2110 H   0  0  0  0  0  0
  -28.3995  -32.6695   25.0348 H   0  0  0  0  0  0
  -28.0798  -31.8312   26.5414 H   0  0  0  0  0  0
  -28.2526  -38.0155   24.7614 H   0  0  0  0  0  0
  -28.1143  -36.2704   24.6069 H   0  0  0  0  0  0
  -27.2362  -37.1204   25.8858 H   0  0  0  0  0  0
  -20.9556  -29.8945   21.6901 H   0  0  0  0  0  0
  -26.0108  -38.2847   24.1464 H   0  0  0  0  0  0
  -30.3082  -21.6047   18.7105 H   0  0  0  0  0  0
  -27.0381  -22.4974   22.4874 H   0  0  0  0  0  0
  -28.6299  -23.0305   23.1120 H   0  0  0  0  0  0
  -28.0195  -21.4241   23.5195 H   0  0  0  0  0  0
  -31.1414  -19.3020   17.9079 H   0  0  0  0  0  0
  -31.6297  -17.6973   18.4278 H   0  0  0  0  0  0
  -32.0910  -19.1085   19.3565 H   0  0  0  0  0  0
  -28.7589  -18.8022   17.7911 H   0  0  0  0  0  0
  -27.8693  -18.0764   19.1179 H   0  0  0  0  0  0
  -29.0561  -17.1435   18.2086 H   0  0  0  0  0  0
  -29.7228  -24.1441   21.4206 H   0  0  0  0  0  0
  -30.2096  -24.0620   19.7645 H   0  0  0  0  0  0
  -29.5974  -17.6631   21.6060 H   0  0  0  0  0  0
  -31.2384  -17.4724   21.1192 H   0  0  0  0  0  0
  -27.2712  -24.5518   20.5706 H   0  0  0  0  0  0
  -27.9287  -24.6876   18.9812 H   0  0  0  0  0  0
  -28.5882  -19.5780   21.9402 H   0  0  0  0  0  0
  -28.8885  -15.7005   20.6944 H   0  0  0  0  0  0
  1 25  1  0  0  0
  1 30  2  0  0  0
  1 83  1  0  0  0
  2  3  1  0  0  0
  2 25  1  0  0  0
  2 84  1  0  0  0
  2 85  1  0  0  0
  3  4  1  0  0  0
  3 86  1  0  0  0
  3 87  1  0  0  0
  4  5  1  0  0  0
  4 88  1  0  0  0
  4 89  1  0  0  0
  5  6  1  0  0  0
  5 26  1  0  0  0
  5 90  1  0  0  0
  6 25  1  0  0  0
  6 91  1  0  0  0
  6 92  1  0  0  0
  7  8  2  0  0  0
  7 26  1  0  0  0
  7 29  1  0  0  0
  8  9  1  0  0  0
  8 22  1  0  0  0
  9 10  1  0  0  0
  9 27  2  0  0  0
 10 11  2  0  0  0
 10 15  1  0  0  0
 11 12  1  0  0  0
 11 93  1  0  0  0
 12 13  2  0  0  0
 12 94  1  0  0  0
 13 14  1  0  0  0
 13 31  1  0  0  0
 14 15  2  0  0  0
 14 95  1  0  0  0
 15 96  1  0  0  0
 16 17  2  0  0  0
 16 21  1  0  0  0
 16 31  1  0  0  0
 17 18  1  0  0  0
 17 97  1  0  0  0
 18 19  2  0  0  0
 18 98  1  0  0  0
 19 20  1  0  0  0
 19 24  1  0  0  0
 20 21  2  0  0  0
 20 99  1  0  0  0
 21 23  1  0  0  0
 22 28  1  0  0  0
 22 32  2  0  0  0
 26 27  1  0  0  0
 28100  1  0  0  0
 28101  1  0  0  0
 29102  1  0  0  0
 29103  1  0  0  0
 33 34  1  0  0  0
 33 66  1  0  0  0
 33 70  2  0  0  0
 34 36  1  0  0  0
 34 59  1  0  0  0
 34104  1  0  0  0
 35 44  2  0  0  0
 35 45  1  0  0  0
 35 68  1  0  0  0
 36 56  1  0  0  0
 36105  1  0  0  0
 37 39  1  0  0  0
 37 47  1  0  0  0
 37 66  1  0  0  0
 37106  1  0  0  0
 38 43  2  0  0  0
 38 46  1  0  0  0
 38 47  1  0  0  0
 39 64  1  0  0  0
 39 67  2  0  0  0
 40 52  1  0  0  0
 40 53  2  0  0  0
 40 58  1  0  0  0
 41107  1  0  0  0
 41108  1  0  0  0
 41109  1  0  0  0
 41 48  1  0  0  0
 42 43  1  0  0  0
 42 66  1  0  0  0
 42110  1  0  0  0
 42111  1  0  0  0
 43 44  1  0  0  0
 44112  1  0  0  0
 45 46  2  0  0  0
 45113  1  0  0  0
 46114  1  0  0  0
 47115  1  0  0  0
 47116  1  0  0  0
 48 56  1  0  0  0
 48 65  1  0  0  0
 48117  1  0  0  0
 49 50  1  0  0  0
 49 53  1  0  0  0
 49 64  1  0  0  0
 49118  1  0  0  0
 50 51  1  0  0  0
 50119  1  0  0  0
 50120  1  0  0  0
 51 52  1  0  0  0
 51121  1  0  0  0
 51122  1  0  0  0
 52123  1  0  0  0
 52124  1  0  0  0
 53 54  1  0  0  0
 54 55  2  0  0  0
 54125  1  0  0  0
 55 57  1  0  0  0
 55126  1  0  0  0
 56 69  2  0  0  0
 57 58  2  0  0  0
 57127  1  0  0  0
 58128  1  0  0  0
 59 60  1  0  0  0
 59 61  1  0  0  0
 59 62  1  0  0  0
 60129  1  0  0  0
 60130  1  0  0  0
 60131  1  0  0  0
 61132  1  0  0  0
 61133  1  0  0  0
 61134  1  0  0  0
 62135  1  0  0  0
 62136  1  0  0  0
 62137  1  0  0  0
 63 65  1  0  0  0
 63138  1  0  0  0
 63139  1  0  0  0
 63140  1  0  0  0
 64141  1  0  0  0
 65142  1  0  0  0
 68 79  1  0  0  0
 71 72  2  0  0  0
 71 81  1  0  0  0
 71143  1  0  0  0
 72 80  1  0  0  0
 72 82  1  0  0  0
 73 74  1  0  0  0
 73 81  1  0  0  0
 73 82  2  0  0  0
 74144  1  0  0  0
 74145  1  0  0  0
 74146  1  0  0  0
 75147  1  0  0  0
 75148  1  0  0  0
 75149  1  0  0  0
 75 80  1  0  0  0
 76 80  1  0  0  0
 76150  1  0  0  0
 76151  1  0  0  0
 76152  1  0  0  0
 77 79  1  0  0  0
 77 81  1  0  0  0
 77153  1  0  0  0
 77154  1  0  0  0
 78 80  1  0  0  0
 78 83  1  0  0  0
 78155  1  0  0  0
 78156  1  0  0  0
 79157  1  0  0  0
 79158  1  0  0  0
 82159  1  0  0  0
 83160  1  0  0  0
M  CHG  1  82   1
M  ISO  4   1 100  68 101  79 101  83 100
M  END
> <chiral flag>
0

> <version>
0

> <s_m_source_file>
/data/baiqing/PycharmProjects/Reinvent-master-3.2/result/LINK_invent/BTK/process_docking_weight1_custom_sum_contain_oxygen_bond_distance_aromatic_linkinvent_7_9_3/rearranged_h_0074.sdf

> <i_m_source_file_index>
38

> <r_mmod_Potential_Energy-OPLS-2005>
58.6946029663086

> <r_mmod_Stretch_Energy-OPLS-2005>
136.967269897461

> <r_mmod_Bend_Energy-OPLS-2005>
183.686828613281

> <r_mmod_Torsional_Energy-OPLS-2005>
246.198455810547

> <r_mmod_Improper_Torsional_Energy-OPLS-2005>
6.08306360244751

> <r_mmod_Van_der_Waal_Energy-OPLS-2005>
108.405326843262

> <r_mmod_Electrostatic_Energy-OPLS-2005>
-292.472412109375

> <r_mmod_Solvation_Energy-OPLS-2005>
-428.040985107422

> <b_mmod_Minimization_Converged-OPLS-2005>
0

> <r_mmod_RMS_Derivative-OPLS-2005>
7.84815740585327

$$$$
38
                    3D
 Structure written by MMmdl.
166174  0  0  1  0            999 V2000
  -30.6390  -14.7254   20.5122 C   0  0  0  0  0  0
  -30.4597  -12.4424   19.5019 C   0  0  0  0  0  0
  -29.5603  -12.5033   18.2488 C   0  0  0  0  0  0
  -28.0888  -12.2885   18.6512 C   0  0  0  0  0  0
  -27.6634  -13.2118   19.8271 C   0  0  2  0  0  0
  -28.6915  -13.1686   20.9798 C   0  0  0  0  0  0
  -25.2721  -13.8162   20.5543 C   0  0  0  0  0  0
  -24.1969  -13.0509   20.9149 C   0  0  0  0  0  0
  -24.6478  -11.6934   20.8703 C   0  0  0  0  0  0
  -23.9097  -10.4344   21.0351 C   0  0  0  0  0  0
  -24.3650   -9.4283   21.9147 C   0  0  0  0  0  0
  -23.6341   -8.2309   22.0745 C   0  0  0  0  0  0
  -22.4316   -8.0315   21.3551 C   0  0  0  0  0  0
  -21.9942   -9.0271   20.4641 C   0  0  0  0  0  0
  -22.7261  -10.2159   20.3025 C   0  0  0  0  0  0
  -21.6913   -6.0721   22.5274 C   0  0  0  0  0  0
  -21.4054   -6.5599   23.8220 C   0  0  0  0  0  0
  -21.3683   -5.6763   24.9175 C   0  0  0  0  0  0
  -21.6061   -4.3027   24.7238 C   0  0  0  0  0  0
  -21.8834   -3.8119   23.4346 C   0  0  0  0  0  0
  -21.9228   -4.6929   22.3406 C   0  0  0  0  0  0
  -22.7978  -13.5313   21.1796 C   0  0  0  0  0  0
  -22.1709   -4.2120   21.0982 F   0  0  0  0  0  0
  -21.5613   -3.4504   25.7730 F   0  0  0  0  0  0
  -30.0106  -13.5038   20.4278 N   0  0  0  0  0  0
  -26.3097  -12.9300   20.3049 N   0  0  0  0  0  0
  -25.9394  -11.6484   20.5585 N   0  0  0  0  0  0
  -22.0590  -12.8392   22.0354 N   0  0  0  0  0  0
  -25.4679  -15.1849   20.3855 N   0  0  0  0  0  0
  -31.7984  -14.8269   20.0971 O   0  0  0  0  0  0
  -21.6693   -6.8881   21.4262 O   0  0  0  0  0  0
  -22.3626  -14.5580   20.6549 O   0  0  0  0  0  0
  -24.6337  -31.8592   23.1946 C   0  0  0  0  0  0
  -25.9163  -32.4776   23.8276 C   0  0  1  0  0  0
  -27.2338  -27.3125   20.1056 C   0  0  0  0  0  0
  -25.5920  -33.8550   24.2185 N   0  0  0  0  0  0
  -23.4293  -30.4942   21.5317 C   0  0  2  0  0  0
  -24.8775  -28.9417   20.1036 C   0  0  0  0  0  0
  -22.7504  -29.4727   22.4785 C   0  0  0  0  0  0
  -18.0346  -28.1405   22.8507 C   0  0  0  0  0  0
  -24.1509  -36.7301   23.2654 C   0  0  0  0  0  0
  -25.9805  -30.7907   21.3691 C   0  0  0  0  0  0
  -26.0493  -29.4189   20.7064 C   0  0  0  0  0  0
  -27.2329  -28.6209   20.6870 C   0  0  0  0  0  0
  -26.0381  -26.8916   19.4822 C   0  0  0  0  0  0
  -24.8768  -27.6825   19.4807 C   0  0  0  0  0  0
  -23.6498  -29.8314   20.1460 C   0  0  0  0  0  0
  -25.4132  -36.3088   24.0342 C   0  0  1  0  0  0
  -20.5956  -28.3760   23.1202 C   0  0  2  0  0  0
  -20.6850  -26.9457   22.5360 C   0  0  0  0  0  0
  -19.5798  -26.6388   21.5200 C   0  0  0  0  0  0
  -18.1979  -26.7951   22.1614 C   0  0  0  0  0  0
  -19.1599  -28.8863   23.2891 C   0  0  0  0  0  0
  -18.9515  -30.1461   23.8921 C   0  0  0  0  0  0
  -17.6517  -30.6582   24.0581 C   0  0  0  0  0  0
  -25.9046  -34.9458   23.5066 C   0  0  0  0  0  0
  -16.5405  -29.9104   23.6314 C   0  0  0  0  0  0
  -16.7330  -28.6526   23.0330 C   0  0  0  0  0  0
  -26.4490  -31.6626   25.0689 C   0  0  0  0  0  0
  -25.3692  -31.3813   26.1390 C   0  0  0  0  0  0
  -27.0368  -30.3051   24.6214 C   0  0  0  0  0  0
  -27.6036  -32.4374   25.7441 C   0  0  0  0  0  0
  -27.5593  -37.1796   24.8472 C   0  0  0  0  0  0
  -21.4202  -29.3165   22.3576 N   0  0  0  0  0  0
  -26.4312  -37.3788   23.9425 N   0  0  0  0  0  0
  -24.7014  -31.0643   22.0878 N   0  0  0  0  0  0
  -23.4224  -28.8222   23.2830 O   0  0  0  0  0  0
  -28.3469  -26.4513   20.1639 O   0  0  0  0  0  0
  -26.5659  -34.8955   22.4657 O   0  0  0  0  0  0
  -23.5487  -32.1332   23.7292 O   0  0  0  0  0  0
  -29.9671  -19.7657   20.2196 C   0  0  0  0  0  0
  -30.1792  -19.2203   18.9687 C   0  0  0  0  0  0
  -30.0706  -17.4803   20.3956 C   0  0  0  0  0  0
  -30.4062  -19.9629   17.6902 C   0  0  0  0  0  0
  -30.3279  -16.1107   22.5607 C   0  0  0  0  0  0
  -31.3234  -17.0011   16.9780 C   0  0  0  0  0  0
  -28.7374  -16.9725   17.2031 C   0  0  0  0  0  0
  -29.9347  -21.2748   20.6862 C   0  0  0  0  0  0
  -29.0018  -22.3840   19.9902 C   0  0  0  0  0  0
  -29.1998  -23.9178   20.4307 C   0  0  0  0  0  0
  -28.1344  -24.9960   19.9277 C   0  0  0  0  0  0
  -29.9055  -16.0422   21.0774 C   0  0  2  0  0  0
  -30.0986  -16.8864   17.9200 C   0  0  0  0  0  0
  -29.9270  -18.6462   21.0908 N   0  0  0  0  0  0
  -30.1357  -17.8027   19.0680 N   0  0  0  0  0  0
  -31.5125  -12.5375   19.2375 H   0  0  0  0  0  0
  -30.3719  -11.4691   19.9895 H   0  0  0  0  0  0
  -29.8705  -11.7363   17.5406 H   0  0  0  0  0  0
  -29.6854  -13.4604   17.7378 H   0  0  0  0  0  0
  -28.0113  -11.2469   18.9627 H   0  0  0  0  0  0
  -27.4352  -12.4049   17.7879 H   0  0  0  0  0  0
  -27.6577  -14.2203   19.4115 H   0  0  0  0  0  0
  -28.7099  -12.1803   21.4373 H   0  0  0  0  0  0
  -28.4072  -13.8501   21.7818 H   0  0  0  0  0  0
  -25.2776   -9.5815   22.4741 H   0  0  0  0  0  0
  -24.0082   -7.4700   22.7437 H   0  0  0  0  0  0
  -21.0897   -8.8769   19.8919 H   0  0  0  0  0  0
  -22.3689  -10.9690   19.6149 H   0  0  0  0  0  0
  -21.2067   -7.6107   23.9724 H   0  0  0  0  0  0
  -21.1509   -6.0476   25.9083 H   0  0  0  0  0  0
  -22.0614   -2.7577   23.2854 H   0  0  0  0  0  0
  -22.4098  -11.9997   22.4734 H   0  0  0  0  0  0
  -21.1178  -13.1478   22.2350 H   0  0  0  0  0  0
  -24.7252  -15.8703   20.4525 H   0  0  0  0  0  0
  -26.3351  -15.5805   20.0475 H   0  0  0  0  0  0
  -26.7268  -32.5369   23.1047 H   0  0  0  0  0  0
  -25.0080  -33.9702   25.0336 H   0  0  0  0  0  0
  -22.7296  -31.3205   21.3841 H   0  0  0  0  0  0
  -23.3780  -35.9615   23.3288 H   0  0  0  0  0  0
  -24.3615  -36.8927   22.2070 H   0  0  0  0  0  0
  -23.7217  -37.6495   23.6650 H   0  0  0  0  0  0
  -26.1357  -31.5619   20.6094 H   0  0  0  0  0  0
  -26.8562  -30.8196   22.0092 H   0  0  0  0  0  0
  -28.1365  -28.9939   21.1473 H   0  0  0  0  0  0
  -25.9668  -25.9317   18.9910 H   0  0  0  0  0  0
  -23.9935  -27.3002   18.9927 H   0  0  0  0  0  0
  -23.7715  -30.6141   19.3932 H   0  0  0  0  0  0
  -22.7697  -29.2689   19.8279 H   0  0  0  0  0  0
  -25.1305  -36.1937   25.0833 H   0  0  0  0  0  0
  -21.0151  -28.3365   24.1274 H   0  0  0  0  0  0
  -20.5738  -26.2385   23.3612 H   0  0  0  0  0  0
  -21.6708  -26.7457   22.1122 H   0  0  0  0  0  0
  -19.6954  -25.6281   21.1260 H   0  0  0  0  0  0
  -19.6683  -27.3171   20.6719 H   0  0  0  0  0  0
  -17.4241  -26.6740   21.4021 H   0  0  0  0  0  0
  -18.0354  -26.0056   22.8962 H   0  0  0  0  0  0
  -19.7983  -30.7293   24.2261 H   0  0  0  0  0  0
  -17.5061  -31.6242   24.5211 H   0  0  0  0  0  0
  -15.5393  -30.3021   23.7599 H   0  0  0  0  0  0
  -15.8752  -28.0865   22.6994 H   0  0  0  0  0  0
  -24.5835  -30.7239   25.7659 H   0  0  0  0  0  0
  -24.8966  -32.3043   26.4767 H   0  0  0  0  0  0
  -25.7966  -30.8951   27.0175 H   0  0  0  0  0  0
  -26.2997  -29.6757   24.1248 H   0  0  0  0  0  0
  -27.4098  -29.7348   25.4730 H   0  0  0  0  0  0
  -27.8800  -30.4330   23.9434 H   0  0  0  0  0  0
  -27.2645  -33.3678   26.1990 H   0  0  0  0  0  0
  -28.3819  -32.6942   25.0243 H   0  0  0  0  0  0
  -28.0733  -31.8534   26.5367 H   0  0  0  0  0  0
  -28.2607  -38.0104   24.7553 H   0  0  0  0  0  0
  -28.1104  -36.2643   24.6238 H   0  0  0  0  0  0
  -27.2345  -37.1383   25.8890 H   0  0  0  0  0  0
  -20.9338  -29.8925   21.6839 H   0  0  0  0  0  0
  -26.0205  -38.2881   24.1363 H   0  0  0  0  0  0
  -30.4896  -21.0312   17.8709 H   0  0  0  0  0  0
  -29.5930  -19.8177   16.9847 H   0  0  0  0  0  0
  -31.3462  -19.6777   17.2248 H   0  0  0  0  0  0
  -31.3943  -16.3211   22.6553 H   0  0  0  0  0  0
  -30.1387  -15.1699   23.0775 H   0  0  0  0  0  0
  -29.7900  -16.8882   23.1037 H   0  0  0  0  0  0
  -31.5266  -16.0362   16.5123 H   0  0  0  0  0  0
  -32.2360  -17.2664   17.5160 H   0  0  0  0  0  0
  -31.1901  -17.7195   16.1665 H   0  0  0  0  0  0
  -28.5553  -16.0627   16.6262 H   0  0  0  0  0  0
  -28.6760  -17.8262   16.5251 H   0  0  0  0  0  0
  -27.9132  -17.0723   17.9142 H   0  0  0  0  0  0
  -30.9532  -21.6629   20.6411 H   0  0  0  0  0  0
  -29.7029  -21.3086   21.7506 H   0  0  0  0  0  0
  -27.9598  -22.0843   20.1228 H   0  0  0  0  0  0
  -29.1614  -22.3677   18.9123 H   0  0  0  0  0  0
  -30.1934  -24.2374   20.1164 H   0  0  0  0  0  0
  -29.2253  -23.9625   21.5203 H   0  0  0  0  0  0
  -27.9756  -24.8499   18.8593 H   0  0  0  0  0  0
  -27.1961  -24.7094   20.4023 H   0  0  0  0  0  0
  -28.8317  -15.8646   21.0443 H   0  0  0  0  0  0
  -30.1334  -15.8790   18.3068 H   0  0  0  0  0  0
  1 25  1  0  0  0
  1 30  2  0  0  0
  1 82  1  0  0  0
  2  3  1  0  0  0
  2 25  1  0  0  0
  2 86  1  0  0  0
  2 87  1  0  0  0
  3  4  1  0  0  0
  3 88  1  0  0  0
  3 89  1  0  0  0
  4  5  1  0  0  0
  4 90  1  0  0  0
  4 91  1  0  0  0
  5  6  1  0  0  0
  5 26  1  0  0  0
  5 92  1  0  0  0
  6 25  1  0  0  0
  6 93  1  0  0  0
  6 94  1  0  0  0
  7  8  2  0  0  0
  7 26  1  0  0  0
  7 29  1  0  0  0
  8  9  1  0  0  0
  8 22  1  0  0  0
  9 10  1  0  0  0
  9 27  2  0  0  0
 10 11  2  0  0  0
 10 15  1  0  0  0
 11 12  1  0  0  0
 11 95  1  0  0  0
 12 13  2  0  0  0
 12 96  1  0  0  0
 13 14  1  0  0  0
 13 31  1  0  0  0
 14 15  2  0  0  0
 14 97  1  0  0  0
 15 98  1  0  0  0
 16 17  2  0  0  0
 16 21  1  0  0  0
 16 31  1  0  0  0
 17 18  1  0  0  0
 17 99  1  0  0  0
 18 19  2  0  0  0
 18100  1  0  0  0
 19 20  1  0  0  0
 19 24  1  0  0  0
 20 21  2  0  0  0
 20101  1  0  0  0
 21 23  1  0  0  0
 22 28  1  0  0  0
 22 32  2  0  0  0
 26 27  1  0  0  0
 28102  1  0  0  0
 28103  1  0  0  0
 29104  1  0  0  0
 29105  1  0  0  0
 33 34  1  0  0  0
 33 66  1  0  0  0
 33 70  2  0  0  0
 34 36  1  0  0  0
 34 59  1  0  0  0
 34106  1  0  0  0
 35 44  2  0  0  0
 35 45  1  0  0  0
 35 68  1  0  0  0
 36 56  1  0  0  0
 36107  1  0  0  0
 37 39  1  0  0  0
 37 47  1  0  0  0
 37 66  1  0  0  0
 37108  1  0  0  0
 38 43  2  0  0  0
 38 46  1  0  0  0
 38 47  1  0  0  0
 39 64  1  0  0  0
 39 67  2  0  0  0
 40 52  1  0  0  0
 40 53  2  0  0  0
 40 58  1  0  0  0
 41109  1  0  0  0
 41110  1  0  0  0
 41111  1  0  0  0
 41 48  1  0  0  0
 42 43  1  0  0  0
 42 66  1  0  0  0
 42112  1  0  0  0
 42113  1  0  0  0
 43 44  1  0  0  0
 44114  1  0  0  0
 45 46  2  0  0  0
 45115  1  0  0  0
 46116  1  0  0  0
 47117  1  0  0  0
 47118  1  0  0  0
 48 56  1  0  0  0
 48 65  1  0  0  0
 48119  1  0  0  0
 49 50  1  0  0  0
 49 53  1  0  0  0
 49 64  1  0  0  0
 49120  1  0  0  0
 50 51  1  0  0  0
 50121  1  0  0  0
 50122  1  0  0  0
 51 52  1  0  0  0
 51123  1  0  0  0
 51124  1  0  0  0
 52125  1  0  0  0
 52126  1  0  0  0
 53 54  1  0  0  0
 54 55  2  0  0  0
 54127  1  0  0  0
 55 57  1  0  0  0
 55128  1  0  0  0
 56 69  2  0  0  0
 57 58  2  0  0  0
 57129  1  0  0  0
 58130  1  0  0  0
 59 60  1  0  0  0
 59 61  1  0  0  0
 59 62  1  0  0  0
 60131  1  0  0  0
 60132  1  0  0  0
 60133  1  0  0  0
 61134  1  0  0  0
 61135  1  0  0  0
 61136  1  0  0  0
 62137  1  0  0  0
 62138  1  0  0  0
 62139  1  0  0  0
 63 65  1  0  0  0
 63140  1  0  0  0
 63141  1  0  0  0
 63142  1  0  0  0
 64143  1  0  0  0
 65144  1  0  0  0
 68 81  1  0  0  0
 71 72  2  0  0  0
 71 78  1  0  0  0
 71 84  1  0  0  0
 72 74  1  0  0  0
 72 85  1  0  0  0
 73 82  1  0  0  0
 73 84  2  0  0  0
 73 85  1  0  0  0
 74145  1  0  0  0
 74146  1  0  0  0
 74147  1  0  0  0
 75148  1  0  0  0
 75149  1  0  0  0
 75150  1  0  0  0
 75 82  1  0  0  0
 76151  1  0  0  0
 76152  1  0  0  0
 76153  1  0  0  0
 76 83  1  0  0  0
 77 83  1  0  0  0
 77154  1  0  0  0
 77155  1  0  0  0
 77156  1  0  0  0
 78 79  1  0  0  0
 78157  1  0  0  0
 78158  1  0  0  0
 79 80  1  0  0  0
 79159  1  0  0  0
 79160  1  0  0  0
 80 81  1  0  0  0
 80161  1  0  0  0
 80162  1  0  0  0
 81163  1  0  0  0
 81164  1  0  0  0
 82165  1  0  0  0
 83 85  1  0  0  0
 83166  1  0  0  0
M  ISO  4   1 100  68 101  81 101  82 100
M  END
> <chiral flag>
0

> <version>
0

> <s_m_source_file>
/data/baiqing/PycharmProjects/Reinvent-master-3.2/result/LINK_invent/BTK/process_docking_weight1_custom_sum_contain_oxygen_bond_distance_aromatic_linkinvent_7_9_3/rearranged_h_0074.sdf

> <i_m_source_file_index>
39

> <r_mmod_Potential_Energy-OPLS-2005>
197.987411499023

> <r_mmod_Stretch_Energy-OPLS-2005>
112.423049926758

> <r_mmod_Bend_Energy-OPLS-2005>
186.309539794922

> <r_mmod_Torsional_Energy-OPLS-2005>
213.438751220703

> <r_mmod_Improper_Torsional_Energy-OPLS-2005>
3.77605247497559

> <r_mmod_Van_der_Waal_Energy-OPLS-2005>
119.381065368652

> <r_mmod_Electrostatic_Energy-OPLS-2005>
-307.383422851562

> <r_mmod_Solvation_Energy-OPLS-2005>
-200.857131958008

> <b_mmod_Minimization_Converged-OPLS-2005>
0

> <r_mmod_RMS_Derivative-OPLS-2005>
7.76066637039185

$$$$
39
                    3D
 Structure written by MMmdl.
176184  0  0  1  0            999 V2000
  -30.6489  -14.5786   20.6450 C   0  0  0  0  0  0
  -30.4337  -12.4219   19.4114 C   0  0  0  0  0  0
  -29.5048  -12.5474   18.1809 C   0  0  0  0  0  0
  -28.0239  -12.3542   18.5722 C   0  0  0  0  0  0
  -27.6473  -13.1904   19.8190 C   0  0  2  0  0  0
  -28.6590  -12.9620   20.9369 C   0  0  0  0  0  0
  -25.2599  -13.8027   20.5530 C   0  0  0  0  0  0
  -24.1883  -13.0444   20.9077 C   0  0  0  0  0  0
  -24.6389  -11.6854   20.8652 C   0  0  0  0  0  0
  -23.9062  -10.4286   21.0366 C   0  0  0  0  0  0
  -24.3628   -9.4190   21.9152 C   0  0  0  0  0  0
  -23.6280   -8.2248   22.0767 C   0  0  0  0  0  0
  -22.4245   -8.0286   21.3587 C   0  0  0  0  0  0
  -21.9879   -9.0239   20.4670 C   0  0  0  0  0  0
  -22.7211  -10.2110   20.3023 C   0  0  0  0  0  0
  -21.6879   -6.0764   22.5269 C   0  0  0  0  0  0
  -21.4016   -6.5645   23.8205 C   0  0  0  0  0  0
  -21.3632   -5.6796   24.9166 C   0  0  0  0  0  0
  -21.6072   -4.3060   24.7221 C   0  0  0  0  0  0
  -21.8805   -3.8150   23.4315 C   0  0  0  0  0  0
  -21.9190   -4.6988   22.3388 C   0  0  0  0  0  0
  -22.7907  -13.5215   21.1813 C   0  0  0  0  0  0
  -22.1671   -4.2144   21.0985 F   0  0  0  0  0  0
  -21.5605   -3.4538   25.7743 F   0  0  0  0  0  0
  -29.9864  -13.3862   20.4444 N   0  0  0  0  0  0
  -26.2967  -12.9186   20.2888 N   0  0  0  0  0  0
  -25.9291  -11.6403   20.5518 N   0  0  0  0  0  0
  -22.0599  -12.8263   22.0363 N   0  0  0  0  0  0
  -25.4435  -15.1818   20.4136 N   0  0  0  0  0  0
  -31.6939  -14.7973   20.0171 O   0  0  0  0  0  0
  -21.6637   -6.8875   21.4239 O   0  0  0  0  0  0
  -22.3644  -14.5601   20.6705 O   0  0  0  0  0  0
  -24.6275  -31.8584   23.2091 C   0  0  0  0  0  0
  -25.9115  -32.4725   23.8427 C   0  0  1  0  0  0
  -27.2173  -27.3104   20.0846 C   0  0  0  0  0  0
  -25.5941  -33.8549   24.2304 N   0  0  0  0  0  0
  -23.4320  -30.4903   21.5550 C   0  0  2  0  0  0
  -24.8795  -28.9589   20.0980 C   0  0  0  0  0  0
  -22.7457  -29.4604   22.4867 C   0  0  0  0  0  0
  -18.0214  -28.1637   22.8688 C   0  0  0  0  0  0
  -24.1482  -36.7310   23.2639 C   0  0  0  0  0  0
  -25.9778  -30.7786   21.3909 C   0  0  0  0  0  0
  -26.0488  -29.4069   20.7280 C   0  0  0  0  0  0
  -27.2211  -28.5919   20.7338 C   0  0  0  0  0  0
  -26.0447  -26.9647   19.3806 C   0  0  0  0  0  0
  -24.8769  -27.7377   19.4225 C   0  0  0  0  0  0
  -23.6549  -29.8481   20.1615 C   0  0  0  0  0  0
  -25.4105  -36.3063   24.0325 C   0  0  1  0  0  0
  -20.5755  -28.3819   23.1351 C   0  0  2  0  0  0
  -20.6501  -26.9492   22.5695 C   0  0  0  0  0  0
  -19.5613  -26.6775   21.5328 C   0  0  0  0  0  0
  -18.1836  -26.8140   22.1901 C   0  0  0  0  0  0
  -19.1461  -28.9073   23.2970 C   0  0  0  0  0  0
  -18.9538  -30.1603   23.9157 C   0  0  0  0  0  0
  -17.6550  -30.6786   24.0719 C   0  0  0  0  0  0
  -25.9073  -34.9406   23.5100 C   0  0  0  0  0  0
  -16.5392  -29.9424   23.6412 C   0  0  0  0  0  0
  -16.7178  -28.6786   23.0551 C   0  0  0  0  0  0
  -26.4478  -31.6544   25.0815 C   0  0  0  0  0  0
  -25.3729  -31.3748   26.1576 C   0  0  0  0  0  0
  -27.0337  -30.2957   24.6324 C   0  0  0  0  0  0
  -27.6007  -32.4342   25.7588 C   0  0  0  0  0  0
  -27.5577  -37.1800   24.8453 C   0  0  0  0  0  0
  -21.4139  -29.3166   22.3723 N   0  0  0  0  0  0
  -26.4274  -37.3768   23.9423 N   0  0  0  0  0  0
  -24.6982  -31.0552   22.1097 N   0  0  0  0  0  0
  -23.4040  -28.8045   23.2957 O   0  0  0  0  0  0
  -28.2761  -26.3790   20.0738 O   0  0  0  0  0  0
  -26.5624  -34.8887   22.4664 O   0  0  0  0  0  0
  -23.5405  -32.1474   23.7340 O   0  0  0  0  0  0
  -27.8992  -20.0699   21.1547 C   0  0  0  0  0  0
  -29.1378  -18.8190   19.8356 C   0  0  0  0  0  0
  -28.4553  -20.0348   19.8641 C   0  0  0  0  0  0
  -28.6094  -19.2288   21.9608 C   0  0  0  0  0  0
  -29.4692  -15.2201   22.9605 C   0  0  0  0  0  0
  -29.3106  -21.0341   17.6739 C   0  0  0  0  0  0
  -26.8600  -20.6771   18.1312 C   0  0  0  0  0  0
  -28.5101  -18.2494   24.2970 C   0  0  0  0  0  0
  -27.7124  -20.5066   24.0268 C   0  0  0  0  0  0
  -30.1159  -20.1748   23.6233 C   0  0  0  0  0  0
  -28.6812  -23.6257   20.1862 C   0  0  0  0  0  0
  -27.9374  -22.6608   19.1682 C   0  0  0  0  0  0
  -30.4331  -17.2710   21.4394 C   0  0  0  0  0  0
  -27.8640  -24.9895   20.4328 C   0  0  0  0  0  0
  -30.2040  -15.6946   21.6931 C   0  0  2  0  0  0
  -28.2096  -21.1127   18.7580 C   0  0  0  0  0  0
  -28.7445  -19.4896   23.4483 C   0  0  0  0  0  0
  -29.3620  -18.3326   21.1332 N   0  0  0  0  0  0
  -31.4795  -12.5453   19.1138 H   0  0  0  0  0  0
  -30.3681  -11.4077   19.8035 H   0  0  0  0  0  0
  -29.7822  -11.8067   17.4321 H   0  0  0  0  0  0
  -29.6445  -13.5238   17.7120 H   0  0  0  0  0  0
  -27.8699  -11.2930   18.7763 H   0  0  0  0  0  0
  -27.3601  -12.6093   17.7408 H   0  0  0  0  0  0
  -27.6902  -14.2484   19.5530 H   0  0  0  0  0  0
  -28.6890  -11.9033   21.2164 H   0  0  0  0  0  0
  -28.2400  -13.4672   21.7945 H   0  0  0  0  0  0
  -25.2793   -9.5688   22.4723 H   0  0  0  0  0  0
  -24.0004   -7.4651   22.7485 H   0  0  0  0  0  0
  -21.0801   -8.8742   19.8981 H   0  0  0  0  0  0
  -22.3638  -10.9673   19.6129 H   0  0  0  0  0  0
  -21.2028   -7.6146   23.9691 H   0  0  0  0  0  0
  -21.1471   -6.0540   25.9067 H   0  0  0  0  0  0
  -22.0620   -2.7597   23.2826 H   0  0  0  0  0  0
  -22.4249  -11.9933   22.4739 H   0  0  0  0  0  0
  -21.1231  -13.1291   22.2621 H   0  0  0  0  0  0
  -24.6883  -15.8420   20.5528 H   0  0  0  0  0  0
  -26.3145  -15.6169   20.1426 H   0  0  0  0  0  0
  -26.7158  -32.5320   23.1155 H   0  0  0  0  0  0
  -25.0061  -33.9695   25.0416 H   0  0  0  0  0  0
  -22.7287  -31.3115   21.4188 H   0  0  0  0  0  0
  -23.3737  -35.9647   23.3262 H   0  0  0  0  0  0
  -24.3566  -36.9001   22.2068 H   0  0  0  0  0  0
  -23.7220  -37.6505   23.6677 H   0  0  0  0  0  0
  -26.1307  -31.5522   20.6336 H   0  0  0  0  0  0
  -26.8432  -30.8125   22.0417 H   0  0  0  0  0  0
  -28.1043  -28.9570   21.2416 H   0  0  0  0  0  0
  -26.0342  -26.0852   18.7591 H   0  0  0  0  0  0
  -23.9991  -27.4336   18.8778 H   0  0  0  0  0  0
  -23.8080  -30.6376   19.4286 H   0  0  0  0  0  0
  -22.7668  -29.3132   19.8215 H   0  0  0  0  0  0
  -25.1255  -36.1956   25.0813 H   0  0  0  0  0  0
  -20.9697  -28.3481   24.1503 H   0  0  0  0  0  0
  -21.6506  -26.7339   22.1896 H   0  0  0  0  0  0
  -20.4897  -26.2486   23.3963 H   0  0  0  0  0  0
  -19.6770  -25.6813   21.1102 H   0  0  0  0  0  0
  -19.6678  -27.3950   20.7159 H   0  0  0  0  0  0
  -17.4100  -26.7059   21.4401 H   0  0  0  0  0  0
  -18.0304  -26.0098   22.9172 H   0  0  0  0  0  0
  -19.8033  -30.7191   24.2891 H   0  0  0  0  0  0
  -17.5167  -31.6416   24.5383 H   0  0  0  0  0  0
  -15.5481  -30.3387   23.7917 H   0  0  0  0  0  0
  -15.8505  -28.1193   22.7379 H   0  0  0  0  0  0
  -24.5872  -30.7097   25.7973 H   0  0  0  0  0  0
  -24.8957  -32.2966   26.4960 H   0  0  0  0  0  0
  -25.8062  -30.9005   27.0411 H   0  0  0  0  0  0
  -26.2935  -29.6761   24.1266 H   0  0  0  0  0  0
  -27.3939  -29.7165   25.4848 H   0  0  0  0  0  0
  -27.8846  -30.4246   23.9621 H   0  0  0  0  0  0
  -27.2515  -33.3621   26.2168 H   0  0  0  0  0  0
  -28.3781  -32.6998   25.0387 H   0  0  0  0  0  0
  -28.0723  -31.8538   26.5569 H   0  0  0  0  0  0
  -28.2551  -38.0137   24.7501 H   0  0  0  0  0  0
  -28.1101  -36.2662   24.6232 H   0  0  0  0  0  0
  -27.2287  -37.1382   25.8849 H   0  0  0  0  0  0
  -20.9339  -29.9350   21.7301 H   0  0  0  0  0  0
  -26.0173  -38.2846   24.1458 H   0  0  0  0  0  0
  -27.2344  -20.8429   21.5229 H   0  0  0  0  0  0
  -29.6153  -18.3085   19.0060 H   0  0  0  0  0  0
  -29.9695  -15.6028   23.8416 H   0  0  0  0  0  0
  -29.5544  -14.1561   23.1650 H   0  0  0  0  0  0
  -28.4292  -15.5352   22.9754 H   0  0  0  0  0  0
  -29.3659  -20.0434   17.2281 H   0  0  0  0  0  0
  -30.2982  -21.2497   18.0720 H   0  0  0  0  0  0
  -29.1068  -21.7156   16.8519 H   0  0  0  0  0  0
  -26.0533  -20.7588   18.8742 H   0  0  0  0  0  0
  -26.8932  -19.6284   17.8301 H   0  0  0  0  0  0
  -26.5926  -21.2632   17.2473 H   0  0  0  0  0  0
  -27.4957  -17.8826   24.1581 H   0  0  0  0  0  0
  -28.6941  -18.3949   25.3555 H   0  0  0  0  0  0
  -29.1749  -17.4875   23.9736 H   0  0  0  0  0  0
  -26.6920  -20.1339   23.9552 H   0  0  0  0  0  0
  -27.7524  -21.4774   23.5288 H   0  0  0  0  0  0
  -27.8684  -20.6741   25.0978 H   0  0  0  0  0  0
  -30.3096  -20.5136   24.6330 H   0  0  0  0  0  0
  -30.1613  -21.0888   23.0285 H   0  0  0  0  0  0
  -30.9544  -19.5717   23.2959 H   0  0  0  0  0  0
  -29.7508  -23.7736   20.0167 H   0  0  0  0  0  0
  -28.6721  -23.0552   21.1199 H   0  0  0  0  0  0
  -27.8900  -23.1966   18.2201 H   0  0  0  0  0  0
  -26.9188  -22.6648   19.5793 H   0  0  0  0  0  0
  -30.9545  -17.6106   22.3428 H   0  0  0  0  0  0
  -31.2099  -17.3187   20.6589 H   0  0  0  0  0  0
  -27.6621  -25.0838   21.4961 H   0  0  0  0  0  0
  -26.8765  -24.7427   20.0518 H   0  0  0  0  0  0
  -31.1697  -15.6094   22.1788 H   0  0  0  0  0  0
  1 25  1  0  0  0
  1 30  2  0  0  0
  1 85  1  0  0  0
  2  3  1  0  0  0
  2 25  1  0  0  0
  2 89  1  0  0  0
  2 90  1  0  0  0
  3  4  1  0  0  0
  3 91  1  0  0  0
  3 92  1  0  0  0
  4  5  1  0  0  0
  4 93  1  0  0  0
  4 94  1  0  0  0
  5  6  1  0  0  0
  5 26  1  0  0  0
  5 95  1  0  0  0
  6 25  1  0  0  0
  6 96  1  0  0  0
  6 97  1  0  0  0
  7  8  2  0  0  0
  7 26  1  0  0  0
  7 29  1  0  0  0
  8  9  1  0  0  0
  8 22  1  0  0  0
  9 10  1  0  0  0
  9 27  2  0  0  0
 10 11  2  0  0  0
 10 15  1  0  0  0
 11 12  1  0  0  0
 11 98  1  0  0  0
 12 13  2  0  0  0
 12 99  1  0  0  0
 13 14  1  0  0  0
 13 31  1  0  0  0
 14 15  2  0  0  0
 14100  1  0  0  0
 15101  1  0  0  0
 16 17  2  0  0  0
 16 21  1  0  0  0
 16 31  1  0  0  0
 17 18  1  0  0  0
 17102  1  0  0  0
 18 19  2  0  0  0
 18103  1  0  0  0
 19 20  1  0  0  0
 19 24  1  0  0  0
 20 21  2  0  0  0
 20104  1  0  0  0
 21 23  1  0  0  0
 22 28  1  0  0  0
 22 32  2  0  0  0
 26 27  1  0  0  0
 28105  1  0  0  0
 28106  1  0  0  0
 29107  1  0  0  0
 29108  1  0  0  0
 33 34  1  0  0  0
 33 66  1  0  0  0
 33 70  2  0  0  0
 34 36  1  0  0  0
 34 59  1  0  0  0
 34109  1  0  0  0
 35 44  2  0  0  0
 35 45  1  0  0  0
 35 68  1  0  0  0
 36 56  1  0  0  0
 36110  1  0  0  0
 37 39  1  0  0  0
 37 47  1  0  0  0
 37 66  1  0  0  0
 37111  1  0  0  0
 38 43  2  0  0  0
 38 46  1  0  0  0
 38 47  1  0  0  0
 39 64  1  0  0  0
 39 67  2  0  0  0
 40 52  1  0  0  0
 40 53  2  0  0  0
 40 58  1  0  0  0
 41112  1  0  0  0
 41113  1  0  0  0
 41114  1  0  0  0
 41 48  1  0  0  0
 42 43  1  0  0  0
 42 66  1  0  0  0
 42115  1  0  0  0
 42116  1  0  0  0
 43 44  1  0  0  0
 44117  1  0  0  0
 45 46  2  0  0  0
 45118  1  0  0  0
 46119  1  0  0  0
 47120  1  0  0  0
 47121  1  0  0  0
 48 56  1  0  0  0
 48 65  1  0  0  0
 48122  1  0  0  0
 49 50  1  0  0  0
 49 53  1  0  0  0
 49 64  1  0  0  0
 49123  1  0  0  0
 50 51  1  0  0  0
 50124  1  0  0  0
 50125  1  0  0  0
 51 52  1  0  0  0
 51126  1  0  0  0
 51127  1  0  0  0
 52128  1  0  0  0
 52129  1  0  0  0
 53 54  1  0  0  0
 54 55  2  0  0  0
 54130  1  0  0  0
 55 57  1  0  0  0
 55131  1  0  0  0
 56 69  2  0  0  0
 57 58  2  0  0  0
 57132  1  0  0  0
 58133  1  0  0  0
 59 60  1  0  0  0
 59 61  1  0  0  0
 59 62  1  0  0  0
 60134  1  0  0  0
 60135  1  0  0  0
 60136  1  0  0  0
 61137  1  0  0  0
 61138  1  0  0  0
 61139  1  0  0  0
 62140  1  0  0  0
 62141  1  0  0  0
 62142  1  0  0  0
 63 65  1  0  0  0
 63143  1  0  0  0
 63144  1  0  0  0
 63145  1  0  0  0
 64146  1  0  0  0
 65147  1  0  0  0
 68 84  1  0  0  0
 71 73  1  0  0  0
 71 74  2  0  0  0
 71148  1  0  0  0
 72 73  2  0  0  0
 72 88  1  0  0  0
 72149  1  0  0  0
 73 86  1  0  0  0
 74 87  1  0  0  0
 74 88  1  0  0  0
 75150  1  0  0  0
 75151  1  0  0  0
 75152  1  0  0  0
 75 85  1  0  0  0
 76153  1  0  0  0
 76154  1  0  0  0
 76155  1  0  0  0
 76 86  1  0  0  0
 77 86  1  0  0  0
 77156  1  0  0  0
 77157  1  0  0  0
 77158  1  0  0  0
 78159  1  0  0  0
 78160  1  0  0  0
 78161  1  0  0  0
 78 87  1  0  0  0
 79 87  1  0  0  0
 79162  1  0  0  0
 79163  1  0  0  0
 79164  1  0  0  0
 80 87  1  0  0  0
 80165  1  0  0  0
 80166  1  0  0  0
 80167  1  0  0  0
 81 82  1  0  0  0
 81 84  1  0  0  0
 81168  1  0  0  0
 81169  1  0  0  0
 82 86  1  0  0  0
 82170  1  0  0  0
 82171  1  0  0  0
 83 85  1  0  0  0
 83 88  1  0  0  0
 83172  1  0  0  0
 83173  1  0  0  0
 84174  1  0  0  0
 84175  1  0  0  0
 85176  1  0  0  0
M  ISO  4   1 100  68 101  84 101  85 100
M  END
> <chiral flag>
0

> <version>
0

> <s_m_source_file>
/data/baiqing/PycharmProjects/Reinvent-master-3.2/result/LINK_invent/BTK/process_docking_weight1_custom_sum_contain_oxygen_bond_distance_aromatic_linkinvent_7_9_3/rearranged_h_0074.sdf

> <i_m_source_file_index>
40

> <r_mmod_Potential_Energy-OPLS-2005>
355.144958496094

> <r_mmod_Stretch_Energy-OPLS-2005>
117.82502746582

> <r_mmod_Bend_Energy-OPLS-2005>
350.163360595703

> <r_mmod_Torsional_Energy-OPLS-2005>
263.566314697266

> <r_mmod_Improper_Torsional_Energy-OPLS-2005>
7.62507820129395

> <r_mmod_Van_der_Waal_Energy-OPLS-2005>
155.693145751953

> <r_mmod_Electrostatic_Energy-OPLS-2005>
-424.314514160156

> <r_mmod_Solvation_Energy-OPLS-2005>
-168.726745605469

> <b_mmod_Minimization_Converged-OPLS-2005>
0

> <r_mmod_RMS_Derivative-OPLS-2005>
21.3000411987305

$$$$
40
                    3D
 Structure written by MMmdl.
164172  0  0  1  0            999 V2000
  -30.7888  -14.3386   20.7362 C   0  0  0  0  0  0
  -30.4172  -12.3025   19.3755 C   0  0  0  0  0  0
  -29.4765  -12.5383   18.1820 C   0  0  0  0  0  0
  -28.0052  -12.3815   18.6077 C   0  0  0  0  0  0
  -27.6686  -13.2002   19.8808 C   0  0  2  0  0  0
  -28.7109  -12.9412   20.9921 C   0  0  0  0  0  0
  -25.2622  -13.8152   20.5684 C   0  0  0  0  0  0
  -24.1857  -13.0438   20.9167 C   0  0  0  0  0  0
  -24.6400  -11.6902   20.8729 C   0  0  0  0  0  0
  -23.9060  -10.4293   21.0402 C   0  0  0  0  0  0
  -24.3613   -9.4209   21.9181 C   0  0  0  0  0  0
  -23.6290   -8.2245   22.0753 C   0  0  0  0  0  0
  -22.4271   -8.0282   21.3544 C   0  0  0  0  0  0
  -21.9905   -9.0256   20.4646 C   0  0  0  0  0  0
  -22.7232  -10.2136   20.3053 C   0  0  0  0  0  0
  -21.6851   -6.0736   22.5279 C   0  0  0  0  0  0
  -21.4013   -6.5640   23.8213 C   0  0  0  0  0  0
  -21.3660   -5.6792   24.9175 C   0  0  0  0  0  0
  -21.6045   -4.3055   24.7226 C   0  0  0  0  0  0
  -21.8819   -3.8147   23.4346 C   0  0  0  0  0  0
  -21.9192   -4.6964   22.3403 C   0  0  0  0  0  0
  -22.7878  -13.5243   21.1833 C   0  0  0  0  0  0
  -22.1660   -4.2151   21.0980 F   0  0  0  0  0  0
  -21.5630   -3.4538   25.7738 F   0  0  0  0  0  0
  -30.0502  -13.2342   20.4507 N   0  0  0  0  0  0
  -26.3065  -12.9313   20.3402 N   0  0  0  0  0  0
  -25.9328  -11.6475   20.5768 N   0  0  0  0  0  0
  -22.0514  -12.8240   22.0391 N   0  0  0  0  0  0
  -25.4361  -15.1868   20.4097 N   0  0  0  0  0  0
  -31.7483  -14.6714   20.0349 O   0  0  0  0  0  0
  -21.6637   -6.8879   21.4241 O   0  0  0  0  0  0
  -22.3566  -14.5553   20.6686 O   0  0  0  0  0  0
  -24.6116  -31.8696   23.2116 C   0  0  0  0  0  0
  -25.9021  -32.4832   23.8404 C   0  0  1  0  0  0
  -27.2382  -27.4690   20.0892 C   0  0  0  0  0  0
  -25.5889  -33.8629   24.2337 N   0  0  0  0  0  0
  -23.3986  -30.4927   21.5512 C   0  0  2  0  0  0
  -24.8466  -28.9621   20.1138 C   0  0  0  0  0  0
  -22.7395  -29.4665   22.5001 C   0  0  0  0  0  0
  -18.0268  -28.1373   22.8495 C   0  0  0  0  0  0
  -24.1487  -36.7324   23.2638 C   0  0  0  0  0  0
  -25.9235  -30.8465   21.3586 C   0  0  0  0  0  0
  -26.0044  -29.4835   20.7059 C   0  0  0  0  0  0
  -27.2065  -28.7444   20.6891 C   0  0  0  0  0  0
  -26.0680  -26.9520   19.4938 C   0  0  0  0  0  0
  -24.8713  -27.6937   19.5056 C   0  0  0  0  0  0
  -23.6053  -29.8236   20.1657 C   0  0  0  0  0  0
  -25.4106  -36.3119   24.0339 C   0  0  1  0  0  0
  -20.5856  -28.3657   23.1328 C   0  0  2  0  0  0
  -20.6760  -26.9397   22.5420 C   0  0  0  0  0  0
  -19.5739  -26.6384   21.5214 C   0  0  0  0  0  0
  -18.1917  -26.7920   22.1625 C   0  0  0  0  0  0
  -19.1517  -28.8831   23.2910 C   0  0  0  0  0  0
  -18.9447  -30.1438   23.8919 C   0  0  0  0  0  0
  -17.6451  -30.6583   24.0566 C   0  0  0  0  0  0
  -25.9030  -34.9482   23.5135 C   0  0  0  0  0  0
  -16.5342  -29.9089   23.6323 C   0  0  0  0  0  0
  -16.7258  -28.6503   23.0345 C   0  0  0  0  0  0
  -26.4463  -31.6602   25.0718 C   0  0  0  0  0  0
  -25.3742  -31.3698   26.1477 C   0  0  0  0  0  0
  -27.0288  -30.3051   24.6063 C   0  0  0  0  0  0
  -27.6047  -32.4315   25.7475 C   0  0  0  0  0  0
  -27.5582  -37.1814   24.8464 C   0  0  0  0  0  0
  -21.4125  -29.3030   22.3741 N   0  0  0  0  0  0
  -26.4296  -37.3800   23.9407 N   0  0  0  0  0  0
  -24.6627  -31.0827   22.0998 N   0  0  0  0  0  0
  -23.4179  -28.8210   23.3034 O   0  0  0  0  0  0
  -28.3967  -26.7328   20.0910 O   0  0  0  0  0  0
  -26.5592  -34.8928   22.4696 O   0  0  0  0  0  0
  -23.5317  -32.1432   23.7532 O   0  0  0  0  0  0
  -30.8051  -18.7144   22.8696 C   0  0  0  0  0  0
  -31.3623  -17.9180   20.7072 C   0  0  0  0  0  0
  -31.1942  -17.6181   22.0732 C   0  0  0  0  0  0
  -30.8045  -20.1060   21.0610 C   0  0  0  0  0  0
  -32.9312  -15.8282   22.5032 C   0  0  0  0  0  0
  -31.1638  -16.1619   24.1707 C   0  0  0  0  0  0
  -30.5132  -21.4944   20.5084 C   0  0  0  0  0  0
  -30.4448  -15.1387   22.0198 C   0  0  0  0  0  0
  -29.0142  -21.7157   20.2070 C   0  0  0  0  0  0
  -28.4302  -23.0049   20.8171 C   0  0  0  0  0  0
  -28.7948  -24.3082   20.0820 C   0  0  0  0  0  0
  -28.3130  -25.5378   20.8691 C   0  0  0  0  0  0
  -31.4339  -16.1968   22.6422 C   0  0  0  0  0  0
  -30.6138  -19.9434   22.3618 N   0  0  0  0  0  0
  -31.1550  -19.1531   20.2065 N   0  0  0  0  0  0
  -31.4574  -12.4118   19.0639 H   0  0  0  0  0  0
  -30.3251  -11.2765   19.7348 H   0  0  0  0  0  0
  -29.7088  -11.8414   17.3759 H   0  0  0  0  0  0
  -29.6384  -13.5395   17.7798 H   0  0  0  0  0  0
  -27.8190  -11.3219   18.7875 H   0  0  0  0  0  0
  -27.3447  -12.6710   17.7896 H   0  0  0  0  0  0
  -27.7279  -14.2548   19.6108 H   0  0  0  0  0  0
  -28.6735  -11.8986   21.3111 H   0  0  0  0  0  0
  -28.4516  -13.5241   21.8741 H   0  0  0  0  0  0
  -25.2761   -9.5685   22.4752 H   0  0  0  0  0  0
  -24.0001   -7.4636   22.7471 H   0  0  0  0  0  0
  -21.0836   -8.8775   19.8952 H   0  0  0  0  0  0
  -22.3693  -10.9674   19.6160 H   0  0  0  0  0  0
  -21.2004   -7.6148   23.9718 H   0  0  0  0  0  0
  -21.1482   -6.0522   25.9079 H   0  0  0  0  0  0
  -22.0598   -2.7610   23.2846 H   0  0  0  0  0  0
  -22.4120  -11.9897   22.4778 H   0  0  0  0  0  0
  -21.1136  -13.1276   22.2601 H   0  0  0  0  0  0
  -24.6745  -15.8473   20.5213 H   0  0  0  0  0  0
  -26.2989  -15.6242   20.1104 H   0  0  0  0  0  0
  -26.7096  -32.5561   23.1178 H   0  0  0  0  0  0
  -25.0047  -33.9798   25.0486 H   0  0  0  0  0  0
  -22.6858  -31.3084   21.4131 H   0  0  0  0  0  0
  -23.3742  -35.9665   23.3314 H   0  0  0  0  0  0
  -24.3582  -36.8925   22.2051 H   0  0  0  0  0  0
  -23.7248  -37.6537   23.6642 H   0  0  0  0  0  0
  -26.0285  -31.6140   20.5906 H   0  0  0  0  0  0
  -26.8140  -30.9026   21.9729 H   0  0  0  0  0  0
  -28.1024  -29.1420   21.1457 H   0  0  0  0  0  0
  -26.0848  -25.9778   19.0254 H   0  0  0  0  0  0
  -23.9812  -27.2862   19.0466 H   0  0  0  0  0  0
  -23.7079  -30.5981   19.4045 H   0  0  0  0  0  0
  -22.7310  -29.2390   19.8735 H   0  0  0  0  0  0
  -25.1282  -36.1991   25.0834 H   0  0  0  0  0  0
  -20.9947  -28.3219   24.1449 H   0  0  0  0  0  0
  -20.5666  -26.2262   23.3602 H   0  0  0  0  0  0
  -21.6632  -26.7446   22.1211 H   0  0  0  0  0  0
  -19.6903  -25.6301   21.1230 H   0  0  0  0  0  0
  -19.6682  -27.3207   20.6755 H   0  0  0  0  0  0
  -17.4189  -26.6670   21.4024 H   0  0  0  0  0  0
  -18.0318  -26.0057   22.9016 H   0  0  0  0  0  0
  -19.7924  -30.7243   24.2301 H   0  0  0  0  0  0
  -17.5010  -31.6267   24.5160 H   0  0  0  0  0  0
  -15.5344  -30.2999   23.7637 H   0  0  0  0  0  0
  -15.8655  -28.0833   22.7047 H   0  0  0  0  0  0
  -24.5904  -30.7058   25.7816 H   0  0  0  0  0  0
  -24.8947  -32.2851   26.4956 H   0  0  0  0  0  0
  -25.8106  -30.8843   27.0215 H   0  0  0  0  0  0
  -26.2818  -29.6817   24.1132 H   0  0  0  0  0  0
  -27.4093  -29.7279   25.4501 H   0  0  0  0  0  0
  -27.8637  -30.4385   23.9179 H   0  0  0  0  0  0
  -27.2673  -33.3602   26.2091 H   0  0  0  0  0  0
  -28.3835  -32.6898   25.0286 H   0  0  0  0  0  0
  -28.0740  -31.8414   26.5357 H   0  0  0  0  0  0
  -28.2607  -38.0104   24.7508 H   0  0  0  0  0  0
  -28.1068  -36.2635   24.6293 H   0  0  0  0  0  0
  -27.2298  -37.1473   25.8867 H   0  0  0  0  0  0
  -20.9277  -29.8758   21.6974 H   0  0  0  0  0  0
  -26.0188  -38.2882   24.1401 H   0  0  0  0  0  0
  -30.6381  -18.6369   23.9325 H   0  0  0  0  0  0
  -31.6672  -17.1693   19.9945 H   0  0  0  0  0  0
  -33.5593  -16.4850   23.1066 H   0  0  0  0  0  0
  -33.3022  -15.9146   21.4829 H   0  0  0  0  0  0
  -33.1232  -14.8069   22.8355 H   0  0  0  0  0  0
  -31.8015  -16.8548   24.7219 H   0  0  0  0  0  0
  -31.3634  -15.1745   24.5914 H   0  0  0  0  0  0
  -30.1254  -16.3981   24.4086 H   0  0  0  0  0  0
  -31.1031  -21.6636   19.6069 H   0  0  0  0  0  0
  -30.8726  -22.2284   21.2310 H   0  0  0  0  0  0
  -29.4601  -15.5914   21.8977 H   0  0  0  0  0  0
  -30.3124  -14.3532   22.7650 H   0  0  0  0  0  0
  -28.4514  -20.8808   20.6279 H   0  0  0  0  0  0
  -28.8331  -21.6690   19.1328 H   0  0  0  0  0  0
  -28.7280  -23.0724   21.8648 H   0  0  0  0  0  0
  -27.3426  -22.9169   20.8304 H   0  0  0  0  0  0
  -28.3365  -24.3017   19.0923 H   0  0  0  0  0  0
  -29.8720  -24.3761   19.9276 H   0  0  0  0  0  0
  -28.9306  -25.6678   21.7585 H   0  0  0  0  0  0
  -27.3015  -25.3562   21.2398 H   0  0  0  0  0  0
  1 25  1  0  0  0
  1 30  2  0  0  0
  1 78  1  0  0  0
  2  3  1  0  0  0
  2 25  1  0  0  0
  2 86  1  0  0  0
  2 87  1  0  0  0
  3  4  1  0  0  0
  3 88  1  0  0  0
  3 89  1  0  0  0
  4  5  1  0  0  0
  4 90  1  0  0  0
  4 91  1  0  0  0
  5  6  1  0  0  0
  5 26  1  0  0  0
  5 92  1  0  0  0
  6 25  1  0  0  0
  6 93  1  0  0  0
  6 94  1  0  0  0
  7  8  2  0  0  0
  7 26  1  0  0  0
  7 29  1  0  0  0
  8  9  1  0  0  0
  8 22  1  0  0  0
  9 10  1  0  0  0
  9 27  2  0  0  0
 10 11  2  0  0  0
 10 15  1  0  0  0
 11 12  1  0  0  0
 11 95  1  0  0  0
 12 13  2  0  0  0
 12 96  1  0  0  0
 13 14  1  0  0  0
 13 31  1  0  0  0
 14 15  2  0  0  0
 14 97  1  0  0  0
 15 98  1  0  0  0
 16 17  2  0  0  0
 16 21  1  0  0  0
 16 31  1  0  0  0
 17 18  1  0  0  0
 17 99  1  0  0  0
 18 19  2  0  0  0
 18100  1  0  0  0
 19 20  1  0  0  0
 19 24  1  0  0  0
 20 21  2  0  0  0
 20101  1  0  0  0
 21 23  1  0  0  0
 22 28  1  0  0  0
 22 32  2  0  0  0
 26 27  1  0  0  0
 28102  1  0  0  0
 28103  1  0  0  0
 29104  1  0  0  0
 29105  1  0  0  0
 33 34  1  0  0  0
 33 66  1  0  0  0
 33 70  2  0  0  0
 34 36  1  0  0  0
 34 59  1  0  0  0
 34106  1  0  0  0
 35 44  2  0  0  0
 35 45  1  0  0  0
 35 68  1  0  0  0
 36 56  1  0  0  0
 36107  1  0  0  0
 37 39  1  0  0  0
 37 47  1  0  0  0
 37 66  1  0  0  0
 37108  1  0  0  0
 38 43  2  0  0  0
 38 46  1  0  0  0
 38 47  1  0  0  0
 39 64  1  0  0  0
 39 67  2  0  0  0
 40 52  1  0  0  0
 40 53  2  0  0  0
 40 58  1  0  0  0
 41109  1  0  0  0
 41110  1  0  0  0
 41111  1  0  0  0
 41 48  1  0  0  0
 42 43  1  0  0  0
 42 66  1  0  0  0
 42112  1  0  0  0
 42113  1  0  0  0
 43 44  1  0  0  0
 44114  1  0  0  0
 45 46  2  0  0  0
 45115  1  0  0  0
 46116  1  0  0  0
 47117  1  0  0  0
 47118  1  0  0  0
 48 56  1  0  0  0
 48 65  1  0  0  0
 48119  1  0  0  0
 49 50  1  0  0  0
 49 53  1  0  0  0
 49 64  1  0  0  0
 49120  1  0  0  0
 50 51  1  0  0  0
 50121  1  0  0  0
 50122  1  0  0  0
 51 52  1  0  0  0
 51123  1  0  0  0
 51124  1  0  0  0
 52125  1  0  0  0
 52126  1  0  0  0
 53 54  1  0  0  0
 54 55  2  0  0  0
 54127  1  0  0  0
 55 57  1  0  0  0
 55128  1  0  0  0
 56 69  2  0  0  0
 57 58  2  0  0  0
 57129  1  0  0  0
 58130  1  0  0  0
 59 60  1  0  0  0
 59 61  1  0  0  0
 59 62  1  0  0  0
 60131  1  0  0  0
 60132  1  0  0  0
 60133  1  0  0  0
 61134  1  0  0  0
 61135  1  0  0  0
 61136  1  0  0  0
 62137  1  0  0  0
 62138  1  0  0  0
 62139  1  0  0  0
 63 65  1  0  0  0
 63140  1  0  0  0
 63141  1  0  0  0
 63142  1  0  0  0
 64143  1  0  0  0
 65144  1  0  0  0
 68 82  1  0  0  0
 71 73  2  0  0  0
 71 84  1  0  0  0
 71145  1  0  0  0
 72 73  1  0  0  0
 72 85  2  0  0  0
 72146  1  0  0  0
 73 83  1  0  0  0
 74 77  1  0  0  0
 74 84  2  0  0  0
 74 85  1  0  0  0
 75147  1  0  0  0
 75148  1  0  0  0
 75149  1  0  0  0
 75 83  1  0  0  0
 76 83  1  0  0  0
 76150  1  0  0  0
 76151  1  0  0  0
 76152  1  0  0  0
 77 79  1  0  0  0
 77153  1  0  0  0
 77154  1  0  0  0
 78 83  1  0  0  0
 78155  1  0  0  0
 78156  1  0  0  0
 79 80  1  0  0  0
 79157  1  0  0  0
 79158  1  0  0  0
 80 81  1  0  0  0
 80159  1  0  0  0
 80160  1  0  0  0
 81 82  1  0  0  0
 81161  1  0  0  0
 81162  1  0  0  0
 82163  1  0  0  0
 82164  1  0  0  0
M  ISO  4   1 100  68 101  78 100  82 101
M  END
> <chiral flag>
0

> <version>
0

> <s_m_source_file>
/data/baiqing/PycharmProjects/Reinvent-master-3.2/result/LINK_invent/BTK/process_docking_weight1_custom_sum_contain_oxygen_bond_distance_aromatic_linkinvent_7_9_3/rearranged_h_0074.sdf

> <i_m_source_file_index>
41

> <r_mmod_Potential_Energy-OPLS-2005>
-283.943023681641

> <r_mmod_Stretch_Energy-OPLS-2005>
37.0429573059082

> <r_mmod_Bend_Energy-OPLS-2005>
110.070381164551

> <r_mmod_Torsional_Energy-OPLS-2005>
194.18440246582

> <r_mmod_Improper_Torsional_Energy-OPLS-2005>
1.84360253810883

> <r_mmod_Van_der_Waal_Energy-OPLS-2005>
170.48876953125

> <r_mmod_Electrostatic_Energy-OPLS-2005>
-602.532653808594

> <r_mmod_Solvation_Energy-OPLS-2005>
-202.855331420898

> <b_mmod_Minimization_Converged-OPLS-2005>
0

> <r_mmod_RMS_Derivative-OPLS-2005>
0.265966087579727

$$$$
41
                    3D
 Structure written by MMmdl.
165173  0  0  1  0            999 V2000
  -30.6254  -14.7350   20.5317 C   0  0  0  0  0  0
  -30.4370  -12.4656   19.4736 C   0  0  0  0  0  0
  -29.5121  -12.5347   18.2357 C   0  0  0  0  0  0
  -28.0332  -12.3553   18.6345 C   0  0  0  0  0  0
  -27.6470  -13.2227   19.8603 C   0  0  2  0  0  0
  -28.6917  -13.0687   20.9841 C   0  0  0  0  0  0
  -25.2491  -13.8158   20.5639 C   0  0  0  0  0  0
  -24.1793  -13.0414   20.9185 C   0  0  0  0  0  0
  -24.6390  -11.6895   20.8747 C   0  0  0  0  0  0
  -23.9070  -10.4278   21.0410 C   0  0  0  0  0  0
  -24.3621   -9.4192   21.9184 C   0  0  0  0  0  0
  -23.6293   -8.2230   22.0753 C   0  0  0  0  0  0
  -22.4276   -8.0274   21.3545 C   0  0  0  0  0  0
  -21.9913   -9.0246   20.4645 C   0  0  0  0  0  0
  -22.7246  -10.2120   20.3055 C   0  0  0  0  0  0
  -21.6852   -6.0734   22.5281 C   0  0  0  0  0  0
  -21.4015   -6.5639   23.8214 C   0  0  0  0  0  0
  -21.3658   -5.6790   24.9176 C   0  0  0  0  0  0
  -21.6043   -4.3054   24.7230 C   0  0  0  0  0  0
  -21.8822   -3.8146   23.4350 C   0  0  0  0  0  0
  -21.9193   -4.6961   22.3404 C   0  0  0  0  0  0
  -22.7814  -13.5199   21.1852 C   0  0  0  0  0  0
  -22.1669   -4.2146   21.0982 F   0  0  0  0  0  0
  -21.5627   -3.4539   25.7745 F   0  0  0  0  0  0
  -29.9900  -13.5028   20.4444 N   0  0  0  0  0  0
  -26.2944  -12.9365   20.3291 N   0  0  0  0  0  0
  -25.9318  -11.6513   20.5750 N   0  0  0  0  0  0
  -22.0473  -12.8193   22.0422 N   0  0  0  0  0  0
  -25.4094  -15.1876   20.3990 N   0  0  0  0  0  0
  -31.7726  -14.7957   20.0756 O   0  0  0  0  0  0
  -21.6636   -6.8875   21.4242 O   0  0  0  0  0  0
  -22.3488  -14.5501   20.6700 O   0  0  0  0  0  0
  -24.6280  -31.8567   23.1982 C   0  0  0  0  0  0
  -25.9114  -32.4764   23.8328 C   0  0  1  0  0  0
  -27.2267  -27.2896   20.1349 C   0  0  0  0  0  0
  -25.5919  -33.8566   24.2259 N   0  0  0  0  0  0
  -23.4241  -30.4763   21.5416 C   0  0  2  0  0  0
  -24.8728  -28.9180   20.1179 C   0  0  0  0  0  0
  -22.7483  -29.4605   22.4934 C   0  0  0  0  0  0
  -18.0287  -28.1385   22.8487 C   0  0  0  0  0  0
  -24.1491  -36.7286   23.2641 C   0  0  0  0  0  0
  -25.9662  -30.7790   21.3719 C   0  0  0  0  0  0
  -26.0425  -29.4008   20.7197 C   0  0  0  0  0  0
  -27.2261  -28.6004   20.7115 C   0  0  0  0  0  0
  -26.0357  -26.8550   19.5203 C   0  0  0  0  0  0
  -24.8718  -27.6514   19.5089 C   0  0  0  0  0  0
  -23.6420  -29.8029   20.1603 C   0  0  0  0  0  0
  -25.4118  -36.3076   24.0327 C   0  0  1  0  0  0
  -20.5887  -28.3692   23.1283 C   0  0  2  0  0  0
  -20.6776  -26.9413   22.5413 C   0  0  0  0  0  0
  -19.5754  -26.6384   21.5214 C   0  0  0  0  0  0
  -18.1932  -26.7928   22.1623 C   0  0  0  0  0  0
  -19.1539  -28.8855   23.2879 C   0  0  0  0  0  0
  -18.9461  -30.1457   23.8896 C   0  0  0  0  0  0
  -17.6461  -30.6587   24.0562 C   0  0  0  0  0  0
  -25.9054  -34.9446   23.5097 C   0  0  0  0  0  0
  -16.5352  -29.9084   23.6330 C   0  0  0  0  0  0
  -16.7274  -28.6501   23.0353 C   0  0  0  0  0  0
  -26.4492  -31.6583   25.0709 C   0  0  0  0  0  0
  -25.3721  -31.3721   26.1432 C   0  0  0  0  0  0
  -27.0337  -30.3006   24.6172 C   0  0  0  0  0  0
  -27.6048  -32.4324   25.7480 C   0  0  0  0  0  0
  -27.5582  -37.1799   24.8466 C   0  0  0  0  0  0
  -21.4194  -29.3039   22.3675 N   0  0  0  0  0  0
  -26.4296  -37.3773   23.9407 N   0  0  0  0  0  0
  -24.6917  -31.0550   22.0944 N   0  0  0  0  0  0
  -23.4192  -28.8156   23.3035 O   0  0  0  0  0  0
  -28.3422  -26.4362   20.1112 O   0  0  0  0  0  0
  -26.5630  -34.8918   22.4668 O   0  0  0  0  0  0
  -23.5436  -32.1377   23.7294 O   0  0  0  0  0  0
  -28.9315  -20.9467   20.6006 C   0  0  0  0  0  0
  -29.2909  -18.7894   20.3509 C   0  0  0  0  0  0
  -31.7727  -20.5154   18.8375 C   0  0  0  0  0  0
  -29.2869  -16.8947   18.6822 C   0  0  0  0  0  0
  -28.7256  -16.0643   21.8793 C   0  0  0  0  0  0
  -31.0836  -16.6458   22.1256 C   0  0  0  0  0  0
  -29.0985  -22.4780   20.9432 C   0  0  0  0  0  0
  -28.5490  -23.6960   20.0368 C   0  0  0  0  0  0
  -31.3663  -20.2543   20.2927 C   0  0  0  0  0  0
  -28.2605  -25.1041   20.7779 C   0  0  0  0  0  0
  -29.9366  -17.3794   19.9949 C   0  0  2  0  0  0
  -30.0419  -16.1626   21.0837 C   0  0  0  0  0  0
  -27.7410  -20.3346   20.6569 N   0  0  0  0  0  0
  -27.9683  -18.9691   20.5032 N   0  0  0  0  0  0
  -29.9362  -20.0122   20.4094 N   0  0  0  0  0  0
  -31.4751  -12.5902   19.1628 H   0  0  0  0  0  0
  -30.3987  -11.4732   19.9254 H   0  0  0  0  0  0
  -29.7989  -11.7740   17.5086 H   0  0  0  0  0  0
  -29.6416  -13.4969   17.7383 H   0  0  0  0  0  0
  -27.8778  -11.3009   18.8654 H   0  0  0  0  0  0
  -27.3820  -12.5811   17.7895 H   0  0  0  0  0  0
  -27.6633  -14.2573   19.5199 H   0  0  0  0  0  0
  -28.7446  -12.0230   21.2905 H   0  0  0  0  0  0
  -28.3949  -13.5750   21.8925 H   0  0  0  0  0  0
  -25.2766   -9.5664   22.4757 H   0  0  0  0  0  0
  -23.9996   -7.4619   22.7472 H   0  0  0  0  0  0
  -21.0843   -8.8767   19.8952 H   0  0  0  0  0  0
  -22.3709  -10.9658   19.6164 H   0  0  0  0  0  0
  -21.2018   -7.6148   23.9722 H   0  0  0  0  0  0
  -21.1476   -6.0522   25.9080 H   0  0  0  0  0  0
  -22.0605   -2.7608   23.2851 H   0  0  0  0  0  0
  -22.4106  -11.9862   22.4815 H   0  0  0  0  0  0
  -21.1091  -13.1206   22.2638 H   0  0  0  0  0  0
  -24.6396  -15.8366   20.5197 H   0  0  0  0  0  0
  -26.2612  -15.6383   20.0921 H   0  0  0  0  0  0
  -26.7180  -32.5427   23.1074 H   0  0  0  0  0  0
  -25.0062  -33.9706   25.0400 H   0  0  0  0  0  0
  -22.7192  -31.2969   21.3929 H   0  0  0  0  0  0
  -23.3756  -35.9616   23.3305 H   0  0  0  0  0  0
  -24.3579  -36.8906   22.2055 H   0  0  0  0  0  0
  -23.7242  -37.6486   23.6664 H   0  0  0  0  0  0
  -26.0979  -31.5387   20.6002 H   0  0  0  0  0  0
  -26.8461  -30.8324   22.0014 H   0  0  0  0  0  0
  -28.1292  -28.9704   21.1762 H   0  0  0  0  0  0
  -26.0051  -25.8816   19.0508 H   0  0  0  0  0  0
  -23.9746  -27.2747   19.0373 H   0  0  0  0  0  0
  -23.7647  -30.5753   19.4002 H   0  0  0  0  0  0
  -22.7613  -29.2329   19.8588 H   0  0  0  0  0  0
  -25.1302  -36.1926   25.0821 H   0  0  0  0  0  0
  -20.9977  -28.3268   24.1405 H   0  0  0  0  0  0
  -20.5679  -26.2300   23.3614 H   0  0  0  0  0  0
  -21.6646  -26.7442   22.1207 H   0  0  0  0  0  0
  -19.6917  -25.6294   21.1247 H   0  0  0  0  0  0
  -19.6693  -27.3192   20.6743 H   0  0  0  0  0  0
  -17.4203  -26.6677   21.4023 H   0  0  0  0  0  0
  -18.0330  -26.0069   22.9018 H   0  0  0  0  0  0
  -19.7936  -30.7273   24.2266 H   0  0  0  0  0  0
  -17.5013  -31.6267   24.5163 H   0  0  0  0  0  0
  -15.5352  -30.2986   23.7652 H   0  0  0  0  0  0
  -15.8674  -28.0818   22.7072 H   0  0  0  0  0  0
  -24.5900  -30.7067   25.7755 H   0  0  0  0  0  0
  -24.8906  -32.2885   26.4854 H   0  0  0  0  0  0
  -25.8042  -30.8898   27.0209 H   0  0  0  0  0  0
  -26.2911  -29.6754   24.1202 H   0  0  0  0  0  0
  -27.4038  -29.7266   25.4676 H   0  0  0  0  0  0
  -27.8778  -30.4290   23.9392 H   0  0  0  0  0  0
  -27.2656  -33.3626   26.2050 H   0  0  0  0  0  0
  -28.3859  -32.6882   25.0309 H   0  0  0  0  0  0
  -28.0716  -31.8456   26.5401 H   0  0  0  0  0  0
  -28.2602  -38.0094   24.7511 H   0  0  0  0  0  0
  -28.1076  -36.2624   24.6299 H   0  0  0  0  0  0
  -27.2297  -37.1455   25.8869 H   0  0  0  0  0  0
  -20.9381  -29.8746   21.6867 H   0  0  0  0  0  0
  -26.0176  -38.2848   24.1404 H   0  0  0  0  0  0
  -32.8461  -20.6910   18.7596 H   0  0  0  0  0  0
  -31.2631  -21.3911   18.4340 H   0  0  0  0  0  0
  -31.5304  -19.6647   18.1998 H   0  0  0  0  0  0
  -29.3269  -17.6760   17.9221 H   0  0  0  0  0  0
  -28.2379  -16.6398   18.8319 H   0  0  0  0  0  0
  -29.7882  -16.0237   18.2630 H   0  0  0  0  0  0
  -28.4367  -17.0289   22.2943 H   0  0  0  0  0  0
  -28.8219  -15.4119   22.7465 H   0  0  0  0  0  0
  -27.8964  -15.7351   21.2614 H   0  0  0  0  0  0
  -30.7727  -17.5738   22.6069 H   0  0  0  0  0  0
  -32.0575  -16.8373   21.6729 H   0  0  0  0  0  0
  -31.2363  -15.9090   22.9156 H   0  0  0  0  0  0
  -30.1498  -22.6745   21.1423 H   0  0  0  0  0  0
  -28.6258  -22.5941   21.9188 H   0  0  0  0  0  0
  -27.6203  -23.3825   19.5594 H   0  0  0  0  0  0
  -29.2552  -23.8538   19.2219 H   0  0  0  0  0  0
  -31.6478  -21.0957   20.9242 H   0  0  0  0  0  0
  -31.9078  -19.3962   20.6915 H   0  0  0  0  0  0
  -28.9895  -25.1766   21.5854 H   0  0  0  0  0  0
  -27.3031  -25.0209   21.2948 H   0  0  0  0  0  0
  -30.9652  -17.5916   19.7060 H   0  0  0  0  0  0
  1 25  1  0  0  0
  1 30  2  0  0  0
  1 82  1  0  0  0
  2  3  1  0  0  0
  2 25  1  0  0  0
  2 86  1  0  0  0
  2 87  1  0  0  0
  3  4  1  0  0  0
  3 88  1  0  0  0
  3 89  1  0  0  0
  4  5  1  0  0  0
  4 90  1  0  0  0
  4 91  1  0  0  0
  5  6  1  0  0  0
  5 26  1  0  0  0
  5 92  1  0  0  0
  6 25  1  0  0  0
  6 93  1  0  0  0
  6 94  1  0  0  0
  7  8  2  0  0  0
  7 26  1  0  0  0
  7 29  1  0  0  0
  8  9  1  0  0  0
  8 22  1  0  0  0
  9 10  1  0  0  0
  9 27  2  0  0  0
 10 11  2  0  0  0
 10 15  1  0  0  0
 11 12  1  0  0  0
 11 95  1  0  0  0
 12 13  2  0  0  0
 12 96  1  0  0  0
 13 14  1  0  0  0
 13 31  1  0  0  0
 14 15  2  0  0  0
 14 97  1  0  0  0
 15 98  1  0  0  0
 16 17  2  0  0  0
 16 21  1  0  0  0
 16 31  1  0  0  0
 17 18  1  0  0  0
 17 99  1  0  0  0
 18 19  2  0  0  0
 18100  1  0  0  0
 19 20  1  0  0  0
 19 24  1  0  0  0
 20 21  2  0  0  0
 20101  1  0  0  0
 21 23  1  0  0  0
 22 28  1  0  0  0
 22 32  2  0  0  0
 26 27  1  0  0  0
 28102  1  0  0  0
 28103  1  0  0  0
 29104  1  0  0  0
 29105  1  0  0  0
 33 34  1  0  0  0
 33 66  1  0  0  0
 33 70  2  0  0  0
 34 36  1  0  0  0
 34 59  1  0  0  0
 34106  1  0  0  0
 35 44  2  0  0  0
 35 45  1  0  0  0
 35 68  1  0  0  0
 36 56  1  0  0  0
 36107  1  0  0  0
 37 39  1  0  0  0
 37 47  1  0  0  0
 37 66  1  0  0  0
 37108  1  0  0  0
 38 43  2  0  0  0
 38 46  1  0  0  0
 38 47  1  0  0  0
 39 64  1  0  0  0
 39 67  2  0  0  0
 40 52  1  0  0  0
 40 53  2  0  0  0
 40 58  1  0  0  0
 41109  1  0  0  0
 41110  1  0  0  0
 41111  1  0  0  0
 41 48  1  0  0  0
 42 43  1  0  0  0
 42 66  1  0  0  0
 42112  1  0  0  0
 42113  1  0  0  0
 43 44  1  0  0  0
 44114  1  0  0  0
 45 46  2  0  0  0
 45115  1  0  0  0
 46116  1  0  0  0
 47117  1  0  0  0
 47118  1  0  0  0
 48 56  1  0  0  0
 48 65  1  0  0  0
 48119  1  0  0  0
 49 50  1  0  0  0
 49 53  1  0  0  0
 49 64  1  0  0  0
 49120  1  0  0  0
 50 51  1  0  0  0
 50121  1  0  0  0
 50122  1  0  0  0
 51 52  1  0  0  0
 51123  1  0  0  0
 51124  1  0  0  0
 52125  1  0  0  0
 52126  1  0  0  0
 53 54  1  0  0  0
 54 55  2  0  0  0
 54127  1  0  0  0
 55 57  1  0  0  0
 55128  1  0  0  0
 56 69  2  0  0  0
 57 58  2  0  0  0
 57129  1  0  0  0
 58130  1  0  0  0
 59 60  1  0  0  0
 59 61  1  0  0  0
 59 62  1  0  0  0
 60131  1  0  0  0
 60132  1  0  0  0
 60133  1  0  0  0
 61134  1  0  0  0
 61135  1  0  0  0
 61136  1  0  0  0
 62137  1  0  0  0
 62138  1  0  0  0
 62139  1  0  0  0
 63 65  1  0  0  0
 63140  1  0  0  0
 63141  1  0  0  0
 63142  1  0  0  0
 64143  1  0  0  0
 65144  1  0  0  0
 68 80  1  0  0  0
 71 77  1  0  0  0
 71 83  2  0  0  0
 71 85  1  0  0  0
 72 81  1  0  0  0
 72 84  2  0  0  0
 72 85  1  0  0  0
 73 79  1  0  0  0
 73145  1  0  0  0
 73146  1  0  0  0
 73147  1  0  0  0
 74148  1  0  0  0
 74149  1  0  0  0
 74150  1  0  0  0
 74 81  1  0  0  0
 75151  1  0  0  0
 75152  1  0  0  0
 75153  1  0  0  0
 75 82  1  0  0  0
 76 82  1  0  0  0
 76154  1  0  0  0
 76155  1  0  0  0
 76156  1  0  0  0
 77 78  1  0  0  0
 77157  1  0  0  0
 77158  1  0  0  0
 78 80  1  0  0  0
 78159  1  0  0  0
 78160  1  0  0  0
 79 85  1  0  0  0
 79161  1  0  0  0
 79162  1  0  0  0
 80163  1  0  0  0
 80164  1  0  0  0
 81 82  1  0  0  0
 81165  1  0  0  0
 83 84  1  0  0  0
M  ISO  4   1 100  68 101  80 101  82 100
M  END
> <chiral flag>
0

> <version>
0

> <s_m_source_file>
/data/baiqing/PycharmProjects/Reinvent-master-3.2/result/LINK_invent/BTK/process_docking_weight1_custom_sum_contain_oxygen_bond_distance_aromatic_linkinvent_7_9_3/rearranged_h_0074.sdf

> <i_m_source_file_index>
42

> <r_mmod_Potential_Energy-OPLS-2005>
209.741333007812

> <r_mmod_Stretch_Energy-OPLS-2005>
131.34831237793

> <r_mmod_Bend_Energy-OPLS-2005>
212.671829223633

> <r_mmod_Torsional_Energy-OPLS-2005>
219.459091186523

> <r_mmod_Improper_Torsional_Energy-OPLS-2005>
3.43034815788269

> <r_mmod_Van_der_Waal_Energy-OPLS-2005>
115.550552368164

> <r_mmod_Electrostatic_Energy-OPLS-2005>
-331.983459472656

> <r_mmod_Solvation_Energy-OPLS-2005>
-205.944290161133

> <b_mmod_Minimization_Converged-OPLS-2005>
0

> <r_mmod_RMS_Derivative-OPLS-2005>
0.564803779125214

$$$$
42
                    3D
 Structure written by MMmdl.
149157  0  0  1  0            999 V2000
  -30.4338  -15.2452   20.3860 C   0  0  0  0  0  0
  -30.4436  -12.7848   19.5482 C   0  0  0  0  0  0
  -29.5460  -12.5883   18.2985 C   0  0  0  0  0  0
  -28.0884  -12.3156   18.7101 C   0  0  0  0  0  0
  -27.6181  -13.2764   19.8311 C   0  0  2  0  0  0
  -28.6464  -13.4134   20.9720 C   0  0  0  0  0  0
  -25.2416  -13.8245   20.5747 C   0  0  0  0  0  0
  -24.1748  -13.0434   20.9215 C   0  0  0  0  0  0
  -24.6400  -11.6932   20.8726 C   0  0  0  0  0  0
  -23.9086  -10.4297   21.0388 C   0  0  0  0  0  0
  -24.3634   -9.4217   21.9170 C   0  0  0  0  0  0
  -23.6309   -8.2249   22.0743 C   0  0  0  0  0  0
  -22.4289   -8.0284   21.3541 C   0  0  0  0  0  0
  -21.9924   -9.0251   20.4642 C   0  0  0  0  0  0
  -22.7249  -10.2134   20.3047 C   0  0  0  0  0  0
  -21.6856   -6.0737   22.5282 C   0  0  0  0  0  0
  -21.4017   -6.5636   23.8218 C   0  0  0  0  0  0
  -21.3668   -5.6783   24.9177 C   0  0  0  0  0  0
  -21.6048   -4.3048   24.7222 C   0  0  0  0  0  0
  -21.8816   -3.8143   23.4340 C   0  0  0  0  0  0
  -21.9196   -4.6967   22.3398 C   0  0  0  0  0  0
  -22.7769  -13.5198   21.1872 C   0  0  0  0  0  0
  -22.1659   -4.2151   21.0976 F   0  0  0  0  0  0
  -21.5635   -3.4529   25.7735 F   0  0  0  0  0  0
  -29.8948  -13.9224   20.3785 N   0  0  0  0  0  0
  -26.2849  -12.9525   20.3226 N   0  0  0  0  0  0
  -25.9349  -11.6625   20.5701 N   0  0  0  0  0  0
  -22.0421  -12.8209   22.0444 N   0  0  0  0  0  0
  -25.4092  -15.1979   20.4265 N   0  0  0  0  0  0
  -31.6298  -15.2550   20.0479 O   0  0  0  0  0  0
  -21.6644   -6.8884   21.4246 O   0  0  0  0  0  0
  -22.3447  -14.5499   20.6715 O   0  0  0  0  0  0
  -24.6613  -31.8240   23.1718 C   0  0  0  0  0  0
  -25.9302  -32.4588   23.8183 C   0  0  1  0  0  0
  -27.2208  -26.9414   20.1789 C   0  0  0  0  0  0
  -25.5980  -33.8405   24.2092 N   0  0  0  0  0  0
  -23.4758  -30.4352   21.5196 C   0  0  2  0  0  0
  -24.9305  -28.8257   20.1082 C   0  0  0  0  0  0
  -22.7657  -29.4439   22.4780 C   0  0  0  0  0  0
  -18.0322  -28.1403   22.8467 C   0  0  0  0  0  0
  -24.1502  -36.7207   23.2642 C   0  0  0  0  0  0
  -26.0433  -30.6337   21.4025 C   0  0  0  0  0  0
  -26.1111  -29.2253   20.7456 C   0  0  0  0  0  0
  -27.2482  -28.3017   20.7602 C   0  0  0  0  0  0
  -26.0162  -26.6955   19.4815 C   0  0  0  0  0  0
  -24.9079  -27.5820   19.4559 C   0  0  0  0  0  0
  -23.7152  -29.7510   20.1451 C   0  0  0  0  0  0
  -25.4143  -36.2969   24.0298 C   0  0  1  0  0  0
  -20.5946  -28.3748   23.1192 C   0  0  2  0  0  0
  -20.6811  -26.9430   22.5405 C   0  0  0  0  0  0
  -19.5784  -26.6371   21.5219 C   0  0  0  0  0  0
  -18.1961  -26.7937   22.1617 C   0  0  0  0  0  0
  -19.1583  -28.8895   23.2818 C   0  0  0  0  0  0
  -18.9489  -30.1489   23.8850 C   0  0  0  0  0  0
  -17.6481  -30.6593   24.0550 C   0  0  0  0  0  0
  -25.9104  -34.9346   23.5013 C   0  0  0  0  0  0
  -16.5372  -29.9078   23.6343 C   0  0  0  0  0  0
  -16.7304  -28.6498   23.0361 C   0  0  0  0  0  0
  -26.4566  -31.6524   25.0699 C   0  0  0  0  0  0
  -25.3703  -31.3771   26.1364 C   0  0  0  0  0  0
  -27.0453  -30.2883   24.6427 C   0  0  0  0  0  0
  -27.6065  -32.4327   25.7498 C   0  0  0  0  0  0
  -27.5581  -37.1759   24.8459 C   0  0  0  0  0  0
  -21.4325  -29.3035   22.3532 N   0  0  0  0  0  0
  -26.4289  -37.3703   23.9404 N   0  0  0  0  0  0
  -24.7476  -30.9917   22.0844 N   0  0  0  0  0  0
  -23.4214  -28.8013   23.3019 O   0  0  0  0  0  0
  -28.2265  -25.8489   20.3000 O   0  0  0  0  0  0
  -26.5705  -34.8872   22.4605 O   0  0  0  0  0  0
  -23.5686  -32.1201   23.6821 O   0  0  0  0  0  0
  -29.8014  -18.1315   20.1058 C   0  0  0  0  0  0
  -29.0880  -19.4161   20.5726 C   0  0  0  0  0  0
  -29.6655  -16.7160   20.6969 C   0  0  0  0  0  0
  -28.2872  -19.0560   21.6883 C   0  0  0  0  0  0
  -27.4166  -20.0783   22.3882 C   0  0  0  0  0  0
  -28.9662  -21.0400   19.9243 C   0  0  0  0  0  0
  -28.7314  -22.7006   20.5951 C   0  0  0  0  0  0
  -28.1183  -24.2513   19.9117 C   0  0  0  0  0  0
  -28.8270  -16.7007   21.7640 N   0  0  0  0  0  0
  -28.1925  -17.7981   22.2209 N   0  0  0  0  0  0
  -31.4699  -12.9720   19.2293 H   0  0  0  0  0  0
  -30.4910  -11.8659   20.1335 H   0  0  0  0  0  0
  -29.9246  -11.7716   17.6824 H   0  0  0  0  0  0
  -29.5889  -13.4849   17.6784 H   0  0  0  0  0  0
  -28.0344  -11.2857   19.0634 H   0  0  0  0  0  0
  -27.4258  -12.3781   17.8461 H   0  0  0  0  0  0
  -27.5450  -14.2551   19.3554 H   0  0  0  0  0  0
  -28.8001  -12.4606   21.4822 H   0  0  0  0  0  0
  -28.2804  -14.1051   21.7304 H   0  0  0  0  0  0
  -25.2777   -9.5700   22.4746 H   0  0  0  0  0  0
  -24.0017   -7.4650   22.7466 H   0  0  0  0  0  0
  -21.0850   -8.8774   19.8955 H   0  0  0  0  0  0
  -22.3699  -10.9670   19.6162 H   0  0  0  0  0  0
  -21.2009   -7.6148   23.9725 H   0  0  0  0  0  0
  -21.1493   -6.0511   25.9082 H   0  0  0  0  0  0
  -22.0592   -2.7606   23.2837 H   0  0  0  0  0  0
  -22.4035  -11.9898   22.4886 H   0  0  0  0  0  0
  -21.1038  -13.1245   22.2627 H   0  0  0  0  0  0
  -24.6548  -15.8560   20.5880 H   0  0  0  0  0  0
  -26.2926  -15.6506   20.2246 H   0  0  0  0  0  0
  -26.7358  -32.5131   23.0892 H   0  0  0  0  0  0
  -25.0103  -33.9501   25.0224 H   0  0  0  0  0  0
  -22.7880  -31.2664   21.3498 H   0  0  0  0  0  0
  -23.3781  -35.9519   23.3259 H   0  0  0  0  0  0
  -24.3583  -36.8898   22.2064 H   0  0  0  0  0  0
  -23.7242  -37.6375   23.6727 H   0  0  0  0  0  0
  -26.2258  -31.3759   20.6246 H   0  0  0  0  0  0
  -26.9027  -30.6890   22.0591 H   0  0  0  0  0  0
  -28.1391  -28.6009   21.2942 H   0  0  0  0  0  0
  -25.8901  -25.7497   18.9767 H   0  0  0  0  0  0
  -24.0116  -27.2747   18.9343 H   0  0  0  0  0  0
  -23.8672  -30.5194   19.3861 H   0  0  0  0  0  0
  -22.8263  -29.2023   19.8296 H   0  0  0  0  0  0
  -25.1343  -36.1767   25.0789 H   0  0  0  0  0  0
  -21.0039  -28.3358   24.1314 H   0  0  0  0  0  0
  -20.5711  -26.2357   23.3643 H   0  0  0  0  0  0
  -21.6670  -26.7420   22.1197 H   0  0  0  0  0  0
  -19.6945  -25.6269   21.1282 H   0  0  0  0  0  0
  -19.6730  -27.3154   20.6729 H   0  0  0  0  0  0
  -17.4237  -26.6680   21.4015 H   0  0  0  0  0  0
  -18.0347  -26.0091   22.9022 H   0  0  0  0  0  0
  -19.7964  -30.7321   24.2195 H   0  0  0  0  0  0
  -17.5029  -31.6271   24.5155 H   0  0  0  0  0  0
  -15.5372  -30.2959   23.7699 H   0  0  0  0  0  0
  -15.8703  -28.0800   22.7106 H   0  0  0  0  0  0
  -24.5864  -30.7160   25.7655 H   0  0  0  0  0  0
  -24.8931  -32.2976   26.4728 H   0  0  0  0  0  0
  -25.7933  -30.8947   27.0184 H   0  0  0  0  0  0
  -26.3104  -29.6560   24.1432 H   0  0  0  0  0  0
  -27.3973  -29.7254   25.5084 H   0  0  0  0  0  0
  -27.9061  -30.4055   23.9843 H   0  0  0  0  0  0
  -27.2634  -33.3656   26.1985 H   0  0  0  0  0  0
  -28.3923  -32.6845   25.0363 H   0  0  0  0  0  0
  -28.0685  -31.8518   26.5492 H   0  0  0  0  0  0
  -28.2563  -38.0089   24.7528 H   0  0  0  0  0  0
  -28.1116  -36.2615   24.6265 H   0  0  0  0  0  0
  -27.2296  -37.1364   25.8860 H   0  0  0  0  0  0
  -20.9580  -29.8692   21.6633 H   0  0  0  0  0  0
  -26.0138  -38.2758   24.1422 H   0  0  0  0  0  0
  -30.4582  -18.2165   19.2524 H   0  0  0  0  0  0
  -28.0344  -20.7506   22.9832 H   0  0  0  0  0  0
  -26.6998  -19.6016   23.0578 H   0  0  0  0  0  0
  -26.8443  -20.6610   21.6677 H   0  0  0  0  0  0
  -28.1334  -20.9306   19.2295 H   0  0  0  0  0  0
  -29.8318  -21.1239   19.2664 H   0  0  0  0  0  0
  -29.7023  -22.9515   21.0218 H   0  0  0  0  0  0
  -28.1019  -22.5704   21.4717 H   0  0  0  0  0  0
  -27.0506  -24.0704   19.7971 H   0  0  0  0  0  0
  -28.4894  -24.2462   18.8861 H   0  0  0  0  0  0
  1 25  1  0  0  0
  1 30  2  0  0  0
  1 73  1  0  0  0
  2  3  1  0  0  0
  2 25  1  0  0  0
  2 81  1  0  0  0
  2 82  1  0  0  0
  3  4  1  0  0  0
  3 83  1  0  0  0
  3 84  1  0  0  0
  4  5  1  0  0  0
  4 85  1  0  0  0
  4 86  1  0  0  0
  5  6  1  0  0  0
  5 26  1  0  0  0
  5 87  1  0  0  0
  6 25  1  0  0  0
  6 88  1  0  0  0
  6 89  1  0  0  0
  7  8  2  0  0  0
  7 26  1  0  0  0
  7 29  1  0  0  0
  8  9  1  0  0  0
  8 22  1  0  0  0
  9 10  1  0  0  0
  9 27  2  0  0  0
 10 11  2  0  0  0
 10 15  1  0  0  0
 11 12  1  0  0  0
 11 90  1  0  0  0
 12 13  2  0  0  0
 12 91  1  0  0  0
 13 14  1  0  0  0
 13 31  1  0  0  0
 14 15  2  0  0  0
 14 92  1  0  0  0
 15 93  1  0  0  0
 16 17  2  0  0  0
 16 21  1  0  0  0
 16 31  1  0  0  0
 17 18  1  0  0  0
 17 94  1  0  0  0
 18 19  2  0  0  0
 18 95  1  0  0  0
 19 20  1  0  0  0
 19 24  1  0  0  0
 20 21  2  0  0  0
 20 96  1  0  0  0
 21 23  1  0  0  0
 22 28  1  0  0  0
 22 32  2  0  0  0
 26 27  1  0  0  0
 28 97  1  0  0  0
 28 98  1  0  0  0
 29 99  1  0  0  0
 29100  1  0  0  0
 33 34  1  0  0  0
 33 66  1  0  0  0
 33 70  2  0  0  0
 34 36  1  0  0  0
 34 59  1  0  0  0
 34101  1  0  0  0
 35 44  2  0  0  0
 35 45  1  0  0  0
 35 68  1  0  0  0
 36 56  1  0  0  0
 36102  1  0  0  0
 37 39  1  0  0  0
 37 47  1  0  0  0
 37 66  1  0  0  0
 37103  1  0  0  0
 38 43  2  0  0  0
 38 46  1  0  0  0
 38 47  1  0  0  0
 39 64  1  0  0  0
 39 67  2  0  0  0
 40 52  1  0  0  0
 40 53  2  0  0  0
 40 58  1  0  0  0
 41104  1  0  0  0
 41105  1  0  0  0
 41106  1  0  0  0
 41 48  1  0  0  0
 42 43  1  0  0  0
 42 66  1  0  0  0
 42107  1  0  0  0
 42108  1  0  0  0
 43 44  1  0  0  0
 44109  1  0  0  0
 45 46  2  0  0  0
 45110  1  0  0  0
 46111  1  0  0  0
 47112  1  0  0  0
 47113  1  0  0  0
 48 56  1  0  0  0
 48 65  1  0  0  0
 48114  1  0  0  0
 49 50  1  0  0  0
 49 53  1  0  0  0
 49 64  1  0  0  0
 49115  1  0  0  0
 50 51  1  0  0  0
 50116  1  0  0  0
 50117  1  0  0  0
 51 52  1  0  0  0
 51118  1  0  0  0
 51119  1  0  0  0
 52120  1  0  0  0
 52121  1  0  0  0
 53 54  1  0  0  0
 54 55  2  0  0  0
 54122  1  0  0  0
 55 57  1  0  0  0
 55123  1  0  0  0
 56 69  2  0  0  0
 57 58  2  0  0  0
 57124  1  0  0  0
 58125  1  0  0  0
 59 60  1  0  0  0
 59 61  1  0  0  0
 59 62  1  0  0  0
 60126  1  0  0  0
 60127  1  0  0  0
 60128  1  0  0  0
 61129  1  0  0  0
 61130  1  0  0  0
 61131  1  0  0  0
 62132  1  0  0  0
 62133  1  0  0  0
 62134  1  0  0  0
 63 65  1  0  0  0
 63135  1  0  0  0
 63136  1  0  0  0
 63137  1  0  0  0
 64138  1  0  0  0
 65139  1  0  0  0
 68 78  1  0  0  0
 71 72  2  0  0  0
 71 73  1  0  0  0
 71140  1  0  0  0
 72 74  1  0  0  0
 72 76  1  0  0  0
 73 79  2  0  0  0
 74 75  1  0  0  0
 74 80  2  0  0  0
 75141  1  0  0  0
 75142  1  0  0  0
 75143  1  0  0  0
 76 77  1  0  0  0
 76144  1  0  0  0
 76145  1  0  0  0
 77 78  1  0  0  0
 77146  1  0  0  0
 77147  1  0  0  0
 78148  1  0  0  0
 78149  1  0  0  0
 79 80  1  0  0  0
M  ISO  4   1 100  68 101  73 100  78 101
M  END
> <chiral flag>
0

> <version>
0

> <s_m_source_file>
/data/baiqing/PycharmProjects/Reinvent-master-3.2/result/LINK_invent/BTK/process_docking_weight1_custom_sum_contain_oxygen_bond_distance_aromatic_linkinvent_7_9_3/rearranged_h_0074.sdf

> <i_m_source_file_index>
43

> <r_mmod_Potential_Energy-OPLS-2005>
1351.68786621094

> <r_mmod_Stretch_Energy-OPLS-2005>
582.529907226562

> <r_mmod_Bend_Energy-OPLS-2005>
424.266998291016

> <r_mmod_Torsional_Energy-OPLS-2005>
199.863464355469

> <r_mmod_Improper_Torsional_Energy-OPLS-2005>
2.93227863311768

> <r_mmod_Van_der_Waal_Energy-OPLS-2005>
126.974319458008

> <r_mmod_Electrostatic_Energy-OPLS-2005>
-211.769119262695

> <r_mmod_Solvation_Energy-OPLS-2005>
-206.249877929688

> <b_mmod_Minimization_Converged-OPLS-2005>
0

> <r_mmod_RMS_Derivative-OPLS-2005>
1.3404620885849

$$$$
43
                    3D
 Structure written by MMmdl.
161169  0  0  1  0            999 V2000
  -30.5540  -14.7935   20.5322 C   0  0  0  0  0  0
  -30.4414  -12.4962   19.4918 C   0  0  0  0  0  0
  -29.5193  -12.5082   18.2489 C   0  0  0  0  0  0
  -28.0477  -12.3122   18.6636 C   0  0  0  0  0  0
  -27.6386  -13.2259   19.8495 C   0  0  2  0  0  0
  -28.6716  -13.1594   20.9932 C   0  0  0  0  0  0
  -25.2528  -13.8194   20.5664 C   0  0  0  0  0  0
  -24.1820  -13.0451   20.9226 C   0  0  0  0  0  0
  -24.6393  -11.6920   20.8772 C   0  0  0  0  0  0
  -23.9079  -10.4305   21.0456 C   0  0  0  0  0  0
  -24.3638   -9.4215   21.9211 C   0  0  0  0  0  0
  -23.6320   -8.2246   22.0763 C   0  0  0  0  0  0
  -22.4288   -8.0309   21.3563 C   0  0  0  0  0  0
  -21.9940   -9.0280   20.4647 C   0  0  0  0  0  0
  -22.7278  -10.2152   20.3086 C   0  0  0  0  0  0
  -21.6837   -6.0764   22.5290 C   0  0  0  0  0  0
  -21.3985   -6.5658   23.8235 C   0  0  0  0  0  0
  -21.3647   -5.6797   24.9191 C   0  0  0  0  0  0
  -21.6061   -4.3071   24.7240 C   0  0  0  0  0  0
  -21.8808   -3.8165   23.4358 C   0  0  0  0  0  0
  -21.9193   -4.6987   22.3413 C   0  0  0  0  0  0
  -22.7856  -13.5271   21.1885 C   0  0  0  0  0  0
  -22.1661   -4.2182   21.0997 F   0  0  0  0  0  0
  -21.5637   -3.4543   25.7745 F   0  0  0  0  0  0
  -29.9663  -13.5493   20.4258 N   0  0  0  0  0  0
  -26.2895  -12.9350   20.3228 N   0  0  0  0  0  0
  -25.9304  -11.6505   20.5741 N   0  0  0  0  0  0
  -22.0466  -12.8242   22.0414 N   0  0  0  0  0  0
  -25.4228  -15.1907   20.3992 N   0  0  0  0  0  0
  -31.7394  -14.9252   20.2045 O   0  0  0  0  0  0
  -21.6633   -6.8918   21.4258 O   0  0  0  0  0  0
  -22.3556  -14.5585   20.6754 O   0  0  0  0  0  0
  -24.6312  -31.8546   23.1974 C   0  0  0  0  0  0
  -25.9136  -32.4765   23.8298 C   0  0  1  0  0  0
  -27.2023  -27.2634   20.1258 C   0  0  0  0  0  0
  -25.5996  -33.8552   24.2267 N   0  0  0  0  0  0
  -23.4222  -30.4831   21.5413 C   0  0  2  0  0  0
  -24.8638  -28.9250   20.1085 C   0  0  0  0  0  0
  -22.7435  -29.4626   22.4879 C   0  0  0  0  0  0
  -18.0304  -28.1304   22.8435 C   0  0  0  0  0  0
  -24.1505  -36.7276   23.2606 C   0  0  0  0  0  0
  -25.9683  -30.7732   21.3709 C   0  0  0  0  0  0
  -26.0360  -29.3960   20.7120 C   0  0  0  0  0  0
  -27.2071  -28.5759   20.7069 C   0  0  0  0  0  0
  -26.0025  -26.8532   19.5014 C   0  0  0  0  0  0
  -24.8506  -27.6604   19.4991 C   0  0  0  0  0  0
  -23.6366  -29.8164   20.1579 C   0  0  0  0  0  0
  -25.4134  -36.3077   24.0298 C   0  0  1  0  0  0
  -20.5912  -28.3656   23.1180 C   0  0  2  0  0  0
  -20.6812  -26.9371   22.5337 C   0  0  0  0  0  0
  -19.5804  -26.6332   21.5130 C   0  0  0  0  0  0
  -18.1978  -26.7856   22.1545 C   0  0  0  0  0  0
  -19.1551  -28.8769   23.2830 C   0  0  0  0  0  0
  -18.9481  -30.1383   23.8835 C   0  0  0  0  0  0
  -17.6494  -30.6514   24.0519 C   0  0  0  0  0  0
  -25.9053  -34.9421   23.5063 C   0  0  0  0  0  0
  -16.5369  -29.9024   23.6334 C   0  0  0  0  0  0
  -16.7303  -28.6427   23.0361 C   0  0  0  0  0  0
  -26.4511  -31.6557   25.0646 C   0  0  0  0  0  0
  -25.3742  -31.3684   26.1400 C   0  0  0  0  0  0
  -27.0328  -30.2944   24.6100 C   0  0  0  0  0  0
  -27.6093  -32.4286   25.7385 C   0  0  0  0  0  0
  -27.5597  -37.1799   24.8442 C   0  0  0  0  0  0
  -21.4153  -29.3025   22.3547 N   0  0  0  0  0  0
  -26.4304  -37.3751   23.9359 N   0  0  0  0  0  0
  -24.6922  -31.0535   22.0934 N   0  0  0  0  0  0
  -23.4116  -28.8177   23.2988 O   0  0  0  0  0  0
  -28.3090  -26.3960   20.2300 O   0  0  0  0  0  0
  -26.5588  -34.8866   22.4591 O   0  0  0  0  0  0
  -23.5485  -32.1373   23.7298 O   0  0  0  0  0  0
  -30.4058  -21.9634   22.5943 C   0  0  0  0  0  0
  -29.6772  -22.9317   21.8871 C   0  0  0  0  0  0
  -30.2303  -20.5832   22.3340 C   0  0  0  0  0  0
  -28.7594  -22.5295   20.9141 C   0  0  0  0  0  0
  -29.3437  -20.1593   21.2963 C   0  0  0  0  0  0
  -30.9949  -19.6401   23.2504 C   0  0  0  0  0  0
  -28.3815  -18.4991   19.5872 C   0  0  0  0  0  0
  -27.8387  -18.2456   21.9973 C   0  0  0  0  0  0
  -27.8228  -23.6231   20.2404 C   0  0  0  0  0  0
  -30.1018  -17.3893   21.0753 C   0  0  0  0  0  0
  -28.3654  -25.0243   19.6215 C   0  0  0  0  0  0
  -28.9685  -18.5960   21.0073 C   0  0  0  0  0  0
  -28.6130  -21.1656   20.6510 N   0  0  0  0  0  0
  -29.7513  -15.8959   20.8481 N   0  0  0  0  0  0
  -31.4804  -12.6492   19.1943 H   0  0  0  0  0  0
  -30.4184  -11.5176   19.9774 H   0  0  0  0  0  0
  -29.8154  -11.7169   17.5547 H   0  0  0  0  0  0
  -29.6345  -13.4517   17.7120 H   0  0  0  0  0  0
  -27.9290  -11.2658   18.9548 H   0  0  0  0  0  0
  -27.3856  -12.4687   17.8114 H   0  0  0  0  0  0
  -27.6367  -14.2435   19.4609 H   0  0  0  0  0  0
  -28.7196  -12.1550   21.4159 H   0  0  0  0  0  0
  -28.3889  -13.8188   21.8142 H   0  0  0  0  0  0
  -25.2763   -9.5668   22.4824 H   0  0  0  0  0  0
  -24.0010   -7.4617   22.7459 H   0  0  0  0  0  0
  -21.0896   -8.8841   19.8930 H   0  0  0  0  0  0
  -22.3776  -10.9728   19.6229 H   0  0  0  0  0  0
  -21.1939   -7.6150   23.9758 H   0  0  0  0  0  0
  -21.1480   -6.0516   25.9108 H   0  0  0  0  0  0
  -22.0594   -2.7626   23.2847 H   0  0  0  0  0  0
  -22.4032  -11.9881   22.4779 H   0  0  0  0  0  0
  -21.1105  -13.1302   22.2629 H   0  0  0  0  0  0
  -24.6418  -15.8350   20.4780 H   0  0  0  0  0  0
  -26.2464  -15.6137   19.9894 H   0  0  0  0  0  0
  -26.7173  -32.5374   23.1019 H   0  0  0  0  0  0
  -25.0294  -33.9690   25.0536 H   0  0  0  0  0  0
  -22.7204  -31.3084   21.3960 H   0  0  0  0  0  0
  -23.3750  -35.9630   23.3313 H   0  0  0  0  0  0
  -24.3604  -36.8901   22.2016 H   0  0  0  0  0  0
  -23.7328  -37.6489   23.6645 H   0  0  0  0  0  0
  -26.1109  -31.5420   20.6120 H   0  0  0  0  0  0
  -26.8409  -30.8191   22.0052 H   0  0  0  0  0  0
  -28.1117  -28.9293   21.1826 H   0  0  0  0  0  0
  -25.9151  -25.8786   19.0436 H   0  0  0  0  0  0
  -23.9445  -27.2862   19.0442 H   0  0  0  0  0  0
  -23.7455  -30.5884   19.3961 H   0  0  0  0  0  0
  -22.7503  -29.2480   19.8644 H   0  0  0  0  0  0
  -25.1350  -36.1920   25.0810 H   0  0  0  0  0  0
  -21.0067  -28.3301   24.1283 H   0  0  0  0  0  0
  -20.5691  -26.2262   23.3543 H   0  0  0  0  0  0
  -21.6695  -26.7393   22.1161 H   0  0  0  0  0  0
  -19.6964  -25.6238   21.1193 H   0  0  0  0  0  0
  -19.6781  -27.3075   20.6605 H   0  0  0  0  0  0
  -17.4269  -26.6554   21.3943 H   0  0  0  0  0  0
  -18.0409  -25.9969   22.8886 H   0  0  0  0  0  0
  -19.7966  -30.7187   24.2173 H   0  0  0  0  0  0
  -17.5068  -31.6222   24.5091 H   0  0  0  0  0  0
  -15.5376  -30.2909   23.7688 H   0  0  0  0  0  0
  -15.8696  -28.0743   22.7130 H   0  0  0  0  0  0
  -24.5950  -30.6990   25.7757 H   0  0  0  0  0  0
  -24.8842  -32.2829   26.4728 H   0  0  0  0  0  0
  -25.8109  -30.8953   27.0216 H   0  0  0  0  0  0
  -26.2878  -29.6622   24.1214 H   0  0  0  0  0  0
  -27.4128  -29.7265   25.4602 H   0  0  0  0  0  0
  -27.8741  -30.4153   23.9248 H   0  0  0  0  0  0
  -27.2755  -33.3627   26.1850 H   0  0  0  0  0  0
  -28.3931  -32.6743   25.0226 H   0  0  0  0  0  0
  -28.0675  -31.8439   26.5364 H   0  0  0  0  0  0
  -28.2609  -38.0086   24.7546 H   0  0  0  0  0  0
  -28.1150  -36.2652   24.6308 H   0  0  0  0  0  0
  -27.2303  -37.1478   25.8831 H   0  0  0  0  0  0
  -20.9271  -29.8826   21.6850 H   0  0  0  0  0  0
  -26.0207  -38.2829   24.1403 H   0  0  0  0  0  0
  -31.0769  -22.2976   23.3754 H   0  0  0  0  0  0
  -29.7963  -23.9798   22.1246 H   0  0  0  0  0  0
  -31.4649  -20.1931   24.0642 H   0  0  0  0  0  0
  -31.8015  -19.1509   22.7040 H   0  0  0  0  0  0
  -30.3445  -18.9017   23.7198 H   0  0  0  0  0  0
  -27.5027  -19.1339   19.4591 H   0  0  0  0  0  0
  -28.0685  -17.4810   19.3590 H   0  0  0  0  0  0
  -29.1148  -18.8011   18.8391 H   0  0  0  0  0  0
  -27.0207  -18.9660   21.9215 H   0  0  0  0  0  0
  -28.1911  -18.2760   23.0289 H   0  0  0  0  0  0
  -27.4166  -17.2603   21.8182 H   0  0  0  0  0  0
  -26.9772  -23.8134   20.9034 H   0  0  0  0  0  0
  -27.3805  -23.0822   19.4017 H   0  0  0  0  0  0
  -30.5530  -17.3881   22.0624 H   0  0  0  0  0  0
  -30.9139  -17.6438   20.3943 H   0  0  0  0  0  0
  -27.9008  -25.1202   18.6393 H   0  0  0  0  0  0
  -29.4091  -24.8624   19.3638 H   0  0  0  0  0  0
  -28.7784  -15.6682   20.9786 H   0  0  0  0  0  0
  1 25  1  0  0  0
  1 30  2  0  0  0
  1 84  1  0  0  0
  2  3  1  0  0  0
  2 25  1  0  0  0
  2 85  1  0  0  0
  2 86  1  0  0  0
  3  4  1  0  0  0
  3 87  1  0  0  0
  3 88  1  0  0  0
  4  5  1  0  0  0
  4 89  1  0  0  0
  4 90  1  0  0  0
  5  6  1  0  0  0
  5 26  1  0  0  0
  5 91  1  0  0  0
  6 25  1  0  0  0
  6 92  1  0  0  0
  6 93  1  0  0  0
  7  8  2  0  0  0
  7 26  1  0  0  0
  7 29  1  0  0  0
  8  9  1  0  0  0
  8 22  1  0  0  0
  9 10  1  0  0  0
  9 27  2  0  0  0
 10 11  2  0  0  0
 10 15  1  0  0  0
 11 12  1  0  0  0
 11 94  1  0  0  0
 12 13  2  0  0  0
 12 95  1  0  0  0
 13 14  1  0  0  0
 13 31  1  0  0  0
 14 15  2  0  0  0
 14 96  1  0  0  0
 15 97  1  0  0  0
 16 17  2  0  0  0
 16 21  1  0  0  0
 16 31  1  0  0  0
 17 18  1  0  0  0
 17 98  1  0  0  0
 18 19  2  0  0  0
 18 99  1  0  0  0
 19 20  1  0  0  0
 19 24  1  0  0  0
 20 21  2  0  0  0
 20100  1  0  0  0
 21 23  1  0  0  0
 22 28  1  0  0  0
 22 32  2  0  0  0
 26 27  1  0  0  0
 28101  1  0  0  0
 28102  1  0  0  0
 29103  1  0  0  0
 29104  1  0  0  0
 33 34  1  0  0  0
 33 66  1  0  0  0
 33 70  2  0  0  0
 34 36  1  0  0  0
 34 59  1  0  0  0
 34105  1  0  0  0
 35 44  2  0  0  0
 35 45  1  0  0  0
 35 68  1  0  0  0
 36 56  1  0  0  0
 36106  1  0  0  0
 37 39  1  0  0  0
 37 47  1  0  0  0
 37 66  1  0  0  0
 37107  1  0  0  0
 38 43  2  0  0  0
 38 46  1  0  0  0
 38 47  1  0  0  0
 39 64  1  0  0  0
 39 67  2  0  0  0
 40 52  1  0  0  0
 40 53  2  0  0  0
 40 58  1  0  0  0
 41108  1  0  0  0
 41109  1  0  0  0
 41110  1  0  0  0
 41 48  1  0  0  0
 42 43  1  0  0  0
 42 66  1  0  0  0
 42111  1  0  0  0
 42112  1  0  0  0
 43 44  1  0  0  0
 44113  1  0  0  0
 45 46  2  0  0  0
 45114  1  0  0  0
 46115  1  0  0  0
 47116  1  0  0  0
 47117  1  0  0  0
 48 56  1  0  0  0
 48 65  1  0  0  0
 48118  1  0  0  0
 49 50  1  0  0  0
 49 53  1  0  0  0
 49 64  1  0  0  0
 49119  1  0  0  0
 50 51  1  0  0  0
 50120  1  0  0  0
 50121  1  0  0  0
 51 52  1  0  0  0
 51122  1  0  0  0
 51123  1  0  0  0
 52124  1  0  0  0
 52125  1  0  0  0
 53 54  1  0  0  0
 54 55  2  0  0  0
 54126  1  0  0  0
 55 57  1  0  0  0
 55127  1  0  0  0
 56 69  2  0  0  0
 57 58  2  0  0  0
 57128  1  0  0  0
 58129  1  0  0  0
 59 60  1  0  0  0
 59 61  1  0  0  0
 59 62  1  0  0  0
 60130  1  0  0  0
 60131  1  0  0  0
 60132  1  0  0  0
 61133  1  0  0  0
 61134  1  0  0  0
 61135  1  0  0  0
 62136  1  0  0  0
 62137  1  0  0  0
 62138  1  0  0  0
 63 65  1  0  0  0
 63139  1  0  0  0
 63140  1  0  0  0
 63141  1  0  0  0
 64142  1  0  0  0
 65143  1  0  0  0
 68 81  1  0  0  0
 71 72  2  0  0  0
 71 73  1  0  0  0
 71144  1  0  0  0
 72 74  1  0  0  0
 72145  1  0  0  0
 73 75  2  0  0  0
 73 76  1  0  0  0
 74 79  1  0  0  0
 74 83  2  0  0  0
 75 82  1  0  0  0
 75 83  1  0  0  0
 76146  1  0  0  0
 76147  1  0  0  0
 76148  1  0  0  0
 77149  1  0  0  0
 77150  1  0  0  0
 77151  1  0  0  0
 77 82  1  0  0  0
 78 82  1  0  0  0
 78152  1  0  0  0
 78153  1  0  0  0
 78154  1  0  0  0
 79 81  1  0  0  0
 79155  1  0  0  0
 79156  1  0  0  0
 80 82  1  0  0  0
 80 84  1  0  0  0
 80157  1  0  0  0
 80158  1  0  0  0
 81159  1  0  0  0
 81160  1  0  0  0
 84161  1  0  0  0
M  ISO  4   1 100  68 101  81 101  84 100
M  END
> <chiral flag>
0

> <version>
0

> <s_m_source_file>
/data/baiqing/PycharmProjects/Reinvent-master-3.2/result/LINK_invent/BTK/process_docking_weight1_custom_sum_contain_oxygen_bond_distance_aromatic_linkinvent_7_9_3/rearranged_h_0074.sdf

> <i_m_source_file_index>
44

> <r_mmod_Potential_Energy-OPLS-2005>
48.6557502746582

> <r_mmod_Stretch_Energy-OPLS-2005>
151.192810058594

> <r_mmod_Bend_Energy-OPLS-2005>
215.278823852539

> <r_mmod_Torsional_Energy-OPLS-2005>
210.0791015625

> <r_mmod_Improper_Torsional_Energy-OPLS-2005>
5.34519910812378

> <r_mmod_Van_der_Waal_Energy-OPLS-2005>
139.111526489258

> <r_mmod_Electrostatic_Energy-OPLS-2005>
-553.679565429688

> <r_mmod_Solvation_Energy-OPLS-2005>
-217.516708374023

> <b_mmod_Minimization_Converged-OPLS-2005>
0

> <r_mmod_RMS_Derivative-OPLS-2005>
6.7319221496582

$$$$
44
                    3D
 Structure written by MMmdl.
166174  0  0  1  0            999 V2000
  -30.6408  -14.4348   20.5765 C   0  0  0  0  0  0
  -30.4030  -12.2673   19.4295 C   0  0  0  0  0  0
  -29.4835  -12.4949   18.2109 C   0  0  0  0  0  0
  -28.0060  -12.3486   18.6164 C   0  0  0  0  0  0
  -27.6528  -13.1879   19.8724 C   0  0  2  0  0  0
  -28.6740  -12.9288   20.9996 C   0  0  0  0  0  0
  -25.2529  -13.8126   20.5636 C   0  0  0  0  0  0
  -24.1786  -13.0428   20.9147 C   0  0  0  0  0  0
  -24.6333  -11.6869   20.8722 C   0  0  0  0  0  0
  -23.9025  -10.4265   21.0405 C   0  0  0  0  0  0
  -24.3589   -9.4176   21.9185 C   0  0  0  0  0  0
  -23.6272   -8.2224   22.0763 C   0  0  0  0  0  0
  -22.4254   -8.0264   21.3554 C   0  0  0  0  0  0
  -21.9886   -9.0229   20.4645 C   0  0  0  0  0  0
  -22.7211  -10.2108   20.3052 C   0  0  0  0  0  0
  -21.6843   -6.0703   22.5290 C   0  0  0  0  0  0
  -21.3996   -6.5630   23.8221 C   0  0  0  0  0  0
  -21.3675   -5.6802   24.9191 C   0  0  0  0  0  0
  -21.6051   -4.3064   24.7248 C   0  0  0  0  0  0
  -21.8816   -3.8139   23.4374 C   0  0  0  0  0  0
  -21.9174   -4.6933   22.3422 C   0  0  0  0  0  0
  -22.7839  -13.5204   21.1897 C   0  0  0  0  0  0
  -22.1655   -4.2111   21.0996 F   0  0  0  0  0  0
  -21.5630   -3.4554   25.7759 F   0  0  0  0  0  0
  -30.0143  -13.2340   20.4696 N   0  0  0  0  0  0
  -26.2915  -12.9266   20.3270 N   0  0  0  0  0  0
  -25.9213  -11.6444   20.5705 N   0  0  0  0  0  0
  -22.0511  -12.8184   22.0463 N   0  0  0  0  0  0
  -25.4275  -15.1851   20.4117 N   0  0  0  0  0  0
  -31.7550  -14.6614   20.0905 O   0  0  0  0  0  0
  -21.6648   -6.8837   21.4251 O   0  0  0  0  0  0
  -22.3504  -14.5531   20.6748 O   0  0  0  0  0  0
  -24.6168  -31.8676   23.2109 C   0  0  0  0  0  0
  -25.9084  -32.4815   23.8385 C   0  0  1  0  0  0
  -27.2006  -27.4091   20.0729 C   0  0  0  0  0  0
  -25.5960  -33.8609   24.2336 N   0  0  0  0  0  0
  -23.4025  -30.4939   21.5536 C   0  0  2  0  0  0
  -24.8447  -28.9800   20.0951 C   0  0  0  0  0  0
  -22.7358  -29.4664   22.4949 C   0  0  0  0  0  0
  -18.0167  -28.1379   22.8409 C   0  0  0  0  0  0
  -24.1505  -36.7299   23.2634 C   0  0  0  0  0  0
  -25.9358  -30.8204   21.3728 C   0  0  0  0  0  0
  -26.0100  -29.4619   20.7032 C   0  0  0  0  0  0
  -27.1955  -28.6823   20.6987 C   0  0  0  0  0  0
  -26.0349  -26.9935   19.3875 C   0  0  0  0  0  0
  -24.8533  -27.7458   19.4294 C   0  0  0  0  0  0
  -23.6103  -29.8480   20.1612 C   0  0  0  0  0  0
  -25.4110  -36.3094   24.0344 C   0  0  1  0  0  0
  -20.5746  -28.3715   23.1214 C   0  0  2  0  0  0
  -20.6627  -26.9442   22.5341 C   0  0  0  0  0  0
  -19.5602  -26.6355   21.5149 C   0  0  0  0  0  0
  -18.1803  -26.7913   22.1589 C   0  0  0  0  0  0
  -19.1400  -28.8877   23.2823 C   0  0  0  0  0  0
  -18.9266  -30.1447   23.8903 C   0  0  0  0  0  0
  -17.6250  -30.6511   24.0593 C   0  0  0  0  0  0
  -25.9030  -34.9455   23.5099 C   0  0  0  0  0  0
  -16.5180  -29.8991   23.6269 C   0  0  0  0  0  0
  -16.7136  -28.6457   23.0262 C   0  0  0  0  0  0
  -26.4472  -31.6582   25.0740 C   0  0  0  0  0  0
  -25.3679  -31.3719   26.1452 C   0  0  0  0  0  0
  -27.0178  -30.2993   24.6070 C   0  0  0  0  0  0
  -27.6144  -32.4188   25.7525 C   0  0  0  0  0  0
  -27.5569  -37.1809   24.8479 C   0  0  0  0  0  0
  -21.4070  -29.3080   22.3668 N   0  0  0  0  0  0
  -26.4294  -37.3773   23.9401 N   0  0  0  0  0  0
  -24.6688  -31.0733   22.1059 N   0  0  0  0  0  0
  -23.4109  -28.8183   23.2996 O   0  0  0  0  0  0
  -28.2484  -26.5145   20.2409 O   0  0  0  0  0  0
  -26.5554  -34.8912   22.4644 O   0  0  0  0  0  0
  -23.5357  -32.1469   23.7471 O   0  0  0  0  0  0
  -30.1610  -24.4260   21.3847 C   0  0  0  0  0  0
  -30.9481  -23.3556   21.8315 C   0  0  0  0  0  0
  -28.8705  -24.1220   20.9414 C   0  0  0  0  0  0
  -29.2363  -21.8698   21.4052 C   0  0  0  0  0  0
  -32.3496  -23.5827   22.3563 C   0  0  0  0  0  0
  -26.3427  -24.1432   22.6955 C   0  0  0  0  0  0
  -27.0764  -20.4845   21.5893 C   0  0  0  0  0  0
  -26.9743  -25.3989   22.0684 C   0  0  0  0  0  0
  -30.0050  -16.8127   20.6048 C   0  0  0  0  0  0
  -27.7935  -25.2063   20.7411 C   0  0  1  0  0  0
  -28.6260  -20.4533   21.6171 C   0  0  1  0  0  0
  -29.0614  -17.8383   21.2911 C   0  0  0  0  0  0
  -29.2513  -19.2996   20.7604 C   0  0  0  0  0  0
  -30.4651  -22.0972   21.8765 N   0  0  0  0  0  0
  -28.4576  -22.8280   20.8900 N   0  0  0  0  0  0
  -29.8692  -15.4230   21.0573 N   0  0  0  0  0  0
  -27.8077  -17.4467   21.0678 F   0  0  0  0  0  0
  -29.2767  -17.8086   22.6056 F   0  0  0  0  0  0
  -28.8050  -19.3434   19.5031 F   0  0  0  0  0  0
  -30.5710  -19.4881   20.7282 F   0  0  0  0  0  0
  -31.4508  -12.3566   19.1437 H   0  0  0  0  0  0
  -30.2855  -11.2444   19.7980 H   0  0  0  0  0  0
  -29.7359  -11.7827   17.4225 H   0  0  0  0  0  0
  -29.6497  -13.4880   17.7924 H   0  0  0  0  0  0
  -27.8298  -11.2933   18.8188 H   0  0  0  0  0  0
  -27.3529  -12.6066   17.7848 H   0  0  0  0  0  0
  -27.7150  -14.2380   19.5904 H   0  0  0  0  0  0
  -28.6240  -11.8820   21.3033 H   0  0  0  0  0  0
  -28.4207  -13.4994   21.8942 H   0  0  0  0  0  0
  -25.2720   -9.5671   22.4758 H   0  0  0  0  0  0
  -23.9988   -7.4616   22.7493 H   0  0  0  0  0  0
  -21.0808   -8.8721   19.8959 H   0  0  0  0  0  0
  -22.3645  -10.9637   19.6166 H   0  0  0  0  0  0
  -21.1995   -7.6142   23.9690 H   0  0  0  0  0  0
  -21.1515   -6.0552   25.9087 H   0  0  0  0  0  0
  -22.0574   -2.7597   23.2901 H   0  0  0  0  0  0
  -22.4165  -11.9769   22.4687 H   0  0  0  0  0  0
  -21.1133  -13.1167   22.2798 H   0  0  0  0  0  0
  -24.6601  -15.8339   20.5307 H   0  0  0  0  0  0
  -26.2907  -15.6406   20.1469 H   0  0  0  0  0  0
  -26.7153  -32.5464   23.1121 H   0  0  0  0  0  0
  -25.0242  -33.9768   25.0581 H   0  0  0  0  0  0
  -22.6963  -31.3160   21.4208 H   0  0  0  0  0  0
  -23.3738  -35.9655   23.3293 H   0  0  0  0  0  0
  -24.3642  -36.8894   22.2050 H   0  0  0  0  0  0
  -23.7271  -37.6527   23.6628 H   0  0  0  0  0  0
  -26.0528  -31.5881   20.6074 H   0  0  0  0  0  0
  -26.8253  -30.8626   21.9889 H   0  0  0  0  0  0
  -28.0747  -29.0212   21.2273 H   0  0  0  0  0  0
  -26.0071  -26.0626   18.8436 H   0  0  0  0  0  0
  -23.9640  -27.3827   18.9316 H   0  0  0  0  0  0
  -23.7316  -30.6401   19.4237 H   0  0  0  0  0  0
  -22.7282  -29.2845   19.8459 H   0  0  0  0  0  0
  -25.1267  -36.1931   25.0830 H   0  0  0  0  0  0
  -20.9799  -28.3285   24.1350 H   0  0  0  0  0  0
  -20.5469  -26.2359   23.3555 H   0  0  0  0  0  0
  -21.6488  -26.7452   22.1147 H   0  0  0  0  0  0
  -19.6697  -25.6217   21.1261 H   0  0  0  0  0  0
  -19.6453  -27.3037   20.6561 H   0  0  0  0  0  0
  -17.4049  -26.6586   21.4036 H   0  0  0  0  0  0
  -18.0240  -26.0076   22.9016 H   0  0  0  0  0  0
  -19.7695  -30.7287   24.2345 H   0  0  0  0  0  0
  -17.4697  -31.6155   24.5257 H   0  0  0  0  0  0
  -15.5152  -30.2858   23.7523 H   0  0  0  0  0  0
  -15.8563  -28.0752   22.6923 H   0  0  0  0  0  0
  -24.5606  -30.7475   25.7583 H   0  0  0  0  0  0
  -24.9216  -32.2907   26.5234 H   0  0  0  0  0  0
  -25.7871  -30.8389   27.0000 H   0  0  0  0  0  0
  -26.2584  -29.6783   24.1300 H   0  0  0  0  0  0
  -27.4069  -29.7194   25.4456 H   0  0  0  0  0  0
  -27.8453  -30.4259   23.9067 H   0  0  0  0  0  0
  -27.3092  -33.3807   26.1661 H   0  0  0  0  0  0
  -28.4282  -32.6111   25.0522 H   0  0  0  0  0  0
  -28.0330  -31.8493   26.5829 H   0  0  0  0  0  0
  -28.2598  -38.0094   24.7477 H   0  0  0  0  0  0
  -28.1038  -36.2618   24.6319 H   0  0  0  0  0  0
  -27.2315  -37.1505   25.8902 H   0  0  0  0  0  0
  -20.9240  -29.8913   21.6975 H   0  0  0  0  0  0
  -26.0146  -38.2848   24.1370 H   0  0  0  0  0  0
  -30.5008  -25.4515   21.4420 H   0  0  0  0  0  0
  -33.0497  -23.7276   21.5331 H   0  0  0  0  0  0
  -32.6881  -22.7402   22.9579 H   0  0  0  0  0  0
  -32.3838  -24.4684   22.9906 H   0  0  0  0  0  0
  -25.6472  -24.4167   23.4895 H   0  0  0  0  0  0
  -27.0915  -23.4834   23.1353 H   0  0  0  0  0  0
  -25.7815  -23.5722   21.9564 H   0  0  0  0  0  0
  -26.7031  -21.1553   22.3622 H   0  0  0  0  0  0
  -26.6231  -19.5140   21.7672 H   0  0  0  0  0  0
  -26.6948  -20.8522   20.6343 H   0  0  0  0  0  0
  -27.6142  -25.8732   22.8102 H   0  0  0  0  0  0
  -26.1364  -26.0783   21.9166 H   0  0  0  0  0  0
  -31.0436  -17.1211   20.7166 H   0  0  0  0  0  0
  -29.7993  -16.8247   19.5329 H   0  0  0  0  0  0
  -27.1539  -24.7591   19.9834 H   0  0  0  0  0  0
  -28.8761  -20.2149   22.6523 H   0  0  0  0  0  0
  -29.0011  -15.1634   21.5002 H   0  0  0  0  0  0
  1 25  1  0  0  0
  1 30  2  0  0  0
  1 86  1  0  0  0
  2  3  1  0  0  0
  2 25  1  0  0  0
  2 91  1  0  0  0
  2 92  1  0  0  0
  3  4  1  0  0  0
  3 93  1  0  0  0
  3 94  1  0  0  0
  4  5  1  0  0  0
  4 95  1  0  0  0
  4 96  1  0  0  0
  5  6  1  0  0  0
  5 26  1  0  0  0
  5 97  1  0  0  0
  6 25  1  0  0  0
  6 98  1  0  0  0
  6 99  1  0  0  0
  7  8  2  0  0  0
  7 26  1  0  0  0
  7 29  1  0  0  0
  8  9  1  0  0  0
  8 22  1  0  0  0
  9 10  1  0  0  0
  9 27  2  0  0  0
 10 11  2  0  0  0
 10 15  1  0  0  0
 11 12  1  0  0  0
 11100  1  0  0  0
 12 13  2  0  0  0
 12101  1  0  0  0
 13 14  1  0  0  0
 13 31  1  0  0  0
 14 15  2  0  0  0
 14102  1  0  0  0
 15103  1  0  0  0
 16 17  2  0  0  0
 16 21  1  0  0  0
 16 31  1  0  0  0
 17 18  1  0  0  0
 17104  1  0  0  0
 18 19  2  0  0  0
 18105  1  0  0  0
 19 20  1  0  0  0
 19 24  1  0  0  0
 20 21  2  0  0  0
 20106  1  0  0  0
 21 23  1  0  0  0
 22 28  1  0  0  0
 22 32  2  0  0  0
 26 27  1  0  0  0
 28107  1  0  0  0
 28108  1  0  0  0
 29109  1  0  0  0
 29110  1  0  0  0
 33 34  1  0  0  0
 33 66  1  0  0  0
 33 70  2  0  0  0
 34 36  1  0  0  0
 34 59  1  0  0  0
 34111  1  0  0  0
 35 44  2  0  0  0
 35 45  1  0  0  0
 35 68  1  0  0  0
 36 56  1  0  0  0
 36112  1  0  0  0
 37 39  1  0  0  0
 37 47  1  0  0  0
 37 66  1  0  0  0
 37113  1  0  0  0
 38 43  2  0  0  0
 38 46  1  0  0  0
 38 47  1  0  0  0
 39 64  1  0  0  0
 39 67  2  0  0  0
 40 52  1  0  0  0
 40 53  2  0  0  0
 40 58  1  0  0  0
 41114  1  0  0  0
 41115  1  0  0  0
 41116  1  0  0  0
 41 48  1  0  0  0
 42 43  1  0  0  0
 42 66  1  0  0  0
 42117  1  0  0  0
 42118  1  0  0  0
 43 44  1  0  0  0
 44119  1  0  0  0
 45 46  2  0  0  0
 45120  1  0  0  0
 46121  1  0  0  0
 47122  1  0  0  0
 47123  1  0  0  0
 48 56  1  0  0  0
 48 65  1  0  0  0
 48124  1  0  0  0
 49 50  1  0  0  0
 49 53  1  0  0  0
 49 64  1  0  0  0
 49125  1  0  0  0
 50 51  1  0  0  0
 50126  1  0  0  0
 50127  1  0  0  0
 51 52  1  0  0  0
 51128  1  0  0  0
 51129  1  0  0  0
 52130  1  0  0  0
 52131  1  0  0  0
 53 54  1  0  0  0
 54 55  2  0  0  0
 54132  1  0  0  0
 55 57  1  0  0  0
 55133  1  0  0  0
 56 69  2  0  0  0
 57 58  2  0  0  0
 57134  1  0  0  0
 58135  1  0  0  0
 59 60  1  0  0  0
 59 61  1  0  0  0
 59 62  1  0  0  0
 60136  1  0  0  0
 60137  1  0  0  0
 60138  1  0  0  0
 61139  1  0  0  0
 61140  1  0  0  0
 61141  1  0  0  0
 62142  1  0  0  0
 62143  1  0  0  0
 62144  1  0  0  0
 63 65  1  0  0  0
 63145  1  0  0  0
 63146  1  0  0  0
 63147  1  0  0  0
 64148  1  0  0  0
 65149  1  0  0  0
 68 80  1  0  0  0
 71 72  2  0  0  0
 71 73  1  0  0  0
 71150  1  0  0  0
 72 75  1  0  0  0
 72 84  1  0  0  0
 73 80  1  0  0  0
 73 85  2  0  0  0
 74 81  1  0  0  0
 74 84  2  0  0  0
 74 85  1  0  0  0
 75151  1  0  0  0
 75152  1  0  0  0
 75153  1  0  0  0
 76 78  1  0  0  0
 76154  1  0  0  0
 76155  1  0  0  0
 76156  1  0  0  0
 77157  1  0  0  0
 77158  1  0  0  0
 77159  1  0  0  0
 77 81  1  0  0  0
 78160  1  0  0  0
 78161  1  0  0  0
 78 80  1  0  0  0
 79 82  1  0  0  0
 79 86  1  0  0  0
 79162  1  0  0  0
 79163  1  0  0  0
 80164  1  0  0  0
 81 83  1  0  0  0
 81165  1  0  0  0
 82 83  1  0  0  0
 82 87  1  0  0  0
 82 88  1  0  0  0
 83 89  1  0  0  0
 83 90  1  0  0  0
 86166  1  0  0  0
M  ISO  4   1 100  68 101  80 101  86 100
M  END
> <chiral flag>
0

> <version>
0

> <s_m_source_file>
/data/baiqing/PycharmProjects/Reinvent-master-3.2/result/LINK_invent/BTK/process_docking_weight1_custom_sum_contain_oxygen_bond_distance_aromatic_linkinvent_7_9_3/rearranged_h_0074.sdf

> <i_m_source_file_index>
45

> <r_mmod_Potential_Energy-OPLS-2005>
-373.071136474609

> <r_mmod_Stretch_Energy-OPLS-2005>
48.9090347290039

> <r_mmod_Bend_Energy-OPLS-2005>
108.971366882324

> <r_mmod_Torsional_Energy-OPLS-2005>
236.821090698242

> <r_mmod_Improper_Torsional_Energy-OPLS-2005>
8.35488700866699

> <r_mmod_Van_der_Waal_Energy-OPLS-2005>
177.074569702148

> <r_mmod_Electrostatic_Energy-OPLS-2005>
-777.160827636719

> <r_mmod_Solvation_Energy-OPLS-2005>
-204.569931030273

> <b_mmod_Minimization_Converged-OPLS-2005>
0

> <r_mmod_RMS_Derivative-OPLS-2005>
6.09218263626099

$$$$
45
                    3D
 Structure written by MMmdl.
171179  0  0  1  0            999 V2000
  -30.4907  -14.8676   20.4075 C   0  0  0  0  0  0
  -30.4664  -12.5307   19.4627 C   0  0  0  0  0  0
  -29.5155  -12.5226   18.2374 C   0  0  0  0  0  0
  -28.0434  -12.3136   18.6569 C   0  0  0  0  0  0
  -27.6410  -13.2090   19.8545 C   0  0  2  0  0  0
  -28.7000  -13.1308   20.9756 C   0  0  0  0  0  0
  -25.2532  -13.8141   20.5729 C   0  0  0  0  0  0
  -24.1792  -13.0412   20.9219 C   0  0  0  0  0  0
  -24.6368  -11.6891   20.8783 C   0  0  0  0  0  0
  -23.9049  -10.4280   21.0433 C   0  0  0  0  0  0
  -24.3602   -9.4196   21.9208 C   0  0  0  0  0  0
  -23.6275   -8.2230   22.0763 C   0  0  0  0  0  0
  -22.4263   -8.0270   21.3546 C   0  0  0  0  0  0
  -21.9904   -9.0249   20.4654 C   0  0  0  0  0  0
  -22.7227  -10.2133   20.3073 C   0  0  0  0  0  0
  -21.6835   -6.0733   22.5281 C   0  0  0  0  0  0
  -21.4001   -6.5639   23.8216 C   0  0  0  0  0  0
  -21.3666   -5.6795   24.9179 C   0  0  0  0  0  0
  -21.6047   -4.3059   24.7231 C   0  0  0  0  0  0
  -21.8816   -3.8148   23.4352 C   0  0  0  0  0  0
  -21.9188   -4.6962   22.3405 C   0  0  0  0  0  0
  -22.7815  -13.5215   21.1869 C   0  0  0  0  0  0
  -22.1649   -4.2146   21.0980 F   0  0  0  0  0  0
  -21.5648   -3.4548   25.7748 F   0  0  0  0  0  0
  -29.9858  -13.5707   20.4065 N   0  0  0  0  0  0
  -26.2935  -12.9280   20.3350 N   0  0  0  0  0  0
  -25.9292  -11.6462   20.5811 N   0  0  0  0  0  0
  -22.0453  -12.8220   22.0432 N   0  0  0  0  0  0
  -25.4285  -15.1860   20.4161 N   0  0  0  0  0  0
  -31.6966  -15.0165   20.1698 O   0  0  0  0  0  0
  -21.6623   -6.8869   21.4239 O   0  0  0  0  0  0
  -22.3499  -14.5510   20.6706 O   0  0  0  0  0  0
  -24.6347  -31.8458   23.1945 C   0  0  0  0  0  0
  -25.9148  -32.4711   23.8296 C   0  0  1  0  0  0
  -27.2337  -27.2131   20.1302 C   0  0  0  0  0  0
  -25.5887  -33.8515   24.2184 N   0  0  0  0  0  0
  -23.4375  -30.4659   21.5349 C   0  0  2  0  0  0
  -24.8864  -28.9008   20.1101 C   0  0  0  0  0  0
  -22.7554  -29.4524   22.4876 C   0  0  0  0  0  0
  -18.0302  -28.1364   22.8453 C   0  0  0  0  0  0
  -24.1480  -36.7277   23.2652 C   0  0  0  0  0  0
  -25.9867  -30.7443   21.3826 C   0  0  0  0  0  0
  -26.0570  -29.3606   20.7234 C   0  0  0  0  0  0
  -27.2266  -28.5270   20.7263 C   0  0  0  0  0  0
  -26.0296  -26.8230   19.5014 C   0  0  0  0  0  0
  -24.8777  -27.6393   19.4901 C   0  0  0  0  0  0
  -23.6598  -29.7943   20.1528 C   0  0  0  0  0  0
  -25.4107  -36.3033   24.0321 C   0  0  1  0  0  0
  -20.5917  -28.3665   23.1231 C   0  0  2  0  0  0
  -20.6769  -26.9368   22.5381 C   0  0  0  0  0  0
  -19.5747  -26.6344   21.5180 C   0  0  0  0  0  0
  -18.1932  -26.7900   22.1596 C   0  0  0  0  0  0
  -19.1560  -28.8835   23.2819 C   0  0  0  0  0  0
  -18.9478  -30.1435   23.8849 C   0  0  0  0  0  0
  -17.6476  -30.6557   24.0545 C   0  0  0  0  0  0
  -25.9052  -34.9409   23.5072 C   0  0  0  0  0  0
  -16.5370  -29.9053   23.6330 C   0  0  0  0  0  0
  -16.7289  -28.6479   23.0335 C   0  0  0  0  0  0
  -26.4497  -31.6614   25.0732 C   0  0  0  0  0  0
  -25.3716  -31.3784   26.1465 C   0  0  0  0  0  0
  -27.0380  -30.3019   24.6280 C   0  0  0  0  0  0
  -27.5998  -32.4441   25.7507 C   0  0  0  0  0  0
  -27.5580  -37.1789   24.8470 C   0  0  0  0  0  0
  -21.4250  -29.3018   22.3644 N   0  0  0  0  0  0
  -26.4279  -37.3739   23.9424 N   0  0  0  0  0  0
  -24.7049  -31.0397   22.0929 N   0  0  0  0  0  0
  -23.4240  -28.8062   23.2991 O   0  0  0  0  0  0
  -28.3398  -26.3184   20.2362 O   0  0  0  0  0  0
  -26.5655  -34.8889   22.4659 O   0  0  0  0  0  0
  -23.5493  -32.1282   23.7221 O   0  0  0  0  0  0
  -29.2716  -18.4998   21.6328 C   0  0  0  0  0  0
  -30.0241  -18.6407   19.4258 C   0  0  0  0  0  0
  -29.7238  -17.7623   20.5048 C   0  0  0  0  0  0
  -29.1201  -19.9396   21.6620 C   0  0  0  0  0  0
  -29.4687  -20.7508   20.5206 C   0  0  0  0  0  0
  -28.3121  -18.9892   24.9234 C   0  0  0  0  0  0
  -26.4885  -20.6449   24.3768 C   0  0  0  0  0  0
  -27.1041  -23.3103   20.9391 C   0  0  0  0  0  0
  -30.7403  -22.6814   19.4403 C   0  0  0  0  0  0
  -30.2052  -22.9457   21.7849 C   0  0  0  0  0  0
  -28.5779  -20.5812   22.9404 C   0  0  0  0  0  0
  -28.4955  -24.9916   19.5110 C   0  0  0  0  0  0
  -27.5904  -19.7440   23.7912 C   0  0  0  0  0  0
  -28.3493  -23.4210   20.0460 C   0  0  1  0  0  0
  -29.4660  -16.1608   20.3638 C   0  0  0  0  0  0
  -29.6054  -22.4078   20.4602 C   0  0  0  0  0  0
  -29.9016  -20.0221   19.4355 N   0  0  0  0  0  0
  -28.4931  -15.9329   21.2440 F   0  0  0  0  0  0
  -28.8990  -16.1059   19.1591 F   0  0  0  0  0  0
  -31.4891  -12.7269   19.1374 H   0  0  0  0  0  0
  -30.4907  -11.5529   19.9459 H   0  0  0  0  0  0
  -29.8154  -11.7473   17.5306 H   0  0  0  0  0  0
  -29.6052  -13.4705   17.7038 H   0  0  0  0  0  0
  -27.9224  -11.2647   18.9289 H   0  0  0  0  0  0
  -27.3752  -12.4881   17.8125 H   0  0  0  0  0  0
  -27.6139  -14.2205   19.4637 H   0  0  0  0  0  0
  -28.7817  -12.1077   21.3463 H   0  0  0  0  0  0
  -28.4178  -13.7191   21.8470 H   0  0  0  0  0  0
  -25.2751   -9.5674   22.4784 H   0  0  0  0  0  0
  -24.0002   -7.4614   22.7476 H   0  0  0  0  0  0
  -21.0843   -8.8757   19.8941 H   0  0  0  0  0  0
  -22.3688  -10.9675   19.6184 H   0  0  0  0  0  0
  -21.1971   -7.6145   23.9714 H   0  0  0  0  0  0
  -21.1500   -6.0530   25.9086 H   0  0  0  0  0  0
  -22.0591   -2.7610   23.2851 H   0  0  0  0  0  0
  -22.4035  -11.9867   22.4826 H   0  0  0  0  0  0
  -21.1074  -13.1263   22.2640 H   0  0  0  0  0  0
  -24.6748  -15.8528   20.5428 H   0  0  0  0  0  0
  -26.3065  -15.6263   20.1737 H   0  0  0  0  0  0
  -26.7215  -32.5314   23.1035 H   0  0  0  0  0  0
  -24.9960  -33.9614   25.0276 H   0  0  0  0  0  0
  -22.7344  -31.2865   21.3816 H   0  0  0  0  0  0
  -23.3711  -35.9641   23.3306 H   0  0  0  0  0  0
  -24.3562  -36.8932   22.2070 H   0  0  0  0  0  0
  -23.7261  -37.6477   23.6710 H   0  0  0  0  0  0
  -26.1318  -31.5040   20.6142 H   0  0  0  0  0  0
  -26.8600  -30.7873   22.0212 H   0  0  0  0  0  0
  -28.1229  -28.8677   21.2250 H   0  0  0  0  0  0
  -25.9377  -25.8448   19.0559 H   0  0  0  0  0  0
  -23.9761  -27.2735   19.0184 H   0  0  0  0  0  0
  -23.8029  -30.5680   19.3988 H   0  0  0  0  0  0
  -22.7781  -29.2325   19.8389 H   0  0  0  0  0  0
  -25.1297  -36.1878   25.0813 H   0  0  0  0  0  0
  -20.9966  -28.3235   24.1361 H   0  0  0  0  0  0
  -20.5629  -26.2278   23.3609 H   0  0  0  0  0  0
  -21.6635  -26.7345   22.1202 H   0  0  0  0  0  0
  -19.6899  -25.6239   21.1233 H   0  0  0  0  0  0
  -19.6689  -27.3122   20.6688 H   0  0  0  0  0  0
  -17.4196  -26.6632   21.4000 H   0  0  0  0  0  0
  -18.0332  -26.0038   22.8989 H   0  0  0  0  0  0
  -19.7972  -30.7245   24.2181 H   0  0  0  0  0  0
  -17.5055  -31.6242   24.5132 H   0  0  0  0  0  0
  -15.5365  -30.2952   23.7684 H   0  0  0  0  0  0
  -15.8690  -28.0812   22.7057 H   0  0  0  0  0  0
  -24.5839  -30.7189   25.7811 H   0  0  0  0  0  0
  -24.8946  -32.2969   26.4903 H   0  0  0  0  0  0
  -25.8022  -30.8953   27.0243 H   0  0  0  0  0  0
  -26.2991  -29.6732   24.1296 H   0  0  0  0  0  0
  -27.4002  -29.7353   25.4867 H   0  0  0  0  0  0
  -27.8898  -30.4249   23.9583 H   0  0  0  0  0  0
  -27.2523  -33.3737   26.2033 H   0  0  0  0  0  0
  -28.3811  -32.7027   25.0349 H   0  0  0  0  0  0
  -28.0663  -31.8623   26.5463 H   0  0  0  0  0  0
  -28.2574  -38.0111   24.7504 H   0  0  0  0  0  0
  -28.1083  -36.2625   24.6297 H   0  0  0  0  0  0
  -27.2298  -37.1462   25.8874 H   0  0  0  0  0  0
  -20.9457  -29.8790   21.6884 H   0  0  0  0  0  0
  -26.0140  -38.2799   24.1451 H   0  0  0  0  0  0
  -28.9575  -17.9166   22.4812 H   0  0  0  0  0  0
  -30.3100  -18.2192   18.4736 H   0  0  0  0  0  0
  -27.6269  -18.3339   25.4638 H   0  0  0  0  0  0
  -28.7495  -19.6801   25.6466 H   0  0  0  0  0  0
  -29.1270  -18.3678   24.5547 H   0  0  0  0  0  0
  -25.7914  -20.0736   24.9909 H   0  0  0  0  0  0
  -25.9063  -21.1254   23.5882 H   0  0  0  0  0  0
  -26.9081  -21.4376   24.9992 H   0  0  0  0  0  0
  -26.2746  -23.8796   20.5202 H   0  0  0  0  0  0
  -27.2901  -23.7034   21.9393 H   0  0  0  0  0  0
  -26.7612  -22.2788   21.0212 H   0  0  0  0  0  0
  -31.6284  -22.0914   19.6745 H   0  0  0  0  0  0
  -31.0704  -23.7179   19.4309 H   0  0  0  0  0  0
  -30.4355  -22.4236   18.4263 H   0  0  0  0  0  0
  -31.0223  -22.3141   22.1369 H   0  0  0  0  0  0
  -29.4750  -23.0378   22.5847 H   0  0  0  0  0  0
  -30.6089  -23.9509   21.6617 H   0  0  0  0  0  0
  -28.0441  -21.4733   22.6322 H   0  0  0  0  0  0
  -29.4168  -20.9170   23.5507 H   0  0  0  0  0  0
  -29.4798  -25.0815   19.0606 H   0  0  0  0  0  0
  -27.8652  -25.0546   18.6260 H   0  0  0  0  0  0
  -27.0691  -19.0286   23.1506 H   0  0  0  0  0  0
  -28.0276  -22.9333   19.1241 H   0  0  0  0  0  0
  1 25  1  0  0  0
  1 30  2  0  0  0
  1 85  1  0  0  0
  2  3  1  0  0  0
  2 25  1  0  0  0
  2 90  1  0  0  0
  2 91  1  0  0  0
  3  4  1  0  0  0
  3 92  1  0  0  0
  3 93  1  0  0  0
  4  5  1  0  0  0
  4 94  1  0  0  0
  4 95  1  0  0  0
  5  6  1  0  0  0
  5 26  1  0  0  0
  5 96  1  0  0  0
  6 25  1  0  0  0
  6 97  1  0  0  0
  6 98  1  0  0  0
  7  8  2  0  0  0
  7 26  1  0  0  0
  7 29  1  0  0  0
  8  9  1  0  0  0
  8 22  1  0  0  0
  9 10  1  0  0  0
  9 27  2  0  0  0
 10 11  2  0  0  0
 10 15  1  0  0  0
 11 12  1  0  0  0
 11 99  1  0  0  0
 12 13  2  0  0  0
 12100  1  0  0  0
 13 14  1  0  0  0
 13 31  1  0  0  0
 14 15  2  0  0  0
 14101  1  0  0  0
 15102  1  0  0  0
 16 17  2  0  0  0
 16 21  1  0  0  0
 16 31  1  0  0  0
 17 18  1  0  0  0
 17103  1  0  0  0
 18 19  2  0  0  0
 18104  1  0  0  0
 19 20  1  0  0  0
 19 24  1  0  0  0
 20 21  2  0  0  0
 20105  1  0  0  0
 21 23  1  0  0  0
 22 28  1  0  0  0
 22 32  2  0  0  0
 26 27  1  0  0  0
 28106  1  0  0  0
 28107  1  0  0  0
 29108  1  0  0  0
 29109  1  0  0  0
 33 34  1  0  0  0
 33 66  1  0  0  0
 33 70  2  0  0  0
 34 36  1  0  0  0
 34 59  1  0  0  0
 34110  1  0  0  0
 35 44  2  0  0  0
 35 45  1  0  0  0
 35 68  1  0  0  0
 36 56  1  0  0  0
 36111  1  0  0  0
 37 39  1  0  0  0
 37 47  1  0  0  0
 37 66  1  0  0  0
 37112  1  0  0  0
 38 43  2  0  0  0
 38 46  1  0  0  0
 38 47  1  0  0  0
 39 64  1  0  0  0
 39 67  2  0  0  0
 40 52  1  0  0  0
 40 53  2  0  0  0
 40 58  1  0  0  0
 41113  1  0  0  0
 41114  1  0  0  0
 41115  1  0  0  0
 41 48  1  0  0  0
 42 43  1  0  0  0
 42 66  1  0  0  0
 42116  1  0  0  0
 42117  1  0  0  0
 43 44  1  0  0  0
 44118  1  0  0  0
 45 46  2  0  0  0
 45119  1  0  0  0
 46120  1  0  0  0
 47121  1  0  0  0
 47122  1  0  0  0
 48 56  1  0  0  0
 48 65  1  0  0  0
 48123  1  0  0  0
 49 50  1  0  0  0
 49 53  1  0  0  0
 49 64  1  0  0  0
 49124  1  0  0  0
 50 51  1  0  0  0
 50125  1  0  0  0
 50126  1  0  0  0
 51 52  1  0  0  0
 51127  1  0  0  0
 51128  1  0  0  0
 52129  1  0  0  0
 52130  1  0  0  0
 53 54  1  0  0  0
 54 55  2  0  0  0
 54131  1  0  0  0
 55 57  1  0  0  0
 55132  1  0  0  0
 56 69  2  0  0  0
 57 58  2  0  0  0
 57133  1  0  0  0
 58134  1  0  0  0
 59 60  1  0  0  0
 59 61  1  0  0  0
 59 62  1  0  0  0
 60135  1  0  0  0
 60136  1  0  0  0
 60137  1  0  0  0
 61138  1  0  0  0
 61139  1  0  0  0
 61140  1  0  0  0
 62141  1  0  0  0
 62142  1  0  0  0
 62143  1  0  0  0
 63 65  1  0  0  0
 63144  1  0  0  0
 63145  1  0  0  0
 63146  1  0  0  0
 64147  1  0  0  0
 65148  1  0  0  0
 68 82  1  0  0  0
 71 73  2  0  0  0
 71 74  1  0  0  0
 71149  1  0  0  0
 72 73  1  0  0  0
 72 87  2  0  0  0
 72150  1  0  0  0
 73 85  1  0  0  0
 74 75  2  0  0  0
 74 81  1  0  0  0
 75 86  1  0  0  0
 75 87  1  0  0  0
 76151  1  0  0  0
 76152  1  0  0  0
 76153  1  0  0  0
 76 83  1  0  0  0
 77 83  1  0  0  0
 77154  1  0  0  0
 77155  1  0  0  0
 77156  1  0  0  0
 78157  1  0  0  0
 78158  1  0  0  0
 78159  1  0  0  0
 78 84  1  0  0  0
 79160  1  0  0  0
 79161  1  0  0  0
 79162  1  0  0  0
 79 86  1  0  0  0
 80 86  1  0  0  0
 80163  1  0  0  0
 80164  1  0  0  0
 80165  1  0  0  0
 81 83  1  0  0  0
 81166  1  0  0  0
 81167  1  0  0  0
 82 84  1  0  0  0
 82168  1  0  0  0
 82169  1  0  0  0
 83170  1  0  0  0
 84 86  1  0  0  0
 84171  1  0  0  0
 85 88  1  0  0  0
 85 89  1  0  0  0
M  ISO  4   1 100  68 101  82 101  85 100
M  END
> <chiral flag>
0

> <version>
0

> <s_m_source_file>
/data/baiqing/PycharmProjects/Reinvent-master-3.2/result/LINK_invent/BTK/process_docking_weight1_custom_sum_contain_oxygen_bond_distance_aromatic_linkinvent_7_9_3/rearranged_h_0074.sdf

> <i_m_source_file_index>
46

> <r_mmod_Potential_Energy-OPLS-2005>
387.352752685547

> <r_mmod_Stretch_Energy-OPLS-2005>
201.940719604492

> <r_mmod_Bend_Energy-OPLS-2005>
302.494598388672

> <r_mmod_Torsional_Energy-OPLS-2005>
227.002685546875

> <r_mmod_Improper_Torsional_Energy-OPLS-2005>
12.727165222168

> <r_mmod_Van_der_Waal_Energy-OPLS-2005>
159.062637329102

> <r_mmod_Electrostatic_Energy-OPLS-2005>
-464.676116943359

> <r_mmod_Solvation_Energy-OPLS-2005>
-185.902816772461

> <b_mmod_Minimization_Converged-OPLS-2005>
0

> <r_mmod_RMS_Derivative-OPLS-2005>
3.26159119606018

$$$$
46
                    3D
 Structure written by MMmdl.
182190  0  0  1  0            999 V2000
  -30.6909  -14.6983   20.6116 C   0  0  0  0  0  0
  -30.4404  -12.4572   19.4814 C   0  0  0  0  0  0
  -29.5219  -12.5618   18.2439 C   0  0  0  0  0  0
  -28.0440  -12.3722   18.6407 C   0  0  0  0  0  0
  -27.6579  -13.2296   19.8743 C   0  0  2  0  0  0
  -28.7014  -13.0536   20.9964 C   0  0  0  0  0  0
  -25.2555  -13.8176   20.5724 C   0  0  0  0  0  0
  -24.1809  -13.0402   20.9175 C   0  0  0  0  0  0
  -24.6429  -11.6903   20.8730 C   0  0  0  0  0  0
  -23.9117  -10.4268   21.0403 C   0  0  0  0  0  0
  -24.3649   -9.4171   21.9184 C   0  0  0  0  0  0
  -23.6280   -8.2217   22.0753 C   0  0  0  0  0  0
  -22.4261   -8.0282   21.3537 C   0  0  0  0  0  0
  -21.9924   -9.0268   20.4643 C   0  0  0  0  0  0
  -22.7293  -10.2127   20.3047 C   0  0  0  0  0  0
  -21.6853   -6.0732   22.5281 C   0  0  0  0  0  0
  -21.4019   -6.5646   23.8214 C   0  0  0  0  0  0
  -21.3644   -5.6801   24.9178 C   0  0  0  0  0  0
  -21.6028   -4.3060   24.7233 C   0  0  0  0  0  0
  -21.8808   -3.8149   23.4355 C   0  0  0  0  0  0
  -21.9173   -4.6957   22.3407 C   0  0  0  0  0  0
  -22.7831  -13.5197   21.1845 C   0  0  0  0  0  0
  -22.1634   -4.2138   21.0975 F   0  0  0  0  0  0
  -21.5628   -3.4546   25.7744 F   0  0  0  0  0  0
  -30.0111  -13.4899   20.4712 N   0  0  0  0  0  0
  -26.3015  -12.9391   20.3372 N   0  0  0  0  0  0
  -25.9375  -11.6529   20.5761 N   0  0  0  0  0  0
  -22.0485  -12.8149   22.0410 N   0  0  0  0  0  0
  -25.4267  -15.1874   20.4175 N   0  0  0  0  0  0
  -31.7899  -14.7738   20.0503 O   0  0  0  0  0  0
  -21.6638   -6.8869   21.4231 O   0  0  0  0  0  0
  -22.3499  -14.5490   20.6702 O   0  0  0  0  0  0
  -24.6302  -31.8520   23.1963 C   0  0  0  0  0  0
  -25.9112  -32.4776   23.8296 C   0  0  1  0  0  0
  -27.2421  -27.2982   20.1256 C   0  0  0  0  0  0
  -25.5910  -33.8571   24.2221 N   0  0  0  0  0  0
  -23.4284  -30.4749   21.5358 C   0  0  2  0  0  0
  -24.8754  -28.9150   20.1177 C   0  0  0  0  0  0
  -22.7501  -29.4599   22.4895 C   0  0  0  0  0  0
  -18.0286  -28.1412   22.8497 C   0  0  0  0  0  0
  -24.1476  -36.7271   23.2643 C   0  0  0  0  0  0
  -25.9673  -30.7856   21.3580 C   0  0  0  0  0  0
  -26.0450  -29.4039   20.7132 C   0  0  0  0  0  0
  -27.2340  -28.6119   20.6971 C   0  0  0  0  0  0
  -26.0431  -26.8496   19.5348 C   0  0  0  0  0  0
  -24.8772  -27.6461   19.5152 C   0  0  0  0  0  0
  -23.6425  -29.7985   20.1548 C   0  0  0  0  0  0
  -25.4109  -36.3083   24.0334 C   0  0  1  0  0  0
  -20.5891  -28.3702   23.1276 C   0  0  2  0  0  0
  -20.6769  -26.9418   22.5410 C   0  0  0  0  0  0
  -19.5743  -26.6396   21.5217 C   0  0  0  0  0  0
  -18.1925  -26.7954   22.1633 C   0  0  0  0  0  0
  -19.1540  -28.8869   23.2903 C   0  0  0  0  0  0
  -18.9472  -30.1477   23.8902 C   0  0  0  0  0  0
  -17.6476  -30.6612   24.0576 C   0  0  0  0  0  0
  -25.9056  -34.9461   23.5091 C   0  0  0  0  0  0
  -16.5368  -29.9121   23.6348 C   0  0  0  0  0  0
  -16.7272  -28.6544   23.0340 C   0  0  0  0  0  0
  -26.4478  -31.6605   25.0690 C   0  0  0  0  0  0
  -25.3693  -31.3728   26.1402 C   0  0  0  0  0  0
  -27.0319  -30.3050   24.6126 C   0  0  0  0  0  0
  -27.6050  -32.4314   25.7462 C   0  0  0  0  0  0
  -27.5570  -37.1793   24.8481 C   0  0  0  0  0  0
  -21.4191  -29.3066   22.3669 N   0  0  0  0  0  0
  -26.4272  -37.3794   23.9445 N   0  0  0  0  0  0
  -24.6955  -31.0554   22.0883 N   0  0  0  0  0  0
  -23.4227  -28.8109   23.2962 O   0  0  0  0  0  0
  -28.3795  -26.4696   20.0745 O   0  0  0  0  0  0
  -26.5632  -34.8944   22.4668 O   0  0  0  0  0  0
  -23.5469  -32.1242   23.7345 O   0  0  0  0  0  0
  -31.1849  -17.9799   19.7556 C   0  0  0  0  0  0
  -29.3780  -18.5450   20.8606 C   0  0  0  0  0  0
  -30.2364  -17.4552   20.6870 C   0  0  0  0  0  0
  -30.8583  -19.2653   19.3666 C   0  0  0  0  0  0
  -29.1965  -21.3200   23.0354 C   0  0  0  0  0  0
  -28.9714  -15.9141   22.2676 C   0  0  0  0  0  0
  -31.3943  -16.2078   22.5113 C   0  0  0  0  0  0
  -32.9064  -18.7334   16.6876 C   0  0  0  0  0  0
  -30.4035  -18.6839   16.5241 C   0  0  0  0  0  0
  -31.6677  -20.7451   15.8776 C   0  0  0  0  0  0
  -30.9476  -22.5183   20.7050 C   0  0  0  0  0  0
  -31.5441  -20.1243   18.3279 C   0  0  0  0  0  0
  -28.8905  -22.5071   22.1146 C   0  0  0  0  0  0
  -28.8569  -23.7738   19.8725 C   0  0  0  0  0  0
  -28.9676  -21.0109   19.9666 C   0  0  0  0  0  0
  -28.3398  -25.1013   20.6625 C   0  0  0  0  0  0
  -30.2715  -16.0404   21.4498 C   0  0  0  0  0  0
  -31.6202  -19.5644   16.8723 C   0  0  0  0  0  0
  -29.4039  -22.4325   20.6460 C   0  0  1  0  0  0
  -29.7426  -19.6882   20.1016 N   0  0  0  0  0  0
  -31.4846  -12.5562   19.1830 H   0  0  0  0  0  0
  -30.3745  -11.4571   19.9128 H   0  0  0  0  0  0
  -29.8104  -11.8252   17.4916 H   0  0  0  0  0  0
  -29.6604  -13.5435   17.7866 H   0  0  0  0  0  0
  -27.8944  -11.3174   18.8715 H   0  0  0  0  0  0
  -27.3930  -12.5979   17.7945 H   0  0  0  0  0  0
  -27.6807  -14.2755   19.5622 H   0  0  0  0  0  0
  -28.7511  -12.0038   21.2854 H   0  0  0  0  0  0
  -28.3805  -13.5272   21.9103 H   0  0  0  0  0  0
  -25.2781   -9.5621   22.4810 H   0  0  0  0  0  0
  -23.9961   -7.4598   22.7483 H   0  0  0  0  0  0
  -21.0851   -8.8790   19.8951 H   0  0  0  0  0  0
  -22.3740  -10.9674   19.6166 H   0  0  0  0  0  0
  -21.2035   -7.6159   23.9709 H   0  0  0  0  0  0
  -21.1477   -6.0544   25.9075 H   0  0  0  0  0  0
  -22.0602   -2.7612   23.2870 H   0  0  0  0  0  0
  -22.4078  -11.9776   22.4736 H   0  0  0  0  0  0
  -21.1120  -13.1177   22.2697 H   0  0  0  0  0  0
  -24.6728  -15.8553   20.5361 H   0  0  0  0  0  0
  -26.2956  -15.6181   20.1264 H   0  0  0  0  0  0
  -26.7188  -32.5409   23.1052 H   0  0  0  0  0  0
  -25.0060  -33.9653   25.0370 H   0  0  0  0  0  0
  -22.7290  -31.2963   21.3872 H   0  0  0  0  0  0
  -23.3756  -35.9586   23.3315 H   0  0  0  0  0  0
  -24.3565  -36.8874   22.2056 H   0  0  0  0  0  0
  -23.7203  -37.6471   23.6647 H   0  0  0  0  0  0
  -26.0863  -31.5388   20.5762 H   0  0  0  0  0  0
  -26.8548  -30.8469   21.9783 H   0  0  0  0  0  0
  -28.1393  -29.0010   21.1406 H   0  0  0  0  0  0
  -26.0082  -25.8698   19.0795 H   0  0  0  0  0  0
  -23.9829  -27.2637   19.0425 H   0  0  0  0  0  0
  -23.7600  -30.5631   19.3866 H   0  0  0  0  0  0
  -22.7662  -29.2198   19.8606 H   0  0  0  0  0  0
  -25.1299  -36.1912   25.0826 H   0  0  0  0  0  0
  -21.0009  -28.3244   24.1378 H   0  0  0  0  0  0
  -20.5652  -26.2295   23.3595 H   0  0  0  0  0  0
  -21.6637  -26.7416   22.1212 H   0  0  0  0  0  0
  -19.6917  -25.6304   21.1236 H   0  0  0  0  0  0
  -19.6718  -27.3208   20.6743 H   0  0  0  0  0  0
  -17.4207  -26.6706   21.4025 H   0  0  0  0  0  0
  -18.0334  -26.0090   22.9017 H   0  0  0  0  0  0
  -19.7947  -30.7295   24.2266 H   0  0  0  0  0  0
  -17.5036  -31.6281   24.5188 H   0  0  0  0  0  0
  -15.5372  -30.3047   23.7663 H   0  0  0  0  0  0
  -15.8660  -28.0894   22.7031 H   0  0  0  0  0  0
  -24.5939  -30.7016   25.7718 H   0  0  0  0  0  0
  -24.8796  -32.2875   26.4756 H   0  0  0  0  0  0
  -25.7991  -30.8974   27.0222 H   0  0  0  0  0  0
  -26.2876  -29.6845   24.1136 H   0  0  0  0  0  0
  -27.4026  -29.7296   25.4616 H   0  0  0  0  0  0
  -27.8745  -30.4409   23.9339 H   0  0  0  0  0  0
  -27.2707  -33.3656   26.1985 H   0  0  0  0  0  0
  -28.3878  -32.6776   25.0278 H   0  0  0  0  0  0
  -28.0680  -31.8440   26.5403 H   0  0  0  0  0  0
  -28.2595  -38.0078   24.7510 H   0  0  0  0  0  0
  -28.1025  -36.2607   24.6294 H   0  0  0  0  0  0
  -27.2271  -37.1431   25.8873 H   0  0  0  0  0  0
  -20.9364  -29.8811   21.6896 H   0  0  0  0  0  0
  -26.0141  -38.2864   24.1457 H   0  0  0  0  0  0
  -32.0462  -17.4434   19.3850 H   0  0  0  0  0  0
  -28.5007  -18.6106   21.4889 H   0  0  0  0  0  0
  -28.9529  -21.5703   24.0678 H   0  0  0  0  0  0
  -30.2480  -21.0411   23.0160 H   0  0  0  0  0  0
  -28.6027  -20.4480   22.7757 H   0  0  0  0  0  0
  -28.8094  -16.7995   22.8822 H   0  0  0  0  0  0
  -29.0161  -15.1020   22.9936 H   0  0  0  0  0  0
  -28.0936  -15.8128   21.6297 H   0  0  0  0  0  0
  -31.1756  -17.0181   23.2113 H   0  0  0  0  0  0
  -32.3529  -16.4451   22.0482 H   0  0  0  0  0  0
  -31.5456  -15.3001   23.1003 H   0  0  0  0  0  0
  -32.9455  -18.2821   15.6948 H   0  0  0  0  0  0
  -32.9788  -17.9258   17.4145 H   0  0  0  0  0  0
  -33.8009  -19.3473   16.8000 H   0  0  0  0  0  0
  -30.4022  -18.4051   15.4700 H   0  0  0  0  0  0
  -29.4667  -19.2041   16.7287 H   0  0  0  0  0  0
  -30.3976  -17.7549   17.0946 H   0  0  0  0  0  0
  -31.7028  -20.4043   14.8420 H   0  0  0  0  0  0
  -32.5480  -21.3672   16.0401 H   0  0  0  0  0  0
  -30.7928  -21.3896   15.9730 H   0  0  0  0  0  0
  -31.2823  -23.3727   21.2935 H   0  0  0  0  0  0
  -31.3958  -22.6273   19.7187 H   0  0  0  0  0  0
  -31.3798  -21.6301   21.1667 H   0  0  0  0  0  0
  -32.5461  -20.3801   18.6753 H   0  0  0  0  0  0
  -31.0196  -21.0737   18.2737 H   0  0  0  0  0  0
  -29.3406  -23.3678   22.6073 H   0  0  0  0  0  0
  -27.8158  -22.6910   22.1359 H   0  0  0  0  0  0
  -29.6317  -24.0924   19.1716 H   0  0  0  0  0  0
  -28.0360  -23.4694   19.2200 H   0  0  0  0  0  0
  -28.8721  -21.1827   18.8944 H   0  0  0  0  0  0
  -27.9426  -20.8006   20.2710 H   0  0  0  0  0  0
  -28.9478  -25.2139   21.5590 H   0  0  0  0  0  0
  -27.3338  -24.9020   21.0360 H   0  0  0  0  0  0
  1 25  1  0  0  0
  1 30  2  0  0  0
  1 87  1  0  0  0
  2  3  1  0  0  0
  2 25  1  0  0  0
  2 91  1  0  0  0
  2 92  1  0  0  0
  3  4  1  0  0  0
  3 93  1  0  0  0
  3 94  1  0  0  0
  4  5  1  0  0  0
  4 95  1  0  0  0
  4 96  1  0  0  0
  5  6  1  0  0  0
  5 26  1  0  0  0
  5 97  1  0  0  0
  6 25  1  0  0  0
  6 98  1  0  0  0
  6 99  1  0  0  0
  7  8  2  0  0  0
  7 26  1  0  0  0
  7 29  1  0  0  0
  8  9  1  0  0  0
  8 22  1  0  0  0
  9 10  1  0  0  0
  9 27  2  0  0  0
 10 11  2  0  0  0
 10 15  1  0  0  0
 11 12  1  0  0  0
 11100  1  0  0  0
 12 13  2  0  0  0
 12101  1  0  0  0
 13 14  1  0  0  0
 13 31  1  0  0  0
 14 15  2  0  0  0
 14102  1  0  0  0
 15103  1  0  0  0
 16 17  2  0  0  0
 16 21  1  0  0  0
 16 31  1  0  0  0
 17 18  1  0  0  0
 17104  1  0  0  0
 18 19  2  0  0  0
 18105  1  0  0  0
 19 20  1  0  0  0
 19 24  1  0  0  0
 20 21  2  0  0  0
 20106  1  0  0  0
 21 23  1  0  0  0
 22 28  1  0  0  0
 22 32  2  0  0  0
 26 27  1  0  0  0
 28107  1  0  0  0
 28108  1  0  0  0
 29109  1  0  0  0
 29110  1  0  0  0
 33 34  1  0  0  0
 33 66  1  0  0  0
 33 70  2  0  0  0
 34 36  1  0  0  0
 34 59  1  0  0  0
 34111  1  0  0  0
 35 44  2  0  0  0
 35 45  1  0  0  0
 35 68  1  0  0  0
 36 56  1  0  0  0
 36112  1  0  0  0
 37 39  1  0  0  0
 37 47  1  0  0  0
 37 66  1  0  0  0
 37113  1  0  0  0
 38 43  2  0  0  0
 38 46  1  0  0  0
 38 47  1  0  0  0
 39 64  1  0  0  0
 39 67  2  0  0  0
 40 52  1  0  0  0
 40 53  2  0  0  0
 40 58  1  0  0  0
 41114  1  0  0  0
 41115  1  0  0  0
 41116  1  0  0  0
 41 48  1  0  0  0
 42 43  1  0  0  0
 42 66  1  0  0  0
 42117  1  0  0  0
 42118  1  0  0  0
 43 44  1  0  0  0
 44119  1  0  0  0
 45 46  2  0  0  0
 45120  1  0  0  0
 46121  1  0  0  0
 47122  1  0  0  0
 47123  1  0  0  0
 48 56  1  0  0  0
 48 65  1  0  0  0
 48124  1  0  0  0
 49 50  1  0  0  0
 49 53  1  0  0  0
 49 64  1  0  0  0
 49125  1  0  0  0
 50 51  1  0  0  0
 50126  1  0  0  0
 50127  1  0  0  0
 51 52  1  0  0  0
 51128  1  0  0  0
 51129  1  0  0  0
 52130  1  0  0  0
 52131  1  0  0  0
 53 54  1  0  0  0
 54 55  2  0  0  0
 54132  1  0  0  0
 55 57  1  0  0  0
 55133  1  0  0  0
 56 69  2  0  0  0
 57 58  2  0  0  0
 57134  1  0  0  0
 58135  1  0  0  0
 59 60  1  0  0  0
 59 61  1  0  0  0
 59 62  1  0  0  0
 60136  1  0  0  0
 60137  1  0  0  0
 60138  1  0  0  0
 61139  1  0  0  0
 61140  1  0  0  0
 61141  1  0  0  0
 62142  1  0  0  0
 62143  1  0  0  0
 62144  1  0  0  0
 63 65  1  0  0  0
 63145  1  0  0  0
 63146  1  0  0  0
 63147  1  0  0  0
 64148  1  0  0  0
 65149  1  0  0  0
 68 86  1  0  0  0
 71 73  1  0  0  0
 71 74  2  0  0  0
 71150  1  0  0  0
 72 73  2  0  0  0
 72 90  1  0  0  0
 72151  1  0  0  0
 73 87  1  0  0  0
 74 82  1  0  0  0
 74 90  1  0  0  0
 75 83  1  0  0  0
 75152  1  0  0  0
 75153  1  0  0  0
 75154  1  0  0  0
 76155  1  0  0  0
 76156  1  0  0  0
 76157  1  0  0  0
 76 87  1  0  0  0
 77 87  1  0  0  0
 77158  1  0  0  0
 77159  1  0  0  0
 77160  1  0  0  0
 78161  1  0  0  0
 78162  1  0  0  0
 78163  1  0  0  0
 78 88  1  0  0  0
 79 88  1  0  0  0
 79164  1  0  0  0
 79165  1  0  0  0
 79166  1  0  0  0
 80 88  1  0  0  0
 80167  1  0  0  0
 80168  1  0  0  0
 80169  1  0  0  0
 81170  1  0  0  0
 81171  1  0  0  0
 81172  1  0  0  0
 81 89  1  0  0  0
 82 88  1  0  0  0
 82173  1  0  0  0
 82174  1  0  0  0
 83 89  1  0  0  0
 83175  1  0  0  0
 83176  1  0  0  0
 84 86  1  0  0  0
 84 89  1  0  0  0
 84177  1  0  0  0
 84178  1  0  0  0
 85 89  1  0  0  0
 85 90  1  0  0  0
 85179  1  0  0  0
 85180  1  0  0  0
 86181  1  0  0  0
 86182  1  0  0  0
M  ISO  4   1 100  68 101  86 101  87 100
M  END
> <chiral flag>
0

> <version>
0

> <s_m_source_file>
/data/baiqing/PycharmProjects/Reinvent-master-3.2/result/LINK_invent/BTK/process_docking_weight1_custom_sum_contain_oxygen_bond_distance_aromatic_linkinvent_7_9_3/rearranged_h_0074.sdf

> <i_m_source_file_index>
47

> <r_mmod_Potential_Energy-OPLS-2005>
367.944183349609

> <r_mmod_Stretch_Energy-OPLS-2005>
147.275527954102

> <r_mmod_Bend_Energy-OPLS-2005>
232.539245605469

> <r_mmod_Torsional_Energy-OPLS-2005>
248.276947021484

> <r_mmod_Improper_Torsional_Energy-OPLS-2005>
3.21822643280029

> <r_mmod_Van_der_Waal_Energy-OPLS-2005>
130.195755004883

> <r_mmod_Electrostatic_Energy-OPLS-2005>
-279.869293212891

> <r_mmod_Solvation_Energy-OPLS-2005>
-168.155090332031

> <b_mmod_Minimization_Converged-OPLS-2005>
0

> <r_mmod_RMS_Derivative-OPLS-2005>
4.66114091873169

$$$$
47
                    3D
 Structure written by MMmdl.
161169  0  0  1  0            999 V2000
  -30.6417  -14.6823   20.5156 C   0  0  0  0  0  0
  -30.4325  -12.4271   19.4653 C   0  0  0  0  0  0
  -29.5028  -12.4870   18.2353 C   0  0  0  0  0  0
  -28.0354  -12.2962   18.6573 C   0  0  0  0  0  0
  -27.6442  -13.2002   19.8501 C   0  0  2  0  0  0
  -28.6849  -13.1421   20.9907 C   0  0  0  0  0  0
  -25.2474  -13.8086   20.5707 C   0  0  0  0  0  0
  -24.1745  -13.0348   20.9226 C   0  0  0  0  0  0
  -24.6345  -11.6858   20.8780 C   0  0  0  0  0  0
  -23.9037  -10.4243   21.0417 C   0  0  0  0  0  0
  -24.3597   -9.4177   21.9189 C   0  0  0  0  0  0
  -23.6266   -8.2226   22.0768 C   0  0  0  0  0  0
  -22.4258   -8.0268   21.3555 C   0  0  0  0  0  0
  -21.9886   -9.0236   20.4667 C   0  0  0  0  0  0
  -22.7218  -10.2114   20.3056 C   0  0  0  0  0  0
  -21.6856   -6.0722   22.5267 C   0  0  0  0  0  0
  -21.4024   -6.5628   23.8205 C   0  0  0  0  0  0
  -21.3657   -5.6787   24.9170 C   0  0  0  0  0  0
  -21.6030   -4.3043   24.7227 C   0  0  0  0  0  0
  -21.8828   -3.8144   23.4350 C   0  0  0  0  0  0
  -21.9203   -4.6949   22.3411 C   0  0  0  0  0  0
  -22.7786  -13.5185   21.1860 C   0  0  0  0  0  0
  -22.1663   -4.2140   21.0992 F   0  0  0  0  0  0
  -21.5621   -3.4534   25.7746 F   0  0  0  0  0  0
  -29.9990  -13.4717   20.4255 N   0  0  0  0  0  0
  -26.2913  -12.9263   20.3298 N   0  0  0  0  0  0
  -25.9267  -11.6433   20.5775 N   0  0  0  0  0  0
  -22.0423  -12.8210   22.0452 N   0  0  0  0  0  0
  -25.3961  -15.1790   20.4165 N   0  0  0  0  0  0
  -31.7770  -14.7865   20.0372 O   0  0  0  0  0  0
  -21.6636   -6.8857   21.4233 O   0  0  0  0  0  0
  -22.3492  -14.5476   20.6704 O   0  0  0  0  0  0
  -24.6319  -31.8590   23.2039 C   0  0  0  0  0  0
  -25.9163  -32.4788   23.8374 C   0  0  1  0  0  0
  -27.1867  -27.2985   20.1278 C   0  0  0  0  0  0
  -25.5957  -33.8585   24.2311 N   0  0  0  0  0  0
  -23.4279  -30.4796   21.5520 C   0  0  2  0  0  0
  -24.8642  -28.9465   20.1094 C   0  0  0  0  0  0
  -22.7564  -29.4544   22.4972 C   0  0  0  0  0  0
  -18.0296  -28.1406   22.8516 C   0  0  0  0  0  0
  -24.1456  -36.7261   23.2629 C   0  0  0  0  0  0
  -25.9669  -30.7831   21.3755 C   0  0  0  0  0  0
  -26.0342  -29.4095   20.7221 C   0  0  0  0  0  0
  -27.2061  -28.5961   20.7216 C   0  0  0  0  0  0
  -25.9975  -26.9024   19.4707 C   0  0  0  0  0  0
  -24.8484  -27.7034   19.4685 C   0  0  0  0  0  0
  -23.6427  -29.8340   20.1583 C   0  0  0  0  0  0
  -25.4089  -36.3096   24.0341 C   0  0  1  0  0  0
  -20.5903  -28.3660   23.1345 C   0  0  2  0  0  0
  -20.6746  -26.9390   22.5451 C   0  0  0  0  0  0
  -19.5706  -26.6397   21.5254 C   0  0  0  0  0  0
  -18.1898  -26.7966   22.1668 C   0  0  0  0  0  0
  -19.1562  -28.8876   23.2909 C   0  0  0  0  0  0
  -18.9474  -30.1474   23.8920 C   0  0  0  0  0  0
  -17.6465  -30.6609   24.0593 C   0  0  0  0  0  0
  -25.9049  -34.9468   23.5125 C   0  0  0  0  0  0
  -16.5355  -29.9115   23.6342 C   0  0  0  0  0  0
  -16.7285  -28.6542   23.0373 C   0  0  0  0  0  0
  -26.4533  -31.6597   25.0738 C   0  0  0  0  0  0
  -25.3790  -31.3734   26.1478 C   0  0  0  0  0  0
  -27.0322  -30.3038   24.6107 C   0  0  0  0  0  0
  -27.6100  -32.4291   25.7538 C   0  0  0  0  0  0
  -27.5566  -37.1804   24.8496 C   0  0  0  0  0  0
  -21.4281  -29.2997   22.3774 N   0  0  0  0  0  0
  -26.4276  -37.3810   23.9448 N   0  0  0  0  0  0
  -24.6962  -31.0568   22.1034 N   0  0  0  0  0  0
  -23.4311  -28.8078   23.3056 O   0  0  0  0  0  0
  -28.2565  -26.4018   20.2213 O   0  0  0  0  0  0
  -26.5598  -34.8940   22.4679 O   0  0  0  0  0  0
  -23.5470  -32.1366   23.7359 O   0  0  0  0  0  0
  -28.9214  -19.8452   20.8774 C   0  0  0  0  0  0
  -29.3852  -21.1649   21.2080 C   0  0  0  0  0  0
  -29.7913  -18.6965   20.9835 C   0  0  0  0  0  0
  -30.7024  -21.1861   21.7355 C   0  0  0  0  0  0
  -31.3665  -22.4454   22.2457 C   0  0  0  0  0  0
  -30.0296  -17.3041   18.9166 C   0  0  0  0  0  0
  -27.9639  -17.1208   20.2249 C   0  0  0  0  0  0
  -28.4520  -22.4355   21.0485 C   0  0  0  0  0  0
  -30.0513  -15.9965   21.2011 C   0  0  0  0  0  0
  -28.9906  -23.8940   20.6610 C   0  0  0  0  0  0
  -27.8757  -24.9760   20.3641 C   0  0  0  0  0  0
  -29.4905  -17.2708   20.3621 C   0  0  0  0  0  0
  -31.0546  -18.8731   21.4396 N   0  0  0  0  0  0
  -31.4792  -20.0745   21.8432 N   0  0  0  0  0  0
  -31.4680  -12.5500   19.1413 H   0  0  0  0  0  0
  -30.3921  -11.4423   19.9359 H   0  0  0  0  0  0
  -29.7825  -11.7155   17.5187 H   0  0  0  0  0  0
  -29.6263  -13.4395   17.7183 H   0  0  0  0  0  0
  -27.9054  -11.2497   18.9370 H   0  0  0  0  0  0
  -27.3685  -12.4698   17.8119 H   0  0  0  0  0  0
  -27.6427  -14.1985   19.4323 H   0  0  0  0  0  0
  -28.7088  -12.1543   21.4520 H   0  0  0  0  0  0
  -28.4017  -13.8331   21.7817 H   0  0  0  0  0  0
  -25.2731   -9.5673   22.4774 H   0  0  0  0  0  0
  -23.9978   -7.4636   22.7494 H   0  0  0  0  0  0
  -21.0818   -8.8759   19.8989 H   0  0  0  0  0  0
  -22.3652  -10.9664   19.6188 H   0  0  0  0  0  0
  -21.2002   -7.6136   23.9706 H   0  0  0  0  0  0
  -21.1467   -6.0518   25.9074 H   0  0  0  0  0  0
  -22.0606   -2.7603   23.2861 H   0  0  0  0  0  0
  -22.4004  -11.9880   22.4867 H   0  0  0  0  0  0
  -21.1056  -13.1306   22.2651 H   0  0  0  0  0  0
  -24.6195  -15.8196   20.5361 H   0  0  0  0  0  0
  -26.2394  -15.6444   20.1112 H   0  0  0  0  0  0
  -26.7246  -32.5470   23.1132 H   0  0  0  0  0  0
  -25.0188  -33.9740   25.0517 H   0  0  0  0  0  0
  -22.7202  -31.2993   21.4189 H   0  0  0  0  0  0
  -23.3744  -35.9571   23.3313 H   0  0  0  0  0  0
  -24.3538  -36.8839   22.2040 H   0  0  0  0  0  0
  -23.7169  -37.6465   23.6597 H   0  0  0  0  0  0
  -26.0816  -31.5324   20.5918 H   0  0  0  0  0  0
  -26.8577  -30.8460   21.9897 H   0  0  0  0  0  0
  -28.1065  -28.9280   21.2194 H   0  0  0  0  0  0
  -25.9030  -25.9553   18.9630 H   0  0  0  0  0  0
  -23.9537  -27.3559   18.9705 H   0  0  0  0  0  0
  -23.7925  -30.6172   19.4141 H   0  0  0  0  0  0
  -22.7597  -29.2792   19.8354 H   0  0  0  0  0  0
  -25.1253  -36.1960   25.0835 H   0  0  0  0  0  0
  -20.9950  -28.3147   24.1484 H   0  0  0  0  0  0
  -20.5640  -26.2240   23.3624 H   0  0  0  0  0  0
  -21.6604  -26.7394   22.1241 H   0  0  0  0  0  0
  -19.6801  -25.6315   21.1255 H   0  0  0  0  0  0
  -19.6640  -27.3242   20.6816 H   0  0  0  0  0  0
  -17.4164  -26.6771   21.4061 H   0  0  0  0  0  0
  -18.0241  -26.0125   22.9076 H   0  0  0  0  0  0
  -19.7937  -30.7310   24.2298 H   0  0  0  0  0  0
  -17.5009  -31.6297   24.5174 H   0  0  0  0  0  0
  -15.5350  -30.3023   23.7643 H   0  0  0  0  0  0
  -15.8691  -28.0854   22.7075 H   0  0  0  0  0  0
  -24.5952  -30.7081   25.7835 H   0  0  0  0  0  0
  -24.8991  -32.2894   26.4941 H   0  0  0  0  0  0
  -25.8142  -30.8915   27.0247 H   0  0  0  0  0  0
  -26.2835  -29.6840   24.1152 H   0  0  0  0  0  0
  -27.4091  -29.7228   25.4534 H   0  0  0  0  0  0
  -27.8692  -30.4356   23.9243 H   0  0  0  0  0  0
  -27.2780  -33.3688   26.1982 H   0  0  0  0  0  0
  -28.4038  -32.6675   25.0438 H   0  0  0  0  0  0
  -28.0597  -31.8456   26.5583 H   0  0  0  0  0  0
  -28.2608  -38.0089   24.7579 H   0  0  0  0  0  0
  -28.1032  -36.2624   24.6286 H   0  0  0  0  0  0
  -27.2280  -37.1443   25.8901 H   0  0  0  0  0  0
  -20.9468  -29.8833   21.7078 H   0  0  0  0  0  0
  -26.0132  -38.2866   24.1514 H   0  0  0  0  0  0
  -27.9059  -19.7376   20.5276 H   0  0  0  0  0  0
  -30.6682  -23.0620   22.8070 H   0  0  0  0  0  0
  -31.7524  -23.0051   21.3925 H   0  0  0  0  0  0
  -32.1817  -22.2089   22.9351 H   0  0  0  0  0  0
  -29.7999  -16.3965   18.3588 H   0  0  0  0  0  0
  -31.1085  -17.4523   18.8994 H   0  0  0  0  0  0
  -29.5742  -18.1273   18.3645 H   0  0  0  0  0  0
  -27.7036  -16.1877   19.7577 H   0  0  0  0  0  0
  -27.5332  -17.8780   19.5691 H   0  0  0  0  0  0
  -27.4624  -17.1708   21.1934 H   0  0  0  0  0  0
  -27.8923  -22.5507   21.9773 H   0  0  0  0  0  0
  -27.7013  -22.1561   20.3079 H   0  0  0  0  0  0
  -29.3381  -15.7356   21.9801 H   0  0  0  0  0  0
  -30.9127  -16.3448   21.7709 H   0  0  0  0  0  0
  -29.6461  -23.8365   19.7903 H   0  0  0  0  0  0
  -29.6016  -24.2998   21.4613 H   0  0  0  0  0  0
  -27.4035  -24.6287   19.4450 H   0  0  0  0  0  0
  -27.1029  -24.9084   21.1392 H   0  0  0  0  0  0
  1 25  1  0  0  0
  1 30  2  0  0  0
  1 79  1  0  0  0
  2  3  1  0  0  0
  2 25  1  0  0  0
  2 85  1  0  0  0
  2 86  1  0  0  0
  3  4  1  0  0  0
  3 87  1  0  0  0
  3 88  1  0  0  0
  4  5  1  0  0  0
  4 89  1  0  0  0
  4 90  1  0  0  0
  5  6  1  0  0  0
  5 26  1  0  0  0
  5 91  1  0  0  0
  6 25  1  0  0  0
  6 92  1  0  0  0
  6 93  1  0  0  0
  7  8  2  0  0  0
  7 26  1  0  0  0
  7 29  1  0  0  0
  8  9  1  0  0  0
  8 22  1  0  0  0
  9 10  1  0  0  0
  9 27  2  0  0  0
 10 11  2  0  0  0
 10 15  1  0  0  0
 11 12  1  0  0  0
 11 94  1  0  0  0
 12 13  2  0  0  0
 12 95  1  0  0  0
 13 14  1  0  0  0
 13 31  1  0  0  0
 14 15  2  0  0  0
 14 96  1  0  0  0
 15 97  1  0  0  0
 16 17  2  0  0  0
 16 21  1  0  0  0
 16 31  1  0  0  0
 17 18  1  0  0  0
 17 98  1  0  0  0
 18 19  2  0  0  0
 18 99  1  0  0  0
 19 20  1  0  0  0
 19 24  1  0  0  0
 20 21  2  0  0  0
 20100  1  0  0  0
 21 23  1  0  0  0
 22 28  1  0  0  0
 22 32  2  0  0  0
 26 27  1  0  0  0
 28101  1  0  0  0
 28102  1  0  0  0
 29103  1  0  0  0
 29104  1  0  0  0
 33 34  1  0  0  0
 33 66  1  0  0  0
 33 70  2  0  0  0
 34 36  1  0  0  0
 34 59  1  0  0  0
 34105  1  0  0  0
 35 44  2  0  0  0
 35 45  1  0  0  0
 35 68  1  0  0  0
 36 56  1  0  0  0
 36106  1  0  0  0
 37 39  1  0  0  0
 37 47  1  0  0  0
 37 66  1  0  0  0
 37107  1  0  0  0
 38 43  2  0  0  0
 38 46  1  0  0  0
 38 47  1  0  0  0
 39 64  1  0  0  0
 39 67  2  0  0  0
 40 52  1  0  0  0
 40 53  2  0  0  0
 40 58  1  0  0  0
 41108  1  0  0  0
 41109  1  0  0  0
 41110  1  0  0  0
 41 48  1  0  0  0
 42 43  1  0  0  0
 42 66  1  0  0  0
 42111  1  0  0  0
 42112  1  0  0  0
 43 44  1  0  0  0
 44113  1  0  0  0
 45 46  2  0  0  0
 45114  1  0  0  0
 46115  1  0  0  0
 47116  1  0  0  0
 47117  1  0  0  0
 48 56  1  0  0  0
 48 65  1  0  0  0
 48118  1  0  0  0
 49 50  1  0  0  0
 49 53  1  0  0  0
 49 64  1  0  0  0
 49119  1  0  0  0
 50 51  1  0  0  0
 50120  1  0  0  0
 50121  1  0  0  0
 51 52  1  0  0  0
 51122  1  0  0  0
 51123  1  0  0  0
 52124  1  0  0  0
 52125  1  0  0  0
 53 54  1  0  0  0
 54 55  2  0  0  0
 54126  1  0  0  0
 55 57  1  0  0  0
 55127  1  0  0  0
 56 69  2  0  0  0
 57 58  2  0  0  0
 57128  1  0  0  0
 58129  1  0  0  0
 59 60  1  0  0  0
 59 61  1  0  0  0
 59 62  1  0  0  0
 60130  1  0  0  0
 60131  1  0  0  0
 60132  1  0  0  0
 61133  1  0  0  0
 61134  1  0  0  0
 61135  1  0  0  0
 62136  1  0  0  0
 62137  1  0  0  0
 62138  1  0  0  0
 63 65  1  0  0  0
 63139  1  0  0  0
 63140  1  0  0  0
 63141  1  0  0  0
 64142  1  0  0  0
 65143  1  0  0  0
 68 81  1  0  0  0
 71 72  2  0  0  0
 71 73  1  0  0  0
 71144  1  0  0  0
 72 74  1  0  0  0
 72 78  1  0  0  0
 73 82  1  0  0  0
 73 83  2  0  0  0
 74 75  1  0  0  0
 74 84  2  0  0  0
 75145  1  0  0  0
 75146  1  0  0  0
 75147  1  0  0  0
 76148  1  0  0  0
 76149  1  0  0  0
 76150  1  0  0  0
 76 82  1  0  0  0
 77 82  1  0  0  0
 77151  1  0  0  0
 77152  1  0  0  0
 77153  1  0  0  0
 78 80  1  0  0  0
 78154  1  0  0  0
 78155  1  0  0  0
 79 82  1  0  0  0
 79156  1  0  0  0
 79157  1  0  0  0
 80 81  1  0  0  0
 80158  1  0  0  0
 80159  1  0  0  0
 81160  1  0  0  0
 81161  1  0  0  0
 83 84  1  0  0  0
M  ISO  4   1 100  68 101  79 100  81 101
M  END
> <chiral flag>
0

> <version>
0

> <s_m_source_file>
/data/baiqing/PycharmProjects/Reinvent-master-3.2/result/LINK_invent/BTK/process_docking_weight1_custom_sum_contain_oxygen_bond_distance_aromatic_linkinvent_7_9_3/rearranged_h_0074.sdf

> <i_m_source_file_index>
48

> <r_mmod_Potential_Energy-OPLS-2005>
122.485870361328

> <r_mmod_Stretch_Energy-OPLS-2005>
95.2386474609375

> <r_mmod_Bend_Energy-OPLS-2005>
164.189483642578

> <r_mmod_Torsional_Energy-OPLS-2005>
172.443649291992

> <r_mmod_Improper_Torsional_Energy-OPLS-2005>
3.06053805351257

> <r_mmod_Van_der_Waal_Energy-OPLS-2005>
161.704681396484

> <r_mmod_Electrostatic_Energy-OPLS-2005>
-323.365081787109

> <r_mmod_Solvation_Energy-OPLS-2005>
-219.375381469727

> <b_mmod_Minimization_Converged-OPLS-2005>
0

> <r_mmod_RMS_Derivative-OPLS-2005>
6.76995086669922

$$$$
48
                    3D
 Structure written by MMmdl.
172180  0  0  1  0            999 V2000
  -30.7038  -14.5608   20.4601 C   0  0  0  0  0  0
  -30.4408  -12.3177   19.4582 C   0  0  0  0  0  0
  -29.5165  -12.4091   18.2219 C   0  0  0  0  0  0
  -28.0199  -12.3387   18.6125 C   0  0  0  0  0  0
  -27.6474  -13.1792   19.8649 C   0  0  2  0  0  0
  -28.7110  -13.0100   20.9729 C   0  0  0  0  0  0
  -25.2551  -13.8014   20.5670 C   0  0  0  0  0  0
  -24.1777  -13.0344   20.9183 C   0  0  0  0  0  0
  -24.6319  -11.6806   20.8784 C   0  0  0  0  0  0
  -23.8986  -10.4235   21.0448 C   0  0  0  0  0  0
  -24.3542   -9.4146   21.9219 C   0  0  0  0  0  0
  -23.6216   -8.2182   22.0769 C   0  0  0  0  0  0
  -22.4208   -8.0229   21.3546 C   0  0  0  0  0  0
  -21.9826   -9.0223   20.4663 C   0  0  0  0  0  0
  -22.7160  -10.2103   20.3081 C   0  0  0  0  0  0
  -21.6830   -6.0684   22.5295 C   0  0  0  0  0  0
  -21.4001   -6.5581   23.8222 C   0  0  0  0  0  0
  -21.3642   -5.6727   24.9185 C   0  0  0  0  0  0
  -21.6037   -4.2995   24.7229 C   0  0  0  0  0  0
  -21.8827   -3.8087   23.4358 C   0  0  0  0  0  0
  -21.9187   -4.6917   22.3411 C   0  0  0  0  0  0
  -22.7827  -13.5249   21.1836 C   0  0  0  0  0  0
  -22.1675   -4.2104   21.0992 F   0  0  0  0  0  0
  -21.5638   -3.4492   25.7748 F   0  0  0  0  0  0
  -30.0323  -13.3603   20.4219 N   0  0  0  0  0  0
  -26.2964  -12.9117   20.3386 N   0  0  0  0  0  0
  -25.9251  -11.6323   20.5825 N   0  0  0  0  0  0
  -22.0333  -12.8381   22.0394 N   0  0  0  0  0  0
  -25.4211  -15.1741   20.4056 N   0  0  0  0  0  0
  -31.8969  -14.5916   20.1542 O   0  0  0  0  0  0
  -21.6569   -6.8846   21.4262 O   0  0  0  0  0  0
  -22.3636  -14.5622   20.6706 O   0  0  0  0  0  0
  -24.6151  -31.8666   23.2094 C   0  0  0  0  0  0
  -25.9056  -32.4799   23.8382 C   0  0  1  0  0  0
  -27.2471  -27.4273   20.0957 C   0  0  0  0  0  0
  -25.5922  -33.8601   24.2313 N   0  0  0  0  0  0
  -23.4027  -30.4883   21.5497 C   0  0  2  0  0  0
  -24.8502  -28.9522   20.1144 C   0  0  0  0  0  0
  -22.7424  -29.4633   22.4994 C   0  0  0  0  0  0
  -18.0286  -28.1359   22.8485 C   0  0  0  0  0  0
  -24.1497  -36.7285   23.2643 C   0  0  0  0  0  0
  -25.9318  -30.8260   21.3679 C   0  0  0  0  0  0
  -26.0080  -29.4631   20.7097 C   0  0  0  0  0  0
  -27.2028  -28.7085   20.6951 C   0  0  0  0  0  0
  -26.0665  -26.9339   19.4897 C   0  0  0  0  0  0
  -24.8756  -27.6881   19.5017 C   0  0  0  0  0  0
  -23.6102  -29.8178   20.1655 C   0  0  0  0  0  0
  -25.4122  -36.3098   24.0344 C   0  0  1  0  0  0
  -20.5873  -28.3644   23.1327 C   0  0  2  0  0  0
  -20.6776  -26.9378   22.5419 C   0  0  0  0  0  0
  -19.5759  -26.6363   21.5214 C   0  0  0  0  0  0
  -18.1935  -26.7905   22.1614 C   0  0  0  0  0  0
  -19.1528  -28.8819   23.2897 C   0  0  0  0  0  0
  -18.9454  -30.1431   23.8899 C   0  0  0  0  0  0
  -17.6452  -30.6572   24.0549 C   0  0  0  0  0  0
  -25.9055  -34.9467   23.5121 C   0  0  0  0  0  0
  -16.5349  -29.9061   23.6327 C   0  0  0  0  0  0
  -16.7265  -28.6474   23.0351 C   0  0  0  0  0  0
  -26.4500  -31.6586   25.0710 C   0  0  0  0  0  0
  -25.3765  -31.3667   26.1451 C   0  0  0  0  0  0
  -27.0354  -30.3040   24.6085 C   0  0  0  0  0  0
  -27.6085  -32.4314   25.7451 C   0  0  0  0  0  0
  -27.5589  -37.1801   24.8475 C   0  0  0  0  0  0
  -21.4147  -29.3012   22.3736 N   0  0  0  0  0  0
  -26.4307  -37.3785   23.9414 N   0  0  0  0  0  0
  -24.6672  -31.0773   22.0988 N   0  0  0  0  0  0
  -23.4194  -28.8181   23.3037 O   0  0  0  0  0  0
  -28.4523  -26.7462   20.1351 O   0  0  0  0  0  0
  -26.5603  -34.8915   22.4676 O   0  0  0  0  0  0
  -23.5351  -32.1431   23.7491 O   0  0  0  0  0  0
  -29.4194  -19.0469   19.2606 C   0  0  0  0  0  0
  -30.3080  -18.6351   20.3009 C   0  0  0  0  0  0
  -29.0403  -20.3198   19.5584 C   0  0  0  0  0  0
  -28.0078  -21.1537   18.8698 C   0  0  0  0  0  0
  -29.2830  -15.7876   23.0498 C   0  0  0  0  0  0
  -31.9778  -17.2775   21.7070 C   0  0  0  0  0  0
  -30.7413  -22.1314   22.5171 C   0  0  0  0  0  0
  -29.3043  -16.0539   19.0790 C   0  0  0  0  0  0
  -28.8924  -16.1358   21.5990 C   0  0  0  0  0  0
  -29.4307  -24.6144   20.8308 C   0  0  0  0  0  0
  -30.0102  -23.2499   20.3542 C   0  0  0  0  0  0
  -28.5618  -25.3582   19.7824 C   0  0  0  0  0  0
  -30.9726  -17.2426   20.5241 C   0  0  1  0  0  0
  -29.7716  -22.0455   21.3207 C   0  0  1  0  0  0
  -29.9789  -15.9764   20.4826 C   0  0  2  0  0  0
  -30.5347  -19.6764   21.1134 N   0  0  0  0  0  0
  -29.7992  -20.7290   20.6408 N   0  0  0  0  0  0
  -31.4791  -12.4150   19.1400 H   0  0  0  0  0  0
  -30.3788  -11.3288   19.9172 H   0  0  0  0  0  0
  -29.7476  -11.5901   17.5385 H   0  0  0  0  0  0
  -29.7401  -13.3098   17.6534 H   0  0  0  0  0  0
  -27.7934  -11.2912   18.8036 H   0  0  0  0  0  0
  -27.3921  -12.6277   17.7689 H   0  0  0  0  0  0
  -27.6157  -14.2102   19.5511 H   0  0  0  0  0  0
  -28.4497  -13.5541   21.8744 H   0  0  0  0  0  0
  -28.7245  -11.9679   21.2965 H   0  0  0  0  0  0
  -25.2677   -9.5625   22.4807 H   0  0  0  0  0  0
  -23.9877   -7.4592   22.7538 H   0  0  0  0  0  0
  -21.0709   -8.8776   19.9020 H   0  0  0  0  0  0
  -22.3615  -10.9661   19.6203 H   0  0  0  0  0  0
  -21.2012   -7.6079   23.9750 H   0  0  0  0  0  0
  -21.1456   -6.0432   25.9094 H   0  0  0  0  0  0
  -22.0635   -2.7554   23.2877 H   0  0  0  0  0  0
  -22.3658  -11.9887   22.4715 H   0  0  0  0  0  0
  -21.1104  -13.1773   22.2715 H   0  0  0  0  0  0
  -24.6475  -15.8216   20.5067 H   0  0  0  0  0  0
  -26.2804  -15.6245   20.1197 H   0  0  0  0  0  0
  -26.7100  -32.5495   23.1121 H   0  0  0  0  0  0
  -25.0129  -33.9755   25.0495 H   0  0  0  0  0  0
  -22.6908  -31.3050   21.4109 H   0  0  0  0  0  0
  -23.3770  -35.9609   23.3333 H   0  0  0  0  0  0
  -24.3590  -36.8866   22.2051 H   0  0  0  0  0  0
  -23.7238  -37.6493   23.6634 H   0  0  0  0  0  0
  -26.0616  -31.5966   20.6081 H   0  0  0  0  0  0
  -26.8134  -30.8661   21.9950 H   0  0  0  0  0  0
  -28.0987  -29.1041   21.1536 H   0  0  0  0  0  0
  -26.0344  -25.9771   18.9914 H   0  0  0  0  0  0
  -23.9852  -27.2906   19.0346 H   0  0  0  0  0  0
  -23.7098  -30.5909   19.4024 H   0  0  0  0  0  0
  -22.7341  -29.2353   19.8733 H   0  0  0  0  0  0
  -25.1304  -36.1965   25.0837 H   0  0  0  0  0  0
  -20.9945  -28.3194   24.1458 H   0  0  0  0  0  0
  -20.5698  -26.2237   23.3598 H   0  0  0  0  0  0
  -21.6648  -26.7435   22.1205 H   0  0  0  0  0  0
  -19.6934  -25.6280   21.1233 H   0  0  0  0  0  0
  -19.6719  -27.3182   20.6752 H   0  0  0  0  0  0
  -17.4218  -26.6665   21.4000 H   0  0  0  0  0  0
  -18.0324  -26.0042   22.8998 H   0  0  0  0  0  0
  -19.7927  -30.7243   24.2274 H   0  0  0  0  0  0
  -17.5008  -31.6256   24.5137 H   0  0  0  0  0  0
  -15.5348  -30.2958   23.7660 H   0  0  0  0  0  0
  -15.8664  -28.0790   22.7081 H   0  0  0  0  0  0
  -24.5926  -30.7041   25.7756 H   0  0  0  0  0  0
  -24.8971  -32.2811   26.4953 H   0  0  0  0  0  0
  -25.8121  -30.8771   27.0169 H   0  0  0  0  0  0
  -26.2884  -29.6742   24.1229 H   0  0  0  0  0  0
  -27.4247  -29.7331   25.4528 H   0  0  0  0  0  0
  -27.8671  -30.4382   23.9162 H   0  0  0  0  0  0
  -27.2720  -33.3600   26.2071 H   0  0  0  0  0  0
  -28.3861  -32.6896   25.0247 H   0  0  0  0  0  0
  -28.0798  -31.8412   26.5319 H   0  0  0  0  0  0
  -28.2630  -38.0077   24.7519 H   0  0  0  0  0  0
  -28.1069  -36.2616   24.6326 H   0  0  0  0  0  0
  -27.2304  -37.1468   25.8877 H   0  0  0  0  0  0
  -20.9322  -29.8723   21.6942 H   0  0  0  0  0  0
  -26.0203  -38.2870   24.1401 H   0  0  0  0  0  0
  -29.0403  -18.4939   18.4168 H   0  0  0  0  0  0
  -27.1980  -20.5292   18.4934 H   0  0  0  0  0  0
  -28.4307  -21.6808   18.0136 H   0  0  0  0  0  0
  -27.5671  -21.8854   19.5472 H   0  0  0  0  0  0
  -29.9047  -16.5517   23.5075 H   0  0  0  0  0  0
  -29.8158  -14.8406   23.1294 H   0  0  0  0  0  0
  -28.3830  -15.7087   23.6619 H   0  0  0  0  0  0
  -32.8162  -17.9394   21.4828 H   0  0  0  0  0  0
  -32.4115  -16.3039   21.9321 H   0  0  0  0  0  0
  -31.5241  -17.6491   22.6224 H   0  0  0  0  0  0
  -31.7791  -22.0275   22.1979 H   0  0  0  0  0  0
  -30.5375  -21.3577   23.2585 H   0  0  0  0  0  0
  -30.6491  -23.0915   23.0241 H   0  0  0  0  0  0
  -29.1548  -15.1066   18.5833 H   0  0  0  0  0  0
  -29.9292  -16.5711   18.3522 H   0  0  0  0  0  0
  -28.3318  -16.5425   19.1174 H   0  0  0  0  0  0
  -28.5139  -17.1579   21.6010 H   0  0  0  0  0  0
  -28.0091  -15.5638   21.3411 H   0  0  0  0  0  0
  -30.2628  -25.2552   21.1279 H   0  0  0  0  0  0
  -28.8353  -24.4846   21.7359 H   0  0  0  0  0  0
  -31.0818  -23.3621   20.1845 H   0  0  0  0  0  0
  -29.6216  -23.0485   19.3607 H   0  0  0  0  0  0
  -27.6125  -24.8326   19.7141 H   0  0  0  0  0  0
  -29.0267  -25.3049   18.7972 H   0  0  0  0  0  0
  -31.6324  -17.1058   19.6660 H   0  0  0  0  0  0
  -28.7608  -22.1346   21.7160 H   0  0  0  0  0  0
  1 25  1  0  0  0
  1 30  2  0  0  0
  1 85  1  0  0  0
  2  3  1  0  0  0
  2 25  1  0  0  0
  2 88  1  0  0  0
  2 89  1  0  0  0
  3  4  1  0  0  0
  3 90  1  0  0  0
  3 91  1  0  0  0
  4  5  1  0  0  0
  4 92  1  0  0  0
  4 93  1  0  0  0
  5  6  1  0  0  0
  5 26  1  0  0  0
  5 94  1  0  0  0
  6 25  1  0  0  0
  6 95  1  0  0  0
  6 96  1  0  0  0
  7  8  2  0  0  0
  7 26  1  0  0  0
  7 29  1  0  0  0
  8  9  1  0  0  0
  8 22  1  0  0  0
  9 10  1  0  0  0
  9 27  2  0  0  0
 10 11  2  0  0  0
 10 15  1  0  0  0
 11 12  1  0  0  0
 11 97  1  0  0  0
 12 13  2  0  0  0
 12 98  1  0  0  0
 13 14  1  0  0  0
 13 31  1  0  0  0
 14 15  2  0  0  0
 14 99  1  0  0  0
 15100  1  0  0  0
 16 17  2  0  0  0
 16 21  1  0  0  0
 16 31  1  0  0  0
 17 18  1  0  0  0
 17101  1  0  0  0
 18 19  2  0  0  0
 18102  1  0  0  0
 19 20  1  0  0  0
 19 24  1  0  0  0
 20 21  2  0  0  0
 20103  1  0  0  0
 21 23  1  0  0  0
 22 28  1  0  0  0
 22 32  2  0  0  0
 26 27  1  0  0  0
 28104  1  0  0  0
 28105  1  0  0  0
 29106  1  0  0  0
 29107  1  0  0  0
 33 34  1  0  0  0
 33 66  1  0  0  0
 33 70  2  0  0  0
 34 36  1  0  0  0
 34 59  1  0  0  0
 34108  1  0  0  0
 35 44  2  0  0  0
 35 45  1  0  0  0
 35 68  1  0  0  0
 36 56  1  0  0  0
 36109  1  0  0  0
 37 39  1  0  0  0
 37 47  1  0  0  0
 37 66  1  0  0  0
 37110  1  0  0  0
 38 43  2  0  0  0
 38 46  1  0  0  0
 38 47  1  0  0  0
 39 64  1  0  0  0
 39 67  2  0  0  0
 40 52  1  0  0  0
 40 53  2  0  0  0
 40 58  1  0  0  0
 41111  1  0  0  0
 41112  1  0  0  0
 41113  1  0  0  0
 41 48  1  0  0  0
 42 43  1  0  0  0
 42 66  1  0  0  0
 42114  1  0  0  0
 42115  1  0  0  0
 43 44  1  0  0  0
 44116  1  0  0  0
 45 46  2  0  0  0
 45117  1  0  0  0
 46118  1  0  0  0
 47119  1  0  0  0
 47120  1  0  0  0
 48 56  1  0  0  0
 48 65  1  0  0  0
 48121  1  0  0  0
 49 50  1  0  0  0
 49 53  1  0  0  0
 49 64  1  0  0  0
 49122  1  0  0  0
 50 51  1  0  0  0
 50123  1  0  0  0
 50124  1  0  0  0
 51 52  1  0  0  0
 51125  1  0  0  0
 51126  1  0  0  0
 52127  1  0  0  0
 52128  1  0  0  0
 53 54  1  0  0  0
 54 55  2  0  0  0
 54129  1  0  0  0
 55 57  1  0  0  0
 55130  1  0  0  0
 56 69  2  0  0  0
 57 58  2  0  0  0
 57131  1  0  0  0
 58132  1  0  0  0
 59 60  1  0  0  0
 59 61  1  0  0  0
 59 62  1  0  0  0
 60133  1  0  0  0
 60134  1  0  0  0
 60135  1  0  0  0
 61136  1  0  0  0
 61137  1  0  0  0
 61138  1  0  0  0
 62139  1  0  0  0
 62140  1  0  0  0
 62141  1  0  0  0
 63 65  1  0  0  0
 63142  1  0  0  0
 63143  1  0  0  0
 63144  1  0  0  0
 64145  1  0  0  0
 65146  1  0  0  0
 68 82  1  0  0  0
 71 72  1  0  0  0
 71 73  2  0  0  0
 71147  1  0  0  0
 72 83  1  0  0  0
 72 86  2  0  0  0
 73 74  1  0  0  0
 73 87  1  0  0  0
 74148  1  0  0  0
 74149  1  0  0  0
 74150  1  0  0  0
 75 79  1  0  0  0
 75151  1  0  0  0
 75152  1  0  0  0
 75153  1  0  0  0
 76154  1  0  0  0
 76155  1  0  0  0
 76156  1  0  0  0
 76 83  1  0  0  0
 77157  1  0  0  0
 77158  1  0  0  0
 77159  1  0  0  0
 77 84  1  0  0  0
 78160  1  0  0  0
 78161  1  0  0  0
 78162  1  0  0  0
 78 85  1  0  0  0
 79 85  1  0  0  0
 79163  1  0  0  0
 79164  1  0  0  0
 80 81  1  0  0  0
 80 82  1  0  0  0
 80165  1  0  0  0
 80166  1  0  0  0
 81 84  1  0  0  0
 81167  1  0  0  0
 81168  1  0  0  0
 82169  1  0  0  0
 82170  1  0  0  0
 83 85  1  0  0  0
 83171  1  0  0  0
 84 87  1  0  0  0
 84172  1  0  0  0
 86 87  1  0  0  0
M  ISO  4   1 100  68 101  82 101  85 100
M  END
> <chiral flag>
0

> <version>
0

> <s_m_source_file>
/data/baiqing/PycharmProjects/Reinvent-master-3.2/result/LINK_invent/BTK/process_docking_weight1_custom_sum_contain_oxygen_bond_distance_aromatic_linkinvent_7_9_3/rearranged_h_0074.sdf

> <i_m_source_file_index>
49

> <r_mmod_Potential_Energy-OPLS-2005>
150.262908935547

> <r_mmod_Stretch_Energy-OPLS-2005>
62.5285568237305

> <r_mmod_Bend_Energy-OPLS-2005>
155.463760375977

> <r_mmod_Torsional_Energy-OPLS-2005>
250.282089233398

> <r_mmod_Improper_Torsional_Energy-OPLS-2005>
9.63340377807617

> <r_mmod_Van_der_Waal_Energy-OPLS-2005>
166.882064819336

> <r_mmod_Electrostatic_Energy-OPLS-2005>
-336.361785888672

> <r_mmod_Solvation_Energy-OPLS-2005>
-185.540740966797

> <b_mmod_Minimization_Converged-OPLS-2005>
0

> <r_mmod_RMS_Derivative-OPLS-2005>
3.5896852016449

$$$$
49
                    3D
 Structure written by MMmdl.
165173  0  0  1  0            999 V2000
  -30.6203  -14.7212   20.6191 C   0  0  0  0  0  0
  -30.4455  -12.4907   19.4482 C   0  0  0  0  0  0
  -29.5081  -12.5691   18.2203 C   0  0  0  0  0  0
  -28.0286  -12.3875   18.6176 C   0  0  0  0  0  0
  -27.6530  -13.2192   19.8718 C   0  0  2  0  0  0
  -28.6972  -12.9905   20.9773 C   0  0  0  0  0  0
  -25.2549  -13.8161   20.5679 C   0  0  0  0  0  0
  -24.1826  -13.0432   20.9176 C   0  0  0  0  0  0
  -24.6387  -11.6897   20.8719 C   0  0  0  0  0  0
  -23.9069  -10.4283   21.0389 C   0  0  0  0  0  0
  -24.3627   -9.4205   21.9174 C   0  0  0  0  0  0
  -23.6301   -8.2242   22.0754 C   0  0  0  0  0  0
  -22.4280   -8.0274   21.3548 C   0  0  0  0  0  0
  -21.9920   -9.0246   20.4658 C   0  0  0  0  0  0
  -22.7244  -10.2120   20.3051 C   0  0  0  0  0  0
  -21.6860   -6.0733   22.5290 C   0  0  0  0  0  0
  -21.4019   -6.5633   23.8219 C   0  0  0  0  0  0
  -21.3666   -5.6780   24.9178 C   0  0  0  0  0  0
  -21.6040   -4.3045   24.7234 C   0  0  0  0  0  0
  -21.8824   -3.8144   23.4356 C   0  0  0  0  0  0
  -21.9199   -4.6962   22.3410 C   0  0  0  0  0  0
  -22.7850  -13.5225   21.1858 C   0  0  0  0  0  0
  -22.1673   -4.2151   21.0985 F   0  0  0  0  0  0
  -21.5629   -3.4525   25.7748 F   0  0  0  0  0  0
  -29.9913  -13.4847   20.4667 N   0  0  0  0  0  0
  -26.2981  -12.9349   20.3320 N   0  0  0  0  0  0
  -25.9317  -11.6501   20.5726 N   0  0  0  0  0  0
  -22.0505  -12.8214   22.0417 N   0  0  0  0  0  0
  -25.4232  -15.1894   20.4107 N   0  0  0  0  0  0
  -31.6960  -14.8580   20.0199 O   0  0  0  0  0  0
  -21.6647   -6.8877   21.4248 O   0  0  0  0  0  0
  -22.3534  -14.5532   20.6699 O   0  0  0  0  0  0
  -24.6273  -31.8570   23.1956 C   0  0  0  0  0  0
  -25.9122  -32.4753   23.8304 C   0  0  1  0  0  0
  -27.2287  -27.2771   20.1131 C   0  0  0  0  0  0
  -25.5934  -33.8557   24.2240 N   0  0  0  0  0  0
  -23.4224  -30.4788   21.5393 C   0  0  2  0  0  0
  -24.8678  -28.9235   20.1075 C   0  0  0  0  0  0
  -22.7465  -29.4614   22.4890 C   0  0  0  0  0  0
  -18.0284  -28.1366   22.8484 C   0  0  0  0  0  0
  -24.1490  -36.7271   23.2645 C   0  0  0  0  0  0
  -25.9660  -30.7734   21.3723 C   0  0  0  0  0  0
  -26.0388  -29.3972   20.7112 C   0  0  0  0  0  0
  -27.2153  -28.5852   20.7035 C   0  0  0  0  0  0
  -26.0271  -26.8569   19.4995 C   0  0  0  0  0  0
  -24.8676  -27.6602   19.4948 C   0  0  0  0  0  0
  -23.6370  -29.8093   20.1563 C   0  0  0  0  0  0
  -25.4117  -36.3059   24.0326 C   0  0  1  0  0  0
  -20.5882  -28.3674   23.1250 C   0  0  2  0  0  0
  -20.6762  -26.9394   22.5390 C   0  0  0  0  0  0
  -19.5745  -26.6360   21.5180 C   0  0  0  0  0  0
  -18.1925  -26.7907   22.1606 C   0  0  0  0  0  0
  -19.1544  -28.8829   23.2866 C   0  0  0  0  0  0
  -18.9476  -30.1423   23.8886 C   0  0  0  0  0  0
  -17.6484  -30.6570   24.0550 C   0  0  0  0  0  0
  -25.9063  -34.9437   23.5079 C   0  0  0  0  0  0
  -16.5368  -29.9075   23.6332 C   0  0  0  0  0  0
  -16.7275  -28.6483   23.0352 C   0  0  0  0  0  0
  -26.4495  -31.6577   25.0697 C   0  0  0  0  0  0
  -25.3710  -31.3741   26.1414 C   0  0  0  0  0  0
  -27.0369  -30.3000   24.6191 C   0  0  0  0  0  0
  -27.6036  -32.4321   25.7472 C   0  0  0  0  0  0
  -27.5570  -37.1786   24.8468 C   0  0  0  0  0  0
  -21.4174  -29.3039   22.3652 N   0  0  0  0  0  0
  -26.4281  -37.3762   23.9412 N   0  0  0  0  0  0
  -24.6907  -31.0545   22.0919 N   0  0  0  0  0  0
  -23.4175  -28.8153   23.2974 O   0  0  0  0  0  0
  -28.3656  -26.4409   20.1952 O   0  0  0  0  0  0
  -26.5639  -34.8915   22.4649 O   0  0  0  0  0  0
  -23.5433  -32.1388   23.7267 O   0  0  0  0  0  0
  -29.3292  -19.5406   20.6002 C   0  0  0  0  0  0
  -29.8633  -17.4026   20.8898 C   0  0  0  0  0  0
  -31.3861  -19.6061   23.1762 C   0  0  0  0  0  0
  -29.7989  -25.1744   18.7965 C   0  0  0  0  0  0
  -31.4535  -16.1302   22.4741 C   0  0  0  0  0  0
  -29.0034  -15.6526   22.5005 C   0  0  0  0  0  0
  -28.8713  -21.0226   20.9494 C   0  0  0  0  0  0
  -28.9742  -22.2956   19.9662 C   0  0  0  0  0  0
  -28.5556  -23.7589   20.5463 C   0  0  0  0  0  0
  -29.9947  -18.9930   22.9499 C   0  0  0  0  0  0
  -28.4956  -25.0708   19.5981 C   0  0  2  0  0  0
  -30.1929  -15.9857   21.5764 C   0  0  0  0  0  0
  -29.1512  -18.9188   19.4253 N   0  0  0  0  0  0
  -29.5018  -17.5694   19.6055 N   0  0  0  0  0  0
  -29.7645  -18.6350   21.5470 N   0  0  0  0  0  0
  -31.4761  -12.6492   19.1268 H   0  0  0  0  0  0
  -30.4463  -11.4811   19.8633 H   0  0  0  0  0  0
  -29.7916  -11.8186   17.4814 H   0  0  0  0  0  0
  -29.6368  -13.5385   17.7359 H   0  0  0  0  0  0
  -27.8595  -11.3275   18.8133 H   0  0  0  0  0  0
  -27.3780  -12.6503   17.7831 H   0  0  0  0  0  0
  -27.6900  -14.2715   19.5876 H   0  0  0  0  0  0
  -28.7625  -11.9196   21.1779 H   0  0  0  0  0  0
  -28.3673  -13.3698   21.9307 H   0  0  0  0  0  0
  -25.2780   -9.5688   22.4735 H   0  0  0  0  0  0
  -24.0028   -7.4635   22.7462 H   0  0  0  0  0  0
  -21.0859   -8.8759   19.8967 H   0  0  0  0  0  0
  -22.3710  -10.9649   19.6149 H   0  0  0  0  0  0
  -21.2010   -7.6142   23.9735 H   0  0  0  0  0  0
  -21.1485   -6.0503   25.9079 H   0  0  0  0  0  0
  -22.0601   -2.7612   23.2856 H   0  0  0  0  0  0
  -22.4121  -11.9889   22.4833 H   0  0  0  0  0  0
  -21.1108  -13.1218   22.2604 H   0  0  0  0  0  0
  -24.6505  -15.8384   20.5176 H   0  0  0  0  0  0
  -26.2711  -15.6358   20.0859 H   0  0  0  0  0  0
  -26.7179  -32.5408   23.1037 H   0  0  0  0  0  0
  -25.0086  -33.9703   25.0395 H   0  0  0  0  0  0
  -22.7185  -31.3012   21.3929 H   0  0  0  0  0  0
  -23.3752  -35.9602   23.3310 H   0  0  0  0  0  0
  -24.3577  -36.8894   22.2057 H   0  0  0  0  0  0
  -23.7237  -37.6466   23.6675 H   0  0  0  0  0  0
  -26.1087  -31.5380   20.6075 H   0  0  0  0  0  0
  -26.8414  -30.8180   22.0083 H   0  0  0  0  0  0
  -28.1121  -28.9487   21.1854 H   0  0  0  0  0  0
  -25.9336  -25.8843   19.0442 H   0  0  0  0  0  0
  -23.9669  -27.2852   19.0282 H   0  0  0  0  0  0
  -23.7545  -30.5849   19.3983 H   0  0  0  0  0  0
  -22.7542  -29.2410   19.8554 H   0  0  0  0  0  0
  -25.1299  -36.1902   25.0817 H   0  0  0  0  0  0
  -20.9993  -28.3256   24.1357 H   0  0  0  0  0  0
  -20.5594  -26.2310   23.3602 H   0  0  0  0  0  0
  -21.6641  -26.7375   22.1230 H   0  0  0  0  0  0
  -19.6918  -25.6257   21.1227 H   0  0  0  0  0  0
  -19.6680  -27.3146   20.6684 H   0  0  0  0  0  0
  -17.4192  -26.6620   21.4014 H   0  0  0  0  0  0
  -18.0362  -26.0032   22.8993 H   0  0  0  0  0  0
  -19.7954  -30.7222   24.2256 H   0  0  0  0  0  0
  -17.5051  -31.6261   24.5131 H   0  0  0  0  0  0
  -15.5368  -30.2984   23.7645 H   0  0  0  0  0  0
  -15.8668  -28.0791   22.7090 H   0  0  0  0  0  0
  -24.5858  -30.7130   25.7731 H   0  0  0  0  0  0
  -24.8932  -32.2937   26.4817 H   0  0  0  0  0  0
  -25.8001  -30.8915   27.0203 H   0  0  0  0  0  0
  -26.2982  -29.6712   24.1210 H   0  0  0  0  0  0
  -27.4078  -29.7288   25.4717 H   0  0  0  0  0  0
  -27.8838  -30.4298   23.9444 H   0  0  0  0  0  0
  -27.2642  -33.3620   26.2041 H   0  0  0  0  0  0
  -28.3857  -32.6885   25.0312 H   0  0  0  0  0  0
  -28.0708  -31.8459   26.5397 H   0  0  0  0  0  0
  -28.2587  -38.0081   24.7517 H   0  0  0  0  0  0
  -28.1068  -36.2613   24.6297 H   0  0  0  0  0  0
  -27.2304  -37.1440   25.8877 H   0  0  0  0  0  0
  -20.9343  -29.8814   21.6913 H   0  0  0  0  0  0
  -26.0159  -38.2838   24.1406 H   0  0  0  0  0  0
  -31.5099  -20.5405   22.6294 H   0  0  0  0  0  0
  -32.1795  -18.9300   22.8571 H   0  0  0  0  0  0
  -31.5446  -19.8199   24.2346 H   0  0  0  0  0  0
  -29.9765  -24.2747   18.2073 H   0  0  0  0  0  0
  -30.6563  -25.3163   19.4563 H   0  0  0  0  0  0
  -29.7670  -26.0128   18.0998 H   0  0  0  0  0  0
  -32.2723  -16.5909   21.9216 H   0  0  0  0  0  0
  -31.8092  -15.1602   22.8274 H   0  0  0  0  0  0
  -31.3005  -16.7103   23.3763 H   0  0  0  0  0  0
  -28.0895  -15.4873   21.9298 H   0  0  0  0  0  0
  -29.2207  -14.8004   23.1424 H   0  0  0  0  0  0
  -28.7559  -16.4549   23.1852 H   0  0  0  0  0  0
  -29.4150  -21.3304   21.8396 H   0  0  0  0  0  0
  -27.8342  -20.9463   21.2796 H   0  0  0  0  0  0
  -28.3720  -22.0874   19.0813 H   0  0  0  0  0  0
  -30.0046  -22.3509   19.6131 H   0  0  0  0  0  0
  -29.2319  -23.9838   21.3716 H   0  0  0  0  0  0
  -27.5746  -23.6569   21.0112 H   0  0  0  0  0  0
  -29.2236  -19.6935   23.2699 H   0  0  0  0  0  0
  -29.8411  -18.1495   23.6093 H   0  0  0  0  0  0
  -27.7168  -24.8976   18.8593 H   0  0  0  0  0  0
  1 25  1  0  0  0
  1 30  2  0  0  0
  1 82  1  0  0  0
  2  3  1  0  0  0
  2 25  1  0  0  0
  2 86  1  0  0  0
  2 87  1  0  0  0
  3  4  1  0  0  0
  3 88  1  0  0  0
  3 89  1  0  0  0
  4  5  1  0  0  0
  4 90  1  0  0  0
  4 91  1  0  0  0
  5  6  1  0  0  0
  5 26  1  0  0  0
  5 92  1  0  0  0
  6 25  1  0  0  0
  6 93  1  0  0  0
  6 94  1  0  0  0
  7  8  2  0  0  0
  7 26  1  0  0  0
  7 29  1  0  0  0
  8  9  1  0  0  0
  8 22  1  0  0  0
  9 10  1  0  0  0
  9 27  2  0  0  0
 10 11  2  0  0  0
 10 15  1  0  0  0
 11 12  1  0  0  0
 11 95  1  0  0  0
 12 13  2  0  0  0
 12 96  1  0  0  0
 13 14  1  0  0  0
 13 31  1  0  0  0
 14 15  2  0  0  0
 14 97  1  0  0  0
 15 98  1  0  0  0
 16 17  2  0  0  0
 16 21  1  0  0  0
 16 31  1  0  0  0
 17 18  1  0  0  0
 17 99  1  0  0  0
 18 19  2  0  0  0
 18100  1  0  0  0
 19 20  1  0  0  0
 19 24  1  0  0  0
 20 21  2  0  0  0
 20101  1  0  0  0
 21 23  1  0  0  0
 22 28  1  0  0  0
 22 32  2  0  0  0
 26 27  1  0  0  0
 28102  1  0  0  0
 28103  1  0  0  0
 29104  1  0  0  0
 29105  1  0  0  0
 33 34  1  0  0  0
 33 66  1  0  0  0
 33 70  2  0  0  0
 34 36  1  0  0  0
 34 59  1  0  0  0
 34106  1  0  0  0
 35 44  2  0  0  0
 35 45  1  0  0  0
 35 68  1  0  0  0
 36 56  1  0  0  0
 36107  1  0  0  0
 37 39  1  0  0  0
 37 47  1  0  0  0
 37 66  1  0  0  0
 37108  1  0  0  0
 38 43  2  0  0  0
 38 46  1  0  0  0
 38 47  1  0  0  0
 39 64  1  0  0  0
 39 67  2  0  0  0
 40 52  1  0  0  0
 40 53  2  0  0  0
 40 58  1  0  0  0
 41109  1  0  0  0
 41110  1  0  0  0
 41111  1  0  0  0
 41 48  1  0  0  0
 42 43  1  0  0  0
 42 66  1  0  0  0
 42112  1  0  0  0
 42113  1  0  0  0
 43 44  1  0  0  0
 44114  1  0  0  0
 45 46  2  0  0  0
 45115  1  0  0  0
 46116  1  0  0  0
 47117  1  0  0  0
 47118  1  0  0  0
 48 56  1  0  0  0
 48 65  1  0  0  0
 48119  1  0  0  0
 49 50  1  0  0  0
 49 53  1  0  0  0
 49 64  1  0  0  0
 49120  1  0  0  0
 50 51  1  0  0  0
 50121  1  0  0  0
 50122  1  0  0  0
 51 52  1  0  0  0
 51123  1  0  0  0
 51124  1  0  0  0
 52125  1  0  0  0
 52126  1  0  0  0
 53 54  1  0  0  0
 54 55  2  0  0  0
 54127  1  0  0  0
 55 57  1  0  0  0
 55128  1  0  0  0
 56 69  2  0  0  0
 57 58  2  0  0  0
 57129  1  0  0  0
 58130  1  0  0  0
 59 60  1  0  0  0
 59 61  1  0  0  0
 59 62  1  0  0  0
 60131  1  0  0  0
 60132  1  0  0  0
 60133  1  0  0  0
 61134  1  0  0  0
 61135  1  0  0  0
 61136  1  0  0  0
 62137  1  0  0  0
 62138  1  0  0  0
 62139  1  0  0  0
 63 65  1  0  0  0
 63140  1  0  0  0
 63141  1  0  0  0
 63142  1  0  0  0
 64143  1  0  0  0
 65144  1  0  0  0
 68 81  1  0  0  0
 71 77  1  0  0  0
 71 83  2  0  0  0
 71 85  1  0  0  0
 72 82  1  0  0  0
 72 84  2  0  0  0
 72 85  1  0  0  0
 73 80  1  0  0  0
 73145  1  0  0  0
 73146  1  0  0  0
 73147  1  0  0  0
 74148  1  0  0  0
 74149  1  0  0  0
 74150  1  0  0  0
 74 81  1  0  0  0
 75151  1  0  0  0
 75152  1  0  0  0
 75153  1  0  0  0
 75 82  1  0  0  0
 76 82  1  0  0  0
 76154  1  0  0  0
 76155  1  0  0  0
 76156  1  0  0  0
 77 78  1  0  0  0
 77157  1  0  0  0
 77158  1  0  0  0
 78 79  1  0  0  0
 78159  1  0  0  0
 78160  1  0  0  0
 79 81  1  0  0  0
 79161  1  0  0  0
 79162  1  0  0  0
 80 85  1  0  0  0
 80163  1  0  0  0
 80164  1  0  0  0
 81165  1  0  0  0
 83 84  1  0  0  0
M  ISO  4   1 100  68 101  81 101  82 100
M  END
> <chiral flag>
0

> <version>
0

> <s_m_source_file>
/data/baiqing/PycharmProjects/Reinvent-master-3.2/result/LINK_invent/BTK/process_docking_weight1_custom_sum_contain_oxygen_bond_distance_aromatic_linkinvent_7_9_3/rearranged_h_0074.sdf

> <i_m_source_file_index>
50

> <r_mmod_Potential_Energy-OPLS-2005>
291.856597900391

> <r_mmod_Stretch_Energy-OPLS-2005>
149.439147949219

> <r_mmod_Bend_Energy-OPLS-2005>
238.630905151367

> <r_mmod_Torsional_Energy-OPLS-2005>
196.673645019531

> <r_mmod_Improper_Torsional_Energy-OPLS-2005>
3.95915484428406

> <r_mmod_Van_der_Waal_Energy-OPLS-2005>
137.825164794922

> <r_mmod_Electrostatic_Energy-OPLS-2005>
-287.539123535156

> <r_mmod_Solvation_Energy-OPLS-2005>
-214.188980102539

> <b_mmod_Minimization_Converged-OPLS-2005>
0

> <r_mmod_RMS_Derivative-OPLS-2005>
2.48211574554443

$$$$
50
                    3D
 Structure written by MMmdl.
181189  0  0  1  0            999 V2000
  -30.6771  -14.5752   20.5609 C   0  0  0  0  0  0
  -30.4207  -12.3823   19.4224 C   0  0  0  0  0  0
  -29.4791  -12.5253   18.2049 C   0  0  0  0  0  0
  -28.0034  -12.3701   18.6235 C   0  0  0  0  0  0
  -27.6468  -13.2216   19.8674 C   0  0  2  0  0  0
  -28.6953  -13.0561   20.9845 C   0  0  0  0  0  0
  -25.2525  -13.8175   20.5713 C   0  0  0  0  0  0
  -24.1785  -13.0409   20.9226 C   0  0  0  0  0  0
  -24.6361  -11.6895   20.8722 C   0  0  0  0  0  0
  -23.9021  -10.4273   21.0391 C   0  0  0  0  0  0
  -24.3594   -9.4209   21.9181 C   0  0  0  0  0  0
  -23.6304   -8.2216   22.0732 C   0  0  0  0  0  0
  -22.4286   -8.0249   21.3514 C   0  0  0  0  0  0
  -21.9897   -9.0210   20.4606 C   0  0  0  0  0  0
  -22.7187  -10.2117   20.3048 C   0  0  0  0  0  0
  -21.6872   -6.0728   22.5261 C   0  0  0  0  0  0
  -21.4007   -6.5636   23.8185 C   0  0  0  0  0  0
  -21.3671   -5.6794   24.9165 C   0  0  0  0  0  0
  -21.6049   -4.3046   24.7222 C   0  0  0  0  0  0
  -21.8841   -3.8146   23.4337 C   0  0  0  0  0  0
  -21.9194   -4.6960   22.3391 C   0  0  0  0  0  0
  -22.7819  -13.5206   21.1905 C   0  0  0  0  0  0
  -22.1678   -4.2136   21.0981 F   0  0  0  0  0  0
  -21.5636   -3.4540   25.7746 F   0  0  0  0  0  0
  -30.0132  -13.3868   20.4188 N   0  0  0  0  0  0
  -26.2952  -12.9344   20.3401 N   0  0  0  0  0  0
  -25.9289  -11.6481   20.5754 N   0  0  0  0  0  0
  -22.0479  -12.8169   22.0466 N   0  0  0  0  0  0
  -25.4258  -15.1875   20.4063 N   0  0  0  0  0  0
  -31.8438  -14.7216   20.1882 O   0  0  0  0  0  0
  -21.6645   -6.8852   21.4215 O   0  0  0  0  0  0
  -22.3472  -14.5513   20.6797 O   0  0  0  0  0  0
  -24.6191  -31.8634   23.2133 C   0  0  0  0  0  0
  -25.9089  -32.4790   23.8405 C   0  0  1  0  0  0
  -27.2537  -27.4107   20.1379 C   0  0  0  0  0  0
  -25.5965  -33.8589   24.2339 N   0  0  0  0  0  0
  -23.4127  -30.4833   21.5480 C   0  0  2  0  0  0
  -24.8696  -28.9388   20.1246 C   0  0  0  0  0  0
  -22.7446  -29.4632   22.4984 C   0  0  0  0  0  0
  -18.0281  -28.1394   22.8479 C   0  0  0  0  0  0
  -24.1509  -36.7289   23.2638 C   0  0  0  0  0  0
  -25.9405  -30.8176   21.3791 C   0  0  0  0  0  0
  -26.0212  -29.4452   20.7399 C   0  0  0  0  0  0
  -27.2153  -28.6843   20.7595 C   0  0  0  0  0  0
  -26.0886  -26.9200   19.5195 C   0  0  0  0  0  0
  -24.8955  -27.6711   19.5164 C   0  0  0  0  0  0
  -23.6311  -29.8075   20.1649 C   0  0  0  0  0  0
  -25.4126  -36.3082   24.0337 C   0  0  1  0  0  0
  -20.5879  -28.3681   23.1322 C   0  0  2  0  0  0
  -20.6807  -26.9417   22.5434 C   0  0  0  0  0  0
  -19.5780  -26.6392   21.5242 C   0  0  0  0  0  0
  -18.1938  -26.7935   22.1614 C   0  0  0  0  0  0
  -19.1530  -28.8858   23.2894 C   0  0  0  0  0  0
  -18.9444  -30.1461   23.8904 C   0  0  0  0  0  0
  -17.6442  -30.6595   24.0568 C   0  0  0  0  0  0
  -25.9050  -34.9448   23.5110 C   0  0  0  0  0  0
  -16.5337  -29.9090   23.6335 C   0  0  0  0  0  0
  -16.7261  -28.6526   23.0321 C   0  0  0  0  0  0
  -26.4515  -31.6569   25.0731 C   0  0  0  0  0  0
  -25.3808  -31.3687   26.1500 C   0  0  0  0  0  0
  -27.0357  -30.3001   24.6142 C   0  0  0  0  0  0
  -27.6063  -32.4310   25.7500 C   0  0  0  0  0  0
  -27.5579  -37.1816   24.8451 C   0  0  0  0  0  0
  -21.4178  -29.3037   22.3727 N   0  0  0  0  0  0
  -26.4293  -37.3780   23.9392 N   0  0  0  0  0  0
  -24.6732  -31.0734   22.1027 N   0  0  0  0  0  0
  -23.4192  -28.8168   23.3052 O   0  0  0  0  0  0
  -28.4077  -26.6581   20.0454 O   0  0  0  0  0  0
  -26.5570  -34.8905   22.4648 O   0  0  0  0  0  0
  -23.5388  -32.1366   23.7540 O   0  0  0  0  0  0
  -30.6747  -19.8270   22.4203 C   0  0  0  0  0  0
  -30.7383  -21.1146   22.9763 C   0  0  0  0  0  0
  -30.0872  -19.6793   21.1521 C   0  0  0  0  0  0
  -29.7604  -22.0133   21.0991 C   0  0  0  0  0  0
  -31.1805  -25.0137   18.9869 C   0  0  0  0  0  0
  -32.7434  -20.8076   24.4619 C   0  0  0  0  0  0
  -30.3937  -20.6889   25.4110 C   0  0  0  0  0  0
  -31.3981  -22.8801   24.7170 C   0  0  0  0  0  0
  -30.6133  -18.1922   19.1438 C   0  0  0  0  0  0
  -28.3547  -18.0725   20.2569 C   0  0  0  0  0  0
  -28.8495  -23.0816   18.9688 C   0  0  0  0  0  0
  -30.9581  -23.9793   20.1109 C   0  0  0  0  0  0
  -28.5412  -24.3405   21.1178 C   0  0  0  0  0  0
  -30.3769  -17.0173   21.3643 C   0  0  0  0  0  0
  -28.7989  -25.8877   21.1970 C   0  0  0  0  0  0
  -31.3122  -21.3696   24.3791 C   0  0  0  0  0  0
  -29.8686  -18.2556   20.4938 C   0  0  0  0  0  0
  -29.5281  -23.3680   20.3291 C   0  0  2  0  0  0
  -30.2611  -22.1761   22.3132 N   0  0  0  0  0  0
  -29.6637  -20.8076   20.4942 N   0  0  0  0  0  0
  -29.9412  -15.6320   20.9881 N   0  0  0  0  0  0
  -31.4612  -12.5131   19.1174 H   0  0  0  0  0  0
  -30.3508  -11.3793   19.8487 H   0  0  0  0  0  0
  -29.7170  -11.7774   17.4472 H   0  0  0  0  0  0
  -29.6288  -13.4998   17.7385 H   0  0  0  0  0  0
  -27.8260  -11.3145   18.8273 H   0  0  0  0  0  0
  -27.3417  -12.6309   17.7970 H   0  0  0  0  0  0
  -27.6751  -14.2622   19.5442 H   0  0  0  0  0  0
  -28.6801  -12.0309   21.3572 H   0  0  0  0  0  0
  -28.4520  -13.6857   21.8405 H   0  0  0  0  0  0
  -25.2729   -9.5730   22.4782 H   0  0  0  0  0  0
  -24.0056   -7.4593   22.7430 H   0  0  0  0  0  0
  -21.0839   -8.8675   19.8876 H   0  0  0  0  0  0
  -22.3589  -10.9669   19.6192 H   0  0  0  0  0  0
  -21.1985   -7.6142   23.9684 H   0  0  0  0  0  0
  -21.1491   -6.0529   25.9067 H   0  0  0  0  0  0
  -22.0607   -2.7600   23.2851 H   0  0  0  0  0  0
  -22.4124  -11.9856   22.4907 H   0  0  0  0  0  0
  -21.1042  -13.1108   22.2564 H   0  0  0  0  0  0
  -24.6705  -15.8547   20.5293 H   0  0  0  0  0  0
  -26.2851  -15.6152   20.0874 H   0  0  0  0  0  0
  -26.7168  -32.5516   23.1175 H   0  0  0  0  0  0
  -25.0250  -33.9741   25.0575 H   0  0  0  0  0  0
  -22.7040  -31.3023   21.4020 H   0  0  0  0  0  0
  -23.3768  -35.9626   23.3301 H   0  0  0  0  0  0
  -24.3617  -36.8899   22.2054 H   0  0  0  0  0  0
  -23.7276  -37.6497   23.6647 H   0  0  0  0  0  0
  -26.0703  -31.5810   20.6124 H   0  0  0  0  0  0
  -26.8194  -30.8665   22.0089 H   0  0  0  0  0  0
  -28.0964  -29.0732   21.2507 H   0  0  0  0  0  0
  -26.1129  -25.9506   19.0441 H   0  0  0  0  0  0
  -24.0125  -27.2681   19.0414 H   0  0  0  0  0  0
  -23.7526  -30.5738   19.3989 H   0  0  0  0  0  0
  -22.7590  -29.2243   19.8666 H   0  0  0  0  0  0
  -25.1331  -36.1925   25.0836 H   0  0  0  0  0  0
  -20.9944  -28.3252   24.1451 H   0  0  0  0  0  0
  -20.5801  -26.2267   23.3611 H   0  0  0  0  0  0
  -21.6670  -26.7509   22.1177 H   0  0  0  0  0  0
  -19.6954  -25.6306   21.1277 H   0  0  0  0  0  0
  -19.6750  -27.3224   20.6792 H   0  0  0  0  0  0
  -17.4242  -26.6695   21.3981 H   0  0  0  0  0  0
  -18.0288  -26.0065   22.8988 H   0  0  0  0  0  0
  -19.7909  -30.7292   24.2279 H   0  0  0  0  0  0
  -17.4981  -31.6275   24.5164 H   0  0  0  0  0  0
  -15.5338  -30.2988   23.7677 H   0  0  0  0  0  0
  -15.8650  -28.0884   22.6984 H   0  0  0  0  0  0
  -24.5928  -30.7091   25.7845 H   0  0  0  0  0  0
  -24.9093  -32.2869   26.5016 H   0  0  0  0  0  0
  -25.8209  -30.8788   27.0199 H   0  0  0  0  0  0
  -26.2908  -29.6741   24.1212 H   0  0  0  0  0  0
  -27.4114  -29.7270   25.4626 H   0  0  0  0  0  0
  -27.8763  -30.4286   23.9317 H   0  0  0  0  0  0
  -27.2618  -33.3565   26.2128 H   0  0  0  0  0  0
  -28.3853  -32.6948   25.0334 H   0  0  0  0  0  0
  -28.0743  -31.8404   26.5385 H   0  0  0  0  0  0
  -28.2605  -38.0105   24.7505 H   0  0  0  0  0  0
  -28.1074  -36.2643   24.6287 H   0  0  0  0  0  0
  -27.2286  -37.1477   25.8849 H   0  0  0  0  0  0
  -20.9374  -29.8690   21.6865 H   0  0  0  0  0  0
  -26.0170  -38.2850   24.1400 H   0  0  0  0  0  0
  -31.0487  -18.9807   22.9778 H   0  0  0  0  0  0
  -32.2412  -25.2542   18.9085 H   0  0  0  0  0  0
  -30.6610  -25.9517   19.1597 H   0  0  0  0  0  0
  -30.8795  -24.6318   18.0132 H   0  0  0  0  0  0
  -32.7762  -19.7355   24.2784 H   0  0  0  0  0  0
  -33.1885  -20.9867   25.4402 H   0  0  0  0  0  0
  -33.3877  -21.2844   23.7214 H   0  0  0  0  0  0
  -30.3507  -19.6130   25.2466 H   0  0  0  0  0  0
  -29.3734  -21.0631   25.3217 H   0  0  0  0  0  0
  -30.7252  -20.8591   26.4360 H   0  0  0  0  0  0
  -32.0483  -23.4112   24.0208 H   0  0  0  0  0  0
  -31.7987  -23.0491   25.7171 H   0  0  0  0  0  0
  -30.4209  -23.3602   24.6786 H   0  0  0  0  0  0
  -30.2733  -18.9896   18.4824 H   0  0  0  0  0  0
  -30.4433  -17.2443   18.6314 H   0  0  0  0  0  0
  -31.6897  -18.3026   19.2763 H   0  0  0  0  0  0
  -27.9456  -18.8865   19.6561 H   0  0  0  0  0  0
  -27.8149  -18.0710   21.2038 H   0  0  0  0  0  0
  -28.1284  -17.1406   19.7385 H   0  0  0  0  0  0
  -29.4877  -22.4718   18.3303 H   0  0  0  0  0  0
  -28.6153  -24.0019   18.4328 H   0  0  0  0  0  0
  -27.9097  -22.5449   19.1102 H   0  0  0  0  0  0
  -31.3289  -24.3828   21.0554 H   0  0  0  0  0  0
  -31.6405  -23.1608   19.8797 H   0  0  0  0  0  0
  -27.5117  -24.1643   20.8034 H   0  0  0  0  0  0
  -28.5265  -24.0215   22.1584 H   0  0  0  0  0  0
  -29.9799  -17.1412   22.3714 H   0  0  0  0  0  0
  -31.4650  -17.0459   21.4631 H   0  0  0  0  0  0
  -29.8513  -26.0865   21.3950 H   0  0  0  0  0  0
  -28.2953  -26.2800   22.0831 H   0  0  0  0  0  0
  -28.9765  -15.4247   21.1906 H   0  0  0  0  0  0
  1 25  1  0  0  0
  1 30  2  0  0  0
  1 91  1  0  0  0
  2  3  1  0  0  0
  2 25  1  0  0  0
  2 92  1  0  0  0
  2 93  1  0  0  0
  3  4  1  0  0  0
  3 94  1  0  0  0
  3 95  1  0  0  0
  4  5  1  0  0  0
  4 96  1  0  0  0
  4 97  1  0  0  0
  5  6  1  0  0  0
  5 26  1  0  0  0
  5 98  1  0  0  0
  6 25  1  0  0  0
  6 99  1  0  0  0
  6100  1  0  0  0
  7  8  2  0  0  0
  7 26  1  0  0  0
  7 29  1  0  0  0
  8  9  1  0  0  0
  8 22  1  0  0  0
  9 10  1  0  0  0
  9 27  2  0  0  0
 10 11  2  0  0  0
 10 15  1  0  0  0
 11 12  1  0  0  0
 11101  1  0  0  0
 12 13  2  0  0  0
 12102  1  0  0  0
 13 14  1  0  0  0
 13 31  1  0  0  0
 14 15  2  0  0  0
 14103  1  0  0  0
 15104  1  0  0  0
 16 17  2  0  0  0
 16 21  1  0  0  0
 16 31  1  0  0  0
 17 18  1  0  0  0
 17105  1  0  0  0
 18 19  2  0  0  0
 18106  1  0  0  0
 19 20  1  0  0  0
 19 24  1  0  0  0
 20 21  2  0  0  0
 20107  1  0  0  0
 21 23  1  0  0  0
 22 28  1  0  0  0
 22 32  2  0  0  0
 26 27  1  0  0  0
 28108  1  0  0  0
 28109  1  0  0  0
 29110  1  0  0  0
 29111  1  0  0  0
 33 34  1  0  0  0
 33 66  1  0  0  0
 33 70  2  0  0  0
 34 36  1  0  0  0
 34 59  1  0  0  0
 34112  1  0  0  0
 35 44  2  0  0  0
 35 45  1  0  0  0
 35 68  1  0  0  0
 36 56  1  0  0  0
 36113  1  0  0  0
 37 39  1  0  0  0
 37 47  1  0  0  0
 37 66  1  0  0  0
 37114  1  0  0  0
 38 43  2  0  0  0
 38 46  1  0  0  0
 38 47  1  0  0  0
 39 64  1  0  0  0
 39 67  2  0  0  0
 40 52  1  0  0  0
 40 53  2  0  0  0
 40 58  1  0  0  0
 41115  1  0  0  0
 41116  1  0  0  0
 41117  1  0  0  0
 41 48  1  0  0  0
 42 43  1  0  0  0
 42 66  1  0  0  0
 42118  1  0  0  0
 42119  1  0  0  0
 43 44  1  0  0  0
 44120  1  0  0  0
 45 46  2  0  0  0
 45121  1  0  0  0
 46122  1  0  0  0
 47123  1  0  0  0
 47124  1  0  0  0
 48 56  1  0  0  0
 48 65  1  0  0  0
 48125  1  0  0  0
 49 50  1  0  0  0
 49 53  1  0  0  0
 49 64  1  0  0  0
 49126  1  0  0  0
 50 51  1  0  0  0
 50127  1  0  0  0
 50128  1  0  0  0
 51 52  1  0  0  0
 51129  1  0  0  0
 51130  1  0  0  0
 52131  1  0  0  0
 52132  1  0  0  0
 53 54  1  0  0  0
 54 55  2  0  0  0
 54133  1  0  0  0
 55 57  1  0  0  0
 55134  1  0  0  0
 56 69  2  0  0  0
 57 58  2  0  0  0
 57135  1  0  0  0
 58136  1  0  0  0
 59 60  1  0  0  0
 59 61  1  0  0  0
 59 62  1  0  0  0
 60137  1  0  0  0
 60138  1  0  0  0
 60139  1  0  0  0
 61140  1  0  0  0
 61141  1  0  0  0
 61142  1  0  0  0
 62143  1  0  0  0
 62144  1  0  0  0
 62145  1  0  0  0
 63 65  1  0  0  0
 63146  1  0  0  0
 63147  1  0  0  0
 63148  1  0  0  0
 64149  1  0  0  0
 65150  1  0  0  0
 68 85  1  0  0  0
 71 72  2  0  0  0
 71 73  1  0  0  0
 71151  1  0  0  0
 72 86  1  0  0  0
 72 89  1  0  0  0
 73 87  1  0  0  0
 73 90  2  0  0  0
 74 88  1  0  0  0
 74 89  2  0  0  0
 74 90  1  0  0  0
 75 82  1  0  0  0
 75152  1  0  0  0
 75153  1  0  0  0
 75154  1  0  0  0
 76155  1  0  0  0
 76156  1  0  0  0
 76157  1  0  0  0
 76 86  1  0  0  0
 77 86  1  0  0  0
 77158  1  0  0  0
 77159  1  0  0  0
 77160  1  0  0  0
 78 86  1  0  0  0
 78161  1  0  0  0
 78162  1  0  0  0
 78163  1  0  0  0
 79164  1  0  0  0
 79165  1  0  0  0
 79166  1  0  0  0
 79 87  1  0  0  0
 80 87  1  0  0  0
 80167  1  0  0  0
 80168  1  0  0  0
 80169  1  0  0  0
 81170  1  0  0  0
 81171  1  0  0  0
 81172  1  0  0  0
 81 88  1  0  0  0
 82 88  1  0  0  0
 82173  1  0  0  0
 82174  1  0  0  0
 83 85  1  0  0  0
 83 88  1  0  0  0
 83175  1  0  0  0
 83176  1  0  0  0
 84 87  1  0  0  0
 84 91  1  0  0  0
 84177  1  0  0  0
 84178  1  0  0  0
 85179  1  0  0  0
 85180  1  0  0  0
 91181  1  0  0  0
M  ISO  4   1 100  68 101  85 101  91 100
M  END
> <chiral flag>
0

> <version>
0

> <s_m_source_file>
/data/baiqing/PycharmProjects/Reinvent-master-3.2/result/LINK_invent/BTK/process_docking_weight1_custom_sum_contain_oxygen_bond_distance_aromatic_linkinvent_7_9_3/rearranged_h_0074.sdf

> <i_m_source_file_index>
51

> <r_mmod_Potential_Energy-OPLS-2005>
-476.112365722656

> <r_mmod_Stretch_Energy-OPLS-2005>
70.3045425415039

> <r_mmod_Bend_Energy-OPLS-2005>
154.922439575195

> <r_mmod_Torsional_Energy-OPLS-2005>
245.529632568359

> <r_mmod_Improper_Torsional_Energy-OPLS-2005>
4.75568151473999

> <r_mmod_Van_der_Waal_Energy-OPLS-2005>
163.576736450195

> <r_mmod_Electrostatic_Energy-OPLS-2005>
-937.316833496094

> <r_mmod_Solvation_Energy-OPLS-2005>
-202.671417236328

> <b_mmod_Minimization_Converged-OPLS-2005>
0

> <r_mmod_RMS_Derivative-OPLS-2005>
5.1874828338623

$$$$
51
                    3D
 Structure written by MMmdl.
162170  0  0  1  0            999 V2000
  -30.6235  -14.7781   20.3613 C   0  0  0  0  0  0
  -30.4263  -12.4659   19.4679 C   0  0  0  0  0  0
  -29.5104  -12.4811   18.2237 C   0  0  0  0  0  0
  -28.0306  -12.3255   18.6326 C   0  0  0  0  0  0
  -27.6279  -13.2368   19.8223 C   0  0  2  0  0  0
  -28.6794  -13.2155   20.9479 C   0  0  0  0  0  0
  -25.2416  -13.8138   20.5566 C   0  0  0  0  0  0
  -24.1759  -13.0392   20.9131 C   0  0  0  0  0  0
  -24.6385  -11.6885   20.8686 C   0  0  0  0  0  0
  -23.9064  -10.4277   21.0390 C   0  0  0  0  0  0
  -24.3614   -9.4213   21.9184 C   0  0  0  0  0  0
  -23.6286   -8.2243   22.0760 C   0  0  0  0  0  0
  -22.4281   -8.0276   21.3529 C   0  0  0  0  0  0
  -21.9900   -9.0247   20.4641 C   0  0  0  0  0  0
  -22.7222  -10.2129   20.3046 C   0  0  0  0  0  0
  -21.6868   -6.0726   22.5260 C   0  0  0  0  0  0
  -21.4034   -6.5625   23.8201 C   0  0  0  0  0  0
  -21.3661   -5.6770   24.9147 C   0  0  0  0  0  0
  -21.6036   -4.3028   24.7210 C   0  0  0  0  0  0
  -21.8827   -3.8135   23.4325 C   0  0  0  0  0  0
  -21.9195   -4.6943   22.3391 C   0  0  0  0  0  0
  -22.7785  -13.5186   21.1793 C   0  0  0  0  0  0
  -22.1663   -4.2127   21.0963 F   0  0  0  0  0  0
  -21.5609   -3.4526   25.7730 F   0  0  0  0  0  0
  -29.9722  -13.5599   20.3533 N   0  0  0  0  0  0
  -26.2872  -12.9387   20.3150 N   0  0  0  0  0  0
  -25.9321  -11.6527   20.5714 N   0  0  0  0  0  0
  -22.0434  -12.8231   22.0387 N   0  0  0  0  0  0
  -25.3938  -15.1870   20.3938 N   0  0  0  0  0  0
  -31.8580  -14.7377   20.3612 O   0  0  0  0  0  0
  -21.6639   -6.8862   21.4229 O   0  0  0  0  0  0
  -22.3486  -14.5468   20.6595 O   0  0  0  0  0  0
  -24.6313  -31.8533   23.1962 C   0  0  0  0  0  0
  -25.9143  -32.4743   23.8306 C   0  0  1  0  0  0
  -27.2125  -27.2604   20.1422 C   0  0  0  0  0  0
  -25.5928  -33.8548   24.2242 N   0  0  0  0  0  0
  -23.4267  -30.4733   21.5403 C   0  0  2  0  0  0
  -24.8703  -28.9074   20.1252 C   0  0  0  0  0  0
  -22.7482  -29.4576   22.4907 C   0  0  0  0  0  0
  -18.0280  -28.1428   22.8456 C   0  0  0  0  0  0
  -24.1486  -36.7297   23.2637 C   0  0  0  0  0  0
  -25.9687  -30.7706   21.3689 C   0  0  0  0  0  0
  -26.0417  -29.3850   20.7280 C   0  0  0  0  0  0
  -27.2202  -28.5756   20.7146 C   0  0  0  0  0  0
  -26.0150  -26.8301   19.5394 C   0  0  0  0  0  0
  -24.8592  -27.6388   19.5224 C   0  0  0  0  0  0
  -23.6456  -29.8027   20.1583 C   0  0  0  0  0  0
  -25.4107  -36.3050   24.0304 C   0  0  1  0  0  0
  -20.5885  -28.3713   23.1271 C   0  0  2  0  0  0
  -20.6779  -26.9436   22.5394 C   0  0  0  0  0  0
  -19.5752  -26.6408   21.5195 C   0  0  0  0  0  0
  -18.1937  -26.7967   22.1611 C   0  0  0  0  0  0
  -19.1539  -28.8875   23.2865 C   0  0  0  0  0  0
  -18.9471  -30.1474   23.8880 C   0  0  0  0  0  0
  -17.6474  -30.6618   24.0569 C   0  0  0  0  0  0
  -25.9056  -34.9432   23.5071 C   0  0  0  0  0  0
  -16.5359  -29.9121   23.6343 C   0  0  0  0  0  0
  -16.7269  -28.6555   23.0331 C   0  0  0  0  0  0
  -26.4523  -31.6556   25.0697 C   0  0  0  0  0  0
  -25.3749  -31.3767   26.1442 C   0  0  0  0  0  0
  -27.0311  -30.2927   24.6194 C   0  0  0  0  0  0
  -27.6086  -32.4285   25.7494 C   0  0  0  0  0  0
  -27.5569  -37.1798   24.8454 C   0  0  0  0  0  0
  -21.4196  -29.3051   22.3650 N   0  0  0  0  0  0
  -26.4280  -37.3750   23.9409 N   0  0  0  0  0  0
  -24.6945  -31.0512   22.0933 N   0  0  0  0  0  0
  -23.4189  -28.8110   23.2997 O   0  0  0  0  0  0
  -28.3543  -26.4478   20.0536 O   0  0  0  0  0  0
  -26.5637  -34.8889   22.4642 O   0  0  0  0  0  0
  -23.5450  -32.1334   23.7266 O   0  0  0  0  0  0
  -27.0647  -17.9463   21.5511 C   0  0  0  0  0  0
  -28.0031  -16.9540   21.2298 C   0  0  0  0  0  0
  -27.3255  -19.3052   21.2874 C   0  0  0  0  0  0
  -29.1966  -17.3055   20.5840 C   0  0  0  0  0  0
  -28.5913  -19.6920   20.7705 C   0  0  0  0  0  0
  -26.1915  -20.2788   21.5819 C   0  0  0  0  0  0
  -28.9443  -21.8297   22.2019 C   0  0  0  0  0  0
  -30.5717  -21.2681   20.4585 C   0  0  0  0  0  0
  -27.6966  -23.7442   20.0897 C   0  0  0  0  0  0
  -28.3672  -22.2949   19.7429 C   0  0  0  0  0  0
  -28.4650  -25.0588   20.6061 C   0  0  0  0  0  0
  -30.0017  -16.1752   19.7873 C   0  0  0  0  0  0
  -29.0571  -21.2458   20.7724 C   0  0  0  0  0  0
  -29.4674  -18.6676   20.3944 N   0  0  0  0  0  0
  -29.2213  -15.8545   18.7545 F   0  0  0  0  0  0
  -31.0280  -16.8432   19.2477 F   0  0  0  0  0  0
  -31.4674  -12.5865   19.1647 H   0  0  0  0  0  0
  -30.3737  -11.5068   19.9886 H   0  0  0  0  0  0
  -29.8000  -11.6799   17.5406 H   0  0  0  0  0  0
  -29.6451  -13.4120   17.6706 H   0  0  0  0  0  0
  -27.8707  -11.2808   18.9008 H   0  0  0  0  0  0
  -27.3857  -12.5212   17.7752 H   0  0  0  0  0  0
  -27.5921  -14.2473   19.4203 H   0  0  0  0  0  0
  -28.7237  -12.2280   21.4130 H   0  0  0  0  0  0
  -28.4292  -13.9088   21.7503 H   0  0  0  0  0  0
  -25.2772   -9.5676   22.4748 H   0  0  0  0  0  0
  -23.9970   -7.4645   22.7513 H   0  0  0  0  0  0
  -21.0801   -8.8745   19.8995 H   0  0  0  0  0  0
  -22.3657  -10.9630   19.6134 H   0  0  0  0  0  0
  -21.2057   -7.6145   23.9682 H   0  0  0  0  0  0
  -21.1462   -6.0513   25.9040 H   0  0  0  0  0  0
  -22.0612   -2.7600   23.2829 H   0  0  0  0  0  0
  -22.4054  -11.9936   22.4835 H   0  0  0  0  0  0
  -21.1053  -13.1265   22.2562 H   0  0  0  0  0  0
  -24.6161  -15.8194   20.5385 H   0  0  0  0  0  0
  -26.2358  -15.6601   20.0886 H   0  0  0  0  0  0
  -26.7208  -32.5377   23.1035 H   0  0  0  0  0  0
  -25.0008  -33.9656   25.0342 H   0  0  0  0  0  0
  -22.7233  -31.2949   21.3910 H   0  0  0  0  0  0
  -23.3708  -35.9665   23.3304 H   0  0  0  0  0  0
  -24.3567  -36.8941   22.2050 H   0  0  0  0  0  0
  -23.7279  -37.6508   23.6697 H   0  0  0  0  0  0
  -26.0911  -31.5205   20.5858 H   0  0  0  0  0  0
  -26.8537  -30.8360   21.9921 H   0  0  0  0  0  0
  -28.1343  -28.9435   21.1590 H   0  0  0  0  0  0
  -25.9658  -25.8614   19.0663 H   0  0  0  0  0  0
  -23.9622  -27.2730   19.0434 H   0  0  0  0  0  0
  -23.7797  -30.5762   19.4006 H   0  0  0  0  0  0
  -22.7639  -29.2396   19.8457 H   0  0  0  0  0  0
  -25.1304  -36.1872   25.0794 H   0  0  0  0  0  0
  -20.9965  -28.3293   24.1398 H   0  0  0  0  0  0
  -20.5679  -26.2319   23.3588 H   0  0  0  0  0  0
  -21.6659  -26.7470   22.1197 H   0  0  0  0  0  0
  -19.6932  -25.6314   21.1237 H   0  0  0  0  0  0
  -19.6726  -27.3196   20.6713 H   0  0  0  0  0  0
  -17.4202  -26.6655   21.4028 H   0  0  0  0  0  0
  -18.0394  -26.0138   22.9047 H   0  0  0  0  0  0
  -19.7943  -30.7291   24.2266 H   0  0  0  0  0  0
  -17.5036  -31.6292   24.5192 H   0  0  0  0  0  0
  -15.5362  -30.3033   23.7698 H   0  0  0  0  0  0
  -15.8665  -28.0882   22.7060 H   0  0  0  0  0  0
  -25.8045  -30.8912   27.0204 H   0  0  0  0  0  0
  -24.9039  -32.2983   26.4880 H   0  0  0  0  0  0
  -24.5864  -30.7175   25.7786 H   0  0  0  0  0  0
  -26.2837  -29.6731   24.1200 H   0  0  0  0  0  0
  -27.3967  -29.7173   25.4728 H   0  0  0  0  0  0
  -27.8803  -30.4171   23.9455 H   0  0  0  0  0  0
  -27.2715  -33.3592   26.2046 H   0  0  0  0  0  0
  -28.3943  -32.6788   25.0367 H   0  0  0  0  0  0
  -28.0715  -31.8409   26.5440 H   0  0  0  0  0  0
  -28.2571  -38.0105   24.7484 H   0  0  0  0  0  0
  -28.1079  -36.2628   24.6306 H   0  0  0  0  0  0
  -27.2292  -37.1485   25.8857 H   0  0  0  0  0  0
  -20.9398  -29.8774   21.6836 H   0  0  0  0  0  0
  -26.0141  -38.2813   24.1416 H   0  0  0  0  0  0
  -26.1110  -17.6482   21.9682 H   0  0  0  0  0  0
  -27.7412  -15.9214   21.3851 H   0  0  0  0  0  0
  -26.2873  -21.2176   21.0431 H   0  0  0  0  0  0
  -26.1168  -20.4956   22.6491 H   0  0  0  0  0  0
  -25.2435  -19.8431   21.2619 H   0  0  0  0  0  0
  -29.4458  -21.1891   22.9281 H   0  0  0  0  0  0
  -27.9186  -21.9595   22.5396 H   0  0  0  0  0  0
  -29.4031  -22.8176   22.2637 H   0  0  0  0  0  0
  -31.1388  -20.6781   21.1812 H   0  0  0  0  0  0
  -30.9762  -22.2783   20.4853 H   0  0  0  0  0  0
  -30.7807  -20.8577   19.4693 H   0  0  0  0  0  0
  -26.8724  -23.5667   20.7826 H   0  0  0  0  0  0
  -27.2063  -24.0449   19.1662 H   0  0  0  0  0  0
  -27.5596  -21.7333   19.2725 H   0  0  0  0  0  0
  -29.0506  -22.4538   18.9083 H   0  0  0  0  0  0
  -29.5283  -24.8297   20.5474 H   0  0  0  0  0  0
  -28.2816  -25.1396   21.6761 H   0  0  0  0  0  0
  1 25  1  0  0  0
  1 30  2  0  0  0
  1 82  1  0  0  0
  2  3  1  0  0  0
  2 25  1  0  0  0
  2 87  1  0  0  0
  2 88  1  0  0  0
  3  4  1  0  0  0
  3 89  1  0  0  0
  3 90  1  0  0  0
  4  5  1  0  0  0
  4 91  1  0  0  0
  4 92  1  0  0  0
  5  6  1  0  0  0
  5 26  1  0  0  0
  5 93  1  0  0  0
  6 25  1  0  0  0
  6 94  1  0  0  0
  6 95  1  0  0  0
  7  8  2  0  0  0
  7 26  1  0  0  0
  7 29  1  0  0  0
  8  9  1  0  0  0
  8 22  1  0  0  0
  9 10  1  0  0  0
  9 27  2  0  0  0
 10 11  2  0  0  0
 10 15  1  0  0  0
 11 12  1  0  0  0
 11 96  1  0  0  0
 12 13  2  0  0  0
 12 97  1  0  0  0
 13 14  1  0  0  0
 13 31  1  0  0  0
 14 15  2  0  0  0
 14 98  1  0  0  0
 15 99  1  0  0  0
 16 17  2  0  0  0
 16 21  1  0  0  0
 16 31  1  0  0  0
 17 18  1  0  0  0
 17100  1  0  0  0
 18 19  2  0  0  0
 18101  1  0  0  0
 19 20  1  0  0  0
 19 24  1  0  0  0
 20 21  2  0  0  0
 20102  1  0  0  0
 21 23  1  0  0  0
 22 28  1  0  0  0
 22 32  2  0  0  0
 26 27  1  0  0  0
 28103  1  0  0  0
 28104  1  0  0  0
 29105  1  0  0  0
 29106  1  0  0  0
 33 34  1  0  0  0
 33 66  1  0  0  0
 33 70  2  0  0  0
 34 36  1  0  0  0
 34 59  1  0  0  0
 34107  1  0  0  0
 35 44  2  0  0  0
 35 45  1  0  0  0
 35 68  1  0  0  0
 36 56  1  0  0  0
 36108  1  0  0  0
 37 39  1  0  0  0
 37 47  1  0  0  0
 37 66  1  0  0  0
 37109  1  0  0  0
 38 43  2  0  0  0
 38 46  1  0  0  0
 38 47  1  0  0  0
 39 64  1  0  0  0
 39 67  2  0  0  0
 40 52  1  0  0  0
 40 53  2  0  0  0
 40 58  1  0  0  0
 41110  1  0  0  0
 41111  1  0  0  0
 41112  1  0  0  0
 41 48  1  0  0  0
 42 43  1  0  0  0
 42 66  1  0  0  0
 42113  1  0  0  0
 42114  1  0  0  0
 43 44  1  0  0  0
 44115  1  0  0  0
 45 46  2  0  0  0
 45116  1  0  0  0
 46117  1  0  0  0
 47118  1  0  0  0
 47119  1  0  0  0
 48 56  1  0  0  0
 48 65  1  0  0  0
 48120  1  0  0  0
 49 50  1  0  0  0
 49 53  1  0  0  0
 49 64  1  0  0  0
 49121  1  0  0  0
 50 51  1  0  0  0
 50122  1  0  0  0
 50123  1  0  0  0
 51 52  1  0  0  0
 51124  1  0  0  0
 51125  1  0  0  0
 52126  1  0  0  0
 52127  1  0  0  0
 53 54  1  0  0  0
 54 55  2  0  0  0
 54128  1  0  0  0
 55 57  1  0  0  0
 55129  1  0  0  0
 56 69  2  0  0  0
 57 58  2  0  0  0
 57130  1  0  0  0
 58131  1  0  0  0
 59 60  1  0  0  0
 59 61  1  0  0  0
 59 62  1  0  0  0
 60132  1  0  0  0
 60133  1  0  0  0
 60134  1  0  0  0
 61135  1  0  0  0
 61136  1  0  0  0
 61137  1  0  0  0
 62138  1  0  0  0
 62139  1  0  0  0
 62140  1  0  0  0
 63 65  1  0  0  0
 63141  1  0  0  0
 63142  1  0  0  0
 63143  1  0  0  0
 64144  1  0  0  0
 65145  1  0  0  0
 68 81  1  0  0  0
 71 72  2  0  0  0
 71 73  1  0  0  0
 71146  1  0  0  0
 72 74  1  0  0  0
 72147  1  0  0  0
 73 75  2  0  0  0
 73 76  1  0  0  0
 74 82  1  0  0  0
 74 84  2  0  0  0
 75 83  1  0  0  0
 75 84  1  0  0  0
 76148  1  0  0  0
 76149  1  0  0  0
 76150  1  0  0  0
 77151  1  0  0  0
 77152  1  0  0  0
 77153  1  0  0  0
 77 83  1  0  0  0
 78 83  1  0  0  0
 78154  1  0  0  0
 78155  1  0  0  0
 78156  1  0  0  0
 79 80  1  0  0  0
 79 81  1  0  0  0
 79157  1  0  0  0
 79158  1  0  0  0
 80 83  1  0  0  0
 80159  1  0  0  0
 80160  1  0  0  0
 81161  1  0  0  0
 81162  1  0  0  0
 82 85  1  0  0  0
 82 86  1  0  0  0
M  ISO  4   1 100  68 101  81 101  82 100
M  END
> <chiral flag>
0

> <version>
0

> <s_m_source_file>
/data/baiqing/PycharmProjects/Reinvent-master-3.2/result/LINK_invent/BTK/process_docking_weight1_custom_sum_contain_oxygen_bond_distance_aromatic_linkinvent_7_9_3/rearranged_h_0074.sdf

> <i_m_source_file_index>
52

> <r_mmod_Potential_Energy-OPLS-2005>
400.496765136719

> <r_mmod_Stretch_Energy-OPLS-2005>
142.215591430664

> <r_mmod_Bend_Energy-OPLS-2005>
258.995666503906

> <r_mmod_Torsional_Energy-OPLS-2005>
275.000152587891

> <r_mmod_Improper_Torsional_Energy-OPLS-2005>
20.868688583374

> <r_mmod_Van_der_Waal_Energy-OPLS-2005>
140.840850830078

> <r_mmod_Electrostatic_Energy-OPLS-2005>
-345.941223144531

> <r_mmod_Solvation_Energy-OPLS-2005>
-191.123428344727

> <b_mmod_Minimization_Converged-OPLS-2005>
0

> <r_mmod_RMS_Derivative-OPLS-2005>
3.84491896629333

$$$$
52
                    3D
 Structure written by MMmdl.
160168  0  0  1  0            999 V2000
  -30.7069  -14.5541   20.5909 C   0  0  0  0  0  0
  -30.4335  -12.3486   19.4608 C   0  0  0  0  0  0
  -29.5078  -12.4805   18.2325 C   0  0  0  0  0  0
  -28.0305  -12.3263   18.6388 C   0  0  0  0  0  0
  -27.6605  -13.1951   19.8655 C   0  0  2  0  0  0
  -28.7063  -13.0436   21.0007 C   0  0  0  0  0  0
  -25.2555  -13.8098   20.5608 C   0  0  0  0  0  0
  -24.1839  -13.0377   20.9173 C   0  0  0  0  0  0
  -24.6406  -11.6851   20.8766 C   0  0  0  0  0  0
  -23.9079  -10.4251   21.0439 C   0  0  0  0  0  0
  -24.3624   -9.4164   21.9223 C   0  0  0  0  0  0
  -23.6288   -8.2202   22.0783 C   0  0  0  0  0  0
  -22.4276   -8.0264   21.3551 C   0  0  0  0  0  0
  -21.9912   -9.0237   20.4666 C   0  0  0  0  0  0
  -22.7246  -10.2111   20.3092 C   0  0  0  0  0  0
  -21.6849   -6.0733   22.5274 C   0  0  0  0  0  0
  -21.4018   -6.5643   23.8220 C   0  0  0  0  0  0
  -21.3657   -5.6795   24.9181 C   0  0  0  0  0  0
  -21.6031   -4.3049   24.7230 C   0  0  0  0  0  0
  -21.8826   -3.8146   23.4344 C   0  0  0  0  0  0
  -21.9190   -4.6961   22.3394 C   0  0  0  0  0  0
  -22.7853  -13.5172   21.1831 C   0  0  0  0  0  0
  -22.1668   -4.2149   21.0970 F   0  0  0  0  0  0
  -21.5614   -3.4531   25.7743 F   0  0  0  0  0  0
  -30.0346  -13.3657   20.4560 N   0  0  0  0  0  0
  -26.3030  -12.9266   20.3324 N   0  0  0  0  0  0
  -25.9325  -11.6442   20.5778 N   0  0  0  0  0  0
  -22.0462  -12.8218   22.0415 N   0  0  0  0  0  0
  -25.4109  -15.1816   20.3893 N   0  0  0  0  0  0
  -31.7975  -14.7005   20.0349 O   0  0  0  0  0  0
  -21.6624   -6.8868   21.4244 O   0  0  0  0  0  0
  -22.3547  -14.5466   20.6653 O   0  0  0  0  0  0
  -24.6166  -31.8666   23.2082 C   0  0  0  0  0  0
  -25.9055  -32.4814   23.8392 C   0  0  1  0  0  0
  -27.2402  -27.3975   20.0939 C   0  0  0  0  0  0
  -25.5910  -33.8613   24.2319 N   0  0  0  0  0  0
  -23.4077  -30.4880   21.5501 C   0  0  2  0  0  0
  -24.8563  -28.9528   20.1104 C   0  0  0  0  0  0
  -22.7432  -29.4637   22.4983 C   0  0  0  0  0  0
  -18.0271  -28.1379   22.8487 C   0  0  0  0  0  0
  -24.1474  -36.7299   23.2624 C   0  0  0  0  0  0
  -25.9402  -30.8187   21.3681 C   0  0  0  0  0  0
  -26.0177  -29.4500   20.7140 C   0  0  0  0  0  0
  -27.2084  -28.6797   20.7037 C   0  0  0  0  0  0
  -26.0586  -26.9365   19.4656 C   0  0  0  0  0  0
  -24.8744  -27.6980   19.4803 C   0  0  0  0  0  0
  -23.6186  -29.8221   20.1642 C   0  0  0  0  0  0
  -25.4091  -36.3104   24.0340 C   0  0  1  0  0  0
  -20.5861  -28.3670   23.1321 C   0  0  2  0  0  0
  -20.6760  -26.9402   22.5429 C   0  0  0  0  0  0
  -19.5748  -26.6381   21.5214 C   0  0  0  0  0  0
  -18.1917  -26.7930   22.1609 C   0  0  0  0  0  0
  -19.1518  -28.8842   23.2896 C   0  0  0  0  0  0
  -18.9449  -30.1444   23.8910 C   0  0  0  0  0  0
  -17.6452  -30.6585   24.0567 C   0  0  0  0  0  0
  -25.9049  -34.9476   23.5127 C   0  0  0  0  0  0
  -16.5343  -29.9090   23.6321 C   0  0  0  0  0  0
  -16.7265  -28.6503   23.0343 C   0  0  0  0  0  0
  -26.4470  -31.6602   25.0727 C   0  0  0  0  0  0
  -25.3722  -31.3708   26.1462 C   0  0  0  0  0  0
  -27.0307  -30.3047   24.6111 C   0  0  0  0  0  0
  -27.6049  -32.4324   25.7482 C   0  0  0  0  0  0
  -27.5618  -37.1744   24.8405 C   0  0  0  0  0  0
  -21.4154  -29.3023   22.3717 N   0  0  0  0  0  0
  -26.4243  -37.3829   23.9483 N   0  0  0  0  0  0
  -24.6731  -31.0737   22.0996 N   0  0  0  0  0  0
  -23.4185  -28.8172   23.3032 O   0  0  0  0  0  0
  -28.4066  -26.6385   20.1327 O   0  0  0  0  0  0
  -26.5624  -34.8939   22.4692 O   0  0  0  0  0  0
  -23.5349  -32.1426   23.7457 O   0  0  0  0  0  0
  -30.8922  -19.7755   19.5703 C   0  0  0  0  0  0
  -30.6223  -19.5520   21.7192 C   0  0  0  0  0  0
  -30.6582  -20.5339   20.7574 C   0  0  0  0  0  0
  -28.7920  -16.2950   20.7509 C   0  0  0  0  0  0
  -32.5391  -16.7109   22.0171 C   0  0  0  0  0  0
  -30.5970  -22.0587   20.9464 C   0  0  0  0  0  0
  -29.5089  -22.8511   20.1541 C   0  0  0  0  0  0
  -29.4940  -24.3903   20.4641 C   0  0  0  0  0  0
  -28.3478  -25.2232   19.8106 C   0  0  0  0  0  0
  -30.1012  -15.7775   21.3887 C   0  0  2  0  0  0
  -31.0396  -16.9998   21.8078 C   0  0  2  0  0  0
  -31.0218  -18.4656   19.7956 N   0  0  0  0  0  0
  -30.8520  -18.3118   21.1308 N   0  0  0  0  0  0
  -31.4786  -12.4414   19.1608 H   0  0  0  0  0  0
  -30.3491  -11.3527   19.9000 H   0  0  0  0  0  0
  -29.7630  -11.7177   17.4957 H   0  0  0  0  0  0
  -29.6649  -13.4453   17.7479 H   0  0  0  0  0  0
  -27.8578  -11.2724   18.8614 H   0  0  0  0  0  0
  -27.3808  -12.5688   17.7973 H   0  0  0  0  0  0
  -27.6785  -14.2164   19.4964 H   0  0  0  0  0  0
  -28.7024  -12.0225   21.3844 H   0  0  0  0  0  0
  -28.4482  -13.6640   21.8577 H   0  0  0  0  0  0
  -25.2748   -9.5629   22.4830 H   0  0  0  0  0  0
  -23.9976   -7.4586   22.7507 H   0  0  0  0  0  0
  -21.0842   -8.8755   19.8974 H   0  0  0  0  0  0
  -22.3689  -10.9672   19.6237 H   0  0  0  0  0  0
  -21.2038   -7.6160   23.9734 H   0  0  0  0  0  0
  -21.1485   -6.0522   25.9090 H   0  0  0  0  0  0
  -22.0623   -2.7604   23.2841 H   0  0  0  0  0  0
  -22.3987  -11.9852   22.4835 H   0  0  0  0  0  0
  -21.1106  -13.1340   22.2573 H   0  0  0  0  0  0
  -24.6273  -15.8177   20.4873 H   0  0  0  0  0  0
  -26.2519  -15.6367   20.0569 H   0  0  0  0  0  0
  -26.7123  -32.5526   23.1161 H   0  0  0  0  0  0
  -25.0045  -33.9774   25.0453 H   0  0  0  0  0  0
  -22.6953  -31.3035   21.4115 H   0  0  0  0  0  0
  -23.3799  -35.9555   23.3125 H   0  0  0  0  0  0
  -24.3606  -36.9084   22.2073 H   0  0  0  0  0  0
  -23.7119  -37.6407   23.6739 H   0  0  0  0  0  0
  -26.0574  -31.5838   20.5986 H   0  0  0  0  0  0
  -26.8261  -30.8748   21.9884 H   0  0  0  0  0  0
  -28.1016  -29.0583   21.1806 H   0  0  0  0  0  0
  -26.0302  -25.9887   18.9486 H   0  0  0  0  0  0
  -23.9870  -27.3178   18.9927 H   0  0  0  0  0  0
  -23.7256  -30.5982   19.4053 H   0  0  0  0  0  0
  -22.7410  -29.2436   19.8694 H   0  0  0  0  0  0
  -25.1233  -36.1940   25.0826 H   0  0  0  0  0  0
  -20.9953  -28.3245   24.1448 H   0  0  0  0  0  0
  -20.5652  -26.2279   23.3619 H   0  0  0  0  0  0
  -21.6636  -26.7425   22.1247 H   0  0  0  0  0  0
  -19.6900  -25.6295   21.1235 H   0  0  0  0  0  0
  -19.6686  -27.3187   20.6746 H   0  0  0  0  0  0
  -17.4195  -26.6701   21.3996 H   0  0  0  0  0  0
  -18.0275  -26.0063   22.8993 H   0  0  0  0  0  0
  -19.7919  -30.7252   24.2302 H   0  0  0  0  0  0
  -17.5003  -31.6262   24.5168 H   0  0  0  0  0  0
  -15.5342  -30.2999   23.7630 H   0  0  0  0  0  0
  -15.8665  -28.0830   22.7052 H   0  0  0  0  0  0
  -24.5910  -30.7043   25.7788 H   0  0  0  0  0  0
  -24.8889  -32.2856   26.4903 H   0  0  0  0  0  0
  -25.8068  -30.8884   27.0226 H   0  0  0  0  0  0
  -26.2862  -29.6808   24.1151 H   0  0  0  0  0  0
  -27.4061  -29.7289   25.4581 H   0  0  0  0  0  0
  -27.8700  -30.4366   23.9277 H   0  0  0  0  0  0
  -27.2688  -33.3637   26.2054 H   0  0  0  0  0  0
  -28.3856  -32.6863   25.0299 H   0  0  0  0  0  0
  -28.0712  -31.8444   26.5396 H   0  0  0  0  0  0
  -28.2419  -38.0256   24.7829 H   0  0  0  0  0  0
  -28.1339  -36.2837   24.5746 H   0  0  0  0  0  0
  -27.2417  -37.0809   25.8799 H   0  0  0  0  0  0
  -20.9311  -29.8773   21.6967 H   0  0  0  0  0  0
  -26.0113  -38.2846   24.1705 H   0  0  0  0  0  0
  -31.0255  -20.1430   18.5619 H   0  0  0  0  0  0
  -30.5078  -19.6407   22.7903 H   0  0  0  0  0  0
  -28.5380  -17.3063   21.0632 H   0  0  0  0  0  0
  -27.9435  -15.7000   21.0717 H   0  0  0  0  0  0
  -28.8451  -16.2921   19.6613 H   0  0  0  0  0  0
  -32.6936  -15.7888   22.5787 H   0  0  0  0  0  0
  -33.0100  -17.5188   22.5783 H   0  0  0  0  0  0
  -33.0735  -16.6292   21.0707 H   0  0  0  0  0  0
  -31.5686  -22.4874   20.6950 H   0  0  0  0  0  0
  -30.4731  -22.2851   22.0063 H   0  0  0  0  0  0
  -28.5288  -22.4285   20.3794 H   0  0  0  0  0  0
  -29.6638  -22.7053   19.0833 H   0  0  0  0  0  0
  -30.4532  -24.8215   20.1735 H   0  0  0  0  0  0
  -29.4207  -24.5257   21.5438 H   0  0  0  0  0  0
  -27.4083  -24.7863   20.1515 H   0  0  0  0  0  0
  -28.3817  -25.1156   18.7253 H   0  0  0  0  0  0
  -29.8216  -15.3406   22.3473 H   0  0  0  0  0  0
  -30.6981  -17.2041   22.8241 H   0  0  0  0  0  0
  1 25  1  0  0  0
  1 30  2  0  0  0
  1 80  1  0  0  0
  2  3  1  0  0  0
  2 25  1  0  0  0
  2 84  1  0  0  0
  2 85  1  0  0  0
  3  4  1  0  0  0
  3 86  1  0  0  0
  3 87  1  0  0  0
  4  5  1  0  0  0
  4 88  1  0  0  0
  4 89  1  0  0  0
  5  6  1  0  0  0
  5 26  1  0  0  0
  5 90  1  0  0  0
  6 25  1  0  0  0
  6 91  1  0  0  0
  6 92  1  0  0  0
  7  8  2  0  0  0
  7 26  1  0  0  0
  7 29  1  0  0  0
  8  9  1  0  0  0
  8 22  1  0  0  0
  9 10  1  0  0  0
  9 27  2  0  0  0
 10 11  2  0  0  0
 10 15  1  0  0  0
 11 12  1  0  0  0
 11 93  1  0  0  0
 12 13  2  0  0  0
 12 94  1  0  0  0
 13 14  1  0  0  0
 13 31  1  0  0  0
 14 15  2  0  0  0
 14 95  1  0  0  0
 15 96  1  0  0  0
 16 17  2  0  0  0
 16 21  1  0  0  0
 16 31  1  0  0  0
 17 18  1  0  0  0
 17 97  1  0  0  0
 18 19  2  0  0  0
 18 98  1  0  0  0
 19 20  1  0  0  0
 19 24  1  0  0  0
 20 21  2  0  0  0
 20 99  1  0  0  0
 21 23  1  0  0  0
 22 28  1  0  0  0
 22 32  2  0  0  0
 26 27  1  0  0  0
 28100  1  0  0  0
 28101  1  0  0  0
 29102  1  0  0  0
 29103  1  0  0  0
 33 34  1  0  0  0
 33 66  1  0  0  0
 33 70  2  0  0  0
 34 36  1  0  0  0
 34 59  1  0  0  0
 34104  1  0  0  0
 35 44  2  0  0  0
 35 45  1  0  0  0
 35 68  1  0  0  0
 36 56  1  0  0  0
 36105  1  0  0  0
 37 39  1  0  0  0
 37 47  1  0  0  0
 37 66  1  0  0  0
 37106  1  0  0  0
 38 43  2  0  0  0
 38 46  1  0  0  0
 38 47  1  0  0  0
 39 64  1  0  0  0
 39 67  2  0  0  0
 40 52  1  0  0  0
 40 53  2  0  0  0
 40 58  1  0  0  0
 41107  1  0  0  0
 41108  1  0  0  0
 41109  1  0  0  0
 41 48  1  0  0  0
 42 43  1  0  0  0
 42 66  1  0  0  0
 42110  1  0  0  0
 42111  1  0  0  0
 43 44  1  0  0  0
 44112  1  0  0  0
 45 46  2  0  0  0
 45113  1  0  0  0
 46114  1  0  0  0
 47115  1  0  0  0
 47116  1  0  0  0
 48 56  1  0  0  0
 48 65  1  0  0  0
 48117  1  0  0  0
 49 50  1  0  0  0
 49 53  1  0  0  0
 49 64  1  0  0  0
 49118  1  0  0  0
 50 51  1  0  0  0
 50119  1  0  0  0
 50120  1  0  0  0
 51 52  1  0  0  0
 51121  1  0  0  0
 51122  1  0  0  0
 52123  1  0  0  0
 52124  1  0  0  0
 53 54  1  0  0  0
 54 55  2  0  0  0
 54125  1  0  0  0
 55 57  1  0  0  0
 55126  1  0  0  0
 56 69  2  0  0  0
 57 58  2  0  0  0
 57127  1  0  0  0
 58128  1  0  0  0
 59 60  1  0  0  0
 59 61  1  0  0  0
 59 62  1  0  0  0
 60129  1  0  0  0
 60130  1  0  0  0
 60131  1  0  0  0
 61132  1  0  0  0
 61133  1  0  0  0
 61134  1  0  0  0
 62135  1  0  0  0
 62136  1  0  0  0
 62137  1  0  0  0
 63 65  1  0  0  0
 63138  1  0  0  0
 63139  1  0  0  0
 63140  1  0  0  0
 64141  1  0  0  0
 65142  1  0  0  0
 68 79  1  0  0  0
 71 73  1  0  0  0
 71 82  2  0  0  0
 71143  1  0  0  0
 72 73  2  0  0  0
 72 83  1  0  0  0
 72144  1  0  0  0
 73 76  1  0  0  0
 74145  1  0  0  0
 74146  1  0  0  0
 74147  1  0  0  0
 74 80  1  0  0  0
 75148  1  0  0  0
 75149  1  0  0  0
 75150  1  0  0  0
 75 81  1  0  0  0
 76 77  1  0  0  0
 76151  1  0  0  0
 76152  1  0  0  0
 77 78  1  0  0  0
 77153  1  0  0  0
 77154  1  0  0  0
 78 79  1  0  0  0
 78155  1  0  0  0
 78156  1  0  0  0
 79157  1  0  0  0
 79158  1  0  0  0
 80 81  1  0  0  0
 80159  1  0  0  0
 81 83  1  0  0  0
 81160  1  0  0  0
 82 83  1  0  0  0
M  ISO  4   1 100  68 101  79 101  80 100
M  END
> <chiral flag>
0

> <version>
0

> <s_m_source_file>
/data/baiqing/PycharmProjects/Reinvent-master-3.2/result/LINK_invent/BTK/process_docking_weight1_custom_sum_contain_oxygen_bond_distance_aromatic_linkinvent_7_9_3/rearranged_h_0074.sdf

> <i_m_source_file_index>
53

> <r_mmod_Potential_Energy-OPLS-2005>
25.8140335083008

> <r_mmod_Stretch_Energy-OPLS-2005>
56.1142807006836

> <r_mmod_Bend_Energy-OPLS-2005>
131.970748901367

> <r_mmod_Torsional_Energy-OPLS-2005>
192.656036376953

> <r_mmod_Improper_Torsional_Energy-OPLS-2005>
2.90230226516724

> <r_mmod_Van_der_Waal_Energy-OPLS-2005>
131.361740112305

> <r_mmod_Electrostatic_Energy-OPLS-2005>
-305.145812988281

> <r_mmod_Solvation_Energy-OPLS-2005>
-206.826797485352

> <b_mmod_Minimization_Converged-OPLS-2005>
0

> <r_mmod_RMS_Derivative-OPLS-2005>
2.31363272666931

$$$$
53
                    3D
 Structure written by MMmdl.
158166  0  0  1  0            999 V2000
  -30.4978  -14.9597   20.4204 C   0  0  0  0  0  0
  -30.4763  -12.5939   19.4883 C   0  0  0  0  0  0
  -29.5343  -12.5312   18.2568 C   0  0  0  0  0  0
  -28.0544  -12.3365   18.6633 C   0  0  0  0  0  0
  -27.6401  -13.2107   19.8760 C   0  0  2  0  0  0
  -28.7128  -13.1455   20.9867 C   0  0  0  0  0  0
  -25.2452  -13.8062   20.5681 C   0  0  0  0  0  0
  -24.1749  -13.0343   20.9242 C   0  0  0  0  0  0
  -24.6348  -11.6828   20.8817 C   0  0  0  0  0  0
  -23.9024  -10.4226   21.0450 C   0  0  0  0  0  0
  -24.3581   -9.4143   21.9222 C   0  0  0  0  0  0
  -23.6243   -8.2188   22.0773 C   0  0  0  0  0  0
  -22.4236   -8.0241   21.3547 C   0  0  0  0  0  0
  -21.9878   -9.0217   20.4652 C   0  0  0  0  0  0
  -22.7215  -10.2089   20.3066 C   0  0  0  0  0  0
  -21.6829   -6.0693   22.5273 C   0  0  0  0  0  0
  -21.4011   -6.5607   23.8208 C   0  0  0  0  0  0
  -21.3668   -5.6774   24.9175 C   0  0  0  0  0  0
  -21.6050   -4.3029   24.7238 C   0  0  0  0  0  0
  -21.8814   -3.8112   23.4360 C   0  0  0  0  0  0
  -21.9180   -4.6922   22.3407 C   0  0  0  0  0  0
  -22.7776  -13.5167   21.1873 C   0  0  0  0  0  0
  -22.1646   -4.2099   21.0983 F   0  0  0  0  0  0
  -21.5641   -3.4520   25.7756 F   0  0  0  0  0  0
  -29.9730  -13.6547   20.4100 N   0  0  0  0  0  0
  -26.2924  -12.9231   20.3468 N   0  0  0  0  0  0
  -25.9293  -11.6404   20.5895 N   0  0  0  0  0  0
  -22.0405  -12.8189   22.0447 N   0  0  0  0  0  0
  -25.3957  -15.1777   20.3897 N   0  0  0  0  0  0
  -31.7078  -15.0399   20.1713 O   0  0  0  0  0  0
  -21.6606   -6.8834   21.4236 O   0  0  0  0  0  0
  -22.3477  -14.5464   20.6686 O   0  0  0  0  0  0
  -24.6391  -31.8479   23.1893 C   0  0  0  0  0  0
  -25.9183  -32.4713   23.8273 C   0  0  1  0  0  0
  -27.2308  -27.1787   20.1444 C   0  0  0  0  0  0
  -25.5948  -33.8518   24.2201 N   0  0  0  0  0  0
  -23.4416  -30.4659   21.5346 C   0  0  2  0  0  0
  -24.8923  -28.8966   20.1100 C   0  0  0  0  0  0
  -22.7551  -29.4565   22.4872 C   0  0  0  0  0  0
  -18.0297  -28.1394   22.8474 C   0  0  0  0  0  0
  -24.1492  -36.7260   23.2641 C   0  0  0  0  0  0
  -25.9940  -30.7327   21.3830 C   0  0  0  0  0  0
  -26.0672  -29.3475   20.7250 C   0  0  0  0  0  0
  -27.2352  -28.5038   20.7275 C   0  0  0  0  0  0
  -26.0304  -26.8186   19.4906 C   0  0  0  0  0  0
  -24.8843  -27.6430   19.4794 C   0  0  0  0  0  0
  -23.6665  -29.7946   20.1536 C   0  0  0  0  0  0
  -25.4123  -36.3049   24.0322 C   0  0  1  0  0  0
  -20.5907  -28.3719   23.1243 C   0  0  2  0  0  0
  -20.6783  -26.9424   22.5402 C   0  0  0  0  0  0
  -19.5762  -26.6382   21.5207 C   0  0  0  0  0  0
  -18.1944  -26.7931   22.1618 C   0  0  0  0  0  0
  -19.1554  -28.8873   23.2847 C   0  0  0  0  0  0
  -18.9474  -30.1464   23.8877 C   0  0  0  0  0  0
  -17.6478  -30.6590   24.0560 C   0  0  0  0  0  0
  -25.9077  -34.9422   23.5069 C   0  0  0  0  0  0
  -16.5367  -29.9092   23.6329 C   0  0  0  0  0  0
  -16.7282  -28.6506   23.0350 C   0  0  0  0  0  0
  -26.4518  -31.6562   25.0694 C   0  0  0  0  0  0
  -25.3713  -31.3746   26.1395 C   0  0  0  0  0  0
  -27.0378  -30.2964   24.6240 C   0  0  0  0  0  0
  -27.6053  -32.4327   25.7472 C   0  0  0  0  0  0
  -27.5580  -37.1786   24.8469 C   0  0  0  0  0  0
  -21.4246  -29.3052   22.3622 N   0  0  0  0  0  0
  -26.4288  -37.3761   23.9419 N   0  0  0  0  0  0
  -24.7110  -31.0369   22.0906 N   0  0  0  0  0  0
  -23.4199  -28.8115   23.3017 O   0  0  0  0  0  0
  -28.3049  -26.2292   20.2268 O   0  0  0  0  0  0
  -26.5665  -34.8922   22.4649 O   0  0  0  0  0  0
  -23.5523  -32.1334   23.7144 O   0  0  0  0  0  0
  -29.2917  -19.1283   20.2206 C   0  0  0  0  0  0
  -29.6707  -20.5167   20.5267 C   0  0  0  0  0  0
  -30.0793  -17.9326   20.6000 C   0  0  0  0  0  0
  -30.8992  -20.5415   21.2404 C   0  0  0  0  0  0
  -31.5512  -21.8349   21.6840 C   0  0  0  0  0  0
  -28.9134  -16.4088   19.0100 C   0  0  0  0  0  0
  -28.5164  -16.2872   21.5440 C   0  0  0  0  0  0
  -28.8001  -21.8528   20.1036 C   0  0  0  0  0  0
  -29.0800  -23.4677   20.4638 C   0  0  0  0  0  0
  -28.0802  -24.7199   19.9945 C   0  0  0  0  0  0
  -29.5697  -16.3752   20.4150 C   0  0  0  0  0  0
  -31.2154  -18.1621   21.2971 N   0  0  0  0  0  0
  -31.6031  -19.4181   21.5858 N   0  0  0  0  0  0
  -31.4977  -12.7930   19.1602 H   0  0  0  0  0  0
  -30.5219  -11.6260   19.9910 H   0  0  0  0  0  0
  -29.8435  -11.7243   17.5907 H   0  0  0  0  0  0
  -29.6392  -13.4479   17.6768 H   0  0  0  0  0  0
  -27.9190  -11.2841   18.9148 H   0  0  0  0  0  0
  -27.3972  -12.5328   17.8157 H   0  0  0  0  0  0
  -27.5888  -14.2258   19.5161 H   0  0  0  0  0  0
  -28.8321  -12.1107   21.3100 H   0  0  0  0  0  0
  -28.4415  -13.6588   21.9053 H   0  0  0  0  0  0
  -25.2730   -9.5592   22.4801 H   0  0  0  0  0  0
  -23.9934   -7.4564   22.7481 H   0  0  0  0  0  0
  -21.0820   -8.8744   19.8943 H   0  0  0  0  0  0
  -22.3708  -10.9631   19.6161 H   0  0  0  0  0  0
  -21.2008   -7.6116   23.9698 H   0  0  0  0  0  0
  -21.1508   -6.0504   25.9079 H   0  0  0  0  0  0
  -22.0590   -2.7568   23.2876 H   0  0  0  0  0  0
  -22.4015  -11.9862   22.4860 H   0  0  0  0  0  0
  -21.1029  -13.1229   22.2667 H   0  0  0  0  0  0
  -24.6140  -15.8155   20.4887 H   0  0  0  0  0  0
  -26.2245  -15.6219   20.0194 H   0  0  0  0  0  0
  -26.7245  -32.5342   23.1001 H   0  0  0  0  0  0
  -25.0064  -33.9634   25.0328 H   0  0  0  0  0  0
  -22.7416  -31.2896   21.3811 H   0  0  0  0  0  0
  -23.3769  -35.9579   23.3292 H   0  0  0  0  0  0
  -24.3576  -36.8894   22.2057 H   0  0  0  0  0  0
  -23.7225  -37.6448   23.6673 H   0  0  0  0  0  0
  -26.1472  -31.4878   20.6108 H   0  0  0  0  0  0
  -26.8657  -30.7816   22.0242 H   0  0  0  0  0  0
  -28.1291  -28.8438   21.2308 H   0  0  0  0  0  0
  -25.9449  -25.8611   18.9991 H   0  0  0  0  0  0
  -23.9880  -27.2894   18.9886 H   0  0  0  0  0  0
  -23.8053  -30.5690   19.3981 H   0  0  0  0  0  0
  -22.7824  -29.2365   19.8416 H   0  0  0  0  0  0
  -25.1307  -36.1884   25.0815 H   0  0  0  0  0  0
  -20.9990  -28.3310   24.1371 H   0  0  0  0  0  0
  -20.5681  -26.2336   23.3621 H   0  0  0  0  0  0
  -21.6654  -26.7448   22.1204 H   0  0  0  0  0  0
  -19.6932  -25.6291   21.1249 H   0  0  0  0  0  0
  -19.6698  -27.3183   20.6728 H   0  0  0  0  0  0
  -17.4212  -26.6661   21.4022 H   0  0  0  0  0  0
  -18.0351  -26.0078   22.9021 H   0  0  0  0  0  0
  -19.7954  -30.7269   24.2250 H   0  0  0  0  0  0
  -17.5039  -31.6272   24.5162 H   0  0  0  0  0  0
  -15.5370  -30.2997   23.7660 H   0  0  0  0  0  0
  -15.8677  -28.0822   22.7087 H   0  0  0  0  0  0
  -24.5891  -30.7095   25.7717 H   0  0  0  0  0  0
  -24.8902  -32.2927   26.4777 H   0  0  0  0  0  0
  -25.8002  -30.8945   27.0196 H   0  0  0  0  0  0
  -26.2984  -29.6689   24.1252 H   0  0  0  0  0  0
  -27.4016  -29.7257   25.4792 H   0  0  0  0  0  0
  -27.8879  -30.4213   23.9530 H   0  0  0  0  0  0
  -27.2644  -33.3638   26.2007 H   0  0  0  0  0  0
  -28.3876  -32.6868   25.0308 H   0  0  0  0  0  0
  -28.0702  -31.8479   26.5417 H   0  0  0  0  0  0
  -28.2601  -38.0083   24.7530 H   0  0  0  0  0  0
  -28.1077  -36.2617   24.6282 H   0  0  0  0  0  0
  -27.2302  -37.1416   25.8872 H   0  0  0  0  0  0
  -20.9454  -29.8772   21.6810 H   0  0  0  0  0  0
  -26.0163  -38.2833   24.1426 H   0  0  0  0  0  0
  -28.3560  -18.9754   19.7054 H   0  0  0  0  0  0
  -31.8304  -22.4354   20.8194 H   0  0  0  0  0  0
  -32.4587  -21.6446   22.2584 H   0  0  0  0  0  0
  -30.8827  -22.4066   22.3243 H   0  0  0  0  0  0
  -27.9012  -16.8125   19.0400 H   0  0  0  0  0  0
  -28.8789  -15.4498   18.5048 H   0  0  0  0  0  0
  -29.4960  -17.0346   18.3329 H   0  0  0  0  0  0
  -28.9919  -16.1427   22.5150 H   0  0  0  0  0  0
  -27.7755  -15.5178   21.4008 H   0  0  0  0  0  0
  -27.9276  -17.2012   21.6203 H   0  0  0  0  0  0
  -27.7848  -21.6393   20.4379 H   0  0  0  0  0  0
  -28.7405  -21.8011   19.0160 H   0  0  0  0  0  0
  -30.0700  -23.7184   20.0860 H   0  0  0  0  0  0
  -29.1493  -23.5497   21.5476 H   0  0  0  0  0  0
  -27.1067  -24.4821   20.4247 H   0  0  0  0  0  0
  -27.9461  -24.6137   18.9174 H   0  0  0  0  0  0
  1 25  1  0  0  0
  1 30  2  0  0  0
  1 81  1  0  0  0
  2  3  1  0  0  0
  2 25  1  0  0  0
  2 84  1  0  0  0
  2 85  1  0  0  0
  3  4  1  0  0  0
  3 86  1  0  0  0
  3 87  1  0  0  0
  4  5  1  0  0  0
  4 88  1  0  0  0
  4 89  1  0  0  0
  5  6  1  0  0  0
  5 26  1  0  0  0
  5 90  1  0  0  0
  6 25  1  0  0  0
  6 91  1  0  0  0
  6 92  1  0  0  0
  7  8  2  0  0  0
  7 26  1  0  0  0
  7 29  1  0  0  0
  8  9  1  0  0  0
  8 22  1  0  0  0
  9 10  1  0  0  0
  9 27  2  0  0  0
 10 11  2  0  0  0
 10 15  1  0  0  0
 11 12  1  0  0  0
 11 93  1  0  0  0
 12 13  2  0  0  0
 12 94  1  0  0  0
 13 14  1  0  0  0
 13 31  1  0  0  0
 14 15  2  0  0  0
 14 95  1  0  0  0
 15 96  1  0  0  0
 16 17  2  0  0  0
 16 21  1  0  0  0
 16 31  1  0  0  0
 17 18  1  0  0  0
 17 97  1  0  0  0
 18 19  2  0  0  0
 18 98  1  0  0  0
 19 20  1  0  0  0
 19 24  1  0  0  0
 20 21  2  0  0  0
 20 99  1  0  0  0
 21 23  1  0  0  0
 22 28  1  0  0  0
 22 32  2  0  0  0
 26 27  1  0  0  0
 28100  1  0  0  0
 28101  1  0  0  0
 29102  1  0  0  0
 29103  1  0  0  0
 33 34  1  0  0  0
 33 66  1  0  0  0
 33 70  2  0  0  0
 34 36  1  0  0  0
 34 59  1  0  0  0
 34104  1  0  0  0
 35 44  2  0  0  0
 35 45  1  0  0  0
 35 68  1  0  0  0
 36 56  1  0  0  0
 36105  1  0  0  0
 37 39  1  0  0  0
 37 47  1  0  0  0
 37 66  1  0  0  0
 37106  1  0  0  0
 38 43  2  0  0  0
 38 46  1  0  0  0
 38 47  1  0  0  0
 39 64  1  0  0  0
 39 67  2  0  0  0
 40 52  1  0  0  0
 40 53  2  0  0  0
 40 58  1  0  0  0
 41107  1  0  0  0
 41108  1  0  0  0
 41109  1  0  0  0
 41 48  1  0  0  0
 42 43  1  0  0  0
 42 66  1  0  0  0
 42110  1  0  0  0
 42111  1  0  0  0
 43 44  1  0  0  0
 44112  1  0  0  0
 45 46  2  0  0  0
 45113  1  0  0  0
 46114  1  0  0  0
 47115  1  0  0  0
 47116  1  0  0  0
 48 56  1  0  0  0
 48 65  1  0  0  0
 48117  1  0  0  0
 49 50  1  0  0  0
 49 53  1  0  0  0
 49 64  1  0  0  0
 49118  1  0  0  0
 50 51  1  0  0  0
 50119  1  0  0  0
 50120  1  0  0  0
 51 52  1  0  0  0
 51121  1  0  0  0
 51122  1  0  0  0
 52123  1  0  0  0
 52124  1  0  0  0
 53 54  1  0  0  0
 54 55  2  0  0  0
 54125  1  0  0  0
 55 57  1  0  0  0
 55126  1  0  0  0
 56 69  2  0  0  0
 57 58  2  0  0  0
 57127  1  0  0  0
 58128  1  0  0  0
 59 60  1  0  0  0
 59 61  1  0  0  0
 59 62  1  0  0  0
 60129  1  0  0  0
 60130  1  0  0  0
 60131  1  0  0  0
 61132  1  0  0  0
 61133  1  0  0  0
 61134  1  0  0  0
 62135  1  0  0  0
 62136  1  0  0  0
 62137  1  0  0  0
 63 65  1  0  0  0
 63138  1  0  0  0
 63139  1  0  0  0
 63140  1  0  0  0
 64141  1  0  0  0
 65142  1  0  0  0
 68 80  1  0  0  0
 71 72  2  0  0  0
 71 73  1  0  0  0
 71143  1  0  0  0
 72 74  1  0  0  0
 72 78  1  0  0  0
 73 81  1  0  0  0
 73 82  2  0  0  0
 74 75  1  0  0  0
 74 83  2  0  0  0
 75144  1  0  0  0
 75145  1  0  0  0
 75146  1  0  0  0
 76147  1  0  0  0
 76148  1  0  0  0
 76149  1  0  0  0
 76 81  1  0  0  0
 77 81  1  0  0  0
 77150  1  0  0  0
 77151  1  0  0  0
 77152  1  0  0  0
 78 79  1  0  0  0
 78153  1  0  0  0
 78154  1  0  0  0
 79 80  1  0  0  0
 79155  1  0  0  0
 79156  1  0  0  0
 80157  1  0  0  0
 80158  1  0  0  0
 82 83  1  0  0  0
M  ISO  4   1 100  68 101  80 101  81 100
M  END
> <chiral flag>
0

> <version>
0

> <s_m_source_file>
/data/baiqing/PycharmProjects/Reinvent-master-3.2/result/LINK_invent/BTK/process_docking_weight1_custom_sum_contain_oxygen_bond_distance_aromatic_linkinvent_7_9_3/rearranged_h_0074.sdf

> <i_m_source_file_index>
54

> <r_mmod_Potential_Energy-OPLS-2005>
574.23681640625

> <r_mmod_Stretch_Energy-OPLS-2005>
251.410308837891

> <r_mmod_Bend_Energy-OPLS-2005>
276.409881591797

> <r_mmod_Torsional_Energy-OPLS-2005>
206.138442993164

> <r_mmod_Improper_Torsional_Energy-OPLS-2005>
7.92375707626343

> <r_mmod_Van_der_Waal_Energy-OPLS-2005>
153.420227050781

> <r_mmod_Electrostatic_Energy-OPLS-2005>
-262.585144042969

> <r_mmod_Solvation_Energy-OPLS-2005>
-229.691772460938

> <b_mmod_Minimization_Converged-OPLS-2005>
0

> <r_mmod_RMS_Derivative-OPLS-2005>
1.81015861034393

$$$$
54
                    3D
 Structure written by MMmdl.
155163  0  0  1  0            999 V2000
  -30.5883  -14.9628   20.4632 C   0  0  0  0  0  0
  -30.4256  -12.5946   19.5251 C   0  0  0  0  0  0
  -29.5268  -12.5466   18.2645 C   0  0  0  0  0  0
  -28.0565  -12.3323   18.6703 C   0  0  0  0  0  0
  -27.6298  -13.2576   19.8385 C   0  0  2  0  0  0
  -28.6658  -13.2919   20.9812 C   0  0  0  0  0  0
  -25.2486  -13.8239   20.5737 C   0  0  0  0  0  0
  -24.1779  -13.0448   20.9165 C   0  0  0  0  0  0
  -24.6389  -11.6935   20.8702 C   0  0  0  0  0  0
  -23.9083  -10.4302   21.0386 C   0  0  0  0  0  0
  -24.3641   -9.4228   21.9172 C   0  0  0  0  0  0
  -23.6329   -8.2264   22.0763 C   0  0  0  0  0  0
  -22.4309   -8.0279   21.3558 C   0  0  0  0  0  0
  -21.9922   -9.0242   20.4665 C   0  0  0  0  0  0
  -22.7250  -10.2130   20.3052 C   0  0  0  0  0  0
  -21.6857   -6.0728   22.5278 C   0  0  0  0  0  0
  -21.3997   -6.5635   23.8210 C   0  0  0  0  0  0
  -21.3671   -5.6794   24.9178 C   0  0  0  0  0  0
  -21.6069   -4.3057   24.7229 C   0  0  0  0  0  0
  -21.8826   -3.8150   23.4356 C   0  0  0  0  0  0
  -21.9185   -4.6957   22.3409 C   0  0  0  0  0  0
  -22.7815  -13.5228   21.1844 C   0  0  0  0  0  0
  -22.1661   -4.2155   21.0986 F   0  0  0  0  0  0
  -21.5665   -3.4539   25.7747 F   0  0  0  0  0  0
  -29.9558  -13.7088   20.4128 N   0  0  0  0  0  0
  -26.2901  -12.9476   20.3260 N   0  0  0  0  0  0
  -25.9331  -11.6600   20.5698 N   0  0  0  0  0  0
  -22.0495  -12.8248   22.0454 N   0  0  0  0  0  0
  -25.4192  -15.1968   20.4245 N   0  0  0  0  0  0
  -31.7276  -14.9725   19.9826 O   0  0  0  0  0  0
  -21.6676   -6.8873   21.4242 O   0  0  0  0  0  0
  -22.3483  -14.5510   20.6656 O   0  0  0  0  0  0
  -24.6432  -31.8421   23.1849 C   0  0  0  0  0  0
  -25.9184  -32.4690   23.8281 C   0  0  1  0  0  0
  -27.2128  -27.1126   20.1626 C   0  0  0  0  0  0
  -25.5923  -33.8508   24.2196 N   0  0  0  0  0  0
  -23.4484  -30.4587   21.5352 C   0  0  2  0  0  0
  -24.8917  -28.8784   20.1118 C   0  0  0  0  0  0
  -22.7555  -29.4515   22.4876 C   0  0  0  0  0  0
  -18.0302  -28.1414   22.8496 C   0  0  0  0  0  0
  -24.1481  -36.7254   23.2654 C   0  0  0  0  0  0
  -26.0034  -30.7059   21.3867 C   0  0  0  0  0  0
  -26.0690  -29.3161   20.7266 C   0  0  0  0  0  0
  -27.2253  -28.4483   20.7356 C   0  0  0  0  0  0
  -26.0103  -26.7738   19.5062 C   0  0  0  0  0  0
  -24.8757  -27.6224   19.4853 C   0  0  0  0  0  0
  -23.6681  -29.7834   20.1549 C   0  0  0  0  0  0
  -25.4115  -36.3051   24.0312 C   0  0  1  0  0  0
  -20.5919  -28.3725   23.1206 C   0  0  2  0  0  0
  -20.6767  -26.9412   22.5384 C   0  0  0  0  0  0
  -19.5697  -26.6348   21.5206 C   0  0  0  0  0  0
  -18.1886  -26.7955   22.1628 C   0  0  0  0  0  0
  -19.1569  -28.8867   23.2844 C   0  0  0  0  0  0
  -18.9499  -30.1457   23.8890 C   0  0  0  0  0  0
  -17.6501  -30.6561   24.0609 C   0  0  0  0  0  0
  -25.9075  -34.9420   23.5074 C   0  0  0  0  0  0
  -16.5375  -29.9118   23.6331 C   0  0  0  0  0  0
  -16.7294  -28.6532   23.0369 C   0  0  0  0  0  0
  -26.4488  -31.6586   25.0756 C   0  0  0  0  0  0
  -25.3662  -31.3776   26.1454 C   0  0  0  0  0  0
  -27.0368  -30.2985   24.6359 C   0  0  0  0  0  0
  -27.6030  -32.4392   25.7508 C   0  0  0  0  0  0
  -27.5567  -37.1764   24.8451 C   0  0  0  0  0  0
  -21.4248  -29.3062   22.3596 N   0  0  0  0  0  0
  -26.4286  -37.3747   23.9393 N   0  0  0  0  0  0
  -24.7189  -31.0244   22.0897 N   0  0  0  0  0  0
  -23.4182  -28.8098   23.3064 O   0  0  0  0  0  0
  -28.2855  -26.1495   20.2945 O   0  0  0  0  0  0
  -26.5677  -34.8903   22.4662 O   0  0  0  0  0  0
  -23.5540  -32.1335   23.7023 O   0  0  0  0  0  0
  -28.4386  -17.5730   19.4018 C   0  0  0  0  0  0
  -29.4519  -17.7653   20.3636 C   0  0  0  0  0  0
  -28.0076  -19.8844   19.1982 C   0  0  0  0  0  0
  -29.0052  -20.2369   20.1457 C   0  0  0  0  0  0
  -27.1845  -20.9380   18.4759 C   0  0  0  0  0  0
  -29.4816  -16.2451   22.5136 C   0  0  0  0  0  0
  -29.4144  -21.8379   20.3205 C   0  0  0  0  0  0
  -28.4695  -23.2078   20.6871 C   0  0  0  0  0  0
  -28.3398  -24.6585   19.8126 C   0  0  0  0  0  0
  -30.0936  -16.4336   21.1124 C   0  0  1  0  0  0
  -27.7386  -18.5977   18.8428 N   0  0  0  0  0  0
  -29.7167  -19.1317   20.7132 N   0  0  0  0  0  0
  -31.4692  -12.7030   19.2301 H   0  0  0  0  0  0
  -30.3823  -11.6434   20.0567 H   0  0  0  0  0  0
  -29.8498  -11.7444   17.5983 H   0  0  0  0  0  0
  -29.6284  -13.4768   17.6979 H   0  0  0  0  0  0
  -27.9522  -11.2879   18.9714 H   0  0  0  0  0  0
  -27.3912  -12.4727   17.8176 H   0  0  0  0  0  0
  -27.5898  -14.2597   19.4111 H   0  0  0  0  0  0
  -28.7465  -12.3128   21.4562 H   0  0  0  0  0  0
  -28.3357  -13.9784   21.7567 H   0  0  0  0  0  0
  -25.2793   -9.5759   22.4711 H   0  0  0  0  0  0
  -24.0087   -7.4676   22.7483 H   0  0  0  0  0  0
  -21.0857   -8.8728   19.8986 H   0  0  0  0  0  0
  -22.3688  -10.9634   19.6154 H   0  0  0  0  0  0
  -21.1974   -7.6134   23.9703 H   0  0  0  0  0  0
  -21.1489   -6.0540   25.9078 H   0  0  0  0  0  0
  -22.0597   -2.7598   23.2861 H   0  0  0  0  0  0
  -22.4123  -11.9934   22.4877 H   0  0  0  0  0  0
  -21.1071  -13.1223   22.2513 H   0  0  0  0  0  0
  -24.6553  -15.8518   20.5552 H   0  0  0  0  0  0
  -26.2820  -15.6451   20.1452 H   0  0  0  0  0  0
  -26.7282  -32.5285   23.1049 H   0  0  0  0  0  0
  -25.0036  -33.9633   25.0316 H   0  0  0  0  0  0
  -22.7577  -31.2857   21.3777 H   0  0  0  0  0  0
  -23.3771  -35.9552   23.3306 H   0  0  0  0  0  0
  -24.3577  -36.8899   22.2073 H   0  0  0  0  0  0
  -23.7200  -37.6429   23.6699 H   0  0  0  0  0  0
  -26.1609  -31.4632   20.6179 H   0  0  0  0  0  0
  -26.8722  -30.7528   22.0312 H   0  0  0  0  0  0
  -28.1173  -28.7763   21.2470 H   0  0  0  0  0  0
  -25.8995  -25.8082   19.0359 H   0  0  0  0  0  0
  -23.9737  -27.2806   18.9989 H   0  0  0  0  0  0
  -23.8011  -30.5555   19.3978 H   0  0  0  0  0  0
  -22.7831  -29.2254   19.8498 H   0  0  0  0  0  0
  -25.1293  -36.1915   25.0802 H   0  0  0  0  0  0
  -21.0026  -28.3330   24.1325 H   0  0  0  0  0  0
  -20.5647  -26.2344   23.3599 H   0  0  0  0  0  0
  -21.6610  -26.7405   22.1149 H   0  0  0  0  0  0
  -19.6823  -25.6226   21.1311 H   0  0  0  0  0  0
  -19.6613  -27.3102   20.6710 H   0  0  0  0  0  0
  -17.4151  -26.6777   21.4005 H   0  0  0  0  0  0
  -18.0231  -26.0094   22.8996 H   0  0  0  0  0  0
  -19.7997  -30.7248   24.2248 H   0  0  0  0  0  0
  -17.5083  -31.6193   24.5350 H   0  0  0  0  0  0
  -15.5390  -30.3024   23.7676 H   0  0  0  0  0  0
  -15.8685  -28.0842   22.7129 H   0  0  0  0  0  0
  -24.5844  -30.7125   25.7766 H   0  0  0  0  0  0
  -24.8836  -32.2959   26.4831 H   0  0  0  0  0  0
  -25.7944  -30.8993   27.0280 H   0  0  0  0  0  0
  -26.3010  -29.6715   24.1331 H   0  0  0  0  0  0
  -27.3935  -29.7276   25.4939 H   0  0  0  0  0  0
  -27.8926  -30.4220   23.9719 H   0  0  0  0  0  0
  -27.2631  -33.3728   26.2005 H   0  0  0  0  0  0
  -28.3855  -32.6912   25.0339 H   0  0  0  0  0  0
  -28.0699  -31.8606   26.5488 H   0  0  0  0  0  0
  -28.2569  -38.0075   24.7524 H   0  0  0  0  0  0
  -28.1093  -36.2611   24.6286 H   0  0  0  0  0  0
  -27.2277  -37.1404   25.8850 H   0  0  0  0  0  0
  -20.9517  -29.8747   21.6727 H   0  0  0  0  0  0
  -26.0180  -38.2803   24.1470 H   0  0  0  0  0  0
  -28.1531  -16.5754   19.1017 H   0  0  0  0  0  0
  -26.5472  -21.4719   19.1797 H   0  0  0  0  0  0
  -26.5369  -20.4845   17.7252 H   0  0  0  0  0  0
  -27.8172  -21.6644   17.9672 H   0  0  0  0  0  0
  -29.7705  -17.0647   23.1729 H   0  0  0  0  0  0
  -29.8286  -15.3248   22.9883 H   0  0  0  0  0  0
  -28.3924  -16.2234   22.4821 H   0  0  0  0  0  0
  -29.9763  -22.0890   19.4201 H   0  0  0  0  0  0
  -30.1877  -21.8145   21.0897 H   0  0  0  0  0  0
  -28.8487  -23.5256   21.6590 H   0  0  0  0  0  0
  -27.4600  -22.8725   20.9262 H   0  0  0  0  0  0
  -27.5417  -24.4998   19.0908 H   0  0  0  0  0  0
  -29.2298  -24.6621   19.1859 H   0  0  0  0  0  0
  -31.0772  -16.8436   21.3479 H   0  0  0  0  0  0
  1 25  1  0  0  0
  1 30  2  0  0  0
  1 80  1  0  0  0
  2  3  1  0  0  0
  2 25  1  0  0  0
  2 83  1  0  0  0
  2 84  1  0  0  0
  3  4  1  0  0  0
  3 85  1  0  0  0
  3 86  1  0  0  0
  4  5  1  0  0  0
  4 87  1  0  0  0
  4 88  1  0  0  0
  5  6  1  0  0  0
  5 26  1  0  0  0
  5 89  1  0  0  0
  6 25  1  0  0  0
  6 90  1  0  0  0
  6 91  1  0  0  0
  7  8  2  0  0  0
  7 26  1  0  0  0
  7 29  1  0  0  0
  8  9  1  0  0  0
  8 22  1  0  0  0
  9 10  1  0  0  0
  9 27  2  0  0  0
 10 11  2  0  0  0
 10 15  1  0  0  0
 11 12  1  0  0  0
 11 92  1  0  0  0
 12 13  2  0  0  0
 12 93  1  0  0  0
 13 14  1  0  0  0
 13 31  1  0  0  0
 14 15  2  0  0  0
 14 94  1  0  0  0
 15 95  1  0  0  0
 16 17  2  0  0  0
 16 21  1  0  0  0
 16 31  1  0  0  0
 17 18  1  0  0  0
 17 96  1  0  0  0
 18 19  2  0  0  0
 18 97  1  0  0  0
 19 20  1  0  0  0
 19 24  1  0  0  0
 20 21  2  0  0  0
 20 98  1  0  0  0
 21 23  1  0  0  0
 22 28  1  0  0  0
 22 32  2  0  0  0
 26 27  1  0  0  0
 28 99  1  0  0  0
 28100  1  0  0  0
 29101  1  0  0  0
 29102  1  0  0  0
 33 34  1  0  0  0
 33 66  1  0  0  0
 33 70  2  0  0  0
 34 36  1  0  0  0
 34 59  1  0  0  0
 34103  1  0  0  0
 35 44  2  0  0  0
 35 45  1  0  0  0
 35 68  1  0  0  0
 36 56  1  0  0  0
 36104  1  0  0  0
 37 39  1  0  0  0
 37 47  1  0  0  0
 37 66  1  0  0  0
 37105  1  0  0  0
 38 43  2  0  0  0
 38 46  1  0  0  0
 38 47  1  0  0  0
 39 64  1  0  0  0
 39 67  2  0  0  0
 40 52  1  0  0  0
 40 53  2  0  0  0
 40 58  1  0  0  0
 41106  1  0  0  0
 41107  1  0  0  0
 41108  1  0  0  0
 41 48  1  0  0  0
 42 43  1  0  0  0
 42 66  1  0  0  0
 42109  1  0  0  0
 42110  1  0  0  0
 43 44  1  0  0  0
 44111  1  0  0  0
 45 46  2  0  0  0
 45112  1  0  0  0
 46113  1  0  0  0
 47114  1  0  0  0
 47115  1  0  0  0
 48 56  1  0  0  0
 48 65  1  0  0  0
 48116  1  0  0  0
 49 50  1  0  0  0
 49 53  1  0  0  0
 49 64  1  0  0  0
 49117  1  0  0  0
 50 51  1  0  0  0
 50118  1  0  0  0
 50119  1  0  0  0
 51 52  1  0  0  0
 51120  1  0  0  0
 51121  1  0  0  0
 52122  1  0  0  0
 52123  1  0  0  0
 53 54  1  0  0  0
 54 55  2  0  0  0
 54124  1  0  0  0
 55 57  1  0  0  0
 55125  1  0  0  0
 56 69  2  0  0  0
 57 58  2  0  0  0
 57126  1  0  0  0
 58127  1  0  0  0
 59 60  1  0  0  0
 59 61  1  0  0  0
 59 62  1  0  0  0
 60128  1  0  0  0
 60129  1  0  0  0
 60130  1  0  0  0
 61131  1  0  0  0
 61132  1  0  0  0
 61133  1  0  0  0
 62134  1  0  0  0
 62135  1  0  0  0
 62136  1  0  0  0
 63 65  1  0  0  0
 63137  1  0  0  0
 63138  1  0  0  0
 63139  1  0  0  0
 64140  1  0  0  0
 65141  1  0  0  0
 68 79  1  0  0  0
 71 72  2  0  0  0
 71 81  1  0  0  0
 71142  1  0  0  0
 72 80  1  0  0  0
 72 82  1  0  0  0
 73 74  1  0  0  0
 73 75  1  0  0  0
 73 81  2  0  0  0
 74 77  1  0  0  0
 74 82  2  0  0  0
 75143  1  0  0  0
 75144  1  0  0  0
 75145  1  0  0  0
 76146  1  0  0  0
 76147  1  0  0  0
 76148  1  0  0  0
 76 80  1  0  0  0
 77 78  1  0  0  0
 77149  1  0  0  0
 77150  1  0  0  0
 78 79  1  0  0  0
 78151  1  0  0  0
 78152  1  0  0  0
 79153  1  0  0  0
 79154  1  0  0  0
 80155  1  0  0  0
M  ISO  4   1 100  68 101  79 101  80 100
M  END
> <chiral flag>
0

> <version>
0

> <s_m_source_file>
/data/baiqing/PycharmProjects/Reinvent-master-3.2/result/LINK_invent/BTK/process_docking_weight1_custom_sum_contain_oxygen_bond_distance_aromatic_linkinvent_7_9_3/rearranged_h_0074.sdf

> <i_m_source_file_index>
55

> <r_mmod_Potential_Energy-OPLS-2005>
687.955932617188

> <r_mmod_Stretch_Energy-OPLS-2005>
300.354522705078

> <r_mmod_Bend_Energy-OPLS-2005>
345.125366210938

> <r_mmod_Torsional_Energy-OPLS-2005>
191.361206054688

> <r_mmod_Improper_Torsional_Energy-OPLS-2005>
3.47861933708191

> <r_mmod_Van_der_Waal_Energy-OPLS-2005>
126.89013671875

> <r_mmod_Electrostatic_Energy-OPLS-2005>
-270.744506835938

> <r_mmod_Solvation_Energy-OPLS-2005>
-208.892456054688

> <b_mmod_Minimization_Converged-OPLS-2005>
0

> <r_mmod_RMS_Derivative-OPLS-2005>
5.05910587310791

$$$$
55
                    3D
 Structure written by MMmdl.
159167  0  0  1  0            999 V2000
  -30.5594  -14.6828   20.6058 C   0  0  0  0  0  0
  -30.4355  -12.4574   19.4402 C   0  0  0  0  0  0
  -29.4958  -12.5722   18.2167 C   0  0  0  0  0  0
  -28.0184  -12.3881   18.6212 C   0  0  0  0  0  0
  -27.6454  -13.2209   19.8767 C   0  0  2  0  0  0
  -28.6858  -12.9905   20.9914 C   0  0  0  0  0  0
  -25.2449  -13.8169   20.5654 C   0  0  0  0  0  0
  -24.1740  -13.0375   20.9149 C   0  0  0  0  0  0
  -24.6364  -11.6883   20.8724 C   0  0  0  0  0  0
  -23.9062  -10.4258   21.0429 C   0  0  0  0  0  0
  -24.3620   -9.4146   21.9180 C   0  0  0  0  0  0
  -23.6274   -8.2183   22.0754 C   0  0  0  0  0  0
  -22.4243   -8.0257   21.3552 C   0  0  0  0  0  0
  -21.9907   -9.0230   20.4627 C   0  0  0  0  0  0
  -22.7250  -10.2108   20.3046 C   0  0  0  0  0  0
  -21.6809   -6.0724   22.5297 C   0  0  0  0  0  0
  -21.3993   -6.5633   23.8238 C   0  0  0  0  0  0
  -21.3663   -5.6787   24.9201 C   0  0  0  0  0  0
  -21.6058   -4.3055   24.7235 C   0  0  0  0  0  0
  -21.8827   -3.8132   23.4360 C   0  0  0  0  0  0
  -21.9178   -4.6952   22.3418 C   0  0  0  0  0  0
  -22.7752  -13.5146   21.1844 C   0  0  0  0  0  0
  -22.1640   -4.2148   21.0990 F   0  0  0  0  0  0
  -21.5656   -3.4537   25.7743 F   0  0  0  0  0  0
  -29.9804  -13.4362   20.4601 N   0  0  0  0  0  0
  -26.2902  -12.9375   20.3364 N   0  0  0  0  0  0
  -25.9294  -11.6516   20.5732 N   0  0  0  0  0  0
  -22.0443  -12.8101   22.0444 N   0  0  0  0  0  0
  -25.4024  -15.1868   20.4045 N   0  0  0  0  0  0
  -31.6980  -14.8309   20.1380 O   0  0  0  0  0  0
  -21.6579   -6.8869   21.4260 O   0  0  0  0  0  0
  -22.3386  -14.5447   20.6736 O   0  0  0  0  0  0
  -24.6255  -31.8560   23.1976 C   0  0  0  0  0  0
  -25.9085  -32.4748   23.8312 C   0  0  1  0  0  0
  -27.2078  -27.2784   20.1496 C   0  0  0  0  0  0
  -25.5905  -33.8549   24.2240 N   0  0  0  0  0  0
  -23.4227  -30.4778   21.5424 C   0  0  2  0  0  0
  -24.8703  -28.9315   20.1054 C   0  0  0  0  0  0
  -22.7496  -29.4601   22.4944 C   0  0  0  0  0  0
  -18.0292  -28.1352   22.8471 C   0  0  0  0  0  0
  -24.1514  -36.7288   23.2630 C   0  0  0  0  0  0
  -25.9667  -30.7766   21.3773 C   0  0  0  0  0  0
  -26.0395  -29.4037   20.7162 C   0  0  0  0  0  0
  -27.2158  -28.5920   20.7191 C   0  0  0  0  0  0
  -26.0242  -26.8755   19.4918 C   0  0  0  0  0  0
  -24.8695  -27.6789   19.4744 C   0  0  0  0  0  0
  -23.6359  -29.8086   20.1589 C   0  0  0  0  0  0
  -25.4130  -36.3075   24.0333 C   0  0  1  0  0  0
  -20.5891  -28.3658   23.1300 C   0  0  2  0  0  0
  -20.6776  -26.9390   22.5415 C   0  0  0  0  0  0
  -19.5759  -26.6368   21.5210 C   0  0  0  0  0  0
  -18.1939  -26.7902   22.1603 C   0  0  0  0  0  0
  -19.1540  -28.8826   23.2877 C   0  0  0  0  0  0
  -18.9444  -30.1439   23.8887 C   0  0  0  0  0  0
  -17.6439  -30.6569   24.0541 C   0  0  0  0  0  0
  -25.9068  -34.9447   23.5099 C   0  0  0  0  0  0
  -16.5339  -29.9049   23.6321 C   0  0  0  0  0  0
  -16.7279  -28.6461   23.0352 C   0  0  0  0  0  0
  -26.4465  -31.6540   25.0669 C   0  0  0  0  0  0
  -25.3708  -31.3648   26.1395 C   0  0  0  0  0  0
  -27.0267  -30.2957   24.6107 C   0  0  0  0  0  0
  -27.6017  -32.4290   25.7423 C   0  0  0  0  0  0
  -27.5628  -37.1762   24.8437 C   0  0  0  0  0  0
  -21.4208  -29.3011   22.3691 N   0  0  0  0  0  0
  -26.4305  -37.3783   23.9442 N   0  0  0  0  0  0
  -24.6900  -31.0558   22.0934 N   0  0  0  0  0  0
  -23.4196  -28.8142   23.3046 O   0  0  0  0  0  0
  -28.2896  -26.3829   20.2568 O   0  0  0  0  0  0
  -26.5679  -34.8920   22.4685 O   0  0  0  0  0  0
  -23.5414  -32.1381   23.7284 O   0  0  0  0  0  0
  -28.9216  -21.2758   21.5743 C   0  0  0  0  0  0
  -28.8939  -22.3144   20.6480 C   0  0  0  0  0  0
  -30.4866  -16.1162   22.7186 C   0  0  0  0  0  0
  -31.0925  -17.9556   20.1248 C   0  0  0  0  0  0
  -28.8940  -17.1249   19.2606 C   0  0  0  0  0  0
  -29.0897  -23.8718   20.7882 C   0  0  0  0  0  0
  -28.9586  -18.6101   21.3551 C   0  0  0  0  0  0
  -27.9906  -24.9140   20.2707 C   0  0  0  0  0  0
  -29.8470  -15.9665   21.3216 C   0  0  1  0  0  0
  -29.7109  -17.4111   20.5456 C   0  0  0  0  0  0
  -28.8705  -21.6753   19.4038 N   0  0  0  0  0  0
  -28.8588  -20.3708   19.5405 N   0  0  0  0  0  0
  -28.9536  -20.0564   20.8591 N   0  0  0  0  0  0
  -28.5781  -15.6750   21.6018 F   0  0  0  0  0  0
  -31.4667  -12.6271   19.1259 H   0  0  0  0  0  0
  -30.4175  -11.4424   19.8393 H   0  0  0  0  0  0
  -29.7637  -11.8494   17.4444 H   0  0  0  0  0  0
  -29.6268  -13.5578   17.7637 H   0  0  0  0  0  0
  -27.8450  -11.3282   18.8112 H   0  0  0  0  0  0
  -27.3664  -12.6624   17.7892 H   0  0  0  0  0  0
  -27.6798  -14.2705   19.5854 H   0  0  0  0  0  0
  -28.7276  -11.9280   21.2395 H   0  0  0  0  0  0
  -28.4105  -13.4678   21.9287 H   0  0  0  0  0  0
  -25.2814   -9.5574   22.4704 H   0  0  0  0  0  0
  -23.9990   -7.4561   22.7468 H   0  0  0  0  0  0
  -21.0863   -8.8762   19.8893 H   0  0  0  0  0  0
  -22.3774  -10.9641   19.6114 H   0  0  0  0  0  0
  -21.1954   -7.6138   23.9748 H   0  0  0  0  0  0
  -21.1495   -6.0503   25.9113 H   0  0  0  0  0  0
  -22.0600   -2.7586   23.2860 H   0  0  0  0  0  0
  -22.4120  -11.9799   22.4844 H   0  0  0  0  0  0
  -21.1075  -13.1096   22.2729 H   0  0  0  0  0  0
  -24.6267  -15.8332   20.5048 H   0  0  0  0  0  0
  -26.2743  -15.6454   20.1672 H   0  0  0  0  0  0
  -26.7134  -32.5410   23.1032 H   0  0  0  0  0  0
  -24.9957  -33.9691   25.0328 H   0  0  0  0  0  0
  -22.7148  -31.2966   21.3999 H   0  0  0  0  0  0
  -23.3818  -35.9565   23.3176 H   0  0  0  0  0  0
  -24.3645  -36.9038   22.2070 H   0  0  0  0  0  0
  -23.7202  -37.6419   23.6743 H   0  0  0  0  0  0
  -26.1165  -31.5417   20.6142 H   0  0  0  0  0  0
  -26.8387  -30.8147   22.0165 H   0  0  0  0  0  0
  -28.1119  -28.9436   21.2116 H   0  0  0  0  0  0
  -25.9604  -25.9138   19.0044 H   0  0  0  0  0  0
  -23.9780  -27.3169   18.9803 H   0  0  0  0  0  0
  -23.7469  -30.5819   19.3994 H   0  0  0  0  0  0
  -22.7551  -29.2329   19.8635 H   0  0  0  0  0  0
  -25.1299  -36.1897   25.0827 H   0  0  0  0  0  0
  -20.9973  -28.3231   24.1424 H   0  0  0  0  0  0
  -20.5690  -26.2267   23.3596 H   0  0  0  0  0  0
  -21.6644  -26.7430   22.1214 H   0  0  0  0  0  0
  -19.6930  -25.6289   21.1228 H   0  0  0  0  0  0
  -19.6699  -27.3180   20.6742 H   0  0  0  0  0  0
  -17.4223  -26.6678   21.3993 H   0  0  0  0  0  0
  -18.0320  -26.0028   22.8974 H   0  0  0  0  0  0
  -19.7924  -30.7261   24.2259 H   0  0  0  0  0  0
  -17.4990  -31.6248   24.5138 H   0  0  0  0  0  0
  -15.5338  -30.2935   23.7645 H   0  0  0  0  0  0
  -15.8683  -28.0766   22.7084 H   0  0  0  0  0  0
  -24.5880  -30.7016   25.7691 H   0  0  0  0  0  0
  -24.8889  -32.2790   26.4870 H   0  0  0  0  0  0
  -25.8039  -30.8756   27.0132 H   0  0  0  0  0  0
  -26.2784  -29.6731   24.1175 H   0  0  0  0  0  0
  -27.3993  -29.7185   25.4578 H   0  0  0  0  0  0
  -27.8682  -30.4204   23.9285 H   0  0  0  0  0  0
  -27.2596  -33.3565   26.2037 H   0  0  0  0  0  0
  -28.3770  -32.6914   25.0208 H   0  0  0  0  0  0
  -28.0757  -31.8404   26.5288 H   0  0  0  0  0  0
  -28.2519  -38.0184   24.7694 H   0  0  0  0  0  0
  -28.1269  -36.2741   24.6013 H   0  0  0  0  0  0
  -27.2399  -37.1089   25.8840 H   0  0  0  0  0  0
  -20.9401  -29.8675   21.6841 H   0  0  0  0  0  0
  -26.0178  -38.2842   24.1510 H   0  0  0  0  0  0
  -28.9575  -21.3022   22.6572 H   0  0  0  0  0  0
  -29.8661  -16.7029   23.3984 H   0  0  0  0  0  0
  -31.4644  -16.5927   22.6718 H   0  0  0  0  0  0
  -30.6253  -15.1431   23.1949 H   0  0  0  0  0  0
  -31.0011  -18.8482   19.5099 H   0  0  0  0  0  0
  -31.6568  -17.2489   19.5211 H   0  0  0  0  0  0
  -31.6928  -18.2274   20.9922 H   0  0  0  0  0  0
  -28.7090  -18.0110   18.6588 H   0  0  0  0  0  0
  -27.9164  -16.7065   19.5063 H   0  0  0  0  0  0
  -29.4011  -16.4100   18.6126 H   0  0  0  0  0  0
  -30.0209  -24.1297   20.2833 H   0  0  0  0  0  0
  -29.2875  -24.0967   21.8367 H   0  0  0  0  0  0
  -29.3676  -18.6535   22.3655 H   0  0  0  0  0  0
  -27.9174  -18.3244   21.5097 H   0  0  0  0  0  0
  -27.0967  -24.7528   20.8767 H   0  0  0  0  0  0
  -27.7320  -24.6217   19.2535 H   0  0  0  0  0  0
  1 25  1  0  0  0
  1 30  2  0  0  0
  1 79  1  0  0  0
  2  3  1  0  0  0
  2 25  1  0  0  0
  2 85  1  0  0  0
  2 86  1  0  0  0
  3  4  1  0  0  0
  3 87  1  0  0  0
  3 88  1  0  0  0
  4  5  1  0  0  0
  4 89  1  0  0  0
  4 90  1  0  0  0
  5  6  1  0  0  0
  5 26  1  0  0  0
  5 91  1  0  0  0
  6 25  1  0  0  0
  6 92  1  0  0  0
  6 93  1  0  0  0
  7  8  2  0  0  0
  7 26  1  0  0  0
  7 29  1  0  0  0
  8  9  1  0  0  0
  8 22  1  0  0  0
  9 10  1  0  0  0
  9 27  2  0  0  0
 10 11  2  0  0  0
 10 15  1  0  0  0
 11 12  1  0  0  0
 11 94  1  0  0  0
 12 13  2  0  0  0
 12 95  1  0  0  0
 13 14  1  0  0  0
 13 31  1  0  0  0
 14 15  2  0  0  0
 14 96  1  0  0  0
 15 97  1  0  0  0
 16 17  2  0  0  0
 16 21  1  0  0  0
 16 31  1  0  0  0
 17 18  1  0  0  0
 17 98  1  0  0  0
 18 19  2  0  0  0
 18 99  1  0  0  0
 19 20  1  0  0  0
 19 24  1  0  0  0
 20 21  2  0  0  0
 20100  1  0  0  0
 21 23  1  0  0  0
 22 28  1  0  0  0
 22 32  2  0  0  0
 26 27  1  0  0  0
 28101  1  0  0  0
 28102  1  0  0  0
 29103  1  0  0  0
 29104  1  0  0  0
 33 34  1  0  0  0
 33 66  1  0  0  0
 33 70  2  0  0  0
 34 36  1  0  0  0
 34 59  1  0  0  0
 34105  1  0  0  0
 35 44  2  0  0  0
 35 45  1  0  0  0
 35 68  1  0  0  0
 36 56  1  0  0  0
 36106  1  0  0  0
 37 39  1  0  0  0
 37 47  1  0  0  0
 37 66  1  0  0  0
 37107  1  0  0  0
 38 43  2  0  0  0
 38 46  1  0  0  0
 38 47  1  0  0  0
 39 64  1  0  0  0
 39 67  2  0  0  0
 40 52  1  0  0  0
 40 53  2  0  0  0
 40 58  1  0  0  0
 41108  1  0  0  0
 41109  1  0  0  0
 41110  1  0  0  0
 41 48  1  0  0  0
 42 43  1  0  0  0
 42 66  1  0  0  0
 42111  1  0  0  0
 42112  1  0  0  0
 43 44  1  0  0  0
 44113  1  0  0  0
 45 46  2  0  0  0
 45114  1  0  0  0
 46115  1  0  0  0
 47116  1  0  0  0
 47117  1  0  0  0
 48 56  1  0  0  0
 48 65  1  0  0  0
 48118  1  0  0  0
 49 50  1  0  0  0
 49 53  1  0  0  0
 49 64  1  0  0  0
 49119  1  0  0  0
 50 51  1  0  0  0
 50120  1  0  0  0
 50121  1  0  0  0
 51 52  1  0  0  0
 51122  1  0  0  0
 51123  1  0  0  0
 52124  1  0  0  0
 52125  1  0  0  0
 53 54  1  0  0  0
 54 55  2  0  0  0
 54126  1  0  0  0
 55 57  1  0  0  0
 55127  1  0  0  0
 56 69  2  0  0  0
 57 58  2  0  0  0
 57128  1  0  0  0
 58129  1  0  0  0
 59 60  1  0  0  0
 59 61  1  0  0  0
 59 62  1  0  0  0
 60130  1  0  0  0
 60131  1  0  0  0
 60132  1  0  0  0
 61133  1  0  0  0
 61134  1  0  0  0
 61135  1  0  0  0
 62136  1  0  0  0
 62137  1  0  0  0
 62138  1  0  0  0
 63 65  1  0  0  0
 63139  1  0  0  0
 63140  1  0  0  0
 63141  1  0  0  0
 64142  1  0  0  0
 65143  1  0  0  0
 68 78  1  0  0  0
 71 72  2  0  0  0
 71 83  1  0  0  0
 71144  1  0  0  0
 72 76  1  0  0  0
 72 81  1  0  0  0
 73145  1  0  0  0
 73146  1  0  0  0
 73147  1  0  0  0
 73 79  1  0  0  0
 74148  1  0  0  0
 74149  1  0  0  0
 74150  1  0  0  0
 74 80  1  0  0  0
 75 80  1  0  0  0
 75151  1  0  0  0
 75152  1  0  0  0
 75153  1  0  0  0
 76 78  1  0  0  0
 76154  1  0  0  0
 76155  1  0  0  0
 77 80  1  0  0  0
 77 83  1  0  0  0
 77156  1  0  0  0
 77157  1  0  0  0
 78158  1  0  0  0
 78159  1  0  0  0
 79 80  1  0  0  0
 79 84  1  0  0  0
 81 82  2  0  0  0
 82 83  1  0  0  0
M  ISO  4   1 100  68 101  78 101  79 100
M  END
> <chiral flag>
0

> <version>
0

> <s_m_source_file>
/data/baiqing/PycharmProjects/Reinvent-master-3.2/result/LINK_invent/BTK/process_docking_weight1_custom_sum_contain_oxygen_bond_distance_aromatic_linkinvent_7_9_3/rearranged_h_0074.sdf

> <i_m_source_file_index>
56

> <r_mmod_Potential_Energy-OPLS-2005>
217.652938842773

> <r_mmod_Stretch_Energy-OPLS-2005>
124.23477935791

> <r_mmod_Bend_Energy-OPLS-2005>
171.60205078125

> <r_mmod_Torsional_Energy-OPLS-2005>
176.440948486328

> <r_mmod_Improper_Torsional_Energy-OPLS-2005>
2.91136789321899

> <r_mmod_Van_der_Waal_Energy-OPLS-2005>
130.441268920898

> <r_mmod_Electrostatic_Energy-OPLS-2005>
-259.591705322266

> <r_mmod_Solvation_Energy-OPLS-2005>
-197.340728759766

> <b_mmod_Minimization_Converged-OPLS-2005>
0

> <r_mmod_RMS_Derivative-OPLS-2005>
4.50024175643921

$$$$
56
                    3D
 Structure written by MMmdl.
163171  0  0  1  0            999 V2000
  -30.6101  -14.7029   20.4988 C   0  0  0  0  0  0
  -30.4233  -12.4455   19.4306 C   0  0  0  0  0  0
  -29.4916  -12.5390   18.1998 C   0  0  0  0  0  0
  -28.0083  -12.3805   18.5993 C   0  0  0  0  0  0
  -27.6385  -13.2127   19.8552 C   0  0  2  0  0  0
  -28.6949  -13.0268   20.9657 C   0  0  0  0  0  0
  -25.2429  -13.8090   20.5664 C   0  0  0  0  0  0
  -24.1749  -13.0343   20.9182 C   0  0  0  0  0  0
  -24.6370  -11.6819   20.8732 C   0  0  0  0  0  0
  -23.9080  -10.4201   21.0403 C   0  0  0  0  0  0
  -24.3616   -9.4121   21.9200 C   0  0  0  0  0  0
  -23.6268   -8.2179   22.0784 C   0  0  0  0  0  0
  -22.4259   -8.0231   21.3555 C   0  0  0  0  0  0
  -21.9902   -9.0212   20.4668 C   0  0  0  0  0  0
  -22.7249  -10.2069   20.3064 C   0  0  0  0  0  0
  -21.6835   -6.0698   22.5276 C   0  0  0  0  0  0
  -21.3988   -6.5613   23.8210 C   0  0  0  0  0  0
  -21.3681   -5.6783   24.9185 C   0  0  0  0  0  0
  -21.6054   -4.3049   24.7249 C   0  0  0  0  0  0
  -21.8811   -3.8125   23.4380 C   0  0  0  0  0  0
  -21.9182   -4.6921   22.3414 C   0  0  0  0  0  0
  -22.7770  -13.5125   21.1858 C   0  0  0  0  0  0
  -22.1641   -4.2102   21.0998 F   0  0  0  0  0  0
  -21.5668   -3.4542   25.7780 F   0  0  0  0  0  0
  -29.9848  -13.4688   20.4179 N   0  0  0  0  0  0
  -26.2890  -12.9303   20.3289 N   0  0  0  0  0  0
  -25.9286  -11.6448   20.5710 N   0  0  0  0  0  0
  -22.0415  -12.8132   22.0422 N   0  0  0  0  0  0
  -25.4014  -15.1836   20.4102 N   0  0  0  0  0  0
  -31.7588  -14.7755   20.0471 O   0  0  0  0  0  0
  -21.6615   -6.8839   21.4244 O   0  0  0  0  0  0
  -22.3446  -14.5440   20.6726 O   0  0  0  0  0  0
  -24.6270  -31.8621   23.2063 C   0  0  0  0  0  0
  -25.9117  -32.4791   23.8390 C   0  0  1  0  0  0
  -27.2118  -27.3115   20.1047 C   0  0  0  0  0  0
  -25.5940  -33.8594   24.2328 N   0  0  0  0  0  0
  -23.4198  -30.4904   21.5495 C   0  0  2  0  0  0
  -24.8636  -28.9547   20.1047 C   0  0  0  0  0  0
  -22.7473  -29.4659   22.4933 C   0  0  0  0  0  0
  -18.0289  -28.1405   22.8472 C   0  0  0  0  0  0
  -24.1490  -36.7291   23.2636 C   0  0  0  0  0  0
  -25.9642  -30.7854   21.3860 C   0  0  0  0  0  0
  -26.0334  -29.4159   20.7213 C   0  0  0  0  0  0
  -27.2086  -28.6036   20.7192 C   0  0  0  0  0  0
  -26.0208  -26.9209   19.4434 C   0  0  0  0  0  0
  -24.8608  -27.7129   19.4559 C   0  0  0  0  0  0
  -23.6334  -29.8371   20.1601 C   0  0  0  0  0  0
  -25.4113  -36.3105   24.0343 C   0  0  1  0  0  0
  -20.5884  -28.3723   23.1260 C   0  0  2  0  0  0
  -20.6794  -26.9446   22.5402 C   0  0  0  0  0  0
  -19.5777  -26.6395   21.5207 C   0  0  0  0  0  0
  -18.1945  -26.7948   22.1606 C   0  0  0  0  0  0
  -19.1540  -28.8881   23.2861 C   0  0  0  0  0  0
  -18.9467  -30.1474   23.8895 C   0  0  0  0  0  0
  -17.6471  -30.6603   24.0570 C   0  0  0  0  0  0
  -25.9053  -34.9464   23.5138 C   0  0  0  0  0  0
  -16.5362  -29.9111   23.6332 C   0  0  0  0  0  0
  -16.7276  -28.6529   23.0344 C   0  0  0  0  0  0
  -26.4503  -31.6584   25.0750 C   0  0  0  0  0  0
  -25.3721  -31.3711   26.1461 C   0  0  0  0  0  0
  -27.0382  -30.3013   24.6220 C   0  0  0  0  0  0
  -27.6092  -32.4313   25.7492 C   0  0  0  0  0  0
  -27.5595  -37.1796   24.8469 C   0  0  0  0  0  0
  -21.4191  -29.3069   22.3650 N   0  0  0  0  0  0
  -26.4302  -37.3795   23.9422 N   0  0  0  0  0  0
  -24.6887  -31.0624   22.1029 N   0  0  0  0  0  0
  -23.4182  -28.8189   23.3013 O   0  0  0  0  0  0
  -28.3116  -26.4315   20.1703 O   0  0  0  0  0  0
  -26.5614  -34.8927   22.4698 O   0  0  0  0  0  0
  -23.5433  -32.1442   23.7372 O   0  0  0  0  0  0
  -29.2360  -19.3116   21.4699 C   0  0  0  0  0  0
  -29.1375  -21.0254   20.1332 C   0  0  0  0  0  0
  -29.5839  -19.8971   19.4344 C   0  0  0  0  0  0
  -29.9256  -19.8308   17.9768 C   0  0  0  0  0  0
  -28.7212  -16.8659   18.9099 C   0  0  0  0  0  0
  -28.6985  -15.9769   21.8666 C   0  0  0  0  0  0
  -31.0695  -16.6050   22.0750 C   0  0  0  0  0  0
  -28.6157  -22.4029   19.6141 C   0  0  0  0  0  0
  -29.0320  -23.8022   20.2573 C   0  0  0  0  0  0
  -28.0699  -25.0030   19.8347 C   0  0  0  0  0  0
  -29.8166  -17.2797   19.9238 C   0  0  2  0  0  0
  -30.0105  -16.1162   21.0555 C   0  0  0  0  0  0
  -28.9440  -20.6189   21.4485 N   0  0  0  0  0  0
  -29.5772  -18.7508   20.2912 N   0  0  0  0  0  0
  -31.4570  -12.5756   19.1133 H   0  0  0  0  0  0
  -30.3892  -11.4432   19.8588 H   0  0  0  0  0  0
  -29.7600  -11.7793   17.4628 H   0  0  0  0  0  0
  -29.6368  -13.5016   17.7063 H   0  0  0  0  0  0
  -27.8160  -11.3232   18.7802 H   0  0  0  0  0  0
  -27.3682  -12.6672   17.7638 H   0  0  0  0  0  0
  -27.6469  -14.2487   19.5311 H   0  0  0  0  0  0
  -28.7476  -11.9702   21.2315 H   0  0  0  0  0  0
  -28.4264  -13.5023   21.9001 H   0  0  0  0  0  0
  -25.2732   -9.5557   22.4828 H   0  0  0  0  0  0
  -23.9944   -7.4547   22.7501 H   0  0  0  0  0  0
  -21.0848   -8.8722   19.8973 H   0  0  0  0  0  0
  -22.3701  -10.9624   19.6198 H   0  0  0  0  0  0
  -21.1949   -7.6112   23.9679 H   0  0  0  0  0  0
  -21.1544   -6.0539   25.9089 H   0  0  0  0  0  0
  -22.0593   -2.7589   23.2897 H   0  0  0  0  0  0
  -22.4023  -11.9803   22.4828 H   0  0  0  0  0  0
  -21.1031  -13.1166   22.2626 H   0  0  0  0  0  0
  -24.6408  -15.8341   20.5690 H   0  0  0  0  0  0
  -26.2662  -15.6360   20.1446 H   0  0  0  0  0  0
  -26.7178  -32.5463   23.1136 H   0  0  0  0  0  0
  -25.0119  -33.9743   25.0496 H   0  0  0  0  0  0
  -22.7142  -31.3121   21.4132 H   0  0  0  0  0  0
  -23.3781  -35.9593   23.3285 H   0  0  0  0  0  0
  -24.3595  -36.8914   22.2054 H   0  0  0  0  0  0
  -23.7194  -37.6471   23.6655 H   0  0  0  0  0  0
  -26.1072  -31.5527   20.6245 H   0  0  0  0  0  0
  -26.8400  -30.8240   22.0210 H   0  0  0  0  0  0
  -28.1004  -28.9476   21.2244 H   0  0  0  0  0  0
  -25.9478  -25.9864   18.9074 H   0  0  0  0  0  0
  -23.9711  -27.3627   18.9509 H   0  0  0  0  0  0
  -23.7533  -30.6220   19.4131 H   0  0  0  0  0  0
  -22.7502  -29.2739   19.8544 H   0  0  0  0  0  0
  -25.1281  -36.1989   25.0836 H   0  0  0  0  0  0
  -20.9969  -28.3323   24.1383 H   0  0  0  0  0  0
  -20.5721  -26.2339   23.3606 H   0  0  0  0  0  0
  -21.6664  -26.7503   22.1193 H   0  0  0  0  0  0
  -19.6954  -25.6302   21.1254 H   0  0  0  0  0  0
  -19.6716  -27.3186   20.6718 H   0  0  0  0  0  0
  -17.4216  -26.6681   21.4008 H   0  0  0  0  0  0
  -18.0353  -26.0096   22.9012 H   0  0  0  0  0  0
  -19.7943  -30.7284   24.2261 H   0  0  0  0  0  0
  -17.5034  -31.6274   24.5187 H   0  0  0  0  0  0
  -15.5370  -30.3025   23.7657 H   0  0  0  0  0  0
  -15.8670  -28.0858   22.7062 H   0  0  0  0  0  0
  -24.5904  -30.7064   25.7763 H   0  0  0  0  0  0
  -24.8891  -32.2866   26.4888 H   0  0  0  0  0  0
  -25.8012  -30.8871   27.0239 H   0  0  0  0  0  0
  -26.2983  -29.6716   24.1264 H   0  0  0  0  0  0
  -27.4113  -29.7314   25.4741 H   0  0  0  0  0  0
  -27.8833  -30.4325   23.9459 H   0  0  0  0  0  0
  -27.2750  -33.3630   26.2065 H   0  0  0  0  0  0
  -28.3877  -32.6827   25.0278 H   0  0  0  0  0  0
  -28.0785  -31.8427   26.5384 H   0  0  0  0  0  0
  -28.2604  -38.0106   24.7566 H   0  0  0  0  0  0
  -28.1105  -36.2645   24.6248 H   0  0  0  0  0  0
  -27.2321  -37.1389   25.8871 H   0  0  0  0  0  0
  -20.9372  -29.8771   21.6840 H   0  0  0  0  0  0
  -26.0201  -38.2876   24.1426 H   0  0  0  0  0  0
  -29.1400  -18.7687   22.3919 H   0  0  0  0  0  0
  -30.4152  -20.7490   17.6531 H   0  0  0  0  0  0
  -29.0275  -19.7126   17.3719 H   0  0  0  0  0  0
  -30.6034  -19.0082   17.7482 H   0  0  0  0  0  0
  -28.8442  -15.8460   18.5554 H   0  0  0  0  0  0
  -28.7292  -17.4855   18.0181 H   0  0  0  0  0  0
  -27.7224  -16.9619   19.3361 H   0  0  0  0  0  0
  -28.2842  -16.9221   22.1954 H   0  0  0  0  0  0
  -28.8520  -15.3972   22.7753 H   0  0  0  0  0  0
  -27.8986  -15.5342   21.2881 H   0  0  0  0  0  0
  -30.6865  -17.3489   22.7698 H   0  0  0  0  0  0
  -31.9378  -17.0332   21.5735 H   0  0  0  0  0  0
  -31.4230  -15.7847   22.7015 H   0  0  0  0  0  0
  -27.5260  -22.3588   19.6587 H   0  0  0  0  0  0
  -28.8242  -22.4748   18.5465 H   0  0  0  0  0  0
  -30.0623  -24.0312   19.9871 H   0  0  0  0  0  0
  -29.0165  -23.7101   21.3416 H   0  0  0  0  0  0
  -27.1011  -24.7193   20.2508 H   0  0  0  0  0  0
  -27.9713  -24.9588   18.7503 H   0  0  0  0  0  0
  -30.7535  -17.2838   19.3663 H   0  0  0  0  0  0
  1 25  1  0  0  0
  1 30  2  0  0  0
  1 82  1  0  0  0
  2  3  1  0  0  0
  2 25  1  0  0  0
  2 85  1  0  0  0
  2 86  1  0  0  0
  3  4  1  0  0  0
  3 87  1  0  0  0
  3 88  1  0  0  0
  4  5  1  0  0  0
  4 89  1  0  0  0
  4 90  1  0  0  0
  5  6  1  0  0  0
  5 26  1  0  0  0
  5 91  1  0  0  0
  6 25  1  0  0  0
  6 92  1  0  0  0
  6 93  1  0  0  0
  7  8  2  0  0  0
  7 26  1  0  0  0
  7 29  1  0  0  0
  8  9  1  0  0  0
  8 22  1  0  0  0
  9 10  1  0  0  0
  9 27  2  0  0  0
 10 11  2  0  0  0
 10 15  1  0  0  0
 11 12  1  0  0  0
 11 94  1  0  0  0
 12 13  2  0  0  0
 12 95  1  0  0  0
 13 14  1  0  0  0
 13 31  1  0  0  0
 14 15  2  0  0  0
 14 96  1  0  0  0
 15 97  1  0  0  0
 16 17  2  0  0  0
 16 21  1  0  0  0
 16 31  1  0  0  0
 17 18  1  0  0  0
 17 98  1  0  0  0
 18 19  2  0  0  0
 18 99  1  0  0  0
 19 20  1  0  0  0
 19 24  1  0  0  0
 20 21  2  0  0  0
 20100  1  0  0  0
 21 23  1  0  0  0
 22 28  1  0  0  0
 22 32  2  0  0  0
 26 27  1  0  0  0
 28101  1  0  0  0
 28102  1  0  0  0
 29103  1  0  0  0
 29104  1  0  0  0
 33 34  1  0  0  0
 33 66  1  0  0  0
 33 70  2  0  0  0
 34 36  1  0  0  0
 34 59  1  0  0  0
 34105  1  0  0  0
 35 44  2  0  0  0
 35 45  1  0  0  0
 35 68  1  0  0  0
 36 56  1  0  0  0
 36106  1  0  0  0
 37 39  1  0  0  0
 37 47  1  0  0  0
 37 66  1  0  0  0
 37107  1  0  0  0
 38 43  2  0  0  0
 38 46  1  0  0  0
 38 47  1  0  0  0
 39 64  1  0  0  0
 39 67  2  0  0  0
 40 52  1  0  0  0
 40 53  2  0  0  0
 40 58  1  0  0  0
 41108  1  0  0  0
 41109  1  0  0  0
 41110  1  0  0  0
 41 48  1  0  0  0
 42 43  1  0  0  0
 42 66  1  0  0  0
 42111  1  0  0  0
 42112  1  0  0  0
 43 44  1  0  0  0
 44113  1  0  0  0
 45 46  2  0  0  0
 45114  1  0  0  0
 46115  1  0  0  0
 47116  1  0  0  0
 47117  1  0  0  0
 48 56  1  0  0  0
 48 65  1  0  0  0
 48118  1  0  0  0
 49 50  1  0  0  0
 49 53  1  0  0  0
 49 64  1  0  0  0
 49119  1  0  0  0
 50 51  1  0  0  0
 50120  1  0  0  0
 50121  1  0  0  0
 51 52  1  0  0  0
 51122  1  0  0  0
 51123  1  0  0  0
 52124  1  0  0  0
 52125  1  0  0  0
 53 54  1  0  0  0
 54 55  2  0  0  0
 54126  1  0  0  0
 55 57  1  0  0  0
 55127  1  0  0  0
 56 69  2  0  0  0
 57 58  2  0  0  0
 57128  1  0  0  0
 58129  1  0  0  0
 59 60  1  0  0  0
 59 61  1  0  0  0
 59 62  1  0  0  0
 60130  1  0  0  0
 60131  1  0  0  0
 60132  1  0  0  0
 61133  1  0  0  0
 61134  1  0  0  0
 61135  1  0  0  0
 62136  1  0  0  0
 62137  1  0  0  0
 62138  1  0  0  0
 63 65  1  0  0  0
 63139  1  0  0  0
 63140  1  0  0  0
 63141  1  0  0  0
 64142  1  0  0  0
 65143  1  0  0  0
 68 80  1  0  0  0
 71 83  2  0  0  0
 71 84  1  0  0  0
 71144  1  0  0  0
 72 73  2  0  0  0
 72 78  1  0  0  0
 72 83  1  0  0  0
 73 74  1  0  0  0
 73 84  1  0  0  0
 74145  1  0  0  0
 74146  1  0  0  0
 74147  1  0  0  0
 75148  1  0  0  0
 75149  1  0  0  0
 75150  1  0  0  0
 75 81  1  0  0  0
 76151  1  0  0  0
 76152  1  0  0  0
 76153  1  0  0  0
 76 82  1  0  0  0
 77 82  1  0  0  0
 77154  1  0  0  0
 77155  1  0  0  0
 77156  1  0  0  0
 78 79  1  0  0  0
 78157  1  0  0  0
 78158  1  0  0  0
 79 80  1  0  0  0
 79159  1  0  0  0
 79160  1  0  0  0
 80161  1  0  0  0
 80162  1  0  0  0
 81 82  1  0  0  0
 81 84  1  0  0  0
 81163  1  0  0  0
M  ISO  4   1 100  68 101  80 101  82 100
M  END
> <chiral flag>
0

> <version>
0

> <s_m_source_file>
/data/baiqing/PycharmProjects/Reinvent-master-3.2/result/LINK_invent/BTK/process_docking_weight1_custom_sum_contain_oxygen_bond_distance_aromatic_linkinvent_7_9_3/rearranged_h_0074.sdf

> <i_m_source_file_index>
57

> <r_mmod_Potential_Energy-OPLS-2005>
193.958267211914

> <r_mmod_Stretch_Energy-OPLS-2005>
114.250938415527

> <r_mmod_Bend_Energy-OPLS-2005>
194.490798950195

> <r_mmod_Torsional_Energy-OPLS-2005>
208.037414550781

> <r_mmod_Improper_Torsional_Energy-OPLS-2005>
3.77144312858582

> <r_mmod_Van_der_Waal_Energy-OPLS-2005>
142.011871337891

> <r_mmod_Electrostatic_Energy-OPLS-2005>
-325.740173339844

> <r_mmod_Solvation_Energy-OPLS-2005>
-203.176422119141

> <b_mmod_Minimization_Converged-OPLS-2005>
0

> <r_mmod_RMS_Derivative-OPLS-2005>
3.5858850479126

$$$$
57
                    3D
 Structure written by MMmdl.
166174  0  0  1  0            999 V2000
  -30.6611  -14.4750   20.5309 C   0  0  0  0  0  0
  -30.4266  -12.3065   19.4018 C   0  0  0  0  0  0
  -29.4894  -12.4976   18.1906 C   0  0  0  0  0  0
  -28.0079  -12.3615   18.6026 C   0  0  0  0  0  0
  -27.6566  -13.1964   19.8643 C   0  0  2  0  0  0
  -28.7015  -12.9748   20.9830 C   0  0  0  0  0  0
  -25.2610  -13.8126   20.5640 C   0  0  0  0  0  0
  -24.1850  -13.0407   20.9143 C   0  0  0  0  0  0
  -24.6380  -11.6894   20.8695 C   0  0  0  0  0  0
  -23.9048  -10.4286   21.0376 C   0  0  0  0  0  0
  -24.3614   -9.4210   21.9154 C   0  0  0  0  0  0
  -23.6294   -8.2244   22.0756 C   0  0  0  0  0  0
  -22.4280   -8.0277   21.3559 C   0  0  0  0  0  0
  -21.9915   -9.0233   20.4650 C   0  0  0  0  0  0
  -22.7232  -10.2109   20.3041 C   0  0  0  0  0  0
  -21.6872   -6.0731   22.5276 C   0  0  0  0  0  0
  -21.4032   -6.5644   23.8205 C   0  0  0  0  0  0
  -21.3633   -5.6797   24.9161 C   0  0  0  0  0  0
  -21.6021   -4.3054   24.7219 C   0  0  0  0  0  0
  -21.8832   -3.8145   23.4347 C   0  0  0  0  0  0
  -21.9207   -4.6955   22.3400 C   0  0  0  0  0  0
  -22.7913  -13.5239   21.1796 C   0  0  0  0  0  0
  -22.1693   -4.2142   21.0984 F   0  0  0  0  0  0
  -21.5598   -3.4539   25.7722 F   0  0  0  0  0  0
  -30.0250  -13.2840   20.4211 N   0  0  0  0  0  0
  -26.3003  -12.9251   20.3284 N   0  0  0  0  0  0
  -25.9308  -11.6432   20.5737 N   0  0  0  0  0  0
  -22.0567  -12.8222   22.0348 N   0  0  0  0  0  0
  -25.4321  -15.1829   20.4052 N   0  0  0  0  0  0
  -31.8434  -14.6443   20.2213 O   0  0  0  0  0  0
  -21.6669   -6.8868   21.4241 O   0  0  0  0  0  0
  -22.3626  -14.5557   20.6635 O   0  0  0  0  0  0
  -24.6190  -31.8650   23.2057 C   0  0  0  0  0  0
  -25.9056  -32.4814   23.8368 C   0  0  1  0  0  0
  -27.2330  -27.3913   20.1052 C   0  0  0  0  0  0
  -25.5871  -33.8594   24.2288 N   0  0  0  0  0  0
  -23.4074  -30.4962   21.5438 C   0  0  2  0  0  0
  -24.8580  -28.9484   20.1173 C   0  0  0  0  0  0
  -22.7352  -29.4748   22.4922 C   0  0  0  0  0  0
  -18.0279  -28.1356   22.8514 C   0  0  0  0  0  0
  -24.1468  -36.7360   23.2645 C   0  0  0  0  0  0
  -25.9423  -30.8185   21.3658 C   0  0  0  0  0  0
  -26.0186  -29.4453   20.7231 C   0  0  0  0  0  0
  -27.2075  -28.6710   20.7190 C   0  0  0  0  0  0
  -26.0534  -26.9333   19.4738 C   0  0  0  0  0  0
  -24.8727  -27.6949   19.4898 C   0  0  0  0  0  0
  -23.6207  -29.8143   20.1648 C   0  0  0  0  0  0
  -25.4072  -36.3094   24.0345 C   0  0  1  0  0  0
  -20.5878  -28.3674   23.1284 C   0  0  2  0  0  0
  -20.6741  -26.9405   22.5390 C   0  0  0  0  0  0
  -19.5746  -26.6382   21.5164 C   0  0  0  0  0  0
  -18.1931  -26.7910   22.1604 C   0  0  0  0  0  0
  -19.1529  -28.8814   23.2931 C   0  0  0  0  0  0
  -18.9466  -30.1426   23.8940 C   0  0  0  0  0  0
  -17.6470  -30.6575   24.0566 C   0  0  0  0  0  0
  -25.8999  -34.9469   23.5109 C   0  0  0  0  0  0
  -16.5359  -29.9073   23.6353 C   0  0  0  0  0  0
  -16.7276  -28.6499   23.0361 C   0  0  0  0  0  0
  -26.4459  -31.6600   25.0722 C   0  0  0  0  0  0
  -25.3721  -31.3684   26.1464 C   0  0  0  0  0  0
  -27.0354  -30.3048   24.6193 C   0  0  0  0  0  0
  -27.6054  -32.4301   25.7485 C   0  0  0  0  0  0
  -27.5574  -37.1831   24.8467 C   0  0  0  0  0  0
  -21.4073  -29.3104   22.3656 N   0  0  0  0  0  0
  -26.4260  -37.3784   23.9424 N   0  0  0  0  0  0
  -24.6751  -31.0735   22.0972 N   0  0  0  0  0  0
  -23.4111  -28.8223   23.2933 O   0  0  0  0  0  0
  -28.3866  -26.6201   20.1532 O   0  0  0  0  0  0
  -26.5580  -34.8936   22.4677 O   0  0  0  0  0  0
  -23.5374  -32.1376   23.7467 O   0  0  0  0  0  0
  -30.1794  -22.2706   19.3167 C   0  0  0  0  0  0
  -29.3256  -22.8429   20.2859 C   0  0  0  0  0  0
  -28.4056  -20.7413   20.6773 C   0  0  0  0  0  0
  -29.2421  -20.1665   19.6717 C   0  0  0  0  0  0
  -27.3640  -19.9280   21.4383 C   0  0  0  0  0  0
  -28.5377  -18.9000   17.6612 C   0  0  0  0  0  0
  -30.1312  -16.5952   18.1374 C   0  0  0  0  0  0
  -31.5959  -18.3027   19.1698 C   0  0  0  0  0  0
  -29.3905  -24.3501   20.5900 C   0  0  0  0  0  0
  -30.1680  -16.9537   20.7044 C   0  0  0  0  0  0
  -28.2510  -25.1895   19.9515 C   0  0  0  0  0  0
  -29.0306  -18.7270   19.1194 C   0  0  1  0  0  0
  -30.2046  -17.6501   19.2842 C   0  0  0  0  0  0
  -30.1331  -20.9522   19.0062 N   0  0  0  0  0  0
  -28.4478  -22.0695   20.9788 N   0  0  0  0  0  0
  -29.8354  -15.5180   20.7511 N   0  0  0  0  0  0
  -31.4653  -12.4340   19.0959 H   0  0  0  0  0  0
  -30.3496  -11.2947   19.8032 H   0  0  0  0  0  0
  -29.7265  -11.7688   17.4139 H   0  0  0  0  0  0
  -29.6567  -13.4784   17.7435 H   0  0  0  0  0  0
  -27.8111  -11.3046   18.7870 H   0  0  0  0  0  0
  -27.3656  -12.6514   17.7679 H   0  0  0  0  0  0
  -27.6951  -14.2418   19.5585 H   0  0  0  0  0  0
  -28.6903  -11.9372   21.3198 H   0  0  0  0  0  0
  -28.4756  -13.5724   21.8667 H   0  0  0  0  0  0
  -25.2752   -9.5704   22.4723 H   0  0  0  0  0  0
  -23.9983   -7.4659   22.7512 H   0  0  0  0  0  0
  -21.0847   -8.8763   19.8981 H   0  0  0  0  0  0
  -22.3679  -10.9644   19.6164 H   0  0  0  0  0  0
  -21.2066   -7.6165   23.9696 H   0  0  0  0  0  0
  -21.1433   -6.0546   25.9052 H   0  0  0  0  0  0
  -22.0636   -2.7615   23.2857 H   0  0  0  0  0  0
  -22.4244  -11.9884   22.4674 H   0  0  0  0  0  0
  -21.1181  -13.1239   22.2540 H   0  0  0  0  0  0
  -24.6535  -15.8267   20.4934 H   0  0  0  0  0  0
  -26.2704  -15.6236   20.0488 H   0  0  0  0  0  0
  -26.7129  -32.5562   23.1139 H   0  0  0  0  0  0
  -24.9915  -33.9676   25.0374 H   0  0  0  0  0  0
  -22.7102  -31.3236   21.3913 H   0  0  0  0  0  0
  -23.3694  -35.9733   23.3286 H   0  0  0  0  0  0
  -24.3551  -36.8997   22.2061 H   0  0  0  0  0  0
  -23.7260  -37.6586   23.6648 H   0  0  0  0  0  0
  -26.0427  -31.5665   20.5763 H   0  0  0  0  0  0
  -26.8339  -30.8890   21.9767 H   0  0  0  0  0  0
  -28.0995  -29.0290   21.2139 H   0  0  0  0  0  0
  -26.0223  -25.9813   18.9629 H   0  0  0  0  0  0
  -23.9839  -27.3091   19.0070 H   0  0  0  0  0  0
  -23.7202  -30.5723   19.3883 H   0  0  0  0  0  0
  -22.7485  -29.2195   19.8811 H   0  0  0  0  0  0
  -25.1241  -36.1905   25.0837 H   0  0  0  0  0  0
  -21.0059  -28.3227   24.1369 H   0  0  0  0  0  0
  -20.5509  -26.2281   23.3571 H   0  0  0  0  0  0
  -21.6629  -26.7353   22.1274 H   0  0  0  0  0  0
  -19.6876  -25.6269   21.1233 H   0  0  0  0  0  0
  -19.6674  -27.3151   20.6658 H   0  0  0  0  0  0
  -17.4165  -26.6655   21.4042 H   0  0  0  0  0  0
  -18.0410  -26.0006   22.8968 H   0  0  0  0  0  0
  -19.7939  -30.7228   24.2339 H   0  0  0  0  0  0
  -17.5037  -31.6294   24.5099 H   0  0  0  0  0  0
  -15.5365  -30.2972   23.7689 H   0  0  0  0  0  0
  -15.8676  -28.0827   22.7059 H   0  0  0  0  0  0
  -24.5924  -30.6995   25.7777 H   0  0  0  0  0  0
  -24.8905  -32.2847   26.4890 H   0  0  0  0  0  0
  -25.8100  -30.8859   27.0218 H   0  0  0  0  0  0
  -26.2974  -29.6723   24.1256 H   0  0  0  0  0  0
  -27.4089  -29.7341   25.4699 H   0  0  0  0  0  0
  -27.8768  -30.4345   23.9390 H   0  0  0  0  0  0
  -27.2718  -33.3595   26.2075 H   0  0  0  0  0  0
  -28.3871  -32.6839   25.0324 H   0  0  0  0  0  0
  -28.0690  -31.8393   26.5383 H   0  0  0  0  0  0
  -28.2590  -38.0139   24.7497 H   0  0  0  0  0  0
  -28.1063  -36.2660   24.6246 H   0  0  0  0  0  0
  -27.2313  -37.1452   25.8885 H   0  0  0  0  0  0
  -20.9118  -29.8881   21.6997 H   0  0  0  0  0  0
  -26.0141  -38.2870   24.1381 H   0  0  0  0  0  0
  -30.8981  -22.8775   18.7845 H   0  0  0  0  0  0
  -26.5239  -19.6713   20.7888 H   0  0  0  0  0  0
  -26.9779  -20.4704   22.3001 H   0  0  0  0  0  0
  -27.7846  -18.9975   21.8172 H   0  0  0  0  0  0
  -27.7526  -19.6564   17.5969 H   0  0  0  0  0  0
  -28.1144  -17.9867   17.2418 H   0  0  0  0  0  0
  -29.3508  -19.2213   17.0088 H   0  0  0  0  0  0
  -30.9234  -15.8537   18.2061 H   0  0  0  0  0  0
  -30.2687  -17.0358   17.1488 H   0  0  0  0  0  0
  -29.1808  -16.0585   18.1366 H   0  0  0  0  0  0
  -32.3865  -17.5550   19.2268 H   0  0  0  0  0  0
  -31.7820  -19.0139   19.9740 H   0  0  0  0  0  0
  -31.7123  -18.8241   18.2202 H   0  0  0  0  0  0
  -30.3587  -24.7269   20.2562 H   0  0  0  0  0  0
  -29.3811  -24.4868   21.6720 H   0  0  0  0  0  0
  -29.4630  -17.4697   21.3529 H   0  0  0  0  0  0
  -31.1245  -17.0601   21.2196 H   0  0  0  0  0  0
  -27.3149  -24.8306   20.3825 H   0  0  0  0  0  0
  -28.2162  -24.9978   18.8784 H   0  0  0  0  0  0
  -28.1675  -18.2997   19.6284 H   0  0  0  0  0  0
  -28.8747  -15.2808   20.9464 H   0  0  0  0  0  0
  1 25  1  0  0  0
  1 30  2  0  0  0
  1 86  1  0  0  0
  2  3  1  0  0  0
  2 25  1  0  0  0
  2 87  1  0  0  0
  2 88  1  0  0  0
  3  4  1  0  0  0
  3 89  1  0  0  0
  3 90  1  0  0  0
  4  5  1  0  0  0
  4 91  1  0  0  0
  4 92  1  0  0  0
  5  6  1  0  0  0
  5 26  1  0  0  0
  5 93  1  0  0  0
  6 25  1  0  0  0
  6 94  1  0  0  0
  6 95  1  0  0  0
  7  8  2  0  0  0
  7 26  1  0  0  0
  7 29  1  0  0  0
  8  9  1  0  0  0
  8 22  1  0  0  0
  9 10  1  0  0  0
  9 27  2  0  0  0
 10 11  2  0  0  0
 10 15  1  0  0  0
 11 12  1  0  0  0
 11 96  1  0  0  0
 12 13  2  0  0  0
 12 97  1  0  0  0
 13 14  1  0  0  0
 13 31  1  0  0  0
 14 15  2  0  0  0
 14 98  1  0  0  0
 15 99  1  0  0  0
 16 17  2  0  0  0
 16 21  1  0  0  0
 16 31  1  0  0  0
 17 18  1  0  0  0
 17100  1  0  0  0
 18 19  2  0  0  0
 18101  1  0  0  0
 19 20  1  0  0  0
 19 24  1  0  0  0
 20 21  2  0  0  0
 20102  1  0  0  0
 21 23  1  0  0  0
 22 28  1  0  0  0
 22 32  2  0  0  0
 26 27  1  0  0  0
 28103  1  0  0  0
 28104  1  0  0  0
 29105  1  0  0  0
 29106  1  0  0  0
 33 34  1  0  0  0
 33 66  1  0  0  0
 33 70  2  0  0  0
 34 36  1  0  0  0
 34 59  1  0  0  0
 34107  1  0  0  0
 35 44  2  0  0  0
 35 45  1  0  0  0
 35 68  1  0  0  0
 36 56  1  0  0  0
 36108  1  0  0  0
 37 39  1  0  0  0
 37 47  1  0  0  0
 37 66  1  0  0  0
 37109  1  0  0  0
 38 43  2  0  0  0
 38 46  1  0  0  0
 38 47  1  0  0  0
 39 64  1  0  0  0
 39 67  2  0  0  0
 40 52  1  0  0  0
 40 53  2  0  0  0
 40 58  1  0  0  0
 41110  1  0  0  0
 41111  1  0  0  0
 41112  1  0  0  0
 41 48  1  0  0  0
 42 43  1  0  0  0
 42 66  1  0  0  0
 42113  1  0  0  0
 42114  1  0  0  0
 43 44  1  0  0  0
 44115  1  0  0  0
 45 46  2  0  0  0
 45116  1  0  0  0
 46117  1  0  0  0
 47118  1  0  0  0
 47119  1  0  0  0
 48 56  1  0  0  0
 48 65  1  0  0  0
 48120  1  0  0  0
 49 50  1  0  0  0
 49 53  1  0  0  0
 49 64  1  0  0  0
 49121  1  0  0  0
 50 51  1  0  0  0
 50122  1  0  0  0
 50123  1  0  0  0
 51 52  1  0  0  0
 51124  1  0  0  0
 51125  1  0  0  0
 52126  1  0  0  0
 52127  1  0  0  0
 53 54  1  0  0  0
 54 55  2  0  0  0
 54128  1  0  0  0
 55 57  1  0  0  0
 55129  1  0  0  0
 56 69  2  0  0  0
 57 58  2  0  0  0
 57130  1  0  0  0
 58131  1  0  0  0
 59 60  1  0  0  0
 59 61  1  0  0  0
 59 62  1  0  0  0
 60132  1  0  0  0
 60133  1  0  0  0
 60134  1  0  0  0
 61135  1  0  0  0
 61136  1  0  0  0
 61137  1  0  0  0
 62138  1  0  0  0
 62139  1  0  0  0
 62140  1  0  0  0
 63 65  1  0  0  0
 63141  1  0  0  0
 63142  1  0  0  0
 63143  1  0  0  0
 64144  1  0  0  0
 65145  1  0  0  0
 68 81  1  0  0  0
 71 72  2  0  0  0
 71 84  1  0  0  0
 71146  1  0  0  0
 72 79  1  0  0  0
 72 85  1  0  0  0
 73 74  1  0  0  0
 73 75  1  0  0  0
 73 85  2  0  0  0
 74 82  1  0  0  0
 74 84  2  0  0  0
 75147  1  0  0  0
 75148  1  0  0  0
 75149  1  0  0  0
 76150  1  0  0  0
 76151  1  0  0  0
 76152  1  0  0  0
 76 82  1  0  0  0
 77153  1  0  0  0
 77154  1  0  0  0
 77155  1  0  0  0
 77 83  1  0  0  0
 78 83  1  0  0  0
 78156  1  0  0  0
 78157  1  0  0  0
 78158  1  0  0  0
 79 81  1  0  0  0
 79159  1  0  0  0
 79160  1  0  0  0
 80 83  1  0  0  0
 80 86  1  0  0  0
 80161  1  0  0  0
 80162  1  0  0  0
 81163  1  0  0  0
 81164  1  0  0  0
 82 83  1  0  0  0
 82165  1  0  0  0
 86166  1  0  0  0
M  ISO  4   1 100  68 101  81 101  86 100
M  END
> <chiral flag>
0

> <version>
0

> <s_m_source_file>
/data/baiqing/PycharmProjects/Reinvent-master-3.2/result/LINK_invent/BTK/process_docking_weight1_custom_sum_contain_oxygen_bond_distance_aromatic_linkinvent_7_9_3/rearranged_h_0074.sdf

> <i_m_source_file_index>
58

> <r_mmod_Potential_Energy-OPLS-2005>
12.9506177902222

> <r_mmod_Stretch_Energy-OPLS-2005>
55.134822845459

> <r_mmod_Bend_Energy-OPLS-2005>
119.150001525879

> <r_mmod_Torsional_Energy-OPLS-2005>
217.99836730957

> <r_mmod_Improper_Torsional_Energy-OPLS-2005>
7.33120584487915

> <r_mmod_Van_der_Waal_Energy-OPLS-2005>
174.474472045898

> <r_mmod_Electrostatic_Energy-OPLS-2005>
-365.628875732422

> <r_mmod_Solvation_Energy-OPLS-2005>
-216.713684082031

> <b_mmod_Minimization_Converged-OPLS-2005>
0

> <r_mmod_RMS_Derivative-OPLS-2005>
4.70909309387207

$$$$
58
                    3D
 Structure written by MMmdl.
164172  0  0  1  0            999 V2000
  -30.7277  -14.6259   20.5730 C   0  0  0  0  0  0
  -30.4094  -12.4000   19.4809 C   0  0  0  0  0  0
  -29.5020  -12.5265   18.2396 C   0  0  0  0  0  0
  -28.0254  -12.3657   18.6408 C   0  0  0  0  0  0
  -27.6503  -13.2340   19.8707 C   0  0  2  0  0  0
  -28.6935  -13.1009   21.0045 C   0  0  0  0  0  0
  -25.2408  -13.8141   20.5532 C   0  0  0  0  0  0
  -24.1759  -13.0387   20.9176 C   0  0  0  0  0  0
  -24.6405  -11.6893   20.8775 C   0  0  0  0  0  0
  -23.9092  -10.4270   21.0424 C   0  0  0  0  0  0
  -24.3632   -9.4183   21.9203 C   0  0  0  0  0  0
  -23.6296   -8.2225   22.0763 C   0  0  0  0  0  0
  -22.4279   -8.0274   21.3548 C   0  0  0  0  0  0
  -21.9925   -9.0251   20.4651 C   0  0  0  0  0  0
  -22.7265  -10.2123   20.3067 C   0  0  0  0  0  0
  -21.6850   -6.0733   22.5281 C   0  0  0  0  0  0
  -21.4011   -6.5638   23.8213 C   0  0  0  0  0  0
  -21.3658   -5.6792   24.9176 C   0  0  0  0  0  0
  -21.6042   -4.3054   24.7228 C   0  0  0  0  0  0
  -21.8821   -3.8145   23.4348 C   0  0  0  0  0  0
  -21.9190   -4.6962   22.3404 C   0  0  0  0  0  0
  -22.7782  -13.5171   21.1842 C   0  0  0  0  0  0
  -22.1662   -4.2147   21.0982 F   0  0  0  0  0  0
  -21.5629   -3.4539   25.7740 F   0  0  0  0  0  0
  -30.0141  -13.4472   20.4615 N   0  0  0  0  0  0
  -26.2960  -12.9423   20.3360 N   0  0  0  0  0  0
  -25.9359  -11.6558   20.5846 N   0  0  0  0  0  0
  -22.0450  -12.8175   22.0427 N   0  0  0  0  0  0
  -25.3825  -15.1817   20.3600 N   0  0  0  0  0  0
  -31.8004  -14.6775   19.9639 O   0  0  0  0  0  0
  -21.6637   -6.8876   21.4243 O   0  0  0  0  0  0
  -22.3454  -14.5476   20.6699 O   0  0  0  0  0  0
  -24.6227  -31.8594   23.2026 C   0  0  0  0  0  0
  -25.9084  -32.4776   23.8351 C   0  0  1  0  0  0
  -27.2325  -27.3366   20.1120 C   0  0  0  0  0  0
  -25.5914  -33.8580   24.2286 N   0  0  0  0  0  0
  -23.4156  -30.4803   21.5445 C   0  0  2  0  0  0
  -24.8628  -28.9310   20.1113 C   0  0  0  0  0  0
  -22.7453  -29.4610   22.4953 C   0  0  0  0  0  0
  -18.0276  -28.1371   22.8480 C   0  0  0  0  0  0
  -24.1489  -36.7297   23.2637 C   0  0  0  0  0  0
  -25.9526  -30.7941   21.3703 C   0  0  0  0  0  0
  -26.0262  -29.4209   20.7154 C   0  0  0  0  0  0
  -27.2085  -28.6314   20.7101 C   0  0  0  0  0  0
  -26.0445  -26.8817   19.4979 C   0  0  0  0  0  0
  -24.8722  -27.6662   19.4970 C   0  0  0  0  0  0
  -23.6291  -29.8089   20.1604 C   0  0  0  0  0  0
  -25.4113  -36.3085   24.0329 C   0  0  1  0  0  0
  -20.5874  -28.3667   23.1294 C   0  0  2  0  0  0
  -20.6768  -26.9398   22.5412 C   0  0  0  0  0  0
  -19.5748  -26.6377   21.5207 C   0  0  0  0  0  0
  -18.1924  -26.7916   22.1614 C   0  0  0  0  0  0
  -19.1529  -28.8835   23.2877 C   0  0  0  0  0  0
  -18.9455  -30.1441   23.8886 C   0  0  0  0  0  0
  -17.6458  -30.6577   24.0556 C   0  0  0  0  0  0
  -25.9046  -34.9451   23.5110 C   0  0  0  0  0  0
  -16.5346  -29.9077   23.6327 C   0  0  0  0  0  0
  -16.7266  -28.6494   23.0347 C   0  0  0  0  0  0
  -26.4482  -31.6579   25.0713 C   0  0  0  0  0  0
  -25.3726  -31.3704   26.1448 C   0  0  0  0  0  0
  -27.0329  -30.3007   24.6155 C   0  0  0  0  0  0
  -27.6050  -32.4310   25.7473 C   0  0  0  0  0  0
  -27.5583  -37.1803   24.8460 C   0  0  0  0  0  0
  -21.4170  -29.3026   22.3694 N   0  0  0  0  0  0
  -26.4294  -37.3779   23.9404 N   0  0  0  0  0  0
  -24.6822  -31.0615   22.0965 N   0  0  0  0  0  0
  -23.4186  -28.8165   23.3036 O   0  0  0  0  0  0
  -28.3893  -26.5555   20.1831 O   0  0  0  0  0  0
  -26.5617  -34.8911   22.4680 O   0  0  0  0  0  0
  -23.5399  -32.1392   23.7365 O   0  0  0  0  0  0
  -29.0608  -19.0429   19.3591 C   0  0  0  0  0  0
  -29.3283  -18.4538   20.6267 C   0  0  0  0  0  0
  -29.5122  -20.6475   21.4763 C   0  0  0  0  0  0
  -29.2502  -21.2301   20.1993 C   0  0  0  0  0  0
  -29.8276  -21.5100   22.6811 C   0  0  0  0  0  0
  -27.8488  -16.7222   21.6565 C   0  0  0  0  0  0
  -30.2163  -15.5839   22.9091 C   0  0  0  0  0  0
  -31.6512  -16.8530   21.4116 C   0  0  0  0  0  0
  -29.4266  -22.7548   19.8532 C   0  0  0  0  0  0
  -28.3926  -23.8823   20.2866 C   0  0  0  0  0  0
  -28.5508  -25.2614   19.5051 C   0  0  0  0  0  0
  -29.1586  -16.8964   20.8660 C   0  0  2  0  0  0
  -30.3691  -15.9629   21.4099 C   0  0  0  0  0  0
  -29.0156  -20.3945   19.1490 N   0  0  0  0  0  0
  -29.5272  -19.2910   21.6896 N   0  0  0  0  0  0
  -31.4570  -12.4562   19.1816 H   0  0  0  0  0  0
  -30.3031  -11.4099   19.9269 H   0  0  0  0  0  0
  -29.7704  -11.7750   17.4963 H   0  0  0  0  0  0
  -29.6555  -13.4976   17.7665 H   0  0  0  0  0  0
  -27.8582  -11.3118   18.8670 H   0  0  0  0  0  0
  -27.3752  -12.6022   17.7977 H   0  0  0  0  0  0
  -27.6659  -14.2712   19.5350 H   0  0  0  0  0  0
  -28.7050  -12.0800   21.3888 H   0  0  0  0  0  0
  -28.4140  -13.7135   21.8504 H   0  0  0  0  0  0
  -25.2775   -9.5655   22.4784 H   0  0  0  0  0  0
  -23.9998   -7.4613   22.7481 H   0  0  0  0  0  0
  -21.0858   -8.8780   19.8953 H   0  0  0  0  0  0
  -22.3734  -10.9667   19.6176 H   0  0  0  0  0  0
  -21.2003   -7.6148   23.9716 H   0  0  0  0  0  0
  -21.1477   -6.0522   25.9079 H   0  0  0  0  0  0
  -22.0599   -2.7607   23.2851 H   0  0  0  0  0  0
  -22.4082  -11.9844   22.4819 H   0  0  0  0  0  0
  -21.1072  -13.1201   22.2652 H   0  0  0  0  0  0
  -24.6005  -15.8196   20.4558 H   0  0  0  0  0  0
  -26.2243  -15.6307   20.0271 H   0  0  0  0  0  0
  -26.7147  -32.5454   23.1096 H   0  0  0  0  0  0
  -25.0056  -33.9718   25.0430 H   0  0  0  0  0  0
  -22.7081  -31.2992   21.4007 H   0  0  0  0  0  0
  -23.3749  -35.9631   23.3299 H   0  0  0  0  0  0
  -24.3573  -36.8925   22.2051 H   0  0  0  0  0  0
  -23.7246  -37.6500   23.6660 H   0  0  0  0  0  0
  -26.0803  -31.5570   20.6008 H   0  0  0  0  0  0
  -26.8346  -30.8453   21.9970 H   0  0  0  0  0  0
  -28.1036  -29.0029   21.1889 H   0  0  0  0  0  0
  -25.9936  -25.9056   19.0394 H   0  0  0  0  0  0
  -23.9754  -27.2816   19.0311 H   0  0  0  0  0  0
  -23.7441  -30.5820   19.3999 H   0  0  0  0  0  0
  -22.7502  -29.2338   19.8639 H   0  0  0  0  0  0
  -25.1297  -36.1940   25.0824 H   0  0  0  0  0  0
  -20.9947  -28.3243   24.1419 H   0  0  0  0  0  0
  -20.5661  -26.2282   23.3608 H   0  0  0  0  0  0
  -21.6643  -26.7428   22.1215 H   0  0  0  0  0  0
  -19.6914  -25.6290   21.1235 H   0  0  0  0  0  0
  -19.6690  -27.3184   20.6735 H   0  0  0  0  0  0
  -17.4200  -26.6651   21.4011 H   0  0  0  0  0  0
  -18.0321  -26.0052   22.9004 H   0  0  0  0  0  0
  -19.7933  -30.7254   24.2251 H   0  0  0  0  0  0
  -17.5017  -31.6253   24.5164 H   0  0  0  0  0  0
  -15.5347  -30.2980   23.7658 H   0  0  0  0  0  0
  -15.8663  -28.0817   22.7067 H   0  0  0  0  0  0
  -24.5924  -30.7017   25.7791 H   0  0  0  0  0  0
  -24.8875  -32.2854   26.4853 H   0  0  0  0  0  0
  -25.8070  -30.8915   27.0233 H   0  0  0  0  0  0
  -26.2902  -29.6740   24.1202 H   0  0  0  0  0  0
  -27.4064  -29.7272   25.4651 H   0  0  0  0  0  0
  -27.8751  -30.4299   23.9353 H   0  0  0  0  0  0
  -27.2680  -33.3622   26.2034 H   0  0  0  0  0  0
  -28.3861  -32.6849   25.0295 H   0  0  0  0  0  0
  -28.0712  -31.8442   26.5395 H   0  0  0  0  0  0
  -28.2603  -38.0101   24.7524 H   0  0  0  0  0  0
  -28.1084  -36.2636   24.6276 H   0  0  0  0  0  0
  -27.2293  -37.1438   25.8860 H   0  0  0  0  0  0
  -20.9348  -29.8753   21.6910 H   0  0  0  0  0  0
  -26.0177  -38.2856   24.1411 H   0  0  0  0  0  0
  -28.8374  -18.4222   18.5036 H   0  0  0  0  0  0
  -30.7277  -22.0987   22.5032 H   0  0  0  0  0  0
  -29.9905  -20.9070   23.5749 H   0  0  0  0  0  0
  -29.0026  -22.1936   22.8816 H   0  0  0  0  0  0
  -27.0274  -17.2363   21.1575 H   0  0  0  0  0  0
  -27.9294  -17.1558   22.6536 H   0  0  0  0  0  0
  -27.5619  -15.6835   21.7749 H   0  0  0  0  0  0
  -30.2292  -16.4722   23.5416 H   0  0  0  0  0  0
  -31.0374  -14.9474   23.2423 H   0  0  0  0  0  0
  -29.2984  -15.0604   23.1556 H   0  0  0  0  0  0
  -31.5706  -17.6963   22.0963 H   0  0  0  0  0  0
  -31.8628  -17.2593   20.4216 H   0  0  0  0  0  0
  -32.5363  -16.3008   21.7328 H   0  0  0  0  0  0
  -29.5148  -22.8093   18.7670 H   0  0  0  0  0  0
  -30.4124  -23.0485   20.2151 H   0  0  0  0  0  0
  -28.4908  -24.0580   21.3571 H   0  0  0  0  0  0
  -27.3756  -23.5196   20.1349 H   0  0  0  0  0  0
  -27.9930  -25.2274   18.5698 H   0  0  0  0  0  0
  -29.5877  -25.2973   19.1699 H   0  0  0  0  0  0
  -28.9456  -16.5054   19.8698 H   0  0  0  0  0  0
  1 25  1  0  0  0
  1 30  2  0  0  0
  1 83  1  0  0  0
  2  3  1  0  0  0
  2 25  1  0  0  0
  2 86  1  0  0  0
  2 87  1  0  0  0
  3  4  1  0  0  0
  3 88  1  0  0  0
  3 89  1  0  0  0
  4  5  1  0  0  0
  4 90  1  0  0  0
  4 91  1  0  0  0
  5  6  1  0  0  0
  5 26  1  0  0  0
  5 92  1  0  0  0
  6 25  1  0  0  0
  6 93  1  0  0  0
  6 94  1  0  0  0
  7  8  2  0  0  0
  7 26  1  0  0  0
  7 29  1  0  0  0
  8  9  1  0  0  0
  8 22  1  0  0  0
  9 10  1  0  0  0
  9 27  2  0  0  0
 10 11  2  0  0  0
 10 15  1  0  0  0
 11 12  1  0  0  0
 11 95  1  0  0  0
 12 13  2  0  0  0
 12 96  1  0  0  0
 13 14  1  0  0  0
 13 31  1  0  0  0
 14 15  2  0  0  0
 14 97  1  0  0  0
 15 98  1  0  0  0
 16 17  2  0  0  0
 16 21  1  0  0  0
 16 31  1  0  0  0
 17 18  1  0  0  0
 17 99  1  0  0  0
 18 19  2  0  0  0
 18100  1  0  0  0
 19 20  1  0  0  0
 19 24  1  0  0  0
 20 21  2  0  0  0
 20101  1  0  0  0
 21 23  1  0  0  0
 22 28  1  0  0  0
 22 32  2  0  0  0
 26 27  1  0  0  0
 28102  1  0  0  0
 28103  1  0  0  0
 29104  1  0  0  0
 29105  1  0  0  0
 33 34  1  0  0  0
 33 66  1  0  0  0
 33 70  2  0  0  0
 34 36  1  0  0  0
 34 59  1  0  0  0
 34106  1  0  0  0
 35 44  2  0  0  0
 35 45  1  0  0  0
 35 68  1  0  0  0
 36 56  1  0  0  0
 36107  1  0  0  0
 37 39  1  0  0  0
 37 47  1  0  0  0
 37 66  1  0  0  0
 37108  1  0  0  0
 38 43  2  0  0  0
 38 46  1  0  0  0
 38 47  1  0  0  0
 39 64  1  0  0  0
 39 67  2  0  0  0
 40 52  1  0  0  0
 40 53  2  0  0  0
 40 58  1  0  0  0
 41109  1  0  0  0
 41110  1  0  0  0
 41111  1  0  0  0
 41 48  1  0  0  0
 42 43  1  0  0  0
 42 66  1  0  0  0
 42112  1  0  0  0
 42113  1  0  0  0
 43 44  1  0  0  0
 44114  1  0  0  0
 45 46  2  0  0  0
 45115  1  0  0  0
 46116  1  0  0  0
 47117  1  0  0  0
 47118  1  0  0  0
 48 56  1  0  0  0
 48 65  1  0  0  0
 48119  1  0  0  0
 49 50  1  0  0  0
 49 53  1  0  0  0
 49 64  1  0  0  0
 49120  1  0  0  0
 50 51  1  0  0  0
 50121  1  0  0  0
 50122  1  0  0  0
 51 52  1  0  0  0
 51123  1  0  0  0
 51124  1  0  0  0
 52125  1  0  0  0
 52126  1  0  0  0
 53 54  1  0  0  0
 54 55  2  0  0  0
 54127  1  0  0  0
 55 57  1  0  0  0
 55128  1  0  0  0
 56 69  2  0  0  0
 57 58  2  0  0  0
 57129  1  0  0  0
 58130  1  0  0  0
 59 60  1  0  0  0
 59 61  1  0  0  0
 59 62  1  0  0  0
 60131  1  0  0  0
 60132  1  0  0  0
 60133  1  0  0  0
 61134  1  0  0  0
 61135  1  0  0  0
 61136  1  0  0  0
 62137  1  0  0  0
 62138  1  0  0  0
 62139  1  0  0  0
 63 65  1  0  0  0
 63140  1  0  0  0
 63141  1  0  0  0
 63142  1  0  0  0
 64143  1  0  0  0
 65144  1  0  0  0
 68 81  1  0  0  0
 71 72  2  0  0  0
 71 84  1  0  0  0
 71145  1  0  0  0
 72 82  1  0  0  0
 72 85  1  0  0  0
 73 74  1  0  0  0
 73 75  1  0  0  0
 73 85  2  0  0  0
 74 79  1  0  0  0
 74 84  2  0  0  0
 75146  1  0  0  0
 75147  1  0  0  0
 75148  1  0  0  0
 76149  1  0  0  0
 76150  1  0  0  0
 76151  1  0  0  0
 76 82  1  0  0  0
 77152  1  0  0  0
 77153  1  0  0  0
 77154  1  0  0  0
 77 83  1  0  0  0
 78 83  1  0  0  0
 78155  1  0  0  0
 78156  1  0  0  0
 78157  1  0  0  0
 79 80  1  0  0  0
 79158  1  0  0  0
 79159  1  0  0  0
 80 81  1  0  0  0
 80160  1  0  0  0
 80161  1  0  0  0
 81162  1  0  0  0
 81163  1  0  0  0
 82 83  1  0  0  0
 82164  1  0  0  0
M  ISO  4   1 100  68 101  81 101  83 100
M  END
> <chiral flag>
0

> <version>
0

> <s_m_source_file>
/data/baiqing/PycharmProjects/Reinvent-master-3.2/result/LINK_invent/BTK/process_docking_weight1_custom_sum_contain_oxygen_bond_distance_aromatic_linkinvent_7_9_3/rearranged_h_0074.sdf

> <i_m_source_file_index>
59

> <r_mmod_Potential_Energy-OPLS-2005>
198.9267578125

> <r_mmod_Stretch_Energy-OPLS-2005>
98.367790222168

> <r_mmod_Bend_Energy-OPLS-2005>
196.383819580078

> <r_mmod_Torsional_Energy-OPLS-2005>
177.204803466797

> <r_mmod_Improper_Torsional_Energy-OPLS-2005>
3.72365617752075

> <r_mmod_Van_der_Waal_Energy-OPLS-2005>
161.640121459961

> <r_mmod_Electrostatic_Energy-OPLS-2005>
-285.306549072266

> <r_mmod_Solvation_Energy-OPLS-2005>
-194.325561523438

> <b_mmod_Minimization_Converged-OPLS-2005>
0

> <r_mmod_RMS_Derivative-OPLS-2005>
0.753757536411285

$$$$
59
                    3D
 Structure written by MMmdl.
175183  0  0  1  0            999 V2000
  -30.6611  -14.5369   20.5098 C   0  0  0  0  0  0
  -30.4230  -12.3291   19.4456 C   0  0  0  0  0  0
  -29.4974  -12.4917   18.2210 C   0  0  0  0  0  0
  -28.0198  -12.3452   18.6327 C   0  0  0  0  0  0
  -27.6535  -13.2097   19.8694 C   0  0  2  0  0  0
  -28.6940  -13.0369   21.0005 C   0  0  0  0  0  0
  -25.2519  -13.8125   20.5655 C   0  0  0  0  0  0
  -24.1796  -13.0406   20.9185 C   0  0  0  0  0  0
  -24.6376  -11.6883   20.8757 C   0  0  0  0  0  0
  -23.9056  -10.4276   21.0421 C   0  0  0  0  0  0
  -24.3613   -9.4187   21.9193 C   0  0  0  0  0  0
  -23.6287   -8.2226   22.0759 C   0  0  0  0  0  0
  -22.4270   -8.0273   21.3547 C   0  0  0  0  0  0
  -21.9907   -9.0244   20.4647 C   0  0  0  0  0  0
  -22.7232  -10.2123   20.3060 C   0  0  0  0  0  0
  -21.6850   -6.0732   22.5277 C   0  0  0  0  0  0
  -21.4008   -6.5638   23.8208 C   0  0  0  0  0  0
  -21.3655   -5.6793   24.9170 C   0  0  0  0  0  0
  -21.6052   -4.3056   24.7229 C   0  0  0  0  0  0
  -21.8816   -3.8147   23.4350 C   0  0  0  0  0  0
  -21.9190   -4.6959   22.3400 C   0  0  0  0  0  0
  -22.7825  -13.5206   21.1855 C   0  0  0  0  0  0
  -22.1660   -4.2147   21.0981 F   0  0  0  0  0  0
  -21.5634   -3.4540   25.7744 F   0  0  0  0  0  0
  -30.0209  -13.3366   20.4423 N   0  0  0  0  0  0
  -26.2970  -12.9322   20.3339 N   0  0  0  0  0  0
  -25.9305  -11.6481   20.5782 N   0  0  0  0  0  0
  -22.0477  -12.8202   22.0422 N   0  0  0  0  0  0
  -25.4161  -15.1819   20.3999 N   0  0  0  0  0  0
  -31.8146  -14.6953   20.1006 O   0  0  0  0  0  0
  -21.6629   -6.8875   21.4240 O   0  0  0  0  0  0
  -22.3512  -14.5517   20.6718 O   0  0  0  0  0  0
  -24.6178  -31.8659   23.2040 C   0  0  0  0  0  0
  -25.9060  -32.4794   23.8353 C   0  0  1  0  0  0
  -27.2268  -27.3951   20.1145 C   0  0  0  0  0  0
  -25.5914  -33.8596   24.2271 N   0  0  0  0  0  0
  -23.4047  -30.4889   21.5478 C   0  0  2  0  0  0
  -24.8492  -28.9444   20.1196 C   0  0  0  0  0  0
  -22.7410  -29.4666   22.4983 C   0  0  0  0  0  0
  -18.0262  -28.1383   22.8471 C   0  0  0  0  0  0
  -24.1493  -36.7316   23.2638 C   0  0  0  0  0  0
  -25.9371  -30.8215   21.3611 C   0  0  0  0  0  0
  -26.0129  -29.4525   20.7086 C   0  0  0  0  0  0
  -27.2069  -28.6898   20.6900 C   0  0  0  0  0  0
  -26.0397  -26.9015   19.5315 C   0  0  0  0  0  0
  -24.8588  -27.6709   19.5254 C   0  0  0  0  0  0
  -23.6143  -29.8188   20.1648 C   0  0  0  0  0  0
  -25.4124  -36.3085   24.0313 C   0  0  1  0  0  0
  -20.5859  -28.3697   23.1290 C   0  0  2  0  0  0
  -20.6786  -26.9432   22.5409 C   0  0  0  0  0  0
  -19.5766  -26.6387   21.5206 C   0  0  0  0  0  0
  -18.1926  -26.7922   22.1598 C   0  0  0  0  0  0
  -19.1515  -28.8849   23.2875 C   0  0  0  0  0  0
  -18.9460  -30.1450   23.8898 C   0  0  0  0  0  0
  -17.6473  -30.6590   24.0565 C   0  0  0  0  0  0
  -25.9051  -34.9454   23.5085 C   0  0  0  0  0  0
  -16.5357  -29.9104   23.6321 C   0  0  0  0  0  0
  -16.7260  -28.6512   23.0338 C   0  0  0  0  0  0
  -26.4486  -31.6602   25.0703 C   0  0  0  0  0  0
  -25.3731  -31.3764   26.1443 C   0  0  0  0  0  0
  -27.0367  -30.3029   24.6161 C   0  0  0  0  0  0
  -27.6024  -32.4380   25.7484 C   0  0  0  0  0  0
  -27.5583  -37.1807   24.8453 C   0  0  0  0  0  0
  -21.4138  -29.3054   22.3697 N   0  0  0  0  0  0
  -26.4300  -37.3779   23.9390 N   0  0  0  0  0  0
  -24.6714  -31.0742   22.0954 N   0  0  0  0  0  0
  -23.4154  -28.8219   23.3050 O   0  0  0  0  0  0
  -28.4031  -26.6646   20.1052 O   0  0  0  0  0  0
  -26.5620  -34.8910   22.4652 O   0  0  0  0  0  0
  -23.5364  -32.1450   23.7421 O   0  0  0  0  0  0
  -30.7436  -22.5372   19.7684 C   0  0  0  0  0  0
  -29.4530  -22.9750   19.5874 C   0  0  0  0  0  0
  -29.4626  -20.7113   19.7969 C   0  0  0  0  0  0
  -33.0001  -20.7028   20.7159 C   0  0  0  0  0  0
  -32.4335  -20.3144   18.2540 C   0  0  0  0  0  0
  -27.8851  -24.1856   18.0659 C   0  0  0  0  0  0
  -30.1343  -25.1324   18.5403 C   0  0  0  0  0  0
  -29.7234  -18.6927   22.0776 C   0  0  0  0  0  0
  -27.7649  -17.5757   21.0489 C   0  0  0  0  0  0
  -28.9874  -19.2635   19.6328 C   0  0  0  0  0  0
  -30.1056  -16.9639   20.2376 C   0  0  0  0  0  0
  -28.3737  -25.2295   20.3442 C   0  0  0  0  0  0
  -31.9183  -20.3056   19.7015 C   0  0  0  0  0  0
  -28.9462  -24.3677   19.1666 C   0  0  0  0  0  0
  -29.1718  -18.1384   20.7475 C   0  0  0  0  0  0
  -30.7286  -21.1644   19.8102 N   0  0  0  0  0  0
  -28.6922  -21.8208   19.6959 N   0  3  0  0  0  0
  -29.8781  -15.6066   20.7923 N   0  0  0  0  0  0
  -31.4662  -12.4322   19.1438 H   0  0  0  0  0  0
  -30.3330  -11.3277   19.8684 H   0  0  0  0  0  0
  -29.7458  -11.7494   17.4609 H   0  0  0  0  0  0
  -29.6551  -13.4676   17.7590 H   0  0  0  0  0  0
  -27.8455  -11.2916   18.8561 H   0  0  0  0  0  0
  -27.3658  -12.5886   17.7938 H   0  0  0  0  0  0
  -27.6816  -14.2485   19.5407 H   0  0  0  0  0  0
  -28.6761  -12.0154   21.3841 H   0  0  0  0  0  0
  -28.4551  -13.6797   21.8497 H   0  0  0  0  0  0
  -25.2759   -9.5659   22.4758 H   0  0  0  0  0  0
  -23.9997   -7.4616   22.7476 H   0  0  0  0  0  0
  -21.0840   -8.8763   19.8947 H   0  0  0  0  0  0
  -22.3702  -10.9664   19.6168 H   0  0  0  0  0  0
  -21.1996   -7.6141   23.9711 H   0  0  0  0  0  0
  -21.1485   -6.0524   25.9075 H   0  0  0  0  0  0
  -22.0605   -2.7611   23.2855 H   0  0  0  0  0  0
  -22.4115  -11.9867   22.4799 H   0  0  0  0  0  0
  -21.1091  -13.1214   22.2646 H   0  0  0  0  0  0
  -24.6424  -15.8295   20.4979 H   0  0  0  0  0  0
  -26.2580  -15.6195   20.0521 H   0  0  0  0  0  0
  -26.7134  -32.5495   23.1119 H   0  0  0  0  0  0
  -25.0064  -33.9778   25.0413 H   0  0  0  0  0  0
  -22.6941  -31.3065   21.4053 H   0  0  0  0  0  0
  -23.3738  -35.9665   23.3302 H   0  0  0  0  0  0
  -24.3582  -36.8953   22.2054 H   0  0  0  0  0  0
  -23.7283  -37.6532   23.6674 H   0  0  0  0  0  0
  -26.0562  -31.5870   20.5938 H   0  0  0  0  0  0
  -26.8207  -30.8731   21.9851 H   0  0  0  0  0  0
  -28.1116  -29.0816   21.1319 H   0  0  0  0  0  0
  -26.0097  -25.9241   19.0771 H   0  0  0  0  0  0
  -23.9619  -27.2738   19.0706 H   0  0  0  0  0  0
  -23.7317  -30.5928   19.4057 H   0  0  0  0  0  0
  -22.7328  -29.2486   19.8657 H   0  0  0  0  0  0
  -25.1313  -36.1934   25.0808 H   0  0  0  0  0  0
  -20.9938  -28.3303   24.1419 H   0  0  0  0  0  0
  -20.5734  -26.2315   23.3606 H   0  0  0  0  0  0
  -21.6656  -26.7508   22.1186 H   0  0  0  0  0  0
  -19.6957  -25.6294   21.1253 H   0  0  0  0  0  0
  -19.6699  -27.3183   20.6718 H   0  0  0  0  0  0
  -17.4202  -26.6647   21.3989 H   0  0  0  0  0  0
  -18.0333  -26.0062   22.8990 H   0  0  0  0  0  0
  -19.7946  -30.7246   24.2270 H   0  0  0  0  0  0
  -17.5040  -31.6269   24.5178 H   0  0  0  0  0  0
  -15.5370  -30.3027   23.7648 H   0  0  0  0  0  0
  -15.8637  -28.0858   22.7056 H   0  0  0  0  0  0
  -24.5834  -30.7198   25.7773 H   0  0  0  0  0  0
  -24.9012  -32.2956   26.4907 H   0  0  0  0  0  0
  -25.8043  -30.8885   27.0186 H   0  0  0  0  0  0
  -26.2961  -29.6737   24.1206 H   0  0  0  0  0  0
  -27.4109  -29.7315   25.4671 H   0  0  0  0  0  0
  -27.8774  -30.4318   23.9344 H   0  0  0  0  0  0
  -27.2579  -33.3650   26.2084 H   0  0  0  0  0  0
  -28.3806  -32.7036   25.0312 H   0  0  0  0  0  0
  -28.0723  -31.8525   26.5395 H   0  0  0  0  0  0
  -28.2582  -38.0114   24.7514 H   0  0  0  0  0  0
  -28.1100  -36.2651   24.6274 H   0  0  0  0  0  0
  -27.2291  -37.1455   25.8849 H   0  0  0  0  0  0
  -20.9318  -29.8766   21.6902 H   0  0  0  0  0  0
  -26.0177  -38.2849   24.1405 H   0  0  0  0  0  0
  -31.6730  -23.0894   19.7359 H   0  0  0  0  0  0
  -33.8044  -19.9679   20.7326 H   0  0  0  0  0  0
  -32.5878  -20.7546   21.7235 H   0  0  0  0  0  0
  -33.4425  -21.6714   20.4843 H   0  0  0  0  0  0
  -33.2998  -19.6641   18.1313 H   0  0  0  0  0  0
  -32.7185  -21.3188   17.9379 H   0  0  0  0  0  0
  -31.6636  -19.9607   17.5665 H   0  0  0  0  0  0
  -28.2712  -23.5787   17.2451 H   0  0  0  0  0  0
  -27.5884  -25.1455   17.6442 H   0  0  0  0  0  0
  -26.9848  -23.7002   18.4435 H   0  0  0  0  0  0
  -30.5899  -24.5649   17.7280 H   0  0  0  0  0  0
  -30.9077  -25.3466   19.2774 H   0  0  0  0  0  0
  -29.8231  -26.0896   18.1215 H   0  0  0  0  0  0
  -29.1136  -19.5155   22.4530 H   0  0  0  0  0  0
  -30.7457  -19.0549   21.9922 H   0  0  0  0  0  0
  -29.7296  -17.9210   22.8484 H   0  0  0  0  0  0
  -27.0967  -18.3567   21.4157 H   0  0  0  0  0  0
  -27.7739  -16.7990   21.8144 H   0  0  0  0  0  0
  -27.3136  -17.1599   20.1498 H   0  0  0  0  0  0
  -29.4279  -18.9365   18.6911 H   0  0  0  0  0  0
  -27.9289  -19.3641   19.3936 H   0  0  0  0  0  0
  -31.1536  -17.2225   20.3905 H   0  0  0  0  0  0
  -29.9890  -16.8523   19.1586 H   0  0  0  0  0  0
  -29.0181  -25.0802   21.2121 H   0  0  0  0  0  0
  -27.3926  -24.8683   20.6556 H   0  0  0  0  0  0
  -31.6203  -19.2895   19.9282 H   0  0  0  0  0  0
  -27.6860  -21.7903   19.5814 H   0  0  0  0  0  0
  -28.9525  -15.4051   21.1366 H   0  0  0  0  0  0
  1 25  1  0  0  0
  1 30  2  0  0  0
  1 88  1  0  0  0
  2  3  1  0  0  0
  2 25  1  0  0  0
  2 89  1  0  0  0
  2 90  1  0  0  0
  3  4  1  0  0  0
  3 91  1  0  0  0
  3 92  1  0  0  0
  4  5  1  0  0  0
  4 93  1  0  0  0
  4 94  1  0  0  0
  5  6  1  0  0  0
  5 26  1  0  0  0
  5 95  1  0  0  0
  6 25  1  0  0  0
  6 96  1  0  0  0
  6 97  1  0  0  0
  7  8  2  0  0  0
  7 26  1  0  0  0
  7 29  1  0  0  0
  8  9  1  0  0  0
  8 22  1  0  0  0
  9 10  1  0  0  0
  9 27  2  0  0  0
 10 11  2  0  0  0
 10 15  1  0  0  0
 11 12  1  0  0  0
 11 98  1  0  0  0
 12 13  2  0  0  0
 12 99  1  0  0  0
 13 14  1  0  0  0
 13 31  1  0  0  0
 14 15  2  0  0  0
 14100  1  0  0  0
 15101  1  0  0  0
 16 17  2  0  0  0
 16 21  1  0  0  0
 16 31  1  0  0  0
 17 18  1  0  0  0
 17102  1  0  0  0
 18 19  2  0  0  0
 18103  1  0  0  0
 19 20  1  0  0  0
 19 24  1  0  0  0
 20 21  2  0  0  0
 20104  1  0  0  0
 21 23  1  0  0  0
 22 28  1  0  0  0
 22 32  2  0  0  0
 26 27  1  0  0  0
 28105  1  0  0  0
 28106  1  0  0  0
 29107  1  0  0  0
 29108  1  0  0  0
 33 34  1  0  0  0
 33 66  1  0  0  0
 33 70  2  0  0  0
 34 36  1  0  0  0
 34 59  1  0  0  0
 34109  1  0  0  0
 35 44  2  0  0  0
 35 45  1  0  0  0
 35 68  1  0  0  0
 36 56  1  0  0  0
 36110  1  0  0  0
 37 39  1  0  0  0
 37 47  1  0  0  0
 37 66  1  0  0  0
 37111  1  0  0  0
 38 43  2  0  0  0
 38 46  1  0  0  0
 38 47  1  0  0  0
 39 64  1  0  0  0
 39 67  2  0  0  0
 40 52  1  0  0  0
 40 53  2  0  0  0
 40 58  1  0  0  0
 41112  1  0  0  0
 41113  1  0  0  0
 41114  1  0  0  0
 41 48  1  0  0  0
 42 43  1  0  0  0
 42 66  1  0  0  0
 42115  1  0  0  0
 42116  1  0  0  0
 43 44  1  0  0  0
 44117  1  0  0  0
 45 46  2  0  0  0
 45118  1  0  0  0
 46119  1  0  0  0
 47120  1  0  0  0
 47121  1  0  0  0
 48 56  1  0  0  0
 48 65  1  0  0  0
 48122  1  0  0  0
 49 50  1  0  0  0
 49 53  1  0  0  0
 49 64  1  0  0  0
 49123  1  0  0  0
 50 51  1  0  0  0
 50124  1  0  0  0
 50125  1  0  0  0
 51 52  1  0  0  0
 51126  1  0  0  0
 51127  1  0  0  0
 52128  1  0  0  0
 52129  1  0  0  0
 53 54  1  0  0  0
 54 55  2  0  0  0
 54130  1  0  0  0
 55 57  1  0  0  0
 55131  1  0  0  0
 56 69  2  0  0  0
 57 58  2  0  0  0
 57132  1  0  0  0
 58133  1  0  0  0
 59 60  1  0  0  0
 59 61  1  0  0  0
 59 62  1  0  0  0
 60134  1  0  0  0
 60135  1  0  0  0
 60136  1  0  0  0
 61137  1  0  0  0
 61138  1  0  0  0
 61139  1  0  0  0
 62140  1  0  0  0
 62141  1  0  0  0
 62142  1  0  0  0
 63 65  1  0  0  0
 63143  1  0  0  0
 63144  1  0  0  0
 63145  1  0  0  0
 64146  1  0  0  0
 65147  1  0  0  0
 68 82  1  0  0  0
 71 72  2  0  0  0
 71 86  1  0  0  0
 71148  1  0  0  0
 72 84  1  0  0  0
 72 87  1  0  0  0
 73 80  1  0  0  0
 73 86  1  0  0  0
 73 87  2  0  0  0
 74149  1  0  0  0
 74150  1  0  0  0
 74151  1  0  0  0
 74 83  1  0  0  0
 75 83  1  0  0  0
 75152  1  0  0  0
 75153  1  0  0  0
 75154  1  0  0  0
 76155  1  0  0  0
 76156  1  0  0  0
 76157  1  0  0  0
 76 84  1  0  0  0
 77 84  1  0  0  0
 77158  1  0  0  0
 77159  1  0  0  0
 77160  1  0  0  0
 78161  1  0  0  0
 78162  1  0  0  0
 78163  1  0  0  0
 78 85  1  0  0  0
 79 85  1  0  0  0
 79164  1  0  0  0
 79165  1  0  0  0
 79166  1  0  0  0
 80 85  1  0  0  0
 80167  1  0  0  0
 80168  1  0  0  0
 81 85  1  0  0  0
 81 88  1  0  0  0
 81169  1  0  0  0
 81170  1  0  0  0
 82 84  1  0  0  0
 82171  1  0  0  0
 82172  1  0  0  0
 83 86  1  0  0  0
 83173  1  0  0  0
 87174  1  0  0  0
 88175  1  0  0  0
M  CHG  1  87   1
M  ISO  4   1 100  68 101  82 101  88 100
M  END
> <chiral flag>
0

> <version>
0

> <s_m_source_file>
/data/baiqing/PycharmProjects/Reinvent-master-3.2/result/LINK_invent/BTK/process_docking_weight1_custom_sum_contain_oxygen_bond_distance_aromatic_linkinvent_7_9_3/rearranged_h_0074.sdf

> <i_m_source_file_index>
60

> <r_mmod_Potential_Energy-OPLS-2005>
-23.4314403533936

> <r_mmod_Stretch_Energy-OPLS-2005>
54.4442024230957

> <r_mmod_Bend_Energy-OPLS-2005>
130.293167114258

> <r_mmod_Torsional_Energy-OPLS-2005>
290.639587402344

> <r_mmod_Improper_Torsional_Energy-OPLS-2005>
10.7022361755371

> <r_mmod_Van_der_Waal_Energy-OPLS-2005>
128.407348632812

> <r_mmod_Electrostatic_Energy-OPLS-2005>
-262.683380126953

> <r_mmod_Solvation_Energy-OPLS-2005>
-396.915832519531

> <b_mmod_Minimization_Converged-OPLS-2005>
0

> <r_mmod_RMS_Derivative-OPLS-2005>
2.07125878334045

$$$$
60
                    3D
 Structure written by MMmdl.
165173  0  0  1  0            999 V2000
  -30.7473  -14.3956   20.6034 C   0  0  0  0  0  0
  -30.4117  -12.2735   19.4030 C   0  0  0  0  0  0
  -29.4882  -12.5293   18.1957 C   0  0  0  0  0  0
  -28.0076  -12.4039   18.6035 C   0  0  0  0  0  0
  -27.6671  -13.2123   19.8843 C   0  0  2  0  0  0
  -28.7118  -12.9506   20.9963 C   0  0  0  0  0  0
  -25.2569  -13.8163   20.5657 C   0  0  0  0  0  0
  -24.1838  -13.0421   20.9150 C   0  0  0  0  0  0
  -24.6396  -11.6891   20.8716 C   0  0  0  0  0  0
  -23.9059  -10.4278   21.0383 C   0  0  0  0  0  0
  -24.3605   -9.4195   21.9166 C   0  0  0  0  0  0
  -23.6274   -8.2239   22.0750 C   0  0  0  0  0  0
  -22.4265   -8.0270   21.3539 C   0  0  0  0  0  0
  -21.9890   -9.0245   20.4647 C   0  0  0  0  0  0
  -22.7222  -10.2116   20.3046 C   0  0  0  0  0  0
  -21.6859   -6.0716   22.5283 C   0  0  0  0  0  0
  -21.4021   -6.5631   23.8210 C   0  0  0  0  0  0
  -21.3659   -5.6786   24.9182 C   0  0  0  0  0  0
  -21.6050   -4.3044   24.7246 C   0  0  0  0  0  0
  -21.8818   -3.8134   23.4372 C   0  0  0  0  0  0
  -21.9185   -4.6937   22.3415 C   0  0  0  0  0  0
  -22.7856  -13.5206   21.1818 C   0  0  0  0  0  0
  -22.1650   -4.2113   21.0990 F   0  0  0  0  0  0
  -21.5627   -3.4532   25.7764 F   0  0  0  0  0  0
  -30.0500  -13.2399   20.4490 N   0  0  0  0  0  0
  -26.3047  -12.9353   20.3408 N   0  0  0  0  0  0
  -25.9333  -11.6500   20.5770 N   0  0  0  0  0  0
  -22.0522  -12.8222   22.0403 N   0  0  0  0  0  0
  -25.4257  -15.1891   20.4052 N   0  0  0  0  0  0
  -31.8302  -14.6142   20.0536 O   0  0  0  0  0  0
  -21.6648   -6.8859   21.4236 O   0  0  0  0  0  0
  -22.3531  -14.5503   20.6648 O   0  0  0  0  0  0
  -24.6107  -31.8684   23.2089 C   0  0  0  0  0  0
  -25.9009  -32.4819   23.8388 C   0  0  1  0  0  0
  -27.2489  -27.4681   20.0774 C   0  0  0  0  0  0
  -25.5878  -33.8617   24.2318 N   0  0  0  0  0  0
  -23.3964  -30.4902   21.5464 C   0  0  2  0  0  0
  -24.8436  -28.9514   20.1141 C   0  0  0  0  0  0
  -22.7376  -29.4662   22.4983 C   0  0  0  0  0  0
  -18.0270  -28.1368   22.8489 C   0  0  0  0  0  0
  -24.1486  -36.7333   23.2638 C   0  0  0  0  0  0
  -25.9200  -30.8393   21.3571 C   0  0  0  0  0  0
  -25.9964  -29.4736   20.7100 C   0  0  0  0  0  0
  -27.1933  -28.7330   20.6964 C   0  0  0  0  0  0
  -26.0738  -26.9363   19.4977 C   0  0  0  0  0  0
  -24.8752  -27.6788   19.5126 C   0  0  0  0  0  0
  -23.6031  -29.8141   20.1624 C   0  0  0  0  0  0
  -25.4103  -36.3109   24.0333 C   0  0  1  0  0  0
  -20.5851  -28.3647   23.1325 C   0  0  2  0  0  0
  -20.6755  -26.9388   22.5414 C   0  0  0  0  0  0
  -19.5740  -26.6376   21.5199 C   0  0  0  0  0  0
  -18.1916  -26.7920   22.1602 C   0  0  0  0  0  0
  -19.1518  -28.8821   23.2912 C   0  0  0  0  0  0
  -18.9453  -30.1427   23.8925 C   0  0  0  0  0  0
  -17.6460  -30.6582   24.0569 C   0  0  0  0  0  0
  -25.9026  -34.9471   23.5119 C   0  0  0  0  0  0
  -16.5349  -29.9089   23.6328 C   0  0  0  0  0  0
  -16.7260  -28.6501   23.0354 C   0  0  0  0  0  0
  -26.4477  -31.6598   25.0704 C   0  0  0  0  0  0
  -25.3774  -31.3684   26.1477 C   0  0  0  0  0  0
  -27.0320  -30.3056   24.6037 C   0  0  0  0  0  0
  -27.6046  -32.4330   25.7461 C   0  0  0  0  0  0
  -27.5584  -37.1809   24.8456 C   0  0  0  0  0  0
  -21.4105  -29.3032   22.3738 N   0  0  0  0  0  0
  -26.4293  -37.3787   23.9404 N   0  0  0  0  0  0
  -24.6602  -31.0804   22.0965 N   0  0  0  0  0  0
  -23.4167  -28.8217   23.3024 O   0  0  0  0  0  0
  -28.4723  -26.8426   20.0957 O   0  0  0  0  0  0
  -26.5595  -34.8924   22.4689 O   0  0  0  0  0  0
  -23.5313  -32.1430   23.7508 O   0  0  0  0  0  0
  -31.0165  -23.6603   18.7185 C   0  0  0  0  0  0
  -31.6629  -22.5726   18.1199 C   0  0  0  0  0  0
  -29.8617  -23.3847   19.4683 C   0  0  0  0  0  0
  -30.1459  -21.1567   19.0523 C   0  0  0  0  0  0
  -32.8569  -22.7794   17.2118 C   0  0  0  0  0  0
  -29.8386  -24.8664   21.4896 C   0  0  0  0  0  0
  -28.2868  -19.6306   18.8606 C   0  0  0  0  0  0
  -30.0355  -17.5673   20.1911 C   0  0  0  0  0  0
  -30.5605  -16.7522   21.3951 C   0  0  0  0  0  0
  -30.2530  -19.0925   20.3167 C   0  0  0  0  0  0
  -28.7754  -25.7015   19.2969 C   0  0  0  0  0  0
  -29.0912  -24.4839   20.1994 C   0  0  1  0  0  0
  -31.2287  -21.3120   18.3065 N   0  0  0  0  0  0
  -29.4380  -22.1156   19.6361 N   0  0  0  0  0  0
  -30.1371  -15.3492   21.3171 N   0  0  0  0  0  0
  -29.6934  -19.8576   19.1949 N   0  0  0  0  0  0
  -31.4578  -12.3519   19.1042 H   0  0  0  0  0  0
  -30.2855  -11.2531   19.7699 H   0  0  0  0  0  0
  -29.7131  -11.8327   17.3878 H   0  0  0  0  0  0
  -29.6786  -13.5279   17.7976 H   0  0  0  0  0  0
  -27.7922  -11.3469   18.7581 H   0  0  0  0  0  0
  -27.3670  -12.7246   17.7810 H   0  0  0  0  0  0
  -27.7193  -14.2704   19.6217 H   0  0  0  0  0  0
  -28.6729  -11.9064   21.3069 H   0  0  0  0  0  0
  -28.4818  -13.5270   21.8951 H   0  0  0  0  0  0
  -25.2759   -9.5662   22.4727 H   0  0  0  0  0  0
  -23.9976   -7.4638   22.7475 H   0  0  0  0  0  0
  -21.0812   -8.8759   19.8973 H   0  0  0  0  0  0
  -22.3675  -10.9637   19.6151 H   0  0  0  0  0  0
  -21.2036   -7.6145   23.9697 H   0  0  0  0  0  0
  -21.1476   -6.0535   25.9072 H   0  0  0  0  0  0
  -22.0599   -2.7588   23.2897 H   0  0  0  0  0  0
  -22.4141  -11.9881   22.4798 H   0  0  0  0  0  0
  -21.1131  -13.1232   22.2618 H   0  0  0  0  0  0
  -24.6560  -15.8414   20.5125 H   0  0  0  0  0  0
  -26.2838  -15.6339   20.1063 H   0  0  0  0  0  0
  -26.7076  -32.5541   23.1153 H   0  0  0  0  0  0
  -25.0052  -33.9782   25.0473 H   0  0  0  0  0  0
  -22.6837  -31.3058   21.4025 H   0  0  0  0  0  0
  -23.3733  -35.9681   23.3296 H   0  0  0  0  0  0
  -24.3605  -36.8948   22.2058 H   0  0  0  0  0  0
  -23.7255  -37.6538   23.6675 H   0  0  0  0  0  0
  -26.0294  -31.6019   20.5876 H   0  0  0  0  0  0
  -26.8109  -30.8965   21.9716 H   0  0  0  0  0  0
  -28.0875  -29.1347   21.1528 H   0  0  0  0  0  0
  -26.0583  -25.9575   19.0433 H   0  0  0  0  0  0
  -23.9863  -27.2621   19.0603 H   0  0  0  0  0  0
  -23.7055  -30.5842   19.3969 H   0  0  0  0  0  0
  -22.7283  -29.2288   19.8719 H   0  0  0  0  0  0
  -25.1281  -36.1974   25.0827 H   0  0  0  0  0  0
  -20.9946  -28.3206   24.1442 H   0  0  0  0  0  0
  -20.5642  -26.2256   23.3591 H   0  0  0  0  0  0
  -21.6632  -26.7440   22.1216 H   0  0  0  0  0  0
  -19.6918  -25.6289   21.1223 H   0  0  0  0  0  0
  -19.6692  -27.3190   20.6733 H   0  0  0  0  0  0
  -17.4188  -26.6671   21.4001 H   0  0  0  0  0  0
  -18.0330  -26.0053   22.8992 H   0  0  0  0  0  0
  -19.7941  -30.7228   24.2297 H   0  0  0  0  0  0
  -17.5032  -31.6264   24.5159 H   0  0  0  0  0  0
  -15.5355  -30.3009   23.7637 H   0  0  0  0  0  0
  -15.8655  -28.0829   22.7067 H   0  0  0  0  0  0
  -24.5919  -30.7054   25.7842 H   0  0  0  0  0  0
  -24.9011  -32.2831   26.5006 H   0  0  0  0  0  0
  -25.8158  -30.8811   27.0188 H   0  0  0  0  0  0
  -26.2840  -29.6779   24.1180 H   0  0  0  0  0  0
  -27.4221  -29.7327   25.4458 H   0  0  0  0  0  0
  -27.8615  -30.4402   23.9090 H   0  0  0  0  0  0
  -27.2647  -33.3599   26.2092 H   0  0  0  0  0  0
  -28.3834  -32.6935   25.0285 H   0  0  0  0  0  0
  -28.0752  -31.8434   26.5335 H   0  0  0  0  0  0
  -28.2582  -38.0126   24.7530 H   0  0  0  0  0  0
  -28.1096  -36.2658   24.6242 H   0  0  0  0  0  0
  -27.2317  -37.1402   25.8861 H   0  0  0  0  0  0
  -20.9251  -29.8765   21.6983 H   0  0  0  0  0  0
  -26.0183  -38.2863   24.1402 H   0  0  0  0  0  0
  -31.3977  -24.6658   18.5977 H   0  0  0  0  0  0
  -33.7850  -22.7769   17.7835 H   0  0  0  0  0  0
  -32.7725  -23.7359   16.6973 H   0  0  0  0  0  0
  -32.9179  -22.0030   16.4500 H   0  0  0  0  0  0
  -30.0129  -23.9901   22.1126 H   0  0  0  0  0  0
  -29.2644  -25.5739   22.0880 H   0  0  0  0  0  0
  -30.8054  -25.3183   21.2657 H   0  0  0  0  0  0
  -27.9126  -20.3884   18.1709 H   0  0  0  0  0  0
  -27.6646  -19.6550   19.7547 H   0  0  0  0  0  0
  -28.1585  -18.6674   18.3667 H   0  0  0  0  0  0
  -28.9724  -17.3594   20.0826 H   0  0  0  0  0  0
  -30.5119  -17.2123   19.2738 H   0  0  0  0  0  0
  -30.1710  -17.1673   22.3247 H   0  0  0  0  0  0
  -31.6481  -16.8219   21.4656 H   0  0  0  0  0  0
  -31.3243  -19.2961   20.3916 H   0  0  0  0  0  0
  -29.8054  -19.4586   21.2409 H   0  0  0  0  0  0
  -28.0462  -25.4582   18.5268 H   0  0  0  0  0  0
  -29.6684  -25.9967   18.7495 H   0  0  0  0  0  0
  -28.1273  -24.0668   20.5001 H   0  0  0  0  0  0
  -29.2692  -15.0980   21.7661 H   0  0  0  0  0  0
  1 25  1  0  0  0
  1 30  2  0  0  0
  1 85  1  0  0  0
  2  3  1  0  0  0
  2 25  1  0  0  0
  2 87  1  0  0  0
  2 88  1  0  0  0
  3  4  1  0  0  0
  3 89  1  0  0  0
  3 90  1  0  0  0
  4  5  1  0  0  0
  4 91  1  0  0  0
  4 92  1  0  0  0
  5  6  1  0  0  0
  5 26  1  0  0  0
  5 93  1  0  0  0
  6 25  1  0  0  0
  6 94  1  0  0  0
  6 95  1  0  0  0
  7  8  2  0  0  0
  7 26  1  0  0  0
  7 29  1  0  0  0
  8  9  1  0  0  0
  8 22  1  0  0  0
  9 10  1  0  0  0
  9 27  2  0  0  0
 10 11  2  0  0  0
 10 15  1  0  0  0
 11 12  1  0  0  0
 11 96  1  0  0  0
 12 13  2  0  0  0
 12 97  1  0  0  0
 13 14  1  0  0  0
 13 31  1  0  0  0
 14 15  2  0  0  0
 14 98  1  0  0  0
 15 99  1  0  0  0
 16 17  2  0  0  0
 16 21  1  0  0  0
 16 31  1  0  0  0
 17 18  1  0  0  0
 17100  1  0  0  0
 18 19  2  0  0  0
 18101  1  0  0  0
 19 20  1  0  0  0
 19 24  1  0  0  0
 20 21  2  0  0  0
 20102  1  0  0  0
 21 23  1  0  0  0
 22 28  1  0  0  0
 22 32  2  0  0  0
 26 27  1  0  0  0
 28103  1  0  0  0
 28104  1  0  0  0
 29105  1  0  0  0
 29106  1  0  0  0
 33 34  1  0  0  0
 33 66  1  0  0  0
 33 70  2  0  0  0
 34 36  1  0  0  0
 34 59  1  0  0  0
 34107  1  0  0  0
 35 44  2  0  0  0
 35 45  1  0  0  0
 35 68  1  0  0  0
 36 56  1  0  0  0
 36108  1  0  0  0
 37 39  1  0  0  0
 37 47  1  0  0  0
 37 66  1  0  0  0
 37109  1  0  0  0
 38 43  2  0  0  0
 38 46  1  0  0  0
 38 47  1  0  0  0
 39 64  1  0  0  0
 39 67  2  0  0  0
 40 52  1  0  0  0
 40 53  2  0  0  0
 40 58  1  0  0  0
 41110  1  0  0  0
 41111  1  0  0  0
 41112  1  0  0  0
 41 48  1  0  0  0
 42 43  1  0  0  0
 42 66  1  0  0  0
 42113  1  0  0  0
 42114  1  0  0  0
 43 44  1  0  0  0
 44115  1  0  0  0
 45 46  2  0  0  0
 45116  1  0  0  0
 46117  1  0  0  0
 47118  1  0  0  0
 47119  1  0  0  0
 48 56  1  0  0  0
 48 65  1  0  0  0
 48120  1  0  0  0
 49 50  1  0  0  0
 49 53  1  0  0  0
 49 64  1  0  0  0
 49121  1  0  0  0
 50 51  1  0  0  0
 50122  1  0  0  0
 50123  1  0  0  0
 51 52  1  0  0  0
 51124  1  0  0  0
 51125  1  0  0  0
 52126  1  0  0  0
 52127  1  0  0  0
 53 54  1  0  0  0
 54 55  2  0  0  0
 54128  1  0  0  0
 55 57  1  0  0  0
 55129  1  0  0  0
 56 69  2  0  0  0
 57 58  2  0  0  0
 57130  1  0  0  0
 58131  1  0  0  0
 59 60  1  0  0  0
 59 61  1  0  0  0
 59 62  1  0  0  0
 60132  1  0  0  0
 60133  1  0  0  0
 60134  1  0  0  0
 61135  1  0  0  0
 61136  1  0  0  0
 61137  1  0  0  0
 62138  1  0  0  0
 62139  1  0  0  0
 62140  1  0  0  0
 63 65  1  0  0  0
 63141  1  0  0  0
 63142  1  0  0  0
 63143  1  0  0  0
 64144  1  0  0  0
 65145  1  0  0  0
 68 81  1  0  0  0
 71 72  2  0  0  0
 71 73  1  0  0  0
 71146  1  0  0  0
 72 75  1  0  0  0
 72 83  1  0  0  0
 73 82  1  0  0  0
 73 84  2  0  0  0
 74 83  2  0  0  0
 74 84  1  0  0  0
 74 86  1  0  0  0
 75147  1  0  0  0
 75148  1  0  0  0
 75149  1  0  0  0
 76150  1  0  0  0
 76151  1  0  0  0
 76152  1  0  0  0
 76 82  1  0  0  0
 77 86  1  0  0  0
 77153  1  0  0  0
 77154  1  0  0  0
 77155  1  0  0  0
 78 79  1  0  0  0
 78 80  1  0  0  0
 78156  1  0  0  0
 78157  1  0  0  0
 79 85  1  0  0  0
 79158  1  0  0  0
 79159  1  0  0  0
 80 86  1  0  0  0
 80160  1  0  0  0
 80161  1  0  0  0
 81 82  1  0  0  0
 81162  1  0  0  0
 81163  1  0  0  0
 82164  1  0  0  0
 85165  1  0  0  0
M  ISO  4   1 100  68 101  81 101  85 100
M  END
> <chiral flag>
0

> <version>
0

> <s_m_source_file>
/data/baiqing/PycharmProjects/Reinvent-master-3.2/result/LINK_invent/BTK/process_docking_weight1_custom_sum_contain_oxygen_bond_distance_aromatic_linkinvent_7_9_3/rearranged_h_0074.sdf

> <i_m_source_file_index>
61

> <r_mmod_Potential_Energy-OPLS-2005>
-578.725769042969

> <r_mmod_Stretch_Energy-OPLS-2005>
33.168872833252

> <r_mmod_Bend_Energy-OPLS-2005>
110.149925231934

> <r_mmod_Torsional_Energy-OPLS-2005>
207.583312988281

> <r_mmod_Improper_Torsional_Energy-OPLS-2005>
5.6739821434021

> <r_mmod_Van_der_Waal_Energy-OPLS-2005>
168.074188232422

> <r_mmod_Electrostatic_Energy-OPLS-2005>
-865.12451171875

> <r_mmod_Solvation_Energy-OPLS-2005>
-248.028060913086

> <b_mmod_Minimization_Converged-OPLS-2005>
0

> <r_mmod_RMS_Derivative-OPLS-2005>
3.19045233726501

$$$$
61
                    3D
 Structure written by MMmdl.
167175  0  0  1  0            999 V2000
  -30.7245  -14.5514   20.4477 C   0  0  0  0  0  0
  -30.4107  -12.3365   19.4464 C   0  0  0  0  0  0
  -29.4746  -12.4600   18.2251 C   0  0  0  0  0  0
  -27.9971  -12.3281   18.6432 C   0  0  0  0  0  0
  -27.6388  -13.2107   19.8666 C   0  0  2  0  0  0
  -28.6971  -13.1042   20.9862 C   0  0  0  0  0  0
  -25.2466  -13.8145   20.5698 C   0  0  0  0  0  0
  -24.1713  -13.0400   20.9208 C   0  0  0  0  0  0
  -24.6302  -11.6887   20.8811 C   0  0  0  0  0  0
  -23.8956  -10.4276   21.0488 C   0  0  0  0  0  0
  -24.3542   -9.4207   21.9266 C   0  0  0  0  0  0
  -23.6274   -8.2214   22.0743 C   0  0  0  0  0  0
  -22.4246   -8.0263   21.3559 C   0  0  0  0  0  0
  -21.9891   -9.0205   20.4631 C   0  0  0  0  0  0
  -22.7146  -10.2126   20.3129 C   0  0  0  0  0  0
  -21.6834   -6.0727   22.5296 C   0  0  0  0  0  0
  -21.3990   -6.5648   23.8218 C   0  0  0  0  0  0
  -21.3688   -5.6807   24.9211 C   0  0  0  0  0  0
  -21.6074   -4.3076   24.7253 C   0  0  0  0  0  0
  -21.8801   -3.8154   23.4378 C   0  0  0  0  0  0
  -21.9189   -4.6968   22.3420 C   0  0  0  0  0  0
  -22.7778  -13.5197   21.1853 C   0  0  0  0  0  0
  -22.1651   -4.2141   21.0998 F   0  0  0  0  0  0
  -21.5661   -3.4576   25.7773 F   0  0  0  0  0  0
  -30.0193  -13.3832   20.4091 N   0  0  0  0  0  0
  -26.2893  -12.9308   20.3451 N   0  0  0  0  0  0
  -25.9237  -11.6467   20.5812 N   0  0  0  0  0  0
  -22.0510  -12.8125   22.0431 N   0  0  0  0  0  0
  -25.4122  -15.1822   20.4193 N   0  0  0  0  0  0
  -31.9316  -14.5581   20.1998 O   0  0  0  0  0  0
  -21.6640   -6.8854   21.4231 O   0  0  0  0  0  0
  -22.3416  -14.5463   20.6666 O   0  0  0  0  0  0
  -24.6220  -31.8706   23.2166 C   0  0  0  0  0  0
  -25.9111  -32.4852   23.8445 C   0  0  1  0  0  0
  -27.1699  -27.3732   20.0922 C   0  0  0  0  0  0
  -25.5968  -33.8677   24.2384 N   0  0  0  0  0  0
  -23.4013  -30.5077   21.5645 C   0  0  2  0  0  0
  -24.8251  -28.9759   20.1205 C   0  0  0  0  0  0
  -22.7467  -29.4650   22.5001 C   0  0  0  0  0  0
  -18.0279  -28.1406   22.8124 C   0  0  0  0  0  0
  -24.1486  -36.7324   23.2636 C   0  0  0  0  0  0
  -25.9417  -30.8139   21.3775 C   0  0  0  0  0  0
  -26.0027  -29.4477   20.7199 C   0  0  0  0  0  0
  -27.1800  -28.6563   20.7054 C   0  0  0  0  0  0
  -25.9867  -26.9667   19.4484 C   0  0  0  0  0  0
  -24.8154  -27.7334   19.4810 C   0  0  0  0  0  0
  -23.6046  -29.8663   20.1714 C   0  0  0  0  0  0
  -25.4090  -36.3180   24.0360 C   0  0  1  0  0  0
  -20.5893  -28.3502   23.1074 C   0  0  2  0  0  0
  -20.6907  -26.9259   22.5015 C   0  0  0  0  0  0
  -19.5762  -26.5759   21.5089 C   0  0  0  0  0  0
  -18.1747  -26.8113   22.0903 C   0  0  0  0  0  0
  -19.1558  -28.8707   23.2708 C   0  0  0  0  0  0
  -18.9545  -30.1305   23.8854 C   0  0  0  0  0  0
  -17.6582  -30.6476   24.0653 C   0  0  0  0  0  0
  -25.9035  -34.9523   23.5145 C   0  0  0  0  0  0
  -16.5409  -29.9067   23.6329 C   0  0  0  0  0  0
  -16.7297  -28.6631   23.0033 C   0  0  0  0  0  0
  -26.4513  -31.6647   25.0786 C   0  0  0  0  0  0
  -25.3755  -31.3708   26.1494 C   0  0  0  0  0  0
  -27.0328  -30.3098   24.6176 C   0  0  0  0  0  0
  -27.6124  -32.4300   25.7559 C   0  0  0  0  0  0
  -27.5582  -37.1848   24.8463 C   0  0  0  0  0  0
  -21.4181  -29.3120   22.3797 N   0  0  0  0  0  0
  -26.4290  -37.3838   23.9417 N   0  0  0  0  0  0
  -24.6774  -31.0761   22.1121 N   0  0  0  0  0  0
  -23.4270  -28.8064   23.2912 O   0  0  0  0  0  0
  -28.3093  -26.5897   20.0058 O   0  0  0  0  0  0
  -26.5561  -34.8930   22.4686 O   0  0  0  0  0  0
  -23.5402  -32.1481   23.7501 O   0  0  0  0  0  0
  -29.0300  -19.1146   20.8932 C   0  0  0  0  0  0
  -28.1969  -20.1135   20.3137 C   0  0  0  0  0  0
  -28.4654  -17.8354   21.1223 C   0  0  0  0  0  0
  -26.8626  -19.7370   20.0181 C   0  0  0  0  0  0
  -25.9451  -20.6135   19.1682 C   0  0  0  0  0  0
  -29.5281  -16.2546   18.8956 C   0  0  0  0  0  0
  -26.0809  -24.1794   20.7503 C   0  0  0  0  0  0
  -27.5564  -23.9650   18.6594 C   0  0  0  0  0  0
  -28.7160  -21.5091   19.9509 C   0  0  0  0  0  0
  -29.3016  -16.6084   21.5121 C   0  0  0  0  0  0
  -28.0981  -22.6531   20.8315 C   0  0  0  0  0  0
  -28.3906  -25.2897   20.6747 C   0  0  0  0  0  0
  -30.0682  -15.9657   20.3195 C   0  0  1  0  0  0
  -27.5418  -24.0218   20.2161 C   0  0  0  0  0  0
  -27.1543  -17.5908   20.9020 N   0  0  0  0  0  0
  -26.3623  -18.5277   20.3684 N   0  0  0  0  0  0
  -31.4477  -12.4159   19.1155 H   0  0  0  0  0  0
  -30.3303  -11.3548   19.9107 H   0  0  0  0  0  0
  -29.7163  -11.6921   17.4899 H   0  0  0  0  0  0
  -29.6300  -13.4227   17.7290 H   0  0  0  0  0  0
  -27.8025  -11.2783   18.8685 H   0  0  0  0  0  0
  -27.3509  -12.5839   17.8013 H   0  0  0  0  0  0
  -27.6253  -14.2325   19.5089 H   0  0  0  0  0  0
  -28.6955  -12.0973   21.4104 H   0  0  0  0  0  0
  -28.4662  -13.7689   21.8174 H   0  0  0  0  0  0
  -25.2666   -9.5713   22.4857 H   0  0  0  0  0  0
  -24.0074   -7.4527   22.7334 H   0  0  0  0  0  0
  -21.0939   -8.8682   19.8797 H   0  0  0  0  0  0
  -22.3614  -10.9731   19.6274 H   0  0  0  0  0  0
  -21.1927   -7.6139   23.9742 H   0  0  0  0  0  0
  -21.1555   -6.0526   25.9104 H   0  0  0  0  0  0
  -22.0548   -2.7622   23.2860 H   0  0  0  0  0  0
  -22.4207  -11.9773   22.4711 H   0  0  0  0  0  0
  -21.1127  -13.1030   22.2791 H   0  0  0  0  0  0
  -24.6758  -15.8539   20.6015 H   0  0  0  0  0  0
  -26.2993  -15.6571   20.2710 H   0  0  0  0  0  0
  -26.7142  -32.5553   23.1177 H   0  0  0  0  0  0
  -25.0288  -33.9855   25.0641 H   0  0  0  0  0  0
  -22.6923  -31.3319   21.4406 H   0  0  0  0  0  0
  -23.3770  -35.9651   23.3318 H   0  0  0  0  0  0
  -24.3595  -36.8895   22.2056 H   0  0  0  0  0  0
  -23.7205  -37.6528   23.6584 H   0  0  0  0  0  0
  -26.0612  -31.5811   20.6128 H   0  0  0  0  0  0
  -26.8351  -30.8674   21.9912 H   0  0  0  0  0  0
  -28.0961  -29.0131   21.1573 H   0  0  0  0  0  0
  -25.9388  -26.0632   18.8825 H   0  0  0  0  0  0
  -23.9137  -27.3786   18.9955 H   0  0  0  0  0  0
  -23.7452  -30.6545   19.4267 H   0  0  0  0  0  0
  -22.7185  -29.3185   19.8519 H   0  0  0  0  0  0
  -25.1267  -36.2110   25.0857 H   0  0  0  0  0  0
  -20.9959  -28.2780   24.1163 H   0  0  0  0  0  0
  -20.6224  -26.1994   23.3146 H   0  0  0  0  0  0
  -21.6668  -26.7600   22.0444 H   0  0  0  0  0  0
  -19.6722  -25.5272   21.2138 H   0  0  0  0  0  0
  -19.7108  -27.1601   20.5987 H   0  0  0  0  0  0
  -17.4465  -26.7844   21.2756 H   0  0  0  0  0  0
  -17.9138  -26.0034   22.7738 H   0  0  0  0  0  0
  -19.8004  -30.7039   24.2432 H   0  0  0  0  0  0
  -17.5219  -31.6039   24.5522 H   0  0  0  0  0  0
  -15.5405  -30.2900   23.7882 H   0  0  0  0  0  0
  -15.8768  -28.1022   22.6520 H   0  0  0  0  0  0
  -24.5986  -30.7026   25.7743 H   0  0  0  0  0  0
  -24.8855  -32.2826   26.4946 H   0  0  0  0  0  0
  -25.8100  -30.8859   27.0249 H   0  0  0  0  0  0
  -26.2839  -29.6848   24.1284 H   0  0  0  0  0  0
  -27.4126  -29.7411   25.4672 H   0  0  0  0  0  0
  -27.8691  -30.4398   23.9297 H   0  0  0  0  0  0
  -27.2850  -33.3590   26.2223 H   0  0  0  0  0  0
  -28.3954  -32.6836   25.0404 H   0  0  0  0  0  0
  -28.0778  -31.8342   26.5425 H   0  0  0  0  0  0
  -28.2627  -38.0125   24.7509 H   0  0  0  0  0  0
  -28.1071  -36.2667   24.6313 H   0  0  0  0  0  0
  -27.2288  -37.1502   25.8862 H   0  0  0  0  0  0
  -20.9270  -29.9313   21.7489 H   0  0  0  0  0  0
  -26.0229  -38.2942   24.1397 H   0  0  0  0  0  0
  -30.0714  -19.2999   21.0976 H   0  0  0  0  0  0
  -25.7624  -21.5898   19.6138 H   0  0  0  0  0  0
  -24.9758  -20.1434   18.9827 H   0  0  0  0  0  0
  -26.4252  -20.7814   18.1992 H   0  0  0  0  0  0
  -29.6982  -17.2996   18.6315 H   0  0  0  0  0  0
  -28.4609  -16.0567   18.8031 H   0  0  0  0  0  0
  -30.0384  -15.6775   18.1258 H   0  0  0  0  0  0
  -25.6405  -23.2891   21.1913 H   0  0  0  0  0  0
  -25.3639  -24.4172   19.9708 H   0  0  0  0  0  0
  -26.0087  -24.9485   21.5205 H   0  0  0  0  0  0
  -26.7575  -23.3300   18.2667 H   0  0  0  0  0  0
  -28.5008  -23.6046   18.2673 H   0  0  0  0  0  0
  -27.4608  -24.9434   18.1923 H   0  0  0  0  0  0
  -28.5345  -21.5901   18.8810 H   0  0  0  0  0  0
  -29.8028  -21.5319   20.0346 H   0  0  0  0  0  0
  -28.6283  -15.9017   21.9866 H   0  0  0  0  0  0
  -30.0209  -16.9040   22.2753 H   0  0  0  0  0  0
  -28.7884  -22.8513   21.6537 H   0  0  0  0  0  0
  -27.2857  -22.1499   21.3586 H   0  0  0  0  0  0
  -29.4412  -25.0195   20.5434 H   0  0  0  0  0  0
  -28.2918  -25.4622   21.7480 H   0  0  0  0  0  0
  -30.9529  -16.6123   20.3054 H   0  0  0  0  0  0
  1 25  1  0  0  0
  1 30  2  0  0  0
  1 83  1  0  0  0
  2  3  1  0  0  0
  2 25  1  0  0  0
  2 87  1  0  0  0
  2 88  1  0  0  0
  3  4  1  0  0  0
  3 89  1  0  0  0
  3 90  1  0  0  0
  4  5  1  0  0  0
  4 91  1  0  0  0
  4 92  1  0  0  0
  5  6  1  0  0  0
  5 26  1  0  0  0
  5 93  1  0  0  0
  6 25  1  0  0  0
  6 94  1  0  0  0
  6 95  1  0  0  0
  7  8  2  0  0  0
  7 26  1  0  0  0
  7 29  1  0  0  0
  8  9  1  0  0  0
  8 22  1  0  0  0
  9 10  1  0  0  0
  9 27  2  0  0  0
 10 11  2  0  0  0
 10 15  1  0  0  0
 11 12  1  0  0  0
 11 96  1  0  0  0
 12 13  2  0  0  0
 12 97  1  0  0  0
 13 14  1  0  0  0
 13 31  1  0  0  0
 14 15  2  0  0  0
 14 98  1  0  0  0
 15 99  1  0  0  0
 16 17  2  0  0  0
 16 21  1  0  0  0
 16 31  1  0  0  0
 17 18  1  0  0  0
 17100  1  0  0  0
 18 19  2  0  0  0
 18101  1  0  0  0
 19 20  1  0  0  0
 19 24  1  0  0  0
 20 21  2  0  0  0
 20102  1  0  0  0
 21 23  1  0  0  0
 22 28  1  0  0  0
 22 32  2  0  0  0
 26 27  1  0  0  0
 28103  1  0  0  0
 28104  1  0  0  0
 29105  1  0  0  0
 29106  1  0  0  0
 33 34  1  0  0  0
 33 66  1  0  0  0
 33 70  2  0  0  0
 34 36  1  0  0  0
 34 59  1  0  0  0
 34107  1  0  0  0
 35 44  2  0  0  0
 35 45  1  0  0  0
 35 68  1  0  0  0
 36 56  1  0  0  0
 36108  1  0  0  0
 37 39  1  0  0  0
 37 47  1  0  0  0
 37 66  1  0  0  0
 37109  1  0  0  0
 38 43  2  0  0  0
 38 46  1  0  0  0
 38 47  1  0  0  0
 39 64  1  0  0  0
 39 67  2  0  0  0
 40 52  1  0  0  0
 40 53  2  0  0  0
 40 58  1  0  0  0
 41110  1  0  0  0
 41111  1  0  0  0
 41112  1  0  0  0
 41 48  1  0  0  0
 42 43  1  0  0  0
 42 66  1  0  0  0
 42113  1  0  0  0
 42114  1  0  0  0
 43 44  1  0  0  0
 44115  1  0  0  0
 45 46  2  0  0  0
 45116  1  0  0  0
 46117  1  0  0  0
 47118  1  0  0  0
 47119  1  0  0  0
 48 56  1  0  0  0
 48 65  1  0  0  0
 48120  1  0  0  0
 49 50  1  0  0  0
 49 53  1  0  0  0
 49 64  1  0  0  0
 49121  1  0  0  0
 50 51  1  0  0  0
 50122  1  0  0  0
 50123  1  0  0  0
 51 52  1  0  0  0
 51124  1  0  0  0
 51125  1  0  0  0
 52126  1  0  0  0
 52127  1  0  0  0
 53 54  1  0  0  0
 54 55  2  0  0  0
 54128  1  0  0  0
 55 57  1  0  0  0
 55129  1  0  0  0
 56 69  2  0  0  0
 57 58  2  0  0  0
 57130  1  0  0  0
 58131  1  0  0  0
 59 60  1  0  0  0
 59 61  1  0  0  0
 59 62  1  0  0  0
 60132  1  0  0  0
 60133  1  0  0  0
 60134  1  0  0  0
 61135  1  0  0  0
 61136  1  0  0  0
 61137  1  0  0  0
 62138  1  0  0  0
 62139  1  0  0  0
 62140  1  0  0  0
 63 65  1  0  0  0
 63141  1  0  0  0
 63142  1  0  0  0
 63143  1  0  0  0
 64144  1  0  0  0
 65145  1  0  0  0
 68 82  1  0  0  0
 71 72  2  0  0  0
 71 73  1  0  0  0
 71146  1  0  0  0
 72 74  1  0  0  0
 72 79  1  0  0  0
 73 80  1  0  0  0
 73 85  2  0  0  0
 74 75  1  0  0  0
 74 86  2  0  0  0
 75147  1  0  0  0
 75148  1  0  0  0
 75149  1  0  0  0
 76150  1  0  0  0
 76151  1  0  0  0
 76152  1  0  0  0
 76 83  1  0  0  0
 77153  1  0  0  0
 77154  1  0  0  0
 77155  1  0  0  0
 77 84  1  0  0  0
 78 84  1  0  0  0
 78156  1  0  0  0
 78157  1  0  0  0
 78158  1  0  0  0
 79 81  1  0  0  0
 79159  1  0  0  0
 79160  1  0  0  0
 80 83  1  0  0  0
 80161  1  0  0  0
 80162  1  0  0  0
 81 84  1  0  0  0
 81163  1  0  0  0
 81164  1  0  0  0
 82 84  1  0  0  0
 82165  1  0  0  0
 82166  1  0  0  0
 83167  1  0  0  0
 85 86  1  0  0  0
M  ISO  4   1 100  68 101  82 101  83 100
M  END
> <chiral flag>
0

> <version>
0

> <s_m_source_file>
/data/baiqing/PycharmProjects/Reinvent-master-3.2/result/LINK_invent/BTK/process_docking_weight1_custom_sum_contain_oxygen_bond_distance_aromatic_linkinvent_7_9_3/rearranged_h_0074.sdf

> <i_m_source_file_index>
62

> <r_mmod_Potential_Energy-OPLS-2005>
176.955810546875

> <r_mmod_Stretch_Energy-OPLS-2005>
59.934928894043

> <r_mmod_Bend_Energy-OPLS-2005>
178.737396240234

> <r_mmod_Torsional_Energy-OPLS-2005>
272.460418701172

> <r_mmod_Improper_Torsional_Energy-OPLS-2005>
13.2490177154541

> <r_mmod_Van_der_Waal_Energy-OPLS-2005>
165.917190551758

> <r_mmod_Electrostatic_Energy-OPLS-2005>
-361.309753417969

> <r_mmod_Solvation_Energy-OPLS-2005>
-192.532653808594

> <b_mmod_Minimization_Converged-OPLS-2005>
0

> <r_mmod_RMS_Derivative-OPLS-2005>
10.2450132369995

$$$$
62
                    3D
 Structure written by MMmdl.
157165  0  0  1  0            999 V2000
  -30.6050  -14.7481   20.4170 C   0  0  0  0  0  0
  -30.4278  -12.4364   19.4959 C   0  0  0  0  0  0
  -29.5153  -12.4848   18.2510 C   0  0  0  0  0  0
  -28.0360  -12.3281   18.6529 C   0  0  0  0  0  0
  -27.6407  -13.2323   19.8491 C   0  0  2  0  0  0
  -28.6806  -13.1912   20.9907 C   0  0  0  0  0  0
  -25.2490  -13.8210   20.5704 C   0  0  0  0  0  0
  -24.1787  -13.0413   20.9173 C   0  0  0  0  0  0
  -24.6401  -11.6909   20.8725 C   0  0  0  0  0  0
  -23.9100  -10.4256   21.0398 C   0  0  0  0  0  0
  -24.3634   -9.4167   21.9187 C   0  0  0  0  0  0
  -23.6292   -8.2227   22.0757 C   0  0  0  0  0  0
  -22.4280   -8.0293   21.3551 C   0  0  0  0  0  0
  -21.9892   -9.0280   20.4662 C   0  0  0  0  0  0
  -22.7250  -10.2138   20.3069 C   0  0  0  0  0  0
  -21.6877   -6.0738   22.5290 C   0  0  0  0  0  0
  -21.4044   -6.5663   23.8226 C   0  0  0  0  0  0
  -21.3631   -5.6803   24.9189 C   0  0  0  0  0  0
  -21.6026   -4.3066   24.7235 C   0  0  0  0  0  0
  -21.8809   -3.8153   23.4353 C   0  0  0  0  0  0
  -21.9188   -4.6956   22.3405 C   0  0  0  0  0  0
  -22.7804  -13.5202   21.1842 C   0  0  0  0  0  0
  -22.1660   -4.2121   21.0988 F   0  0  0  0  0  0
  -21.5586   -3.4581   25.7749 F   0  0  0  0  0  0
  -29.9907  -13.5165   20.4071 N   0  0  0  0  0  0
  -26.2948  -12.9437   20.3279 N   0  0  0  0  0  0
  -25.9333  -11.6574   20.5712 N   0  0  0  0  0  0
  -22.0470  -12.8258   22.0451 N   0  0  0  0  0  0
  -25.4092  -15.1942   20.4142 N   0  0  0  0  0  0
  -31.7996  -14.8528   20.1215 O   0  0  0  0  0  0
  -21.6624   -6.8912   21.4273 O   0  0  0  0  0  0
  -22.3506  -14.5520   20.6660 O   0  0  0  0  0  0
  -24.6302  -31.8558   23.1969 C   0  0  0  0  0  0
  -25.9127  -32.4772   23.8308 C   0  0  1  0  0  0
  -27.2488  -27.2904   20.1508 C   0  0  0  0  0  0
  -25.5911  -33.8570   24.2218 N   0  0  0  0  0  0
  -23.4287  -30.4760   21.5397 C   0  0  2  0  0  0
  -24.8819  -28.9187   20.1171 C   0  0  0  0  0  0
  -22.7497  -29.4611   22.4908 C   0  0  0  0  0  0
  -18.0294  -28.1399   22.8510 C   0  0  0  0  0  0
  -24.1481  -36.7257   23.2660 C   0  0  0  0  0  0
  -25.9737  -30.7764   21.3820 C   0  0  0  0  0  0
  -26.0488  -29.4025   20.7213 C   0  0  0  0  0  0
  -27.2378  -28.6062   20.7133 C   0  0  0  0  0  0
  -26.0581  -26.8541   19.5392 C   0  0  0  0  0  0
  -24.8895  -27.6509   19.5095 C   0  0  0  0  0  0
  -23.6468  -29.8006   20.1578 C   0  0  0  0  0  0
  -25.4122  -36.3060   24.0315 C   0  0  1  0  0  0
  -20.5889  -28.3704   23.1270 C   0  0  2  0  0  0
  -20.6788  -26.9428   22.5427 C   0  0  0  0  0  0
  -19.5763  -26.6398   21.5234 C   0  0  0  0  0  0
  -18.1933  -26.7950   22.1632 C   0  0  0  0  0  0
  -19.1548  -28.8873   23.2899 C   0  0  0  0  0  0
  -18.9468  -30.1462   23.8930 C   0  0  0  0  0  0
  -17.6465  -30.6611   24.0576 C   0  0  0  0  0  0
  -25.9063  -34.9447   23.5055 C   0  0  0  0  0  0
  -16.5356  -29.9109   23.6339 C   0  0  0  0  0  0
  -16.7276  -28.6524   23.0378 C   0  0  0  0  0  0
  -26.4507  -31.6626   25.0725 C   0  0  0  0  0  0
  -25.3726  -31.3791   26.1430 C   0  0  0  0  0  0
  -27.0434  -30.3048   24.6291 C   0  0  0  0  0  0
  -27.6021  -32.4453   25.7448 C   0  0  0  0  0  0
  -27.5570  -37.1784   24.8460 C   0  0  0  0  0  0
  -21.4210  -29.3025   22.3622 N   0  0  0  0  0  0
  -26.4294  -37.3765   23.9397 N   0  0  0  0  0  0
  -24.6953  -31.0554   22.0943 N   0  0  0  0  0  0
  -23.4191  -28.8214   23.3046 O   0  0  0  0  0  0
  -28.3799  -26.4460   20.1259 O   0  0  0  0  0  0
  -26.5651  -34.8916   22.4630 O   0  0  0  0  0  0
  -23.5439  -32.1359   23.7269 O   0  0  0  0  0  0
  -30.3662  -17.9171   22.6506 C   0  0  0  0  0  0
  -29.9870  -18.3495   21.4042 C   0  0  0  0  0  0
  -29.5512  -19.9467   22.9197 C   0  0  0  0  0  0
  -28.9878  -21.0597   23.7455 C   0  0  0  0  0  0
  -30.0319  -17.3517   20.2097 C   0  0  0  0  0  0
  -29.3545  -22.4908   21.0007 C   0  0  0  0  0  0
  -28.8696  -23.7348   20.0716 C   0  0  0  0  0  0
  -29.2440  -20.8963   20.5704 C   0  0  0  0  0  0
  -28.3406  -25.0987   20.7841 C   0  0  0  0  0  0
  -29.6198  -19.7453   21.5728 N   0  0  0  0  0  0
  -30.0826  -18.8978   23.5357 N   0  3  0  0  0  0
  -29.8024  -15.8680   20.5291 N   0  0  0  0  0  0
  -31.4770  -12.5345   19.2120 H   0  0  0  0  0  0
  -30.3405  -11.4679   19.9980 H   0  0  0  0  0  0
  -29.7987  -11.6987   17.5501 H   0  0  0  0  0  0
  -29.6533  -13.4323   17.7248 H   0  0  0  0  0  0
  -27.8793  -11.2842   18.9229 H   0  0  0  0  0  0
  -27.3831  -12.5254   17.7976 H   0  0  0  0  0  0
  -27.6316  -14.2495   19.4580 H   0  0  0  0  0  0
  -28.7012  -12.2088   21.4685 H   0  0  0  0  0  0
  -28.4124  -13.9092   21.7689 H   0  0  0  0  0  0
  -25.2789   -9.5637   22.4774 H   0  0  0  0  0  0
  -23.9981   -7.4608   22.7513 H   0  0  0  0  0  0
  -21.0773   -8.8844   19.9006 H   0  0  0  0  0  0
  -22.3711  -10.9700   19.6218 H   0  0  0  0  0  0
  -21.2099   -7.6172   23.9741 H   0  0  0  0  0  0
  -21.1456   -6.0529   25.9081 H   0  0  0  0  0  0
  -22.0589   -2.7614   23.2875 H   0  0  0  0  0  0
  -22.4076  -11.9904   22.4833 H   0  0  0  0  0  0
  -21.1101  -13.1322   22.2703 H   0  0  0  0  0  0
  -24.6292  -15.8329   20.5269 H   0  0  0  0  0  0
  -26.2376  -15.6493   20.0551 H   0  0  0  0  0  0
  -26.7215  -32.5405   23.1057 H   0  0  0  0  0  0
  -25.0023  -33.9712   25.0340 H   0  0  0  0  0  0
  -22.7255  -31.2980   21.3890 H   0  0  0  0  0  0
  -23.3752  -35.9575   23.3339 H   0  0  0  0  0  0
  -24.3578  -36.8893   22.2082 H   0  0  0  0  0  0
  -23.7246  -37.6472   23.6692 H   0  0  0  0  0  0
  -26.1312  -31.5496   20.6266 H   0  0  0  0  0  0
  -26.8415  -30.8048   22.0312 H   0  0  0  0  0  0
  -28.1407  -28.9878   21.1681 H   0  0  0  0  0  0
  -26.0343  -25.8767   19.0834 H   0  0  0  0  0  0
  -24.0007  -27.2692   19.0259 H   0  0  0  0  0  0
  -23.7595  -30.5721   19.3964 H   0  0  0  0  0  0
  -22.7670  -29.2234   19.8665 H   0  0  0  0  0  0
  -25.1327  -36.1881   25.0824 H   0  0  0  0  0  0
  -21.0027  -28.3325   24.1371 H   0  0  0  0  0  0
  -20.5699  -26.2347   23.3654 H   0  0  0  0  0  0
  -21.6652  -26.7453   22.1212 H   0  0  0  0  0  0
  -19.6934  -25.6303   21.1290 H   0  0  0  0  0  0
  -19.6704  -27.3189   20.6754 H   0  0  0  0  0  0
  -17.4219  -26.6726   21.4025 H   0  0  0  0  0  0
  -18.0289  -26.0077   22.9001 H   0  0  0  0  0  0
  -19.7930  -30.7283   24.2345 H   0  0  0  0  0  0
  -17.5005  -31.6295   24.5149 H   0  0  0  0  0  0
  -15.5353  -30.3019   23.7662 H   0  0  0  0  0  0
  -15.8672  -28.0853   22.7091 H   0  0  0  0  0  0
  -24.5762  -30.7351   25.7695 H   0  0  0  0  0  0
  -24.9068  -32.2995   26.4966 H   0  0  0  0  0  0
  -25.7959  -30.8812   27.0147 H   0  0  0  0  0  0
  -26.3075  -29.6730   24.1315 H   0  0  0  0  0  0
  -27.4097  -29.7381   25.4875 H   0  0  0  0  0  0
  -27.8927  -30.4350   23.9560 H   0  0  0  0  0  0
  -27.2573  -33.3718   26.2035 H   0  0  0  0  0  0
  -28.3754  -32.7105   25.0231 H   0  0  0  0  0  0
  -28.0800  -31.8645   26.5345 H   0  0  0  0  0  0
  -28.2608  -38.0063   24.7495 H   0  0  0  0  0  0
  -28.1056  -36.2608   24.6287 H   0  0  0  0  0  0
  -27.2289  -37.1412   25.8868 H   0  0  0  0  0  0
  -20.9412  -29.8710   21.6782 H   0  0  0  0  0  0
  -26.0159  -38.2846   24.1403 H   0  0  0  0  0  0
  -30.7600  -16.9643   22.9822 H   0  0  0  0  0  0
  -29.7216  -21.8616   23.7989 H   0  0  0  0  0  0
  -28.8059  -20.6968   24.7566 H   0  0  0  0  0  0
  -28.0313  -21.3666   23.3321 H   0  0  0  0  0  0
  -30.9836  -17.4658   19.6861 H   0  0  0  0  0  0
  -29.2656  -17.6462   19.4856 H   0  0  0  0  0  0
  -28.7937  -22.6815   21.9084 H   0  0  0  0  0  0
  -30.3983  -22.6961   21.2782 H   0  0  0  0  0  0
  -28.0735  -23.3869   19.4131 H   0  0  0  0  0  0
  -29.7000  -24.0013   19.4120 H   0  0  0  0  0  0
  -29.8807  -20.7437   19.6925 H   0  0  0  0  0  0
  -28.2264  -20.6899   20.2330 H   0  0  0  0  0  0
  -28.9512  -25.2238   21.6804 H   0  0  0  0  0  0
  -27.3387  -24.9241   21.1810 H   0  0  0  0  0  0
  -30.1924  -18.8108   24.5392 H   0  0  0  0  0  0
  -28.8379  -15.6379   20.7060 H   0  0  0  0  0  0
  1 25  1  0  0  0
  1 30  2  0  0  0
  1 82  1  0  0  0
  2  3  1  0  0  0
  2 25  1  0  0  0
  2 83  1  0  0  0
  2 84  1  0  0  0
  3  4  1  0  0  0
  3 85  1  0  0  0
  3 86  1  0  0  0
  4  5  1  0  0  0
  4 87  1  0  0  0
  4 88  1  0  0  0
  5  6  1  0  0  0
  5 26  1  0  0  0
  5 89  1  0  0  0
  6 25  1  0  0  0
  6 90  1  0  0  0
  6 91  1  0  0  0
  7  8  2  0  0  0
  7 26  1  0  0  0
  7 29  1  0  0  0
  8  9  1  0  0  0
  8 22  1  0  0  0
  9 10  1  0  0  0
  9 27  2  0  0  0
 10 11  2  0  0  0
 10 15  1  0  0  0
 11 12  1  0  0  0
 11 92  1  0  0  0
 12 13  2  0  0  0
 12 93  1  0  0  0
 13 14  1  0  0  0
 13 31  1  0  0  0
 14 15  2  0  0  0
 14 94  1  0  0  0
 15 95  1  0  0  0
 16 17  2  0  0  0
 16 21  1  0  0  0
 16 31  1  0  0  0
 17 18  1  0  0  0
 17 96  1  0  0  0
 18 19  2  0  0  0
 18 97  1  0  0  0
 19 20  1  0  0  0
 19 24  1  0  0  0
 20 21  2  0  0  0
 20 98  1  0  0  0
 21 23  1  0  0  0
 22 28  1  0  0  0
 22 32  2  0  0  0
 26 27  1  0  0  0
 28 99  1  0  0  0
 28100  1  0  0  0
 29101  1  0  0  0
 29102  1  0  0  0
 33 34  1  0  0  0
 33 66  1  0  0  0
 33 70  2  0  0  0
 34 36  1  0  0  0
 34 59  1  0  0  0
 34103  1  0  0  0
 35 44  2  0  0  0
 35 45  1  0  0  0
 35 68  1  0  0  0
 36 56  1  0  0  0
 36104  1  0  0  0
 37 39  1  0  0  0
 37 47  1  0  0  0
 37 66  1  0  0  0
 37105  1  0  0  0
 38 43  2  0  0  0
 38 46  1  0  0  0
 38 47  1  0  0  0
 39 64  1  0  0  0
 39 67  2  0  0  0
 40 52  1  0  0  0
 40 53  2  0  0  0
 40 58  1  0  0  0
 41106  1  0  0  0
 41107  1  0  0  0
 41108  1  0  0  0
 41 48  1  0  0  0
 42 43  1  0  0  0
 42 66  1  0  0  0
 42109  1  0  0  0
 42110  1  0  0  0
 43 44  1  0  0  0
 44111  1  0  0  0
 45 46  2  0  0  0
 45112  1  0  0  0
 46113  1  0  0  0
 47114  1  0  0  0
 47115  1  0  0  0
 48 56  1  0  0  0
 48 65  1  0  0  0
 48116  1  0  0  0
 49 50  1  0  0  0
 49 53  1  0  0  0
 49 64  1  0  0  0
 49117  1  0  0  0
 50 51  1  0  0  0
 50118  1  0  0  0
 50119  1  0  0  0
 51 52  1  0  0  0
 51120  1  0  0  0
 51121  1  0  0  0
 52122  1  0  0  0
 52123  1  0  0  0
 53 54  1  0  0  0
 54 55  2  0  0  0
 54124  1  0  0  0
 55 57  1  0  0  0
 55125  1  0  0  0
 56 69  2  0  0  0
 57 58  2  0  0  0
 57126  1  0  0  0
 58127  1  0  0  0
 59 60  1  0  0  0
 59 61  1  0  0  0
 59 62  1  0  0  0
 60128  1  0  0  0
 60129  1  0  0  0
 60130  1  0  0  0
 61131  1  0  0  0
 61132  1  0  0  0
 61133  1  0  0  0
 62134  1  0  0  0
 62135  1  0  0  0
 62136  1  0  0  0
 63 65  1  0  0  0
 63137  1  0  0  0
 63138  1  0  0  0
 63139  1  0  0  0
 64140  1  0  0  0
 65141  1  0  0  0
 68 79  1  0  0  0
 71 72  2  0  0  0
 71 81  1  0  0  0
 71142  1  0  0  0
 72 75  1  0  0  0
 72 80  1  0  0  0
 73 74  1  0  0  0
 73 80  1  0  0  0
 73 81  2  0  0  0
 74143  1  0  0  0
 74144  1  0  0  0
 74145  1  0  0  0
 75 82  1  0  0  0
 75146  1  0  0  0
 75147  1  0  0  0
 76 77  1  0  0  0
 76 78  1  0  0  0
 76148  1  0  0  0
 76149  1  0  0  0
 77 79  1  0  0  0
 77150  1  0  0  0
 77151  1  0  0  0
 78 80  1  0  0  0
 78152  1  0  0  0
 78153  1  0  0  0
 79154  1  0  0  0
 79155  1  0  0  0
 81156  1  0  0  0
 82157  1  0  0  0
M  CHG  1  81   1
M  ISO  4   1 100  68 101  79 101  82 100
M  END
> <chiral flag>
0

> <version>
0

> <s_m_source_file>
/data/baiqing/PycharmProjects/Reinvent-master-3.2/result/LINK_invent/BTK/process_docking_weight1_custom_sum_contain_oxygen_bond_distance_aromatic_linkinvent_7_9_3/rearranged_h_0074.sdf

> <i_m_source_file_index>
63

> <r_mmod_Potential_Energy-OPLS-2005>
118.307441711426

> <r_mmod_Stretch_Energy-OPLS-2005>
145.160003662109

> <r_mmod_Bend_Energy-OPLS-2005>
197.685653686523

> <r_mmod_Torsional_Energy-OPLS-2005>
250.921005249023

> <r_mmod_Improper_Torsional_Energy-OPLS-2005>
6.20806741714478

> <r_mmod_Van_der_Waal_Energy-OPLS-2005>
119.297157287598

> <r_mmod_Electrostatic_Energy-OPLS-2005>
-245.345458984375

> <r_mmod_Solvation_Energy-OPLS-2005>
-434.317138671875

> <b_mmod_Minimization_Converged-OPLS-2005>
0

> <r_mmod_RMS_Derivative-OPLS-2005>
8.17119693756104

$$$$
63
                    3D
 Structure written by MMmdl.
163171  0  0  1  0            999 V2000
  -30.7479  -14.5039   20.6172 C   0  0  0  0  0  0
  -30.4108  -12.3396   19.4498 C   0  0  0  0  0  0
  -29.5010  -12.5197   18.2180 C   0  0  0  0  0  0
  -28.0212  -12.3623   18.6149 C   0  0  0  0  0  0
  -27.6535  -13.2138   19.8579 C   0  0  2  0  0  0
  -28.6875  -13.0397   20.9894 C   0  0  0  0  0  0
  -25.2548  -13.8162   20.5649 C   0  0  0  0  0  0
  -24.1836  -13.0434   20.9205 C   0  0  0  0  0  0
  -24.6407  -11.6914   20.8730 C   0  0  0  0  0  0
  -23.9078  -10.4308   21.0396 C   0  0  0  0  0  0
  -24.3638   -9.4224   21.9172 C   0  0  0  0  0  0
  -23.6322   -8.2258   22.0759 C   0  0  0  0  0  0
  -22.4299   -8.0287   21.3561 C   0  0  0  0  0  0
  -21.9924   -9.0262   20.4669 C   0  0  0  0  0  0
  -22.7243  -10.2146   20.3060 C   0  0  0  0  0  0
  -21.6856   -6.0752   22.5295 C   0  0  0  0  0  0
  -21.4020   -6.5659   23.8227 C   0  0  0  0  0  0
  -21.3663   -5.6809   24.9184 C   0  0  0  0  0  0
  -21.6039   -4.3071   24.7232 C   0  0  0  0  0  0
  -21.8811   -3.8172   23.4350 C   0  0  0  0  0  0
  -21.9187   -4.6984   22.3410 C   0  0  0  0  0  0
  -22.7846  -13.5210   21.1842 C   0  0  0  0  0  0
  -22.1654   -4.2174   21.0981 F   0  0  0  0  0  0
  -21.5630   -3.4557   25.7743 F   0  0  0  0  0  0
  -30.0243  -13.3490   20.4597 N   0  0  0  0  0  0
  -26.2981  -12.9352   20.3255 N   0  0  0  0  0  0
  -25.9322  -11.6506   20.5707 N   0  0  0  0  0  0
  -22.0461  -12.8196   22.0354 N   0  0  0  0  0  0
  -25.4211  -15.1884   20.4014 N   0  0  0  0  0  0
  -31.8245  -14.6153   20.0230 O   0  0  0  0  0  0
  -21.6668   -6.8884   21.4249 O   0  0  0  0  0  0
  -22.3530  -14.5511   20.6679 O   0  0  0  0  0  0
  -24.6188  -31.8659   23.2077 C   0  0  0  0  0  0
  -25.9070  -32.4799   23.8381 C   0  0  1  0  0  0
  -27.2199  -27.3972   20.1058 C   0  0  0  0  0  0
  -25.5920  -33.8594   24.2311 N   0  0  0  0  0  0
  -23.4080  -30.4911   21.5482 C   0  0  2  0  0  0
  -24.8530  -28.9558   20.1092 C   0  0  0  0  0  0
  -22.7429  -29.4665   22.4965 C   0  0  0  0  0  0
  -18.0274  -28.1383   22.8482 C   0  0  0  0  0  0
  -24.1490  -36.7316   23.2638 C   0  0  0  0  0  0
  -25.9405  -30.8198   21.3667 C   0  0  0  0  0  0
  -26.0162  -29.4531   20.7114 C   0  0  0  0  0  0
  -27.2074  -28.6835   20.7015 C   0  0  0  0  0  0
  -26.0449  -26.9319   19.4783 C   0  0  0  0  0  0
  -24.8637  -27.6962   19.4875 C   0  0  0  0  0  0
  -23.6167  -29.8266   20.1619 C   0  0  0  0  0  0
  -25.4107  -36.3095   24.0330 C   0  0  1  0  0  0
  -20.5866  -28.3679   23.1299 C   0  0  2  0  0  0
  -20.6764  -26.9414   22.5409 C   0  0  0  0  0  0
  -19.5752  -26.6389   21.5208 C   0  0  0  0  0  0
  -18.1924  -26.7930   22.1613 C   0  0  0  0  0  0
  -19.1524  -28.8850   23.2886 C   0  0  0  0  0  0
  -18.9459  -30.1447   23.8904 C   0  0  0  0  0  0
  -17.6457  -30.6587   24.0566 C   0  0  0  0  0  0
  -25.9042  -34.9457   23.5115 C   0  0  0  0  0  0
  -16.5345  -29.9088   23.6328 C   0  0  0  0  0  0
  -16.7259  -28.6507   23.0351 C   0  0  0  0  0  0
  -26.4480  -31.6588   25.0723 C   0  0  0  0  0  0
  -25.3733  -31.3704   26.1470 C   0  0  0  0  0  0
  -27.0308  -30.3016   24.6118 C   0  0  0  0  0  0
  -27.6042  -32.4325   25.7494 C   0  0  0  0  0  0
  -27.5581  -37.1805   24.8463 C   0  0  0  0  0  0
  -21.4150  -29.3049   22.3704 N   0  0  0  0  0  0
  -26.4293  -37.3785   23.9408 N   0  0  0  0  0  0
  -24.6738  -31.0748   22.0983 N   0  0  0  0  0  0
  -23.4190  -28.8209   23.3019 O   0  0  0  0  0  0
  -28.3437  -26.5892   20.1303 O   0  0  0  0  0  0
  -26.5611  -34.8909   22.4683 O   0  0  0  0  0  0
  -23.5371  -32.1434   23.7458 O   0  0  0  0  0  0
  -28.2939  -19.9004   22.0015 C   0  0  0  0  0  0
  -28.9533  -20.1200   20.7613 C   0  0  0  0  0  0
  -28.2750  -18.5426   22.1718 C   0  0  0  0  0  0
  -27.6443  -17.7558   23.2739 C   0  0  0  0  0  0
  -31.5135  -16.7259   21.5833 C   0  0  0  0  0  0
  -29.9708  -15.3698   22.9375 C   0  0  0  0  0  0
  -29.2164  -21.4499   20.0474 C   0  0  0  0  0  0
  -28.5502  -22.7003   20.7073 C   0  0  0  0  0  0
  -28.8311  -24.0837   20.0308 C   0  0  0  0  0  0
  -29.1281  -16.5412   20.7540 C   0  0  0  0  0  0
  -28.1462  -25.2869   20.7450 C   0  0  0  0  0  0
  -30.2959  -15.7597   21.4693 C   0  0  0  0  0  0
  -29.3389  -18.9545   20.2292 N   0  0  0  0  0  0
  -28.9352  -17.9736   21.0925 N   0  0  0  0  0  0
  -31.4588  -12.4079   19.1543 H   0  0  0  0  0  0
  -30.2960  -11.3373   19.8644 H   0  0  0  0  0  0
  -29.7640  -11.7964   17.4447 H   0  0  0  0  0  0
  -29.6638  -13.5054   17.7820 H   0  0  0  0  0  0
  -27.8417  -11.3071   18.8229 H   0  0  0  0  0  0
  -27.3774  -12.6212   17.7735 H   0  0  0  0  0  0
  -27.6799  -14.2545   19.5368 H   0  0  0  0  0  0
  -28.6682  -12.0151   21.3637 H   0  0  0  0  0  0
  -28.3989  -13.6546   21.8310 H   0  0  0  0  0  0
  -25.2796   -9.5712   22.4720 H   0  0  0  0  0  0
  -24.0044   -7.4654   22.7476 H   0  0  0  0  0  0
  -21.0853   -8.8769   19.9000 H   0  0  0  0  0  0
  -22.3678  -10.9677   19.6172 H   0  0  0  0  0  0
  -21.2013   -7.6167   23.9737 H   0  0  0  0  0  0
  -21.1485   -6.0544   25.9085 H   0  0  0  0  0  0
  -22.0586   -2.7643   23.2842 H   0  0  0  0  0  0
  -22.4054  -11.9836   22.4722 H   0  0  0  0  0  0
  -21.1063  -13.1219   22.2511 H   0  0  0  0  0  0
  -24.6398  -15.8287   20.4879 H   0  0  0  0  0  0
  -26.2488  -15.6245   20.0180 H   0  0  0  0  0  0
  -26.7136  -32.5494   23.1136 H   0  0  0  0  0  0
  -25.0054  -33.9741   25.0443 H   0  0  0  0  0  0
  -22.6991  -31.3094   21.4095 H   0  0  0  0  0  0
  -23.3739  -35.9670   23.3306 H   0  0  0  0  0  0
  -24.3587  -36.8937   22.2056 H   0  0  0  0  0  0
  -23.7264  -37.6524   23.6660 H   0  0  0  0  0  0
  -26.0613  -31.5843   20.5990 H   0  0  0  0  0  0
  -26.8255  -30.8695   21.9890 H   0  0  0  0  0  0
  -28.1033  -29.0586   21.1768 H   0  0  0  0  0  0
  -26.0385  -25.9673   18.9905 H   0  0  0  0  0  0
  -23.9722  -27.3113   19.0114 H   0  0  0  0  0  0
  -23.7255  -30.6032   19.4037 H   0  0  0  0  0  0
  -22.7390  -29.2486   19.8642 H   0  0  0  0  0  0
  -25.1277  -36.1957   25.0821 H   0  0  0  0  0  0
  -20.9942  -28.3243   24.1429 H   0  0  0  0  0  0
  -20.5682  -26.2278   23.3587 H   0  0  0  0  0  0
  -21.6631  -26.7464   22.1204 H   0  0  0  0  0  0
  -19.6920  -25.6307   21.1235 H   0  0  0  0  0  0
  -19.6699  -27.3195   20.6738 H   0  0  0  0  0  0
  -17.4195  -26.6668   21.4013 H   0  0  0  0  0  0
  -18.0336  -26.0072   22.9013 H   0  0  0  0  0  0
  -19.7936  -30.7254   24.2280 H   0  0  0  0  0  0
  -17.5024  -31.6276   24.5165 H   0  0  0  0  0  0
  -15.5351  -30.2999   23.7667 H   0  0  0  0  0  0
  -15.8655  -28.0835   22.7067 H   0  0  0  0  0  0
  -24.5914  -30.7035   25.7824 H   0  0  0  0  0  0
  -24.8906  -32.2850   26.4910 H   0  0  0  0  0  0
  -25.8079  -30.8893   27.0239 H   0  0  0  0  0  0
  -26.2846  -29.6781   24.1172 H   0  0  0  0  0  0
  -27.4063  -29.7248   25.4585 H   0  0  0  0  0  0
  -27.8695  -30.4323   23.9274 H   0  0  0  0  0  0
  -27.2643  -33.3626   26.2068 H   0  0  0  0  0  0
  -28.3850  -32.6894   25.0322 H   0  0  0  0  0  0
  -28.0711  -31.8456   26.5419 H   0  0  0  0  0  0
  -28.2585  -38.0112   24.7506 H   0  0  0  0  0  0
  -28.1080  -36.2634   24.6282 H   0  0  0  0  0  0
  -27.2294  -37.1453   25.8864 H   0  0  0  0  0  0
  -20.9320  -29.8777   21.6920 H   0  0  0  0  0  0
  -26.0174  -38.2863   24.1399 H   0  0  0  0  0  0
  -27.8650  -20.6380   22.6648 H   0  0  0  0  0  0
  -26.8721  -18.3439   23.7695 H   0  0  0  0  0  0
  -28.3787  -17.4836   24.0301 H   0  0  0  0  0  0
  -27.1699  -16.8486   22.9019 H   0  0  0  0  0  0
  -32.3879  -16.2315   22.0103 H   0  0  0  0  0  0
  -31.2999  -17.5852   22.2184 H   0  0  0  0  0  0
  -31.8012  -17.1240   20.6094 H   0  0  0  0  0  0
  -28.9105  -15.2066   23.1123 H   0  0  0  0  0  0
  -30.2529  -16.1541   23.6416 H   0  0  0  0  0  0
  -30.5057  -14.4725   23.2527 H   0  0  0  0  0  0
  -28.8711  -21.3754   19.0157 H   0  0  0  0  0  0
  -30.2924  -21.6163   19.9837 H   0  0  0  0  0  0
  -28.8748  -22.7577   21.7472 H   0  0  0  0  0  0
  -27.4717  -22.5365   20.7372 H   0  0  0  0  0  0
  -28.4970  -24.0509   18.9932 H   0  0  0  0  0  0
  -29.9066  -24.2577   20.0025 H   0  0  0  0  0  0
  -28.1855  -16.0320   20.9471 H   0  0  0  0  0  0
  -29.2633  -16.4799   19.6726 H   0  0  0  0  0  0
  -28.5381  -25.3540   21.7598 H   0  0  0  0  0  0
  -27.0902  -25.0470   20.8755 H   0  0  0  0  0  0
  1 25  1  0  0  0
  1 30  2  0  0  0
  1 82  1  0  0  0
  2  3  1  0  0  0
  2 25  1  0  0  0
  2 85  1  0  0  0
  2 86  1  0  0  0
  3  4  1  0  0  0
  3 87  1  0  0  0
  3 88  1  0  0  0
  4  5  1  0  0  0
  4 89  1  0  0  0
  4 90  1  0  0  0
  5  6  1  0  0  0
  5 26  1  0  0  0
  5 91  1  0  0  0
  6 25  1  0  0  0
  6 92  1  0  0  0
  6 93  1  0  0  0
  7  8  2  0  0  0
  7 26  1  0  0  0
  7 29  1  0  0  0
  8  9  1  0  0  0
  8 22  1  0  0  0
  9 10  1  0  0  0
  9 27  2  0  0  0
 10 11  2  0  0  0
 10 15  1  0  0  0
 11 12  1  0  0  0
 11 94  1  0  0  0
 12 13  2  0  0  0
 12 95  1  0  0  0
 13 14  1  0  0  0
 13 31  1  0  0  0
 14 15  2  0  0  0
 14 96  1  0  0  0
 15 97  1  0  0  0
 16 17  2  0  0  0
 16 21  1  0  0  0
 16 31  1  0  0  0
 17 18  1  0  0  0
 17 98  1  0  0  0
 18 19  2  0  0  0
 18 99  1  0  0  0
 19 20  1  0  0  0
 19 24  1  0  0  0
 20 21  2  0  0  0
 20100  1  0  0  0
 21 23  1  0  0  0
 22 28  1  0  0  0
 22 32  2  0  0  0
 26 27  1  0  0  0
 28101  1  0  0  0
 28102  1  0  0  0
 29103  1  0  0  0
 29104  1  0  0  0
 33 34  1  0  0  0
 33 66  1  0  0  0
 33 70  2  0  0  0
 34 36  1  0  0  0
 34 59  1  0  0  0
 34105  1  0  0  0
 35 44  2  0  0  0
 35 45  1  0  0  0
 35 68  1  0  0  0
 36 56  1  0  0  0
 36106  1  0  0  0
 37 39  1  0  0  0
 37 47  1  0  0  0
 37 66  1  0  0  0
 37107  1  0  0  0
 38 43  2  0  0  0
 38 46  1  0  0  0
 38 47  1  0  0  0
 39 64  1  0  0  0
 39 67  2  0  0  0
 40 52  1  0  0  0
 40 53  2  0  0  0
 40 58  1  0  0  0
 41108  1  0  0  0
 41109  1  0  0  0
 41110  1  0  0  0
 41 48  1  0  0  0
 42 43  1  0  0  0
 42 66  1  0  0  0
 42111  1  0  0  0
 42112  1  0  0  0
 43 44  1  0  0  0
 44113  1  0  0  0
 45 46  2  0  0  0
 45114  1  0  0  0
 46115  1  0  0  0
 47116  1  0  0  0
 47117  1  0  0  0
 48 56  1  0  0  0
 48 65  1  0  0  0
 48118  1  0  0  0
 49 50  1  0  0  0
 49 53  1  0  0  0
 49 64  1  0  0  0
 49119  1  0  0  0
 50 51  1  0  0  0
 50120  1  0  0  0
 50121  1  0  0  0
 51 52  1  0  0  0
 51122  1  0  0  0
 51123  1  0  0  0
 52124  1  0  0  0
 52125  1  0  0  0
 53 54  1  0  0  0
 54 55  2  0  0  0
 54126  1  0  0  0
 55 57  1  0  0  0
 55127  1  0  0  0
 56 69  2  0  0  0
 57 58  2  0  0  0
 57128  1  0  0  0
 58129  1  0  0  0
 59 60  1  0  0  0
 59 61  1  0  0  0
 59 62  1  0  0  0
 60130  1  0  0  0
 60131  1  0  0  0
 60132  1  0  0  0
 61133  1  0  0  0
 61134  1  0  0  0
 61135  1  0  0  0
 62136  1  0  0  0
 62137  1  0  0  0
 62138  1  0  0  0
 63 65  1  0  0  0
 63139  1  0  0  0
 63140  1  0  0  0
 63141  1  0  0  0
 64142  1  0  0  0
 65143  1  0  0  0
 68 81  1  0  0  0
 71 72  1  0  0  0
 71 73  2  0  0  0
 71144  1  0  0  0
 72 77  1  0  0  0
 72 83  2  0  0  0
 73 74  1  0  0  0
 73 84  1  0  0  0
 74145  1  0  0  0
 74146  1  0  0  0
 74147  1  0  0  0
 75148  1  0  0  0
 75149  1  0  0  0
 75150  1  0  0  0
 75 82  1  0  0  0
 76 82  1  0  0  0
 76151  1  0  0  0
 76152  1  0  0  0
 76153  1  0  0  0
 77 78  1  0  0  0
 77154  1  0  0  0
 77155  1  0  0  0
 78 79  1  0  0  0
 78156  1  0  0  0
 78157  1  0  0  0
 79 81  1  0  0  0
 79158  1  0  0  0
 79159  1  0  0  0
 80 82  1  0  0  0
 80 84  1  0  0  0
 80160  1  0  0  0
 80161  1  0  0  0
 81162  1  0  0  0
 81163  1  0  0  0
 83 84  1  0  0  0
M  ISO  4   1 100  68 101  81 101  82 100
M  END
> <chiral flag>
0

> <version>
0

> <s_m_source_file>
/data/baiqing/PycharmProjects/Reinvent-master-3.2/result/LINK_invent/BTK/process_docking_weight1_custom_sum_contain_oxygen_bond_distance_aromatic_linkinvent_7_9_3/rearranged_h_0074.sdf

> <i_m_source_file_index>
64

> <r_mmod_Potential_Energy-OPLS-2005>
-3.4718816280365

> <r_mmod_Stretch_Energy-OPLS-2005>
52.7971343994141

> <r_mmod_Bend_Energy-OPLS-2005>
116.971031188965

> <r_mmod_Torsional_Energy-OPLS-2005>
215.420806884766

> <r_mmod_Improper_Torsional_Energy-OPLS-2005>
2.42696285247803

> <r_mmod_Van_der_Waal_Energy-OPLS-2005>
130.125915527344

> <r_mmod_Electrostatic_Energy-OPLS-2005>
-346.643646240234

> <r_mmod_Solvation_Energy-OPLS-2005>
-194.794342041016

> <b_mmod_Minimization_Converged-OPLS-2005>
0

> <r_mmod_RMS_Derivative-OPLS-2005>
2.25361704826355

$$$$
64
                    3D
 Structure written by MMmdl.
164172  0  0  1  0            999 V2000
  -30.6538  -14.7318   20.5427 C   0  0  0  0  0  0
  -30.4551  -12.4734   19.4467 C   0  0  0  0  0  0
  -29.5086  -12.5337   18.2252 C   0  0  0  0  0  0
  -28.0404  -12.3216   18.6482 C   0  0  0  0  0  0
  -27.6570  -13.1987   19.8640 C   0  0  2  0  0  0
  -28.7216  -13.0699   20.9848 C   0  0  0  0  0  0
  -25.2535  -13.8088   20.5589 C   0  0  0  0  0  0
  -24.1833  -13.0397   20.9188 C   0  0  0  0  0  0
  -24.6407  -11.6879   20.8782 C   0  0  0  0  0  0
  -23.9071  -10.4273   21.0431 C   0  0  0  0  0  0
  -24.3624   -9.4179   21.9200 C   0  0  0  0  0  0
  -23.6299   -8.2222   22.0746 C   0  0  0  0  0  0
  -22.4276   -8.0275   21.3543 C   0  0  0  0  0  0
  -21.9910   -9.0253   20.4654 C   0  0  0  0  0  0
  -22.7236  -10.2132   20.3076 C   0  0  0  0  0  0
  -21.6846   -6.0724   22.5287 C   0  0  0  0  0  0
  -21.4015   -6.5632   23.8216 C   0  0  0  0  0  0
  -21.3667   -5.6781   24.9180 C   0  0  0  0  0  0
  -21.6040   -4.3039   24.7224 C   0  0  0  0  0  0
  -21.8835   -3.8140   23.4341 C   0  0  0  0  0  0
  -21.9195   -4.6960   22.3402 C   0  0  0  0  0  0
  -22.7855  -13.5186   21.1878 C   0  0  0  0  0  0
  -22.1655   -4.2149   21.0980 F   0  0  0  0  0  0
  -21.5643   -3.4531   25.7734 F   0  0  0  0  0  0
  -30.0141  -13.5038   20.4249 N   0  0  0  0  0  0
  -26.3022  -12.9257   20.3357 N   0  0  0  0  0  0
  -25.9347  -11.6440   20.5836 N   0  0  0  0  0  0
  -22.0519  -12.8206   22.0459 N   0  0  0  0  0  0
  -25.4124  -15.1798   20.3778 N   0  0  0  0  0  0
  -31.7946  -14.8101   20.0757 O   0  0  0  0  0  0
  -21.6639   -6.8877   21.4243 O   0  0  0  0  0  0
  -22.3543  -14.5488   20.6704 O   0  0  0  0  0  0
  -24.6308  -31.8578   23.2007 C   0  0  0  0  0  0
  -25.9155  -32.4766   23.8324 C   0  0  1  0  0  0
  -27.2329  -27.2996   20.1240 C   0  0  0  0  0  0
  -25.5949  -33.8553   24.2266 N   0  0  0  0  0  0
  -23.4244  -30.4848   21.5439 C   0  0  2  0  0  0
  -24.8697  -28.9318   20.1169 C   0  0  0  0  0  0
  -22.7492  -29.4657   22.4936 C   0  0  0  0  0  0
  -18.0302  -28.1399   22.8502 C   0  0  0  0  0  0
  -24.1480  -36.7274   23.2642 C   0  0  0  0  0  0
  -25.9675  -30.7851   21.3687 C   0  0  0  0  0  0
  -26.0411  -29.4066   20.7215 C   0  0  0  0  0  0
  -27.2245  -28.6058   20.7102 C   0  0  0  0  0  0
  -26.0379  -26.8880   19.4861 C   0  0  0  0  0  0
  -24.8712  -27.6770   19.4883 C   0  0  0  0  0  0
  -23.6402  -29.8186   20.1609 C   0  0  0  0  0  0
  -25.4102  -36.3068   24.0346 C   0  0  1  0  0  0
  -20.5917  -28.3721   23.1297 C   0  0  2  0  0  0
  -20.6794  -26.9431   22.5457 C   0  0  0  0  0  0
  -19.5771  -26.6400   21.5262 C   0  0  0  0  0  0
  -18.1934  -26.7968   22.1626 C   0  0  0  0  0  0
  -19.1552  -28.8870   23.2907 C   0  0  0  0  0  0
  -18.9480  -30.1474   23.8934 C   0  0  0  0  0  0
  -17.6470  -30.6587   24.0584 C   0  0  0  0  0  0
  -25.9056  -34.9441   23.5103 C   0  0  0  0  0  0
  -16.5365  -29.9093   23.6327 C   0  0  0  0  0  0
  -16.7299  -28.6521   23.0333 C   0  0  0  0  0  0
  -26.4533  -31.6562   25.0682 C   0  0  0  0  0  0
  -25.3764  -31.3706   26.1411 C   0  0  0  0  0  0
  -27.0350  -30.2977   24.6114 C   0  0  0  0  0  0
  -27.6077  -32.4301   25.7449 C   0  0  0  0  0  0
  -27.5580  -37.1787   24.8472 C   0  0  0  0  0  0
  -21.4209  -29.3052   22.3637 N   0  0  0  0  0  0
  -26.4273  -37.3781   23.9450 N   0  0  0  0  0  0
  -24.6944  -31.0609   22.0936 N   0  0  0  0  0  0
  -23.4201  -28.8167   23.3007 O   0  0  0  0  0  0
  -28.3547  -26.4436   20.1660 O   0  0  0  0  0  0
  -26.5608  -34.8925   22.4663 O   0  0  0  0  0  0
  -23.5471  -32.1341   23.7357 O   0  0  0  0  0  0
  -30.0142  -18.7016   20.3905 C   0  0  0  0  0  0
  -32.0177  -19.9425   20.7870 C   0  0  0  0  0  0
  -30.6746  -19.9830   20.3611 C   0  0  0  0  0  0
  -30.7075  -17.5042   20.8493 C   0  0  0  0  0  0
  -30.1714  -15.9095   22.7329 C   0  0  0  0  0  0
  -28.5187  -16.2599   20.9122 C   0  0  0  0  0  0
  -29.1537  -22.0633   22.0247 C   0  0  0  0  0  0
  -27.6987  -21.9668   19.9984 C   0  0  0  0  0  0
  -30.1098  -21.3276   19.7399 C   0  0  0  0  0  0
  -29.3500  -23.9249   20.2424 C   0  0  0  0  0  0
  -28.1293  -24.9724   20.2850 C   0  0  0  0  0  0
  -30.0266  -16.0867   21.2004 C   0  0  0  0  0  0
  -29.1089  -22.3354   20.5047 C   0  0  0  0  0  0
  -32.6493  -18.8037   21.1706 N   0  0  0  0  0  0
  -32.0148  -17.6248   21.2033 N   0  0  0  0  0  0
  -31.4839  -12.6216   19.1146 H   0  0  0  0  0  0
  -30.4451  -11.4791   19.8987 H   0  0  0  0  0  0
  -29.7970  -11.7886   17.4831 H   0  0  0  0  0  0
  -29.6095  -13.5061   17.7392 H   0  0  0  0  0  0
  -27.9119  -11.2651   18.9006 H   0  0  0  0  0  0
  -27.3722  -12.5197   17.8093 H   0  0  0  0  0  0
  -27.6613  -14.2146   19.4780 H   0  0  0  0  0  0
  -28.7902  -12.0306   21.3101 H   0  0  0  0  0  0
  -28.4611  -13.6003   21.8953 H   0  0  0  0  0  0
  -25.2786   -9.5648   22.4743 H   0  0  0  0  0  0
  -24.0039   -7.4593   22.7423 H   0  0  0  0  0  0
  -21.0851   -8.8760   19.8937 H   0  0  0  0  0  0
  -22.3709  -10.9674   19.6176 H   0  0  0  0  0  0
  -21.2002   -7.6140   23.9725 H   0  0  0  0  0  0
  -21.1471   -6.0502   25.9080 H   0  0  0  0  0  0
  -22.0608   -2.7602   23.2839 H   0  0  0  0  0  0
  -22.4156  -11.9878   22.4878 H   0  0  0  0  0  0
  -21.1143  -13.1236   22.2694 H   0  0  0  0  0  0
  -24.6316  -15.8225   20.4532 H   0  0  0  0  0  0
  -26.2478  -15.6112   20.0087 H   0  0  0  0  0  0
  -26.7217  -32.5441   23.1061 H   0  0  0  0  0  0
  -25.0156  -33.9675   25.0456 H   0  0  0  0  0  0
  -22.7219  -31.3068   21.4033 H   0  0  0  0  0  0
  -23.3751  -35.9596   23.3299 H   0  0  0  0  0  0
  -24.3577  -36.8874   22.2051 H   0  0  0  0  0  0
  -23.7214  -37.6477   23.6655 H   0  0  0  0  0  0
  -26.0996  -31.5380   20.5896 H   0  0  0  0  0  0
  -26.8502  -30.8429   21.9923 H   0  0  0  0  0  0
  -28.1230  -28.9785   21.1828 H   0  0  0  0  0  0
  -25.9774  -25.9470   18.9634 H   0  0  0  0  0  0
  -23.9821  -27.3118   18.9920 H   0  0  0  0  0  0
  -23.7602  -30.5953   19.4036 H   0  0  0  0  0  0
  -22.7593  -29.2489   19.8634 H   0  0  0  0  0  0
  -25.1278  -36.1904   25.0844 H   0  0  0  0  0  0
  -21.0069  -28.3356   24.1396 H   0  0  0  0  0  0
  -20.5691  -26.2372   23.3697 H   0  0  0  0  0  0
  -21.6665  -26.7432   22.1262 H   0  0  0  0  0  0
  -19.6920  -25.6325   21.1275 H   0  0  0  0  0  0
  -19.6701  -27.3238   20.6823 H   0  0  0  0  0  0
  -17.4243  -26.6818   21.3960 H   0  0  0  0  0  0
  -18.0201  -26.0066   22.8953 H   0  0  0  0  0  0
  -19.7933  -30.7279   24.2320 H   0  0  0  0  0  0
  -17.5011  -31.6275   24.5183 H   0  0  0  0  0  0
  -15.5354  -30.2983   23.7654 H   0  0  0  0  0  0
  -15.8723  -28.0864   22.6998 H   0  0  0  0  0  0
  -24.6133  -30.6793   25.7846 H   0  0  0  0  0  0
  -24.8695  -32.2810   26.4610 H   0  0  0  0  0  0
  -25.8105  -30.9177   27.0336 H   0  0  0  0  0  0
  -26.2867  -29.6722   24.1219 H   0  0  0  0  0  0
  -27.4168  -29.7261   25.4595 H   0  0  0  0  0  0
  -27.8713  -30.4287   23.9232 H   0  0  0  0  0  0
  -27.2779  -33.3777   26.1753 H   0  0  0  0  0  0
  -28.4026  -32.6552   25.0314 H   0  0  0  0  0  0
  -28.0571  -31.8553   26.5567 H   0  0  0  0  0  0
  -28.2597  -38.0085   24.7544 H   0  0  0  0  0  0
  -28.1064  -36.2620   24.6244 H   0  0  0  0  0  0
  -27.2326  -37.1397   25.8880 H   0  0  0  0  0  0
  -20.9388  -29.8751   21.6828 H   0  0  0  0  0  0
  -26.0142  -38.2863   24.1429 H   0  0  0  0  0  0
  -28.9838  -18.6576   20.0685 H   0  0  0  0  0  0
  -32.6355  -20.8297   20.7713 H   0  0  0  0  0  0
  -29.6688  -16.7083   23.2786 H   0  0  0  0  0  0
  -31.2191  -15.9204   23.0365 H   0  0  0  0  0  0
  -29.7572  -14.9655   23.0819 H   0  0  0  0  0  0
  -28.1290  -17.1496   21.4042 H   0  0  0  0  0  0
  -27.8962  -15.4797   21.3207 H   0  0  0  0  0  0
  -28.3259  -16.3624   19.8431 H   0  0  0  0  0  0
  -28.9380  -21.0183   22.2501 H   0  0  0  0  0  0
  -28.4161  -22.6605   22.5613 H   0  0  0  0  0  0
  -30.1289  -22.2995   22.4527 H   0  0  0  0  0  0
  -27.5800  -20.8859   19.9056 H   0  0  0  0  0  0
  -27.5057  -22.3878   19.0114 H   0  0  0  0  0  0
  -26.9174  -22.3220   20.6716 H   0  0  0  0  0  0
  -29.6758  -21.0472   18.7792 H   0  0  0  0  0  0
  -30.9908  -21.9039   19.4497 H   0  0  0  0  0  0
  -29.8052  -24.0379   19.2583 H   0  0  0  0  0  0
  -30.1087  -24.2759   20.9427 H   0  0  0  0  0  0
  -27.5649  -24.8047   21.2002 H   0  0  0  0  0  0
  -27.4743  -24.6637   19.4758 H   0  0  0  0  0  0
  1 25  1  0  0  0
  1 30  2  0  0  0
  1 82  1  0  0  0
  2  3  1  0  0  0
  2 25  1  0  0  0
  2 86  1  0  0  0
  2 87  1  0  0  0
  3  4  1  0  0  0
  3 88  1  0  0  0
  3 89  1  0  0  0
  4  5  1  0  0  0
  4 90  1  0  0  0
  4 91  1  0  0  0
  5  6  1  0  0  0
  5 26  1  0  0  0
  5 92  1  0  0  0
  6 25  1  0  0  0
  6 93  1  0  0  0
  6 94  1  0  0  0
  7  8  2  0  0  0
  7 26  1  0  0  0
  7 29  1  0  0  0
  8  9  1  0  0  0
  8 22  1  0  0  0
  9 10  1  0  0  0
  9 27  2  0  0  0
 10 11  2  0  0  0
 10 15  1  0  0  0
 11 12  1  0  0  0
 11 95  1  0  0  0
 12 13  2  0  0  0
 12 96  1  0  0  0
 13 14  1  0  0  0
 13 31  1  0  0  0
 14 15  2  0  0  0
 14 97  1  0  0  0
 15 98  1  0  0  0
 16 17  2  0  0  0
 16 21  1  0  0  0
 16 31  1  0  0  0
 17 18  1  0  0  0
 17 99  1  0  0  0
 18 19  2  0  0  0
 18100  1  0  0  0
 19 20  1  0  0  0
 19 24  1  0  0  0
 20 21  2  0  0  0
 20101  1  0  0  0
 21 23  1  0  0  0
 22 28  1  0  0  0
 22 32  2  0  0  0
 26 27  1  0  0  0
 28102  1  0  0  0
 28103  1  0  0  0
 29104  1  0  0  0
 29105  1  0  0  0
 33 34  1  0  0  0
 33 66  1  0  0  0
 33 70  2  0  0  0
 34 36  1  0  0  0
 34 59  1  0  0  0
 34106  1  0  0  0
 35 44  2  0  0  0
 35 45  1  0  0  0
 35 68  1  0  0  0
 36 56  1  0  0  0
 36107  1  0  0  0
 37 39  1  0  0  0
 37 47  1  0  0  0
 37 66  1  0  0  0
 37108  1  0  0  0
 38 43  2  0  0  0
 38 46  1  0  0  0
 38 47  1  0  0  0
 39 64  1  0  0  0
 39 67  2  0  0  0
 40 52  1  0  0  0
 40 53  2  0  0  0
 40 58  1  0  0  0
 41109  1  0  0  0
 41110  1  0  0  0
 41111  1  0  0  0
 41 48  1  0  0  0
 42 43  1  0  0  0
 42 66  1  0  0  0
 42112  1  0  0  0
 42113  1  0  0  0
 43 44  1  0  0  0
 44114  1  0  0  0
 45 46  2  0  0  0
 45115  1  0  0  0
 46116  1  0  0  0
 47117  1  0  0  0
 47118  1  0  0  0
 48 56  1  0  0  0
 48 65  1  0  0  0
 48119  1  0  0  0
 49 50  1  0  0  0
 49 53  1  0  0  0
 49 64  1  0  0  0
 49120  1  0  0  0
 50 51  1  0  0  0
 50121  1  0  0  0
 50122  1  0  0  0
 51 52  1  0  0  0
 51123  1  0  0  0
 51124  1  0  0  0
 52125  1  0  0  0
 52126  1  0  0  0
 53 54  1  0  0  0
 54 55  2  0  0  0
 54127  1  0  0  0
 55 57  1  0  0  0
 55128  1  0  0  0
 56 69  2  0  0  0
 57 58  2  0  0  0
 57129  1  0  0  0
 58130  1  0  0  0
 59 60  1  0  0  0
 59 61  1  0  0  0
 59 62  1  0  0  0
 60131  1  0  0  0
 60132  1  0  0  0
 60133  1  0  0  0
 61134  1  0  0  0
 61135  1  0  0  0
 61136  1  0  0  0
 62137  1  0  0  0
 62138  1  0  0  0
 62139  1  0  0  0
 63 65  1  0  0  0
 63140  1  0  0  0
 63141  1  0  0  0
 63142  1  0  0  0
 64143  1  0  0  0
 65144  1  0  0  0
 68 81  1  0  0  0
 71 73  2  0  0  0
 71 74  1  0  0  0
 71145  1  0  0  0
 72 73  1  0  0  0
 72 84  2  0  0  0
 72146  1  0  0  0
 73 79  1  0  0  0
 74 82  1  0  0  0
 74 85  2  0  0  0
 75147  1  0  0  0
 75148  1  0  0  0
 75149  1  0  0  0
 75 82  1  0  0  0
 76 82  1  0  0  0
 76150  1  0  0  0
 76151  1  0  0  0
 76152  1  0  0  0
 77153  1  0  0  0
 77154  1  0  0  0
 77155  1  0  0  0
 77 83  1  0  0  0
 78 83  1  0  0  0
 78156  1  0  0  0
 78157  1  0  0  0
 78158  1  0  0  0
 79 83  1  0  0  0
 79159  1  0  0  0
 79160  1  0  0  0
 80 81  1  0  0  0
 80 83  1  0  0  0
 80161  1  0  0  0
 80162  1  0  0  0
 81163  1  0  0  0
 81164  1  0  0  0
 84 85  1  0  0  0
M  ISO  4   1 100  68 101  81 101  82 100
M  END
> <chiral flag>
0

> <version>
0

> <s_m_source_file>
/data/baiqing/PycharmProjects/Reinvent-master-3.2/result/LINK_invent/BTK/process_docking_weight1_custom_sum_contain_oxygen_bond_distance_aromatic_linkinvent_7_9_3/rearranged_h_0074.sdf

> <i_m_source_file_index>
65

> <r_mmod_Potential_Energy-OPLS-2005>
328.5908203125

> <r_mmod_Stretch_Energy-OPLS-2005>
131.213973999023

> <r_mmod_Bend_Energy-OPLS-2005>
191.980239868164

> <r_mmod_Torsional_Energy-OPLS-2005>
207.867736816406

> <r_mmod_Improper_Torsional_Energy-OPLS-2005>
3.57964324951172

> <r_mmod_Van_der_Waal_Energy-OPLS-2005>
164.928527832031

> <r_mmod_Electrostatic_Energy-OPLS-2005>
-218.587417602539

> <r_mmod_Solvation_Energy-OPLS-2005>
-216.629760742188

> <b_mmod_Minimization_Converged-OPLS-2005>
0

> <r_mmod_RMS_Derivative-OPLS-2005>
5.05874872207642

$$$$
65
                    3D
 Structure written by MMmdl.
158166  0  0  1  0            999 V2000
  -30.4978  -14.9597   20.4204 C   0  0  0  0  0  0
  -30.4763  -12.5939   19.4883 C   0  0  0  0  0  0
  -29.5343  -12.5312   18.2568 C   0  0  0  0  0  0
  -28.0544  -12.3365   18.6633 C   0  0  0  0  0  0
  -27.6401  -13.2107   19.8760 C   0  0  2  0  0  0
  -28.7128  -13.1455   20.9867 C   0  0  0  0  0  0
  -25.2452  -13.8062   20.5681 C   0  0  0  0  0  0
  -24.1749  -13.0343   20.9242 C   0  0  0  0  0  0
  -24.6348  -11.6828   20.8817 C   0  0  0  0  0  0
  -23.9024  -10.4226   21.0450 C   0  0  0  0  0  0
  -24.3581   -9.4143   21.9222 C   0  0  0  0  0  0
  -23.6243   -8.2188   22.0773 C   0  0  0  0  0  0
  -22.4236   -8.0241   21.3547 C   0  0  0  0  0  0
  -21.9878   -9.0217   20.4652 C   0  0  0  0  0  0
  -22.7215  -10.2089   20.3066 C   0  0  0  0  0  0
  -21.6829   -6.0693   22.5273 C   0  0  0  0  0  0
  -21.4011   -6.5607   23.8208 C   0  0  0  0  0  0
  -21.3668   -5.6774   24.9175 C   0  0  0  0  0  0
  -21.6050   -4.3029   24.7238 C   0  0  0  0  0  0
  -21.8814   -3.8112   23.4360 C   0  0  0  0  0  0
  -21.9180   -4.6922   22.3407 C   0  0  0  0  0  0
  -22.7776  -13.5167   21.1873 C   0  0  0  0  0  0
  -22.1646   -4.2099   21.0983 F   0  0  0  0  0  0
  -21.5641   -3.4520   25.7756 F   0  0  0  0  0  0
  -29.9730  -13.6547   20.4100 N   0  0  0  0  0  0
  -26.2924  -12.9231   20.3468 N   0  0  0  0  0  0
  -25.9293  -11.6404   20.5895 N   0  0  0  0  0  0
  -22.0405  -12.8189   22.0447 N   0  0  0  0  0  0
  -25.3957  -15.1777   20.3897 N   0  0  0  0  0  0
  -31.7078  -15.0399   20.1713 O   0  0  0  0  0  0
  -21.6606   -6.8834   21.4236 O   0  0  0  0  0  0
  -22.3477  -14.5464   20.6686 O   0  0  0  0  0  0
  -24.6391  -31.8479   23.1893 C   0  0  0  0  0  0
  -25.9183  -32.4713   23.8273 C   0  0  1  0  0  0
  -27.2308  -27.1787   20.1444 C   0  0  0  0  0  0
  -25.5948  -33.8518   24.2201 N   0  0  0  0  0  0
  -23.4416  -30.4659   21.5346 C   0  0  2  0  0  0
  -24.8923  -28.8966   20.1100 C   0  0  0  0  0  0
  -22.7551  -29.4565   22.4872 C   0  0  0  0  0  0
  -18.0297  -28.1394   22.8474 C   0  0  0  0  0  0
  -24.1492  -36.7260   23.2641 C   0  0  0  0  0  0
  -25.9940  -30.7327   21.3830 C   0  0  0  0  0  0
  -26.0672  -29.3475   20.7250 C   0  0  0  0  0  0
  -27.2352  -28.5038   20.7275 C   0  0  0  0  0  0
  -26.0304  -26.8186   19.4906 C   0  0  0  0  0  0
  -24.8843  -27.6430   19.4794 C   0  0  0  0  0  0
  -23.6665  -29.7946   20.1536 C   0  0  0  0  0  0
  -25.4123  -36.3049   24.0322 C   0  0  1  0  0  0
  -20.5907  -28.3719   23.1243 C   0  0  2  0  0  0
  -20.6783  -26.9424   22.5402 C   0  0  0  0  0  0
  -19.5762  -26.6382   21.5207 C   0  0  0  0  0  0
  -18.1944  -26.7931   22.1618 C   0  0  0  0  0  0
  -19.1554  -28.8873   23.2847 C   0  0  0  0  0  0
  -18.9474  -30.1464   23.8877 C   0  0  0  0  0  0
  -17.6478  -30.6590   24.0560 C   0  0  0  0  0  0
  -25.9077  -34.9422   23.5069 C   0  0  0  0  0  0
  -16.5367  -29.9092   23.6329 C   0  0  0  0  0  0
  -16.7282  -28.6506   23.0350 C   0  0  0  0  0  0
  -26.4518  -31.6562   25.0694 C   0  0  0  0  0  0
  -25.3713  -31.3746   26.1395 C   0  0  0  0  0  0
  -27.0378  -30.2964   24.6240 C   0  0  0  0  0  0
  -27.6053  -32.4327   25.7472 C   0  0  0  0  0  0
  -27.5580  -37.1786   24.8469 C   0  0  0  0  0  0
  -21.4246  -29.3052   22.3622 N   0  0  0  0  0  0
  -26.4288  -37.3761   23.9419 N   0  0  0  0  0  0
  -24.7110  -31.0369   22.0906 N   0  0  0  0  0  0
  -23.4199  -28.8115   23.3017 O   0  0  0  0  0  0
  -28.3049  -26.2292   20.2268 O   0  0  0  0  0  0
  -26.5665  -34.8922   22.4649 O   0  0  0  0  0  0
  -23.5523  -32.1334   23.7144 O   0  0  0  0  0  0
  -29.2917  -19.1283   20.2206 C   0  0  0  0  0  0
  -29.6707  -20.5167   20.5267 C   0  0  0  0  0  0
  -30.0793  -17.9326   20.6000 C   0  0  0  0  0  0
  -30.8992  -20.5415   21.2404 C   0  0  0  0  0  0
  -31.5512  -21.8349   21.6840 C   0  0  0  0  0  0
  -28.9134  -16.4088   19.0100 C   0  0  0  0  0  0
  -28.5164  -16.2872   21.5440 C   0  0  0  0  0  0
  -28.8001  -21.8528   20.1036 C   0  0  0  0  0  0
  -29.0800  -23.4677   20.4638 C   0  0  0  0  0  0
  -28.0802  -24.7199   19.9945 C   0  0  0  0  0  0
  -29.5697  -16.3752   20.4150 C   0  0  0  0  0  0
  -31.2154  -18.1621   21.2971 N   0  0  0  0  0  0
  -31.6031  -19.4181   21.5858 N   0  0  0  0  0  0
  -31.4977  -12.7930   19.1602 H   0  0  0  0  0  0
  -30.5219  -11.6260   19.9910 H   0  0  0  0  0  0
  -29.8435  -11.7243   17.5907 H   0  0  0  0  0  0
  -29.6392  -13.4479   17.6768 H   0  0  0  0  0  0
  -27.9190  -11.2841   18.9148 H   0  0  0  0  0  0
  -27.3972  -12.5328   17.8157 H   0  0  0  0  0  0
  -27.5888  -14.2258   19.5161 H   0  0  0  0  0  0
  -28.8321  -12.1107   21.3100 H   0  0  0  0  0  0
  -28.4415  -13.6588   21.9053 H   0  0  0  0  0  0
  -25.2730   -9.5592   22.4801 H   0  0  0  0  0  0
  -23.9934   -7.4564   22.7481 H   0  0  0  0  0  0
  -21.0820   -8.8744   19.8943 H   0  0  0  0  0  0
  -22.3708  -10.9631   19.6161 H   0  0  0  0  0  0
  -21.2008   -7.6116   23.9698 H   0  0  0  0  0  0
  -21.1508   -6.0504   25.9079 H   0  0  0  0  0  0
  -22.0590   -2.7568   23.2876 H   0  0  0  0  0  0
  -22.4015  -11.9862   22.4860 H   0  0  0  0  0  0
  -21.1029  -13.1229   22.2667 H   0  0  0  0  0  0
  -24.6140  -15.8155   20.4887 H   0  0  0  0  0  0
  -26.2245  -15.6219   20.0194 H   0  0  0  0  0  0
  -26.7245  -32.5342   23.1001 H   0  0  0  0  0  0
  -25.0064  -33.9634   25.0328 H   0  0  0  0  0  0
  -22.7416  -31.2896   21.3811 H   0  0  0  0  0  0
  -23.3769  -35.9579   23.3292 H   0  0  0  0  0  0
  -24.3576  -36.8894   22.2057 H   0  0  0  0  0  0
  -23.7225  -37.6448   23.6673 H   0  0  0  0  0  0
  -26.1472  -31.4878   20.6108 H   0  0  0  0  0  0
  -26.8657  -30.7816   22.0242 H   0  0  0  0  0  0
  -28.1291  -28.8438   21.2308 H   0  0  0  0  0  0
  -25.9449  -25.8611   18.9991 H   0  0  0  0  0  0
  -23.9880  -27.2894   18.9886 H   0  0  0  0  0  0
  -23.8053  -30.5690   19.3981 H   0  0  0  0  0  0
  -22.7824  -29.2365   19.8416 H   0  0  0  0  0  0
  -25.1307  -36.1884   25.0815 H   0  0  0  0  0  0
  -20.9990  -28.3310   24.1371 H   0  0  0  0  0  0
  -20.5681  -26.2336   23.3621 H   0  0  0  0  0  0
  -21.6654  -26.7448   22.1204 H   0  0  0  0  0  0
  -19.6932  -25.6291   21.1249 H   0  0  0  0  0  0
  -19.6698  -27.3183   20.6728 H   0  0  0  0  0  0
  -17.4212  -26.6661   21.4022 H   0  0  0  0  0  0
  -18.0351  -26.0078   22.9021 H   0  0  0  0  0  0
  -19.7954  -30.7269   24.2250 H   0  0  0  0  0  0
  -17.5039  -31.6272   24.5162 H   0  0  0  0  0  0
  -15.5370  -30.2997   23.7660 H   0  0  0  0  0  0
  -15.8677  -28.0822   22.7087 H   0  0  0  0  0  0
  -24.5891  -30.7095   25.7717 H   0  0  0  0  0  0
  -24.8902  -32.2927   26.4777 H   0  0  0  0  0  0
  -25.8002  -30.8945   27.0196 H   0  0  0  0  0  0
  -26.2984  -29.6689   24.1252 H   0  0  0  0  0  0
  -27.4016  -29.7257   25.4792 H   0  0  0  0  0  0
  -27.8879  -30.4213   23.9530 H   0  0  0  0  0  0
  -27.2644  -33.3638   26.2007 H   0  0  0  0  0  0
  -28.3876  -32.6868   25.0308 H   0  0  0  0  0  0
  -28.0702  -31.8479   26.5417 H   0  0  0  0  0  0
  -28.2601  -38.0083   24.7530 H   0  0  0  0  0  0
  -28.1077  -36.2617   24.6282 H   0  0  0  0  0  0
  -27.2302  -37.1416   25.8872 H   0  0  0  0  0  0
  -20.9454  -29.8772   21.6810 H   0  0  0  0  0  0
  -26.0163  -38.2833   24.1426 H   0  0  0  0  0  0
  -28.3560  -18.9754   19.7054 H   0  0  0  0  0  0
  -31.8304  -22.4354   20.8194 H   0  0  0  0  0  0
  -32.4587  -21.6446   22.2584 H   0  0  0  0  0  0
  -30.8827  -22.4066   22.3243 H   0  0  0  0  0  0
  -27.9012  -16.8125   19.0400 H   0  0  0  0  0  0
  -28.8789  -15.4498   18.5048 H   0  0  0  0  0  0
  -29.4960  -17.0346   18.3329 H   0  0  0  0  0  0
  -28.9919  -16.1427   22.5150 H   0  0  0  0  0  0
  -27.7755  -15.5178   21.4008 H   0  0  0  0  0  0
  -27.9276  -17.2012   21.6203 H   0  0  0  0  0  0
  -27.7848  -21.6393   20.4379 H   0  0  0  0  0  0
  -28.7405  -21.8011   19.0160 H   0  0  0  0  0  0
  -30.0700  -23.7184   20.0860 H   0  0  0  0  0  0
  -29.1493  -23.5497   21.5476 H   0  0  0  0  0  0
  -27.1067  -24.4821   20.4247 H   0  0  0  0  0  0
  -27.9461  -24.6137   18.9174 H   0  0  0  0  0  0
  1 25  1  0  0  0
  1 30  2  0  0  0
  1 81  1  0  0  0
  2  3  1  0  0  0
  2 25  1  0  0  0
  2 84  1  0  0  0
  2 85  1  0  0  0
  3  4  1  0  0  0
  3 86  1  0  0  0
  3 87  1  0  0  0
  4  5  1  0  0  0
  4 88  1  0  0  0
  4 89  1  0  0  0
  5  6  1  0  0  0
  5 26  1  0  0  0
  5 90  1  0  0  0
  6 25  1  0  0  0
  6 91  1  0  0  0
  6 92  1  0  0  0
  7  8  2  0  0  0
  7 26  1  0  0  0
  7 29  1  0  0  0
  8  9  1  0  0  0
  8 22  1  0  0  0
  9 10  1  0  0  0
  9 27  2  0  0  0
 10 11  2  0  0  0
 10 15  1  0  0  0
 11 12  1  0  0  0
 11 93  1  0  0  0
 12 13  2  0  0  0
 12 94  1  0  0  0
 13 14  1  0  0  0
 13 31  1  0  0  0
 14 15  2  0  0  0
 14 95  1  0  0  0
 15 96  1  0  0  0
 16 17  2  0  0  0
 16 21  1  0  0  0
 16 31  1  0  0  0
 17 18  1  0  0  0
 17 97  1  0  0  0
 18 19  2  0  0  0
 18 98  1  0  0  0
 19 20  1  0  0  0
 19 24  1  0  0  0
 20 21  2  0  0  0
 20 99  1  0  0  0
 21 23  1  0  0  0
 22 28  1  0  0  0
 22 32  2  0  0  0
 26 27  1  0  0  0
 28100  1  0  0  0
 28101  1  0  0  0
 29102  1  0  0  0
 29103  1  0  0  0
 33 34  1  0  0  0
 33 66  1  0  0  0
 33 70  2  0  0  0
 34 36  1  0  0  0
 34 59  1  0  0  0
 34104  1  0  0  0
 35 44  2  0  0  0
 35 45  1  0  0  0
 35 68  1  0  0  0
 36 56  1  0  0  0
 36105  1  0  0  0
 37 39  1  0  0  0
 37 47  1  0  0  0
 37 66  1  0  0  0
 37106  1  0  0  0
 38 43  2  0  0  0
 38 46  1  0  0  0
 38 47  1  0  0  0
 39 64  1  0  0  0
 39 67  2  0  0  0
 40 52  1  0  0  0
 40 53  2  0  0  0
 40 58  1  0  0  0
 41107  1  0  0  0
 41108  1  0  0  0
 41109  1  0  0  0
 41 48  1  0  0  0
 42 43  1  0  0  0
 42 66  1  0  0  0
 42110  1  0  0  0
 42111  1  0  0  0
 43 44  1  0  0  0
 44112  1  0  0  0
 45 46  2  0  0  0
 45113  1  0  0  0
 46114  1  0  0  0
 47115  1  0  0  0
 47116  1  0  0  0
 48 56  1  0  0  0
 48 65  1  0  0  0
 48117  1  0  0  0
 49 50  1  0  0  0
 49 53  1  0  0  0
 49 64  1  0  0  0
 49118  1  0  0  0
 50 51  1  0  0  0
 50119  1  0  0  0
 50120  1  0  0  0
 51 52  1  0  0  0
 51121  1  0  0  0
 51122  1  0  0  0
 52123  1  0  0  0
 52124  1  0  0  0
 53 54  1  0  0  0
 54 55  2  0  0  0
 54125  1  0  0  0
 55 57  1  0  0  0
 55126  1  0  0  0
 56 69  2  0  0  0
 57 58  2  0  0  0
 57127  1  0  0  0
 58128  1  0  0  0
 59 60  1  0  0  0
 59 61  1  0  0  0
 59 62  1  0  0  0
 60129  1  0  0  0
 60130  1  0  0  0
 60131  1  0  0  0
 61132  1  0  0  0
 61133  1  0  0  0
 61134  1  0  0  0
 62135  1  0  0  0
 62136  1  0  0  0
 62137  1  0  0  0
 63 65  1  0  0  0
 63138  1  0  0  0
 63139  1  0  0  0
 63140  1  0  0  0
 64141  1  0  0  0
 65142  1  0  0  0
 68 80  1  0  0  0
 71 72  2  0  0  0
 71 73  1  0  0  0
 71143  1  0  0  0
 72 74  1  0  0  0
 72 78  1  0  0  0
 73 81  1  0  0  0
 73 82  2  0  0  0
 74 75  1  0  0  0
 74 83  2  0  0  0
 75144  1  0  0  0
 75145  1  0  0  0
 75146  1  0  0  0
 76147  1  0  0  0
 76148  1  0  0  0
 76149  1  0  0  0
 76 81  1  0  0  0
 77 81  1  0  0  0
 77150  1  0  0  0
 77151  1  0  0  0
 77152  1  0  0  0
 78 79  1  0  0  0
 78153  1  0  0  0
 78154  1  0  0  0
 79 80  1  0  0  0
 79155  1  0  0  0
 79156  1  0  0  0
 80157  1  0  0  0
 80158  1  0  0  0
 82 83  1  0  0  0
M  ISO  4   1 100  68 101  80 101  81 100
M  END
> <chiral flag>
0

> <version>
0

> <s_m_source_file>
/data/baiqing/PycharmProjects/Reinvent-master-3.2/result/LINK_invent/BTK/process_docking_weight1_custom_sum_contain_oxygen_bond_distance_aromatic_linkinvent_7_9_3/rearranged_h_0074.sdf

> <i_m_source_file_index>
66

> <r_mmod_Potential_Energy-OPLS-2005>
574.23681640625

> <r_mmod_Stretch_Energy-OPLS-2005>
251.410308837891

> <r_mmod_Bend_Energy-OPLS-2005>
276.409881591797

> <r_mmod_Torsional_Energy-OPLS-2005>
206.138442993164

> <r_mmod_Improper_Torsional_Energy-OPLS-2005>
7.92375707626343

> <r_mmod_Van_der_Waal_Energy-OPLS-2005>
153.420227050781

> <r_mmod_Electrostatic_Energy-OPLS-2005>
-262.585144042969

> <r_mmod_Solvation_Energy-OPLS-2005>
-229.691772460938

> <b_mmod_Minimization_Converged-OPLS-2005>
0

> <r_mmod_RMS_Derivative-OPLS-2005>
1.81015861034393

$$$$
66
                    3D
 Structure written by MMmdl.
175183  0  0  1  0            999 V2000
  -30.7166  -14.3970   20.6436 C   0  0  0  0  0  0
  -30.4292  -12.2822   19.4064 C   0  0  0  0  0  0
  -29.4967  -12.5175   18.2014 C   0  0  0  0  0  0
  -28.0173  -12.3797   18.6149 C   0  0  0  0  0  0
  -27.6716  -13.1963   19.8882 C   0  0  2  0  0  0
  -28.7081  -12.9173   21.0001 C   0  0  0  0  0  0
  -25.2636  -13.8145   20.5682 C   0  0  0  0  0  0
  -24.1861  -13.0444   20.9171 C   0  0  0  0  0  0
  -24.6383  -11.6905   20.8718 C   0  0  0  0  0  0
  -23.9030  -10.4296   21.0392 C   0  0  0  0  0  0
  -24.3592   -9.4219   21.9171 C   0  0  0  0  0  0
  -23.6281   -8.2247   22.0741 C   0  0  0  0  0  0
  -22.4258   -8.0272   21.3535 C   0  0  0  0  0  0
  -21.9890   -9.0242   20.4636 C   0  0  0  0  0  0
  -22.7201  -10.2129   20.3043 C   0  0  0  0  0  0
  -21.6857   -6.0725   22.5273 C   0  0  0  0  0  0
  -21.4015   -6.5632   23.8207 C   0  0  0  0  0  0
  -21.3658   -5.6784   24.9163 C   0  0  0  0  0  0
  -21.6051   -4.3049   24.7224 C   0  0  0  0  0  0
  -21.8817   -3.8137   23.4343 C   0  0  0  0  0  0
  -21.9195   -4.6958   22.3399 C   0  0  0  0  0  0
  -22.7879  -13.5251   21.1851 C   0  0  0  0  0  0
  -22.1662   -4.2142   21.0973 F   0  0  0  0  0  0
  -21.5631   -3.4528   25.7738 F   0  0  0  0  0  0
  -30.0510  -13.2250   20.4694 N   0  0  0  0  0  0
  -26.3069  -12.9297   20.3404 N   0  0  0  0  0  0
  -25.9319  -11.6458   20.5761 N   0  0  0  0  0  0
  -22.0507  -12.8233   22.0400 N   0  0  0  0  0  0
  -25.4394  -15.1847   20.4069 N   0  0  0  0  0  0
  -31.7694  -14.6800   20.0658 O   0  0  0  0  0  0
  -21.6632   -6.8867   21.4230 O   0  0  0  0  0  0
  -22.3571  -14.5568   20.6717 O   0  0  0  0  0  0
  -24.6115  -31.8680   23.2077 C   0  0  0  0  0  0
  -25.9013  -32.4821   23.8365 C   0  0  1  0  0  0
  -27.2388  -27.4472   20.0909 C   0  0  0  0  0  0
  -25.5881  -33.8619   24.2295 N   0  0  0  0  0  0
  -23.4010  -30.4852   21.5518 C   0  0  2  0  0  0
  -24.8482  -28.9491   20.1146 C   0  0  0  0  0  0
  -22.7401  -29.4621   22.5039 C   0  0  0  0  0  0
  -18.0253  -28.1368   22.8467 C   0  0  0  0  0  0
  -24.1489  -36.7328   23.2633 C   0  0  0  0  0  0
  -25.9246  -30.8345   21.3584 C   0  0  0  0  0  0
  -26.0040  -29.4673   20.7126 C   0  0  0  0  0  0
  -27.2030  -28.7223   20.6992 C   0  0  0  0  0  0
  -26.0716  -26.9381   19.4877 C   0  0  0  0  0  0
  -24.8762  -27.6830   19.5013 C   0  0  0  0  0  0
  -23.6056  -29.8099   20.1679 C   0  0  0  0  0  0
  -25.4114  -36.3117   24.0332 C   0  0  1  0  0  0
  -20.5840  -28.3633   23.1336 C   0  0  2  0  0  0
  -20.6755  -26.9371   22.5434 C   0  0  0  0  0  0
  -19.5744  -26.6362   21.5224 C   0  0  0  0  0  0
  -18.1905  -26.7911   22.1597 C   0  0  0  0  0  0
  -19.1498  -28.8818   23.2894 C   0  0  0  0  0  0
  -18.9434  -30.1434   23.8893 C   0  0  0  0  0  0
  -17.6440  -30.6572   24.0552 C   0  0  0  0  0  0
  -25.9054  -34.9478   23.5125 C   0  0  0  0  0  0
  -16.5330  -29.9073   23.6337 C   0  0  0  0  0  0
  -16.7244  -28.6499   23.0337 C   0  0  0  0  0  0
  -26.4451  -31.6601   25.0690 C   0  0  0  0  0  0
  -25.3720  -31.3698   26.1450 C   0  0  0  0  0  0
  -27.0273  -30.3056   24.6036 C   0  0  0  0  0  0
  -27.6033  -32.4336   25.7449 C   0  0  0  0  0  0
  -27.5594  -37.1803   24.8455 C   0  0  0  0  0  0
  -21.4133  -29.3001   22.3767 N   0  0  0  0  0  0
  -26.4294  -37.3802   23.9411 N   0  0  0  0  0  0
  -24.6639  -31.0767   22.0987 N   0  0  0  0  0  0
  -23.4175  -28.8161   23.3072 O   0  0  0  0  0  0
  -28.4163  -26.7330   20.0333 O   0  0  0  0  0  0
  -26.5623  -34.8919   22.4697 O   0  0  0  0  0  0
  -23.5319  -32.1425   23.7487 O   0  0  0  0  0  0
  -30.6169  -22.1942   22.6877 C   0  0  0  0  0  0
  -30.2658  -21.2316   21.7785 C   0  0  0  0  0  0
  -29.4565  -23.2120   21.0827 C   0  0  0  0  0  0
  -29.5211  -20.3684   17.2207 C   0  0  0  0  0  0
  -27.6954  -25.6849   22.2063 C   0  0  0  0  0  0
  -28.1056  -16.8226   22.7634 C   0  0  0  0  0  0
  -30.3136  -17.1975   23.8849 C   0  0  0  0  0  0
  -30.5480  -19.7503   21.8248 C   0  0  0  0  0  0
  -28.7552  -24.3057   20.2942 C   0  0  0  0  0  0
  -30.1019  -21.0281   18.4773 C   0  0  0  0  0  0
  -29.3244  -18.9442   22.3148 C   0  0  0  0  0  0
  -29.0245  -21.3043   19.5422 C   0  0  0  0  0  0
  -30.2583  -16.7287   21.4045 C   0  0  0  0  0  0
  -28.6574  -25.6889   20.9962 C   0  0  1  0  0  0
  -29.5193  -17.4237   22.5813 C   0  0  0  0  0  0
  -29.5748  -21.8990   20.7766 N   0  0  0  0  0  0
  -30.1267  -23.3818   22.2286 N   0  3  0  0  0  0
  -30.0811  -15.2789   21.4236 N   0  0  0  0  0  0
  -31.4736  -12.3880   19.1085 H   0  0  0  0  0  0
  -30.3295  -11.2588   19.7700 H   0  0  0  0  0  0
  -29.7275  -11.8070   17.4065 H   0  0  0  0  0  0
  -29.6752  -13.5106   17.7878 H   0  0  0  0  0  0
  -27.8195  -11.3214   18.7926 H   0  0  0  0  0  0
  -27.3677  -12.6735   17.7897 H   0  0  0  0  0  0
  -27.7372  -14.2520   19.6266 H   0  0  0  0  0  0
  -28.6732  -11.8663   21.2916 H   0  0  0  0  0  0
  -28.4589  -13.4665   21.9085 H   0  0  0  0  0  0
  -25.2739   -9.5706   22.4743 H   0  0  0  0  0  0
  -23.9995   -7.4640   22.7462 H   0  0  0  0  0  0
  -21.0825   -8.8760   19.8942 H   0  0  0  0  0  0
  -22.3656  -10.9670   19.6155 H   0  0  0  0  0  0
  -21.2003   -7.6137   23.9712 H   0  0  0  0  0  0
  -21.1485   -6.0507   25.9072 H   0  0  0  0  0  0
  -22.0601   -2.7602   23.2843 H   0  0  0  0  0  0
  -22.4097  -11.9884   22.4788 H   0  0  0  0  0  0
  -21.1129  -13.1279   22.2604 H   0  0  0  0  0  0
  -24.6808  -15.8485   20.5189 H   0  0  0  0  0  0
  -26.2998  -15.6162   20.0969 H   0  0  0  0  0  0
  -26.7071  -32.5545   23.1113 H   0  0  0  0  0  0
  -25.0017  -33.9769   25.0428 H   0  0  0  0  0  0
  -22.6880  -31.3000   21.4089 H   0  0  0  0  0  0
  -23.3752  -35.9664   23.3299 H   0  0  0  0  0  0
  -24.3571  -36.8967   22.2051 H   0  0  0  0  0  0
  -23.7240  -37.6518   23.6667 H   0  0  0  0  0  0
  -26.0275  -31.5956   20.5827 H   0  0  0  0  0  0
  -26.8174  -30.8956   21.9678 H   0  0  0  0  0  0
  -28.1007  -29.1174   21.1534 H   0  0  0  0  0  0
  -26.0925  -25.9725   19.0022 H   0  0  0  0  0  0
  -23.9871  -27.2804   19.0367 H   0  0  0  0  0  0
  -23.7009  -30.5795   19.4005 H   0  0  0  0  0  0
  -22.7309  -29.2192   19.8872 H   0  0  0  0  0  0
  -25.1284  -36.1990   25.0821 H   0  0  0  0  0  0
  -20.9898  -28.3197   24.1479 H   0  0  0  0  0  0
  -20.5700  -26.2217   23.3600 H   0  0  0  0  0  0
  -21.6622  -26.7454   22.1212 H   0  0  0  0  0  0
  -19.6930  -25.6294   21.1220 H   0  0  0  0  0  0
  -19.6717  -27.3200   20.6781 H   0  0  0  0  0  0
  -17.4204  -26.6666   21.3976 H   0  0  0  0  0  0
  -18.0277  -26.0061   22.9002 H   0  0  0  0  0  0
  -19.7926  -30.7235   24.2249 H   0  0  0  0  0  0
  -17.5009  -31.6242   24.5149 H   0  0  0  0  0  0
  -15.5330  -30.2955   23.7686 H   0  0  0  0  0  0
  -15.8649  -28.0821   22.7041 H   0  0  0  0  0  0
  -24.5888  -30.7063   25.7779 H   0  0  0  0  0  0
  -24.8896  -32.2838   26.4926 H   0  0  0  0  0  0
  -25.8061  -30.8835   27.0194 H   0  0  0  0  0  0
  -26.2782  -29.6799   24.1166 H   0  0  0  0  0  0
  -27.4142  -29.7313   25.4455 H   0  0  0  0  0  0
  -27.8576  -30.4384   23.9094 H   0  0  0  0  0  0
  -27.2661  -33.3638   26.2034 H   0  0  0  0  0  0
  -28.3813  -32.6920   25.0257 H   0  0  0  0  0  0
  -28.0728  -31.8469   26.5340 H   0  0  0  0  0  0
  -28.2598  -38.0114   24.7549 H   0  0  0  0  0  0
  -28.1090  -36.2647   24.6224 H   0  0  0  0  0  0
  -27.2304  -37.1413   25.8849 H   0  0  0  0  0  0
  -20.9301  -29.8732   21.6991 H   0  0  0  0  0  0
  -26.0191  -38.2885   24.1425 H   0  0  0  0  0  0
  -31.1722  -22.1191   23.6118 H   0  0  0  0  0  0
  -30.3130  -20.0254   16.5548 H   0  0  0  0  0  0
  -28.8981  -21.0677   16.6595 H   0  0  0  0  0  0
  -28.9062  -19.5051   17.4767 H   0  0  0  0  0  0
  -27.9797  -24.9400   22.9486 H   0  0  0  0  0  0
  -26.6729  -25.4639   21.9030 H   0  0  0  0  0  0
  -27.6903  -26.6497   22.7151 H   0  0  0  0  0  0
  -27.5190  -17.3947   23.4841 H   0  0  0  0  0  0
  -28.1253  -15.7958   23.1276 H   0  0  0  0  0  0
  -27.5488  -16.8281   21.8257 H   0  0  0  0  0  0
  -29.7690  -17.5627   24.7569 H   0  0  0  0  0  0
  -31.2758  -17.7070   23.8669 H   0  0  0  0  0  0
  -30.5169  -16.1384   24.0496 H   0  0  0  0  0  0
  -31.3942  -19.5907   22.4942 H   0  0  0  0  0  0
  -30.8759  -19.4013   20.8485 H   0  0  0  0  0  0
  -29.3001  -24.3943   19.3546 H   0  0  0  0  0  0
  -27.7548  -23.9465   20.0548 H   0  0  0  0  0  0
  -30.6045  -21.9559   18.2022 H   0  0  0  0  0  0
  -30.8775  -20.3764   18.8776 H   0  0  0  0  0  0
  -28.5262  -19.0680   21.5833 H   0  0  0  0  0  0
  -28.9459  -19.4077   23.2282 H   0  0  0  0  0  0
  -28.5165  -20.3788   19.8127 H   0  0  0  0  0  0
  -28.2532  -21.9555   19.1347 H   0  0  0  0  0  0
  -31.3215  -16.9772   21.4158 H   0  0  0  0  0  0
  -29.8638  -17.0914   20.4537 H   0  0  0  0  0  0
  -29.6512  -25.9316   21.3762 H   0  0  0  0  0  0
  -30.2640  -24.2663   22.7000 H   0  0  0  0  0  0
  -29.2607  -14.9393   21.8982 H   0  0  0  0  0  0
  1 25  1  0  0  0
  1 30  2  0  0  0
  1 88  1  0  0  0
  2  3  1  0  0  0
  2 25  1  0  0  0
  2 89  1  0  0  0
  2 90  1  0  0  0
  3  4  1  0  0  0
  3 91  1  0  0  0
  3 92  1  0  0  0
  4  5  1  0  0  0
  4 93  1  0  0  0
  4 94  1  0  0  0
  5  6  1  0  0  0
  5 26  1  0  0  0
  5 95  1  0  0  0
  6 25  1  0  0  0
  6 96  1  0  0  0
  6 97  1  0  0  0
  7  8  2  0  0  0
  7 26  1  0  0  0
  7 29  1  0  0  0
  8  9  1  0  0  0
  8 22  1  0  0  0
  9 10  1  0  0  0
  9 27  2  0  0  0
 10 11  2  0  0  0
 10 15  1  0  0  0
 11 12  1  0  0  0
 11 98  1  0  0  0
 12 13  2  0  0  0
 12 99  1  0  0  0
 13 14  1  0  0  0
 13 31  1  0  0  0
 14 15  2  0  0  0
 14100  1  0  0  0
 15101  1  0  0  0
 16 17  2  0  0  0
 16 21  1  0  0  0
 16 31  1  0  0  0
 17 18  1  0  0  0
 17102  1  0  0  0
 18 19  2  0  0  0
 18103  1  0  0  0
 19 20  1  0  0  0
 19 24  1  0  0  0
 20 21  2  0  0  0
 20104  1  0  0  0
 21 23  1  0  0  0
 22 28  1  0  0  0
 22 32  2  0  0  0
 26 27  1  0  0  0
 28105  1  0  0  0
 28106  1  0  0  0
 29107  1  0  0  0
 29108  1  0  0  0
 33 34  1  0  0  0
 33 66  1  0  0  0
 33 70  2  0  0  0
 34 36  1  0  0  0
 34 59  1  0  0  0
 34109  1  0  0  0
 35 44  2  0  0  0
 35 45  1  0  0  0
 35 68  1  0  0  0
 36 56  1  0  0  0
 36110  1  0  0  0
 37 39  1  0  0  0
 37 47  1  0  0  0
 37 66  1  0  0  0
 37111  1  0  0  0
 38 43  2  0  0  0
 38 46  1  0  0  0
 38 47  1  0  0  0
 39 64  1  0  0  0
 39 67  2  0  0  0
 40 52  1  0  0  0
 40 53  2  0  0  0
 40 58  1  0  0  0
 41112  1  0  0  0
 41113  1  0  0  0
 41114  1  0  0  0
 41 48  1  0  0  0
 42 43  1  0  0  0
 42 66  1  0  0  0
 42115  1  0  0  0
 42116  1  0  0  0
 43 44  1  0  0  0
 44117  1  0  0  0
 45 46  2  0  0  0
 45118  1  0  0  0
 46119  1  0  0  0
 47120  1  0  0  0
 47121  1  0  0  0
 48 56  1  0  0  0
 48 65  1  0  0  0
 48122  1  0  0  0
 49 50  1  0  0  0
 49 53  1  0  0  0
 49 64  1  0  0  0
 49123  1  0  0  0
 50 51  1  0  0  0
 50124  1  0  0  0
 50125  1  0  0  0
 51 52  1  0  0  0
 51126  1  0  0  0
 51127  1  0  0  0
 52128  1  0  0  0
 52129  1  0  0  0
 53 54  1  0  0  0
 54 55  2  0  0  0
 54130  1  0  0  0
 55 57  1  0  0  0
 55131  1  0  0  0
 56 69  2  0  0  0
 57 58  2  0  0  0
 57132  1  0  0  0
 58133  1  0  0  0
 59 60  1  0  0  0
 59 61  1  0  0  0
 59 62  1  0  0  0
 60134  1  0  0  0
 60135  1  0  0  0
 60136  1  0  0  0
 61137  1  0  0  0
 61138  1  0  0  0
 61139  1  0  0  0
 62140  1  0  0  0
 62141  1  0  0  0
 62142  1  0  0  0
 63 65  1  0  0  0
 63143  1  0  0  0
 63144  1  0  0  0
 63145  1  0  0  0
 64146  1  0  0  0
 65147  1  0  0  0
 68 84  1  0  0  0
 71 72  2  0  0  0
 71 87  1  0  0  0
 71148  1  0  0  0
 72 78  1  0  0  0
 72 86  1  0  0  0
 73 79  1  0  0  0
 73 86  1  0  0  0
 73 87  2  0  0  0
 74 80  1  0  0  0
 74149  1  0  0  0
 74150  1  0  0  0
 74151  1  0  0  0
 75152  1  0  0  0
 75153  1  0  0  0
 75154  1  0  0  0
 75 84  1  0  0  0
 76155  1  0  0  0
 76156  1  0  0  0
 76157  1  0  0  0
 76 85  1  0  0  0
 77 85  1  0  0  0
 77158  1  0  0  0
 77159  1  0  0  0
 77160  1  0  0  0
 78 81  1  0  0  0
 78161  1  0  0  0
 78162  1  0  0  0
 79 84  1  0  0  0
 79163  1  0  0  0
 79164  1  0  0  0
 80 82  1  0  0  0
 80165  1  0  0  0
 80166  1  0  0  0
 81 85  1  0  0  0
 81167  1  0  0  0
 81168  1  0  0  0
 82 86  1  0  0  0
 82169  1  0  0  0
 82170  1  0  0  0
 83 85  1  0  0  0
 83 88  1  0  0  0
 83171  1  0  0  0
 83172  1  0  0  0
 84173  1  0  0  0
 87174  1  0  0  0
 88175  1  0  0  0
M  CHG  1  87   1
M  ISO  4   1 100  68 101  84 101  88 100
M  END
> <chiral flag>
0

> <version>
0

> <s_m_source_file>
/data/baiqing/PycharmProjects/Reinvent-master-3.2/result/LINK_invent/BTK/process_docking_weight1_custom_sum_contain_oxygen_bond_distance_aromatic_linkinvent_7_9_3/rearranged_h_0074.sdf

> <i_m_source_file_index>
67

> <r_mmod_Potential_Energy-OPLS-2005>
-123.321388244629

> <r_mmod_Stretch_Energy-OPLS-2005>
37.8384246826172

> <r_mmod_Bend_Energy-OPLS-2005>
105.671890258789

> <r_mmod_Torsional_Energy-OPLS-2005>
270.105529785156

> <r_mmod_Improper_Torsional_Energy-OPLS-2005>
3.33115482330322

> <r_mmod_Van_der_Waal_Energy-OPLS-2005>
125.948135375977

> <r_mmod_Electrostatic_Energy-OPLS-2005>
-271.256072998047

> <r_mmod_Solvation_Energy-OPLS-2005>
-402.447937011719

> <b_mmod_Minimization_Converged-OPLS-2005>
0

> <r_mmod_RMS_Derivative-OPLS-2005>
3.22935247421265

$$$$
67
                    3D
 Structure written by MMmdl.
164172  0  0  1  0            999 V2000
  -30.6616  -14.8035   20.3293 C   0  0  0  0  0  0
  -30.4325  -12.4819   19.4563 C   0  0  0  0  0  0
  -29.5000  -12.4319   18.2271 C   0  0  0  0  0  0
  -28.0273  -12.2564   18.6566 C   0  0  0  0  0  0
  -27.6147  -13.1974   19.8167 C   0  0  2  0  0  0
  -28.6828  -13.2565   20.9294 C   0  0  0  0  0  0
  -25.2449  -13.8082   20.5800 C   0  0  0  0  0  0
  -24.1740  -13.0366   20.9347 C   0  0  0  0  0  0
  -24.6294  -11.6838   20.8858 C   0  0  0  0  0  0
  -23.8975  -10.4233   21.0462 C   0  0  0  0  0  0
  -24.3537   -9.4126   21.9199 C   0  0  0  0  0  0
  -23.6197   -8.2171   22.0752 C   0  0  0  0  0  0
  -22.4183   -8.0241   21.3529 C   0  0  0  0  0  0
  -21.9841   -9.0224   20.4634 C   0  0  0  0  0  0
  -22.7183  -10.2096   20.3053 C   0  0  0  0  0  0
  -21.6825   -6.0720   22.5275 C   0  0  0  0  0  0
  -21.4019   -6.5623   23.8223 C   0  0  0  0  0  0
  -21.3649   -5.6762   24.9166 C   0  0  0  0  0  0
  -21.6023   -4.3023   24.7214 C   0  0  0  0  0  0
  -21.8807   -3.8129   23.4327 C   0  0  0  0  0  0
  -21.9186   -4.6949   22.3395 C   0  0  0  0  0  0
  -22.7763  -13.5176   21.1962 C   0  0  0  0  0  0
  -22.1621   -4.2150   21.0959 F   0  0  0  0  0  0
  -21.5617   -3.4503   25.7721 F   0  0  0  0  0  0
  -29.9712  -13.6031   20.3100 N   0  0  0  0  0  0
  -26.2803  -12.9198   20.3274 N   0  0  0  0  0  0
  -25.9197  -11.6395   20.5821 N   0  0  0  0  0  0
  -22.0377  -12.8209   22.0528 N   0  0  0  0  0  0
  -25.4122  -15.1812   20.4179 N   0  0  0  0  0  0
  -31.8906  -14.7093   20.3325 O   0  0  0  0  0  0
  -21.6521   -6.8863   21.4247 O   0  0  0  0  0  0
  -22.3454  -14.5467   20.6765 O   0  0  0  0  0  0
  -24.6300  -31.8552   23.1973 C   0  0  0  0  0  0
  -25.9133  -32.4740   23.8325 C   0  0  1  0  0  0
  -27.2347  -27.2944   20.1001 C   0  0  0  0  0  0
  -25.5932  -33.8537   24.2252 N   0  0  0  0  0  0
  -23.4260  -30.4761   21.5387 C   0  0  2  0  0  0
  -24.8698  -28.9176   20.1127 C   0  0  0  0  0  0
  -22.7488  -29.4601   22.4909 C   0  0  0  0  0  0
  -18.0286  -28.1370   22.8479 C   0  0  0  0  0  0
  -24.1482  -36.7285   23.2651 C   0  0  0  0  0  0
  -25.9677  -30.7740   21.3730 C   0  0  0  0  0  0
  -26.0389  -29.3968   20.7169 C   0  0  0  0  0  0
  -27.2178  -28.5945   20.7042 C   0  0  0  0  0  0
  -26.0363  -26.8613   19.4925 C   0  0  0  0  0  0
  -24.8713  -27.6557   19.4947 C   0  0  0  0  0  0
  -23.6423  -29.8046   20.1570 C   0  0  0  0  0  0
  -25.4103  -36.3053   24.0338 C   0  0  1  0  0  0
  -20.5899  -28.3671   23.1254 C   0  0  2  0  0  0
  -20.6764  -26.9392   22.5385 C   0  0  0  0  0  0
  -19.5737  -26.6356   21.5190 C   0  0  0  0  0  0
  -18.1923  -26.7907   22.1620 C   0  0  0  0  0  0
  -19.1550  -28.8833   23.2866 C   0  0  0  0  0  0
  -18.9478  -30.1438   23.8880 C   0  0  0  0  0  0
  -17.6485  -30.6571   24.0559 C   0  0  0  0  0  0
  -25.9044  -34.9431   23.5094 C   0  0  0  0  0  0
  -16.5366  -29.9084   23.6328 C   0  0  0  0  0  0
  -16.7280  -28.6501   23.0348 C   0  0  0  0  0  0
  -26.4514  -31.6578   25.0722 C   0  0  0  0  0  0
  -25.3768  -31.3724   26.1476 C   0  0  0  0  0  0
  -27.0388  -30.3010   24.6197 C   0  0  0  0  0  0
  -27.6060  -32.4331   25.7498 C   0  0  0  0  0  0
  -27.5568  -37.1790   24.8469 C   0  0  0  0  0  0
  -21.4205  -29.3043   22.3660 N   0  0  0  0  0  0
  -26.4265  -37.3763   23.9429 N   0  0  0  0  0  0
  -24.6938  -31.0537   22.0923 N   0  0  0  0  0  0
  -23.4205  -28.8163   23.3016 O   0  0  0  0  0  0
  -28.3804  -26.4774   20.1558 O   0  0  0  0  0  0
  -26.5627  -34.8914   22.4667 O   0  0  0  0  0  0
  -23.5454  -32.1350   23.7281 O   0  0  0  0  0  0
  -27.4311  -18.5954   20.4865 C   0  0  0  0  0  0
  -26.6585  -19.7165   20.1840 C   0  0  0  0  0  0
  -28.8319  -18.7095   20.5326 C   0  0  0  0  0  0
  -28.5285  -21.0178   19.9718 C   0  0  0  0  0  0
  -28.8861  -16.7182   22.1199 C   0  0  0  0  0  0
  -30.9415  -17.9654   21.7726 C   0  0  0  0  0  0
  -28.9364  -16.1893   18.8822 C   0  0  0  0  0  0
  -31.2315  -16.9360   19.0316 C   0  0  0  0  0  0
  -29.0164  -22.4422   19.4995 C   0  0  0  0  0  0
  -28.4918  -23.7672   20.2541 C   0  0  0  0  0  0
  -28.5192  -25.1655   19.4643 C   0  0  0  0  0  0
  -29.7013  -17.4352   21.0140 C   0  0  0  0  0  0
  -30.0925  -16.2963   19.8993 C   0  0  0  0  0  0
  -27.2096  -20.9095   19.9321 N   0  0  0  0  0  0
  -29.3640  -19.9614   20.2395 N   0  0  0  0  0  0
  -31.4675  -12.6018   19.1304 H   0  0  0  0  0  0
  -30.4090  -11.5410   20.0092 H   0  0  0  0  0  0
  -29.7882  -11.6002   17.5833 H   0  0  0  0  0  0
  -29.6166  -13.3297   17.6235 H   0  0  0  0  0  0
  -27.9092  -11.2192   18.9712 H   0  0  0  0  0  0
  -27.3577  -12.3838   17.8040 H   0  0  0  0  0  0
  -27.5330  -14.1593   19.3447 H   0  0  0  0  0  0
  -28.7615  -12.2913   21.4331 H   0  0  0  0  0  0
  -28.4152  -13.9762   21.7019 H   0  0  0  0  0  0
  -25.2720   -9.5563   22.4700 H   0  0  0  0  0  0
  -23.9918   -7.4543   22.7432 H   0  0  0  0  0  0
  -21.0796   -8.8736   19.8920 H   0  0  0  0  0  0
  -22.3697  -10.9593   19.6100 H   0  0  0  0  0  0
  -21.2008   -7.6131   23.9744 H   0  0  0  0  0  0
  -21.1478   -6.0468   25.9076 H   0  0  0  0  0  0
  -22.0602   -2.7594   23.2800 H   0  0  0  0  0  0
  -22.3958  -11.9924   22.5046 H   0  0  0  0  0  0
  -21.0979  -13.1239   22.2617 H   0  0  0  0  0  0
  -24.6364  -15.8264   20.5186 H   0  0  0  0  0  0
  -26.2338  -15.6069   20.0137 H   0  0  0  0  0  0
  -26.7206  -32.5392   23.1081 H   0  0  0  0  0  0
  -25.0095  -33.9682   25.0410 H   0  0  0  0  0  0
  -22.7215  -31.2976   21.3871 H   0  0  0  0  0  0
  -23.3731  -35.9630   23.3296 H   0  0  0  0  0  0
  -24.3576  -36.8918   22.2067 H   0  0  0  0  0  0
  -23.7238  -37.6485   23.6681 H   0  0  0  0  0  0
  -26.1074  -31.5304   20.5989 H   0  0  0  0  0  0
  -26.8474  -30.8224   22.0043 H   0  0  0  0  0  0
  -28.1174  -28.9549   21.1840 H   0  0  0  0  0  0
  -25.9594  -25.8889   19.0292 H   0  0  0  0  0  0
  -23.9758  -27.2802   19.0189 H   0  0  0  0  0  0
  -23.7772  -30.5764   19.3980 H   0  0  0  0  0  0
  -22.7607  -29.2411   19.8459 H   0  0  0  0  0  0
  -25.1272  -36.1898   25.0825 H   0  0  0  0  0  0
  -20.9986  -28.3245   24.1378 H   0  0  0  0  0  0
  -20.5593  -26.2304   23.3600 H   0  0  0  0  0  0
  -21.6633  -26.7366   22.1209 H   0  0  0  0  0  0
  -19.6894  -25.6260   21.1234 H   0  0  0  0  0  0
  -19.6661  -27.3151   20.6704 H   0  0  0  0  0  0
  -17.4179  -26.6644   21.4036 H   0  0  0  0  0  0
  -18.0343  -26.0044   22.9007 H   0  0  0  0  0  0
  -19.7965  -30.7242   24.2243 H   0  0  0  0  0  0
  -17.5055  -31.6245   24.5181 H   0  0  0  0  0  0
  -15.5377  -30.2994   23.7644 H   0  0  0  0  0  0
  -15.8681  -28.0812   22.7075 H   0  0  0  0  0  0
  -24.5932  -30.7065   25.7847 H   0  0  0  0  0  0
  -24.8985  -32.2890   26.4927 H   0  0  0  0  0  0
  -25.8133  -30.8913   27.0238 H   0  0  0  0  0  0
  -26.2975  -29.6725   24.1245 H   0  0  0  0  0  0
  -27.4125  -29.7296   25.4701 H   0  0  0  0  0  0
  -27.8815  -30.4315   23.9410 H   0  0  0  0  0  0
  -27.2659  -33.3636   26.2056 H   0  0  0  0  0  0
  -28.3889  -32.6878   25.0343 H   0  0  0  0  0  0
  -28.0715  -31.8476   26.5437 H   0  0  0  0  0  0
  -28.2569  -38.0102   24.7507 H   0  0  0  0  0  0
  -28.1071  -36.2623   24.6273 H   0  0  0  0  0  0
  -27.2306  -37.1420   25.8881 H   0  0  0  0  0  0
  -20.9383  -29.8832   21.6925 H   0  0  0  0  0  0
  -26.0138  -38.2835   24.1422 H   0  0  0  0  0  0
  -26.9096  -17.6771   20.7007 H   0  0  0  0  0  0
  -25.5808  -19.6577   20.1503 H   0  0  0  0  0  0
  -29.4862  -15.9875   22.6627 H   0  0  0  0  0  0
  -28.0242  -16.1903   21.7212 H   0  0  0  0  0  0
  -28.5087  -17.4309   22.8556 H   0  0  0  0  0  0
  -30.6426  -18.5809   22.6230 H   0  0  0  0  0  0
  -31.5692  -18.5922   21.1393 H   0  0  0  0  0  0
  -31.5605  -17.1569   22.1600 H   0  0  0  0  0  0
  -28.8736  -17.0618   18.2298 H   0  0  0  0  0  0
  -27.9738  -16.1410   19.3783 H   0  0  0  0  0  0
  -29.0454  -15.3353   18.2192 H   0  0  0  0  0  0
  -30.9573  -17.9206   18.6515 H   0  0  0  0  0  0
  -31.4724  -16.3211   18.1635 H   0  0  0  0  0  0
  -32.1675  -17.0720   19.5777 H   0  0  0  0  0  0
  -28.6940  -22.5160   18.4583 H   0  0  0  0  0  0
  -30.1038  -22.4525   19.4432 H   0  0  0  0  0  0
  -29.0586  -23.8600   21.1804 H   0  0  0  0  0  0
  -27.4605  -23.5932   20.5631 H   0  0  0  0  0  0
  -27.8589  -25.1043   18.6015 H   0  0  0  0  0  0
  -29.5071  -25.2268   19.0110 H   0  0  0  0  0  0
  1 25  1  0  0  0
  1 30  2  0  0  0
  1 83  1  0  0  0
  2  3  1  0  0  0
  2 25  1  0  0  0
  2 86  1  0  0  0
  2 87  1  0  0  0
  3  4  1  0  0  0
  3 88  1  0  0  0
  3 89  1  0  0  0
  4  5  1  0  0  0
  4 90  1  0  0  0
  4 91  1  0  0  0
  5  6  1  0  0  0
  5 26  1  0  0  0
  5 92  1  0  0  0
  6 25  1  0  0  0
  6 93  1  0  0  0
  6 94  1  0  0  0
  7  8  2  0  0  0
  7 26  1  0  0  0
  7 29  1  0  0  0
  8  9  1  0  0  0
  8 22  1  0  0  0
  9 10  1  0  0  0
  9 27  2  0  0  0
 10 11  2  0  0  0
 10 15  1  0  0  0
 11 12  1  0  0  0
 11 95  1  0  0  0
 12 13  2  0  0  0
 12 96  1  0  0  0
 13 14  1  0  0  0
 13 31  1  0  0  0
 14 15  2  0  0  0
 14 97  1  0  0  0
 15 98  1  0  0  0
 16 17  2  0  0  0
 16 21  1  0  0  0
 16 31  1  0  0  0
 17 18  1  0  0  0
 17 99  1  0  0  0
 18 19  2  0  0  0
 18100  1  0  0  0
 19 20  1  0  0  0
 19 24  1  0  0  0
 20 21  2  0  0  0
 20101  1  0  0  0
 21 23  1  0  0  0
 22 28  1  0  0  0
 22 32  2  0  0  0
 26 27  1  0  0  0
 28102  1  0  0  0
 28103  1  0  0  0
 29104  1  0  0  0
 29105  1  0  0  0
 33 34  1  0  0  0
 33 66  1  0  0  0
 33 70  2  0  0  0
 34 36  1  0  0  0
 34 59  1  0  0  0
 34106  1  0  0  0
 35 44  2  0  0  0
 35 45  1  0  0  0
 35 68  1  0  0  0
 36 56  1  0  0  0
 36107  1  0  0  0
 37 39  1  0  0  0
 37 47  1  0  0  0
 37 66  1  0  0  0
 37108  1  0  0  0
 38 43  2  0  0  0
 38 46  1  0  0  0
 38 47  1  0  0  0
 39 64  1  0  0  0
 39 67  2  0  0  0
 40 52  1  0  0  0
 40 53  2  0  0  0
 40 58  1  0  0  0
 41109  1  0  0  0
 41110  1  0  0  0
 41111  1  0  0  0
 41 48  1  0  0  0
 42 43  1  0  0  0
 42 66  1  0  0  0
 42112  1  0  0  0
 42113  1  0  0  0
 43 44  1  0  0  0
 44114  1  0  0  0
 45 46  2  0  0  0
 45115  1  0  0  0
 46116  1  0  0  0
 47117  1  0  0  0
 47118  1  0  0  0
 48 56  1  0  0  0
 48 65  1  0  0  0
 48119  1  0  0  0
 49 50  1  0  0  0
 49 53  1  0  0  0
 49 64  1  0  0  0
 49120  1  0  0  0
 50 51  1  0  0  0
 50121  1  0  0  0
 50122  1  0  0  0
 51 52  1  0  0  0
 51123  1  0  0  0
 51124  1  0  0  0
 52125  1  0  0  0
 52126  1  0  0  0
 53 54  1  0  0  0
 54 55  2  0  0  0
 54127  1  0  0  0
 55 57  1  0  0  0
 55128  1  0  0  0
 56 69  2  0  0  0
 57 58  2  0  0  0
 57129  1  0  0  0
 58130  1  0  0  0
 59 60  1  0  0  0
 59 61  1  0  0  0
 59 62  1  0  0  0
 60131  1  0  0  0
 60132  1  0  0  0
 60133  1  0  0  0
 61134  1  0  0  0
 61135  1  0  0  0
 61136  1  0  0  0
 62137  1  0  0  0
 62138  1  0  0  0
 62139  1  0  0  0
 63 65  1  0  0  0
 63140  1  0  0  0
 63141  1  0  0  0
 63142  1  0  0  0
 64143  1  0  0  0
 65144  1  0  0  0
 68 81  1  0  0  0
 71 72  2  0  0  0
 71 73  1  0  0  0
 71145  1  0  0  0
 72 84  1  0  0  0
 72146  1  0  0  0
 73 82  1  0  0  0
 73 85  2  0  0  0
 74 79  1  0  0  0
 74 84  2  0  0  0
 74 85  1  0  0  0
 75147  1  0  0  0
 75148  1  0  0  0
 75149  1  0  0  0
 75 82  1  0  0  0
 76 82  1  0  0  0
 76150  1  0  0  0
 76151  1  0  0  0
 76152  1  0  0  0
 77153  1  0  0  0
 77154  1  0  0  0
 77155  1  0  0  0
 77 83  1  0  0  0
 78 83  1  0  0  0
 78156  1  0  0  0
 78157  1  0  0  0
 78158  1  0  0  0
 79 80  1  0  0  0
 79159  1  0  0  0
 79160  1  0  0  0
 80 81  1  0  0  0
 80161  1  0  0  0
 80162  1  0  0  0
 81163  1  0  0  0
 81164  1  0  0  0
 82 83  1  0  0  0
M  ISO  4   1 100  68 101  81 101  83 100
M  END
> <chiral flag>
0

> <version>
0

> <s_m_source_file>
/data/baiqing/PycharmProjects/Reinvent-master-3.2/result/LINK_invent/BTK/process_docking_weight1_custom_sum_contain_oxygen_bond_distance_aromatic_linkinvent_7_9_3/rearranged_h_0074.sdf

> <i_m_source_file_index>
68

> <r_mmod_Potential_Energy-OPLS-2005>
-150.278289794922

> <r_mmod_Stretch_Energy-OPLS-2005>
136.863403320312

> <r_mmod_Bend_Energy-OPLS-2005>
218.603042602539

> <r_mmod_Torsional_Energy-OPLS-2005>
206.038848876953

> <r_mmod_Improper_Torsional_Energy-OPLS-2005>
12.7756567001343

> <r_mmod_Van_der_Waal_Energy-OPLS-2005>
168.200698852539

> <r_mmod_Electrostatic_Energy-OPLS-2005>
-792.931030273438

> <r_mmod_Solvation_Energy-OPLS-2005>
-207.555908203125

> <b_mmod_Minimization_Converged-OPLS-2005>
0

> <r_mmod_RMS_Derivative-OPLS-2005>
3.91750001907349

$$$$
68
                    3D
 Structure written by MMmdl.
180188  0  0  1  0            999 V2000
  -30.7527  -14.4585   20.5700 C   0  0  0  0  0  0
  -30.4040  -12.3004   19.4404 C   0  0  0  0  0  0
  -29.4824  -12.4705   18.2147 C   0  0  0  0  0  0
  -28.0042  -12.3326   18.6251 C   0  0  0  0  0  0
  -27.6417  -13.2045   19.8565 C   0  0  2  0  0  0
  -28.6883  -13.0497   20.9852 C   0  0  0  0  0  0
  -25.2489  -13.8113   20.5689 C   0  0  0  0  0  0
  -24.1768  -13.0395   20.9207 C   0  0  0  0  0  0
  -24.6330  -11.6856   20.8734 C   0  0  0  0  0  0
  -23.9013  -10.4272   21.0372 C   0  0  0  0  0  0
  -24.3551   -9.4198   21.9168 C   0  0  0  0  0  0
  -23.6271   -8.2216   22.0762 C   0  0  0  0  0  0
  -22.4266   -8.0250   21.3566 C   0  0  0  0  0  0
  -21.9879   -9.0188   20.4656 C   0  0  0  0  0  0
  -22.7171  -10.2081   20.3056 C   0  0  0  0  0  0
  -21.6826   -6.0716   22.5268 C   0  0  0  0  0  0
  -21.3992   -6.5614   23.8192 C   0  0  0  0  0  0
  -21.3672   -5.6769   24.9164 C   0  0  0  0  0  0
  -21.6057   -4.3045   24.7192 C   0  0  0  0  0  0
  -21.8831   -3.8135   23.4313 C   0  0  0  0  0  0
  -21.9190   -4.6956   22.3382 C   0  0  0  0  0  0
  -22.7797  -13.5202   21.1872 C   0  0  0  0  0  0
  -22.1674   -4.2124   21.0955 F   0  0  0  0  0  0
  -21.5648   -3.4542   25.7721 F   0  0  0  0  0  0
  -30.0202  -13.3210   20.4324 N   0  0  0  0  0  0
  -26.2897  -12.9285   20.3347 N   0  0  0  0  0  0
  -25.9237  -11.6442   20.5718 N   0  0  0  0  0  0
  -22.0479  -12.8177   22.0452 N   0  0  0  0  0  0
  -25.4200  -15.1820   20.4085 N   0  0  0  0  0  0
  -31.9181  -14.5264   20.1660 O   0  0  0  0  0  0
  -21.6658   -6.8832   21.4238 O   0  0  0  0  0  0
  -22.3505  -14.5526   20.6752 O   0  0  0  0  0  0
  -24.6215  -31.8669   23.2208 C   0  0  0  0  0  0
  -25.9194  -32.4761   23.8442 C   0  0  1  0  0  0
  -27.2219  -27.4630   20.0842 C   0  0  0  0  0  0
  -25.6177  -33.8561   24.2444 N   0  0  0  0  0  0
  -23.3971  -30.5092   21.5509 C   0  0  2  0  0  0
  -24.8352  -28.9834   20.1085 C   0  0  0  0  0  0
  -22.7363  -29.4769   22.4917 C   0  0  0  0  0  0
  -18.0315  -28.1434   22.8563 C   0  0  0  0  0  0
  -24.1524  -36.7147   23.2632 C   0  0  0  0  0  0
  -25.9232  -30.8468   21.3639 C   0  0  0  0  0  0
  -25.9934  -29.4827   20.7169 C   0  0  0  0  0  0
  -27.1804  -28.7187   20.7276 C   0  0  0  0  0  0
  -26.0493  -26.9943   19.4536 C   0  0  0  0  0  0
  -24.8519  -27.7315   19.4808 C   0  0  0  0  0  0
  -23.5982  -29.8511   20.1636 C   0  0  0  0  0  0
  -25.4132  -36.2983   24.0349 C   0  0  1  0  0  0
  -20.5912  -28.3677   23.1258 C   0  0  2  0  0  0
  -20.6810  -26.9373   22.5421 C   0  0  0  0  0  0
  -19.5680  -26.6248   21.5426 C   0  0  0  0  0  0
  -18.1918  -26.7846   22.1950 C   0  0  0  0  0  0
  -19.1568  -28.8876   23.2883 C   0  0  0  0  0  0
  -18.9518  -30.1500   23.8865 C   0  0  0  0  0  0
  -17.6506  -30.6607   24.0658 C   0  0  0  0  0  0
  -25.9070  -34.9397   23.5119 C   0  0  0  0  0  0
  -16.5422  -29.9156   23.6351 C   0  0  0  0  0  0
  -16.7324  -28.6607   23.0315 C   0  0  0  0  0  0
  -26.4611  -31.6506   25.0736 C   0  0  0  0  0  0
  -25.3851  -31.3573   26.1449 C   0  0  0  0  0  0
  -27.0539  -30.3010   24.6033 C   0  0  0  0  0  0
  -27.6143  -32.4195   25.7583 C   0  0  0  0  0  0
  -27.5558  -37.1711   24.8470 C   0  0  0  0  0  0
  -21.4106  -29.3040   22.3627 N   0  0  0  0  0  0
  -26.4282  -37.3689   23.9408 N   0  0  0  0  0  0
  -24.6631  -31.0876   22.1044 N   0  0  0  0  0  0
  -23.4144  -28.8264   23.2886 O   0  0  0  0  0  0
  -28.4093  -26.7568   20.0871 O   0  0  0  0  0  0
  -26.5441  -34.8869   22.4538 O   0  0  0  0  0  0
  -23.5449  -32.1469   23.7718 O   0  0  0  0  0  0
  -29.4368  -16.3496   19.9464 C   0  0  0  0  0  0
  -30.0754  -15.7011   20.9524 C   0  0  0  0  0  0
  -30.6715  -16.5462   21.9832 C   0  0  0  0  0  0
  -30.5748  -18.3533   20.5013 C   0  0  0  0  0  0
  -30.5042  -16.4516   23.3260 C   0  0  0  0  0  0
  -30.9997  -19.7638   20.2240 C   0  0  0  0  0  0
  -29.7134  -15.3426   23.9896 C   0  0  0  0  0  0
  -29.8734  -18.6965   24.3352 C   0  0  0  0  0  0
  -26.3255  -20.4711   18.3718 C   0  0  0  0  0  0
  -26.1667  -21.2583   20.7533 C   0  0  0  0  0  0
  -30.9289  -17.5677   24.2830 C   0  0  0  0  0  0
  -27.8720  -23.1555   18.8680 C   0  0  0  0  0  0
  -27.8698  -24.3237   19.8806 C   0  0  0  0  0  0
  -28.2609  -21.7793   19.4656 C   0  0  0  0  0  0
  -27.7279  -19.3985   20.1605 C   0  0  0  0  0  0
  -28.5390  -18.5542   19.1391 C   0  0  0  0  0  0
  -28.5201  -25.5912   19.2756 C   0  0  0  0  0  0
  -27.1252  -20.7391   19.6647 C   0  0  0  0  0  0
  -29.5316  -17.7472   19.8690 N   0  0  0  0  0  0
  -31.2195  -17.7177   21.4959 N   0  3  0  0  0  0
  -31.4458  -12.3777   19.1246 H   0  0  0  0  0  0
  -30.3031  -11.3052   19.8731 H   0  0  0  0  0  0
  -29.7331  -11.7221   17.4643 H   0  0  0  0  0  0
  -29.6506  -13.4432   17.7465 H   0  0  0  0  0  0
  -27.8261  -11.2798   18.8519 H   0  0  0  0  0  0
  -27.3555  -12.5806   17.7860 H   0  0  0  0  0  0
  -27.6564  -14.2387   19.5157 H   0  0  0  0  0  0
  -28.6628  -12.0403   21.3989 H   0  0  0  0  0  0
  -28.4377  -13.7149   21.8047 H   0  0  0  0  0  0
  -25.2710   -9.5677   22.4740 H   0  0  0  0  0  0
  -23.9994   -7.4619   22.7451 H   0  0  0  0  0  0
  -21.0844   -8.8625   19.8952 H   0  0  0  0  0  0
  -22.3597  -10.9574   19.6144 H   0  0  0  0  0  0
  -21.1990   -7.6129   23.9660 H   0  0  0  0  0  0
  -21.1493   -6.0525   25.9032 H   0  0  0  0  0  0
  -22.0617   -2.7604   23.2801 H   0  0  0  0  0  0
  -22.4181  -11.9888   22.4827 H   0  0  0  0  0  0
  -21.1077  -13.1084   22.2676 H   0  0  0  0  0  0
  -24.6414  -15.8239   20.5164 H   0  0  0  0  0  0
  -26.2706  -15.6366   20.1091 H   0  0  0  0  0  0
  -26.7324  -32.5534   23.1266 H   0  0  0  0  0  0
  -25.0723  -33.9703   25.0884 H   0  0  0  0  0  0
  -22.6892  -31.3255   21.4084 H   0  0  0  0  0  0
  -23.3786  -35.9475   23.3296 H   0  0  0  0  0  0
  -24.3642  -36.8720   22.2035 H   0  0  0  0  0  0
  -23.7270  -37.6378   23.6615 H   0  0  0  0  0  0
  -26.0516  -31.6160   20.6067 H   0  0  0  0  0  0
  -26.8145  -30.9033   21.9738 H   0  0  0  0  0  0
  -28.0778  -29.1004   21.2023 H   0  0  0  0  0  0
  -26.0406  -26.0709   18.9026 H   0  0  0  0  0  0
  -23.9684  -27.3476   18.9913 H   0  0  0  0  0  0
  -23.7208  -30.6312   19.4110 H   0  0  0  0  0  0
  -22.7131  -29.2927   19.8604 H   0  0  0  0  0  0
  -25.1330  -36.1769   25.0834 H   0  0  0  0  0  0
  -21.0123  -28.3240   24.1361 H   0  0  0  0  0  0
  -20.6013  -26.2287   23.3668 H   0  0  0  0  0  0
  -21.6591  -26.7503   22.1024 H   0  0  0  0  0  0
  -19.6804  -25.6106   21.1602 H   0  0  0  0  0  0
  -19.6481  -27.2866   20.6781 H   0  0  0  0  0  0
  -17.4108  -26.6396   21.4429 H   0  0  0  0  0  0
  -18.0417  -26.0133   22.9540 H   0  0  0  0  0  0
  -19.7960  -30.7306   24.2277 H   0  0  0  0  0  0
  -17.5063  -31.6248   24.5336 H   0  0  0  0  0  0
  -15.5396  -30.3046   23.7686 H   0  0  0  0  0  0
  -15.8702  -28.0947   22.6977 H   0  0  0  0  0  0
  -24.6002  -30.6973   25.7761 H   0  0  0  0  0  0
  -24.9130  -32.2749   26.4975 H   0  0  0  0  0  0
  -25.8233  -30.8616   27.0120 H   0  0  0  0  0  0
  -26.3156  -29.6582   24.1224 H   0  0  0  0  0  0
  -27.4671  -29.7383   25.4429 H   0  0  0  0  0  0
  -27.8791  -30.4488   23.9032 H   0  0  0  0  0  0
  -27.2775  -33.3455   26.2233 H   0  0  0  0  0  0
  -28.4052  -32.6755   25.0515 H   0  0  0  0  0  0
  -28.0711  -31.8235   26.5501 H   0  0  0  0  0  0
  -28.2585  -37.9994   24.7503 H   0  0  0  0  0  0
  -28.1045  -36.2514   24.6338 H   0  0  0  0  0  0
  -27.2249  -37.1419   25.8869 H   0  0  0  0  0  0
  -20.9214  -29.8704   21.6783 H   0  0  0  0  0  0
  -26.0104  -38.2766   24.1305 H   0  0  0  0  0  0
  -29.2029  -15.8869   18.9996 H   0  0  0  0  0  0
  -30.4073  -20.4527   20.8242 H   0  0  0  0  0  0
  -30.9003  -20.0255   19.1695 H   0  0  0  0  0  0
  -32.0448  -19.9124   20.4957 H   0  0  0  0  0  0
  -30.3498  -14.4806   24.2051 H   0  0  0  0  0  0
  -29.2614  -15.6741   24.9258 H   0  0  0  0  0  0
  -28.8784  -15.0491   23.3609 H   0  0  0  0  0  0
  -29.7718  -19.2049   23.3769 H   0  0  0  0  0  0
  -30.1115  -19.4601   25.0796 H   0  0  0  0  0  0
  -28.8879  -18.3002   24.5890 H   0  0  0  0  0  0
  -26.9906  -20.2746   17.5272 H   0  0  0  0  0  0
  -25.6928  -21.3097   18.0908 H   0  0  0  0  0  0
  -25.6683  -19.6054   18.4880 H   0  0  0  0  0  0
  -25.7593  -22.2317   20.4827 H   0  0  0  0  0  0
  -26.6814  -21.3825   21.7112 H   0  0  0  0  0  0
  -25.3302  -20.5819   20.9244 H   0  0  0  0  0  0
  -31.8984  -17.9709   23.9946 H   0  0  0  0  0  0
  -31.0880  -17.1724   25.2847 H   0  0  0  0  0  0
  -28.6121  -23.3686   18.0949 H   0  0  0  0  0  0
  -26.9243  -23.1357   18.3258 H   0  0  0  0  0  0
  -28.3924  -24.0689   20.8021 H   0  0  0  0  0  0
  -26.8369  -24.5035   20.1910 H   0  0  0  0  0  0
  -28.7718  -21.9320   20.4206 H   0  0  0  0  0  0
  -29.0157  -21.3557   18.8073 H   0  0  0  0  0  0
  -28.3181  -19.5764   21.0641 H   0  0  0  0  0  0
  -26.9006  -18.7644   20.4946 H   0  0  0  0  0  0
  -29.0473  -19.1664   18.4013 H   0  0  0  0  0  0
  -27.8637  -17.9189   18.5695 H   0  0  0  0  0  0
  -28.1412  -25.7918   18.2761 H   0  0  0  0  0  0
  -29.5866  -25.3920   19.1335 H   0  0  0  0  0  0
  -31.9517  -18.2434   21.9507 H   0  0  0  0  0  0
  1 25  1  0  0  0
  1 30  2  0  0  0
  1 72  1  0  0  0
  2  3  1  0  0  0
  2 25  1  0  0  0
  2 91  1  0  0  0
  2 92  1  0  0  0
  3  4  1  0  0  0
  3 93  1  0  0  0
  3 94  1  0  0  0
  4  5  1  0  0  0
  4 95  1  0  0  0
  4 96  1  0  0  0
  5  6  1  0  0  0
  5 26  1  0  0  0
  5 97  1  0  0  0
  6 25  1  0  0  0
  6 98  1  0  0  0
  6 99  1  0  0  0
  7  8  2  0  0  0
  7 26  1  0  0  0
  7 29  1  0  0  0
  8  9  1  0  0  0
  8 22  1  0  0  0
  9 10  1  0  0  0
  9 27  2  0  0  0
 10 11  2  0  0  0
 10 15  1  0  0  0
 11 12  1  0  0  0
 11100  1  0  0  0
 12 13  2  0  0  0
 12101  1  0  0  0
 13 14  1  0  0  0
 13 31  1  0  0  0
 14 15  2  0  0  0
 14102  1  0  0  0
 15103  1  0  0  0
 16 17  2  0  0  0
 16 21  1  0  0  0
 16 31  1  0  0  0
 17 18  1  0  0  0
 17104  1  0  0  0
 18 19  2  0  0  0
 18105  1  0  0  0
 19 20  1  0  0  0
 19 24  1  0  0  0
 20 21  2  0  0  0
 20106  1  0  0  0
 21 23  1  0  0  0
 22 28  1  0  0  0
 22 32  2  0  0  0
 26 27  1  0  0  0
 28107  1  0  0  0
 28108  1  0  0  0
 29109  1  0  0  0
 29110  1  0  0  0
 33 34  1  0  0  0
 33 66  1  0  0  0
 33 70  2  0  0  0
 34 36  1  0  0  0
 34 59  1  0  0  0
 34111  1  0  0  0
 35 44  2  0  0  0
 35 45  1  0  0  0
 35 68  1  0  0  0
 36 56  1  0  0  0
 36112  1  0  0  0
 37 39  1  0  0  0
 37 47  1  0  0  0
 37 66  1  0  0  0
 37113  1  0  0  0
 38 43  2  0  0  0
 38 46  1  0  0  0
 38 47  1  0  0  0
 39 64  1  0  0  0
 39 67  2  0  0  0
 40 52  1  0  0  0
 40 53  2  0  0  0
 40 58  1  0  0  0
 41114  1  0  0  0
 41115  1  0  0  0
 41116  1  0  0  0
 41 48  1  0  0  0
 42 43  1  0  0  0
 42 66  1  0  0  0
 42117  1  0  0  0
 42118  1  0  0  0
 43 44  1  0  0  0
 44119  1  0  0  0
 45 46  2  0  0  0
 45120  1  0  0  0
 46121  1  0  0  0
 47122  1  0  0  0
 47123  1  0  0  0
 48 56  1  0  0  0
 48 65  1  0  0  0
 48124  1  0  0  0
 49 50  1  0  0  0
 49 53  1  0  0  0
 49 64  1  0  0  0
 49125  1  0  0  0
 50 51  1  0  0  0
 50126  1  0  0  0
 50127  1  0  0  0
 51 52  1  0  0  0
 51128  1  0  0  0
 51129  1  0  0  0
 52130  1  0  0  0
 52131  1  0  0  0
 53 54  1  0  0  0
 54 55  2  0  0  0
 54132  1  0  0  0
 55 57  1  0  0  0
 55133  1  0  0  0
 56 69  2  0  0  0
 57 58  2  0  0  0
 57134  1  0  0  0
 58135  1  0  0  0
 59 60  1  0  0  0
 59 61  1  0  0  0
 59 62  1  0  0  0
 60136  1  0  0  0
 60137  1  0  0  0
 60138  1  0  0  0
 61139  1  0  0  0
 61140  1  0  0  0
 61141  1  0  0  0
 62142  1  0  0  0
 62143  1  0  0  0
 62144  1  0  0  0
 63 65  1  0  0  0
 63145  1  0  0  0
 63146  1  0  0  0
 63147  1  0  0  0
 64148  1  0  0  0
 65149  1  0  0  0
 68 87  1  0  0  0
 71 72  2  0  0  0
 71 89  1  0  0  0
 71150  1  0  0  0
 72 73  1  0  0  0
 73 75  2  0  0  0
 73 90  1  0  0  0
 74 76  1  0  0  0
 74 89  1  0  0  0
 74 90  2  0  0  0
 75 77  1  0  0  0
 75 81  1  0  0  0
 76151  1  0  0  0
 76152  1  0  0  0
 76153  1  0  0  0
 77154  1  0  0  0
 77155  1  0  0  0
 77156  1  0  0  0
 78 81  1  0  0  0
 78157  1  0  0  0
 78158  1  0  0  0
 78159  1  0  0  0
 79160  1  0  0  0
 79161  1  0  0  0
 79162  1  0  0  0
 79 88  1  0  0  0
 80 88  1  0  0  0
 80163  1  0  0  0
 80164  1  0  0  0
 80165  1  0  0  0
 81166  1  0  0  0
 81167  1  0  0  0
 82 83  1  0  0  0
 82 84  1  0  0  0
 82168  1  0  0  0
 82169  1  0  0  0
 83 87  1  0  0  0
 83170  1  0  0  0
 83171  1  0  0  0
 84 88  1  0  0  0
 84172  1  0  0  0
 84173  1  0  0  0
 85 86  1  0  0  0
 85 88  1  0  0  0
 85174  1  0  0  0
 85175  1  0  0  0
 86 89  1  0  0  0
 86176  1  0  0  0
 86177  1  0  0  0
 87178  1  0  0  0
 87179  1  0  0  0
 90180  1  0  0  0
M  CHG  1  90   1
M  ISO  4   1 100  68 101  72 100  87 101
M  END
> <chiral flag>
0

> <version>
0

> <s_m_source_file>
/data/baiqing/PycharmProjects/Reinvent-master-3.2/result/LINK_invent/BTK/process_docking_weight1_custom_sum_contain_oxygen_bond_distance_aromatic_linkinvent_7_9_3/rearranged_h_0074.sdf

> <i_m_source_file_index>
69

> <r_mmod_Potential_Energy-OPLS-2005>
132.598831176758

> <r_mmod_Stretch_Energy-OPLS-2005>
37.8216705322266

> <r_mmod_Bend_Energy-OPLS-2005>
139.483901977539

> <r_mmod_Torsional_Energy-OPLS-2005>
339.204925537109

> <r_mmod_Improper_Torsional_Energy-OPLS-2005>
11.9181995391846

> <r_mmod_Van_der_Waal_Energy-OPLS-2005>
159.173263549805

> <r_mmod_Electrostatic_Energy-OPLS-2005>
-198.787841796875

> <r_mmod_Solvation_Energy-OPLS-2005>
-375.891510009766

> <b_mmod_Minimization_Converged-OPLS-2005>
0

> <r_mmod_RMS_Derivative-OPLS-2005>
10.0723648071289

$$$$
69
                    3D
 Structure written by MMmdl.
163171  0  0  1  0            999 V2000
  -30.5621  -14.7585   20.4448 C   0  0  0  0  0  0
  -30.4436  -12.4528   19.4852 C   0  0  0  0  0  0
  -29.5228  -12.5234   18.2449 C   0  0  0  0  0  0
  -28.0381  -12.3716   18.6327 C   0  0  0  0  0  0
  -27.6500  -13.2325   19.8645 C   0  0  2  0  0  0
  -28.6939  -13.1246   20.9994 C   0  0  0  0  0  0
  -25.2544  -13.8209   20.5702 C   0  0  0  0  0  0
  -24.1822  -13.0463   20.9187 C   0  0  0  0  0  0
  -24.6395  -11.6940   20.8713 C   0  0  0  0  0  0
  -23.9056  -10.4326   21.0379 C   0  0  0  0  0  0
  -24.3606   -9.4262   21.9174 C   0  0  0  0  0  0
  -23.6305   -8.2285   22.0747 C   0  0  0  0  0  0
  -22.4302   -8.0285   21.3532 C   0  0  0  0  0  0
  -21.9915   -9.0256   20.4634 C   0  0  0  0  0  0
  -22.7219  -10.2150   20.3042 C   0  0  0  0  0  0
  -21.6876   -6.0735   22.5267 C   0  0  0  0  0  0
  -21.4032   -6.5637   23.8203 C   0  0  0  0  0  0
  -21.3678   -5.6795   24.9172 C   0  0  0  0  0  0
  -21.6057   -4.3058   24.7210 C   0  0  0  0  0  0
  -21.8817   -3.8138   23.4333 C   0  0  0  0  0  0
  -21.9204   -4.6963   22.3388 C   0  0  0  0  0  0
  -22.7833  -13.5251   21.1840 C   0  0  0  0  0  0
  -22.1667   -4.2157   21.0965 F   0  0  0  0  0  0
  -21.5636   -3.4533   25.7715 F   0  0  0  0  0  0
  -30.0010  -13.4975   20.4392 N   0  0  0  0  0  0
  -26.2980  -12.9407   20.3312 N   0  0  0  0  0  0
  -25.9335  -11.6551   20.5737 N   0  0  0  0  0  0
  -22.0470  -12.8235   22.0388 N   0  0  0  0  0  0
  -25.4284  -15.1932   20.4137 N   0  0  0  0  0  0
  -31.7045  -14.9312   20.0136 O   0  0  0  0  0  0
  -21.6673   -6.8875   21.4228 O   0  0  0  0  0  0
  -22.3530  -14.5547   20.6691 O   0  0  0  0  0  0
  -24.6302  -31.8568   23.1962 C   0  0  0  0  0  0
  -25.9111  -32.4775   23.8337 C   0  0  1  0  0  0
  -27.2214  -27.2557   20.1281 C   0  0  0  0  0  0
  -25.5888  -33.8569   24.2272 N   0  0  0  0  0  0
  -23.4266  -30.4774   21.5422 C   0  0  2  0  0  0
  -24.8736  -28.9196   20.1191 C   0  0  0  0  0  0
  -22.7496  -29.4620   22.4940 C   0  0  0  0  0  0
  -18.0291  -28.1412   22.8493 C   0  0  0  0  0  0
  -24.1461  -36.7279   23.2643 C   0  0  0  0  0  0
  -25.9707  -30.7757   21.3661 C   0  0  0  0  0  0
  -26.0494  -29.3919   20.7161 C   0  0  0  0  0  0
  -27.2263  -28.5733   20.7069 C   0  0  0  0  0  0
  -26.0169  -26.8529   19.5087 C   0  0  0  0  0  0
  -24.8618  -27.6565   19.5107 C   0  0  0  0  0  0
  -23.6450  -29.8060   20.1619 C   0  0  0  0  0  0
  -25.4085  -36.3073   24.0338 C   0  0  1  0  0  0
  -20.5895  -28.3713   23.1293 C   0  0  2  0  0  0
  -20.6769  -26.9439   22.5429 C   0  0  0  0  0  0
  -19.5745  -26.6401   21.5234 C   0  0  0  0  0  0
  -18.1928  -26.7947   22.1651 C   0  0  0  0  0  0
  -19.1544  -28.8882   23.2886 C   0  0  0  0  0  0
  -18.9459  -30.1479   23.8917 C   0  0  0  0  0  0
  -17.6461  -30.6612   24.0569 C   0  0  0  0  0  0
  -25.9040  -34.9450   23.5116 C   0  0  0  0  0  0
  -16.5353  -29.9121   23.6324 C   0  0  0  0  0  0
  -16.7276  -28.6534   23.0346 C   0  0  0  0  0  0
  -26.4468  -31.6577   25.0717 C   0  0  0  0  0  0
  -25.3654  -31.3729   26.1412 C   0  0  0  0  0  0
  -27.0320  -30.3006   24.6163 C   0  0  0  0  0  0
  -27.6051  -32.4284   25.7487 C   0  0  0  0  0  0
  -27.5568  -37.1781   24.8464 C   0  0  0  0  0  0
  -21.4211  -29.3050   22.3676 N   0  0  0  0  0  0
  -26.4261  -37.3777   23.9434 N   0  0  0  0  0  0
  -24.6962  -31.0528   22.0936 N   0  0  0  0  0  0
  -23.4204  -28.8185   23.3054 O   0  0  0  0  0  0
  -28.3206  -26.3633   20.1744 O   0  0  0  0  0  0
  -26.5638  -34.8921   22.4702 O   0  0  0  0  0  0
  -23.5448  -32.1395   23.7252 O   0  0  0  0  0  0
  -29.9535  -21.2415   19.9080 C   0  0  0  0  0  0
  -29.6423  -19.9940   20.4812 C   0  0  0  0  0  0
  -28.3554  -21.6712   21.3451 C   0  0  0  0  0  0
  -27.3803  -22.3001   22.2910 C   0  0  0  0  0  0
  -30.3492  -24.1707   19.1907 C   0  0  0  0  0  0
  -31.0897  -18.3718   21.7759 C   0  0  0  0  0  0
  -31.3517  -18.5733   19.2940 C   0  0  0  0  0  0
  -29.4288  -17.2236   20.2081 C   0  0  0  0  0  0
  -28.0900  -24.8715   20.0833 C   0  0  0  0  0  0
  -29.3324  -23.8432   20.2978 C   0  0  1  0  0  0
  -30.3329  -18.5469   20.4496 C   0  0  0  0  0  0
  -29.1646  -22.2823   20.4524 N   0  0  0  0  0  0
  -28.6200  -20.3407   21.3355 N   0  3  0  0  0  0
  -29.7235  -15.8142   20.7656 N   0  0  0  0  0  0
  -31.4854  -12.5873   19.1886 H   0  0  0  0  0  0
  -30.3896  -11.4668   19.9493 H   0  0  0  0  0  0
  -29.7997  -11.7527   17.5246 H   0  0  0  0  0  0
  -29.6700  -13.4820   17.7440 H   0  0  0  0  0  0
  -27.8520  -11.3169   18.8354 H   0  0  0  0  0  0
  -27.4053  -12.6370   17.7850 H   0  0  0  0  0  0
  -27.6541  -14.2673   19.5207 H   0  0  0  0  0  0
  -28.7303  -12.1090   21.3967 H   0  0  0  0  0  0
  -28.4231  -13.7680   21.8376 H   0  0  0  0  0  0
  -25.2742   -9.5776   22.4743 H   0  0  0  0  0  0
  -24.0055   -7.4689   22.7462 H   0  0  0  0  0  0
  -21.0862   -8.8739   19.8923 H   0  0  0  0  0  0
  -22.3666  -10.9671   19.6147 H   0  0  0  0  0  0
  -21.2020   -7.6149   23.9705 H   0  0  0  0  0  0
  -21.1512   -6.0525   25.9083 H   0  0  0  0  0  0
  -22.0577   -2.7602   23.2818 H   0  0  0  0  0  0
  -22.4087  -11.9929   22.4818 H   0  0  0  0  0  0
  -21.1059  -13.1230   22.2504 H   0  0  0  0  0  0
  -24.6648  -15.8505   20.5204 H   0  0  0  0  0  0
  -26.2773  -15.6253   20.0724 H   0  0  0  0  0  0
  -26.7195  -32.5446   23.1102 H   0  0  0  0  0  0
  -24.9895  -33.9707   25.0320 H   0  0  0  0  0  0
  -22.7207  -31.2975   21.3920 H   0  0  0  0  0  0
  -23.3746  -35.9588   23.3264 H   0  0  0  0  0  0
  -24.3560  -36.8939   22.2069 H   0  0  0  0  0  0
  -23.7187  -37.6455   23.6692 H   0  0  0  0  0  0
  -26.0818  -31.5299   20.5850 H   0  0  0  0  0  0
  -26.8578  -30.8496   21.9841 H   0  0  0  0  0  0
  -28.1265  -28.9339   21.1845 H   0  0  0  0  0  0
  -25.9307  -25.8886   19.0320 H   0  0  0  0  0  0
  -23.9534  -27.2830   19.0570 H   0  0  0  0  0  0
  -23.7669  -30.5788   19.4015 H   0  0  0  0  0  0
  -22.7648  -29.2340   19.8633 H   0  0  0  0  0  0
  -25.1252  -36.1910   25.0831 H   0  0  0  0  0  0
  -20.9977  -28.3278   24.1415 H   0  0  0  0  0  0
  -20.5666  -26.2330   23.3628 H   0  0  0  0  0  0
  -21.6630  -26.7454   22.1224 H   0  0  0  0  0  0
  -19.6893  -25.6300   21.1290 H   0  0  0  0  0  0
  -19.6683  -27.3187   20.6742 H   0  0  0  0  0  0
  -17.4190  -26.6701   21.4063 H   0  0  0  0  0  0
  -18.0327  -26.0105   22.9068 H   0  0  0  0  0  0
  -19.7930  -30.7294   24.2310 H   0  0  0  0  0  0
  -17.5008  -31.6294   24.5163 H   0  0  0  0  0  0
  -15.5356  -30.3034   23.7614 H   0  0  0  0  0  0
  -15.8680  -28.0863   22.7045 H   0  0  0  0  0  0
  -24.5853  -30.7067   25.7699 H   0  0  0  0  0  0
  -24.8804  -32.2897   26.4784 H   0  0  0  0  0  0
  -25.7905  -30.8929   27.0235 H   0  0  0  0  0  0
  -26.2911  -29.6758   24.1162 H   0  0  0  0  0  0
  -27.4008  -29.7253   25.4667 H   0  0  0  0  0  0
  -27.8765  -30.4321   23.9393 H   0  0  0  0  0  0
  -27.2721  -33.3621   26.2033 H   0  0  0  0  0  0
  -28.3876  -32.6768   25.0301 H   0  0  0  0  0  0
  -28.0689  -31.8405   26.5422 H   0  0  0  0  0  0
  -28.2550  -38.0111   24.7539 H   0  0  0  0  0  0
  -28.1096  -36.2645   24.6222 H   0  0  0  0  0  0
  -27.2307  -37.1332   25.8872 H   0  0  0  0  0  0
  -20.9400  -29.8758   21.6865 H   0  0  0  0  0  0
  -26.0134  -38.2838   24.1483 H   0  0  0  0  0  0
  -30.7455  -21.4596   19.2055 H   0  0  0  0  0  0
  -26.3775  -22.2112   21.8757 H   0  0  0  0  0  0
  -27.6409  -23.3403   22.4663 H   0  0  0  0  0  0
  -27.4310  -21.7723   23.2422 H   0  0  0  0  0  0
  -30.5616  -25.2406   19.1741 H   0  0  0  0  0  0
  -29.9667  -23.8964   18.2070 H   0  0  0  0  0  0
  -31.3022  -23.6660   19.3397 H   0  0  0  0  0  0
  -31.7774  -19.1991   21.9509 H   0  0  0  0  0  0
  -31.6834  -17.4576   21.7791 H   0  0  0  0  0  0
  -30.4034  -18.3187   22.6195 H   0  0  0  0  0  0
  -32.1151  -19.3394   19.4341 H   0  0  0  0  0  0
  -30.8523  -18.7796   18.3457 H   0  0  0  0  0  0
  -31.8644  -17.6176   19.1862 H   0  0  0  0  0  0
  -29.2331  -17.1192   19.1395 H   0  0  0  0  0  0
  -28.4470  -17.4552   20.6209 H   0  0  0  0  0  0
  -27.2911  -24.6379   20.7840 H   0  0  0  0  0  0
  -27.6909  -24.6557   19.0919 H   0  0  0  0  0  0
  -29.7920  -24.1451   21.2399 H   0  0  0  0  0  0
  -28.1634  -19.6845   21.9583 H   0  0  0  0  0  0
  -28.9228  -15.4675   21.2709 H   0  0  0  0  0  0
  1 25  1  0  0  0
  1 30  2  0  0  0
  1 84  1  0  0  0
  2  3  1  0  0  0
  2 25  1  0  0  0
  2 85  1  0  0  0
  2 86  1  0  0  0
  3  4  1  0  0  0
  3 87  1  0  0  0
  3 88  1  0  0  0
  4  5  1  0  0  0
  4 89  1  0  0  0
  4 90  1  0  0  0
  5  6  1  0  0  0
  5 26  1  0  0  0
  5 91  1  0  0  0
  6 25  1  0  0  0
  6 92  1  0  0  0
  6 93  1  0  0  0
  7  8  2  0  0  0
  7 26  1  0  0  0
  7 29  1  0  0  0
  8  9  1  0  0  0
  8 22  1  0  0  0
  9 10  1  0  0  0
  9 27  2  0  0  0
 10 11  2  0  0  0
 10 15  1  0  0  0
 11 12  1  0  0  0
 11 94  1  0  0  0
 12 13  2  0  0  0
 12 95  1  0  0  0
 13 14  1  0  0  0
 13 31  1  0  0  0
 14 15  2  0  0  0
 14 96  1  0  0  0
 15 97  1  0  0  0
 16 17  2  0  0  0
 16 21  1  0  0  0
 16 31  1  0  0  0
 17 18  1  0  0  0
 17 98  1  0  0  0
 18 19  2  0  0  0
 18 99  1  0  0  0
 19 20  1  0  0  0
 19 24  1  0  0  0
 20 21  2  0  0  0
 20100  1  0  0  0
 21 23  1  0  0  0
 22 28  1  0  0  0
 22 32  2  0  0  0
 26 27  1  0  0  0
 28101  1  0  0  0
 28102  1  0  0  0
 29103  1  0  0  0
 29104  1  0  0  0
 33 34  1  0  0  0
 33 66  1  0  0  0
 33 70  2  0  0  0
 34 36  1  0  0  0
 34 59  1  0  0  0
 34105  1  0  0  0
 35 44  2  0  0  0
 35 45  1  0  0  0
 35 68  1  0  0  0
 36 56  1  0  0  0
 36106  1  0  0  0
 37 39  1  0  0  0
 37 47  1  0  0  0
 37 66  1  0  0  0
 37107  1  0  0  0
 38 43  2  0  0  0
 38 46  1  0  0  0
 38 47  1  0  0  0
 39 64  1  0  0  0
 39 67  2  0  0  0
 40 52  1  0  0  0
 40 53  2  0  0  0
 40 58  1  0  0  0
 41108  1  0  0  0
 41109  1  0  0  0
 41110  1  0  0  0
 41 48  1  0  0  0
 42 43  1  0  0  0
 42 66  1  0  0  0
 42111  1  0  0  0
 42112  1  0  0  0
 43 44  1  0  0  0
 44113  1  0  0  0
 45 46  2  0  0  0
 45114  1  0  0  0
 46115  1  0  0  0
 47116  1  0  0  0
 47117  1  0  0  0
 48 56  1  0  0  0
 48 65  1  0  0  0
 48118  1  0  0  0
 49 50  1  0  0  0
 49 53  1  0  0  0
 49 64  1  0  0  0
 49119  1  0  0  0
 50 51  1  0  0  0
 50120  1  0  0  0
 50121  1  0  0  0
 51 52  1  0  0  0
 51122  1  0  0  0
 51123  1  0  0  0
 52124  1  0  0  0
 52125  1  0  0  0
 53 54  1  0  0  0
 54 55  2  0  0  0
 54126  1  0  0  0
 55 57  1  0  0  0
 55127  1  0  0  0
 56 69  2  0  0  0
 57 58  2  0  0  0
 57128  1  0  0  0
 58129  1  0  0  0
 59 60  1  0  0  0
 59 61  1  0  0  0
 59 62  1  0  0  0
 60130  1  0  0  0
 60131  1  0  0  0
 60132  1  0  0  0
 61133  1  0  0  0
 61134  1  0  0  0
 61135  1  0  0  0
 62136  1  0  0  0
 62137  1  0  0  0
 62138  1  0  0  0
 63 65  1  0  0  0
 63139  1  0  0  0
 63140  1  0  0  0
 63141  1  0  0  0
 64142  1  0  0  0
 65143  1  0  0  0
 68 79  1  0  0  0
 71 72  2  0  0  0
 71 82  1  0  0  0
 71144  1  0  0  0
 72 81  1  0  0  0
 72 83  1  0  0  0
 73 74  1  0  0  0
 73 82  1  0  0  0
 73 83  2  0  0  0
 74145  1  0  0  0
 74146  1  0  0  0
 74147  1  0  0  0
 75148  1  0  0  0
 75149  1  0  0  0
 75150  1  0  0  0
 75 80  1  0  0  0
 76151  1  0  0  0
 76152  1  0  0  0
 76153  1  0  0  0
 76 81  1  0  0  0
 77 81  1  0  0  0
 77154  1  0  0  0
 77155  1  0  0  0
 77156  1  0  0  0
 78 81  1  0  0  0
 78 84  1  0  0  0
 78157  1  0  0  0
 78158  1  0  0  0
 79 80  1  0  0  0
 79159  1  0  0  0
 79160  1  0  0  0
 80 82  1  0  0  0
 80161  1  0  0  0
 83162  1  0  0  0
 84163  1  0  0  0
M  CHG  1  83   1
M  ISO  4   1 100  68 101  79 101  84 100
M  END
> <chiral flag>
0

> <version>
0

> <s_m_source_file>
/data/baiqing/PycharmProjects/Reinvent-master-3.2/result/LINK_invent/BTK/process_docking_weight1_custom_sum_contain_oxygen_bond_distance_aromatic_linkinvent_7_9_3/rearranged_h_0074.sdf

> <i_m_source_file_index>
70

> <r_mmod_Potential_Energy-OPLS-2005>
115.595741271973

> <r_mmod_Stretch_Energy-OPLS-2005>
140.945007324219

> <r_mmod_Bend_Energy-OPLS-2005>
202.673461914062

> <r_mmod_Torsional_Energy-OPLS-2005>
271.201141357422

> <r_mmod_Improper_Torsional_Energy-OPLS-2005>
8.77487564086914

> <r_mmod_Van_der_Waal_Energy-OPLS-2005>
116.352645874023

> <r_mmod_Electrostatic_Energy-OPLS-2005>
-295.91357421875

> <r_mmod_Solvation_Energy-OPLS-2005>
-417.885345458984

> <b_mmod_Minimization_Converged-OPLS-2005>
0

> <r_mmod_RMS_Derivative-OPLS-2005>
3.32757425308228

$$$$
70
                    3D
 Structure written by MMmdl.
167175  0  0  1  0            999 V2000
  -30.7630  -14.4976   20.6411 C   0  0  0  0  0  0
  -30.4055  -12.3425   19.4580 C   0  0  0  0  0  0
  -29.4969  -12.4981   18.2240 C   0  0  0  0  0  0
  -28.0236  -12.3223   18.6259 C   0  0  0  0  0  0
  -27.6463  -13.2042   19.8405 C   0  0  2  0  0  0
  -28.6768  -13.0920   20.9844 C   0  0  0  0  0  0
  -25.2562  -13.8155   20.5624 C   0  0  0  0  0  0
  -24.1832  -13.0437   20.9187 C   0  0  0  0  0  0
  -24.6382  -11.6907   20.8740 C   0  0  0  0  0  0
  -23.9047  -10.4302   21.0413 C   0  0  0  0  0  0
  -24.3608   -9.4219   21.9185 C   0  0  0  0  0  0
  -23.6294   -8.2248   22.0749 C   0  0  0  0  0  0
  -22.4275   -8.0282   21.3542 C   0  0  0  0  0  0
  -21.9908   -9.0251   20.4644 C   0  0  0  0  0  0
  -22.7221  -10.2140   20.3063 C   0  0  0  0  0  0
  -21.6848   -6.0741   22.5280 C   0  0  0  0  0  0
  -21.4005   -6.5643   23.8211 C   0  0  0  0  0  0
  -21.3665   -5.6793   24.9177 C   0  0  0  0  0  0
  -21.6048   -4.3058   24.7222 C   0  0  0  0  0  0
  -21.8820   -3.8148   23.4341 C   0  0  0  0  0  0
  -21.9185   -4.6970   22.3401 C   0  0  0  0  0  0
  -22.7865  -13.5235   21.1870 C   0  0  0  0  0  0
  -22.1657   -4.2160   21.0977 F   0  0  0  0  0  0
  -21.5638   -3.4538   25.7733 F   0  0  0  0  0  0
  -30.0193  -13.3635   20.4563 N   0  0  0  0  0  0
  -26.2939  -12.9297   20.3167 N   0  0  0  0  0  0
  -25.9287  -11.6473   20.5684 N   0  0  0  0  0  0
  -22.0502  -12.8223   22.0429 N   0  0  0  0  0  0
  -25.4301  -15.1866   20.4039 N   0  0  0  0  0  0
  -31.8282  -14.6316   20.0312 O   0  0  0  0  0  0
  -21.6640   -6.8880   21.4237 O   0  0  0  0  0  0
  -22.3550  -14.5542   20.6728 O   0  0  0  0  0  0
  -24.6184  -31.8667   23.2096 C   0  0  0  0  0  0
  -25.9064  -32.4819   23.8395 C   0  0  1  0  0  0
  -27.2190  -27.3918   20.0990 C   0  0  0  0  0  0
  -25.5905  -33.8616   24.2332 N   0  0  0  0  0  0
  -23.4069  -30.4924   21.5523 C   0  0  2  0  0  0
  -24.8496  -28.9599   20.1112 C   0  0  0  0  0  0
  -22.7432  -29.4658   22.4991 C   0  0  0  0  0  0
  -18.0275  -28.1373   22.8498 C   0  0  0  0  0  0
  -24.1488  -36.7311   23.2639 C   0  0  0  0  0  0
  -25.9414  -30.8185   21.3701 C   0  0  0  0  0  0
  -26.0145  -29.4524   20.7122 C   0  0  0  0  0  0
  -27.2018  -28.6768   20.7021 C   0  0  0  0  0  0
  -26.0332  -26.9351   19.4763 C   0  0  0  0  0  0
  -24.8564  -27.7034   19.4880 C   0  0  0  0  0  0
  -23.6155  -29.8321   20.1645 C   0  0  0  0  0  0
  -25.4109  -36.3115   24.0344 C   0  0  1  0  0  0
  -20.5869  -28.3668   23.1310 C   0  0  2  0  0  0
  -20.6773  -26.9406   22.5413 C   0  0  0  0  0  0
  -19.5747  -26.6387   21.5214 C   0  0  0  0  0  0
  -18.1922  -26.7919   22.1627 C   0  0  0  0  0  0
  -19.1527  -28.8839   23.2896 C   0  0  0  0  0  0
  -18.9456  -30.1443   23.8908 C   0  0  0  0  0  0
  -17.6457  -30.6582   24.0566 C   0  0  0  0  0  0
  -25.9039  -34.9476   23.5137 C   0  0  0  0  0  0
  -16.5349  -29.9085   23.6326 C   0  0  0  0  0  0
  -16.7264  -28.6498   23.0351 C   0  0  0  0  0  0
  -26.4473  -31.6594   25.0729 C   0  0  0  0  0  0
  -25.3727  -31.3700   26.1471 C   0  0  0  0  0  0
  -27.0306  -30.3034   24.6116 C   0  0  0  0  0  0
  -27.6056  -32.4308   25.7482 C   0  0  0  0  0  0
  -27.5583  -37.1809   24.8467 C   0  0  0  0  0  0
  -21.4156  -29.3032   22.3721 N   0  0  0  0  0  0
  -26.4298  -37.3798   23.9407 N   0  0  0  0  0  0
  -24.6741  -31.0738   22.1017 N   0  0  0  0  0  0
  -23.4195  -28.8190   23.3032 O   0  0  0  0  0  0
  -28.3665  -26.6089   20.1438 O   0  0  0  0  0  0
  -26.5609  -34.8932   22.4703 O   0  0  0  0  0  0
  -23.5366  -32.1434   23.7469 O   0  0  0  0  0  0
  -29.0566  -19.1237   20.9655 C   0  0  0  0  0  0
  -29.7022  -20.0173   18.8310 C   0  0  0  0  0  0
  -29.2264  -20.2712   20.1371 C   0  0  0  0  0  0
  -29.3614  -17.8400   20.4286 C   0  0  0  0  0  0
  -30.6366  -16.9023   23.8253 C   0  0  0  0  0  0
  -32.0570  -14.9183   23.3814 C   0  0  0  0  0  0
  -29.6294  -14.6173   23.8435 C   0  0  0  0  0  0
  -28.8798  -21.7037   20.6140 C   0  0  0  0  0  0
  -29.1073  -16.5177   21.1792 C   0  0  0  0  0  0
  -29.5252  -22.8766   19.8020 C   0  0  0  0  0  0
  -29.4222  -24.3328   20.3695 C   0  0  0  0  0  0
  -28.2265  -25.1899   19.8705 C   0  0  0  0  0  0
  -30.3874  -15.7023   21.5829 C   0  0  1  0  0  0
  -30.6541  -15.5200   23.1280 C   0  0  0  0  0  0
  -29.9924  -18.7720   18.3786 N   0  0  0  0  0  0
  -29.8188  -17.7009   19.1601 N   0  0  0  0  0  0
  -31.4529  -12.4105   19.1583 H   0  0  0  0  0  0
  -30.2931  -11.3470   19.8899 H   0  0  0  0  0  0
  -29.7663  -11.7626   17.4660 H   0  0  0  0  0  0
  -29.6492  -13.4796   17.7716 H   0  0  0  0  0  0
  -27.8668  -11.2695   18.8649 H   0  0  0  0  0  0
  -27.3690  -12.5424   17.7809 H   0  0  0  0  0  0
  -27.6568  -14.2255   19.4655 H   0  0  0  0  0  0
  -28.6501  -12.1038   21.4452 H   0  0  0  0  0  0
  -28.3859  -13.8027   21.7496 H   0  0  0  0  0  0
  -25.2756   -9.5701   22.4759 H   0  0  0  0  0  0
  -24.0017   -7.4632   22.7459 H   0  0  0  0  0  0
  -21.0847   -8.8757   19.8942 H   0  0  0  0  0  0
  -22.3668  -10.9681   19.6182 H   0  0  0  0  0  0
  -21.1989   -7.6150   23.9717 H   0  0  0  0  0  0
  -21.1493   -6.0526   25.9080 H   0  0  0  0  0  0
  -22.0595   -2.7614   23.2831 H   0  0  0  0  0  0
  -22.4094  -11.9884   22.4838 H   0  0  0  0  0  0
  -21.1122  -13.1260   22.2624 H   0  0  0  0  0  0
  -24.6620  -15.8406   20.5094 H   0  0  0  0  0  0
  -26.2701  -15.6205   20.0450 H   0  0  0  0  0  0
  -26.7129  -32.5522   23.1152 H   0  0  0  0  0  0
  -25.0051  -33.9774   25.0477 H   0  0  0  0  0  0
  -22.6968  -31.3104   21.4163 H   0  0  0  0  0  0
  -23.3760  -35.9636   23.3313 H   0  0  0  0  0  0
  -24.3579  -36.8906   22.2047 H   0  0  0  0  0  0
  -23.7228  -37.6516   23.6642 H   0  0  0  0  0  0
  -26.0618  -31.5859   20.6034 H   0  0  0  0  0  0
  -26.8272  -30.8673   21.9923 H   0  0  0  0  0  0
  -28.0979  -29.0483   21.1798 H   0  0  0  0  0  0
  -25.9861  -25.9804   18.9743 H   0  0  0  0  0  0
  -23.9633  -27.3224   19.0132 H   0  0  0  0  0  0
  -23.7255  -30.6114   19.4090 H   0  0  0  0  0  0
  -22.7365  -29.2561   19.8687 H   0  0  0  0  0  0
  -25.1281  -36.1987   25.0838 H   0  0  0  0  0  0
  -20.9952  -28.3232   24.1435 H   0  0  0  0  0  0
  -20.5683  -26.2275   23.3598 H   0  0  0  0  0  0
  -21.6637  -26.7453   22.1193 H   0  0  0  0  0  0
  -19.6906  -25.6302   21.1228 H   0  0  0  0  0  0
  -19.6677  -27.3210   20.6753 H   0  0  0  0  0  0
  -17.4190  -26.6674   21.4031 H   0  0  0  0  0  0
  -18.0324  -26.0056   22.9021 H   0  0  0  0  0  0
  -19.7933  -30.7252   24.2285 H   0  0  0  0  0  0
  -17.5015  -31.6262   24.5163 H   0  0  0  0  0  0
  -15.5349  -30.2988   23.7642 H   0  0  0  0  0  0
  -15.8667  -28.0817   22.7065 H   0  0  0  0  0  0
  -24.5910  -30.7035   25.7805 H   0  0  0  0  0  0
  -24.8908  -32.2853   26.4915 H   0  0  0  0  0  0
  -25.8069  -30.8871   27.0234 H   0  0  0  0  0  0
  -26.2857  -29.6798   24.1160 H   0  0  0  0  0  0
  -27.4060  -29.7264   25.4573 H   0  0  0  0  0  0
  -27.8699  -30.4353   23.9286 H   0  0  0  0  0  0
  -27.2688  -33.3606   26.2081 H   0  0  0  0  0  0
  -28.3849  -32.6864   25.0291 H   0  0  0  0  0  0
  -28.0747  -31.8416   26.5372 H   0  0  0  0  0  0
  -28.2615  -38.0095   24.7516 H   0  0  0  0  0  0
  -28.1068  -36.2628   24.6300 H   0  0  0  0  0  0
  -27.2303  -37.1465   25.8873 H   0  0  0  0  0  0
  -20.9323  -29.8762   21.6947 H   0  0  0  0  0  0
  -26.0198  -38.2885   24.1399 H   0  0  0  0  0  0
  -28.6760  -19.2200   21.9725 H   0  0  0  0  0  0
  -29.8500  -20.8133   18.1186 H   0  0  0  0  0  0
  -30.9128  -16.8229   24.8778 H   0  0  0  0  0  0
  -29.6545  -17.3732   23.8014 H   0  0  0  0  0  0
  -31.3422  -17.5946   23.3640 H   0  0  0  0  0  0
  -32.2780  -14.8570   24.4479 H   0  0  0  0  0  0
  -32.8448  -15.5197   22.9255 H   0  0  0  0  0  0
  -32.1497  -13.9048   22.9890 H   0  0  0  0  0  0
  -29.8041  -14.6035   24.9204 H   0  0  0  0  0  0
  -29.6951  -13.5803   23.5140 H   0  0  0  0  0  0
  -28.6058  -14.9640   23.6983 H   0  0  0  0  0  0
  -29.1791  -21.7826   21.6603 H   0  0  0  0  0  0
  -27.7947  -21.8110   20.5998 H   0  0  0  0  0  0
  -28.4717  -16.7133   22.0409 H   0  0  0  0  0  0
  -28.4827  -15.9228   20.5210 H   0  0  0  0  0  0
  -29.1574  -22.8730   18.7750 H   0  0  0  0  0  0
  -30.5905  -22.6548   19.7287 H   0  0  0  0  0  0
  -30.3284  -24.8603   20.0679 H   0  0  0  0  0  0
  -29.4484  -24.3192   21.4592 H   0  0  0  0  0  0
  -27.3258  -24.7903   20.3398 H   0  0  0  0  0  0
  -28.1154  -25.0618   18.7923 H   0  0  0  0  0  0
  -31.1805  -16.4090   21.3302 H   0  0  0  0  0  0
  1 25  1  0  0  0
  1 30  2  0  0  0
  1 83  1  0  0  0
  2  3  1  0  0  0
  2 25  1  0  0  0
  2 87  1  0  0  0
  2 88  1  0  0  0
  3  4  1  0  0  0
  3 89  1  0  0  0
  3 90  1  0  0  0
  4  5  1  0  0  0
  4 91  1  0  0  0
  4 92  1  0  0  0
  5  6  1  0  0  0
  5 26  1  0  0  0
  5 93  1  0  0  0
  6 25  1  0  0  0
  6 94  1  0  0  0
  6 95  1  0  0  0
  7  8  2  0  0  0
  7 26  1  0  0  0
  7 29  1  0  0  0
  8  9  1  0  0  0
  8 22  1  0  0  0
  9 10  1  0  0  0
  9 27  2  0  0  0
 10 11  2  0  0  0
 10 15  1  0  0  0
 11 12  1  0  0  0
 11 96  1  0  0  0
 12 13  2  0  0  0
 12 97  1  0  0  0
 13 14  1  0  0  0
 13 31  1  0  0  0
 14 15  2  0  0  0
 14 98  1  0  0  0
 15 99  1  0  0  0
 16 17  2  0  0  0
 16 21  1  0  0  0
 16 31  1  0  0  0
 17 18  1  0  0  0
 17100  1  0  0  0
 18 19  2  0  0  0
 18101  1  0  0  0
 19 20  1  0  0  0
 19 24  1  0  0  0
 20 21  2  0  0  0
 20102  1  0  0  0
 21 23  1  0  0  0
 22 28  1  0  0  0
 22 32  2  0  0  0
 26 27  1  0  0  0
 28103  1  0  0  0
 28104  1  0  0  0
 29105  1  0  0  0
 29106  1  0  0  0
 33 34  1  0  0  0
 33 66  1  0  0  0
 33 70  2  0  0  0
 34 36  1  0  0  0
 34 59  1  0  0  0
 34107  1  0  0  0
 35 44  2  0  0  0
 35 45  1  0  0  0
 35 68  1  0  0  0
 36 56  1  0  0  0
 36108  1  0  0  0
 37 39  1  0  0  0
 37 47  1  0  0  0
 37 66  1  0  0  0
 37109  1  0  0  0
 38 43  2  0  0  0
 38 46  1  0  0  0
 38 47  1  0  0  0
 39 64  1  0  0  0
 39 67  2  0  0  0
 40 52  1  0  0  0
 40 53  2  0  0  0
 40 58  1  0  0  0
 41110  1  0  0  0
 41111  1  0  0  0
 41112  1  0  0  0
 41 48  1  0  0  0
 42 43  1  0  0  0
 42 66  1  0  0  0
 42113  1  0  0  0
 42114  1  0  0  0
 43 44  1  0  0  0
 44115  1  0  0  0
 45 46  2  0  0  0
 45116  1  0  0  0
 46117  1  0  0  0
 47118  1  0  0  0
 47119  1  0  0  0
 48 56  1  0  0  0
 48 65  1  0  0  0
 48120  1  0  0  0
 49 50  1  0  0  0
 49 53  1  0  0  0
 49 64  1  0  0  0
 49121  1  0  0  0
 50 51  1  0  0  0
 50122  1  0  0  0
 50123  1  0  0  0
 51 52  1  0  0  0
 51124  1  0  0  0
 51125  1  0  0  0
 52126  1  0  0  0
 52127  1  0  0  0
 53 54  1  0  0  0
 54 55  2  0  0  0
 54128  1  0  0  0
 55 57  1  0  0  0
 55129  1  0  0  0
 56 69  2  0  0  0
 57 58  2  0  0  0
 57130  1  0  0  0
 58131  1  0  0  0
 59 60  1  0  0  0
 59 61  1  0  0  0
 59 62  1  0  0  0
 60132  1  0  0  0
 60133  1  0  0  0
 60134  1  0  0  0
 61135  1  0  0  0
 61136  1  0  0  0
 61137  1  0  0  0
 62138  1  0  0  0
 62139  1  0  0  0
 62140  1  0  0  0
 63 65  1  0  0  0
 63141  1  0  0  0
 63142  1  0  0  0
 63143  1  0  0  0
 64144  1  0  0  0
 65145  1  0  0  0
 68 82  1  0  0  0
 71 73  2  0  0  0
 71 74  1  0  0  0
 71146  1  0  0  0
 72 73  1  0  0  0
 72 85  2  0  0  0
 72147  1  0  0  0
 73 78  1  0  0  0
 74 79  1  0  0  0
 74 86  2  0  0  0
 75148  1  0  0  0
 75149  1  0  0  0
 75150  1  0  0  0
 75 84  1  0  0  0
 76 84  1  0  0  0
 76151  1  0  0  0
 76152  1  0  0  0
 76153  1  0  0  0
 77 84  1  0  0  0
 77154  1  0  0  0
 77155  1  0  0  0
 77156  1  0  0  0
 78 80  1  0  0  0
 78157  1  0  0  0
 78158  1  0  0  0
 79159  1  0  0  0
 79160  1  0  0  0
 79 83  1  0  0  0
 80 81  1  0  0  0
 80161  1  0  0  0
 80162  1  0  0  0
 81 82  1  0  0  0
 81163  1  0  0  0
 81164  1  0  0  0
 82165  1  0  0  0
 82166  1  0  0  0
 83 84  1  0  0  0
 83167  1  0  0  0
 85 86  1  0  0  0
M  ISO  4   1 100  68 101  82 101  83 100
M  END
> <chiral flag>
0

> <version>
0

> <s_m_source_file>
/data/baiqing/PycharmProjects/Reinvent-master-3.2/result/LINK_invent/BTK/process_docking_weight1_custom_sum_contain_oxygen_bond_distance_aromatic_linkinvent_7_9_3/rearranged_h_0074.sdf

> <i_m_source_file_index>
71

> <r_mmod_Potential_Energy-OPLS-2005>
88.4263763427734

> <r_mmod_Stretch_Energy-OPLS-2005>
55.4146308898926

> <r_mmod_Bend_Energy-OPLS-2005>
142.0859375

> <r_mmod_Torsional_Energy-OPLS-2005>
183.156799316406

> <r_mmod_Improper_Torsional_Energy-OPLS-2005>
1.93295776844025

> <r_mmod_Van_der_Waal_Energy-OPLS-2005>
154.386795043945

> <r_mmod_Electrostatic_Energy-OPLS-2005>
-263.620544433594

> <r_mmod_Solvation_Energy-OPLS-2005>
-207.395721435547

> <b_mmod_Minimization_Converged-OPLS-2005>
0

> <r_mmod_RMS_Derivative-OPLS-2005>
1.51175689697266

$$$$
71
                    3D
 Structure written by MMmdl.
153161  0  0  1  0            999 V2000
  -30.5460  -14.9939   20.4606 C   0  0  0  0  0  0
  -30.4452  -12.6222   19.5128 C   0  0  0  0  0  0
  -29.5283  -12.5519   18.2668 C   0  0  0  0  0  0
  -28.0594  -12.3256   18.6717 C   0  0  0  0  0  0
  -27.6333  -13.2454   19.8435 C   0  0  2  0  0  0
  -28.6779  -13.2363   20.9799 C   0  0  0  0  0  0
  -25.2413  -13.8175   20.5636 C   0  0  0  0  0  0
  -24.1754  -13.0404   20.9204 C   0  0  0  0  0  0
  -24.6394  -11.6900   20.8752 C   0  0  0  0  0  0
  -23.9081  -10.4276   21.0404 C   0  0  0  0  0  0
  -24.3628   -9.4193   21.9184 C   0  0  0  0  0  0
  -23.6294   -8.2234   22.0755 C   0  0  0  0  0  0
  -22.4275   -8.0278   21.3546 C   0  0  0  0  0  0
  -21.9915   -9.0256   20.4652 C   0  0  0  0  0  0
  -22.7251  -10.2126   20.3057 C   0  0  0  0  0  0
  -21.6855   -6.0732   22.5279 C   0  0  0  0  0  0
  -21.4017   -6.5635   23.8214 C   0  0  0  0  0  0
  -21.3660   -5.6786   24.9175 C   0  0  0  0  0  0
  -21.6044   -4.3048   24.7226 C   0  0  0  0  0  0
  -21.8819   -3.8141   23.4347 C   0  0  0  0  0  0
  -21.9192   -4.6959   22.3402 C   0  0  0  0  0  0
  -22.7775  -13.5182   21.1864 C   0  0  0  0  0  0
  -22.1653   -4.2143   21.0979 F   0  0  0  0  0  0
  -21.5631   -3.4533   25.7740 F   0  0  0  0  0  0
  -29.9496  -13.7170   20.4126 N   0  0  0  0  0  0
  -26.2886  -12.9432   20.3239 N   0  0  0  0  0  0
  -25.9334  -11.6561   20.5750 N   0  0  0  0  0  0
  -22.0435  -12.8193   22.0443 N   0  0  0  0  0  0
  -25.3928  -15.1894   20.3957 N   0  0  0  0  0  0
  -31.7126  -15.0107   20.0502 O   0  0  0  0  0  0
  -21.6634   -6.8878   21.4243 O   0  0  0  0  0  0
  -22.3451  -14.5482   20.6701 O   0  0  0  0  0  0
  -24.6450  -31.8414   23.1852 C   0  0  0  0  0  0
  -25.9212  -32.4680   23.8250 C   0  0  1  0  0  0
  -27.2244  -27.1191   20.1544 C   0  0  0  0  0  0
  -25.5954  -33.8488   24.2171 N   0  0  0  0  0  0
  -23.4495  -30.4588   21.5302 C   0  0  2  0  0  0
  -24.9009  -28.8785   20.1098 C   0  0  0  0  0  0
  -22.7574  -29.4529   22.4844 C   0  0  0  0  0  0
  -18.0310  -28.1396   22.8473 C   0  0  0  0  0  0
  -24.1487  -36.7249   23.2638 C   0  0  0  0  0  0
  -26.0059  -30.7095   21.3858 C   0  0  0  0  0  0
  -26.0782  -29.3183   20.7282 C   0  0  0  0  0  0
  -27.2392  -28.4552   20.7315 C   0  0  0  0  0  0
  -26.0210  -26.7816   19.4980 C   0  0  0  0  0  0
  -24.8865  -27.6248   19.4775 C   0  0  0  0  0  0
  -23.6779  -29.7832   20.1511 C   0  0  0  0  0  0
  -25.4121  -36.3028   24.0314 C   0  0  1  0  0  0
  -20.5921  -28.3723   23.1230 C   0  0  2  0  0  0
  -20.6792  -26.9423   22.5402 C   0  0  0  0  0  0
  -19.5767  -26.6378   21.5209 C   0  0  0  0  0  0
  -18.1949  -26.7933   22.1620 C   0  0  0  0  0  0
  -19.1565  -28.8880   23.2842 C   0  0  0  0  0  0
  -18.9480  -30.1478   23.8867 C   0  0  0  0  0  0
  -17.6473  -30.6590   24.0559 C   0  0  0  0  0  0
  -25.9078  -34.9403   23.5055 C   0  0  0  0  0  0
  -16.5366  -29.9081   23.6335 C   0  0  0  0  0  0
  -16.7293  -28.6502   23.0353 C   0  0  0  0  0  0
  -26.4533  -31.6556   25.0698 C   0  0  0  0  0  0
  -25.3716  -31.3743   26.1391 C   0  0  0  0  0  0
  -27.0403  -30.2951   24.6290 C   0  0  0  0  0  0
  -27.6060  -32.4325   25.7485 C   0  0  0  0  0  0
  -27.5574  -37.1781   24.8465 C   0  0  0  0  0  0
  -21.4264  -29.3042   22.3596 N   0  0  0  0  0  0
  -26.4286  -37.3745   23.9411 N   0  0  0  0  0  0
  -24.7200  -31.0253   22.0889 N   0  0  0  0  0  0
  -23.4209  -28.8089   23.3011 O   0  0  0  0  0  0
  -28.2830  -26.1356   20.2275 O   0  0  0  0  0  0
  -26.5660  -34.8908   22.4633 O   0  0  0  0  0  0
  -23.5564  -32.1298   23.7061 O   0  0  0  0  0  0
  -29.9865  -20.7130   20.2353 C   0  0  0  0  0  0
  -29.3933  -19.4252   20.2832 C   0  0  0  0  0  0
  -30.8715  -16.9088   22.1327 C   0  0  0  0  0  0
  -28.5339  -16.3999   21.5687 C   0  0  0  0  0  0
  -29.9308  -17.8771   19.9759 C   0  0  0  0  0  0
  -29.1565  -23.3672   20.4572 C   0  0  0  0  0  0
  -28.0521  -24.5908   20.0695 C   0  0  0  0  0  0
  -29.9422  -16.5014   20.9667 C   0  0  0  0  0  0
  -28.0336  -19.7892   20.4124 N   0  0  0  0  0  0
  -27.8326  -21.1086   20.4821 N   0  0  0  0  0  0
  -29.0110  -21.7810   20.3321 N   0  0  0  0  0  0
  -31.4757  -12.7767   19.1926 H   0  0  0  0  0  0
  -30.4566  -11.6657   20.0370 H   0  0  0  0  0  0
  -29.8597  -11.7564   17.5980 H   0  0  0  0  0  0
  -29.6127  -13.4829   17.7042 H   0  0  0  0  0  0
  -27.9547  -11.2809   18.9676 H   0  0  0  0  0  0
  -27.4006  -12.4667   17.8140 H   0  0  0  0  0  0
  -27.6049  -14.2510   19.4253 H   0  0  0  0  0  0
  -28.7864  -12.2283   21.3827 H   0  0  0  0  0  0
  -28.3492  -13.8261   21.8263 H   0  0  0  0  0  0
  -25.2775   -9.5663   22.4762 H   0  0  0  0  0  0
  -24.0001   -7.4624   22.7474 H   0  0  0  0  0  0
  -21.0844   -8.8785   19.8964 H   0  0  0  0  0  0
  -22.3714  -10.9671   19.6168 H   0  0  0  0  0  0
  -21.2012   -7.6146   23.9716 H   0  0  0  0  0  0
  -21.1478   -6.0514   25.9077 H   0  0  0  0  0  0
  -22.0597   -2.7604   23.2848 H   0  0  0  0  0  0
  -22.4057  -11.9877   22.4872 H   0  0  0  0  0  0
  -21.1059  -13.1230   22.2656 H   0  0  0  0  0  0
  -24.6200  -15.8352   20.5142 H   0  0  0  0  0  0
  -26.2382  -15.6405   20.0718 H   0  0  0  0  0  0
  -26.7273  -32.5283   23.0974 H   0  0  0  0  0  0
  -25.0097  -33.9596   25.0315 H   0  0  0  0  0  0
  -22.7514  -31.2844   21.3720 H   0  0  0  0  0  0
  -23.3763  -35.9569   23.3287 H   0  0  0  0  0  0
  -24.3570  -36.8896   22.2055 H   0  0  0  0  0  0
  -23.7228  -37.6435   23.6684 H   0  0  0  0  0  0
  -26.1620  -31.4627   20.6123 H   0  0  0  0  0  0
  -26.8751  -30.7619   22.0297 H   0  0  0  0  0  0
  -28.1354  -28.7876   21.2368 H   0  0  0  0  0  0
  -25.9294  -25.8213   19.0125 H   0  0  0  0  0  0
  -23.9890  -27.2829   18.9799 H   0  0  0  0  0  0
  -23.8164  -30.5553   19.3932 H   0  0  0  0  0  0
  -22.7930  -29.2255   19.8400 H   0  0  0  0  0  0
  -25.1311  -36.1854   25.0807 H   0  0  0  0  0  0
  -21.0013  -28.3320   24.1351 H   0  0  0  0  0  0
  -20.5684  -26.2337   23.3624 H   0  0  0  0  0  0
  -21.6659  -26.7427   22.1199 H   0  0  0  0  0  0
  -19.6928  -25.6281   21.1258 H   0  0  0  0  0  0
  -19.6709  -27.3174   20.6727 H   0  0  0  0  0  0
  -17.4216  -26.6676   21.4024 H   0  0  0  0  0  0
  -18.0353  -26.0082   22.9026 H   0  0  0  0  0  0
  -19.7957  -30.7306   24.2213 H   0  0  0  0  0  0
  -17.5028  -31.6267   24.5169 H   0  0  0  0  0  0
  -15.5366  -30.2974   23.7676 H   0  0  0  0  0  0
  -15.8694  -28.0813   22.7077 H   0  0  0  0  0  0
  -24.5909  -30.7078   25.7706 H   0  0  0  0  0  0
  -24.8892  -32.2924   26.4758 H   0  0  0  0  0  0
  -25.8005  -30.8954   27.0203 H   0  0  0  0  0  0
  -26.3023  -29.6664   24.1296 H   0  0  0  0  0  0
  -27.4007  -29.7264   25.4872 H   0  0  0  0  0  0
  -27.8936  -30.4178   23.9618 H   0  0  0  0  0  0
  -27.2649  -33.3641   26.2013 H   0  0  0  0  0  0
  -28.3901  -32.6859   25.0335 H   0  0  0  0  0  0
  -28.0700  -31.8484   26.5444 H   0  0  0  0  0  0
  -28.2584  -38.0084   24.7523 H   0  0  0  0  0  0
  -28.1081  -36.2618   24.6284 H   0  0  0  0  0  0
  -27.2295  -37.1418   25.8867 H   0  0  0  0  0  0
  -20.9481  -29.8749   21.6768 H   0  0  0  0  0  0
  -26.0154  -38.2812   24.1425 H   0  0  0  0  0  0
  -31.0340  -20.9622   20.1139 H   0  0  0  0  0  0
  -30.5036  -17.7958   22.6506 H   0  0  0  0  0  0
  -31.8761  -17.1410   21.7756 H   0  0  0  0  0  0
  -30.9672  -16.1159   22.8754 H   0  0  0  0  0  0
  -28.5169  -15.8021   22.4785 H   0  0  0  0  0  0
  -28.1543  -17.3793   21.8582 H   0  0  0  0  0  0
  -27.8329  -15.9931   20.8495 H   0  0  0  0  0  0
  -30.9537  -17.9745   19.6117 H   0  0  0  0  0  0
  -29.3940  -17.5535   19.0836 H   0  0  0  0  0  0
  -29.4150  -23.5363   21.5024 H   0  0  0  0  0  0
  -30.0710  -23.6113   19.9171 H   0  0  0  0  0  0
  -27.1407  -24.3638   20.6240 H   0  0  0  0  0  0
  -27.7913  -24.4378   19.0222 H   0  0  0  0  0  0
  1 25  1  0  0  0
  1 30  2  0  0  0
  1 78  1  0  0  0
  2  3  1  0  0  0
  2 25  1  0  0  0
  2 82  1  0  0  0
  2 83  1  0  0  0
  3  4  1  0  0  0
  3 84  1  0  0  0
  3 85  1  0  0  0
  4  5  1  0  0  0
  4 86  1  0  0  0
  4 87  1  0  0  0
  5  6  1  0  0  0
  5 26  1  0  0  0
  5 88  1  0  0  0
  6 25  1  0  0  0
  6 89  1  0  0  0
  6 90  1  0  0  0
  7  8  2  0  0  0
  7 26  1  0  0  0
  7 29  1  0  0  0
  8  9  1  0  0  0
  8 22  1  0  0  0
  9 10  1  0  0  0
  9 27  2  0  0  0
 10 11  2  0  0  0
 10 15  1  0  0  0
 11 12  1  0  0  0
 11 91  1  0  0  0
 12 13  2  0  0  0
 12 92  1  0  0  0
 13 14  1  0  0  0
 13 31  1  0  0  0
 14 15  2  0  0  0
 14 93  1  0  0  0
 15 94  1  0  0  0
 16 17  2  0  0  0
 16 21  1  0  0  0
 16 31  1  0  0  0
 17 18  1  0  0  0
 17 95  1  0  0  0
 18 19  2  0  0  0
 18 96  1  0  0  0
 19 20  1  0  0  0
 19 24  1  0  0  0
 20 21  2  0  0  0
 20 97  1  0  0  0
 21 23  1  0  0  0
 22 28  1  0  0  0
 22 32  2  0  0  0
 26 27  1  0  0  0
 28 98  1  0  0  0
 28 99  1  0  0  0
 29100  1  0  0  0
 29101  1  0  0  0
 33 34  1  0  0  0
 33 66  1  0  0  0
 33 70  2  0  0  0
 34 36  1  0  0  0
 34 59  1  0  0  0
 34102  1  0  0  0
 35 44  2  0  0  0
 35 45  1  0  0  0
 35 68  1  0  0  0
 36 56  1  0  0  0
 36103  1  0  0  0
 37 39  1  0  0  0
 37 47  1  0  0  0
 37 66  1  0  0  0
 37104  1  0  0  0
 38 43  2  0  0  0
 38 46  1  0  0  0
 38 47  1  0  0  0
 39 64  1  0  0  0
 39 67  2  0  0  0
 40 52  1  0  0  0
 40 53  2  0  0  0
 40 58  1  0  0  0
 41105  1  0  0  0
 41106  1  0  0  0
 41107  1  0  0  0
 41 48  1  0  0  0
 42 43  1  0  0  0
 42 66  1  0  0  0
 42108  1  0  0  0
 42109  1  0  0  0
 43 44  1  0  0  0
 44110  1  0  0  0
 45 46  2  0  0  0
 45111  1  0  0  0
 46112  1  0  0  0
 47113  1  0  0  0
 47114  1  0  0  0
 48 56  1  0  0  0
 48 65  1  0  0  0
 48115  1  0  0  0
 49 50  1  0  0  0
 49 53  1  0  0  0
 49 64  1  0  0  0
 49116  1  0  0  0
 50 51  1  0  0  0
 50117  1  0  0  0
 50118  1  0  0  0
 51 52  1  0  0  0
 51119  1  0  0  0
 51120  1  0  0  0
 52121  1  0  0  0
 52122  1  0  0  0
 53 54  1  0  0  0
 54 55  2  0  0  0
 54123  1  0  0  0
 55 57  1  0  0  0
 55124  1  0  0  0
 56 69  2  0  0  0
 57 58  2  0  0  0
 57125  1  0  0  0
 58126  1  0  0  0
 59 60  1  0  0  0
 59 61  1  0  0  0
 59 62  1  0  0  0
 60127  1  0  0  0
 60128  1  0  0  0
 60129  1  0  0  0
 61130  1  0  0  0
 61131  1  0  0  0
 61132  1  0  0  0
 62133  1  0  0  0
 62134  1  0  0  0
 62135  1  0  0  0
 63 65  1  0  0  0
 63136  1  0  0  0
 63137  1  0  0  0
 63138  1  0  0  0
 64139  1  0  0  0
 65140  1  0  0  0
 68 77  1  0  0  0
 71 72  2  0  0  0
 71 81  1  0  0  0
 71141  1  0  0  0
 72 75  1  0  0  0
 72 79  1  0  0  0
 73142  1  0  0  0
 73143  1  0  0  0
 73144  1  0  0  0
 73 78  1  0  0  0
 74 78  1  0  0  0
 74145  1  0  0  0
 74146  1  0  0  0
 74147  1  0  0  0
 75 78  1  0  0  0
 75148  1  0  0  0
 75149  1  0  0  0
 76 77  1  0  0  0
 76 81  1  0  0  0
 76150  1  0  0  0
 76151  1  0  0  0
 77152  1  0  0  0
 77153  1  0  0  0
 79 80  2  0  0  0
 80 81  1  0  0  0
M  ISO  4   1 100  68 101  77 101  78 100
M  END
> <chiral flag>
0

> <version>
0

> <s_m_source_file>
/data/baiqing/PycharmProjects/Reinvent-master-3.2/result/LINK_invent/BTK/process_docking_weight1_custom_sum_contain_oxygen_bond_distance_aromatic_linkinvent_7_9_3/rearranged_h_0074.sdf

> <i_m_source_file_index>
72

> <r_mmod_Potential_Energy-OPLS-2005>
582.913208007812

> <r_mmod_Stretch_Energy-OPLS-2005>
296.046417236328

> <r_mmod_Bend_Energy-OPLS-2005>
305.080718994141

> <r_mmod_Torsional_Energy-OPLS-2005>
193.306381225586

> <r_mmod_Improper_Torsional_Energy-OPLS-2005>
3.26056528091431

> <r_mmod_Van_der_Waal_Energy-OPLS-2005>
115.864219665527

> <r_mmod_Electrostatic_Energy-OPLS-2005>
-330.304504394531

> <r_mmod_Solvation_Energy-OPLS-2005>
-204.888427734375

> <b_mmod_Minimization_Converged-OPLS-2005>
0

> <r_mmod_RMS_Derivative-OPLS-2005>
1.06438434123993

$$$$
72
                    3D
 Structure written by MMmdl.
173181  0  0  1  0            999 V2000
  -30.7085  -14.4446   20.7112 C   0  0  0  0  0  0
  -30.4230  -12.3281   19.4263 C   0  0  0  0  0  0
  -29.4882  -12.5447   18.2206 C   0  0  0  0  0  0
  -28.0173  -12.3490   18.6323 C   0  0  0  0  0  0
  -27.6605  -13.1746   19.8907 C   0  0  2  0  0  0
  -28.6965  -12.9189   21.0072 C   0  0  0  0  0  0
  -25.2629  -13.8013   20.5739 C   0  0  0  0  0  0
  -24.1859  -13.0309   20.9202 C   0  0  0  0  0  0
  -24.6353  -11.6779   20.8768 C   0  0  0  0  0  0
  -23.9005  -10.4193   21.0476 C   0  0  0  0  0  0
  -24.3536   -9.4117   21.9261 C   0  0  0  0  0  0
  -23.6211   -8.2137   22.0763 C   0  0  0  0  0  0
  -22.4211   -8.0213   21.3528 C   0  0  0  0  0  0
  -21.9868   -9.0195   20.4662 C   0  0  0  0  0  0
  -22.7185  -10.2077   20.3120 C   0  0  0  0  0  0
  -21.6843   -6.0672   22.5265 C   0  0  0  0  0  0
  -21.4032   -6.5588   23.8207 C   0  0  0  0  0  0
  -21.3660   -5.6762   24.9170 C   0  0  0  0  0  0
  -21.6032   -4.3016   24.7245 C   0  0  0  0  0  0
  -21.8835   -3.8093   23.4368 C   0  0  0  0  0  0
  -21.9185   -4.6891   22.3413 C   0  0  0  0  0  0
  -22.7910  -13.5167   21.1846 C   0  0  0  0  0  0
  -22.1663   -4.2074   21.0997 F   0  0  0  0  0  0
  -21.5612   -3.4525   25.7758 F   0  0  0  0  0  0
  -30.0266  -13.2775   20.4887 N   0  0  0  0  0  0
  -26.3011  -12.9103   20.3431 N   0  0  0  0  0  0
  -25.9250  -11.6285   20.5760 N   0  0  0  0  0  0
  -22.0529  -12.8229   22.0430 N   0  0  0  0  0  0
  -25.4323  -15.1715   20.4074 N   0  0  0  0  0  0
  -31.7075  -14.6923   20.0276 O   0  0  0  0  0  0
  -21.6602   -6.8791   21.4213 O   0  0  0  0  0  0
  -22.3643  -14.5449   20.6692 O   0  0  0  0  0  0
  -24.6136  -31.8728   23.2077 C   0  0  0  0  0  0
  -25.9058  -32.4822   23.8360 C   0  0  1  0  0  0
  -27.2209  -27.4374   20.1098 C   0  0  0  0  0  0
  -25.5933  -33.8622   24.2329 N   0  0  0  0  0  0
  -23.3981  -30.4976   21.5502 C   0  0  2  0  0  0
  -24.8401  -28.9672   20.1101 C   0  0  0  0  0  0
  -22.7410  -29.4709   22.4991 C   0  0  0  0  0  0
  -18.0297  -28.1391   22.8498 C   0  0  0  0  0  0
  -24.1485  -36.7294   23.2641 C   0  0  0  0  0  0
  -25.9266  -30.8433   21.3570 C   0  0  0  0  0  0
  -26.0019  -29.4806   20.7018 C   0  0  0  0  0  0
  -27.1954  -28.7257   20.6911 C   0  0  0  0  0  0
  -26.0432  -26.9456   19.4993 C   0  0  0  0  0  0
  -24.8600  -27.7042   19.5000 C   0  0  0  0  0  0
  -23.6002  -29.8302   20.1647 C   0  0  0  0  0  0
  -25.4100  -36.3114   24.0343 C   0  0  1  0  0  0
  -20.5882  -28.3714   23.1306 C   0  0  2  0  0  0
  -20.6795  -26.9447   22.5429 C   0  0  0  0  0  0
  -19.5779  -26.6409   21.5227 C   0  0  0  0  0  0
  -18.1962  -26.7948   22.1631 C   0  0  0  0  0  0
  -19.1547  -28.8867   23.2894 C   0  0  0  0  0  0
  -18.9476  -30.1479   23.8888 C   0  0  0  0  0  0
  -17.6474  -30.6606   24.0568 C   0  0  0  0  0  0
  -25.9054  -34.9484   23.5136 C   0  0  0  0  0  0
  -16.5364  -29.9095   23.6327 C   0  0  0  0  0  0
  -16.7288  -28.6514   23.0342 C   0  0  0  0  0  0
  -26.4493  -31.6563   25.0655 C   0  0  0  0  0  0
  -25.3737  -31.3654   26.1375 C   0  0  0  0  0  0
  -27.0346  -30.3016   24.6038 C   0  0  0  0  0  0
  -27.6081  -32.4277   25.7403 C   0  0  0  0  0  0
  -27.5583  -37.1796   24.8479 C   0  0  0  0  0  0
  -21.4148  -29.3064   22.3700 N   0  0  0  0  0  0
  -26.4303  -37.3792   23.9427 N   0  0  0  0  0  0
  -24.6640  -31.0868   22.0962 N   0  0  0  0  0  0
  -23.4199  -28.8296   23.3041 O   0  0  0  0  0  0
  -28.3771  -26.6875   20.1729 O   0  0  0  0  0  0
  -26.5605  -34.8941   22.4685 O   0  0  0  0  0  0
  -23.5342  -32.1469   23.7513 O   0  0  0  0  0  0
  -27.9834  -21.0368   21.7644 C   0  0  0  0  0  0
  -30.3881  -21.7782   22.7746 C   0  0  0  0  0  0
  -28.2556  -22.3943   22.0818 C   0  0  0  0  0  0
  -30.1279  -20.4257   22.4060 C   0  0  0  0  0  0
  -26.6238  -20.5560   21.2846 C   0  0  0  0  0  0
  -31.7298  -22.2399   23.3263 C   0  0  0  0  0  0
  -32.6975  -16.4143   22.2967 C   0  0  0  0  0  0
  -28.8723  -16.1019   21.2738 C   0  0  0  0  0  0
  -30.0926  -14.8510   23.1876 C   0  0  0  0  0  0
  -27.1675  -23.4713   21.9796 C   0  0  0  0  0  0
  -31.2109  -19.3360   22.3659 C   0  0  0  0  0  0
  -27.6281  -24.9376   21.7726 C   0  0  0  0  0  0
  -30.7871  -17.9227   22.8757 C   0  0  0  0  0  0
  -28.2398  -25.2713   20.3902 C   0  0  0  0  0  0
  -31.2330  -16.7574   21.9169 C   0  0  2  0  0  0
  -30.2330  -15.5193   21.7851 C   0  0  0  0  0  0
  -29.4511  -22.7500   22.6210 N   0  0  0  0  0  0
  -28.9198  -20.0701   21.9043 N   0  0  0  0  0  0
  -31.4654  -12.4414   19.1236 H   0  0  0  0  0  0
  -30.3422  -11.3000   19.7866 H   0  0  0  0  0  0
  -29.7476  -11.8722   17.4025 H   0  0  0  0  0  0
  -29.6198  -13.5567   17.8396 H   0  0  0  0  0  0
  -27.8619  -11.2888   18.8270 H   0  0  0  0  0  0
  -27.3482  -12.6049   17.8120 H   0  0  0  0  0  0
  -27.7013  -14.2182   19.5903 H   0  0  0  0  0  0
  -28.6861  -11.8625   21.2861 H   0  0  0  0  0  0
  -28.4129  -13.4394   21.9147 H   0  0  0  0  0  0
  -25.2661   -9.5564   22.4892 H   0  0  0  0  0  0
  -23.9916   -7.4503   22.7460 H   0  0  0  0  0  0
  -21.0809   -8.8691   19.8961 H   0  0  0  0  0  0
  -22.3630  -10.9607   19.6253 H   0  0  0  0  0  0
  -21.2088   -7.6119   23.9694 H   0  0  0  0  0  0
  -21.1463   -6.0510   25.9073 H   0  0  0  0  0  0
  -22.0637   -2.7560   23.2900 H   0  0  0  0  0  0
  -22.4018  -11.9833   22.4787 H   0  0  0  0  0  0
  -21.1194  -13.1380   22.2618 H   0  0  0  0  0  0
  -24.6745  -15.8334   20.5423 H   0  0  0  0  0  0
  -26.2870  -15.6099   20.0913 H   0  0  0  0  0  0
  -26.7147  -32.5552   23.1134 H   0  0  0  0  0  0
  -25.0084  -33.9779   25.0481 H   0  0  0  0  0  0
  -22.6811  -31.3107   21.4161 H   0  0  0  0  0  0
  -23.3770  -35.9611   23.3323 H   0  0  0  0  0  0
  -24.3601  -36.8868   22.2059 H   0  0  0  0  0  0
  -23.7202  -37.6484   23.6640 H   0  0  0  0  0  0
  -26.0475  -31.6127   20.5927 H   0  0  0  0  0  0
  -26.8127  -30.8923   21.9777 H   0  0  0  0  0  0
  -28.0907  -29.1211   21.1531 H   0  0  0  0  0  0
  -26.0140  -25.9789   19.0234 H   0  0  0  0  0  0
  -23.9709  -27.3096   19.0271 H   0  0  0  0  0  0
  -23.7002  -30.6037   19.4030 H   0  0  0  0  0  0
  -22.7234  -29.2480   19.8765 H   0  0  0  0  0  0
  -25.1282  -36.1960   25.0837 H   0  0  0  0  0  0
  -20.9977  -28.3305   24.1427 H   0  0  0  0  0  0
  -20.5706  -26.2349   23.3641 H   0  0  0  0  0  0
  -21.6676  -26.7511   22.1227 H   0  0  0  0  0  0
  -19.6952  -25.6321   21.1257 H   0  0  0  0  0  0
  -19.6699  -27.3237   20.6768 H   0  0  0  0  0  0
  -17.4249  -26.6716   21.4002 H   0  0  0  0  0  0
  -18.0347  -26.0063   22.8999 H   0  0  0  0  0  0
  -19.7945  -30.7312   24.2223 H   0  0  0  0  0  0
  -17.5026  -31.6287   24.5174 H   0  0  0  0  0  0
  -15.5369  -30.3005   23.7646 H   0  0  0  0  0  0
  -15.8700  -28.0841   22.7023 H   0  0  0  0  0  0
  -25.8015  -30.8808   27.0169 H   0  0  0  0  0  0
  -24.8907  -32.2816   26.4768 H   0  0  0  0  0  0
  -24.5912  -30.7041   25.7639 H   0  0  0  0  0  0
  -26.2912  -29.6743   24.1116 H   0  0  0  0  0  0
  -27.4181  -29.7275   25.4497 H   0  0  0  0  0  0
  -27.8719  -30.4345   23.9171 H   0  0  0  0  0  0
  -27.2737  -33.3565   26.2043 H   0  0  0  0  0  0
  -28.3870  -32.6845   25.0187 H   0  0  0  0  0  0
  -28.0799  -31.8360   26.5260 H   0  0  0  0  0  0
  -28.2622  -38.0083   24.7544 H   0  0  0  0  0  0
  -28.1065  -36.2614   24.6292 H   0  0  0  0  0  0
  -27.2336  -37.1432   25.8898 H   0  0  0  0  0  0
  -20.9348  -29.8687   21.6812 H   0  0  0  0  0  0
  -26.0187  -38.2882   24.1384 H   0  0  0  0  0  0
  -26.3823  -20.9641   20.3042 H   0  0  0  0  0  0
  -25.8389  -20.8460   21.9830 H   0  0  0  0  0  0
  -26.5949  -19.4710   21.1945 H   0  0  0  0  0  0
  -32.5481  -21.8985   22.6933 H   0  0  0  0  0  0
  -31.8930  -21.8516   24.3341 H   0  0  0  0  0  0
  -31.7881  -23.3276   23.3814 H   0  0  0  0  0  0
  -32.7672  -15.8358   23.2165 H   0  0  0  0  0  0
  -33.2791  -17.3222   22.4590 H   0  0  0  0  0  0
  -33.2279  -15.8659   21.5232 H   0  0  0  0  0  0
  -28.8225  -16.1070   20.1853 H   0  0  0  0  0  0
  -28.0011  -15.5613   21.6335 H   0  0  0  0  0  0
  -28.6678  -17.1280   21.5553 H   0  0  0  0  0  0
  -30.7356  -15.2925   23.9476 H   0  0  0  0  0  0
  -30.3715  -13.7972   23.1802 H   0  0  0  0  0  0
  -29.0747  -14.9170   23.5712 H   0  0  0  0  0  0
  -26.5736  -23.4194   22.8930 H   0  0  0  0  0  0
  -26.4747  -23.2164   21.1734 H   0  0  0  0  0  0
  -32.1031  -19.6533   22.9098 H   0  0  0  0  0  0
  -31.5275  -19.2789   21.3242 H   0  0  0  0  0  0
  -28.3184  -25.2248   22.5654 H   0  0  0  0  0  0
  -26.7481  -25.5630   21.9257 H   0  0  0  0  0  0
  -29.7262  -17.9041   23.0971 H   0  0  0  0  0  0
  -31.2124  -17.7603   23.8656 H   0  0  0  0  0  0
  -27.6824  -24.8026   19.5800 H   0  0  0  0  0  0
  -29.2374  -24.8359   20.3483 H   0  0  0  0  0  0
  -31.2759  -17.1800   20.9138 H   0  0  0  0  0  0
  1 25  1  0  0  0
  1 30  2  0  0  0
  1 86  1  0  0  0
  2  3  1  0  0  0
  2 25  1  0  0  0
  2 89  1  0  0  0
  2 90  1  0  0  0
  3  4  1  0  0  0
  3 91  1  0  0  0
  3 92  1  0  0  0
  4  5  1  0  0  0
  4 93  1  0  0  0
  4 94  1  0  0  0
  5  6  1  0  0  0
  5 26  1  0  0  0
  5 95  1  0  0  0
  6 25  1  0  0  0
  6 96  1  0  0  0
  6 97  1  0  0  0
  7  8  2  0  0  0
  7 26  1  0  0  0
  7 29  1  0  0  0
  8  9  1  0  0  0
  8 22  1  0  0  0
  9 10  1  0  0  0
  9 27  2  0  0  0
 10 11  2  0  0  0
 10 15  1  0  0  0
 11 12  1  0  0  0
 11 98  1  0  0  0
 12 13  2  0  0  0
 12 99  1  0  0  0
 13 14  1  0  0  0
 13 31  1  0  0  0
 14 15  2  0  0  0
 14100  1  0  0  0
 15101  1  0  0  0
 16 17  2  0  0  0
 16 21  1  0  0  0
 16 31  1  0  0  0
 17 18  1  0  0  0
 17102  1  0  0  0
 18 19  2  0  0  0
 18103  1  0  0  0
 19 20  1  0  0  0
 19 24  1  0  0  0
 20 21  2  0  0  0
 20104  1  0  0  0
 21 23  1  0  0  0
 22 28  1  0  0  0
 22 32  2  0  0  0
 26 27  1  0  0  0
 28105  1  0  0  0
 28106  1  0  0  0
 29107  1  0  0  0
 29108  1  0  0  0
 33 34  1  0  0  0
 33 66  1  0  0  0
 33 70  2  0  0  0
 34 36  1  0  0  0
 34 59  1  0  0  0
 34109  1  0  0  0
 35 44  2  0  0  0
 35 45  1  0  0  0
 35 68  1  0  0  0
 36 56  1  0  0  0
 36110  1  0  0  0
 37 39  1  0  0  0
 37 47  1  0  0  0
 37 66  1  0  0  0
 37111  1  0  0  0
 38 43  2  0  0  0
 38 46  1  0  0  0
 38 47  1  0  0  0
 39 64  1  0  0  0
 39 67  2  0  0  0
 40 52  1  0  0  0
 40 53  2  0  0  0
 40 58  1  0  0  0
 41112  1  0  0  0
 41113  1  0  0  0
 41114  1  0  0  0
 41 48  1  0  0  0
 42 43  1  0  0  0
 42 66  1  0  0  0
 42115  1  0  0  0
 42116  1  0  0  0
 43 44  1  0  0  0
 44117  1  0  0  0
 45 46  2  0  0  0
 45118  1  0  0  0
 46119  1  0  0  0
 47120  1  0  0  0
 47121  1  0  0  0
 48 56  1  0  0  0
 48 65  1  0  0  0
 48122  1  0  0  0
 49 50  1  0  0  0
 49 53  1  0  0  0
 49 64  1  0  0  0
 49123  1  0  0  0
 50 51  1  0  0  0
 50124  1  0  0  0
 50125  1  0  0  0
 51 52  1  0  0  0
 51126  1  0  0  0
 51127  1  0  0  0
 52128  1  0  0  0
 52129  1  0  0  0
 53 54  1  0  0  0
 54 55  2  0  0  0
 54130  1  0  0  0
 55 57  1  0  0  0
 55131  1  0  0  0
 56 69  2  0  0  0
 57 58  2  0  0  0
 57132  1  0  0  0
 58133  1  0  0  0
 59 60  1  0  0  0
 59 61  1  0  0  0
 59 62  1  0  0  0
 60134  1  0  0  0
 60135  1  0  0  0
 60136  1  0  0  0
 61137  1  0  0  0
 61138  1  0  0  0
 61139  1  0  0  0
 62140  1  0  0  0
 62141  1  0  0  0
 62142  1  0  0  0
 63 65  1  0  0  0
 63143  1  0  0  0
 63144  1  0  0  0
 63145  1  0  0  0
 64146  1  0  0  0
 65147  1  0  0  0
 68 84  1  0  0  0
 71 73  2  0  0  0
 71 75  1  0  0  0
 71 88  1  0  0  0
 72 74  1  0  0  0
 72 76  1  0  0  0
 72 87  2  0  0  0
 73 80  1  0  0  0
 73 87  1  0  0  0
 74 81  1  0  0  0
 74 88  2  0  0  0
 75148  1  0  0  0
 75149  1  0  0  0
 75150  1  0  0  0
 76151  1  0  0  0
 76152  1  0  0  0
 76153  1  0  0  0
 77154  1  0  0  0
 77155  1  0  0  0
 77156  1  0  0  0
 77 85  1  0  0  0
 78157  1  0  0  0
 78158  1  0  0  0
 78159  1  0  0  0
 78 86  1  0  0  0
 79 86  1  0  0  0
 79160  1  0  0  0
 79161  1  0  0  0
 79162  1  0  0  0
 80 82  1  0  0  0
 80163  1  0  0  0
 80164  1  0  0  0
 81 83  1  0  0  0
 81165  1  0  0  0
 81166  1  0  0  0
 82 84  1  0  0  0
 82167  1  0  0  0
 82168  1  0  0  0
 83 85  1  0  0  0
 83169  1  0  0  0
 83170  1  0  0  0
 84171  1  0  0  0
 84172  1  0  0  0
 85 86  1  0  0  0
 85173  1  0  0  0
M  ISO  4   1 100  68 101  84 101  86 100
M  END
> <chiral flag>
0

> <version>
0

> <s_m_source_file>
/data/baiqing/PycharmProjects/Reinvent-master-3.2/result/LINK_invent/BTK/process_docking_weight1_custom_sum_contain_oxygen_bond_distance_aromatic_linkinvent_7_9_3/rearranged_h_0074.sdf

> <i_m_source_file_index>
73

> <r_mmod_Potential_Energy-OPLS-2005>
101.037605285645

> <r_mmod_Stretch_Energy-OPLS-2005>
57.3172645568848

> <r_mmod_Bend_Energy-OPLS-2005>
126.576599121094

> <r_mmod_Torsional_Energy-OPLS-2005>
219.973876953125

> <r_mmod_Improper_Torsional_Energy-OPLS-2005>
2.92863297462463

> <r_mmod_Van_der_Waal_Energy-OPLS-2005>
182.879928588867

> <r_mmod_Electrostatic_Energy-OPLS-2005>
-314.092956542969

> <r_mmod_Solvation_Energy-OPLS-2005>
-188.822982788086

> <b_mmod_Minimization_Converged-OPLS-2005>
0

> <r_mmod_RMS_Derivative-OPLS-2005>
6.29518175125122

$$$$
73
                    3D
 Structure written by MMmdl.
170178  0  0  1  0            999 V2000
  -30.7337  -14.4423   20.6711 C   0  0  0  0  0  0
  -30.4112  -12.3075   19.4296 C   0  0  0  0  0  0
  -29.4860  -12.5282   18.2127 C   0  0  0  0  0  0
  -28.0047  -12.3701   18.6082 C   0  0  0  0  0  0
  -27.6564  -13.1793   19.8811 C   0  0  2  0  0  0
  -28.6905  -12.8817   20.9798 C   0  0  0  0  0  0
  -25.2561  -13.8083   20.5636 C   0  0  0  0  0  0
  -24.1775  -13.0431   20.9136 C   0  0  0  0  0  0
  -24.6292  -11.6884   20.8741 C   0  0  0  0  0  0
  -23.8987  -10.4299   21.0429 C   0  0  0  0  0  0
  -24.3581   -9.4220   21.9191 C   0  0  0  0  0  0
  -23.6289   -8.2248   22.0757 C   0  0  0  0  0  0
  -22.4280   -8.0270   21.3532 C   0  0  0  0  0  0
  -21.9876   -9.0238   20.4639 C   0  0  0  0  0  0
  -22.7168  -10.2133   20.3068 C   0  0  0  0  0  0
  -21.6884   -6.0740   22.5245 C   0  0  0  0  0  0
  -21.4041   -6.5655   23.8170 C   0  0  0  0  0  0
  -21.3635   -5.6796   24.9127 C   0  0  0  0  0  0
  -21.6037   -4.3059   24.7173 C   0  0  0  0  0  0
  -21.8839   -3.8160   23.4302 C   0  0  0  0  0  0
  -21.9213   -4.6986   22.3360 C   0  0  0  0  0  0
  -22.7807  -13.5260   21.1824 C   0  0  0  0  0  0
  -22.1692   -4.2174   21.0942 F   0  0  0  0  0  0
  -21.5585   -3.4530   25.7683 F   0  0  0  0  0  0
  -30.0226  -13.2775   20.4807 N   0  0  0  0  0  0
  -26.2960  -12.9201   20.3360 N   0  0  0  0  0  0
  -25.9198  -11.6395   20.5758 N   0  0  0  0  0  0
  -22.0448  -12.8304   22.0408 N   0  0  0  0  0  0
  -25.4335  -15.1802   20.4007 N   0  0  0  0  0  0
  -31.8108  -14.5830   20.0738 O   0  0  0  0  0  0
  -21.6662   -6.8879   21.4208 O   0  0  0  0  0  0
  -22.3478  -14.5558   20.6639 O   0  0  0  0  0  0
  -24.6199  -31.8630   23.2151 C   0  0  0  0  0  0
  -25.9064  -32.4805   23.8441 C   0  0  1  0  0  0
  -27.2143  -27.4030   20.0826 C   0  0  0  0  0  0
  -25.5872  -33.8592   24.2349 N   0  0  0  0  0  0
  -23.4077  -30.5005   21.5535 C   0  0  2  0  0  0
  -24.8480  -28.9729   20.1114 C   0  0  0  0  0  0
  -22.7450  -29.4674   22.4964 C   0  0  0  0  0  0
  -18.0287  -28.1373   22.8504 C   0  0  0  0  0  0
  -24.1464  -36.7319   23.2645 C   0  0  0  0  0  0
  -25.9458  -30.8225   21.3748 C   0  0  0  0  0  0
  -26.0170  -29.4596   20.7123 C   0  0  0  0  0  0
  -27.2057  -28.6825   20.6951 C   0  0  0  0  0  0
  -26.0193  -26.9571   19.4640 C   0  0  0  0  0  0
  -24.8471  -27.7234   19.4829 C   0  0  0  0  0  0
  -23.6152  -29.8449   20.1665 C   0  0  0  0  0  0
  -25.4077  -36.3116   24.0382 C   0  0  1  0  0  0
  -20.5880  -28.3646   23.1304 C   0  0  2  0  0  0
  -20.6777  -26.9380   22.5406 C   0  0  0  0  0  0
  -19.5751  -26.6371   21.5214 C   0  0  0  0  0  0
  -18.1931  -26.7922   22.1626 C   0  0  0  0  0  0
  -19.1540  -28.8825   23.2905 C   0  0  0  0  0  0
  -18.9459  -30.1431   23.8916 C   0  0  0  0  0  0
  -17.6456  -30.6578   24.0569 C   0  0  0  0  0  0
  -25.8998  -34.9468   23.5171 C   0  0  0  0  0  0
  -16.5340  -29.9081   23.6332 C   0  0  0  0  0  0
  -16.7275  -28.6492   23.0369 C   0  0  0  0  0  0
  -26.4457  -31.6593   25.0769 C   0  0  0  0  0  0
  -25.3739  -31.3693   26.1536 C   0  0  0  0  0  0
  -27.0310  -30.3049   24.6171 C   0  0  0  0  0  0
  -27.6040  -32.4308   25.7506 C   0  0  0  0  0  0
  -27.5580  -37.1822   24.8467 C   0  0  0  0  0  0
  -21.4162  -29.3021   22.3703 N   0  0  0  0  0  0
  -26.4281  -37.3800   23.9419 N   0  0  0  0  0  0
  -24.6770  -31.0762   22.1043 N   0  0  0  0  0  0
  -23.4225  -28.8181   23.2982 O   0  0  0  0  0  0
  -28.3483  -26.5980   20.1189 O   0  0  0  0  0  0
  -26.5578  -34.8934   22.4737 O   0  0  0  0  0  0
  -23.5384  -32.1297   23.7569 O   0  0  0  0  0  0
  -28.1084  -18.6445   19.3881 C   0  0  0  0  0  0
  -28.2480  -17.3363   18.9162 C   0  0  0  0  0  0
  -28.7322  -18.9453   20.6050 C   0  0  0  0  0  0
  -29.5723  -16.7873   20.7256 C   0  0  0  0  0  0
  -27.5590  -16.8466   17.6620 C   0  0  0  0  0  0
  -31.5677  -16.2832   22.1996 C   0  0  0  0  0  0
  -29.3840  -15.2934   22.7690 C   0  0  0  0  0  0
  -30.2634  -24.1129   19.2922 C   0  0  0  0  0  0
  -29.7937  -24.5400   21.7337 C   0  0  0  0  0  0
  -28.5042  -20.3035   21.2614 C   0  0  0  0  0  0
  -29.3181  -21.4834   20.6682 C   0  0  0  0  0  0
  -28.4606  -22.7694   20.5221 C   0  0  0  0  0  0
  -28.0820  -25.1814   19.9732 C   0  0  0  0  0  0
  -30.2785  -15.6786   21.5690 C   0  0  0  0  0  0
  -29.1749  -24.1536   20.3809 C   0  0  0  0  0  0
  -28.9651  -16.4296   19.5939 N   0  0  0  0  0  0
  -29.4617  -18.0151   21.2616 N   0  0  0  0  0  0
  -31.4580  -12.3806   19.1320 H   0  0  0  0  0  0
  -30.3023  -11.2819   19.7890 H   0  0  0  0  0  0
  -29.7345  -11.8322   17.4095 H   0  0  0  0  0  0
  -29.6439  -13.5342   17.8256 H   0  0  0  0  0  0
  -27.8096  -11.3112   18.7840 H   0  0  0  0  0  0
  -27.3566  -12.6617   17.7802 H   0  0  0  0  0  0
  -27.7230  -14.2316   19.6315 H   0  0  0  0  0  0
  -28.6939  -11.8086   21.1801 H   0  0  0  0  0  0
  -28.3616  -13.2773   21.9246 H   0  0  0  0  0  0
  -25.2724   -9.5752   22.4753 H   0  0  0  0  0  0
  -24.0017   -7.4678   22.7497 H   0  0  0  0  0  0
  -21.0792   -8.8733   19.8972 H   0  0  0  0  0  0
  -22.3588  -10.9681   19.6194 H   0  0  0  0  0  0
  -21.2081   -7.6170   23.9670 H   0  0  0  0  0  0
  -21.1414   -6.0528   25.9019 H   0  0  0  0  0  0
  -22.0661   -2.7636   23.2762 H   0  0  0  0  0  0
  -22.4077  -12.0010   22.4874 H   0  0  0  0  0  0
  -21.1064  -13.1339   22.2605 H   0  0  0  0  0  0
  -24.6559  -15.8303   20.4379 H   0  0  0  0  0  0
  -26.3052  -15.6103   20.1147 H   0  0  0  0  0  0
  -26.7158  -32.5519   23.1229 H   0  0  0  0  0  0
  -25.0075  -33.9730   25.0541 H   0  0  0  0  0  0
  -22.6997  -31.3236   21.4264 H   0  0  0  0  0  0
  -23.3734  -35.9642   23.3287 H   0  0  0  0  0  0
  -24.3572  -36.8910   22.2054 H   0  0  0  0  0  0
  -23.7202  -37.6535   23.6629 H   0  0  0  0  0  0
  -26.0722  -31.5928   20.6127 H   0  0  0  0  0  0
  -26.8305  -30.8682   21.9999 H   0  0  0  0  0  0
  -28.1057  -29.0464   21.1734 H   0  0  0  0  0  0
  -25.9446  -26.0061   18.9600 H   0  0  0  0  0  0
  -23.9533  -27.3438   19.0086 H   0  0  0  0  0  0
  -23.7270  -30.6232   19.4119 H   0  0  0  0  0  0
  -22.7329  -29.2750   19.8710 H   0  0  0  0  0  0
  -25.1253  -36.1995   25.0893 H   0  0  0  0  0  0
  -21.0016  -28.3205   24.1408 H   0  0  0  0  0  0
  -20.5672  -26.2252   23.3590 H   0  0  0  0  0  0
  -21.6651  -26.7425   22.1193 H   0  0  0  0  0  0
  -19.6901  -25.6286   21.1230 H   0  0  0  0  0  0
  -19.6690  -27.3205   20.6769 H   0  0  0  0  0  0
  -17.4199  -26.6688   21.4023 H   0  0  0  0  0  0
  -18.0316  -26.0053   22.9008 H   0  0  0  0  0  0
  -19.7922  -30.7268   24.2285 H   0  0  0  0  0  0
  -17.4992  -31.6271   24.5149 H   0  0  0  0  0  0
  -15.5330  -30.2986   23.7644 H   0  0  0  0  0  0
  -15.8679  -28.0820   22.7082 H   0  0  0  0  0  0
  -24.5931  -30.7000   25.7899 H   0  0  0  0  0  0
  -24.8912  -32.2839   26.4990 H   0  0  0  0  0  0
  -25.8115  -30.8879   27.0296 H   0  0  0  0  0  0
  -26.2890  -29.6798   24.1198 H   0  0  0  0  0  0
  -27.4044  -29.7297   25.4646 H   0  0  0  0  0  0
  -27.8730  -30.4357   23.9378 H   0  0  0  0  0  0
  -27.2696  -33.3621   26.2094 H   0  0  0  0  0  0
  -28.3854  -32.6829   25.0324 H   0  0  0  0  0  0
  -28.0720  -31.8413   26.5397 H   0  0  0  0  0  0
  -28.2623  -38.0103   24.7552 H   0  0  0  0  0  0
  -28.1081  -36.2657   24.6271 H   0  0  0  0  0  0
  -27.2327  -37.1465   25.8883 H   0  0  0  0  0  0
  -20.9301  -29.8777   21.6965 H   0  0  0  0  0  0
  -26.0182  -38.2891   24.1419 H   0  0  0  0  0  0
  -27.5018  -19.3785   18.8701 H   0  0  0  0  0  0
  -26.5122  -17.1517   17.6353 H   0  0  0  0  0  0
  -27.5919  -15.7579   17.6056 H   0  0  0  0  0  0
  -28.0646  -17.2426   16.7836 H   0  0  0  0  0  0
  -31.3403  -17.1028   22.8816 H   0  0  0  0  0  0
  -32.2346  -16.7003   21.4442 H   0  0  0  0  0  0
  -32.1236  -15.5440   22.7773 H   0  0  0  0  0  0
  -29.4363  -16.0236   23.5741 H   0  0  0  0  0  0
  -29.6835  -14.3359   23.1975 H   0  0  0  0  0  0
  -28.3345  -15.2718   22.4716 H   0  0  0  0  0  0
  -30.6766  -25.1055   19.1181 H   0  0  0  0  0  0
  -29.8728  -23.7545   18.3393 H   0  0  0  0  0  0
  -31.0878  -23.4569   19.5744 H   0  0  0  0  0  0
  -29.0513  -24.5346   22.5328 H   0  0  0  0  0  0
  -30.2313  -25.5378   21.6988 H   0  0  0  0  0  0
  -30.5906  -23.8523   22.0178 H   0  0  0  0  0  0
  -28.6927  -20.2299   22.3334 H   0  0  0  0  0  0
  -27.4342  -20.5019   21.1784 H   0  0  0  0  0  0
  -29.6994  -21.2127   19.6818 H   0  0  0  0  0  0
  -30.1978  -21.6582   21.2868 H   0  0  0  0  0  0
  -27.7891  -22.8308   21.3800 H   0  0  0  0  0  0
  -27.8004  -22.6211   19.6661 H   0  0  0  0  0  0
  -27.8243  -24.9805   18.9310 H   0  0  0  0  0  0
  -27.1961  -24.9408   20.5618 H   0  0  0  0  0  0
  1 25  1  0  0  0
  1 30  2  0  0  0
  1 84  1  0  0  0
  2  3  1  0  0  0
  2 25  1  0  0  0
  2 88  1  0  0  0
  2 89  1  0  0  0
  3  4  1  0  0  0
  3 90  1  0  0  0
  3 91  1  0  0  0
  4  5  1  0  0  0
  4 92  1  0  0  0
  4 93  1  0  0  0
  5  6  1  0  0  0
  5 26  1  0  0  0
  5 94  1  0  0  0
  6 25  1  0  0  0
  6 95  1  0  0  0
  6 96  1  0  0  0
  7  8  2  0  0  0
  7 26  1  0  0  0
  7 29  1  0  0  0
  8  9  1  0  0  0
  8 22  1  0  0  0
  9 10  1  0  0  0
  9 27  2  0  0  0
 10 11  2  0  0  0
 10 15  1  0  0  0
 11 12  1  0  0  0
 11 97  1  0  0  0
 12 13  2  0  0  0
 12 98  1  0  0  0
 13 14  1  0  0  0
 13 31  1  0  0  0
 14 15  2  0  0  0
 14 99  1  0  0  0
 15100  1  0  0  0
 16 17  2  0  0  0
 16 21  1  0  0  0
 16 31  1  0  0  0
 17 18  1  0  0  0
 17101  1  0  0  0
 18 19  2  0  0  0
 18102  1  0  0  0
 19 20  1  0  0  0
 19 24  1  0  0  0
 20 21  2  0  0  0
 20103  1  0  0  0
 21 23  1  0  0  0
 22 28  1  0  0  0
 22 32  2  0  0  0
 26 27  1  0  0  0
 28104  1  0  0  0
 28105  1  0  0  0
 29106  1  0  0  0
 29107  1  0  0  0
 33 34  1  0  0  0
 33 66  1  0  0  0
 33 70  2  0  0  0
 34 36  1  0  0  0
 34 59  1  0  0  0
 34108  1  0  0  0
 35 44  2  0  0  0
 35 45  1  0  0  0
 35 68  1  0  0  0
 36 56  1  0  0  0
 36109  1  0  0  0
 37 39  1  0  0  0
 37 47  1  0  0  0
 37 66  1  0  0  0
 37110  1  0  0  0
 38 43  2  0  0  0
 38 46  1  0  0  0
 38 47  1  0  0  0
 39 64  1  0  0  0
 39 67  2  0  0  0
 40 52  1  0  0  0
 40 53  2  0  0  0
 40 58  1  0  0  0
 41111  1  0  0  0
 41112  1  0  0  0
 41113  1  0  0  0
 41 48  1  0  0  0
 42 43  1  0  0  0
 42 66  1  0  0  0
 42114  1  0  0  0
 42115  1  0  0  0
 43 44  1  0  0  0
 44116  1  0  0  0
 45 46  2  0  0  0
 45117  1  0  0  0
 46118  1  0  0  0
 47119  1  0  0  0
 47120  1  0  0  0
 48 56  1  0  0  0
 48 65  1  0  0  0
 48121  1  0  0  0
 49 50  1  0  0  0
 49 53  1  0  0  0
 49 64  1  0  0  0
 49122  1  0  0  0
 50 51  1  0  0  0
 50123  1  0  0  0
 50124  1  0  0  0
 51 52  1  0  0  0
 51125  1  0  0  0
 51126  1  0  0  0
 52127  1  0  0  0
 52128  1  0  0  0
 53 54  1  0  0  0
 54 55  2  0  0  0
 54129  1  0  0  0
 55 57  1  0  0  0
 55130  1  0  0  0
 56 69  2  0  0  0
 57 58  2  0  0  0
 57131  1  0  0  0
 58132  1  0  0  0
 59 60  1  0  0  0
 59 61  1  0  0  0
 59 62  1  0  0  0
 60133  1  0  0  0
 60134  1  0  0  0
 60135  1  0  0  0
 61136  1  0  0  0
 61137  1  0  0  0
 61138  1  0  0  0
 62139  1  0  0  0
 62140  1  0  0  0
 62141  1  0  0  0
 63 65  1  0  0  0
 63142  1  0  0  0
 63143  1  0  0  0
 63144  1  0  0  0
 64145  1  0  0  0
 65146  1  0  0  0
 68 83  1  0  0  0
 71 72  2  0  0  0
 71 73  1  0  0  0
 71147  1  0  0  0
 72 75  1  0  0  0
 72 86  1  0  0  0
 73 80  1  0  0  0
 73 87  2  0  0  0
 74 84  1  0  0  0
 74 86  2  0  0  0
 74 87  1  0  0  0
 75148  1  0  0  0
 75149  1  0  0  0
 75150  1  0  0  0
 76151  1  0  0  0
 76152  1  0  0  0
 76153  1  0  0  0
 76 84  1  0  0  0
 77 84  1  0  0  0
 77154  1  0  0  0
 77155  1  0  0  0
 77156  1  0  0  0
 78157  1  0  0  0
 78158  1  0  0  0
 78159  1  0  0  0
 78 85  1  0  0  0
 79 85  1  0  0  0
 79160  1  0  0  0
 79161  1  0  0  0
 79162  1  0  0  0
 80 81  1  0  0  0
 80163  1  0  0  0
 80164  1  0  0  0
 81 82  1  0  0  0
 81165  1  0  0  0
 81166  1  0  0  0
 82 85  1  0  0  0
 82167  1  0  0  0
 82168  1  0  0  0
 83 85  1  0  0  0
 83169  1  0  0  0
 83170  1  0  0  0
M  ISO  4   1 100  68 101  83 101  84 100
M  END
> <chiral flag>
0

> <version>
0

> <s_m_source_file>
/data/baiqing/PycharmProjects/Reinvent-master-3.2/result/LINK_invent/BTK/process_docking_weight1_custom_sum_contain_oxygen_bond_distance_aromatic_linkinvent_7_9_3/rearranged_h_0074.sdf

> <i_m_source_file_index>
74

> <r_mmod_Potential_Energy-OPLS-2005>
-270.586608886719

> <r_mmod_Stretch_Energy-OPLS-2005>
53.6870231628418

> <r_mmod_Bend_Energy-OPLS-2005>
142.636810302734

> <r_mmod_Torsional_Energy-OPLS-2005>
187.846160888672

> <r_mmod_Improper_Torsional_Energy-OPLS-2005>
2.94951295852661

> <r_mmod_Van_der_Waal_Energy-OPLS-2005>
184.029937744141

> <r_mmod_Electrostatic_Energy-OPLS-2005>
-670.759460449219

> <r_mmod_Solvation_Energy-OPLS-2005>
-188.113235473633

> <b_mmod_Minimization_Converged-OPLS-2005>
0

> <r_mmod_RMS_Derivative-OPLS-2005>
5.45710706710815

$$$$
74
                    3D
 Structure written by MMmdl.
164172  0  0  1  0            999 V2000
  -30.5626  -14.9330   20.4816 C   0  0  0  0  0  0
  -30.4391  -12.5870   19.4964 C   0  0  0  0  0  0
  -29.5177  -12.5514   18.2522 C   0  0  0  0  0  0
  -28.0490  -12.3265   18.6598 C   0  0  0  0  0  0
  -27.6324  -13.2347   19.8427 C   0  0  2  0  0  0
  -28.6797  -13.1926   20.9768 C   0  0  0  0  0  0
  -25.2419  -13.8169   20.5642 C   0  0  0  0  0  0
  -24.1756  -13.0407   20.9209 C   0  0  0  0  0  0
  -24.6380  -11.6895   20.8763 C   0  0  0  0  0  0
  -23.9073  -10.4273   21.0418 C   0  0  0  0  0  0
  -24.3622   -9.4185   21.9188 C   0  0  0  0  0  0
  -23.6293   -8.2226   22.0749 C   0  0  0  0  0  0
  -22.4267   -8.0272   21.3549 C   0  0  0  0  0  0
  -21.9920   -9.0244   20.4645 C   0  0  0  0  0  0
  -22.7254  -10.2119   20.3058 C   0  0  0  0  0  0
  -21.6836   -6.0733   22.5284 C   0  0  0  0  0  0
  -21.4012   -6.5640   23.8218 C   0  0  0  0  0  0
  -21.3663   -5.6791   24.9180 C   0  0  0  0  0  0
  -21.6043   -4.3056   24.7233 C   0  0  0  0  0  0
  -21.8823   -3.8146   23.4355 C   0  0  0  0  0  0
  -21.9184   -4.6959   22.3409 C   0  0  0  0  0  0
  -22.7771  -13.5171   21.1880 C   0  0  0  0  0  0
  -22.1654   -4.2147   21.0983 F   0  0  0  0  0  0
  -21.5629   -3.4546   25.7752 F   0  0  0  0  0  0
  -29.9549  -13.6684   20.4139 N   0  0  0  0  0  0
  -26.2876  -12.9398   20.3228 N   0  0  0  0  0  0
  -25.9309  -11.6540   20.5737 N   0  0  0  0  0  0
  -22.0454  -12.8154   22.0446 N   0  0  0  0  0  0
  -25.3977  -15.1896   20.3965 N   0  0  0  0  0  0
  -31.7273  -14.9498   20.0650 O   0  0  0  0  0  0
  -21.6623   -6.8875   21.4244 O   0  0  0  0  0  0
  -22.3426  -14.5471   20.6728 O   0  0  0  0  0  0
  -24.6397  -31.8466   23.1895 C   0  0  0  0  0  0
  -25.9180  -32.4706   23.8275 C   0  0  1  0  0  0
  -27.2214  -27.1635   20.1538 C   0  0  0  0  0  0
  -25.5940  -33.8513   24.2196 N   0  0  0  0  0  0
  -23.4414  -30.4645   21.5354 C   0  0  2  0  0  0
  -24.8906  -28.8882   20.1176 C   0  0  0  0  0  0
  -22.7540  -29.4554   22.4882 C   0  0  0  0  0  0
  -18.0299  -28.1391   22.8468 C   0  0  0  0  0  0
  -24.1495  -36.7264   23.2639 C   0  0  0  0  0  0
  -25.9942  -30.7281   21.3833 C   0  0  0  0  0  0
  -26.0678  -29.3401   20.7281 C   0  0  0  0  0  0
  -27.2370  -28.4953   20.7239 C   0  0  0  0  0  0
  -26.0204  -26.8002   19.5104 C   0  0  0  0  0  0
  -24.8770  -27.6295   19.4951 C   0  0  0  0  0  0
  -23.6673  -29.7906   20.1562 C   0  0  0  0  0  0
  -25.4126  -36.3034   24.0308 C   0  0  1  0  0  0
  -20.5902  -28.3710   23.1244 C   0  0  2  0  0  0
  -20.6785  -26.9416   22.5406 C   0  0  0  0  0  0
  -19.5761  -26.6375   21.5209 C   0  0  0  0  0  0
  -18.1941  -26.7928   22.1615 C   0  0  0  0  0  0
  -19.1553  -28.8870   23.2845 C   0  0  0  0  0  0
  -18.9474  -30.1468   23.8865 C   0  0  0  0  0  0
  -17.6473  -30.6585   24.0558 C   0  0  0  0  0  0
  -25.9074  -34.9412   23.5062 C   0  0  0  0  0  0
  -16.5362  -29.9080   23.6337 C   0  0  0  0  0  0
  -16.7284  -28.6502   23.0347 C   0  0  0  0  0  0
  -26.4515  -31.6557   25.0700 C   0  0  0  0  0  0
  -25.3711  -31.3738   26.1403 C   0  0  0  0  0  0
  -27.0377  -30.2952   24.6266 C   0  0  0  0  0  0
  -27.6039  -32.4331   25.7490 C   0  0  0  0  0  0
  -27.5580  -37.1786   24.8459 C   0  0  0  0  0  0
  -21.4236  -29.3038   22.3615 N   0  0  0  0  0  0
  -26.4291  -37.3743   23.9402 N   0  0  0  0  0  0
  -24.7111  -31.0348   22.0911 N   0  0  0  0  0  0
  -23.4196  -28.8108   23.3027 O   0  0  0  0  0  0
  -28.3002  -26.2177   20.1558 O   0  0  0  0  0  0
  -26.5665  -34.8900   22.4641 O   0  0  0  0  0  0
  -23.5524  -32.1333   23.7135 O   0  0  0  0  0  0
  -29.1652  -20.5794   20.0809 C   0  0  0  0  0  0
  -29.2374  -21.9588   20.6343 C   0  0  0  0  0  0
  -29.7348  -19.3845   20.7523 C   0  0  0  0  0  0
  -29.9114  -21.9560   21.8866 C   0  0  0  0  0  0
  -30.2211  -23.2230   22.6600 C   0  0  0  0  0  0
  -28.1694  -23.1163   18.5476 C   0  0  0  0  0  0
  -31.2301  -17.9440   19.2549 C   0  0  0  0  0  0
  -28.5355  -16.3142   21.5704 C   0  0  0  0  0  0
  -30.8523  -16.6346   22.3186 C   0  0  0  0  0  0
  -28.1142  -24.7385   20.5750 C   0  0  0  0  0  0
  -28.8629  -23.3945   19.8909 C   0  0  1  0  0  0
  -29.9801  -17.8610   20.1464 C   0  0  2  0  0  0
  -29.9808  -16.4128   21.0553 C   0  0  0  0  0  0
  -30.3540  -19.6205   21.9304 N   0  0  0  0  0  0
  -30.4037  -20.8371   22.4847 N   0  0  0  0  0  0
  -31.4732  -12.7302   19.1808 H   0  0  0  0  0  0
  -30.4346  -11.6223   20.0042 H   0  0  0  0  0  0
  -29.8374  -11.7692   17.5622 H   0  0  0  0  0  0
  -29.6076  -13.4932   17.7075 H   0  0  0  0  0  0
  -27.9360  -11.2786   18.9408 H   0  0  0  0  0  0
  -27.3896  -12.4881   17.8066 H   0  0  0  0  0  0
  -27.6084  -14.2421   19.4317 H   0  0  0  0  0  0
  -28.7764  -12.1732   21.3526 H   0  0  0  0  0  0
  -28.3628  -13.7551   21.8449 H   0  0  0  0  0  0
  -25.2770   -9.5653   22.4752 H   0  0  0  0  0  0
  -24.0014   -7.4612   22.7453 H   0  0  0  0  0  0
  -21.0867   -8.8757   19.8938 H   0  0  0  0  0  0
  -22.3730  -10.9652   19.6153 H   0  0  0  0  0  0
  -21.2012   -7.6148   23.9726 H   0  0  0  0  0  0
  -21.1469   -6.0517   25.9080 H   0  0  0  0  0  0
  -22.0602   -2.7607   23.2858 H   0  0  0  0  0  0
  -22.4101  -11.9824   22.4832 H   0  0  0  0  0  0
  -21.1056  -13.1130   22.2654 H   0  0  0  0  0  0
  -24.6272  -15.8396   20.5052 H   0  0  0  0  0  0
  -26.2425  -15.6330   20.0628 H   0  0  0  0  0  0
  -26.7237  -32.5328   23.1000 H   0  0  0  0  0  0
  -25.0040  -33.9635   25.0308 H   0  0  0  0  0  0
  -22.7408  -31.2882   21.3827 H   0  0  0  0  0  0
  -23.3754  -35.9599   23.3283 H   0  0  0  0  0  0
  -24.3570  -36.8923   22.2056 H   0  0  0  0  0  0
  -23.7265  -37.6455   23.6699 H   0  0  0  0  0  0
  -26.1475  -31.4827   20.6114 H   0  0  0  0  0  0
  -26.8652  -30.7793   22.0250 H   0  0  0  0  0  0
  -28.1400  -28.8427   21.2052 H   0  0  0  0  0  0
  -25.9560  -25.8394   19.0199 H   0  0  0  0  0  0
  -23.9773  -27.2779   19.0090 H   0  0  0  0  0  0
  -23.8042  -30.5653   19.4008 H   0  0  0  0  0  0
  -22.7822  -29.2331   19.8445 H   0  0  0  0  0  0
  -25.1318  -36.1856   25.0800 H   0  0  0  0  0  0
  -20.9988  -28.3309   24.1369 H   0  0  0  0  0  0
  -20.5689  -26.2318   23.3619 H   0  0  0  0  0  0
  -21.6654  -26.7434   22.1205 H   0  0  0  0  0  0
  -19.6926  -25.6284   21.1250 H   0  0  0  0  0  0
  -19.6707  -27.3170   20.6729 H   0  0  0  0  0  0
  -17.4212  -26.6662   21.4019 H   0  0  0  0  0  0
  -18.0345  -26.0082   22.9024 H   0  0  0  0  0  0
  -19.7949  -30.7292   24.2216 H   0  0  0  0  0  0
  -17.5027  -31.6262   24.5161 H   0  0  0  0  0  0
  -15.5359  -30.2973   23.7684 H   0  0  0  0  0  0
  -15.8681  -28.0819   22.7069 H   0  0  0  0  0  0
  -24.5885  -30.7094   25.7721 H   0  0  0  0  0  0
  -24.8908  -32.2920   26.4793 H   0  0  0  0  0  0
  -25.8005  -30.8927   27.0201 H   0  0  0  0  0  0
  -26.2985  -29.6673   24.1281 H   0  0  0  0  0  0
  -27.3991  -29.7252   25.4836 H   0  0  0  0  0  0
  -27.8893  -30.4168   23.9571 H   0  0  0  0  0  0
  -27.2606  -33.3638   26.2015 H   0  0  0  0  0  0
  -28.3872  -32.6887   25.0344 H   0  0  0  0  0  0
  -28.0676  -31.8499   26.5453 H   0  0  0  0  0  0
  -28.2578  -38.0101   24.7512 H   0  0  0  0  0  0
  -28.1100  -36.2629   24.6284 H   0  0  0  0  0  0
  -27.2292  -37.1426   25.8859 H   0  0  0  0  0  0
  -20.9442  -29.8740   21.6783 H   0  0  0  0  0  0
  -26.0154  -38.2807   24.1412 H   0  0  0  0  0  0
  -28.7346  -20.4335   19.1013 H   0  0  0  0  0  0
  -30.5768  -24.0170   22.0048 H   0  0  0  0  0  0
  -31.0035  -23.0513   23.3999 H   0  0  0  0  0  0
  -29.3387  -23.5627   23.2014 H   0  0  0  0  0  0
  -28.7826  -22.4887   17.9016 H   0  0  0  0  0  0
  -27.9762  -24.0411   18.0034 H   0  0  0  0  0  0
  -27.2111  -22.6171   18.6948 H   0  0  0  0  0  0
  -32.1314  -18.0805   19.8515 H   0  0  0  0  0  0
  -31.1587  -18.7900   18.5702 H   0  0  0  0  0  0
  -31.3584  -17.0551   18.6402 H   0  0  0  0  0  0
  -28.1492  -17.2954   21.8476 H   0  0  0  0  0  0
  -28.4473  -15.7123   22.4717 H   0  0  0  0  0  0
  -27.8739  -15.9333   20.8031 H   0  0  0  0  0  0
  -31.0252  -15.7047   22.8648 H   0  0  0  0  0  0
  -30.3849  -17.3106   23.0337 H   0  0  0  0  0  0
  -31.8305  -17.0428   22.0620 H   0  0  0  0  0  0
  -28.3978  -24.7756   21.6220 H   0  0  0  0  0  0
  -27.0470  -24.5221   20.6197 H   0  0  0  0  0  0
  -29.8544  -23.7697   19.6344 H   0  0  0  0  0  0
  -29.1482  -17.7448   19.4497 H   0  0  0  0  0  0
  1 25  1  0  0  0
  1 30  2  0  0  0
  1 83  1  0  0  0
  2  3  1  0  0  0
  2 25  1  0  0  0
  2 86  1  0  0  0
  2 87  1  0  0  0
  3  4  1  0  0  0
  3 88  1  0  0  0
  3 89  1  0  0  0
  4  5  1  0  0  0
  4 90  1  0  0  0
  4 91  1  0  0  0
  5  6  1  0  0  0
  5 26  1  0  0  0
  5 92  1  0  0  0
  6 25  1  0  0  0
  6 93  1  0  0  0
  6 94  1  0  0  0
  7  8  2  0  0  0
  7 26  1  0  0  0
  7 29  1  0  0  0
  8  9  1  0  0  0
  8 22  1  0  0  0
  9 10  1  0  0  0
  9 27  2  0  0  0
 10 11  2  0  0  0
 10 15  1  0  0  0
 11 12  1  0  0  0
 11 95  1  0  0  0
 12 13  2  0  0  0
 12 96  1  0  0  0
 13 14  1  0  0  0
 13 31  1  0  0  0
 14 15  2  0  0  0
 14 97  1  0  0  0
 15 98  1  0  0  0
 16 17  2  0  0  0
 16 21  1  0  0  0
 16 31  1  0  0  0
 17 18  1  0  0  0
 17 99  1  0  0  0
 18 19  2  0  0  0
 18100  1  0  0  0
 19 20  1  0  0  0
 19 24  1  0  0  0
 20 21  2  0  0  0
 20101  1  0  0  0
 21 23  1  0  0  0
 22 28  1  0  0  0
 22 32  2  0  0  0
 26 27  1  0  0  0
 28102  1  0  0  0
 28103  1  0  0  0
 29104  1  0  0  0
 29105  1  0  0  0
 33 34  1  0  0  0
 33 66  1  0  0  0
 33 70  2  0  0  0
 34 36  1  0  0  0
 34 59  1  0  0  0
 34106  1  0  0  0
 35 44  2  0  0  0
 35 45  1  0  0  0
 35 68  1  0  0  0
 36 56  1  0  0  0
 36107  1  0  0  0
 37 39  1  0  0  0
 37 47  1  0  0  0
 37 66  1  0  0  0
 37108  1  0  0  0
 38 43  2  0  0  0
 38 46  1  0  0  0
 38 47  1  0  0  0
 39 64  1  0  0  0
 39 67  2  0  0  0
 40 52  1  0  0  0
 40 53  2  0  0  0
 40 58  1  0  0  0
 41109  1  0  0  0
 41110  1  0  0  0
 41111  1  0  0  0
 41 48  1  0  0  0
 42 43  1  0  0  0
 42 66  1  0  0  0
 42112  1  0  0  0
 42113  1  0  0  0
 43 44  1  0  0  0
 44114  1  0  0  0
 45 46  2  0  0  0
 45115  1  0  0  0
 46116  1  0  0  0
 47117  1  0  0  0
 47118  1  0  0  0
 48 56  1  0  0  0
 48 65  1  0  0  0
 48119  1  0  0  0
 49 50  1  0  0  0
 49 53  1  0  0  0
 49 64  1  0  0  0
 49120  1  0  0  0
 50 51  1  0  0  0
 50121  1  0  0  0
 50122  1  0  0  0
 51 52  1  0  0  0
 51123  1  0  0  0
 51124  1  0  0  0
 52125  1  0  0  0
 52126  1  0  0  0
 53 54  1  0  0  0
 54 55  2  0  0  0
 54127  1  0  0  0
 55 57  1  0  0  0
 55128  1  0  0  0
 56 69  2  0  0  0
 57 58  2  0  0  0
 57129  1  0  0  0
 58130  1  0  0  0
 59 60  1  0  0  0
 59 61  1  0  0  0
 59 62  1  0  0  0
 60131  1  0  0  0
 60132  1  0  0  0
 60133  1  0  0  0
 61134  1  0  0  0
 61135  1  0  0  0
 61136  1  0  0  0
 62137  1  0  0  0
 62138  1  0  0  0
 62139  1  0  0  0
 63 65  1  0  0  0
 63140  1  0  0  0
 63141  1  0  0  0
 63142  1  0  0  0
 64143  1  0  0  0
 65144  1  0  0  0
 68 80  1  0  0  0
 71 72  2  0  0  0
 71 73  1  0  0  0
 71145  1  0  0  0
 72 74  1  0  0  0
 72 81  1  0  0  0
 73 82  1  0  0  0
 73 84  2  0  0  0
 74 75  1  0  0  0
 74 85  2  0  0  0
 75146  1  0  0  0
 75147  1  0  0  0
 75148  1  0  0  0
 76149  1  0  0  0
 76150  1  0  0  0
 76151  1  0  0  0
 76 81  1  0  0  0
 77152  1  0  0  0
 77153  1  0  0  0
 77154  1  0  0  0
 77 82  1  0  0  0
 78155  1  0  0  0
 78156  1  0  0  0
 78157  1  0  0  0
 78 83  1  0  0  0
 79 83  1  0  0  0
 79158  1  0  0  0
 79159  1  0  0  0
 79160  1  0  0  0
 80 81  1  0  0  0
 80161  1  0  0  0
 80162  1  0  0  0
 81163  1  0  0  0
 82 83  1  0  0  0
 82164  1  0  0  0
 84 85  1  0  0  0
M  ISO  4   1 100  68 101  80 101  83 100
M  END
> <chiral flag>
0

> <version>
0

> <s_m_source_file>
/data/baiqing/PycharmProjects/Reinvent-master-3.2/result/LINK_invent/BTK/process_docking_weight1_custom_sum_contain_oxygen_bond_distance_aromatic_linkinvent_7_9_3/rearranged_h_0074.sdf

> <i_m_source_file_index>
75

> <r_mmod_Potential_Energy-OPLS-2005>
573.519775390625

> <r_mmod_Stretch_Energy-OPLS-2005>
279.706268310547

> <r_mmod_Bend_Energy-OPLS-2005>
289.868347167969

> <r_mmod_Torsional_Energy-OPLS-2005>
205.684997558594

> <r_mmod_Improper_Torsional_Energy-OPLS-2005>
4.24043273925781

> <r_mmod_Van_der_Waal_Energy-OPLS-2005>
147.119384765625

> <r_mmod_Electrostatic_Energy-OPLS-2005>
-308.589447021484

> <r_mmod_Solvation_Energy-OPLS-2005>
-204.126770019531

> <b_mmod_Minimization_Converged-OPLS-2005>
0

> <r_mmod_RMS_Derivative-OPLS-2005>
1.69934260845184

$$$$
75
                    3D
 Structure written by MMmdl.
152160  0  0  1  0            999 V2000
  -30.5854  -14.9578   20.3863 C   0  0  0  0  0  0
  -30.4403  -12.5844   19.5087 C   0  0  0  0  0  0
  -29.5283  -12.5015   18.2639 C   0  0  0  0  0  0
  -28.0549  -12.3097   18.6684 C   0  0  0  0  0  0
  -27.6267  -13.2492   19.8266 C   0  0  2  0  0  0
  -28.6706  -13.3162   20.9577 C   0  0  0  0  0  0
  -25.2458  -13.8202   20.5739 C   0  0  0  0  0  0
  -24.1756  -13.0410   20.9162 C   0  0  0  0  0  0
  -24.6388  -11.6901   20.8686 C   0  0  0  0  0  0
  -23.9070  -10.4270   21.0353 C   0  0  0  0  0  0
  -24.3627   -9.4205   21.9142 C   0  0  0  0  0  0
  -23.6312   -8.2242   22.0729 C   0  0  0  0  0  0
  -22.4287   -8.0257   21.3534 C   0  0  0  0  0  0
  -21.9905   -9.0229   20.4640 C   0  0  0  0  0  0
  -22.7228  -10.2112   20.3037 C   0  0  0  0  0  0
  -21.6867   -6.0710   22.5266 C   0  0  0  0  0  0
  -21.4012   -6.5615   23.8192 C   0  0  0  0  0  0
  -21.3673   -5.6777   24.9165 C   0  0  0  0  0  0
  -21.6076   -4.3047   24.7232 C   0  0  0  0  0  0
  -21.8832   -3.8131   23.4351 C   0  0  0  0  0  0
  -21.9209   -4.6939   22.3400 C   0  0  0  0  0  0
  -22.7786  -13.5189   21.1848 C   0  0  0  0  0  0
  -22.1675   -4.2122   21.0980 F   0  0  0  0  0  0
  -21.5643   -3.4538   25.7750 F   0  0  0  0  0  0
  -29.9521  -13.7111   20.3580 N   0  0  0  0  0  0
  -26.2888  -12.9444   20.3242 N   0  0  0  0  0  0
  -25.9339  -11.6564   20.5715 N   0  0  0  0  0  0
  -22.0467  -12.8186   22.0429 N   0  0  0  0  0  0
  -25.4117  -15.1954   20.4360 N   0  0  0  0  0  0
  -31.8065  -14.9428   20.2033 O   0  0  0  0  0  0
  -21.6656   -6.8851   21.4233 O   0  0  0  0  0  0
  -22.3468  -14.5487   20.6694 O   0  0  0  0  0  0
  -24.6454  -31.8422   23.1834 C   0  0  0  0  0  0
  -25.9223  -32.4669   23.8225 C   0  0  1  0  0  0
  -27.2147  -27.1241   20.1469 C   0  0  0  0  0  0
  -25.5957  -33.8477   24.2137 N   0  0  0  0  0  0
  -23.4490  -30.4589   21.5306 C   0  0  2  0  0  0
  -24.8951  -28.8821   20.1057 C   0  0  0  0  0  0
  -22.7570  -29.4541   22.4852 C   0  0  0  0  0  0
  -18.0305  -28.1385   22.8489 C   0  0  0  0  0  0
  -24.1495  -36.7255   23.2635 C   0  0  0  0  0  0
  -26.0051  -30.7098   21.3857 C   0  0  0  0  0  0
  -26.0741  -29.3214   20.7230 C   0  0  0  0  0  0
  -27.2351  -28.4590   20.7244 C   0  0  0  0  0  0
  -26.0100  -26.7890   19.4896 C   0  0  0  0  0  0
  -24.8759  -27.6290   19.4749 C   0  0  0  0  0  0
  -23.6717  -29.7829   20.1515 C   0  0  0  0  0  0
  -25.4127  -36.3016   24.0301 C   0  0  1  0  0  0
  -20.5911  -28.3717   23.1221 C   0  0  2  0  0  0
  -20.6781  -26.9428   22.5390 C   0  0  0  0  0  0
  -19.5752  -26.6377   21.5199 C   0  0  0  0  0  0
  -18.1937  -26.7920   22.1636 C   0  0  0  0  0  0
  -19.1559  -28.8876   23.2843 C   0  0  0  0  0  0
  -18.9479  -30.1478   23.8862 C   0  0  0  0  0  0
  -17.6468  -30.6577   24.0568 C   0  0  0  0  0  0
  -25.9095  -34.9391   23.5039 C   0  0  0  0  0  0
  -16.5360  -29.9059   23.6361 C   0  0  0  0  0  0
  -16.7290  -28.6485   23.0376 C   0  0  0  0  0  0
  -26.4517  -31.6542   25.0688 C   0  0  0  0  0  0
  -25.3674  -31.3748   26.1365 C   0  0  0  0  0  0
  -27.0383  -30.2920   24.6306 C   0  0  0  0  0  0
  -27.6031  -32.4337   25.7461 C   0  0  0  0  0  0
  -27.5587  -37.1768   24.8456 C   0  0  0  0  0  0
  -21.4263  -29.3039   22.3603 N   0  0  0  0  0  0
  -26.4285  -37.3742   23.9416 N   0  0  0  0  0  0
  -24.7193  -31.0248   22.0869 N   0  0  0  0  0  0
  -23.4210  -28.8119   23.3029 O   0  0  0  0  0  0
  -28.2634  -26.1331   20.2320 O   0  0  0  0  0  0
  -26.5703  -34.8902   22.4628 O   0  0  0  0  0  0
  -23.5577  -32.1318   23.7049 O   0  0  0  0  0  0
  -30.4015  -17.6843   20.7802 C   0  0  0  0  0  0
  -29.8862  -16.4134   20.4098 C   0  0  0  0  0  0
  -28.4541  -18.1038   19.8447 C   0  0  0  0  0  0
  -27.2241  -18.7433   19.2905 C   0  0  0  0  0  0
  -28.7053  -21.6376   20.1209 C   0  0  0  0  0  0
  -28.9719  -23.2852   20.4639 C   0  0  0  0  0  0
  -29.6444  -20.3419   20.6840 C   0  0  0  0  0  0
  -28.0033  -24.6036   20.0230 C   0  0  0  0  0  0
  -29.4991  -18.7460   20.4282 N   0  0  0  0  0  0
  -28.7005  -16.7584   19.8023 N   0  3  0  0  0  0
  -31.4733  -12.7189   19.1881 H   0  0  0  0  0  0
  -30.4308  -11.6445   20.0631 H   0  0  0  0  0  0
  -29.8436  -11.6746   17.6265 H   0  0  0  0  0  0
  -29.6399  -13.4088   17.6692 H   0  0  0  0  0  0
  -27.9342  -11.2684   18.9727 H   0  0  0  0  0  0
  -27.4045  -12.4519   17.8042 H   0  0  0  0  0  0
  -27.5746  -14.2405   19.3801 H   0  0  0  0  0  0
  -28.7590  -12.3519   21.4614 H   0  0  0  0  0  0
  -28.3709  -14.0342   21.7196 H   0  0  0  0  0  0
  -25.2768   -9.5703   22.4711 H   0  0  0  0  0  0
  -24.0043   -7.4635   22.7440 H   0  0  0  0  0  0
  -21.0843   -8.8743   19.8939 H   0  0  0  0  0  0
  -22.3660  -10.9653   19.6157 H   0  0  0  0  0  0
  -21.1961   -7.6118   23.9692 H   0  0  0  0  0  0
  -21.1498   -6.0496   25.9071 H   0  0  0  0  0  0
  -22.0600   -2.7584   23.2858 H   0  0  0  0  0  0
  -22.4104  -11.9863   22.4853 H   0  0  0  0  0  0
  -21.1071  -13.1172   22.2615 H   0  0  0  0  0  0
  -24.6488  -15.8355   20.6240 H   0  0  0  0  0  0
  -26.3050  -15.6562   20.4053 H   0  0  0  0  0  0
  -26.7284  -32.5244   23.0953 H   0  0  0  0  0  0
  -25.0013  -33.9548   25.0221 H   0  0  0  0  0  0
  -22.7539  -31.2878   21.3737 H   0  0  0  0  0  0
  -23.3760  -35.9583   23.3259 H   0  0  0  0  0  0
  -24.3599  -36.8951   22.2064 H   0  0  0  0  0  0
  -23.7239  -37.6424   23.6718 H   0  0  0  0  0  0
  -26.1708  -31.4687   20.6203 H   0  0  0  0  0  0
  -26.8698  -30.7492   22.0359 H   0  0  0  0  0  0
  -28.1334  -28.7875   21.2281 H   0  0  0  0  0  0
  -25.9085  -25.8284   19.0039 H   0  0  0  0  0  0
  -23.9747  -27.2865   18.9842 H   0  0  0  0  0  0
  -23.8019  -30.5533   19.3885 H   0  0  0  0  0  0
  -22.7859  -29.2194   19.8513 H   0  0  0  0  0  0
  -25.1322  -36.1824   25.0792 H   0  0  0  0  0  0
  -21.0003  -28.3301   24.1338 H   0  0  0  0  0  0
  -20.5654  -26.2346   23.3621 H   0  0  0  0  0  0
  -21.6647  -26.7420   22.1209 H   0  0  0  0  0  0
  -19.6911  -25.6274   21.1275 H   0  0  0  0  0  0
  -19.6661  -27.3147   20.6699 H   0  0  0  0  0  0
  -17.4207  -26.6662   21.4051 H   0  0  0  0  0  0
  -18.0360  -26.0042   22.9027 H   0  0  0  0  0  0
  -19.7944  -30.7326   24.2182 H   0  0  0  0  0  0
  -17.5009  -31.6251   24.5175 H   0  0  0  0  0  0
  -15.5356  -30.2952   23.7669 H   0  0  0  0  0  0
  -15.8703  -28.0784   22.7095 H   0  0  0  0  0  0
  -24.5802  -30.7187   25.7644 H   0  0  0  0  0  0
  -24.8922  -32.2944   26.4785 H   0  0  0  0  0  0
  -25.7903  -30.8872   27.0153 H   0  0  0  0  0  0
  -26.2998  -29.6616   24.1333 H   0  0  0  0  0  0
  -27.3981  -29.7264   25.4906 H   0  0  0  0  0  0
  -27.8933  -30.4135   23.9650 H   0  0  0  0  0  0
  -27.2582  -33.3622   26.2024 H   0  0  0  0  0  0
  -28.3812  -32.6932   25.0272 H   0  0  0  0  0  0
  -28.0738  -31.8496   26.5375 H   0  0  0  0  0  0
  -28.2567  -38.0101   24.7567 H   0  0  0  0  0  0
  -28.1129  -36.2639   24.6207 H   0  0  0  0  0  0
  -27.2342  -37.1337   25.8867 H   0  0  0  0  0  0
  -20.9462  -29.8768   21.6800 H   0  0  0  0  0  0
  -26.0150  -38.2820   24.1393 H   0  0  0  0  0  0
  -31.3489  -17.8967   21.2553 H   0  0  0  0  0  0
  -26.7202  -19.2893   20.0857 H   0  0  0  0  0  0
  -26.5587  -17.9716   18.9062 H   0  0  0  0  0  0
  -27.5091  -19.4141   18.4818 H   0  0  0  0  0  0
  -28.6926  -21.5519   19.0346 H   0  0  0  0  0  0
  -27.6803  -21.4349   20.4263 H   0  0  0  0  0  0
  -29.9725  -23.5150   20.0932 H   0  0  0  0  0  0
  -29.0646  -23.3467   21.5490 H   0  0  0  0  0  0
  -29.6522  -20.4306   21.7701 H   0  0  0  0  0  0
  -30.6704  -20.5642   20.3904 H   0  0  0  0  0  0
  -27.0365  -24.4082   20.4876 H   0  0  0  0  0  0
  -27.8285  -24.4879   18.9526 H   0  0  0  0  0  0
  -28.1349  -16.0979   19.2900 H   0  0  0  0  0  0
  1 25  1  0  0  0
  1 30  2  0  0  0
  1 72  1  0  0  0
  2  3  1  0  0  0
  2 25  1  0  0  0
  2 81  1  0  0  0
  2 82  1  0  0  0
  3  4  1  0  0  0
  3 83  1  0  0  0
  3 84  1  0  0  0
  4  5  1  0  0  0
  4 85  1  0  0  0
  4 86  1  0  0  0
  5  6  1  0  0  0
  5 26  1  0  0  0
  5 87  1  0  0  0
  6 25  1  0  0  0
  6 88  1  0  0  0
  6 89  1  0  0  0
  7  8  2  0  0  0
  7 26  1  0  0  0
  7 29  1  0  0  0
  8  9  1  0  0  0
  8 22  1  0  0  0
  9 10  1  0  0  0
  9 27  2  0  0  0
 10 11  2  0  0  0
 10 15  1  0  0  0
 11 12  1  0  0  0
 11 90  1  0  0  0
 12 13  2  0  0  0
 12 91  1  0  0  0
 13 14  1  0  0  0
 13 31  1  0  0  0
 14 15  2  0  0  0
 14 92  1  0  0  0
 15 93  1  0  0  0
 16 17  2  0  0  0
 16 21  1  0  0  0
 16 31  1  0  0  0
 17 18  1  0  0  0
 17 94  1  0  0  0
 18 19  2  0  0  0
 18 95  1  0  0  0
 19 20  1  0  0  0
 19 24  1  0  0  0
 20 21  2  0  0  0
 20 96  1  0  0  0
 21 23  1  0  0  0
 22 28  1  0  0  0
 22 32  2  0  0  0
 26 27  1  0  0  0
 28 97  1  0  0  0
 28 98  1  0  0  0
 29 99  1  0  0  0
 29100  1  0  0  0
 33 34  1  0  0  0
 33 66  1  0  0  0
 33 70  2  0  0  0
 34 36  1  0  0  0
 34 59  1  0  0  0
 34101  1  0  0  0
 35 44  2  0  0  0
 35 45  1  0  0  0
 35 68  1  0  0  0
 36 56  1  0  0  0
 36102  1  0  0  0
 37 39  1  0  0  0
 37 47  1  0  0  0
 37 66  1  0  0  0
 37103  1  0  0  0
 38 43  2  0  0  0
 38 46  1  0  0  0
 38 47  1  0  0  0
 39 64  1  0  0  0
 39 67  2  0  0  0
 40 52  1  0  0  0
 40 53  2  0  0  0
 40 58  1  0  0  0
 41104  1  0  0  0
 41105  1  0  0  0
 41106  1  0  0  0
 41 48  1  0  0  0
 42 43  1  0  0  0
 42 66  1  0  0  0
 42107  1  0  0  0
 42108  1  0  0  0
 43 44  1  0  0  0
 44109  1  0  0  0
 45 46  2  0  0  0
 45110  1  0  0  0
 46111  1  0  0  0
 47112  1  0  0  0
 47113  1  0  0  0
 48 56  1  0  0  0
 48 65  1  0  0  0
 48114  1  0  0  0
 49 50  1  0  0  0
 49 53  1  0  0  0
 49 64  1  0  0  0
 49115  1  0  0  0
 50 51  1  0  0  0
 50116  1  0  0  0
 50117  1  0  0  0
 51 52  1  0  0  0
 51118  1  0  0  0
 51119  1  0  0  0
 52120  1  0  0  0
 52121  1  0  0  0
 53 54  1  0  0  0
 54 55  2  0  0  0
 54122  1  0  0  0
 55 57  1  0  0  0
 55123  1  0  0  0
 56 69  2  0  0  0
 57 58  2  0  0  0
 57124  1  0  0  0
 58125  1  0  0  0
 59 60  1  0  0  0
 59 61  1  0  0  0
 59 62  1  0  0  0
 60126  1  0  0  0
 60127  1  0  0  0
 60128  1  0  0  0
 61129  1  0  0  0
 61130  1  0  0  0
 61131  1  0  0  0
 62132  1  0  0  0
 62133  1  0  0  0
 62134  1  0  0  0
 63 65  1  0  0  0
 63135  1  0  0  0
 63136  1  0  0  0
 63137  1  0  0  0
 64138  1  0  0  0
 65139  1  0  0  0
 68 78  1  0  0  0
 71 72  2  0  0  0
 71 79  1  0  0  0
 71140  1  0  0  0
 72 80  1  0  0  0
 73 74  1  0  0  0
 73 79  1  0  0  0
 73 80  2  0  0  0
 74141  1  0  0  0
 74142  1  0  0  0
 74143  1  0  0  0
 75 76  1  0  0  0
 75 77  1  0  0  0
 75144  1  0  0  0
 75145  1  0  0  0
 76 78  1  0  0  0
 76146  1  0  0  0
 76147  1  0  0  0
 77 79  1  0  0  0
 77148  1  0  0  0
 77149  1  0  0  0
 78150  1  0  0  0
 78151  1  0  0  0
 80152  1  0  0  0
M  CHG  1  80   1
M  ISO  4   1 100  68 101  72 100  78 101
M  END
> <chiral flag>
0

> <version>
0

> <s_m_source_file>
/data/baiqing/PycharmProjects/Reinvent-master-3.2/result/LINK_invent/BTK/process_docking_weight1_custom_sum_contain_oxygen_bond_distance_aromatic_linkinvent_7_9_3/rearranged_h_0074.sdf

> <i_m_source_file_index>
76

> <r_mmod_Potential_Energy-OPLS-2005>
477.441741943359

> <r_mmod_Stretch_Energy-OPLS-2005>
271.368835449219

> <r_mmod_Bend_Energy-OPLS-2005>
273.448822021484

> <r_mmod_Torsional_Energy-OPLS-2005>
221.901794433594

> <r_mmod_Improper_Torsional_Energy-OPLS-2005>
6.17626285552979

> <r_mmod_Van_der_Waal_Energy-OPLS-2005>
103.615188598633

> <r_mmod_Electrostatic_Energy-OPLS-2005>
-181.843551635742

> <r_mmod_Solvation_Energy-OPLS-2005>
-419.917327880859

> <b_mmod_Minimization_Converged-OPLS-2005>
0

> <r_mmod_RMS_Derivative-OPLS-2005>
3.42219567298889

$$$$
76
                    3D
 Structure written by MMmdl.
176184  0  0  1  0            999 V2000
  -30.6819  -14.5325   20.5719 C   0  0  0  0  0  0
  -30.4269  -12.3457   19.4286 C   0  0  0  0  0  0
  -29.4930  -12.5111   18.2111 C   0  0  0  0  0  0
  -28.0152  -12.3627   18.6263 C   0  0  0  0  0  0
  -27.6548  -13.2126   19.8740 C   0  0  2  0  0  0
  -28.7022  -13.0151   20.9930 C   0  0  0  0  0  0
  -25.2498  -13.8043   20.5782 C   0  0  0  0  0  0
  -24.1761  -13.0323   20.9211 C   0  0  0  0  0  0
  -24.6365  -11.6832   20.8722 C   0  0  0  0  0  0
  -23.9058  -10.4235   21.0388 C   0  0  0  0  0  0
  -24.3606   -9.4176   21.9182 C   0  0  0  0  0  0
  -23.6276   -8.2217   22.0758 C   0  0  0  0  0  0
  -22.4261   -8.0260   21.3549 C   0  0  0  0  0  0
  -21.9892   -9.0227   20.4645 C   0  0  0  0  0  0
  -22.7225  -10.2099   20.3048 C   0  0  0  0  0  0
  -21.6842   -6.0719   22.5279 C   0  0  0  0  0  0
  -21.4004   -6.5628   23.8208 C   0  0  0  0  0  0
  -21.3652   -5.6788   24.9169 C   0  0  0  0  0  0
  -21.6048   -4.3051   24.7219 C   0  0  0  0  0  0
  -21.8828   -3.8143   23.4344 C   0  0  0  0  0  0
  -21.9197   -4.6955   22.3395 C   0  0  0  0  0  0
  -22.7805  -13.5162   21.1849 C   0  0  0  0  0  0
  -22.1668   -4.2142   21.0976 F   0  0  0  0  0  0
  -21.5626   -3.4539   25.7733 F   0  0  0  0  0  0
  -30.0262  -13.3420   20.4351 N   0  0  0  0  0  0
  -26.2971  -12.9285   20.3383 N   0  0  0  0  0  0
  -25.9301  -11.6435   20.5761 N   0  0  0  0  0  0
  -22.0446  -12.8149   22.0404 N   0  0  0  0  0  0
  -25.4067  -15.1700   20.4308 N   0  0  0  0  0  0
  -31.8160  -14.7207   20.1266 O   0  0  0  0  0  0
  -21.6631   -6.8851   21.4238 O   0  0  0  0  0  0
  -22.3510  -14.5471   20.6705 O   0  0  0  0  0  0
  -24.6208  -31.8684   23.2120 C   0  0  0  0  0  0
  -25.9087  -32.4806   23.8415 C   0  0  1  0  0  0
  -27.2203  -27.3940   20.0772 C   0  0  0  0  0  0
  -25.5926  -33.8605   24.2334 N   0  0  0  0  0  0
  -23.4072  -30.4986   21.5549 C   0  0  2  0  0  0
  -24.8467  -28.9694   20.1094 C   0  0  0  0  0  0
  -22.7441  -29.4665   22.4965 C   0  0  0  0  0  0
  -18.0294  -28.1386   22.8490 C   0  0  0  0  0  0
  -24.1504  -36.7300   23.2631 C   0  0  0  0  0  0
  -25.9440  -30.8200   21.3749 C   0  0  0  0  0  0
  -26.0122  -29.4554   20.7125 C   0  0  0  0  0  0
  -27.1955  -28.6740   20.6947 C   0  0  0  0  0  0
  -26.0179  -26.9332   19.4833 C   0  0  0  0  0  0
  -24.8467  -27.7097   19.4945 C   0  0  0  0  0  0
  -23.6170  -29.8471   20.1639 C   0  0  0  0  0  0
  -25.4128  -36.3101   24.0332 C   0  0  1  0  0  0
  -20.5894  -28.3676   23.1297 C   0  0  2  0  0  0
  -20.6794  -26.9409   22.5409 C   0  0  0  0  0  0
  -19.5752  -26.6392   21.5214 C   0  0  0  0  0  0
  -18.1924  -26.7926   22.1626 C   0  0  0  0  0  0
  -19.1552  -28.8852   23.2884 C   0  0  0  0  0  0
  -18.9473  -30.1459   23.8887 C   0  0  0  0  0  0
  -17.6465  -30.6579   24.0578 C   0  0  0  0  0  0
  -25.9051  -34.9450   23.5115 C   0  0  0  0  0  0
  -16.5354  -29.9081   23.6344 C   0  0  0  0  0  0
  -16.7279  -28.6516   23.0329 C   0  0  0  0  0  0
  -26.4504  -31.6599   25.0748 C   0  0  0  0  0  0
  -25.3743  -31.3726   26.1467 C   0  0  0  0  0  0
  -27.0357  -30.3042   24.6158 C   0  0  0  0  0  0
  -27.6073  -32.4339   25.7509 C   0  0  0  0  0  0
  -27.5594  -37.1806   24.8457 C   0  0  0  0  0  0
  -21.4172  -29.3039   22.3692 N   0  0  0  0  0  0
  -26.4300  -37.3799   23.9422 N   0  0  0  0  0  0
  -24.6766  -31.0756   22.1051 N   0  0  0  0  0  0
  -23.4214  -28.8193   23.2984 O   0  0  0  0  0  0
  -28.3984  -26.6522   20.1081 O   0  0  0  0  0  0
  -26.5591  -34.8884   22.4661 O   0  0  0  0  0  0
  -23.5392  -32.1456   23.7482 O   0  0  0  0  0  0
  -29.7854  -20.4711   19.9308 C   0  0  0  0  0  0
  -28.8657  -21.5318   19.6509 C   0  0  0  0  0  0
  -29.3420  -19.1142   20.0289 C   0  0  0  0  0  0
  -27.4977  -21.1826   19.5578 C   0  0  0  0  0  0
  -27.9444  -18.9258   19.9297 C   0  0  0  0  0  0
  -26.1318  -21.9258   17.5572 C   0  0  0  0  0  0
  -27.1208  -17.1703   18.3313 C   0  0  0  0  0  0
  -31.7466  -18.2313   19.6388 C   0  0  0  0  0  0
  -28.3322  -23.9039   21.4320 C   0  0  0  0  0  0
  -30.5694  -24.6571   20.6533 C   0  0  0  0  0  0
  -29.3670  -22.9408   19.2346 C   0  0  0  0  0  0
  -26.3978  -22.1129   19.0576 C   0  0  0  0  0  0
  -27.2943  -17.5677   19.8063 C   0  0  0  0  0  0
  -30.2973  -16.9704   21.3190 C   0  0  0  0  0  0
  -28.5533  -25.4090   19.3683 C   0  0  0  0  0  0
  -30.3030  -17.8766   20.0332 C   0  0  1  0  0  0
  -29.1745  -24.2087   20.1739 C   0  0  0  0  0  0
  -27.0658  -19.9272   19.7499 N   0  0  0  0  0  0
  -29.9522  -15.5391   21.1022 N   0  0  0  0  0  0
  -31.4689  -12.4581   19.1264 H   0  0  0  0  0  0
  -30.3455  -11.3404   19.8440 H   0  0  0  0  0  0
  -29.7390  -11.7732   17.4463 H   0  0  0  0  0  0
  -29.6487  -13.4908   17.7546 H   0  0  0  0  0  0
  -27.8343  -11.3075   18.8346 H   0  0  0  0  0  0
  -27.3611  -12.6226   17.7920 H   0  0  0  0  0  0
  -27.6859  -14.2565   19.5623 H   0  0  0  0  0  0
  -28.6926  -11.9803   21.3373 H   0  0  0  0  0  0
  -28.4562  -13.6142   21.8699 H   0  0  0  0  0  0
  -25.2743   -9.5656   22.4763 H   0  0  0  0  0  0
  -23.9990   -7.4604   22.7476 H   0  0  0  0  0  0
  -21.0831   -8.8739   19.8936 H   0  0  0  0  0  0
  -22.3687  -10.9640   19.6161 H   0  0  0  0  0  0
  -21.1990   -7.6140   23.9696 H   0  0  0  0  0  0
  -21.1469   -6.0523   25.9067 H   0  0  0  0  0  0
  -22.0618   -2.7608   23.2846 H   0  0  0  0  0  0
  -22.4079  -11.9803   22.4752 H   0  0  0  0  0  0
  -21.1077  -13.1187   22.2642 H   0  0  0  0  0  0
  -24.6312  -15.8146   20.5392 H   0  0  0  0  0  0
  -26.2450  -15.6043   20.0740 H   0  0  0  0  0  0
  -26.7150  -32.5547   23.1176 H   0  0  0  0  0  0
  -25.0172  -33.9791   25.0534 H   0  0  0  0  0  0
  -22.6985  -31.3190   21.4235 H   0  0  0  0  0  0
  -23.3750  -35.9643   23.3312 H   0  0  0  0  0  0
  -24.3598  -36.8922   22.2042 H   0  0  0  0  0  0
  -23.7241  -37.6492   23.6644 H   0  0  0  0  0  0
  -26.0728  -31.5922   20.6152 H   0  0  0  0  0  0
  -26.8249  -30.8608   22.0030 H   0  0  0  0  0  0
  -28.0946  -29.0397   21.1702 H   0  0  0  0  0  0
  -25.9152  -25.9728   19.0085 H   0  0  0  0  0  0
  -23.9462  -27.3315   19.0256 H   0  0  0  0  0  0
  -23.7369  -30.6299   19.4142 H   0  0  0  0  0  0
  -22.7372  -29.2806   19.8556 H   0  0  0  0  0  0
  -25.1317  -36.1977   25.0823 H   0  0  0  0  0  0
  -21.0016  -28.3261   24.1402 H   0  0  0  0  0  0
  -20.5772  -26.2275   23.3605 H   0  0  0  0  0  0
  -21.6659  -26.7486   22.1173 H   0  0  0  0  0  0
  -19.6922  -25.6304   21.1241 H   0  0  0  0  0  0
  -19.6698  -27.3216   20.6746 H   0  0  0  0  0  0
  -17.4224  -26.6705   21.3982 H   0  0  0  0  0  0
  -18.0291  -26.0063   22.9023 H   0  0  0  0  0  0
  -19.7953  -30.7283   24.2258 H   0  0  0  0  0  0
  -17.5017  -31.6258   24.5173 H   0  0  0  0  0  0
  -15.5346  -30.2966   23.7668 H   0  0  0  0  0  0
  -15.8687  -28.0830   22.7013 H   0  0  0  0  0  0
  -24.5924  -30.7094   25.7772 H   0  0  0  0  0  0
  -24.8901  -32.2872   26.4889 H   0  0  0  0  0  0
  -25.8052  -30.8890   27.0238 H   0  0  0  0  0  0
  -26.2915  -29.6757   24.1257 H   0  0  0  0  0  0
  -27.4160  -29.7359   25.4651 H   0  0  0  0  0  0
  -27.8741  -30.4377   23.9328 H   0  0  0  0  0  0
  -27.2713  -33.3665   26.2062 H   0  0  0  0  0  0
  -28.3865  -32.6872   25.0308 H   0  0  0  0  0  0
  -28.0733  -31.8468   26.5432 H   0  0  0  0  0  0
  -28.2599  -38.0125   24.7543 H   0  0  0  0  0  0
  -28.1121  -36.2651   24.6267 H   0  0  0  0  0  0
  -27.2313  -37.1427   25.8860 H   0  0  0  0  0  0
  -20.9338  -29.8764   21.6915 H   0  0  0  0  0  0
  -26.0195  -38.2882   24.1406 H   0  0  0  0  0  0
  -30.8416  -20.6925   19.9494 H   0  0  0  0  0  0
  -25.3206  -22.5664   17.2138 H   0  0  0  0  0  0
  -25.8560  -20.8950   17.3355 H   0  0  0  0  0  0
  -27.0165  -22.1614   16.9674 H   0  0  0  0  0  0
  -26.6739  -16.1846   18.2270 H   0  0  0  0  0  0
  -28.0781  -17.1519   17.8138 H   0  0  0  0  0  0
  -26.4777  -17.8802   17.8088 H   0  0  0  0  0  0
  -31.7716  -18.7521   18.6825 H   0  0  0  0  0  0
  -32.3511  -17.3309   19.5243 H   0  0  0  0  0  0
  -32.2351  -18.8560   20.3875 H   0  0  0  0  0  0
  -28.2681  -24.7841   22.0728 H   0  0  0  0  0  0
  -28.7872  -23.1083   22.0194 H   0  0  0  0  0  0
  -27.3146  -23.5912   21.2131 H   0  0  0  0  0  0
  -31.2399  -24.8358   19.8133 H   0  0  0  0  0  0
  -31.0360  -23.8999   21.2852 H   0  0  0  0  0  0
  -30.5185  -25.5860   21.2232 H   0  0  0  0  0  0
  -28.9078  -23.1451   18.2664 H   0  0  0  0  0  0
  -30.4192  -22.8322   18.9691 H   0  0  0  0  0  0
  -26.6163  -23.1557   19.2524 H   0  0  0  0  0  0
  -25.4857  -21.8973   19.6147 H   0  0  0  0  0  0
  -26.3219  -17.6246   20.2964 H   0  0  0  0  0  0
  -27.8444  -16.8087   20.3507 H   0  0  0  0  0  0
  -29.5853  -17.3691   22.0414 H   0  0  0  0  0  0
  -31.2598  -17.0204   21.8311 H   0  0  0  0  0  0
  -27.6555  -25.0583   18.8769 H   0  0  0  0  0  0
  -29.2164  -25.6520   18.5359 H   0  0  0  0  0  0
  -29.9522  -17.2528   19.2116 H   0  0  0  0  0  0
  -29.0330  -15.2629   21.4120 H   0  0  0  0  0  0
  1 25  1  0  0  0
  1 30  2  0  0  0
  1 89  1  0  0  0
  2  3  1  0  0  0
  2 25  1  0  0  0
  2 90  1  0  0  0
  2 91  1  0  0  0
  3  4  1  0  0  0
  3 92  1  0  0  0
  3 93  1  0  0  0
  4  5  1  0  0  0
  4 94  1  0  0  0
  4 95  1  0  0  0
  5  6  1  0  0  0
  5 26  1  0  0  0
  5 96  1  0  0  0
  6 25  1  0  0  0
  6 97  1  0  0  0
  6 98  1  0  0  0
  7  8  2  0  0  0
  7 26  1  0  0  0
  7 29  1  0  0  0
  8  9  1  0  0  0
  8 22  1  0  0  0
  9 10  1  0  0  0
  9 27  2  0  0  0
 10 11  2  0  0  0
 10 15  1  0  0  0
 11 12  1  0  0  0
 11 99  1  0  0  0
 12 13  2  0  0  0
 12100  1  0  0  0
 13 14  1  0  0  0
 13 31  1  0  0  0
 14 15  2  0  0  0
 14101  1  0  0  0
 15102  1  0  0  0
 16 17  2  0  0  0
 16 21  1  0  0  0
 16 31  1  0  0  0
 17 18  1  0  0  0
 17103  1  0  0  0
 18 19  2  0  0  0
 18104  1  0  0  0
 19 20  1  0  0  0
 19 24  1  0  0  0
 20 21  2  0  0  0
 20105  1  0  0  0
 21 23  1  0  0  0
 22 28  1  0  0  0
 22 32  2  0  0  0
 26 27  1  0  0  0
 28106  1  0  0  0
 28107  1  0  0  0
 29108  1  0  0  0
 29109  1  0  0  0
 33 34  1  0  0  0
 33 66  1  0  0  0
 33 70  2  0  0  0
 34 36  1  0  0  0
 34 59  1  0  0  0
 34110  1  0  0  0
 35 44  2  0  0  0
 35 45  1  0  0  0
 35 68  1  0  0  0
 36 56  1  0  0  0
 36111  1  0  0  0
 37 39  1  0  0  0
 37 47  1  0  0  0
 37 66  1  0  0  0
 37112  1  0  0  0
 38 43  2  0  0  0
 38 46  1  0  0  0
 38 47  1  0  0  0
 39 64  1  0  0  0
 39 67  2  0  0  0
 40 52  1  0  0  0
 40 53  2  0  0  0
 40 58  1  0  0  0
 41113  1  0  0  0
 41114  1  0  0  0
 41115  1  0  0  0
 41 48  1  0  0  0
 42 43  1  0  0  0
 42 66  1  0  0  0
 42116  1  0  0  0
 42117  1  0  0  0
 43 44  1  0  0  0
 44118  1  0  0  0
 45 46  2  0  0  0
 45119  1  0  0  0
 46120  1  0  0  0
 47121  1  0  0  0
 47122  1  0  0  0
 48 56  1  0  0  0
 48 65  1  0  0  0
 48123  1  0  0  0
 49 50  1  0  0  0
 49 53  1  0  0  0
 49 64  1  0  0  0
 49124  1  0  0  0
 50 51  1  0  0  0
 50125  1  0  0  0
 50126  1  0  0  0
 51 52  1  0  0  0
 51127  1  0  0  0
 51128  1  0  0  0
 52129  1  0  0  0
 52130  1  0  0  0
 53 54  1  0  0  0
 54 55  2  0  0  0
 54131  1  0  0  0
 55 57  1  0  0  0
 55132  1  0  0  0
 56 69  2  0  0  0
 57 58  2  0  0  0
 57133  1  0  0  0
 58134  1  0  0  0
 59 60  1  0  0  0
 59 61  1  0  0  0
 59 62  1  0  0  0
 60135  1  0  0  0
 60136  1  0  0  0
 60137  1  0  0  0
 61138  1  0  0  0
 61139  1  0  0  0
 61140  1  0  0  0
 62141  1  0  0  0
 62142  1  0  0  0
 62143  1  0  0  0
 63 65  1  0  0  0
 63144  1  0  0  0
 63145  1  0  0  0
 63146  1  0  0  0
 64147  1  0  0  0
 65148  1  0  0  0
 68 85  1  0  0  0
 71 72  2  0  0  0
 71 73  1  0  0  0
 71149  1  0  0  0
 72 74  1  0  0  0
 72 81  1  0  0  0
 73 75  2  0  0  0
 73 86  1  0  0  0
 74 82  1  0  0  0
 74 88  2  0  0  0
 75 83  1  0  0  0
 75 88  1  0  0  0
 76 82  1  0  0  0
 76150  1  0  0  0
 76151  1  0  0  0
 76152  1  0  0  0
 77 83  1  0  0  0
 77153  1  0  0  0
 77154  1  0  0  0
 77155  1  0  0  0
 78156  1  0  0  0
 78157  1  0  0  0
 78158  1  0  0  0
 78 86  1  0  0  0
 79159  1  0  0  0
 79160  1  0  0  0
 79161  1  0  0  0
 79 87  1  0  0  0
 80 87  1  0  0  0
 80162  1  0  0  0
 80163  1  0  0  0
 80164  1  0  0  0
 81 87  1  0  0  0
 81165  1  0  0  0
 81166  1  0  0  0
 82167  1  0  0  0
 82168  1  0  0  0
 83169  1  0  0  0
 83170  1  0  0  0
 84 86  1  0  0  0
 84 89  1  0  0  0
 84171  1  0  0  0
 84172  1  0  0  0
 85 87  1  0  0  0
 85173  1  0  0  0
 85174  1  0  0  0
 86175  1  0  0  0
 89176  1  0  0  0
M  ISO  4   1 100  68 101  85 101  89 100
M  END
> <chiral flag>
0

> <version>
0

> <s_m_source_file>
/data/baiqing/PycharmProjects/Reinvent-master-3.2/result/LINK_invent/BTK/process_docking_weight1_custom_sum_contain_oxygen_bond_distance_aromatic_linkinvent_7_9_3/rearranged_h_0074.sdf

> <i_m_source_file_index>
77

> <r_mmod_Potential_Energy-OPLS-2005>
-225.369338989258

> <r_mmod_Stretch_Energy-OPLS-2005>
58.5697746276855

> <r_mmod_Bend_Energy-OPLS-2005>
144.553283691406

> <r_mmod_Torsional_Energy-OPLS-2005>
214.574996948242

> <r_mmod_Improper_Torsional_Energy-OPLS-2005>
6.51701021194458

> <r_mmod_Van_der_Waal_Energy-OPLS-2005>
154.096496582031

> <r_mmod_Electrostatic_Energy-OPLS-2005>
-621.213256835938

> <r_mmod_Solvation_Energy-OPLS-2005>
-203.480377197266

> <b_mmod_Minimization_Converged-OPLS-2005>
0

> <r_mmod_RMS_Derivative-OPLS-2005>
3.94923233985901

$$$$
77
                    3D
 Structure written by MMmdl.
167175  0  0  1  0            999 V2000
  -30.6257  -14.7664   20.6043 C   0  0  0  0  0  0
  -30.4314  -12.5077   19.4893 C   0  0  0  0  0  0
  -29.5166  -12.5564   18.2392 C   0  0  0  0  0  0
  -28.0399  -12.3517   18.6290 C   0  0  0  0  0  0
  -27.6433  -13.2189   19.8501 C   0  0  2  0  0  0
  -28.6758  -13.0774   20.9897 C   0  0  0  0  0  0
  -25.2474  -13.8143   20.5395 C   0  0  0  0  0  0
  -24.1813  -13.0440   20.9245 C   0  0  0  0  0  0
  -24.6380  -11.6919   20.8785 C   0  0  0  0  0  0
  -23.9022  -10.4310   21.0420 C   0  0  0  0  0  0
  -24.3622   -9.4240   21.9158 C   0  0  0  0  0  0
  -23.6312   -8.2255   22.0739 C   0  0  0  0  0  0
  -22.4264   -8.0297   21.3545 C   0  0  0  0  0  0
  -21.9891   -9.0255   20.4616 C   0  0  0  0  0  0
  -22.7219  -10.2145   20.3033 C   0  0  0  0  0  0
  -21.6864   -6.0706   22.5271 C   0  0  0  0  0  0
  -21.4041   -6.5622   23.8208 C   0  0  0  0  0  0
  -21.3688   -5.6782   24.9175 C   0  0  0  0  0  0
  -21.6057   -4.3036   24.7229 C   0  0  0  0  0  0
  -21.8842   -3.8129   23.4351 C   0  0  0  0  0  0
  -21.9211   -4.6938   22.3402 C   0  0  0  0  0  0
  -22.7876  -13.5267   21.1929 C   0  0  0  0  0  0
  -22.1663   -4.2112   21.0979 F   0  0  0  0  0  0
  -21.5641   -3.4541   25.7748 F   0  0  0  0  0  0
  -29.9788  -13.5374   20.4727 N   0  0  0  0  0  0
  -26.2883  -12.9289   20.3083 N   0  0  0  0  0  0
  -25.9290  -11.6479   20.5730 N   0  0  0  0  0  0
  -22.0469  -12.8221   22.0457 N   0  0  0  0  0  0
  -25.4203  -15.1776   20.3308 N   0  0  0  0  0  0
  -31.7289  -14.8563   20.0513 O   0  0  0  0  0  0
  -21.6678   -6.8846   21.4215 O   0  0  0  0  0  0
  -22.3613  -14.5590   20.6796 O   0  0  0  0  0  0
  -24.6229  -31.8651   23.2052 C   0  0  0  0  0  0
  -25.9094  -32.4811   23.8362 C   0  0  1  0  0  0
  -27.2081  -27.3177   20.1442 C   0  0  0  0  0  0
  -25.5929  -33.8609   24.2310 N   0  0  0  0  0  0
  -23.4097  -30.4928   21.5511 C   0  0  2  0  0  0
  -24.8587  -28.9513   20.1085 C   0  0  0  0  0  0
  -22.7453  -29.4670   22.5012 C   0  0  0  0  0  0
  -18.0289  -28.1353   22.8527 C   0  0  0  0  0  0
  -24.1469  -36.7320   23.2638 C   0  0  0  0  0  0
  -25.9434  -30.8058   21.3656 C   0  0  0  0  0  0
  -26.0220  -29.4228   20.7320 C   0  0  0  0  0  0
  -27.1983  -28.6126   20.7531 C   0  0  0  0  0  0
  -26.0359  -26.9199   19.4759 C   0  0  0  0  0  0
  -24.8712  -27.7077   19.4660 C   0  0  0  0  0  0
  -23.6214  -29.8286   20.1657 C   0  0  0  0  0  0
  -25.4073  -36.3121   24.0371 C   0  0  1  0  0  0
  -20.5871  -28.3649   23.1313 C   0  0  2  0  0  0
  -20.6781  -26.9382   22.5420 C   0  0  0  0  0  0
  -19.5761  -26.6367   21.5223 C   0  0  0  0  0  0
  -18.1931  -26.7903   22.1629 C   0  0  0  0  0  0
  -19.1536  -28.8814   23.2920 C   0  0  0  0  0  0
  -18.9462  -30.1419   23.8939 C   0  0  0  0  0  0
  -17.6465  -30.6566   24.0553 C   0  0  0  0  0  0
  -25.9014  -34.9481   23.5119 C   0  0  0  0  0  0
  -16.5353  -29.9057   23.6338 C   0  0  0  0  0  0
  -16.7280  -28.6463   23.0383 C   0  0  0  0  0  0
  -26.4441  -31.6586   25.0701 C   0  0  0  0  0  0
  -25.3681  -31.3713   26.1448 C   0  0  0  0  0  0
  -27.0235  -30.3034   24.5993 C   0  0  0  0  0  0
  -27.6039  -32.4237   25.7466 C   0  0  0  0  0  0
  -27.5547  -37.1811   24.8472 C   0  0  0  0  0  0
  -21.4168  -29.3038   22.3738 N   0  0  0  0  0  0
  -26.4244  -37.3824   23.9435 N   0  0  0  0  0  0
  -24.6774  -31.0709   22.0983 N   0  0  0  0  0  0
  -23.4218  -28.8238   23.3061 O   0  0  0  0  0  0
  -28.3148  -26.4629   20.1369 O   0  0  0  0  0  0
  -26.5554  -34.8957   22.4665 O   0  0  0  0  0  0
  -23.5405  -32.1402   23.7439 O   0  0  0  0  0  0
  -30.1484  -18.7893   20.6598 C   0  0  0  0  0  0
  -29.6860  -17.4558   20.7034 C   0  0  0  0  0  0
  -28.1684  -18.8359   19.7046 C   0  0  0  0  0  0
  -26.9453  -19.2215   18.9339 C   0  0  0  0  0  0
  -31.3727  -16.4848   22.3323 C   0  0  0  0  0  0
  -29.0159  -15.8612   22.4407 C   0  0  0  0  0  0
  -29.2553  -24.1291   18.6660 C   0  0  0  0  0  0
  -26.8847  -23.4291   19.2856 C   0  0  0  0  0  0
  -28.8315  -22.3907   20.5440 C   0  0  0  0  0  0
  -29.2808  -21.1269   19.6332 C   0  0  0  0  0  0
  -28.2074  -25.0925   20.7210 C   0  0  0  0  0  0
  -30.1542  -16.1142   21.4369 C   0  0  0  0  0  0
  -28.3028  -23.7548   19.8198 C   0  0  0  0  0  0
  -29.2003  -19.6337   20.0566 N   0  0  0  0  0  0
  -28.4418  -17.5836   20.1220 N   0  3  0  0  0  0
  -31.4750  -12.6276   19.1928 H   0  0  0  0  0  0
  -30.3805  -11.5180   19.9436 H   0  0  0  0  0  0
  -29.8330  -11.8001   17.5187 H   0  0  0  0  0  0
  -29.6285  -13.5155   17.7314 H   0  0  0  0  0  0
  -27.9012  -11.2939   18.8611 H   0  0  0  0  0  0
  -27.3846  -12.5590   17.7808 H   0  0  0  0  0  0
  -27.6657  -14.2494   19.5010 H   0  0  0  0  0  0
  -28.7270  -12.0271   21.2844 H   0  0  0  0  0  0
  -28.3322  -13.5622   21.8936 H   0  0  0  0  0  0
  -25.2804   -9.5771   22.4659 H   0  0  0  0  0  0
  -24.0063   -7.4688   22.7496 H   0  0  0  0  0  0
  -21.0793   -8.8817   19.8919 H   0  0  0  0  0  0
  -22.3715  -10.9686   19.6136 H   0  0  0  0  0  0
  -21.2027   -7.6130   23.9701 H   0  0  0  0  0  0
  -21.1477   -6.0496   25.9066 H   0  0  0  0  0  0
  -22.0570   -2.7573   23.2889 H   0  0  0  0  0  0
  -22.4118  -11.9920   22.4881 H   0  0  0  0  0  0
  -21.1083  -13.1233   22.2581 H   0  0  0  0  0  0
  -24.5412  -15.6836   20.3678 H   0  0  0  0  0  0
  -25.8675  -15.3501   19.4370 H   0  0  0  0  0  0
  -26.7182  -32.5512   23.1160 H   0  0  0  0  0  0
  -25.0227  -33.9754   25.0548 H   0  0  0  0  0  0
  -22.6971  -31.3119   21.4166 H   0  0  0  0  0  0
  -23.3751  -35.9634   23.3283 H   0  0  0  0  0  0
  -24.3592  -36.8915   22.2056 H   0  0  0  0  0  0
  -23.7182  -37.6519   23.6616 H   0  0  0  0  0  0
  -26.0294  -31.5546   20.5758 H   0  0  0  0  0  0
  -26.8407  -30.8902   21.9647 H   0  0  0  0  0  0
  -28.0783  -28.9646   21.2710 H   0  0  0  0  0  0
  -26.0127  -25.9996   18.9274 H   0  0  0  0  0  0
  -23.9887  -27.3571   18.9466 H   0  0  0  0  0  0
  -23.7237  -30.6035   19.4034 H   0  0  0  0  0  0
  -22.7372  -29.2556   19.8789 H   0  0  0  0  0  0
  -25.1238  -36.1979   25.0868 H   0  0  0  0  0  0
  -20.9965  -28.3179   24.1433 H   0  0  0  0  0  0
  -20.5680  -26.2250   23.3610 H   0  0  0  0  0  0
  -21.6645  -26.7460   22.1182 H   0  0  0  0  0  0
  -19.6921  -25.6289   21.1223 H   0  0  0  0  0  0
  -19.6656  -27.3222   20.6774 H   0  0  0  0  0  0
  -17.4198  -26.6712   21.4018 H   0  0  0  0  0  0
  -18.0291  -26.0012   22.8976 H   0  0  0  0  0  0
  -19.7943  -30.7203   24.2330 H   0  0  0  0  0  0
  -17.5028  -31.6282   24.5097 H   0  0  0  0  0  0
  -15.5354  -30.2954   23.7634 H   0  0  0  0  0  0
  -15.8693  -28.0766   22.7097 H   0  0  0  0  0  0
  -24.5962  -30.6908   25.7811 H   0  0  0  0  0  0
  -24.8747  -32.2861   26.4731 H   0  0  0  0  0  0
  -25.8054  -30.9053   27.0288 H   0  0  0  0  0  0
  -26.2760  -29.6873   24.0977 H   0  0  0  0  0  0
  -27.3998  -29.7144   25.4353 H   0  0  0  0  0  0
  -27.8578  -30.4393   23.9117 H   0  0  0  0  0  0
  -27.2742  -33.3606   26.1954 H   0  0  0  0  0  0
  -28.3906  -32.6640   25.0311 H   0  0  0  0  0  0
  -28.0598  -31.8365   26.5448 H   0  0  0  0  0  0
  -28.2585  -38.0085   24.7521 H   0  0  0  0  0  0
  -28.1025  -36.2634   24.6277 H   0  0  0  0  0  0
  -27.2301  -37.1435   25.8885 H   0  0  0  0  0  0
  -20.9323  -29.8807   21.7015 H   0  0  0  0  0  0
  -26.0158  -38.2906   24.1459 H   0  0  0  0  0  0
  -31.0815  -19.2015   21.0140 H   0  0  0  0  0  0
  -26.5338  -20.1512   19.3293 H   0  0  0  0  0  0
  -26.2051  -18.4210   18.9924 H   0  0  0  0  0  0
  -27.2460  -19.3486   17.8944 H   0  0  0  0  0  0
  -31.1066  -17.1787   23.1327 H   0  0  0  0  0  0
  -32.1953  -16.9363   21.7730 H   0  0  0  0  0  0
  -31.7766  -15.5989   22.8274 H   0  0  0  0  0  0
  -28.8209  -16.7613   23.0254 H   0  0  0  0  0  0
  -29.2580  -15.0773   23.1598 H   0  0  0  0  0  0
  -28.0777  -15.6394   21.9385 H   0  0  0  0  0  0
  -30.2219  -24.4371   19.0583 H   0  0  0  0  0  0
  -28.8711  -24.9793   18.0898 H   0  0  0  0  0  0
  -29.4287  -23.3131   17.9660 H   0  0  0  0  0  0
  -26.1263  -23.4943   20.0712 H   0  0  0  0  0  0
  -26.8197  -22.4218   18.8777 H   0  0  0  0  0  0
  -26.5869  -24.0895   18.4770 H   0  0  0  0  0  0
  -29.7114  -22.6642   21.1325 H   0  0  0  0  0  0
  -28.1019  -22.0631   21.2848 H   0  0  0  0  0  0
  -30.3198  -21.2903   19.3545 H   0  0  0  0  0  0
  -28.7496  -21.2024   18.6849 H   0  0  0  0  0  0
  -29.0616  -25.0433   21.3942 H   0  0  0  0  0  0
  -27.3448  -25.0437   21.3888 H   0  0  0  0  0  0
  -27.7498  -16.8430   20.0879 H   0  0  0  0  0  0
  1 25  1  0  0  0
  1 30  2  0  0  0
  1 82  1  0  0  0
  2  3  1  0  0  0
  2 25  1  0  0  0
  2 86  1  0  0  0
  2 87  1  0  0  0
  3  4  1  0  0  0
  3 88  1  0  0  0
  3 89  1  0  0  0
  4  5  1  0  0  0
  4 90  1  0  0  0
  4 91  1  0  0  0
  5  6  1  0  0  0
  5 26  1  0  0  0
  5 92  1  0  0  0
  6 25  1  0  0  0
  6 93  1  0  0  0
  6 94  1  0  0  0
  7  8  2  0  0  0
  7 26  1  0  0  0
  7 29  1  0  0  0
  8  9  1  0  0  0
  8 22  1  0  0  0
  9 10  1  0  0  0
  9 27  2  0  0  0
 10 11  2  0  0  0
 10 15  1  0  0  0
 11 12  1  0  0  0
 11 95  1  0  0  0
 12 13  2  0  0  0
 12 96  1  0  0  0
 13 14  1  0  0  0
 13 31  1  0  0  0
 14 15  2  0  0  0
 14 97  1  0  0  0
 15 98  1  0  0  0
 16 17  2  0  0  0
 16 21  1  0  0  0
 16 31  1  0  0  0
 17 18  1  0  0  0
 17 99  1  0  0  0
 18 19  2  0  0  0
 18100  1  0  0  0
 19 20  1  0  0  0
 19 24  1  0  0  0
 20 21  2  0  0  0
 20101  1  0  0  0
 21 23  1  0  0  0
 22 28  1  0  0  0
 22 32  2  0  0  0
 26 27  1  0  0  0
 28102  1  0  0  0
 28103  1  0  0  0
 29104  1  0  0  0
 29105  1  0  0  0
 33 34  1  0  0  0
 33 66  1  0  0  0
 33 70  2  0  0  0
 34 36  1  0  0  0
 34 59  1  0  0  0
 34106  1  0  0  0
 35 44  2  0  0  0
 35 45  1  0  0  0
 35 68  1  0  0  0
 36 56  1  0  0  0
 36107  1  0  0  0
 37 39  1  0  0  0
 37 47  1  0  0  0
 37 66  1  0  0  0
 37108  1  0  0  0
 38 43  2  0  0  0
 38 46  1  0  0  0
 38 47  1  0  0  0
 39 64  1  0  0  0
 39 67  2  0  0  0
 40 52  1  0  0  0
 40 53  2  0  0  0
 40 58  1  0  0  0
 41109  1  0  0  0
 41110  1  0  0  0
 41111  1  0  0  0
 41 48  1  0  0  0
 42 43  1  0  0  0
 42 66  1  0  0  0
 42112  1  0  0  0
 42113  1  0  0  0
 43 44  1  0  0  0
 44114  1  0  0  0
 45 46  2  0  0  0
 45115  1  0  0  0
 46116  1  0  0  0
 47117  1  0  0  0
 47118  1  0  0  0
 48 56  1  0  0  0
 48 65  1  0  0  0
 48119  1  0  0  0
 49 50  1  0  0  0
 49 53  1  0  0  0
 49 64  1  0  0  0
 49120  1  0  0  0
 50 51  1  0  0  0
 50121  1  0  0  0
 50122  1  0  0  0
 51 52  1  0  0  0
 51123  1  0  0  0
 51124  1  0  0  0
 52125  1  0  0  0
 52126  1  0  0  0
 53 54  1  0  0  0
 54 55  2  0  0  0
 54127  1  0  0  0
 55 57  1  0  0  0
 55128  1  0  0  0
 56 69  2  0  0  0
 57 58  2  0  0  0
 57129  1  0  0  0
 58130  1  0  0  0
 59 60  1  0  0  0
 59 61  1  0  0  0
 59 62  1  0  0  0
 60131  1  0  0  0
 60132  1  0  0  0
 60133  1  0  0  0
 61134  1  0  0  0
 61135  1  0  0  0
 61136  1  0  0  0
 62137  1  0  0  0
 62138  1  0  0  0
 62139  1  0  0  0
 63 65  1  0  0  0
 63140  1  0  0  0
 63141  1  0  0  0
 63142  1  0  0  0
 64143  1  0  0  0
 65144  1  0  0  0
 68 81  1  0  0  0
 71 72  2  0  0  0
 71 84  1  0  0  0
 71145  1  0  0  0
 72 82  1  0  0  0
 72 85  1  0  0  0
 73 74  1  0  0  0
 73 84  1  0  0  0
 73 85  2  0  0  0
 74146  1  0  0  0
 74147  1  0  0  0
 74148  1  0  0  0
 75149  1  0  0  0
 75150  1  0  0  0
 75151  1  0  0  0
 75 82  1  0  0  0
 76 82  1  0  0  0
 76152  1  0  0  0
 76153  1  0  0  0
 76154  1  0  0  0
 77155  1  0  0  0
 77156  1  0  0  0
 77157  1  0  0  0
 77 83  1  0  0  0
 78 83  1  0  0  0
 78158  1  0  0  0
 78159  1  0  0  0
 78160  1  0  0  0
 79 80  1  0  0  0
 79 83  1  0  0  0
 79161  1  0  0  0
 79162  1  0  0  0
 80 84  1  0  0  0
 80163  1  0  0  0
 80164  1  0  0  0
 81 83  1  0  0  0
 81165  1  0  0  0
 81166  1  0  0  0
 85167  1  0  0  0
M  CHG  1  85   1
M  ISO  4   1 100  68 101  81 101  82 100
M  END
> <chiral flag>
0

> <version>
0

> <s_m_source_file>
/data/baiqing/PycharmProjects/Reinvent-master-3.2/result/LINK_invent/BTK/process_docking_weight1_custom_sum_contain_oxygen_bond_distance_aromatic_linkinvent_7_9_3/rearranged_h_0074.sdf

> <i_m_source_file_index>
78

> <r_mmod_Potential_Energy-OPLS-2005>
287.56982421875

> <r_mmod_Stretch_Energy-OPLS-2005>
141.551330566406

> <r_mmod_Bend_Energy-OPLS-2005>
219.291778564453

> <r_mmod_Torsional_Energy-OPLS-2005>
259.632110595703

> <r_mmod_Improper_Torsional_Energy-OPLS-2005>
10.1356382369995

> <r_mmod_Van_der_Waal_Energy-OPLS-2005>
126.655136108398

> <r_mmod_Electrostatic_Energy-OPLS-2005>
-163.320556640625

> <r_mmod_Solvation_Energy-OPLS-2005>
-375.829345703125

> <b_mmod_Minimization_Converged-OPLS-2005>
0

> <r_mmod_RMS_Derivative-OPLS-2005>
7.15883541107178

$$$$
78
                    3D
 Structure written by MMmdl.
161169  0  0  1  0            999 V2000
  -30.6531  -14.5565   20.5475 C   0  0  0  0  0  0
  -30.4308  -12.3482   19.4390 C   0  0  0  0  0  0
  -29.5060  -12.5142   18.2138 C   0  0  0  0  0  0
  -28.0226  -12.3687   18.6157 C   0  0  0  0  0  0
  -27.6580  -13.2127   19.8666 C   0  0  2  0  0  0
  -28.7015  -13.0272   20.9921 C   0  0  0  0  0  0
  -25.2569  -13.8170   20.5688 C   0  0  0  0  0  0
  -24.1840  -13.0443   20.9201 C   0  0  0  0  0  0
  -24.6396  -11.6906   20.8723 C   0  0  0  0  0  0
  -23.9055  -10.4290   21.0382 C   0  0  0  0  0  0
  -24.3608   -9.4213   21.9166 C   0  0  0  0  0  0
  -23.6278   -8.2256   22.0752 C   0  0  0  0  0  0
  -22.4262   -8.0278   21.3541 C   0  0  0  0  0  0
  -21.9887   -9.0252   20.4649 C   0  0  0  0  0  0
  -22.7219  -10.2129   20.3041 C   0  0  0  0  0  0
  -21.6858   -6.0723   22.5274 C   0  0  0  0  0  0
  -21.4027   -6.5630   23.8210 C   0  0  0  0  0  0
  -21.3663   -5.6779   24.9170 C   0  0  0  0  0  0
  -21.6045   -4.3046   24.7221 C   0  0  0  0  0  0
  -21.8820   -3.8133   23.4346 C   0  0  0  0  0  0
  -21.9201   -4.6947   22.3402 C   0  0  0  0  0  0
  -22.7861  -13.5249   21.1851 C   0  0  0  0  0  0
  -22.1666   -4.2131   21.0973 F   0  0  0  0  0  0
  -21.5615   -3.4532   25.7740 F   0  0  0  0  0  0
  -30.0234  -13.3492   20.4410 N   0  0  0  0  0  0
  -26.3002  -12.9352   20.3303 N   0  0  0  0  0  0
  -25.9320  -11.6514   20.5722 N   0  0  0  0  0  0
  -22.0486  -12.8263   22.0407 N   0  0  0  0  0  0
  -25.4255  -15.1902   20.4090 N   0  0  0  0  0  0
  -31.7969  -14.7148   20.1088 O   0  0  0  0  0  0
  -21.6639   -6.8868   21.4238 O   0  0  0  0  0  0
  -22.3571  -14.5564   20.6690 O   0  0  0  0  0  0
  -24.6196  -31.8664   23.2072 C   0  0  0  0  0  0
  -25.9077  -32.4817   23.8391 C   0  0  1  0  0  0
  -27.2361  -27.4051   20.1116 C   0  0  0  0  0  0
  -25.5945  -33.8616   24.2340 N   0  0  0  0  0  0
  -23.4088  -30.4866   21.5493 C   0  0  2  0  0  0
  -24.8549  -28.9431   20.1191 C   0  0  0  0  0  0
  -22.7423  -29.4658   22.5007 C   0  0  0  0  0  0
  -18.0281  -28.1349   22.8521 C   0  0  0  0  0  0
  -24.1490  -36.7289   23.2628 C   0  0  0  0  0  0
  -25.9382  -30.8259   21.3595 C   0  0  0  0  0  0
  -26.0170  -29.4544   20.7129 C   0  0  0  0  0  0
  -27.2127  -28.6954   20.6972 C   0  0  0  0  0  0
  -26.0565  -26.9098   19.5186 C   0  0  0  0  0  0
  -24.8716  -27.6719   19.5165 C   0  0  0  0  0  0
  -23.6187  -29.8147   20.1656 C   0  0  0  0  0  0
  -25.4110  -36.3104   24.0338 C   0  0  1  0  0  0
  -20.5875  -28.3663   23.1321 C   0  0  2  0  0  0
  -20.6784  -26.9393   22.5419 C   0  0  0  0  0  0
  -19.5728  -26.6351   21.5241 C   0  0  0  0  0  0
  -18.1925  -26.7894   22.1672 C   0  0  0  0  0  0
  -19.1530  -28.8824   23.2911 C   0  0  0  0  0  0
  -18.9451  -30.1421   23.8939 C   0  0  0  0  0  0
  -17.6446  -30.6557   24.0581 C   0  0  0  0  0  0
  -25.9039  -34.9469   23.5124 C   0  0  0  0  0  0
  -16.5338  -29.9064   23.6336 C   0  0  0  0  0  0
  -16.7270  -28.6475   23.0364 C   0  0  0  0  0  0
  -26.4457  -31.6578   25.0730 C   0  0  0  0  0  0
  -25.3703  -31.3709   26.1474 C   0  0  0  0  0  0
  -27.0228  -30.3005   24.6081 C   0  0  0  0  0  0
  -27.6053  -32.4249   25.7528 C   0  0  0  0  0  0
  -27.5578  -37.1803   24.8469 C   0  0  0  0  0  0
  -21.4141  -29.3074   22.3759 N   0  0  0  0  0  0
  -26.4289  -37.3797   23.9411 N   0  0  0  0  0  0
  -24.6744  -31.0736   22.0981 N   0  0  0  0  0  0
  -23.4183  -28.8190   23.3054 O   0  0  0  0  0  0
  -28.4088  -26.6706   20.0781 O   0  0  0  0  0  0
  -26.5576  -34.8913   22.4668 O   0  0  0  0  0  0
  -23.5378  -32.1427   23.7446 O   0  0  0  0  0  0
  -29.5669  -19.7296   20.2782 C   0  0  0  0  0  0
  -29.4452  -18.4081   20.6871 C   0  0  0  0  0  0
  -27.7674  -19.6187   21.5559 C   0  0  0  0  0  0
  -26.5156  -19.9585   22.3023 C   0  0  0  0  0  0
  -29.5752  -25.2589   21.5699 C   0  0  0  0  0  0
  -30.2709  -17.1634   20.3568 C   0  0  0  0  0  0
  -29.8950  -15.8193   21.0813 C   0  0  0  0  0  0
  -29.0474  -22.8046   19.7879 C   0  0  0  0  0  0
  -28.5132  -24.2448   19.4533 C   0  0  0  0  0  0
  -28.1542  -21.9076   20.6882 C   0  0  0  0  0  0
  -28.3974  -25.3140   20.5874 C   0  0  2  0  0  0
  -28.5217  -20.4563   20.8207 N   0  0  0  0  0  0
  -28.3277  -18.4021   21.4853 N   0  3  0  0  0  0
  -31.4743  -12.4553   19.1390 H   0  0  0  0  0  0
  -30.3400  -11.3436   19.8539 H   0  0  0  0  0  0
  -29.7614  -11.7780   17.4510 H   0  0  0  0  0  0
  -29.6702  -13.4929   17.7604 H   0  0  0  0  0  0
  -27.8320  -11.3132   18.8108 H   0  0  0  0  0  0
  -27.3796  -12.6438   17.7785 H   0  0  0  0  0  0
  -27.6876  -14.2544   19.5499 H   0  0  0  0  0  0
  -28.6911  -11.9972   21.3544 H   0  0  0  0  0  0
  -28.4620  -13.6432   21.8578 H   0  0  0  0  0  0
  -25.2746   -9.5706   22.4739 H   0  0  0  0  0  0
  -23.9985   -7.4656   22.7483 H   0  0  0  0  0  0
  -21.0816   -8.8772   19.8967 H   0  0  0  0  0  0
  -22.3663  -10.9662   19.6153 H   0  0  0  0  0  0
  -21.2025   -7.6134   23.9713 H   0  0  0  0  0  0
  -21.1482   -6.0505   25.9076 H   0  0  0  0  0  0
  -22.0595   -2.7591   23.2852 H   0  0  0  0  0  0
  -22.4079  -11.9924   22.4823 H   0  0  0  0  0  0
  -21.1109  -13.1316   22.2587 H   0  0  0  0  0  0
  -24.6376  -15.8244   20.4780 H   0  0  0  0  0  0
  -26.2472  -15.6200   20.0051 H   0  0  0  0  0  0
  -26.7168  -32.5526   23.1180 H   0  0  0  0  0  0
  -25.0217  -33.9776   25.0575 H   0  0  0  0  0  0
  -22.6999  -31.3050   21.4084 H   0  0  0  0  0  0
  -23.3754  -35.9616   23.3305 H   0  0  0  0  0  0
  -24.3587  -36.8894   22.2037 H   0  0  0  0  0  0
  -23.7226  -37.6491   23.6627 H   0  0  0  0  0  0
  -26.0443  -31.5859   20.5826 H   0  0  0  0  0  0
  -26.8295  -30.8906   21.9723 H   0  0  0  0  0  0
  -28.1150  -29.0874   21.1455 H   0  0  0  0  0  0
  -26.0553  -25.9396   19.0447 H   0  0  0  0  0  0
  -23.9806  -27.2773   19.0504 H   0  0  0  0  0  0
  -23.7289  -30.5895   19.4045 H   0  0  0  0  0  0
  -22.7425  -29.2334   19.8719 H   0  0  0  0  0  0
  -25.1282  -36.1969   25.0830 H   0  0  0  0  0  0
  -20.9966  -28.3198   24.1434 H   0  0  0  0  0  0
  -20.5722  -26.2253   23.3605 H   0  0  0  0  0  0
  -21.6643  -26.7467   22.1165 H   0  0  0  0  0  0
  -19.6892  -25.6245   21.1292 H   0  0  0  0  0  0
  -19.6632  -27.3138   20.6748 H   0  0  0  0  0  0
  -17.4183  -26.6630   21.4084 H   0  0  0  0  0  0
  -18.0302  -26.0046   22.9071 H   0  0  0  0  0  0
  -19.7918  -30.7237   24.2324 H   0  0  0  0  0  0
  -17.4997  -31.6231   24.5211 H   0  0  0  0  0  0
  -15.5343  -30.2964   23.7658 H   0  0  0  0  0  0
  -15.8672  -28.0796   22.7079 H   0  0  0  0  0  0
  -24.5761  -30.7227   25.7760 H   0  0  0  0  0  0
  -24.9026  -32.2900   26.5014 H   0  0  0  0  0  0
  -25.8012  -30.8737   27.0174 H   0  0  0  0  0  0
  -27.4010  -29.7209   25.4504 H   0  0  0  0  0  0
  -27.8571  -30.4310   23.9194 H   0  0  0  0  0  0
  -26.2722  -29.6810   24.1165 H   0  0  0  0  0  0
  -27.2738  -33.3622   26.2003 H   0  0  0  0  0  0
  -28.3956  -32.6654   25.0416 H   0  0  0  0  0  0
  -28.0586  -31.8385   26.5530 H   0  0  0  0  0  0
  -28.2601  -38.0087   24.7521 H   0  0  0  0  0  0
  -28.1055  -36.2626   24.6287 H   0  0  0  0  0  0
  -27.2304  -37.1468   25.8871 H   0  0  0  0  0  0
  -20.9305  -29.8829   21.7009 H   0  0  0  0  0  0
  -26.0168  -38.2877   24.1411 H   0  0  0  0  0  0
  -30.3055  -20.1919   19.6373 H   0  0  0  0  0  0
  -25.7794  -20.3330   21.5916 H   0  0  0  0  0  0
  -26.7440  -20.7187   23.0480 H   0  0  0  0  0  0
  -26.1321  -19.0630   22.7893 H   0  0  0  0  0  0
  -30.5285  -25.3768   21.0517 H   0  0  0  0  0  0
  -29.6043  -24.3161   22.1146 H   0  0  0  0  0  0
  -29.5035  -26.0540   22.3126 H   0  0  0  0  0  0
  -31.3174  -17.3977   20.5531 H   0  0  0  0  0  0
  -30.2069  -17.0094   19.2791 H   0  0  0  0  0  0
  -28.8253  -15.6702   20.9648 H   0  0  0  0  0  0
  -30.0853  -15.9108   22.1506 H   0  0  0  0  0  0
  -30.0480  -22.8697   20.2123 H   0  0  0  0  0  0
  -29.1720  -22.2917   18.8343 H   0  0  0  0  0  0
  -27.5458  -24.1513   18.9601 H   0  0  0  0  0  0
  -29.1773  -24.6563   18.6928 H   0  0  0  0  0  0
  -27.1316  -21.9420   20.3098 H   0  0  0  0  0  0
  -28.1274  -22.3288   21.6941 H   0  0  0  0  0  0
  -27.4853  -25.1312   21.1593 H   0  0  0  0  0  0
  -27.9533  -17.5893   21.9608 H   0  0  0  0  0  0
  1 25  1  0  0  0
  1 30  2  0  0  0
  1 77  1  0  0  0
  2  3  1  0  0  0
  2 25  1  0  0  0
  2 84  1  0  0  0
  2 85  1  0  0  0
  3  4  1  0  0  0
  3 86  1  0  0  0
  3 87  1  0  0  0
  4  5  1  0  0  0
  4 88  1  0  0  0
  4 89  1  0  0  0
  5  6  1  0  0  0
  5 26  1  0  0  0
  5 90  1  0  0  0
  6 25  1  0  0  0
  6 91  1  0  0  0
  6 92  1  0  0  0
  7  8  2  0  0  0
  7 26  1  0  0  0
  7 29  1  0  0  0
  8  9  1  0  0  0
  8 22  1  0  0  0
  9 10  1  0  0  0
  9 27  2  0  0  0
 10 11  2  0  0  0
 10 15  1  0  0  0
 11 12  1  0  0  0
 11 93  1  0  0  0
 12 13  2  0  0  0
 12 94  1  0  0  0
 13 14  1  0  0  0
 13 31  1  0  0  0
 14 15  2  0  0  0
 14 95  1  0  0  0
 15 96  1  0  0  0
 16 17  2  0  0  0
 16 21  1  0  0  0
 16 31  1  0  0  0
 17 18  1  0  0  0
 17 97  1  0  0  0
 18 19  2  0  0  0
 18 98  1  0  0  0
 19 20  1  0  0  0
 19 24  1  0  0  0
 20 21  2  0  0  0
 20 99  1  0  0  0
 21 23  1  0  0  0
 22 28  1  0  0  0
 22 32  2  0  0  0
 26 27  1  0  0  0
 28100  1  0  0  0
 28101  1  0  0  0
 29102  1  0  0  0
 29103  1  0  0  0
 33 34  1  0  0  0
 33 66  1  0  0  0
 33 70  2  0  0  0
 34 36  1  0  0  0
 34 59  1  0  0  0
 34104  1  0  0  0
 35 44  2  0  0  0
 35 45  1  0  0  0
 35 68  1  0  0  0
 36 56  1  0  0  0
 36105  1  0  0  0
 37 39  1  0  0  0
 37 47  1  0  0  0
 37 66  1  0  0  0
 37106  1  0  0  0
 38 43  2  0  0  0
 38 46  1  0  0  0
 38 47  1  0  0  0
 39 64  1  0  0  0
 39 67  2  0  0  0
 40 52  1  0  0  0
 40 53  2  0  0  0
 40 58  1  0  0  0
 41107  1  0  0  0
 41108  1  0  0  0
 41109  1  0  0  0
 41 48  1  0  0  0
 42 43  1  0  0  0
 42 66  1  0  0  0
 42110  1  0  0  0
 42111  1  0  0  0
 43 44  1  0  0  0
 44112  1  0  0  0
 45 46  2  0  0  0
 45113  1  0  0  0
 46114  1  0  0  0
 47115  1  0  0  0
 47116  1  0  0  0
 48 56  1  0  0  0
 48 65  1  0  0  0
 48117  1  0  0  0
 49 50  1  0  0  0
 49 53  1  0  0  0
 49 64  1  0  0  0
 49118  1  0  0  0
 50 51  1  0  0  0
 50119  1  0  0  0
 50120  1  0  0  0
 51 52  1  0  0  0
 51121  1  0  0  0
 51122  1  0  0  0
 52123  1  0  0  0
 52124  1  0  0  0
 53 54  1  0  0  0
 54 55  2  0  0  0
 54125  1  0  0  0
 55 57  1  0  0  0
 55126  1  0  0  0
 56 69  2  0  0  0
 57 58  2  0  0  0
 57127  1  0  0  0
 58128  1  0  0  0
 59 60  1  0  0  0
 59 61  1  0  0  0
 59 62  1  0  0  0
 60129  1  0  0  0
 60130  1  0  0  0
 60131  1  0  0  0
 61132  1  0  0  0
 61133  1  0  0  0
 61134  1  0  0  0
 62135  1  0  0  0
 62136  1  0  0  0
 62137  1  0  0  0
 63 65  1  0  0  0
 63138  1  0  0  0
 63139  1  0  0  0
 63140  1  0  0  0
 64141  1  0  0  0
 65142  1  0  0  0
 68 81  1  0  0  0
 71 72  2  0  0  0
 71 82  1  0  0  0
 71143  1  0  0  0
 72 76  1  0  0  0
 72 83  1  0  0  0
 73 74  1  0  0  0
 73 82  1  0  0  0
 73 83  2  0  0  0
 74144  1  0  0  0
 74145  1  0  0  0
 74146  1  0  0  0
 75147  1  0  0  0
 75148  1  0  0  0
 75149  1  0  0  0
 75 81  1  0  0  0
 76 77  1  0  0  0
 76150  1  0  0  0
 76151  1  0  0  0
 77152  1  0  0  0
 77153  1  0  0  0
 78 79  1  0  0  0
 78 80  1  0  0  0
 78154  1  0  0  0
 78155  1  0  0  0
 79 81  1  0  0  0
 79156  1  0  0  0
 79157  1  0  0  0
 80 82  1  0  0  0
 80158  1  0  0  0
 80159  1  0  0  0
 81160  1  0  0  0
 83161  1  0  0  0
M  CHG  1  83   1
M  ISO  4   1 100  68 101  77 100  81 101
M  END
> <chiral flag>
0

> <version>
0

> <s_m_source_file>
/data/baiqing/PycharmProjects/Reinvent-master-3.2/result/LINK_invent/BTK/process_docking_weight1_custom_sum_contain_oxygen_bond_distance_aromatic_linkinvent_7_9_3/rearranged_h_0074.sdf

> <i_m_source_file_index>
79

> <r_mmod_Potential_Energy-OPLS-2005>
-98.1621627807617

> <r_mmod_Stretch_Energy-OPLS-2005>
48.8809280395508

> <r_mmod_Bend_Energy-OPLS-2005>
110.918426513672

> <r_mmod_Torsional_Energy-OPLS-2005>
214.308959960938

> <r_mmod_Improper_Torsional_Energy-OPLS-2005>
3.78453874588013

> <r_mmod_Van_der_Waal_Energy-OPLS-2005>
115.642753601074

> <r_mmod_Electrostatic_Energy-OPLS-2005>
-208.869293212891

> <r_mmod_Solvation_Energy-OPLS-2005>
-403.296752929688

> <b_mmod_Minimization_Converged-OPLS-2005>
0

> <r_mmod_RMS_Derivative-OPLS-2005>
2.66039991378784

$$$$
79
                    3D
 Structure written by MMmdl.
176184  0  0  1  0            999 V2000
  -30.6680  -14.7454   20.4631 C   0  0  0  0  0  0
  -30.4202  -12.4523   19.4861 C   0  0  0  0  0  0
  -29.4989  -12.4970   18.2475 C   0  0  0  0  0  0
  -28.0304  -12.3029   18.6658 C   0  0  0  0  0  0
  -27.6344  -13.2111   19.8554 C   0  0  2  0  0  0
  -28.6890  -13.1825   20.9918 C   0  0  0  0  0  0
  -25.2454  -13.8118   20.5725 C   0  0  0  0  0  0
  -24.1750  -13.0384   20.9238 C   0  0  0  0  0  0
  -24.6335  -11.6864   20.8791 C   0  0  0  0  0  0
  -23.9019  -10.4248   21.0429 C   0  0  0  0  0  0
  -24.3574   -9.4172   21.9208 C   0  0  0  0  0  0
  -23.6259   -8.2203   22.0756 C   0  0  0  0  0  0
  -22.4256   -8.0238   21.3524 C   0  0  0  0  0  0
  -21.9879   -9.0215   20.4636 C   0  0  0  0  0  0
  -22.7199  -10.2101   20.3064 C   0  0  0  0  0  0
  -21.6846   -6.0700   22.5268 C   0  0  0  0  0  0
  -21.4021   -6.5621   23.8196 C   0  0  0  0  0  0
  -21.3658   -5.6785   24.9164 C   0  0  0  0  0  0
  -21.6038   -4.3039   24.7230 C   0  0  0  0  0  0
  -21.8832   -3.8124   23.4353 C   0  0  0  0  0  0
  -21.9194   -4.6930   22.3397 C   0  0  0  0  0  0
  -22.7780  -13.5179   21.1899 C   0  0  0  0  0  0
  -22.1668   -4.2106   21.0975 F   0  0  0  0  0  0
  -21.5621   -3.4536   25.7750 F   0  0  0  0  0  0
  -29.9938  -13.5353   20.4125 N   0  0  0  0  0  0
  -26.2884  -12.9299   20.3367 N   0  0  0  0  0  0
  -25.9264  -11.6465   20.5841 N   0  0  0  0  0  0
  -22.0440  -12.8162   22.0460 N   0  0  0  0  0  0
  -25.4057  -15.1837   20.4115 N   0  0  0  0  0  0
  -31.8361  -14.7317   20.0696 O   0  0  0  0  0  0
  -21.6631   -6.8834   21.4218 O   0  0  0  0  0  0
  -22.3466  -14.5487   20.6742 O   0  0  0  0  0  0
  -24.6277  -31.8568   23.2017 C   0  0  0  0  0  0
  -25.9106  -32.4776   23.8365 C   0  0  1  0  0  0
  -27.2395  -27.2970   20.1398 C   0  0  0  0  0  0
  -25.5912  -33.8582   24.2280 N   0  0  0  0  0  0
  -23.4287  -30.4764   21.5413 C   0  0  2  0  0  0
  -24.8821  -28.9258   20.1151 C   0  0  0  0  0  0
  -22.7499  -29.4582   22.4902 C   0  0  0  0  0  0
  -18.0285  -28.1388   22.8468 C   0  0  0  0  0  0
  -24.1485  -36.7300   23.2648 C   0  0  0  0  0  0
  -25.9692  -30.7829   21.3789 C   0  0  0  0  0  0
  -26.0487  -29.4058   20.7246 C   0  0  0  0  0  0
  -27.2323  -28.6029   20.7266 C   0  0  0  0  0  0
  -26.0551  -26.8802   19.4916 C   0  0  0  0  0  0
  -24.8872  -27.6694   19.4860 C   0  0  0  0  0  0
  -23.6522  -29.8115   20.1575 C   0  0  0  0  0  0
  -25.4110  -36.3082   24.0333 C   0  0  1  0  0  0
  -20.5880  -28.3695   23.1252 C   0  0  2  0  0  0
  -20.6765  -26.9406   22.5408 C   0  0  0  0  0  0
  -19.5747  -26.6385   21.5196 C   0  0  0  0  0  0
  -18.1926  -26.7924   22.1609 C   0  0  0  0  0  0
  -19.1538  -28.8857   23.2852 C   0  0  0  0  0  0
  -18.9470  -30.1446   23.8884 C   0  0  0  0  0  0
  -17.6475  -30.6591   24.0556 C   0  0  0  0  0  0
  -25.9048  -34.9452   23.5104 C   0  0  0  0  0  0
  -16.5361  -29.9102   23.6323 C   0  0  0  0  0  0
  -16.7274  -28.6509   23.0344 C   0  0  0  0  0  0
  -26.4481  -31.6599   25.0757 C   0  0  0  0  0  0
  -25.3699  -31.3733   26.1476 C   0  0  0  0  0  0
  -27.0353  -30.3028   24.6223 C   0  0  0  0  0  0
  -27.6031  -32.4355   25.7513 C   0  0  0  0  0  0
  -27.5578  -37.1795   24.8463 C   0  0  0  0  0  0
  -21.4205  -29.3057   22.3652 N   0  0  0  0  0  0
  -26.4295  -37.3772   23.9407 N   0  0  0  0  0  0
  -24.6941  -31.0551   22.0981 N   0  0  0  0  0  0
  -23.4199  -28.8124   23.3012 O   0  0  0  0  0  0
  -28.3533  -26.4335   20.1682 O   0  0  0  0  0  0
  -26.5637  -34.8920   22.4684 O   0  0  0  0  0  0
  -23.5427  -32.1381   23.7313 O   0  0  0  0  0  0
  -28.3095  -19.8340   21.5689 C   0  0  0  0  0  0
  -27.3473  -20.8580   21.5766 C   0  0  0  0  0  0
  -29.5784  -20.0897   21.0371 C   0  0  0  0  0  0
  -28.8592  -22.3474   20.6656 C   0  0  0  0  0  0
  -28.6064  -16.3842   20.4065 C   0  0  0  0  0  0
  -25.9285  -21.2149   23.6203 C   0  0  0  0  0  0
  -25.5541  -19.1651   22.2301 C   0  0  0  0  0  0
  -24.8861  -21.3783   21.3246 C   0  0  0  0  0  0
  -30.8345  -18.6643   22.7358 C   0  0  0  0  0  0
  -32.0776  -19.8505   20.9977 C   0  0  0  0  0  0
  -29.1145  -23.8226   20.1392 C   0  0  0  0  0  0
  -28.1443  -25.0180   20.6118 C   0  0  0  0  0  0
  -30.0655  -16.2157   20.8626 C   0  0  2  0  0  0
  -30.8187  -17.6102   20.3787 C   0  0  1  0  0  0
  -25.9470  -20.6585   22.1835 C   0  0  0  0  0  0
  -30.7696  -19.0293   21.2342 C   0  0  0  0  0  0
  -27.6466  -22.1015   21.1440 N   0  0  0  0  0  0
  -29.8132  -21.3775   20.5742 N   0  0  0  0  0  0
  -32.2317  -17.2992   20.0709 N   0  3  0  0  0  0
  -31.4603  -12.5400   19.1707 H   0  0  0  0  0  0
  -30.3523  -11.4832   19.9827 H   0  0  0  0  0  0
  -29.7865  -11.7234   17.5340 H   0  0  0  0  0  0
  -29.6145  -13.4521   17.7322 H   0  0  0  0  0  0
  -27.9018  -11.2560   18.9430 H   0  0  0  0  0  0
  -27.3660  -12.4775   17.8187 H   0  0  0  0  0  0
  -27.5995  -14.2043   19.4255 H   0  0  0  0  0  0
  -28.7317  -12.1890   21.4411 H   0  0  0  0  0  0
  -28.4259  -13.8538   21.8090 H   0  0  0  0  0  0
  -25.2705   -9.5657   22.4806 H   0  0  0  0  0  0
  -23.9963   -7.4591   22.7473 H   0  0  0  0  0  0
  -21.0817   -8.8715   19.8939 H   0  0  0  0  0  0
  -22.3638  -10.9640   19.6181 H   0  0  0  0  0  0
  -21.2036   -7.6140   23.9680 H   0  0  0  0  0  0
  -21.1466   -6.0526   25.9061 H   0  0  0  0  0  0
  -22.0620   -2.7583   23.2871 H   0  0  0  0  0  0
  -22.4079  -11.9824   22.4833 H   0  0  0  0  0  0
  -21.1060  -13.1171   22.2701 H   0  0  0  0  0  0
  -24.6417  -15.8338   20.5584 H   0  0  0  0  0  0
  -26.2582  -15.6333   20.1077 H   0  0  0  0  0  0
  -26.7182  -32.5447   23.1115 H   0  0  0  0  0  0
  -25.0008  -33.9708   25.0385 H   0  0  0  0  0  0
  -22.7248  -31.2972   21.3931 H   0  0  0  0  0  0
  -23.3746  -35.9634   23.3308 H   0  0  0  0  0  0
  -24.3563  -36.8943   22.2063 H   0  0  0  0  0  0
  -23.7245  -37.6504   23.6678 H   0  0  0  0  0  0
  -26.1007  -31.5441   20.6098 H   0  0  0  0  0  0
  -26.8471  -30.8360   22.0108 H   0  0  0  0  0  0
  -28.1288  -28.9637   21.2119 H   0  0  0  0  0  0
  -26.0242  -25.9275   18.9845 H   0  0  0  0  0  0
  -23.9990  -27.2999   18.9930 H   0  0  0  0  0  0
  -23.7821  -30.5892   19.4036 H   0  0  0  0  0  0
  -22.7729  -29.2458   19.8469 H   0  0  0  0  0  0
  -25.1275  -36.1948   25.0831 H   0  0  0  0  0  0
  -20.9948  -28.3311   24.1378 H   0  0  0  0  0  0
  -20.5665  -26.2316   23.3632 H   0  0  0  0  0  0
  -21.6644  -26.7455   22.1198 H   0  0  0  0  0  0
  -19.6930  -25.6289   21.1251 H   0  0  0  0  0  0
  -19.6697  -27.3184   20.6712 H   0  0  0  0  0  0
  -17.4194  -26.6650   21.4016 H   0  0  0  0  0  0
  -18.0321  -26.0085   22.9018 H   0  0  0  0  0  0
  -19.7967  -30.7222   24.2287 H   0  0  0  0  0  0
  -17.5061  -31.6272   24.5165 H   0  0  0  0  0  0
  -15.5363  -30.3006   23.7674 H   0  0  0  0  0  0
  -15.8659  -28.0840   22.7066 H   0  0  0  0  0  0
  -24.5883  -30.7073   25.7790 H   0  0  0  0  0  0
  -24.8866  -32.2891   26.4894 H   0  0  0  0  0  0
  -25.8018  -30.8918   27.0265 H   0  0  0  0  0  0
  -26.2946  -29.6742   24.1262 H   0  0  0  0  0  0
  -27.4062  -29.7323   25.4746 H   0  0  0  0  0  0
  -27.8806  -30.4315   23.9459 H   0  0  0  0  0  0
  -27.2642  -33.3668   26.2061 H   0  0  0  0  0  0
  -28.3841  -32.6899   25.0335 H   0  0  0  0  0  0
  -28.0696  -31.8513   26.5448 H   0  0  0  0  0  0
  -28.2575  -38.0109   24.7510 H   0  0  0  0  0  0
  -28.1091  -36.2630   24.6285 H   0  0  0  0  0  0
  -27.2291  -37.1444   25.8867 H   0  0  0  0  0  0
  -20.9407  -29.8845   21.6899 H   0  0  0  0  0  0
  -26.0185  -38.2856   24.1410 H   0  0  0  0  0  0
  -28.1038  -18.8818   22.0263 H   0  0  0  0  0  0
  -27.9223  -15.7912   21.0032 H   0  0  0  0  0  0
  -28.4961  -16.1508   19.3476 H   0  0  0  0  0  0
  -28.2587  -17.4056   20.5103 H   0  0  0  0  0  0
  -26.6641  -20.7081   24.2456 H   0  0  0  0  0  0
  -24.9546  -21.0805   24.0915 H   0  0  0  0  0  0
  -26.1639  -22.2786   23.6377 H   0  0  0  0  0  0
  -26.1700  -18.5994   22.9276 H   0  0  0  0  0  0
  -25.6482  -18.7006   21.2473 H   0  0  0  0  0  0
  -24.5226  -19.0350   22.5551 H   0  0  0  0  0  0
  -25.0471  -22.4567   21.3080 H   0  0  0  0  0  0
  -23.8770  -21.2155   21.7044 H   0  0  0  0  0  0
  -24.9193  -21.0272   20.2922 H   0  0  0  0  0  0
  -30.9316  -19.5555   23.3556 H   0  0  0  0  0  0
  -31.6880  -18.0237   22.9616 H   0  0  0  0  0  0
  -29.9435  -18.1425   23.0789 H   0  0  0  0  0  0
  -32.0827  -20.7642   21.5934 H   0  0  0  0  0  0
  -32.1750  -20.1541   19.9547 H   0  0  0  0  0  0
  -32.9898  -19.3321   21.2933 H   0  0  0  0  0  0
  -29.1047  -23.7824   19.0504 H   0  0  0  0  0  0
  -30.1358  -24.0853   20.4121 H   0  0  0  0  0  0
  -28.1831  -25.0462   21.7014 H   0  0  0  0  0  0
  -27.1294  -24.6980   20.3822 H   0  0  0  0  0  0
  -30.0754  -16.1969   21.9502 H   0  0  0  0  0  0
  -30.4131  -17.8551   19.3949 H   0  0  0  0  0  0
  -32.8205  -17.4316   20.8750 H   0  0  0  0  0  0
  -32.5776  -17.8650   19.3137 H   0  0  0  0  0  0
  -32.2884  -16.3186   19.8087 H   0  0  0  0  0  0
  1 25  1  0  0  0
  1 30  2  0  0  0
  1 83  1  0  0  0
  2  3  1  0  0  0
  2 25  1  0  0  0
  2 90  1  0  0  0
  2 91  1  0  0  0
  3  4  1  0  0  0
  3 92  1  0  0  0
  3 93  1  0  0  0
  4  5  1  0  0  0
  4 94  1  0  0  0
  4 95  1  0  0  0
  5  6  1  0  0  0
  5 26  1  0  0  0
  5 96  1  0  0  0
  6 25  1  0  0  0
  6 97  1  0  0  0
  6 98  1  0  0  0
  7  8  2  0  0  0
  7 26  1  0  0  0
  7 29  1  0  0  0
  8  9  1  0  0  0
  8 22  1  0  0  0
  9 10  1  0  0  0
  9 27  2  0  0  0
 10 11  2  0  0  0
 10 15  1  0  0  0
 11 12  1  0  0  0
 11 99  1  0  0  0
 12 13  2  0  0  0
 12100  1  0  0  0
 13 14  1  0  0  0
 13 31  1  0  0  0
 14 15  2  0  0  0
 14101  1  0  0  0
 15102  1  0  0  0
 16 17  2  0  0  0
 16 21  1  0  0  0
 16 31  1  0  0  0
 17 18  1  0  0  0
 17103  1  0  0  0
 18 19  2  0  0  0
 18104  1  0  0  0
 19 20  1  0  0  0
 19 24  1  0  0  0
 20 21  2  0  0  0
 20105  1  0  0  0
 21 23  1  0  0  0
 22 28  1  0  0  0
 22 32  2  0  0  0
 26 27  1  0  0  0
 28106  1  0  0  0
 28107  1  0  0  0
 29108  1  0  0  0
 29109  1  0  0  0
 33 34  1  0  0  0
 33 66  1  0  0  0
 33 70  2  0  0  0
 34 36  1  0  0  0
 34 59  1  0  0  0
 34110  1  0  0  0
 35 44  2  0  0  0
 35 45  1  0  0  0
 35 68  1  0  0  0
 36 56  1  0  0  0
 36111  1  0  0  0
 37 39  1  0  0  0
 37 47  1  0  0  0
 37 66  1  0  0  0
 37112  1  0  0  0
 38 43  2  0  0  0
 38 46  1  0  0  0
 38 47  1  0  0  0
 39 64  1  0  0  0
 39 67  2  0  0  0
 40 52  1  0  0  0
 40 53  2  0  0  0
 40 58  1  0  0  0
 41113  1  0  0  0
 41114  1  0  0  0
 41115  1  0  0  0
 41 48  1  0  0  0
 42 43  1  0  0  0
 42 66  1  0  0  0
 42116  1  0  0  0
 42117  1  0  0  0
 43 44  1  0  0  0
 44118  1  0  0  0
 45 46  2  0  0  0
 45119  1  0  0  0
 46120  1  0  0  0
 47121  1  0  0  0
 47122  1  0  0  0
 48 56  1  0  0  0
 48 65  1  0  0  0
 48123  1  0  0  0
 49 50  1  0  0  0
 49 53  1  0  0  0
 49 64  1  0  0  0
 49124  1  0  0  0
 50 51  1  0  0  0
 50125  1  0  0  0
 50126  1  0  0  0
 51 52  1  0  0  0
 51127  1  0  0  0
 51128  1  0  0  0
 52129  1  0  0  0
 52130  1  0  0  0
 53 54  1  0  0  0
 54 55  2  0  0  0
 54131  1  0  0  0
 55 57  1  0  0  0
 55132  1  0  0  0
 56 69  2  0  0  0
 57 58  2  0  0  0
 57133  1  0  0  0
 58134  1  0  0  0
 59 60  1  0  0  0
 59 61  1  0  0  0
 59 62  1  0  0  0
 60135  1  0  0  0
 60136  1  0  0  0
 60137  1  0  0  0
 61138  1  0  0  0
 61139  1  0  0  0
 61140  1  0  0  0
 62141  1  0  0  0
 62142  1  0  0  0
 62143  1  0  0  0
 63 65  1  0  0  0
 63144  1  0  0  0
 63145  1  0  0  0
 63146  1  0  0  0
 64147  1  0  0  0
 65148  1  0  0  0
 68 82  1  0  0  0
 71 72  2  0  0  0
 71 73  1  0  0  0
 71149  1  0  0  0
 72 85  1  0  0  0
 72 87  1  0  0  0
 73 86  1  0  0  0
 73 88  2  0  0  0
 74 81  1  0  0  0
 74 87  2  0  0  0
 74 88  1  0  0  0
 75150  1  0  0  0
 75151  1  0  0  0
 75152  1  0  0  0
 75 83  1  0  0  0
 76153  1  0  0  0
 76154  1  0  0  0
 76155  1  0  0  0
 76 85  1  0  0  0
 77 85  1  0  0  0
 77156  1  0  0  0
 77157  1  0  0  0
 77158  1  0  0  0
 78 85  1  0  0  0
 78159  1  0  0  0
 78160  1  0  0  0
 78161  1  0  0  0
 79162  1  0  0  0
 79163  1  0  0  0
 79164  1  0  0  0
 79 86  1  0  0  0
 80 86  1  0  0  0
 80165  1  0  0  0
 80166  1  0  0  0
 80167  1  0  0  0
 81 82  1  0  0  0
 81168  1  0  0  0
 81169  1  0  0  0
 82170  1  0  0  0
 82171  1  0  0  0
 83 84  1  0  0  0
 83172  1  0  0  0
 84 86  1  0  0  0
 84 89  1  0  0  0
 84173  1  0  0  0
 89174  1  0  0  0
 89175  1  0  0  0
 89176  1  0  0  0
M  CHG  1  89   1
M  ISO  4   1 100  68 101  82 101  83 100
M  END
> <chiral flag>
0

> <version>
0

> <s_m_source_file>
/data/baiqing/PycharmProjects/Reinvent-master-3.2/result/LINK_invent/BTK/process_docking_weight1_custom_sum_contain_oxygen_bond_distance_aromatic_linkinvent_7_9_3/rearranged_h_0074.sdf

> <i_m_source_file_index>
80

> <r_mmod_Potential_Energy-OPLS-2005>
-416.841125488281

> <r_mmod_Stretch_Energy-OPLS-2005>
148.376678466797

> <r_mmod_Bend_Energy-OPLS-2005>
206.150360107422

> <r_mmod_Torsional_Energy-OPLS-2005>
238.107055664062

> <r_mmod_Improper_Torsional_Energy-OPLS-2005>
4.21245956420898

> <r_mmod_Van_der_Waal_Energy-OPLS-2005>
197.147247314453

> <r_mmod_Electrostatic_Energy-OPLS-2005>
-834.84619140625

> <r_mmod_Solvation_Energy-OPLS-2005>
-449.884765625

> <b_mmod_Minimization_Converged-OPLS-2005>
0

> <r_mmod_RMS_Derivative-OPLS-2005>
2.85908365249634

$$$$
80
                    3D
 Structure written by MMmdl.
167175  0  0  1  0            999 V2000
  -30.4857  -14.9822   20.3371 C   0  0  0  0  0  0
  -30.4476  -12.5748   19.5435 C   0  0  0  0  0  0
  -29.5507  -12.5086   18.2848 C   0  0  0  0  0  0
  -28.0768  -12.2922   18.6693 C   0  0  0  0  0  0
  -27.6195  -13.2329   19.8112 C   0  0  2  0  0  0
  -28.6435  -13.3302   20.9598 C   0  0  0  0  0  0
  -25.2432  -13.8136   20.5733 C   0  0  0  0  0  0
  -24.1752  -13.0426   20.9225 C   0  0  0  0  0  0
  -24.6352  -11.6875   20.8778 C   0  0  0  0  0  0
  -23.9061  -10.4282   21.0463 C   0  0  0  0  0  0
  -24.3659   -9.4188   21.9235 C   0  0  0  0  0  0
  -23.6348   -8.2225   22.0807 C   0  0  0  0  0  0
  -22.4326   -8.0272   21.3575 C   0  0  0  0  0  0
  -21.9927   -9.0247   20.4665 C   0  0  0  0  0  0
  -22.7244  -10.2127   20.3076 C   0  0  0  0  0  0
  -21.6844   -6.0733   22.5277 C   0  0  0  0  0  0
  -21.4008   -6.5626   23.8195 C   0  0  0  0  0  0
  -21.3685   -5.6782   24.9178 C   0  0  0  0  0  0
  -21.6061   -4.3085   24.7225 C   0  0  0  0  0  0
  -21.8839   -3.8129   23.4321 C   0  0  0  0  0  0
  -21.9221   -4.6934   22.3373 C   0  0  0  0  0  0
  -22.7776  -13.5192   21.1883 C   0  0  0  0  0  0
  -22.1688   -4.2131   21.0964 F   0  0  0  0  0  0
  -21.5649   -3.4535   25.7720 F   0  0  0  0  0  0
  -29.9404  -13.6968   20.3851 N   0  0  0  0  0  0
  -26.2835  -12.9355   20.3107 N   0  0  0  0  0  0
  -25.9289  -11.6527   20.5641 N   0  0  0  0  0  0
  -22.0451  -12.8178   22.0418 N   0  0  0  0  0  0
  -25.4197  -15.1916   20.4206 N   0  0  0  0  0  0
  -31.7189  -15.0334   20.2547 O   0  0  0  0  0  0
  -21.6678   -6.8879   21.4251 O   0  0  0  0  0  0
  -22.3482  -14.5582   20.6799 O   0  0  0  0  0  0
  -24.6420  -31.8498   23.1926 C   0  0  0  0  0  0
  -25.9191  -32.4741   23.8277 C   0  0  1  0  0  0
  -27.1620  -27.1189   20.1217 C   0  0  0  0  0  0
  -25.5967  -33.8560   24.2194 N   0  0  0  0  0  0
  -23.4390  -30.4748   21.5447 C   0  0  2  0  0  0
  -24.8716  -28.9094   20.0992 C   0  0  0  0  0  0
  -22.7537  -29.4576   22.4899 C   0  0  0  0  0  0
  -18.0304  -28.1367   22.8482 C   0  0  0  0  0  0
  -24.1491  -36.7273   23.2627 C   0  0  0  0  0  0
  -25.9998  -30.7114   21.3943 C   0  0  0  0  0  0
  -26.0520  -29.3268   20.7241 C   0  0  0  0  0  0
  -27.1975  -28.4432   20.7228 C   0  0  0  0  0  0
  -25.9562  -26.8168   19.4464 C   0  0  0  0  0  0
  -24.8401  -27.6735   19.4428 C   0  0  0  0  0  0
  -23.6510  -29.8163   20.1599 C   0  0  0  0  0  0
  -25.4151  -36.3089   24.0296 C   0  0  1  0  0  0
  -20.5913  -28.3696   23.1228 C   0  0  2  0  0  0
  -20.6801  -26.9404   22.5383 C   0  0  0  0  0  0
  -19.5773  -26.6355   21.5196 C   0  0  0  0  0  0
  -18.1946  -26.7913   22.1599 C   0  0  0  0  0  0
  -19.1550  -28.8842   23.2851 C   0  0  0  0  0  0
  -18.9460  -30.1457   23.8832 C   0  0  0  0  0  0
  -17.6459  -30.6559   24.0534 C   0  0  0  0  0  0
  -25.9090  -34.9472   23.5030 C   0  0  0  0  0  0
  -16.5358  -29.9025   23.6356 C   0  0  0  0  0  0
  -16.7296  -28.6465   23.0362 C   0  0  0  0  0  0
  -26.4501  -31.6627   25.0741 C   0  0  0  0  0  0
  -25.3641  -31.3848   26.1389 C   0  0  0  0  0  0
  -27.0326  -30.3011   24.6343 C   0  0  0  0  0  0
  -27.6014  -32.4399   25.7532 C   0  0  0  0  0  0
  -27.5588  -37.1817   24.8451 C   0  0  0  0  0  0
  -21.4216  -29.3046   22.3611 N   0  0  0  0  0  0
  -26.4335  -37.3791   23.9344 N   0  0  0  0  0  0
  -24.7144  -31.0333   22.0975 N   0  0  0  0  0  0
  -23.4191  -28.8101   23.3023 O   0  0  0  0  0  0
  -28.1859  -26.1117   20.2549 O   0  0  0  0  0  0
  -26.5638  -34.8918   22.4603 O   0  0  0  0  0  0
  -23.5548  -32.1382   23.7140 O   0  0  0  0  0  0
  -29.3332  -19.9595   21.4076 C   0  0  0  0  0  0
  -29.0821  -20.2943   20.0980 C   0  0  0  0  0  0
  -29.4963  -17.9278   20.3503 C   0  0  0  0  0  0
  -29.9956  -16.5028   18.3663 C   0  0  0  0  0  0
  -29.1340  -24.9625   18.4599 C   0  0  0  0  0  0
  -31.5078  -17.6829   22.7651 C   0  0  0  0  0  0
  -29.1520  -16.7112   23.1034 C   0  0  0  0  0  0
  -29.8188  -18.9154   24.0900 C   0  0  0  0  0  0
  -28.8317  -21.7632   19.4222 C   0  0  0  0  0  0
  -28.5678  -23.1856   20.3003 C   0  0  0  0  0  0
  -29.6013  -16.3392   19.8551 C   0  0  1  0  0  0
  -28.1756  -24.6831   19.6160 C   0  0  1  0  0  0
  -29.9989  -17.9762   22.8473 C   0  0  0  0  0  0
  -29.5923  -18.5902   21.5507 N   0  0  0  0  0  0
  -29.0969  -18.9815   19.5267 N   0  3  0  0  0  0
  -31.4909  -12.7319   19.2560 H   0  0  0  0  0  0
  -30.4254  -11.6259   20.0825 H   0  0  0  0  0  0
  -29.8813  -11.7113   17.6192 H   0  0  0  0  0  0
  -29.6563  -13.4370   17.7278 H   0  0  0  0  0  0
  -27.9529  -11.2535   18.9773 H   0  0  0  0  0  0
  -27.4522  -12.4383   17.7865 H   0  0  0  0  0  0
  -27.5512  -14.2050   19.3376 H   0  0  0  0  0  0
  -28.7056  -12.4059   21.5359 H   0  0  0  0  0  0
  -28.3284  -14.1030   21.6621 H   0  0  0  0  0  0
  -25.2854   -9.5625   22.4748 H   0  0  0  0  0  0
  -24.0065   -7.4574   22.7510 H   0  0  0  0  0  0
  -21.0852   -8.8762   19.8943 H   0  0  0  0  0  0
  -22.3796  -10.9652   19.6153 H   0  0  0  0  0  0
  -21.1990   -7.6144   23.9663 H   0  0  0  0  0  0
  -21.1519   -6.0540   25.9052 H   0  0  0  0  0  0
  -22.0615   -2.7585   23.2842 H   0  0  0  0  0  0
  -22.4104  -11.9782   22.4725 H   0  0  0  0  0  0
  -21.1065  -13.1139   22.2665 H   0  0  0  0  0  0
  -24.6611  -15.8575   20.5337 H   0  0  0  0  0  0
  -26.2748  -15.6235   20.1026 H   0  0  0  0  0  0
  -26.7238  -32.5324   23.0976 H   0  0  0  0  0  0
  -25.0189  -33.9763   25.0383 H   0  0  0  0  0  0
  -22.7408  -31.3051   21.4041 H   0  0  0  0  0  0
  -23.3762  -35.9579   23.3355 H   0  0  0  0  0  0
  -24.3561  -36.8864   22.2027 H   0  0  0  0  0  0
  -23.7239  -37.6486   23.6642 H   0  0  0  0  0  0
  -26.1630  -31.4695   20.6271 H   0  0  0  0  0  0
  -26.8737  -30.7492   22.0349 H   0  0  0  0  0  0
  -28.0945  -28.7486   21.2392 H   0  0  0  0  0  0
  -25.7964  -25.8880   18.9326 H   0  0  0  0  0  0
  -23.9373  -27.3592   18.9309 H   0  0  0  0  0  0
  -23.7641  -30.5977   19.4092 H   0  0  0  0  0  0
  -22.7593  -29.2616   19.8654 H   0  0  0  0  0  0
  -25.1349  -36.1942   25.0794 H   0  0  0  0  0  0
  -21.0040  -28.3283   24.1338 H   0  0  0  0  0  0
  -20.5700  -26.2302   23.3594 H   0  0  0  0  0  0
  -21.6672  -26.7405   22.1173 H   0  0  0  0  0  0
  -19.6951  -25.6250   21.1255 H   0  0  0  0  0  0
  -19.6737  -27.3119   20.6687 H   0  0  0  0  0  0
  -17.4236  -26.6674   21.3991 H   0  0  0  0  0  0
  -18.0335  -26.0055   22.8990 H   0  0  0  0  0  0
  -19.7937  -30.7321   24.2145 H   0  0  0  0  0  0
  -17.4991  -31.6247   24.5125 H   0  0  0  0  0  0
  -15.5347  -30.2884   23.7709 H   0  0  0  0  0  0
  -15.8712  -28.0755   22.7075 H   0  0  0  0  0  0
  -24.5808  -30.7234   25.7682 H   0  0  0  0  0  0
  -24.8824  -32.3041   26.4730 H   0  0  0  0  0  0
  -25.7876  -30.9057   27.0221 H   0  0  0  0  0  0
  -26.2929  -29.6762   24.1325 H   0  0  0  0  0  0
  -27.3854  -29.7317   25.4954 H   0  0  0  0  0  0
  -27.8889  -30.4199   23.9690 H   0  0  0  0  0  0
  -27.2591  -33.3701   26.2059 H   0  0  0  0  0  0
  -28.3857  -32.6974   25.0411 H   0  0  0  0  0  0
  -28.0613  -31.8560   26.5514 H   0  0  0  0  0  0
  -28.2612  -38.0106   24.7504 H   0  0  0  0  0  0
  -28.1097  -36.2651   24.6318 H   0  0  0  0  0  0
  -27.2287  -37.1486   25.8848 H   0  0  0  0  0  0
  -20.9370  -29.8790   21.6840 H   0  0  0  0  0  0
  -26.0215  -38.2849   24.1372 H   0  0  0  0  0  0
  -29.3503  -20.6538   22.2297 H   0  0  0  0  0  0
  -29.1915  -16.9236   17.7710 H   0  0  0  0  0  0
  -30.2976  -15.5828   17.8721 H   0  0  0  0  0  0
  -30.8490  -17.1814   18.3023 H   0  0  0  0  0  0
  -29.5097  -24.0438   18.0136 H   0  0  0  0  0  0
  -29.9849  -25.5389   18.8200 H   0  0  0  0  0  0
  -28.6426  -25.5478   17.6754 H   0  0  0  0  0  0
  -31.8394  -17.0837   23.6139 H   0  0  0  0  0  0
  -32.0873  -18.6075   22.7716 H   0  0  0  0  0  0
  -31.7789  -17.1603   21.8480 H   0  0  0  0  0  0
  -28.8653  -16.6049   24.1516 H   0  0  0  0  0  0
  -29.7023  -15.8122   22.8385 H   0  0  0  0  0  0
  -28.2120  -16.7127   22.5511 H   0  0  0  0  0  0
  -30.1220  -18.3867   24.9983 H   0  0  0  0  0  0
  -28.7875  -19.2276   24.2516 H   0  0  0  0  0  0
  -30.4440  -19.8115   24.0590 H   0  0  0  0  0  0
  -27.9682  -21.6583   18.7565 H   0  0  0  0  0  0
  -29.6709  -21.9337   18.7239 H   0  0  0  0  0  0
  -29.4000  -23.3249   21.0062 H   0  0  0  0  0  0
  -27.6997  -22.9074   20.9021 H   0  0  0  0  0  0
  -28.5639  -16.0070   19.8880 H   0  0  0  0  0  0
  -27.1992  -24.4746   19.1910 H   0  0  0  0  0  0
  -28.7457  -18.7831   18.5928 H   0  0  0  0  0  0
  1 25  1  0  0  0
  1 30  2  0  0  0
  1 81  1  0  0  0
  2  3  1  0  0  0
  2 25  1  0  0  0
  2 86  1  0  0  0
  2 87  1  0  0  0
  3  4  1  0  0  0
  3 88  1  0  0  0
  3 89  1  0  0  0
  4  5  1  0  0  0
  4 90  1  0  0  0
  4 91  1  0  0  0
  5  6  1  0  0  0
  5 26  1  0  0  0
  5 92  1  0  0  0
  6 25  1  0  0  0
  6 93  1  0  0  0
  6 94  1  0  0  0
  7  8  2  0  0  0
  7 26  1  0  0  0
  7 29  1  0  0  0
  8  9  1  0  0  0
  8 22  1  0  0  0
  9 10  1  0  0  0
  9 27  2  0  0  0
 10 11  2  0  0  0
 10 15  1  0  0  0
 11 12  1  0  0  0
 11 95  1  0  0  0
 12 13  2  0  0  0
 12 96  1  0  0  0
 13 14  1  0  0  0
 13 31  1  0  0  0
 14 15  2  0  0  0
 14 97  1  0  0  0
 15 98  1  0  0  0
 16 17  2  0  0  0
 16 21  1  0  0  0
 16 31  1  0  0  0
 17 18  1  0  0  0
 17 99  1  0  0  0
 18 19  2  0  0  0
 18100  1  0  0  0
 19 20  1  0  0  0
 19 24  1  0  0  0
 20 21  2  0  0  0
 20101  1  0  0  0
 21 23  1  0  0  0
 22 28  1  0  0  0
 22 32  2  0  0  0
 26 27  1  0  0  0
 28102  1  0  0  0
 28103  1  0  0  0
 29104  1  0  0  0
 29105  1  0  0  0
 33 34  1  0  0  0
 33 66  1  0  0  0
 33 70  2  0  0  0
 34 36  1  0  0  0
 34 59  1  0  0  0
 34106  1  0  0  0
 35 44  2  0  0  0
 35 45  1  0  0  0
 35 68  1  0  0  0
 36 56  1  0  0  0
 36107  1  0  0  0
 37 39  1  0  0  0
 37 47  1  0  0  0
 37 66  1  0  0  0
 37108  1  0  0  0
 38 43  2  0  0  0
 38 46  1  0  0  0
 38 47  1  0  0  0
 39 64  1  0  0  0
 39 67  2  0  0  0
 40 52  1  0  0  0
 40 53  2  0  0  0
 40 58  1  0  0  0
 41109  1  0  0  0
 41110  1  0  0  0
 41111  1  0  0  0
 41 48  1  0  0  0
 42 43  1  0  0  0
 42 66  1  0  0  0
 42112  1  0  0  0
 42113  1  0  0  0
 43 44  1  0  0  0
 44114  1  0  0  0
 45 46  2  0  0  0
 45115  1  0  0  0
 46116  1  0  0  0
 47117  1  0  0  0
 47118  1  0  0  0
 48 56  1  0  0  0
 48 65  1  0  0  0
 48119  1  0  0  0
 49 50  1  0  0  0
 49 53  1  0  0  0
 49 64  1  0  0  0
 49120  1  0  0  0
 50 51  1  0  0  0
 50121  1  0  0  0
 50122  1  0  0  0
 51 52  1  0  0  0
 51123  1  0  0  0
 51124  1  0  0  0
 52125  1  0  0  0
 52126  1  0  0  0
 53 54  1  0  0  0
 54 55  2  0  0  0
 54127  1  0  0  0
 55 57  1  0  0  0
 55128  1  0  0  0
 56 69  2  0  0  0
 57 58  2  0  0  0
 57129  1  0  0  0
 58130  1  0  0  0
 59 60  1  0  0  0
 59 61  1  0  0  0
 59 62  1  0  0  0
 60131  1  0  0  0
 60132  1  0  0  0
 60133  1  0  0  0
 61134  1  0  0  0
 61135  1  0  0  0
 61136  1  0  0  0
 62137  1  0  0  0
 62138  1  0  0  0
 62139  1  0  0  0
 63 65  1  0  0  0
 63140  1  0  0  0
 63141  1  0  0  0
 63142  1  0  0  0
 64143  1  0  0  0
 65144  1  0  0  0
 68 82  1  0  0  0
 71 72  2  0  0  0
 71 84  1  0  0  0
 71145  1  0  0  0
 72 79  1  0  0  0
 72 85  1  0  0  0
 73 81  1  0  0  0
 73 84  1  0  0  0
 73 85  2  0  0  0
 74146  1  0  0  0
 74147  1  0  0  0
 74148  1  0  0  0
 74 81  1  0  0  0
 75149  1  0  0  0
 75150  1  0  0  0
 75151  1  0  0  0
 75 82  1  0  0  0
 76152  1  0  0  0
 76153  1  0  0  0
 76154  1  0  0  0
 76 83  1  0  0  0
 77 83  1  0  0  0
 77155  1  0  0  0
 77156  1  0  0  0
 77157  1  0  0  0
 78 83  1  0  0  0
 78158  1  0  0  0
 78159  1  0  0  0
 78160  1  0  0  0
 79 80  1  0  0  0
 79161  1  0  0  0
 79162  1  0  0  0
 80 82  1  0  0  0
 80163  1  0  0  0
 80164  1  0  0  0
 81165  1  0  0  0
 82166  1  0  0  0
 83 84  1  0  0  0
 85167  1  0  0  0
M  CHG  1  85   1
M  ISO  4   1 100  68 101  81 100  82 101
M  END
> <chiral flag>
0

> <version>
0

> <s_m_source_file>
/data/baiqing/PycharmProjects/Reinvent-master-3.2/result/LINK_invent/BTK/process_docking_weight1_custom_sum_contain_oxygen_bond_distance_aromatic_linkinvent_7_9_3/rearranged_h_0074.sdf

> <i_m_source_file_index>
81

> <r_mmod_Potential_Energy-OPLS-2005>
678.485656738281

> <r_mmod_Stretch_Energy-OPLS-2005>
282.787902832031

> <r_mmod_Bend_Energy-OPLS-2005>
326.984130859375

> <r_mmod_Torsional_Energy-OPLS-2005>
268.125427246094

> <r_mmod_Improper_Torsional_Energy-OPLS-2005>
15.5629186630249

> <r_mmod_Van_der_Waal_Energy-OPLS-2005>
120.023612976074

> <r_mmod_Electrostatic_Energy-OPLS-2005>
-174.552261352539

> <r_mmod_Solvation_Energy-OPLS-2005>
-390.018188476562

> <b_mmod_Minimization_Converged-OPLS-2005>
0

> <r_mmod_RMS_Derivative-OPLS-2005>
16.5596141815186

$$$$
81
                    3D
 Structure written by MMmdl.
170178  0  0  1  0            999 V2000
  -30.5825  -14.7325   20.6623 C   0  0  0  0  0  0
  -30.4644  -12.5006   19.4597 C   0  0  0  0  0  0
  -29.5226  -12.5599   18.2332 C   0  0  0  0  0  0
  -28.0425  -12.3810   18.6362 C   0  0  0  0  0  0
  -27.6581  -13.2241   19.8809 C   0  0  2  0  0  0
  -28.7033  -13.0293   21.0018 C   0  0  0  0  0  0
  -25.2572  -13.8233   20.5695 C   0  0  0  0  0  0
  -24.1829  -13.0475   20.9214 C   0  0  0  0  0  0
  -24.6406  -11.6956   20.8777 C   0  0  0  0  0  0
  -23.9079  -10.4328   21.0431 C   0  0  0  0  0  0
  -24.3629   -9.4243   21.9199 C   0  0  0  0  0  0
  -23.6291   -8.2279   22.0761 C   0  0  0  0  0  0
  -22.4277   -8.0316   21.3542 C   0  0  0  0  0  0
  -21.9908   -9.0296   20.4654 C   0  0  0  0  0  0
  -22.7255  -10.2173   20.3066 C   0  0  0  0  0  0
  -21.6862   -6.0742   22.5286 C   0  0  0  0  0  0
  -21.4021   -6.5625   23.8225 C   0  0  0  0  0  0
  -21.3669   -5.6779   24.9186 C   0  0  0  0  0  0
  -21.6050   -4.3041   24.7248 C   0  0  0  0  0  0
  -21.8817   -3.8131   23.4364 C   0  0  0  0  0  0
  -21.9193   -4.6960   22.3414 C   0  0  0  0  0  0
  -22.7855  -13.5286   21.1862 C   0  0  0  0  0  0
  -22.1656   -4.2142   21.1005 F   0  0  0  0  0  0
  -21.5627   -3.4522   25.7763 F   0  0  0  0  0  0
  -29.9994  -13.4894   20.4629 N   0  0  0  0  0  0
  -26.3002  -12.9388   20.3372 N   0  0  0  0  0  0
  -25.9350  -11.6539   20.5782 N   0  0  0  0  0  0
  -22.0467  -12.8270   22.0407 N   0  0  0  0  0  0
  -25.4250  -15.1945   20.4119 N   0  0  0  0  0  0
  -31.6759  -14.9637   20.1335 O   0  0  0  0  0  0
  -21.6633   -6.8900   21.4259 O   0  0  0  0  0  0
  -22.3534  -14.5589   20.6734 O   0  0  0  0  0  0
  -24.6371  -31.8493   23.1935 C   0  0  0  0  0  0
  -25.9150  -32.4722   23.8333 C   0  0  1  0  0  0
  -27.2498  -27.2532   20.1075 C   0  0  0  0  0  0
  -25.5912  -33.8536   24.2245 N   0  0  0  0  0  0
  -23.4343  -30.4711   21.5362 C   0  0  2  0  0  0
  -24.8878  -28.9152   20.1093 C   0  0  0  0  0  0
  -22.7538  -29.4554   22.4875 C   0  0  0  0  0  0
  -18.0287  -28.1346   22.8429 C   0  0  0  0  0  0
  -24.1482  -36.7313   23.2646 C   0  0  0  0  0  0
  -25.9835  -30.7594   21.3725 C   0  0  0  0  0  0
  -26.0585  -29.3818   20.7151 C   0  0  0  0  0  0
  -27.2362  -28.5642   20.7020 C   0  0  0  0  0  0
  -26.0463  -26.8588   19.4744 C   0  0  0  0  0  0
  -24.8867  -27.6605   19.4821 C   0  0  0  0  0  0
  -23.6561  -29.7991   20.1576 C   0  0  0  0  0  0
  -25.4103  -36.3093   24.0334 C   0  0  1  0  0  0
  -20.5897  -28.3668   23.1249 C   0  0  2  0  0  0
  -20.6742  -26.9366   22.5419 C   0  0  0  0  0  0
  -19.5726  -26.6330   21.5198 C   0  0  0  0  0  0
  -18.1898  -26.7869   22.1595 C   0  0  0  0  0  0
  -19.1539  -28.8827   23.2811 C   0  0  0  0  0  0
  -18.9470  -30.1409   23.8864 C   0  0  0  0  0  0
  -17.6475  -30.6548   24.0553 C   0  0  0  0  0  0
  -25.9060  -34.9438   23.5112 C   0  0  0  0  0  0
  -16.5360  -29.9054   23.6319 C   0  0  0  0  0  0
  -16.7268  -28.6467   23.0327 C   0  0  0  0  0  0
  -26.4478  -31.6574   25.0755 C   0  0  0  0  0  0
  -25.3694  -31.3726   26.1485 C   0  0  0  0  0  0
  -27.0317  -30.2995   24.6264 C   0  0  0  0  0  0
  -27.6050  -32.4325   25.7509 C   0  0  0  0  0  0
  -27.5564  -37.1791   24.8446 C   0  0  0  0  0  0
  -21.4234  -29.3008   22.3632 N   0  0  0  0  0  0
  -26.4271  -37.3792   23.9405 N   0  0  0  0  0  0
  -24.7055  -31.0445   22.0919 N   0  0  0  0  0  0
  -23.4232  -28.8103   23.2977 O   0  0  0  0  0  0
  -28.3812  -26.3919   20.1941 O   0  0  0  0  0  0
  -26.5671  -34.8920   22.4712 O   0  0  0  0  0  0
  -23.5509  -32.1322   23.7214 O   0  0  0  0  0  0
  -29.5386  -20.0392   21.1439 C   0  0  0  0  0  0
  -29.5691  -20.8471   20.0038 C   0  0  0  0  0  0
  -30.0421  -18.6530   19.5024 C   0  0  0  0  0  0
  -30.3370  -17.4645   18.6558 C   0  0  0  0  0  0
  -30.5751  -15.3580   23.0243 C   0  0  0  0  0  0
  -29.1768  -18.3820   24.7974 C   0  0  0  0  0  0
  -27.6168  -16.3570   24.6061 C   0  0  0  0  0  0
  -29.2087  -22.3305   19.5322 C   0  0  0  0  0  0
  -29.0025  -23.6776   20.4175 C   0  0  0  0  0  0
  -28.2027  -17.6684   22.4564 C   0  0  0  0  0  0
  -28.4609  -24.9980   19.6175 C   0  0  0  0  0  0
  -29.9255  -15.8042   21.6899 C   0  0  1  0  0  0
  -28.0388  -17.7083   24.0024 C   0  0  0  0  0  0
  -29.6332  -17.4668   21.8011 C   0  0  1  0  0  0
  -29.7682  -18.6716   20.8132 N   0  0  0  0  0  0
  -29.9591  -19.9246   19.0485 N   0  3  0  0  0  0
  -31.4935  -12.6927   19.1561 H   0  0  0  0  0  0
  -30.4664  -11.4980   19.8907 H   0  0  0  0  0  0
  -29.8115  -11.8061   17.4989 H   0  0  0  0  0  0
  -29.6424  -13.5254   17.7423 H   0  0  0  0  0  0
  -27.8770  -11.3240   18.8387 H   0  0  0  0  0  0
  -27.3891  -12.6377   17.8011 H   0  0  0  0  0  0
  -27.6845  -14.2732   19.5793 H   0  0  0  0  0  0
  -28.7614  -11.9741   21.2758 H   0  0  0  0  0  0
  -28.4022  -13.5112   21.9311 H   0  0  0  0  0  0
  -25.2813   -9.5689   22.4733 H   0  0  0  0  0  0
  -23.9998   -7.4675   22.7478 H   0  0  0  0  0  0
  -21.0818   -8.8875   19.8962 H   0  0  0  0  0  0
  -22.3773  -10.9718   19.6136 H   0  0  0  0  0  0
  -21.2015   -7.6130   23.9736 H   0  0  0  0  0  0
  -21.1477   -6.0492   25.9082 H   0  0  0  0  0  0
  -22.0577   -2.7586   23.2879 H   0  0  0  0  0  0
  -22.4021  -11.9912   22.4800 H   0  0  0  0  0  0
  -21.1083  -13.1307   22.2606 H   0  0  0  0  0  0
  -24.6567  -15.8473   20.5259 H   0  0  0  0  0  0
  -26.2714  -15.6378   20.0797 H   0  0  0  0  0  0
  -26.7223  -32.5376   23.1087 H   0  0  0  0  0  0
  -24.9940  -33.9648   25.0308 H   0  0  0  0  0  0
  -22.7346  -31.2952   21.3805 H   0  0  0  0  0  0
  -23.3742  -35.9638   23.3316 H   0  0  0  0  0  0
  -24.3574  -36.8990   22.2064 H   0  0  0  0  0  0
  -23.7227  -37.6512   23.6686 H   0  0  0  0  0  0
  -26.1234  -31.5152   20.5982 H   0  0  0  0  0  0
  -26.8619  -30.8160   22.0033 H   0  0  0  0  0  0
  -28.1375  -28.9162   21.1843 H   0  0  0  0  0  0
  -25.9456  -25.9061   18.9852 H   0  0  0  0  0  0
  -23.9897  -27.2926   19.0048 H   0  0  0  0  0  0
  -23.7770  -30.5701   19.3961 H   0  0  0  0  0  0
  -22.7802  -29.2255   19.8524 H   0  0  0  0  0  0
  -25.1265  -36.1967   25.0827 H   0  0  0  0  0  0
  -20.9927  -28.3241   24.1391 H   0  0  0  0  0  0
  -20.5584  -26.2272   23.3639 H   0  0  0  0  0  0
  -21.6616  -26.7334   22.1270 H   0  0  0  0  0  0
  -19.6930  -25.6245   21.1232 H   0  0  0  0  0  0
  -19.6715  -27.3125   20.6732 H   0  0  0  0  0  0
  -17.4184  -26.6609   21.3984 H   0  0  0  0  0  0
  -18.0318  -25.9988   22.8987 H   0  0  0  0  0  0
  -19.7962  -30.7174   24.2245 H   0  0  0  0  0  0
  -17.5061  -31.6242   24.5136 H   0  0  0  0  0  0
  -15.5360  -30.2973   23.7648 H   0  0  0  0  0  0
  -15.8652  -28.0812   22.7061 H   0  0  0  0  0  0
  -24.5893  -30.7041   25.7827 H   0  0  0  0  0  0
  -24.8818  -32.2864   26.4886 H   0  0  0  0  0  0
  -25.7994  -30.8943   27.0296 H   0  0  0  0  0  0
  -26.2907  -29.6737   24.1274 H   0  0  0  0  0  0
  -27.3983  -29.7276   25.4799 H   0  0  0  0  0  0
  -27.8791  -30.4278   23.9529 H   0  0  0  0  0  0
  -27.2700  -33.3672   26.2018 H   0  0  0  0  0  0
  -28.3853  -32.6821   25.0302 H   0  0  0  0  0  0
  -28.0698  -31.8489   26.5472 H   0  0  0  0  0  0
  -28.2564  -38.0098   24.7516 H   0  0  0  0  0  0
  -28.1089  -36.2644   24.6240 H   0  0  0  0  0  0
  -27.2313  -37.1433   25.8859 H   0  0  0  0  0  0
  -20.9447  -29.8843   21.6918 H   0  0  0  0  0  0
  -26.0191  -38.2881   24.1419 H   0  0  0  0  0  0
  -29.2792  -20.3394   22.1523 H   0  0  0  0  0  0
  -31.3940  -17.2213   18.7657 H   0  0  0  0  0  0
  -30.1132  -17.6842   17.6133 H   0  0  0  0  0  0
  -29.7051  -16.6407   18.9795 H   0  0  0  0  0  0
  -30.1804  -15.8692   23.8944 H   0  0  0  0  0  0
  -31.6498  -15.5421   23.0159 H   0  0  0  0  0  0
  -30.4401  -14.2928   23.2105 H   0  0  0  0  0  0
  -28.8095  -18.7395   25.7617 H   0  0  0  0  0  0
  -29.6032  -19.2383   24.2765 H   0  0  0  0  0  0
  -29.9917  -17.6964   25.0190 H   0  0  0  0  0  0
  -27.9850  -16.2530   25.6277 H   0  0  0  0  0  0
  -27.9846  -15.5082   24.0319 H   0  0  0  0  0  0
  -26.5298  -16.2680   24.6448 H   0  0  0  0  0  0
  -28.2935  -22.2157   18.9495 H   0  0  0  0  0  0
  -29.9641  -22.5941   18.7918 H   0  0  0  0  0  0
  -29.9551  -23.9244   20.8869 H   0  0  0  0  0  0
  -28.3117  -23.4655   21.2333 H   0  0  0  0  0  0
  -27.7569  -18.6066   22.1359 H   0  0  0  0  0  0
  -27.4795  -16.9710   22.0344 H   0  0  0  0  0  0
  -27.5244  -24.6943   19.1679 H   0  0  0  0  0  0
  -29.1251  -25.1199   18.7599 H   0  0  0  0  0  0
  -28.9034  -15.4632   21.6764 H   0  0  0  0  0  0
  -27.1745  -18.3608   24.1604 H   0  0  0  0  0  0
  -30.3553  -17.7753   22.5532 H   0  0  0  0  0  0
  -30.1417  -20.1690   18.0841 H   0  0  0  0  0  0
  1 25  1  0  0  0
  1 30  2  0  0  0
  1 82  1  0  0  0
  2  3  1  0  0  0
  2 25  1  0  0  0
  2 87  1  0  0  0
  2 88  1  0  0  0
  3  4  1  0  0  0
  3 89  1  0  0  0
  3 90  1  0  0  0
  4  5  1  0  0  0
  4 91  1  0  0  0
  4 92  1  0  0  0
  5  6  1  0  0  0
  5 26  1  0  0  0
  5 93  1  0  0  0
  6 25  1  0  0  0
  6 94  1  0  0  0
  6 95  1  0  0  0
  7  8  2  0  0  0
  7 26  1  0  0  0
  7 29  1  0  0  0
  8  9  1  0  0  0
  8 22  1  0  0  0
  9 10  1  0  0  0
  9 27  2  0  0  0
 10 11  2  0  0  0
 10 15  1  0  0  0
 11 12  1  0  0  0
 11 96  1  0  0  0
 12 13  2  0  0  0
 12 97  1  0  0  0
 13 14  1  0  0  0
 13 31  1  0  0  0
 14 15  2  0  0  0
 14 98  1  0  0  0
 15 99  1  0  0  0
 16 17  2  0  0  0
 16 21  1  0  0  0
 16 31  1  0  0  0
 17 18  1  0  0  0
 17100  1  0  0  0
 18 19  2  0  0  0
 18101  1  0  0  0
 19 20  1  0  0  0
 19 24  1  0  0  0
 20 21  2  0  0  0
 20102  1  0  0  0
 21 23  1  0  0  0
 22 28  1  0  0  0
 22 32  2  0  0  0
 26 27  1  0  0  0
 28103  1  0  0  0
 28104  1  0  0  0
 29105  1  0  0  0
 29106  1  0  0  0
 33 34  1  0  0  0
 33 66  1  0  0  0
 33 70  2  0  0  0
 34 36  1  0  0  0
 34 59  1  0  0  0
 34107  1  0  0  0
 35 44  2  0  0  0
 35 45  1  0  0  0
 35 68  1  0  0  0
 36 56  1  0  0  0
 36108  1  0  0  0
 37 39  1  0  0  0
 37 47  1  0  0  0
 37 66  1  0  0  0
 37109  1  0  0  0
 38 43  2  0  0  0
 38 46  1  0  0  0
 38 47  1  0  0  0
 39 64  1  0  0  0
 39 67  2  0  0  0
 40 52  1  0  0  0
 40 53  2  0  0  0
 40 58  1  0  0  0
 41110  1  0  0  0
 41111  1  0  0  0
 41112  1  0  0  0
 41 48  1  0  0  0
 42 43  1  0  0  0
 42 66  1  0  0  0
 42113  1  0  0  0
 42114  1  0  0  0
 43 44  1  0  0  0
 44115  1  0  0  0
 45 46  2  0  0  0
 45116  1  0  0  0
 46117  1  0  0  0
 47118  1  0  0  0
 47119  1  0  0  0
 48 56  1  0  0  0
 48 65  1  0  0  0
 48120  1  0  0  0
 49 50  1  0  0  0
 49 53  1  0  0  0
 49 64  1  0  0  0
 49121  1  0  0  0
 50 51  1  0  0  0
 50122  1  0  0  0
 50123  1  0  0  0
 51 52  1  0  0  0
 51124  1  0  0  0
 51125  1  0  0  0
 52126  1  0  0  0
 52127  1  0  0  0
 53 54  1  0  0  0
 54 55  2  0  0  0
 54128  1  0  0  0
 55 57  1  0  0  0
 55129  1  0  0  0
 56 69  2  0  0  0
 57 58  2  0  0  0
 57130  1  0  0  0
 58131  1  0  0  0
 59 60  1  0  0  0
 59 61  1  0  0  0
 59 62  1  0  0  0
 60132  1  0  0  0
 60133  1  0  0  0
 60134  1  0  0  0
 61135  1  0  0  0
 61136  1  0  0  0
 61137  1  0  0  0
 62138  1  0  0  0
 62139  1  0  0  0
 62140  1  0  0  0
 63 65  1  0  0  0
 63141  1  0  0  0
 63142  1  0  0  0
 63143  1  0  0  0
 64144  1  0  0  0
 65145  1  0  0  0
 68 81  1  0  0  0
 71 72  2  0  0  0
 71 85  1  0  0  0
 71146  1  0  0  0
 72 78  1  0  0  0
 72 86  1  0  0  0
 73 74  1  0  0  0
 73 85  1  0  0  0
 73 86  2  0  0  0
 74147  1  0  0  0
 74148  1  0  0  0
 74149  1  0  0  0
 75150  1  0  0  0
 75151  1  0  0  0
 75152  1  0  0  0
 75 82  1  0  0  0
 76153  1  0  0  0
 76154  1  0  0  0
 76155  1  0  0  0
 76 83  1  0  0  0
 77 83  1  0  0  0
 77156  1  0  0  0
 77157  1  0  0  0
 77158  1  0  0  0
 78 79  1  0  0  0
 78159  1  0  0  0
 78160  1  0  0  0
 79 81  1  0  0  0
 79161  1  0  0  0
 79162  1  0  0  0
 80 83  1  0  0  0
 80163  1  0  0  0
 80164  1  0  0  0
 80 84  1  0  0  0
 81165  1  0  0  0
 81166  1  0  0  0
 82 84  1  0  0  0
 82167  1  0  0  0
 83168  1  0  0  0
 84 85  1  0  0  0
 84169  1  0  0  0
 86170  1  0  0  0
M  CHG  1  86   1
M  ISO  4   1 100  68 101  81 101  82 100
M  END
> <chiral flag>
0

> <version>
0

> <s_m_source_file>
/data/baiqing/PycharmProjects/Reinvent-master-3.2/result/LINK_invent/BTK/process_docking_weight1_custom_sum_contain_oxygen_bond_distance_aromatic_linkinvent_7_9_3/rearranged_h_0074.sdf

> <i_m_source_file_index>
82

> <r_mmod_Potential_Energy-OPLS-2005>
443.133850097656

> <r_mmod_Stretch_Energy-OPLS-2005>
173.951782226562

> <r_mmod_Bend_Energy-OPLS-2005>
363.851135253906

> <r_mmod_Torsional_Energy-OPLS-2005>
244.967636108398

> <r_mmod_Improper_Torsional_Energy-OPLS-2005>
3.28805422782898

> <r_mmod_Van_der_Waal_Energy-OPLS-2005>
130.454956054688

> <r_mmod_Electrostatic_Energy-OPLS-2005>
-173.752685546875

> <r_mmod_Solvation_Energy-OPLS-2005>
-383.085052490234

> <b_mmod_Minimization_Converged-OPLS-2005>
0

> <r_mmod_RMS_Derivative-OPLS-2005>
5.46524286270142

$$$$
82
                    3D
 Structure written by MMmdl.
160168  0  0  1  0            999 V2000
  -30.6322  -14.5559   20.5512 C   0  0  0  0  0  0
  -30.4319  -12.3541   19.4215 C   0  0  0  0  0  0
  -29.4927  -12.5101   18.2050 C   0  0  0  0  0  0
  -28.0164  -12.3507   18.6234 C   0  0  0  0  0  0
  -27.6548  -13.2020   19.8692 C   0  0  2  0  0  0
  -28.6997  -12.9984   20.9885 C   0  0  0  0  0  0
  -25.2569  -13.8147   20.5655 C   0  0  0  0  0  0
  -24.1826  -13.0420   20.9173 C   0  0  0  0  0  0
  -24.6384  -11.6892   20.8745 C   0  0  0  0  0  0
  -23.9049  -10.4281   21.0417 C   0  0  0  0  0  0
  -24.3605   -9.4194   21.9194 C   0  0  0  0  0  0
  -23.6286   -8.2229   22.0754 C   0  0  0  0  0  0
  -22.4269   -8.0278   21.3544 C   0  0  0  0  0  0
  -21.9898   -9.0248   20.4644 C   0  0  0  0  0  0
  -22.7224  -10.2128   20.3065 C   0  0  0  0  0  0
  -21.6848   -6.0726   22.5280 C   0  0  0  0  0  0
  -21.3999   -6.5631   23.8207 C   0  0  0  0  0  0
  -21.3665   -5.6785   24.9170 C   0  0  0  0  0  0
  -21.6046   -4.3052   24.7221 C   0  0  0  0  0  0
  -21.8825   -3.8142   23.4344 C   0  0  0  0  0  0
  -21.9184   -4.6952   22.3402 C   0  0  0  0  0  0
  -22.7857  -13.5228   21.1863 C   0  0  0  0  0  0
  -22.1660   -4.2139   21.0980 F   0  0  0  0  0  0
  -21.5642   -3.4539   25.7738 F   0  0  0  0  0  0
  -30.0143  -13.3459   20.4276 N   0  0  0  0  0  0
  -26.2992  -12.9296   20.3349 N   0  0  0  0  0  0
  -25.9306  -11.6460   20.5766 N   0  0  0  0  0  0
  -22.0525  -12.8206   22.0443 N   0  0  0  0  0  0
  -25.4285  -15.1857   20.4048 N   0  0  0  0  0  0
  -31.7856  -14.7501   20.1560 O   0  0  0  0  0  0
  -21.6638   -6.8872   21.4243 O   0  0  0  0  0  0
  -22.3533  -14.5535   20.6727 O   0  0  0  0  0  0
  -24.6178  -31.8670   23.2038 C   0  0  0  0  0  0
  -25.9036  -32.4822   23.8395 C   0  0  1  0  0  0
  -27.2445  -27.3851   20.1153 C   0  0  0  0  0  0
  -25.5866  -33.8624   24.2305 N   0  0  0  0  0  0
  -23.4126  -30.4800   21.5502 C   0  0  2  0  0  0
  -24.8630  -28.9335   20.1256 C   0  0  0  0  0  0
  -22.7460  -29.4615   22.5020 C   0  0  0  0  0  0
  -18.0267  -28.1345   22.8498 C   0  0  0  0  0  0
  -24.1481  -36.7324   23.2641 C   0  0  0  0  0  0
  -25.9433  -30.8152   21.3637 C   0  0  0  0  0  0
  -26.0259  -29.4407   20.7218 C   0  0  0  0  0  0
  -27.2208  -28.6748   20.7105 C   0  0  0  0  0  0
  -26.0656  -26.9072   19.5101 C   0  0  0  0  0  0
  -24.8810  -27.6670   19.5174 C   0  0  0  0  0  0
  -23.6243  -29.8014   20.1705 C   0  0  0  0  0  0
  -25.4117  -36.3112   24.0319 C   0  0  1  0  0  0
  -20.5862  -28.3655   23.1303 C   0  0  2  0  0  0
  -20.6757  -26.9389   22.5416 C   0  0  0  0  0  0
  -19.5732  -26.6352   21.5209 C   0  0  0  0  0  0
  -18.1908  -26.7901   22.1614 C   0  0  0  0  0  0
  -19.1521  -28.8817   23.2880 C   0  0  0  0  0  0
  -18.9452  -30.1422   23.8894 C   0  0  0  0  0  0
  -17.6458  -30.6572   24.0545 C   0  0  0  0  0  0
  -25.9042  -34.9482   23.5119 C   0  0  0  0  0  0
  -16.5338  -29.9065   23.6328 C   0  0  0  0  0  0
  -16.7256  -28.6469   23.0370 C   0  0  0  0  0  0
  -26.4438  -31.6604   25.0746 C   0  0  0  0  0  0
  -25.3658  -31.3694   26.1445 C   0  0  0  0  0  0
  -27.0281  -30.3054   24.6128 C   0  0  0  0  0  0
  -27.6006  -32.4319   25.7496 C   0  0  0  0  0  0
  -27.5587  -37.1812   24.8464 C   0  0  0  0  0  0
  -21.4177  -29.3014   22.3731 N   0  0  0  0  0  0
  -26.4311  -37.3788   23.9411 N   0  0  0  0  0  0
  -24.6775  -31.0681   22.0991 N   0  0  0  0  0  0
  -23.4185  -28.8164   23.3109 O   0  0  0  0  0  0
  -28.4001  -26.6247   20.0377 O   0  0  0  0  0  0
  -26.5651  -34.8920   22.4706 O   0  0  0  0  0  0
  -23.5350  -32.1451   23.7367 O   0  0  0  0  0  0
  -27.3789  -21.4066   22.9034 C   0  0  0  0  0  0
  -27.9689  -21.7310   21.7034 C   0  0  0  0  0  0
  -26.7176  -23.4574   22.4135 C   0  0  0  0  0  0
  -25.8533  -24.6833   22.4640 C   0  0  0  0  0  0
  -28.6958  -20.7618   20.7606 C   0  0  0  0  0  0
  -29.3369  -19.4835   21.4428 C   0  0  0  0  0  0
  -29.3150  -18.1084   20.6724 C   0  0  0  0  0  0
  -28.0521  -24.0558   20.4187 C   0  0  0  0  0  0
  -30.1945  -16.9747   21.3276 C   0  0  0  0  0  0
  -28.5359  -25.4778   20.9189 C   0  0  0  0  0  0
  -27.6449  -23.0908   21.4971 N   0  0  0  0  0  0
  -26.6338  -22.4706   23.3015 N   0  3  0  0  0  0
  -29.8415  -15.5687   20.9957 N   0  0  0  0  0  0
  -31.4722  -12.4835   19.1177 H   0  0  0  0  0  0
  -30.3615  -11.3450   19.8314 H   0  0  0  0  0  0
  -29.7444  -11.7778   17.4364 H   0  0  0  0  0  0
  -29.6379  -13.4905   17.7490 H   0  0  0  0  0  0
  -27.8455  -11.2943   18.8367 H   0  0  0  0  0  0
  -27.3577  -12.5994   17.7923 H   0  0  0  0  0  0
  -27.6910  -14.2454   19.5580 H   0  0  0  0  0  0
  -28.7030  -11.9581   21.3176 H   0  0  0  0  0  0
  -28.4561  -13.5836   21.8766 H   0  0  0  0  0  0
  -25.2759   -9.5664   22.4758 H   0  0  0  0  0  0
  -23.9991   -7.4618   22.7474 H   0  0  0  0  0  0
  -21.0829   -8.8772   19.8955 H   0  0  0  0  0  0
  -22.3696  -10.9666   19.6168 H   0  0  0  0  0  0
  -21.1987   -7.6140   23.9704 H   0  0  0  0  0  0
  -21.1487   -6.0520   25.9072 H   0  0  0  0  0  0
  -22.0602   -2.7604   23.2850 H   0  0  0  0  0  0
  -22.4151  -11.9838   22.4759 H   0  0  0  0  0  0
  -21.1178  -13.1254   22.2752 H   0  0  0  0  0  0
  -24.6551  -15.8362   20.4950 H   0  0  0  0  0  0
  -26.2746  -15.6253   20.0652 H   0  0  0  0  0  0
  -26.7164  -32.5526   23.1203 H   0  0  0  0  0  0
  -24.9843  -33.9771   25.0330 H   0  0  0  0  0  0
  -22.7018  -31.2961   21.4035 H   0  0  0  0  0  0
  -23.3725  -35.9677   23.3313 H   0  0  0  0  0  0
  -24.3523  -36.8956   22.2055 H   0  0  0  0  0  0
  -23.7271  -37.6533   23.6676 H   0  0  0  0  0  0
  -26.0462  -31.5733   20.5866 H   0  0  0  0  0  0
  -26.8331  -30.8849   21.9763 H   0  0  0  0  0  0
  -28.1251  -29.0685   21.1563 H   0  0  0  0  0  0
  -26.0627  -25.9450   19.0228 H   0  0  0  0  0  0
  -23.9896  -27.2704   19.0512 H   0  0  0  0  0  0
  -23.7295  -30.5659   19.4012 H   0  0  0  0  0  0
  -22.7496  -29.2137   19.8841 H   0  0  0  0  0  0
  -25.1301  -36.1970   25.0821 H   0  0  0  0  0  0
  -20.9933  -28.3229   24.1430 H   0  0  0  0  0  0
  -20.5647  -26.2290   23.3611 H   0  0  0  0  0  0
  -21.6636  -26.7419   22.1231 H   0  0  0  0  0  0
  -19.6892  -25.6258   21.1247 H   0  0  0  0  0  0
  -19.6655  -27.3142   20.6723 H   0  0  0  0  0  0
  -17.4198  -26.6642   21.4005 H   0  0  0  0  0  0
  -18.0291  -26.0022   22.8991 H   0  0  0  0  0  0
  -19.7938  -30.7224   24.2255 H   0  0  0  0  0  0
  -17.5025  -31.6256   24.5150 H   0  0  0  0  0  0
  -15.5349  -30.2970   23.7647 H   0  0  0  0  0  0
  -15.8649  -28.0772   22.7113 H   0  0  0  0  0  0
  -24.5879  -30.7000   25.7731 H   0  0  0  0  0  0
  -24.8744  -32.2814   26.4856 H   0  0  0  0  0  0
  -25.7955  -30.8887   27.0236 H   0  0  0  0  0  0
  -26.2847  -29.6787   24.1199 H   0  0  0  0  0  0
  -27.4067  -29.7314   25.4597 H   0  0  0  0  0  0
  -27.8660  -30.4388   23.9289 H   0  0  0  0  0  0
  -27.2670  -33.3632   26.2081 H   0  0  0  0  0  0
  -28.3792  -32.6864   25.0300 H   0  0  0  0  0  0
  -28.0710  -31.8456   26.5395 H   0  0  0  0  0  0
  -28.2605  -38.0110   24.7512 H   0  0  0  0  0  0
  -28.1070  -36.2633   24.6289 H   0  0  0  0  0  0
  -27.2259  -37.1451   25.8849 H   0  0  0  0  0  0
  -20.9358  -29.8757   21.6944 H   0  0  0  0  0  0
  -26.0178  -38.2856   24.1396 H   0  0  0  0  0  0
  -27.3639  -20.4840   23.4673 H   0  0  0  0  0  0
  -25.6200  -24.9984   21.4492 H   0  0  0  0  0  0
  -26.3555  -25.4752   23.0160 H   0  0  0  0  0  0
  -24.9239  -24.4343   22.9764 H   0  0  0  0  0  0
  -29.4479  -21.2962   20.1825 H   0  0  0  0  0  0
  -27.9524  -20.4278   20.0361 H   0  0  0  0  0  0
  -28.8437  -19.2781   22.3900 H   0  0  0  0  0  0
  -30.3606  -19.7337   21.7230 H   0  0  0  0  0  0
  -29.6355  -18.2596   19.6411 H   0  0  0  0  0  0
  -28.2779  -17.7708   20.6101 H   0  0  0  0  0  0
  -28.8485  -23.5920   19.8411 H   0  0  0  0  0  0
  -27.2029  -24.1461   19.7440 H   0  0  0  0  0  0
  -30.0958  -17.0478   22.4101 H   0  0  0  0  0  0
  -31.2487  -17.1609   21.1167 H   0  0  0  0  0  0
  -29.6000  -25.3876   21.1346 H   0  0  0  0  0  0
  -28.1229  -25.7558   21.8814 H   0  0  0  0  0  0
  -26.0407  -22.4798   24.1216 H   0  0  0  0  0  0
  -28.9020  -15.2878   21.2322 H   0  0  0  0  0  0
  1 25  1  0  0  0
  1 30  2  0  0  0
  1 83  1  0  0  0
  2  3  1  0  0  0
  2 25  1  0  0  0
  2 84  1  0  0  0
  2 85  1  0  0  0
  3  4  1  0  0  0
  3 86  1  0  0  0
  3 87  1  0  0  0
  4  5  1  0  0  0
  4 88  1  0  0  0
  4 89  1  0  0  0
  5  6  1  0  0  0
  5 26  1  0  0  0
  5 90  1  0  0  0
  6 25  1  0  0  0
  6 91  1  0  0  0
  6 92  1  0  0  0
  7  8  2  0  0  0
  7 26  1  0  0  0
  7 29  1  0  0  0
  8  9  1  0  0  0
  8 22  1  0  0  0
  9 10  1  0  0  0
  9 27  2  0  0  0
 10 11  2  0  0  0
 10 15  1  0  0  0
 11 12  1  0  0  0
 11 93  1  0  0  0
 12 13  2  0  0  0
 12 94  1  0  0  0
 13 14  1  0  0  0
 13 31  1  0  0  0
 14 15  2  0  0  0
 14 95  1  0  0  0
 15 96  1  0  0  0
 16 17  2  0  0  0
 16 21  1  0  0  0
 16 31  1  0  0  0
 17 18  1  0  0  0
 17 97  1  0  0  0
 18 19  2  0  0  0
 18 98  1  0  0  0
 19 20  1  0  0  0
 19 24  1  0  0  0
 20 21  2  0  0  0
 20 99  1  0  0  0
 21 23  1  0  0  0
 22 28  1  0  0  0
 22 32  2  0  0  0
 26 27  1  0  0  0
 28100  1  0  0  0
 28101  1  0  0  0
 29102  1  0  0  0
 29103  1  0  0  0
 33 34  1  0  0  0
 33 66  1  0  0  0
 33 70  2  0  0  0
 34 36  1  0  0  0
 34 59  1  0  0  0
 34104  1  0  0  0
 35 44  2  0  0  0
 35 45  1  0  0  0
 35 68  1  0  0  0
 36 56  1  0  0  0
 36105  1  0  0  0
 37 39  1  0  0  0
 37 47  1  0  0  0
 37 66  1  0  0  0
 37106  1  0  0  0
 38 43  2  0  0  0
 38 46  1  0  0  0
 38 47  1  0  0  0
 39 64  1  0  0  0
 39 67  2  0  0  0
 40 52  1  0  0  0
 40 53  2  0  0  0
 40 58  1  0  0  0
 41107  1  0  0  0
 41108  1  0  0  0
 41109  1  0  0  0
 41 48  1  0  0  0
 42 43  1  0  0  0
 42 66  1  0  0  0
 42110  1  0  0  0
 42111  1  0  0  0
 43 44  1  0  0  0
 44112  1  0  0  0
 45 46  2  0  0  0
 45113  1  0  0  0
 46114  1  0  0  0
 47115  1  0  0  0
 47116  1  0  0  0
 48 56  1  0  0  0
 48 65  1  0  0  0
 48117  1  0  0  0
 49 50  1  0  0  0
 49 53  1  0  0  0
 49 64  1  0  0  0
 49118  1  0  0  0
 50 51  1  0  0  0
 50119  1  0  0  0
 50120  1  0  0  0
 51 52  1  0  0  0
 51121  1  0  0  0
 51122  1  0  0  0
 52123  1  0  0  0
 52124  1  0  0  0
 53 54  1  0  0  0
 54 55  2  0  0  0
 54125  1  0  0  0
 55 57  1  0  0  0
 55126  1  0  0  0
 56 69  2  0  0  0
 57 58  2  0  0  0
 57127  1  0  0  0
 58128  1  0  0  0
 59 60  1  0  0  0
 59 61  1  0  0  0
 59 62  1  0  0  0
 60129  1  0  0  0
 60130  1  0  0  0
 60131  1  0  0  0
 61132  1  0  0  0
 61133  1  0  0  0
 61134  1  0  0  0
 62135  1  0  0  0
 62136  1  0  0  0
 62137  1  0  0  0
 63 65  1  0  0  0
 63138  1  0  0  0
 63139  1  0  0  0
 63140  1  0  0  0
 64141  1  0  0  0
 65142  1  0  0  0
 68 80  1  0  0  0
 71 72  2  0  0  0
 71 82  1  0  0  0
 71143  1  0  0  0
 72 75  1  0  0  0
 72 81  1  0  0  0
 73 74  1  0  0  0
 73 81  1  0  0  0
 73 82  2  0  0  0
 74144  1  0  0  0
 74145  1  0  0  0
 74146  1  0  0  0
 75 76  1  0  0  0
 75147  1  0  0  0
 75148  1  0  0  0
 76 77  1  0  0  0
 76149  1  0  0  0
 76150  1  0  0  0
 77 79  1  0  0  0
 77151  1  0  0  0
 77152  1  0  0  0
 78 80  1  0  0  0
 78 81  1  0  0  0
 78153  1  0  0  0
 78154  1  0  0  0
 79 83  1  0  0  0
 79155  1  0  0  0
 79156  1  0  0  0
 80157  1  0  0  0
 80158  1  0  0  0
 82159  1  0  0  0
 83160  1  0  0  0
M  CHG  1  82   1
M  ISO  4   1 100  68 101  80 101  83 100
M  END
> <chiral flag>
0

> <version>
0

> <s_m_source_file>
/data/baiqing/PycharmProjects/Reinvent-master-3.2/result/LINK_invent/BTK/process_docking_weight1_custom_sum_contain_oxygen_bond_distance_aromatic_linkinvent_7_9_3/rearranged_h_0074.sdf

> <i_m_source_file_index>
83

> <r_mmod_Potential_Energy-OPLS-2005>
-75.6876373291016

> <r_mmod_Stretch_Energy-OPLS-2005>
59.4939002990723

> <r_mmod_Bend_Energy-OPLS-2005>
126.852188110352

> <r_mmod_Torsional_Energy-OPLS-2005>
256.704864501953

> <r_mmod_Improper_Torsional_Energy-OPLS-2005>
4.71375751495361

> <r_mmod_Van_der_Waal_Energy-OPLS-2005>
120.227798461914

> <r_mmod_Electrostatic_Energy-OPLS-2005>
-243.556594848633

> <r_mmod_Solvation_Energy-OPLS-2005>
-423.342529296875

> <b_mmod_Minimization_Converged-OPLS-2005>
0

> <r_mmod_RMS_Derivative-OPLS-2005>
3.36377167701721

$$$$
83
                    3D
 Structure written by MMmdl.
159167  0  0  1  0            999 V2000
  -30.4427  -15.1652   20.4462 C   0  0  0  0  0  0
  -30.4674  -12.7444   19.5007 C   0  0  0  0  0  0
  -29.5302  -12.5686   18.2753 C   0  0  0  0  0  0
  -28.0727  -12.2975   18.6991 C   0  0  0  0  0  0
  -27.6286  -13.2371   19.8430 C   0  0  2  0  0  0
  -28.6894  -13.2742   20.9699 C   0  0  0  0  0  0
  -25.2290  -13.8068   20.5568 C   0  0  0  0  0  0
  -24.1692  -13.0309   20.9248 C   0  0  0  0  0  0
  -24.6381  -11.6827   20.8827 C   0  0  0  0  0  0
  -23.9071  -10.4236   21.0470 C   0  0  0  0  0  0
  -24.3600   -9.4137   21.9234 C   0  0  0  0  0  0
  -23.6240   -8.2195   22.0780 C   0  0  0  0  0  0
  -22.4218   -8.0275   21.3568 C   0  0  0  0  0  0
  -21.9888   -9.0262   20.4664 C   0  0  0  0  0  0
  -22.7260  -10.2106   20.3084 C   0  0  0  0  0  0
  -21.6834   -6.0717   22.5292 C   0  0  0  0  0  0
  -21.4010   -6.5623   23.8226 C   0  0  0  0  0  0
  -21.3648   -5.6782   24.9197 C   0  0  0  0  0  0
  -21.6025   -4.3049   24.7250 C   0  0  0  0  0  0
  -21.8820   -3.8135   23.4378 C   0  0  0  0  0  0
  -21.9192   -4.6943   22.3424 C   0  0  0  0  0  0
  -22.7700  -13.5076   21.1934 C   0  0  0  0  0  0
  -22.1605   -4.2117   21.0999 F   0  0  0  0  0  0
  -21.5658   -3.4540   25.7768 F   0  0  0  0  0  0
  -29.9260  -13.8352   20.3849 N   0  0  0  0  0  0
  -26.2860  -12.9358   20.3295 N   0  0  0  0  0  0
  -25.9329  -11.6491   20.5839 N   0  0  0  0  0  0
  -22.0359  -12.8093   22.0517 N   0  0  0  0  0  0
  -25.3539  -15.1759   20.3639 N   0  0  0  0  0  0
  -31.6289  -15.2249   20.0881 O   0  0  0  0  0  0
  -21.6580   -6.8868   21.4263 O   0  0  0  0  0  0
  -22.3375  -14.5392   20.6796 O   0  0  0  0  0  0
  -24.6568  -31.8333   23.1762 C   0  0  0  0  0  0
  -25.9289  -32.4630   23.8222 C   0  0  1  0  0  0
  -27.2393  -27.0338   20.1705 C   0  0  0  0  0  0
  -25.5974  -33.8440   24.2135 N   0  0  0  0  0  0
  -23.4673  -30.4461   21.5266 C   0  0  2  0  0  0
  -24.9187  -28.8457   20.1129 C   0  0  0  0  0  0
  -22.7647  -29.4485   22.4844 C   0  0  0  0  0  0
  -18.0309  -28.1421   22.8458 C   0  0  0  0  0  0
  -24.1472  -36.7229   23.2640 C   0  0  0  0  0  0
  -26.0283  -30.6717   21.3898 C   0  0  0  0  0  0
  -26.0990  -29.2705   20.7353 C   0  0  0  0  0  0
  -27.2542  -28.3855   20.7392 C   0  0  0  0  0  0
  -26.0277  -26.7268   19.5104 C   0  0  0  0  0  0
  -24.9028  -27.5896   19.4814 C   0  0  0  0  0  0
  -23.6989  -29.7622   20.1514 C   0  0  0  0  0  0
  -25.4113  -36.3005   24.0305 C   0  0  1  0  0  0
  -20.5931  -28.3751   23.1207 C   0  0  2  0  0  0
  -20.6786  -26.9441   22.5400 C   0  0  0  0  0  0
  -19.5764  -26.6384   21.5206 C   0  0  0  0  0  0
  -18.1943  -26.7951   22.1610 C   0  0  0  0  0  0
  -19.1572  -28.8909   23.2812 C   0  0  0  0  0  0
  -18.9479  -30.1497   23.8850 C   0  0  0  0  0  0
  -17.6473  -30.6604   24.0552 C   0  0  0  0  0  0
  -25.9089  -34.9365   23.5037 C   0  0  0  0  0  0
  -16.5367  -29.9093   23.6335 C   0  0  0  0  0  0
  -16.7289  -28.6520   23.0346 C   0  0  0  0  0  0
  -26.4552  -31.6546   25.0723 C   0  0  0  0  0  0
  -25.3672  -31.3770   26.1374 C   0  0  0  0  0  0
  -27.0460  -30.2933   24.6396 C   0  0  0  0  0  0
  -27.6074  -32.4335   25.7516 C   0  0  0  0  0  0
  -27.5578  -37.1767   24.8469 C   0  0  0  0  0  0
  -21.4329  -29.3047   22.3575 N   0  0  0  0  0  0
  -26.4281  -37.3730   23.9414 N   0  0  0  0  0  0
  -24.7385  -31.0084   22.0852 N   0  0  0  0  0  0
  -23.4212  -28.8049   23.3069 O   0  0  0  0  0  0
  -28.2930  -26.0136   20.2425 O   0  0  0  0  0  0
  -26.5709  -34.8904   22.4643 O   0  0  0  0  0  0
  -23.5658  -32.1260   23.6922 O   0  0  0  0  0  0
  -29.6692  -20.7214   21.6811 C   0  0  0  0  0  0
  -29.9214  -19.2862   21.7720 C   0  0  0  0  0  0
  -29.2788  -21.4399   20.4965 C   0  0  0  0  0  0
  -29.8063  -18.3238   20.6986 C   0  0  0  0  0  0
  -29.2313  -20.4347   19.4394 C   0  0  0  0  0  0
  -27.5319  -20.7218   17.5698 C   0  0  0  0  0  0
  -28.1318  -16.4935   20.6705 C   0  0  0  0  0  0
  -29.7825  -16.4485   22.5050 C   0  0  0  0  0  0
  -29.2630  -23.1577   20.4404 C   0  0  0  0  0  0
  -28.9837  -20.9156   18.0220 C   0  0  0  0  0  0
  -28.1063  -24.4200   20.1107 C   0  0  0  0  0  0
  -29.6288  -16.6210   20.9727 C   0  0  0  0  0  0
  -29.4298  -19.0234   19.5444 N   0  0  0  0  0  0
  -31.4753  -12.9713   19.1546 H   0  0  0  0  0  0
  -30.5602  -11.8052   20.0489 H   0  0  0  0  0  0
  -29.8848  -11.7535   17.6414 H   0  0  0  0  0  0
  -29.5635  -13.4722   17.6646 H   0  0  0  0  0  0
  -28.0049  -11.2607   19.0311 H   0  0  0  0  0  0
  -27.4024  -12.3902   17.8429 H   0  0  0  0  0  0
  -27.5762  -14.2214   19.3816 H   0  0  0  0  0  0
  -28.8554  -12.2671   21.3565 H   0  0  0  0  0  0
  -28.3674  -13.8345   21.8408 H   0  0  0  0  0  0
  -25.2781   -9.5542   22.4760 H   0  0  0  0  0  0
  -23.9957   -7.4537   22.7433 H   0  0  0  0  0  0
  -21.0848   -8.8807   19.8906 H   0  0  0  0  0  0
  -22.3808  -10.9645   19.6147 H   0  0  0  0  0  0
  -21.1958   -7.6122   23.9728 H   0  0  0  0  0  0
  -21.1467   -6.0517   25.9093 H   0  0  0  0  0  0
  -22.0595   -2.7596   23.2912 H   0  0  0  0  0  0
  -22.4039  -11.9815   22.4982 H   0  0  0  0  0  0
  -21.0972  -13.1091   22.2748 H   0  0  0  0  0  0
  -24.5599  -15.8017   20.4434 H   0  0  0  0  0  0
  -26.1790  -15.6284   19.9957 H   0  0  0  0  0  0
  -26.7363  -32.5200   23.0957 H   0  0  0  0  0  0
  -25.0034  -33.9502   25.0225 H   0  0  0  0  0  0
  -22.7753  -31.2743   21.3630 H   0  0  0  0  0  0
  -23.3748  -35.9551   23.3299 H   0  0  0  0  0  0
  -24.3530  -36.8890   22.2057 H   0  0  0  0  0  0
  -23.7213  -37.6407   23.6698 H   0  0  0  0  0  0
  -26.1983  -31.4172   20.6122 H   0  0  0  0  0  0
  -26.8917  -30.7269   22.0407 H   0  0  0  0  0  0
  -28.1524  -28.7114   21.2444 H   0  0  0  0  0  0
  -25.9250  -25.7666   19.0277 H   0  0  0  0  0  0
  -24.0053  -27.2567   18.9791 H   0  0  0  0  0  0
  -23.8436  -30.5320   19.3944 H   0  0  0  0  0  0
  -22.8095  -29.2129   19.8379 H   0  0  0  0  0  0
  -25.1294  -36.1824   25.0797 H   0  0  0  0  0  0
  -20.9997  -28.3354   24.1336 H   0  0  0  0  0  0
  -20.5680  -26.2368   23.3636 H   0  0  0  0  0  0
  -21.6650  -26.7427   22.1210 H   0  0  0  0  0  0
  -19.6922  -25.6279   21.1279 H   0  0  0  0  0  0
  -19.6703  -27.3154   20.6711 H   0  0  0  0  0  0
  -17.4205  -26.6677   21.4022 H   0  0  0  0  0  0
  -18.0339  -26.0115   22.9035 H   0  0  0  0  0  0
  -19.7955  -30.7322   24.2212 H   0  0  0  0  0  0
  -17.5021  -31.6276   24.5173 H   0  0  0  0  0  0
  -15.5367  -30.2970   23.7704 H   0  0  0  0  0  0
  -15.8688  -28.0825   22.7081 H   0  0  0  0  0  0
  -24.5837  -30.7168   25.7641 H   0  0  0  0  0  0
  -24.8869  -32.2960   26.4740 H   0  0  0  0  0  0
  -25.7865  -30.8935   27.0207 H   0  0  0  0  0  0
  -26.3127  -29.6611   24.1378 H   0  0  0  0  0  0
  -27.4020  -29.7288   25.5029 H   0  0  0  0  0  0
  -27.9048  -30.4165   23.9795 H   0  0  0  0  0  0
  -27.2669  -33.3659   26.2035 H   0  0  0  0  0  0
  -28.3904  -32.6866   25.0353 H   0  0  0  0  0  0
  -28.0732  -31.8507   26.5474 H   0  0  0  0  0  0
  -28.2582  -38.0084   24.7535 H   0  0  0  0  0  0
  -28.1102  -36.2611   24.6274 H   0  0  0  0  0  0
  -27.2304  -37.1384   25.8879 H   0  0  0  0  0  0
  -20.9603  -29.8728   21.6686 H   0  0  0  0  0  0
  -26.0151  -38.2806   24.1419 H   0  0  0  0  0  0
  -29.8167  -21.2941   22.5841 H   0  0  0  0  0  0
  -30.1660  -18.9389   22.7642 H   0  0  0  0  0  0
  -27.3798  -21.1612   16.5827 H   0  0  0  0  0  0
  -26.8341  -21.1935   18.2622 H   0  0  0  0  0  0
  -27.2744  -19.6652   17.5052 H   0  0  0  0  0  0
  -27.5673  -17.3360   21.0746 H   0  0  0  0  0  0
  -27.6927  -15.6337   21.1452 H   0  0  0  0  0  0
  -27.9501  -16.4690   19.5963 H   0  0  0  0  0  0
  -30.7780  -16.7544   22.8233 H   0  0  0  0  0  0
  -29.6503  -15.4209   22.8387 H   0  0  0  0  0  0
  -29.0544  -17.0357   23.0618 H   0  0  0  0  0  0
  -30.1172  -23.3956   19.8067 H   0  0  0  0  0  0
  -29.6199  -23.4259   21.4332 H   0  0  0  0  0  0
  -29.6577  -20.3914   17.3436 H   0  0  0  0  0  0
  -29.2507  -21.9694   17.9455 H   0  0  0  0  0  0
  -27.2195  -24.1858   20.7012 H   0  0  0  0  0  0
  -27.7947  -24.2583   19.0787 H   0  0  0  0  0  0
  1 25  1  0  0  0
  1 30  2  0  0  0
  1 82  1  0  0  0
  2  3  1  0  0  0
  2 25  1  0  0  0
  2 84  1  0  0  0
  2 85  1  0  0  0
  3  4  1  0  0  0
  3 86  1  0  0  0
  3 87  1  0  0  0
  4  5  1  0  0  0
  4 88  1  0  0  0
  4 89  1  0  0  0
  5  6  1  0  0  0
  5 26  1  0  0  0
  5 90  1  0  0  0
  6 25  1  0  0  0
  6 91  1  0  0  0
  6 92  1  0  0  0
  7  8  2  0  0  0
  7 26  1  0  0  0
  7 29  1  0  0  0
  8  9  1  0  0  0
  8 22  1  0  0  0
  9 10  1  0  0  0
  9 27  2  0  0  0
 10 11  2  0  0  0
 10 15  1  0  0  0
 11 12  1  0  0  0
 11 93  1  0  0  0
 12 13  2  0  0  0
 12 94  1  0  0  0
 13 14  1  0  0  0
 13 31  1  0  0  0
 14 15  2  0  0  0
 14 95  1  0  0  0
 15 96  1  0  0  0
 16 17  2  0  0  0
 16 21  1  0  0  0
 16 31  1  0  0  0
 17 18  1  0  0  0
 17 97  1  0  0  0
 18 19  2  0  0  0
 18 98  1  0  0  0
 19 20  1  0  0  0
 19 24  1  0  0  0
 20 21  2  0  0  0
 20 99  1  0  0  0
 21 23  1  0  0  0
 22 28  1  0  0  0
 22 32  2  0  0  0
 26 27  1  0  0  0
 28100  1  0  0  0
 28101  1  0  0  0
 29102  1  0  0  0
 29103  1  0  0  0
 33 34  1  0  0  0
 33 66  1  0  0  0
 33 70  2  0  0  0
 34 36  1  0  0  0
 34 59  1  0  0  0
 34104  1  0  0  0
 35 44  2  0  0  0
 35 45  1  0  0  0
 35 68  1  0  0  0
 36 56  1  0  0  0
 36105  1  0  0  0
 37 39  1  0  0  0
 37 47  1  0  0  0
 37 66  1  0  0  0
 37106  1  0  0  0
 38 43  2  0  0  0
 38 46  1  0  0  0
 38 47  1  0  0  0
 39 64  1  0  0  0
 39 67  2  0  0  0
 40 52  1  0  0  0
 40 53  2  0  0  0
 40 58  1  0  0  0
 41107  1  0  0  0
 41108  1  0  0  0
 41109  1  0  0  0
 41 48  1  0  0  0
 42 43  1  0  0  0
 42 66  1  0  0  0
 42110  1  0  0  0
 42111  1  0  0  0
 43 44  1  0  0  0
 44112  1  0  0  0
 45 46  2  0  0  0
 45113  1  0  0  0
 46114  1  0  0  0
 47115  1  0  0  0
 47116  1  0  0  0
 48 56  1  0  0  0
 48 65  1  0  0  0
 48117  1  0  0  0
 49 50  1  0  0  0
 49 53  1  0  0  0
 49 64  1  0  0  0
 49118  1  0  0  0
 50 51  1  0  0  0
 50119  1  0  0  0
 50120  1  0  0  0
 51 52  1  0  0  0
 51121  1  0  0  0
 51122  1  0  0  0
 52123  1  0  0  0
 52124  1  0  0  0
 53 54  1  0  0  0
 54 55  2  0  0  0
 54125  1  0  0  0
 55 57  1  0  0  0
 55126  1  0  0  0
 56 69  2  0  0  0
 57 58  2  0  0  0
 57127  1  0  0  0
 58128  1  0  0  0
 59 60  1  0  0  0
 59 61  1  0  0  0
 59 62  1  0  0  0
 60129  1  0  0  0
 60130  1  0  0  0
 60131  1  0  0  0
 61132  1  0  0  0
 61133  1  0  0  0
 61134  1  0  0  0
 62135  1  0  0  0
 62136  1  0  0  0
 62137  1  0  0  0
 63 65  1  0  0  0
 63138  1  0  0  0
 63139  1  0  0  0
 63140  1  0  0  0
 64141  1  0  0  0
 65142  1  0  0  0
 68 81  1  0  0  0
 71 72  2  0  0  0
 71 73  1  0  0  0
 71143  1  0  0  0
 72 74  1  0  0  0
 72144  1  0  0  0
 73 75  2  0  0  0
 73 79  1  0  0  0
 74 82  1  0  0  0
 74 83  2  0  0  0
 75 80  1  0  0  0
 75 83  1  0  0  0
 76 80  1  0  0  0
 76145  1  0  0  0
 76146  1  0  0  0
 76147  1  0  0  0
 77148  1  0  0  0
 77149  1  0  0  0
 77150  1  0  0  0
 77 82  1  0  0  0
 78 82  1  0  0  0
 78151  1  0  0  0
 78152  1  0  0  0
 78153  1  0  0  0
 79 81  1  0  0  0
 79154  1  0  0  0
 79155  1  0  0  0
 80156  1  0  0  0
 80157  1  0  0  0
 81158  1  0  0  0
 81159  1  0  0  0
M  ISO  4   1 100  68 101  81 101  82 100
M  END
> <chiral flag>
0

> <version>
0

> <s_m_source_file>
/data/baiqing/PycharmProjects/Reinvent-master-3.2/result/LINK_invent/BTK/process_docking_weight1_custom_sum_contain_oxygen_bond_distance_aromatic_linkinvent_7_9_3/rearranged_h_0074.sdf

> <i_m_source_file_index>
84

> <r_mmod_Potential_Energy-OPLS-2005>
911.598205566406

> <r_mmod_Stretch_Energy-OPLS-2005>
436.473907470703

> <r_mmod_Bend_Energy-OPLS-2005>
434.172271728516

> <r_mmod_Torsional_Energy-OPLS-2005>
197.74055480957

> <r_mmod_Improper_Torsional_Energy-OPLS-2005>
8.14478397369385

> <r_mmod_Van_der_Waal_Energy-OPLS-2005>
151.72834777832

> <r_mmod_Electrostatic_Energy-OPLS-2005>
-440.907165527344

> <r_mmod_Solvation_Energy-OPLS-2005>
-201.031692504883

> <b_mmod_Minimization_Converged-OPLS-2005>
0

> <r_mmod_RMS_Derivative-OPLS-2005>
3.76105737686157

$$$$
84
                    3D
 Structure written by MMmdl.
169177  0  0  1  0            999 V2000
  -30.5754  -15.0031   20.3561 C   0  0  0  0  0  0
  -30.4307  -12.6149   19.5081 C   0  0  0  0  0  0
  -29.5246  -12.5095   18.2609 C   0  0  0  0  0  0
  -28.0636  -12.2623   18.6803 C   0  0  0  0  0  0
  -27.6100  -13.2181   19.8097 C   0  0  2  0  0  0
  -28.6523  -13.3592   20.9391 C   0  0  0  0  0  0
  -25.2416  -13.8080   20.5669 C   0  0  0  0  0  0
  -24.1735  -13.0356   20.9242 C   0  0  0  0  0  0
  -24.6350  -11.6843   20.8785 C   0  0  0  0  0  0
  -23.9039  -10.4252   21.0438 C   0  0  0  0  0  0
  -24.3611   -9.4176   21.9206 C   0  0  0  0  0  0
  -23.6290   -8.2209   22.0769 C   0  0  0  0  0  0
  -22.4266   -8.0270   21.3553 C   0  0  0  0  0  0
  -21.9901   -9.0234   20.4646 C   0  0  0  0  0  0
  -22.7226  -10.2110   20.3066 C   0  0  0  0  0  0
  -21.6848   -6.0736   22.5286 C   0  0  0  0  0  0
  -21.4000   -6.5642   23.8219 C   0  0  0  0  0  0
  -21.3646   -5.6787   24.9179 C   0  0  0  0  0  0
  -21.6039   -4.3049   24.7219 C   0  0  0  0  0  0
  -21.8834   -3.8157   23.4342 C   0  0  0  0  0  0
  -21.9191   -4.6973   22.3407 C   0  0  0  0  0  0
  -22.7766  -13.5168   21.1886 C   0  0  0  0  0  0
  -22.1664   -4.2174   21.0980 F   0  0  0  0  0  0
  -21.5623   -3.4532   25.7730 F   0  0  0  0  0  0
  -29.9328  -13.7562   20.3362 N   0  0  0  0  0  0
  -26.2791  -12.9245   20.3158 N   0  0  0  0  0  0
  -25.9257  -11.6422   20.5735 N   0  0  0  0  0  0
  -22.0396  -12.8173   22.0436 N   0  0  0  0  0  0
  -25.4038  -15.1806   20.4052 N   0  0  0  0  0  0
  -31.8074  -14.9174   20.2766 O   0  0  0  0  0  0
  -21.6618   -6.8881   21.4252 O   0  0  0  0  0  0
  -22.3464  -14.5475   20.6721 O   0  0  0  0  0  0
  -24.6411  -31.8414   23.1841 C   0  0  0  0  0  0
  -25.9184  -32.4683   23.8246 C   0  0  1  0  0  0
  -27.2280  -27.1391   20.1589 C   0  0  0  0  0  0
  -25.5939  -33.8493   24.2165 N   0  0  0  0  0  0
  -23.4462  -30.4553   21.5294 C   0  0  2  0  0  0
  -24.8985  -28.8761   20.1038 C   0  0  0  0  0  0
  -22.7570  -29.4514   22.4855 C   0  0  0  0  0  0
  -18.0297  -28.1395   22.8466 C   0  0  0  0  0  0
  -24.1485  -36.7255   23.2642 C   0  0  0  0  0  0
  -25.9977  -30.7156   21.3812 C   0  0  0  0  0  0
  -26.0694  -29.3256   20.7269 C   0  0  0  0  0  0
  -27.2274  -28.4688   20.7399 C   0  0  0  0  0  0
  -26.0384  -26.7818   19.4904 C   0  0  0  0  0  0
  -24.8962  -27.6196   19.4709 C   0  0  0  0  0  0
  -23.6715  -29.7754   20.1497 C   0  0  0  0  0  0
  -25.4119  -36.3037   24.0304 C   0  0  1  0  0  0
  -20.5908  -28.3703   23.1234 C   0  0  2  0  0  0
  -20.6769  -26.9398   22.5423 C   0  0  0  0  0  0
  -19.5757  -26.6369   21.5218 C   0  0  0  0  0  0
  -18.1933  -26.7935   22.1618 C   0  0  0  0  0  0
  -19.1550  -28.8874   23.2839 C   0  0  0  0  0  0
  -18.9475  -30.1473   23.8859 C   0  0  0  0  0  0
  -17.6468  -30.6580   24.0562 C   0  0  0  0  0  0
  -25.9071  -34.9400   23.5050 C   0  0  0  0  0  0
  -16.5362  -29.9073   23.6348 C   0  0  0  0  0  0
  -16.7284  -28.6508   23.0353 C   0  0  0  0  0  0
  -26.4517  -31.6583   25.0708 C   0  0  0  0  0  0
  -25.3703  -31.3782   26.1418 C   0  0  0  0  0  0
  -27.0391  -30.2983   24.6298 C   0  0  0  0  0  0
  -27.6035  -32.4370   25.7501 C   0  0  0  0  0  0
  -27.5566  -37.1781   24.8457 C   0  0  0  0  0  0
  -21.4260  -29.3017   22.3606 N   0  0  0  0  0  0
  -26.4285  -37.3741   23.9404 N   0  0  0  0  0  0
  -24.7142  -31.0252   22.0870 N   0  0  0  0  0  0
  -23.4208  -28.8063   23.3002 O   0  0  0  0  0  0
  -28.3108  -26.2048   20.2964 O   0  0  0  0  0  0
  -26.5664  -34.8892   22.4632 O   0  0  0  0  0  0
  -23.5533  -32.1302   23.7060 O   0  0  0  0  0  0
  -29.8402  -18.2356   23.3166 C   0  0  0  0  0  0
  -29.3049  -19.3032   22.6510 C   0  0  0  0  0  0
  -29.8065  -17.6811   21.2031 C   0  0  0  0  0  0
  -30.0249  -18.0341   24.7906 C   0  0  0  0  0  0
  -28.6832  -20.5068   23.2797 C   0  0  0  0  0  0
  -30.8854  -17.1739   18.9923 C   0  0  0  0  0  0
  -28.5628  -16.4603   19.3886 C   0  0  0  0  0  0
  -26.7603  -22.8106   19.9763 C   0  0  0  0  0  0
  -27.9293  -23.6140   22.0206 C   0  0  0  0  0  0
  -29.1532  -21.8898   20.4255 C   0  0  0  0  0  0
  -28.8091  -20.2132   20.3157 C   0  0  0  0  0  0
  -28.4540  -24.7389   19.7927 C   0  0  0  0  0  0
  -29.9357  -16.5575   20.0489 C   0  0  0  0  0  0
  -28.1237  -23.2522   20.5353 C   0  0  0  0  0  0
  -30.1454  -17.2449   22.4145 N   0  0  0  0  0  0
  -29.3636  -19.0706   21.2631 N   0  0  0  0  0  0
  -31.4670  -12.7488   19.1970 H   0  0  0  0  0  0
  -30.4135  -11.6846   20.0780 H   0  0  0  0  0  0
  -29.8711  -11.7063   17.6088 H   0  0  0  0  0  0
  -29.5958  -13.4298   17.6779 H   0  0  0  0  0  0
  -27.9871  -11.2283   19.0171 H   0  0  0  0  0  0
  -27.4033  -12.3501   17.8171 H   0  0  0  0  0  0
  -27.5056  -14.1618   19.2986 H   0  0  0  0  0  0
  -28.7513  -12.4204   21.4862 H   0  0  0  0  0  0
  -28.3315  -14.1103   21.6615 H   0  0  0  0  0  0
  -25.2764   -9.5644   22.4772 H   0  0  0  0  0  0
  -24.0012   -7.4585   22.7471 H   0  0  0  0  0  0
  -21.0839   -8.8734   19.8930 H   0  0  0  0  0  0
  -22.3704  -10.9648   19.6164 H   0  0  0  0  0  0
  -21.1993   -7.6152   23.9729 H   0  0  0  0  0  0
  -21.1442   -6.0512   25.9078 H   0  0  0  0  0  0
  -22.0628   -2.7629   23.2822 H   0  0  0  0  0  0
  -22.4004  -11.9866   22.4877 H   0  0  0  0  0  0
  -21.0996  -13.1185   22.2588 H   0  0  0  0  0  0
  -24.6338  -15.8300   20.5158 H   0  0  0  0  0  0
  -26.2427  -15.6202   20.0517 H   0  0  0  0  0  0
  -26.7236  -32.5293   23.0957 H   0  0  0  0  0  0
  -25.0070  -33.9617   25.0312 H   0  0  0  0  0  0
  -22.7491  -31.2785   21.3691 H   0  0  0  0  0  0
  -23.3749  -35.9584   23.3299 H   0  0  0  0  0  0
  -24.3561  -36.8926   22.2059 H   0  0  0  0  0  0
  -23.7244  -37.6443   23.6699 H   0  0  0  0  0  0
  -26.1481  -31.4666   20.6047 H   0  0  0  0  0  0
  -26.8683  -30.7708   22.0235 H   0  0  0  0  0  0
  -28.1175  -28.8006   21.2554 H   0  0  0  0  0  0
  -25.9664  -25.8145   19.0167 H   0  0  0  0  0  0
  -24.0010  -27.2694   18.9757 H   0  0  0  0  0  0
  -23.7988  -30.5440   19.3868 H   0  0  0  0  0  0
  -22.7898  -29.2064   19.8490 H   0  0  0  0  0  0
  -25.1309  -36.1853   25.0790 H   0  0  0  0  0  0
  -20.9990  -28.3295   24.1363 H   0  0  0  0  0  0
  -20.5661  -26.2309   23.3639 H   0  0  0  0  0  0
  -21.6630  -26.7413   22.1215 H   0  0  0  0  0  0
  -19.6917  -25.6277   21.1258 H   0  0  0  0  0  0
  -19.6705  -27.3164   20.6729 H   0  0  0  0  0  0
  -17.4207  -26.6693   21.4005 H   0  0  0  0  0  0
  -18.0311  -26.0090   22.9017 H   0  0  0  0  0  0
  -19.7956  -30.7299   24.2208 H   0  0  0  0  0  0
  -17.5027  -31.6263   24.5161 H   0  0  0  0  0  0
  -15.5364  -30.2955   23.7700 H   0  0  0  0  0  0
  -15.8693  -28.0820   22.7068 H   0  0  0  0  0  0
  -24.5856  -30.7159   25.7739 H   0  0  0  0  0  0
  -24.8911  -32.2962   26.4809 H   0  0  0  0  0  0
  -25.7971  -30.8977   27.0227 H   0  0  0  0  0  0
  -26.3015  -29.6700   24.1286 H   0  0  0  0  0  0
  -27.3995  -29.7291   25.4876 H   0  0  0  0  0  0
  -27.8911  -30.4234   23.9617 H   0  0  0  0  0  0
  -27.2612  -33.3684   26.2015 H   0  0  0  0  0  0
  -28.3860  -32.6930   25.0347 H   0  0  0  0  0  0
  -28.0675  -31.8559   26.5482 H   0  0  0  0  0  0
  -28.2574  -38.0088   24.7501 H   0  0  0  0  0  0
  -28.1083  -36.2615   24.6289 H   0  0  0  0  0  0
  -27.2287  -37.1431   25.8865 H   0  0  0  0  0  0
  -20.9472  -29.8758   21.6806 H   0  0  0  0  0  0
  -26.0155  -38.2807   24.1430 H   0  0  0  0  0  0
  -29.0856  -18.1639   25.3307 H   0  0  0  0  0  0
  -30.7370  -18.7524   25.1972 H   0  0  0  0  0  0
  -30.3969  -17.0348   25.0209 H   0  0  0  0  0  0
  -28.4239  -20.3164   24.3210 H   0  0  0  0  0  0
  -27.7529  -20.7557   22.7739 H   0  0  0  0  0  0
  -29.3540  -21.3641   23.2652 H   0  0  0  0  0  0
  -30.4930  -18.1080   18.5923 H   0  0  0  0  0  0
  -31.0434  -16.5003   18.1495 H   0  0  0  0  0  0
  -31.8622  -17.3971   19.4253 H   0  0  0  0  0  0
  -28.2337  -17.4306   19.0197 H   0  0  0  0  0  0
  -27.8273  -16.1395   20.1184 H   0  0  0  0  0  0
  -28.5834  -15.7900   18.5307 H   0  0  0  0  0  0
  -26.3443  -21.9672   20.5284 H   0  0  0  0  0  0
  -26.8479  -22.5081   18.9314 H   0  0  0  0  0  0
  -26.0279  -23.6169   20.0239 H   0  0  0  0  0  0
  -27.3802  -22.8558   22.5705 H   0  0  0  0  0  0
  -27.3509  -24.5320   22.1303 H   0  0  0  0  0  0
  -28.8838  -23.7751   22.5230 H   0  0  0  0  0  0
  -29.7080  -22.0795   19.5064 H   0  0  0  0  0  0
  -29.9321  -22.0122   21.1763 H   0  0  0  0  0  0
  -29.0658  -19.9035   19.3034 H   0  0  0  0  0  0
  -27.7242  -20.1084   20.3444 H   0  0  0  0  0  0
  -28.0373  -24.7141   18.7850 H   0  0  0  0  0  0
  -29.5257  -24.6867   19.6041 H   0  0  0  0  0  0
  1 25  1  0  0  0
  1 30  2  0  0  0
  1 83  1  0  0  0
  2  3  1  0  0  0
  2 25  1  0  0  0
  2 87  1  0  0  0
  2 88  1  0  0  0
  3  4  1  0  0  0
  3 89  1  0  0  0
  3 90  1  0  0  0
  4  5  1  0  0  0
  4 91  1  0  0  0
  4 92  1  0  0  0
  5  6  1  0  0  0
  5 26  1  0  0  0
  5 93  1  0  0  0
  6 25  1  0  0  0
  6 94  1  0  0  0
  6 95  1  0  0  0
  7  8  2  0  0  0
  7 26  1  0  0  0
  7 29  1  0  0  0
  8  9  1  0  0  0
  8 22  1  0  0  0
  9 10  1  0  0  0
  9 27  2  0  0  0
 10 11  2  0  0  0
 10 15  1  0  0  0
 11 12  1  0  0  0
 11 96  1  0  0  0
 12 13  2  0  0  0
 12 97  1  0  0  0
 13 14  1  0  0  0
 13 31  1  0  0  0
 14 15  2  0  0  0
 14 98  1  0  0  0
 15 99  1  0  0  0
 16 17  2  0  0  0
 16 21  1  0  0  0
 16 31  1  0  0  0
 17 18  1  0  0  0
 17100  1  0  0  0
 18 19  2  0  0  0
 18101  1  0  0  0
 19 20  1  0  0  0
 19 24  1  0  0  0
 20 21  2  0  0  0
 20102  1  0  0  0
 21 23  1  0  0  0
 22 28  1  0  0  0
 22 32  2  0  0  0
 26 27  1  0  0  0
 28103  1  0  0  0
 28104  1  0  0  0
 29105  1  0  0  0
 29106  1  0  0  0
 33 34  1  0  0  0
 33 66  1  0  0  0
 33 70  2  0  0  0
 34 36  1  0  0  0
 34 59  1  0  0  0
 34107  1  0  0  0
 35 44  2  0  0  0
 35 45  1  0  0  0
 35 68  1  0  0  0
 36 56  1  0  0  0
 36108  1  0  0  0
 37 39  1  0  0  0
 37 47  1  0  0  0
 37 66  1  0  0  0
 37109  1  0  0  0
 38 43  2  0  0  0
 38 46  1  0  0  0
 38 47  1  0  0  0
 39 64  1  0  0  0
 39 67  2  0  0  0
 40 52  1  0  0  0
 40 53  2  0  0  0
 40 58  1  0  0  0
 41110  1  0  0  0
 41111  1  0  0  0
 41112  1  0  0  0
 41 48  1  0  0  0
 42 43  1  0  0  0
 42 66  1  0  0  0
 42113  1  0  0  0
 42114  1  0  0  0
 43 44  1  0  0  0
 44115  1  0  0  0
 45 46  2  0  0  0
 45116  1  0  0  0
 46117  1  0  0  0
 47118  1  0  0  0
 47119  1  0  0  0
 48 56  1  0  0  0
 48 65  1  0  0  0
 48120  1  0  0  0
 49 50  1  0  0  0
 49 53  1  0  0  0
 49 64  1  0  0  0
 49121  1  0  0  0
 50 51  1  0  0  0
 50122  1  0  0  0
 50123  1  0  0  0
 51 52  1  0  0  0
 51124  1  0  0  0
 51125  1  0  0  0
 52126  1  0  0  0
 52127  1  0  0  0
 53 54  1  0  0  0
 54 55  2  0  0  0
 54128  1  0  0  0
 55 57  1  0  0  0
 55129  1  0  0  0
 56 69  2  0  0  0
 57 58  2  0  0  0
 57130  1  0  0  0
 58131  1  0  0  0
 59 60  1  0  0  0
 59 61  1  0  0  0
 59 62  1  0  0  0
 60132  1  0  0  0
 60133  1  0  0  0
 60134  1  0  0  0
 61135  1  0  0  0
 61136  1  0  0  0
 61137  1  0  0  0
 62138  1  0  0  0
 62139  1  0  0  0
 62140  1  0  0  0
 63 65  1  0  0  0
 63141  1  0  0  0
 63142  1  0  0  0
 63143  1  0  0  0
 64144  1  0  0  0
 65145  1  0  0  0
 68 82  1  0  0  0
 71 72  2  0  0  0
 71 74  1  0  0  0
 71 85  1  0  0  0
 72 75  1  0  0  0
 72 86  1  0  0  0
 73 83  1  0  0  0
 73 85  2  0  0  0
 73 86  1  0  0  0
 74146  1  0  0  0
 74147  1  0  0  0
 74148  1  0  0  0
 75149  1  0  0  0
 75150  1  0  0  0
 75151  1  0  0  0
 76152  1  0  0  0
 76153  1  0  0  0
 76154  1  0  0  0
 76 83  1  0  0  0
 77 83  1  0  0  0
 77155  1  0  0  0
 77156  1  0  0  0
 77157  1  0  0  0
 78158  1  0  0  0
 78159  1  0  0  0
 78160  1  0  0  0
 78 84  1  0  0  0
 79 84  1  0  0  0
 79161  1  0  0  0
 79162  1  0  0  0
 79163  1  0  0  0
 80 81  1  0  0  0
 80 84  1  0  0  0
 80164  1  0  0  0
 80165  1  0  0  0
 81 86  1  0  0  0
 81166  1  0  0  0
 81167  1  0  0  0
 82 84  1  0  0  0
 82168  1  0  0  0
 82169  1  0  0  0
M  ISO  4   1 100  68 101  82 101  83 100
M  END
> <chiral flag>
0

> <version>
0

> <s_m_source_file>
/data/baiqing/PycharmProjects/Reinvent-master-3.2/result/LINK_invent/BTK/process_docking_weight1_custom_sum_contain_oxygen_bond_distance_aromatic_linkinvent_7_9_3/rearranged_h_0074.sdf

> <i_m_source_file_index>
85

> <r_mmod_Potential_Energy-OPLS-2005>
800.121459960938

> <r_mmod_Stretch_Energy-OPLS-2005>
319.957733154297

> <r_mmod_Bend_Energy-OPLS-2005>
381.504730224609

> <r_mmod_Torsional_Energy-OPLS-2005>
261.574890136719

> <r_mmod_Improper_Torsional_Energy-OPLS-2005>
12.2107210159302

> <r_mmod_Van_der_Waal_Energy-OPLS-2005>
110.359161376953

> <r_mmod_Electrostatic_Energy-OPLS-2005>
-303.879669189453

> <r_mmod_Solvation_Energy-OPLS-2005>
-198.129989624023

> <b_mmod_Minimization_Converged-OPLS-2005>
0

> <r_mmod_RMS_Derivative-OPLS-2005>
2.58489084243774

$$$$
85
                    3D
 Structure written by MMmdl.
159166  0  0  1  0            999 V2000
  -30.3770  -15.4282   20.3503 C   0  0  0  0  0  0
  -30.4319  -12.9101   19.5660 C   0  0  0  0  0  0
  -29.5559  -12.6226   18.3186 C   0  0  0  0  0  0
  -28.1081  -12.3084   18.7292 C   0  0  0  0  0  0
  -27.6031  -13.2948   19.8108 C   0  0  2  0  0  0
  -28.6167  -13.5442   20.9463 C   0  0  0  0  0  0
  -25.2346  -13.8276   20.5742 C   0  0  0  0  0  0
  -24.1721  -13.0440   20.9229 C   0  0  0  0  0  0
  -24.6400  -11.6935   20.8706 C   0  0  0  0  0  0
  -23.9091  -10.4289   21.0370 C   0  0  0  0  0  0
  -24.3643   -9.4210   21.9153 C   0  0  0  0  0  0
  -23.6312   -8.2252   22.0738 C   0  0  0  0  0  0
  -22.4290   -8.0281   21.3535 C   0  0  0  0  0  0
  -21.9921   -9.0244   20.4629 C   0  0  0  0  0  0
  -22.7255  -10.2119   20.3031 C   0  0  0  0  0  0
  -21.6866   -6.0728   22.5280 C   0  0  0  0  0  0
  -21.4026   -6.5628   23.8212 C   0  0  0  0  0  0
  -21.3667   -5.6780   24.9174 C   0  0  0  0  0  0
  -21.6042   -4.3041   24.7228 C   0  0  0  0  0  0
  -21.8821   -3.8135   23.4352 C   0  0  0  0  0  0
  -21.9198   -4.6951   22.3406 C   0  0  0  0  0  0
  -22.7735  -13.5168   21.1893 C   0  0  0  0  0  0
  -22.1656   -4.2131   21.0983 F   0  0  0  0  0  0
  -21.5634   -3.4534   25.7746 F   0  0  0  0  0  0
  -29.8466  -14.0843   20.3369 N   0  0  0  0  0  0
  -26.2766  -12.9584   20.3118 N   0  0  0  0  0  0
  -25.9333  -11.6665   20.5620 N   0  0  0  0  0  0
  -22.0408  -12.8149   22.0457 N   0  0  0  0  0  0
  -25.3964  -15.2034   20.4285 N   0  0  0  0  0  0
  -31.6037  -15.3426   20.1305 O   0  0  0  0  0  0
  -21.6649   -6.8878   21.4242 O   0  0  0  0  0  0
  -22.3400  -14.5457   20.6719 O   0  0  0  0  0  0
  -24.6720  -31.8134   23.1606 C   0  0  0  0  0  0
  -25.9361  -32.4537   23.8117 C   0  0  1  0  0  0
  -27.2249  -26.8309   20.1959 C   0  0  0  0  0  0
  -25.5982  -33.8365   24.2022 N   0  0  0  0  0  0
  -23.4928  -30.4194   21.5136 C   0  0  2  0  0  0
  -24.9479  -28.7866   20.1118 C   0  0  0  0  0  0
  -22.7711  -29.4399   22.4766 C   0  0  0  0  0  0
  -18.0321  -28.1441   22.8456 C   0  0  0  0  0  0
  -24.1488  -36.7190   23.2648 C   0  0  0  0  0  0
  -26.0659  -30.5879   21.4063 C   0  0  0  0  0  0
  -26.1328  -29.1667   20.7529 C   0  0  0  0  0  0
  -27.2603  -28.2121   20.7686 C   0  0  0  0  0  0
  -26.0107  -26.6284   19.4987 C   0  0  0  0  0  0
  -24.9182  -27.5406   19.4619 C   0  0  0  0  0  0
  -23.7377  -29.7254   20.1447 C   0  0  0  0  0  0
  -25.4137  -36.2955   24.0298 C   0  0  1  0  0  0
  -20.5943  -28.3801   23.1164 C   0  0  2  0  0  0
  -20.6807  -26.9475   22.5409 C   0  0  0  0  0  0
  -19.5785  -26.6396   21.5221 C   0  0  0  0  0  0
  -18.1957  -26.7965   22.1617 C   0  0  0  0  0  0
  -19.1582  -28.8939   23.2793 C   0  0  0  0  0  0
  -18.9494  -30.1517   23.8847 C   0  0  0  0  0  0
  -17.6488  -30.6622   24.0562 C   0  0  0  0  0  0
  -25.9111  -34.9336   23.4995 C   0  0  0  0  0  0
  -16.5378  -29.9114   23.6348 C   0  0  0  0  0  0
  -16.7302  -28.6534   23.0365 C   0  0  0  0  0  0
  -26.4582  -31.6513   25.0686 C   0  0  0  0  0  0
  -25.3673  -31.3798   26.1319 C   0  0  0  0  0  0
  -27.0489  -30.2861   24.6487 C   0  0  0  0  0  0
  -27.6060  -32.4331   25.7500 C   0  0  0  0  0  0
  -27.5573  -37.1753   24.8471 C   0  0  0  0  0  0
  -21.4366  -29.3056   22.3500 N   0  0  0  0  0  0
  -26.4282  -37.3692   23.9407 N   0  0  0  0  0  0
  -24.7660  -30.9693   22.0801 N   0  0  0  0  0  0
  -23.4197  -28.7997   23.3081 O   0  0  0  0  0  0
  -28.2088  -25.6780   20.3113 O   0  0  0  0  0  0
  -26.5748  -34.8889   22.4610 O   0  0  0  0  0  0
  -23.5768  -32.1169   23.6628 O   0  0  0  0  0  0
  -27.2939  -20.2436   20.1561 C   0  0  0  0  0  0
  -31.1057  -19.5919   20.8476 C   0  0  0  0  0  0
  -28.2967  -24.0152   18.4576 C   0  0  0  0  0  0
  -30.2376  -16.9962   21.9619 C   0  0  0  0  0  0
  -30.1416  -17.3968   19.0588 C   0  0  0  0  0  0
  -28.8677  -22.4165   20.5330 C   0  0  0  0  0  0
  -28.7853  -20.5933   20.1080 C   0  0  1  0  0  0
  -29.6514  -19.0572   20.7170 C   0  0  1  0  0  0
  -28.0794  -24.0161   19.9765 C   0  0  2  0  0  0
  -29.5957  -17.1189   20.5065 C   0  0  0  0  0  0
  -31.4530  -13.1102   19.2422 H   0  0  0  0  0  0
  -30.5041  -12.0245   20.2024 H   0  0  0  0  0  0
  -29.9755  -11.7982   17.7392 H   0  0  0  0  0  0
  -29.5674  -13.4981   17.6666 H   0  0  0  0  0  0
  -28.0857  -11.2896   19.1208 H   0  0  0  0  0  0
  -27.4529  -12.3190   17.8575 H   0  0  0  0  0  0
  -27.4947  -14.2435   19.2826 H   0  0  0  0  0  0
  -28.8057  -12.6362   21.5218 H   0  0  0  0  0  0
  -28.2168  -14.2774   21.6482 H   0  0  0  0  0  0
  -25.2795   -9.5688   22.4719 H   0  0  0  0  0  0
  -24.0017   -7.4648   22.7466 H   0  0  0  0  0  0
  -21.0850   -8.8760   19.8942 H   0  0  0  0  0  0
  -22.3703  -10.9650   19.6143 H   0  0  0  0  0  0
  -21.2012   -7.6135   23.9714 H   0  0  0  0  0  0
  -21.1490   -6.0508   25.9076 H   0  0  0  0  0  0
  -22.0592   -2.7593   23.2861 H   0  0  0  0  0  0
  -22.4079  -11.9861   22.4898 H   0  0  0  0  0  0
  -21.0994  -13.1109   22.2619 H   0  0  0  0  0  0
  -24.6295  -15.8529   20.5670 H   0  0  0  0  0  0
  -26.2509  -15.6548   20.1274 H   0  0  0  0  0  0
  -26.7438  -32.5050   23.0838 H   0  0  0  0  0  0
  -25.0033  -33.9427   25.0109 H   0  0  0  0  0  0
  -22.8112  -31.2532   21.3336 H   0  0  0  0  0  0
  -23.3773  -35.9496   23.3286 H   0  0  0  0  0  0
  -24.3550  -36.8867   22.2060 H   0  0  0  0  0  0
  -23.7216  -37.6360   23.6724 H   0  0  0  0  0  0
  -26.2541  -31.3195   20.6198 H   0  0  0  0  0  0
  -26.9219  -30.6492   22.0659 H   0  0  0  0  0  0
  -28.1503  -28.5027   21.3079 H   0  0  0  0  0  0
  -25.8620  -25.6778   19.0086 H   0  0  0  0  0  0
  -24.0210  -27.2392   18.9382 H   0  0  0  0  0  0
  -23.8984  -30.4895   19.3838 H   0  0  0  0  0  0
  -22.8448  -29.1842   19.8269 H   0  0  0  0  0  0
  -25.1333  -36.1757   25.0786 H   0  0  0  0  0  0
  -21.0014  -28.3435   24.1297 H   0  0  0  0  0  0
  -20.5689  -26.2434   23.3672 H   0  0  0  0  0  0
  -21.6672  -26.7464   22.1213 H   0  0  0  0  0  0
  -19.6962  -25.6289   21.1298 H   0  0  0  0  0  0
  -19.6719  -27.3171   20.6721 H   0  0  0  0  0  0
  -17.4228  -26.6696   21.4023 H   0  0  0  0  0  0
  -18.0360  -26.0133   22.9038 H   0  0  0  0  0  0
  -19.7973  -30.7338   24.2209 H   0  0  0  0  0  0
  -17.5048  -31.6293   24.5187 H   0  0  0  0  0  0
  -15.5379  -30.3008   23.7711 H   0  0  0  0  0  0
  -15.8697  -28.0840   22.7123 H   0  0  0  0  0  0
  -24.5888  -30.7122   25.7617 H   0  0  0  0  0  0
  -24.8834  -32.3008   26.4567 H   0  0  0  0  0  0
  -25.7868  -30.9077   27.0211 H   0  0  0  0  0  0
  -26.3181  -29.6510   24.1467 H   0  0  0  0  0  0
  -27.3957  -29.7258   25.5181 H   0  0  0  0  0  0
  -27.9145  -30.4015   23.9965 H   0  0  0  0  0  0
  -27.2627  -33.3684   26.1935 H   0  0  0  0  0  0
  -28.3947  -32.6800   25.0381 H   0  0  0  0  0  0
  -28.0651  -31.8551   26.5532 H   0  0  0  0  0  0
  -28.2581  -38.0057   24.7510 H   0  0  0  0  0  0
  -28.1080  -36.2583   24.6316 H   0  0  0  0  0  0
  -27.2291  -37.1414   25.8875 H   0  0  0  0  0  0
  -20.9672  -29.8690   21.6546 H   0  0  0  0  0  0
  -26.0143  -38.2763   24.1387 H   0  0  0  0  0  0
  -26.6940  -20.9924   19.6378 H   0  0  0  0  0  0
  -26.9414  -20.1936   21.1874 H   0  0  0  0  0  0
  -27.0989  -19.2764   19.6915 H   0  0  0  0  0  0
  -31.0902  -20.6366   21.1596 H   0  0  0  0  0  0
  -31.6482  -19.5649   19.9031 H   0  0  0  0  0  0
  -31.7106  -19.0892   21.5993 H   0  0  0  0  0  0
  -28.0108  -23.0569   18.0225 H   0  0  0  0  0  0
  -29.3478  -24.1859   18.2218 H   0  0  0  0  0  0
  -27.7135  -24.7840   17.9533 H   0  0  0  0  0  0
  -29.9221  -17.7129   22.7146 H   0  0  0  0  0  0
  -31.3295  -17.0294   21.9793 H   0  0  0  0  0  0
  -29.9293  -16.1007   22.5137 H   0  0  0  0  0  0
  -29.9351  -16.5998   18.3377 H   0  0  0  0  0  0
  -31.2151  -17.5849   19.0279 H   0  0  0  0  0  0
  -29.6484  -18.2368   18.5699 H   0  0  0  0  0  0
  -29.9314  -22.6398   20.4512 H   0  0  0  0  0  0
  -28.6938  -22.4247   21.6092 H   0  0  0  0  0  0
  -29.0473  -20.6032   19.0497 H   0  0  0  0  0  0
  -29.2067  -19.2014   21.6986 H   0  0  0  0  0  0
  -27.0176  -23.8333   20.1460 H   0  0  0  0  0  0
  1 25  1  0  0  0
  1 30  2  0  0  0
  1 80  1  0  0  0
  2  3  1  0  0  0
  2 25  1  0  0  0
  2 81  1  0  0  0
  2 82  1  0  0  0
  3  4  1  0  0  0
  3 83  1  0  0  0
  3 84  1  0  0  0
  4  5  1  0  0  0
  4 85  1  0  0  0
  4 86  1  0  0  0
  5  6  1  0  0  0
  5 26  1  0  0  0
  5 87  1  0  0  0
  6 25  1  0  0  0
  6 88  1  0  0  0
  6 89  1  0  0  0
  7  8  2  0  0  0
  7 26  1  0  0  0
  7 29  1  0  0  0
  8  9  1  0  0  0
  8 22  1  0  0  0
  9 10  1  0  0  0
  9 27  2  0  0  0
 10 11  2  0  0  0
 10 15  1  0  0  0
 11 12  1  0  0  0
 11 90  1  0  0  0
 12 13  2  0  0  0
 12 91  1  0  0  0
 13 14  1  0  0  0
 13 31  1  0  0  0
 14 15  2  0  0  0
 14 92  1  0  0  0
 15 93  1  0  0  0
 16 17  2  0  0  0
 16 21  1  0  0  0
 16 31  1  0  0  0
 17 18  1  0  0  0
 17 94  1  0  0  0
 18 19  2  0  0  0
 18 95  1  0  0  0
 19 20  1  0  0  0
 19 24  1  0  0  0
 20 21  2  0  0  0
 20 96  1  0  0  0
 21 23  1  0  0  0
 22 28  1  0  0  0
 22 32  2  0  0  0
 26 27  1  0  0  0
 28 97  1  0  0  0
 28 98  1  0  0  0
 29 99  1  0  0  0
 29100  1  0  0  0
 33 34  1  0  0  0
 33 66  1  0  0  0
 33 70  2  0  0  0
 34 36  1  0  0  0
 34 59  1  0  0  0
 34101  1  0  0  0
 35 44  2  0  0  0
 35 45  1  0  0  0
 35 68  1  0  0  0
 36 56  1  0  0  0
 36102  1  0  0  0
 37 39  1  0  0  0
 37 47  1  0  0  0
 37 66  1  0  0  0
 37103  1  0  0  0
 38 43  2  0  0  0
 38 46  1  0  0  0
 38 47  1  0  0  0
 39 64  1  0  0  0
 39 67  2  0  0  0
 40 52  1  0  0  0
 40 53  2  0  0  0
 40 58  1  0  0  0
 41104  1  0  0  0
 41105  1  0  0  0
 41106  1  0  0  0
 41 48  1  0  0  0
 42 43  1  0  0  0
 42 66  1  0  0  0
 42107  1  0  0  0
 42108  1  0  0  0
 43 44  1  0  0  0
 44109  1  0  0  0
 45 46  2  0  0  0
 45110  1  0  0  0
 46111  1  0  0  0
 47112  1  0  0  0
 47113  1  0  0  0
 48 56  1  0  0  0
 48 65  1  0  0  0
 48114  1  0  0  0
 49 50  1  0  0  0
 49 53  1  0  0  0
 49 64  1  0  0  0
 49115  1  0  0  0
 50 51  1  0  0  0
 50116  1  0  0  0
 50117  1  0  0  0
 51 52  1  0  0  0
 51118  1  0  0  0
 51119  1  0  0  0
 52120  1  0  0  0
 52121  1  0  0  0
 53 54  1  0  0  0
 54 55  2  0  0  0
 54122  1  0  0  0
 55 57  1  0  0  0
 55123  1  0  0  0
 56 69  2  0  0  0
 57 58  2  0  0  0
 57124  1  0  0  0
 58125  1  0  0  0
 59 60  1  0  0  0
 59 61  1  0  0  0
 59 62  1  0  0  0
 60126  1  0  0  0
 60127  1  0  0  0
 60128  1  0  0  0
 61129  1  0  0  0
 61130  1  0  0  0
 61131  1  0  0  0
 62132  1  0  0  0
 62133  1  0  0  0
 62134  1  0  0  0
 63 65  1  0  0  0
 63135  1  0  0  0
 63136  1  0  0  0
 63137  1  0  0  0
 64138  1  0  0  0
 65139  1  0  0  0
 68 79  1  0  0  0
 71140  1  0  0  0
 71141  1  0  0  0
 71142  1  0  0  0
 71 77  1  0  0  0
 72143  1  0  0  0
 72144  1  0  0  0
 72145  1  0  0  0
 72 78  1  0  0  0
 73146  1  0  0  0
 73147  1  0  0  0
 73148  1  0  0  0
 73 79  1  0  0  0
 74149  1  0  0  0
 74150  1  0  0  0
 74151  1  0  0  0
 74 80  1  0  0  0
 75 80  1  0  0  0
 75152  1  0  0  0
 75153  1  0  0  0
 75154  1  0  0  0
 76 77  1  0  0  0
 76 79  1  0  0  0
 76155  1  0  0  0
 76156  1  0  0  0
 77 78  1  0  0  0
 77157  1  0  0  0
 78 80  1  0  0  0
 78158  1  0  0  0
 79159  1  0  0  0
M  ISO  4   1 100  68 101  79 101  80 100
M  END
> <chiral flag>
0

> <version>
0

> <s_m_source_file>
/data/baiqing/PycharmProjects/Reinvent-master-3.2/result/LINK_invent/BTK/process_docking_weight1_custom_sum_contain_oxygen_bond_distance_aromatic_linkinvent_7_9_3/rearranged_h_0074.sdf

> <i_m_source_file_index>
86

> <r_mmod_Potential_Energy-OPLS-2005>
2464.77197265625

> <r_mmod_Stretch_Energy-OPLS-2005>
1017.69293212891

> <r_mmod_Bend_Energy-OPLS-2005>
924.319030761719

> <r_mmod_Torsional_Energy-OPLS-2005>
214.186813354492

> <r_mmod_Improper_Torsional_Energy-OPLS-2005>
2.14444637298584

> <r_mmod_Van_der_Waal_Energy-OPLS-2005>
162.583190917969

> <r_mmod_Electrostatic_Energy-OPLS-2005>
-310.406372070312

> <r_mmod_Solvation_Energy-OPLS-2005>
-170.091903686523

> <b_mmod_Minimization_Converged-OPLS-2005>
0

> <r_mmod_RMS_Derivative-OPLS-2005>
2.2719464302063

$$$$
86
                    3D
 Structure written by MMmdl.
162169  0  0  1  0            999 V2000
  -30.3445  -15.4713   20.3628 C   0  0  0  0  0  0
  -30.4483  -12.9394   19.5530 C   0  0  0  0  0  0
  -29.5699  -12.6165   18.3106 C   0  0  0  0  0  0
  -28.1261  -12.2786   18.7239 C   0  0  0  0  0  0
  -27.6085  -13.2609   19.7953 C   0  0  2  0  0  0
  -28.6261  -13.5171   20.9314 C   0  0  0  0  0  0
  -25.2312  -13.8090   20.5545 C   0  0  0  0  0  0
  -24.1717  -13.0334   20.9224 C   0  0  0  0  0  0
  -24.6396  -11.6847   20.8738 C   0  0  0  0  0  0
  -23.9078  -10.4246   21.0418 C   0  0  0  0  0  0
  -24.3607   -9.4166   21.9212 C   0  0  0  0  0  0
  -23.6264   -8.2221   22.0781 C   0  0  0  0  0  0
  -22.4243   -8.0262   21.3575 C   0  0  0  0  0  0
  -21.9898   -9.0234   20.4654 C   0  0  0  0  0  0
  -22.7252  -10.2097   20.3065 C   0  0  0  0  0  0
  -21.6850   -6.0692   22.5290 C   0  0  0  0  0  0
  -21.4008   -6.5604   23.8214 C   0  0  0  0  0  0
  -21.3661   -5.6763   24.9190 C   0  0  0  0  0  0
  -21.6052   -4.3027   24.7242 C   0  0  0  0  0  0
  -21.8815   -3.8105   23.4374 C   0  0  0  0  0  0
  -21.9193   -4.6919   22.3419 C   0  0  0  0  0  0
  -22.7748  -13.5119   21.1941 C   0  0  0  0  0  0
  -22.1657   -4.2110   21.0998 F   0  0  0  0  0  0
  -21.5659   -3.4506   25.7755 F   0  0  0  0  0  0
  -29.8485  -14.1038   20.3345 N   0  0  0  0  0  0
  -26.2782  -12.9384   20.3020 N   0  0  0  0  0  0
  -25.9328  -11.6515   20.5617 N   0  0  0  0  0  0
  -22.0433  -12.8199   22.0580 N   0  0  0  0  0  0
  -25.3712  -15.1783   20.3718 N   0  0  0  0  0  0
  -31.5616  -15.4533   20.1084 O   0  0  0  0  0  0
  -21.6634   -6.8845   21.4253 O   0  0  0  0  0  0
  -22.3426  -14.5423   20.6773 O   0  0  0  0  0  0
  -24.6746  -31.8098   23.1570 C   0  0  0  0  0  0
  -25.9360  -32.4520   23.8107 C   0  0  1  0  0  0
  -27.2474  -26.8083   20.2057 C   0  0  0  0  0  0
  -25.5983  -33.8343   24.2024 N   0  0  0  0  0  0
  -23.4984  -30.4120   21.5093 C   0  0  2  0  0  0
  -24.9584  -28.7705   20.1178 C   0  0  0  0  0  0
  -22.7725  -29.4375   22.4749 C   0  0  0  0  0  0
  -18.0339  -28.1432   22.8467 C   0  0  0  0  0  0
  -24.1486  -36.7172   23.2661 C   0  0  0  0  0  0
  -26.0730  -30.5792   21.4049 C   0  0  0  0  0  0
  -26.1450  -29.1532   20.7561 C   0  0  0  0  0  0
  -27.2789  -28.1998   20.7627 C   0  0  0  0  0  0
  -26.0236  -26.6043   19.5207 C   0  0  0  0  0  0
  -24.9300  -27.5173   19.4787 C   0  0  0  0  0  0
  -23.7482  -29.7120   20.1434 C   0  0  0  0  0  0
  -25.4125  -36.2924   24.0298 C   0  0  1  0  0  0
  -20.5966  -28.3788   23.1152 C   0  0  2  0  0  0
  -20.6810  -26.9454   22.5400 C   0  0  0  0  0  0
  -19.5784  -26.6380   21.5213 C   0  0  0  0  0  0
  -18.1964  -26.7966   22.1620 C   0  0  0  0  0  0
  -19.1608  -28.8933   23.2789 C   0  0  0  0  0  0
  -18.9515  -30.1522   23.8816 C   0  0  0  0  0  0
  -17.6508  -30.6613   24.0563 C   0  0  0  0  0  0
  -25.9099  -34.9312   23.4992 C   0  0  0  0  0  0
  -16.5398  -29.9093   23.6360 C   0  0  0  0  0  0
  -16.7320  -28.6525   23.0357 C   0  0  0  0  0  0
  -26.4566  -31.6492   25.0684 C   0  0  0  0  0  0
  -25.3653  -31.3739   26.1313 C   0  0  0  0  0  0
  -27.0506  -30.2854   24.6490 C   0  0  0  0  0  0
  -27.6038  -32.4322   25.7499 C   0  0  0  0  0  0
  -27.5556  -37.1736   24.8476 C   0  0  0  0  0  0
  -21.4380  -29.3047   22.3480 N   0  0  0  0  0  0
  -26.4264  -37.3669   23.9421 N   0  0  0  0  0  0
  -24.7713  -30.9646   22.0771 N   0  0  0  0  0  0
  -23.4191  -28.7967   23.3070 O   0  0  0  0  0  0
  -28.2541  -25.6616   20.2720 O   0  0  0  0  0  0
  -26.5728  -34.8873   22.4602 O   0  0  0  0  0  0
  -23.5779  -32.1148   23.6568 O   0  0  0  0  0  0
  -30.0364  -22.5337   19.0460 C   0  0  0  0  0  0
  -31.0739  -19.2775   21.1047 C   0  0  0  0  0  0
  -29.2082  -17.0333   22.1384 C   0  0  0  0  0  0
  -28.1621  -16.9044   19.8939 C   0  0  0  0  0  0
  -27.7612  -20.3456   19.2166 C   0  0  0  0  0  0
  -28.0064  -20.4328   21.7001 C   0  0  0  0  0  0
  -28.0636  -23.9584   20.2218 C   0  0  0  0  0  0
  -29.0993  -22.3794   20.2515 C   0  0  1  0  0  0
  -29.7993  -18.9338   20.3170 C   0  0  1  0  0  0
  -29.4904  -17.0884   20.6190 C   0  0  0  0  0  0
  -28.7691  -20.5273   20.3682 C   0  0  0  0  0  0
  -31.4667  -13.1552   19.2283 H   0  0  0  0  0  0
  -30.5375  -12.0544   20.1857 H   0  0  0  0  0  0
  -30.0011  -11.7889   17.7450 H   0  0  0  0  0  0
  -29.5715  -13.4757   17.6369 H   0  0  0  0  0  0
  -28.1183  -11.2650   19.1235 H   0  0  0  0  0  0
  -27.4726  -12.2734   17.8505 H   0  0  0  0  0  0
  -27.4873  -14.1708   19.2149 H   0  0  0  0  0  0
  -28.8308  -12.5963   21.4812 H   0  0  0  0  0  0
  -28.1988  -14.2067   21.6566 H   0  0  0  0  0  0
  -25.2737   -9.5635   22.4811 H   0  0  0  0  0  0
  -23.9957   -7.4595   22.7498 H   0  0  0  0  0  0
  -21.0846   -8.8751   19.8919 H   0  0  0  0  0  0
  -22.3728  -10.9640   19.6161 H   0  0  0  0  0  0
  -21.1981   -7.6103   23.9715 H   0  0  0  0  0  0
  -21.1499   -6.0498   25.9097 H   0  0  0  0  0  0
  -22.0584   -2.7564   23.2895 H   0  0  0  0  0  0
  -22.3960  -11.9796   22.4930 H   0  0  0  0  0  0
  -21.1166  -13.1442   22.2971 H   0  0  0  0  0  0
  -24.5801  -15.8108   20.4166 H   0  0  0  0  0  0
  -26.1816  -15.5905   19.9305 H   0  0  0  0  0  0
  -26.7449  -32.5021   23.0823 H   0  0  0  0  0  0
  -25.0069  -33.9396   25.0142 H   0  0  0  0  0  0
  -22.8198  -31.2459   21.3224 H   0  0  0  0  0  0
  -23.3763  -35.9492   23.3281 H   0  0  0  0  0  0
  -24.3549  -36.8877   22.2089 H   0  0  0  0  0  0
  -23.7237  -37.6336   23.6755 H   0  0  0  0  0  0
  -26.2586  -31.3113   20.6179 H   0  0  0  0  0  0
  -26.9299  -30.6456   22.0630 H   0  0  0  0  0  0
  -28.1799  -28.5001   21.2793 H   0  0  0  0  0  0
  -25.8819  -25.6544   19.0265 H   0  0  0  0  0  0
  -24.0327  -27.2142   18.9573 H   0  0  0  0  0  0
  -23.9096  -30.4749   19.3806 H   0  0  0  0  0  0
  -22.8570  -29.1690   19.8253 H   0  0  0  0  0  0
  -25.1315  -36.1705   25.0786 H   0  0  0  0  0  0
  -21.0047  -28.3425   24.1274 H   0  0  0  0  0  0
  -20.5694  -26.2409   23.3654 H   0  0  0  0  0  0
  -21.6673  -26.7417   22.1208 H   0  0  0  0  0  0
  -19.6950  -25.6263   21.1300 H   0  0  0  0  0  0
  -19.6739  -27.3148   20.6706 H   0  0  0  0  0  0
  -17.4239  -26.6712   21.4017 H   0  0  0  0  0  0
  -18.0350  -26.0119   22.9026 H   0  0  0  0  0  0
  -19.8001  -30.7353   24.2137 H   0  0  0  0  0  0
  -17.5076  -31.6285   24.5185 H   0  0  0  0  0  0
  -15.5403  -30.2975   23.7737 H   0  0  0  0  0  0
  -15.8720  -28.0827   22.7093 H   0  0  0  0  0  0
  -24.5906  -30.7007   25.7613 H   0  0  0  0  0  0
  -24.8742  -32.2919   26.4548 H   0  0  0  0  0  0
  -25.7861  -30.9049   27.0219 H   0  0  0  0  0  0
  -26.3224  -29.6488   24.1458 H   0  0  0  0  0  0
  -27.3981  -29.7251   25.5177 H   0  0  0  0  0  0
  -27.9166  -30.4029   23.9975 H   0  0  0  0  0  0
  -27.2632  -33.3739   26.1812 H   0  0  0  0  0  0
  -28.3982  -32.6686   25.0405 H   0  0  0  0  0  0
  -28.0541  -31.8600   26.5624 H   0  0  0  0  0  0
  -28.2534  -38.0071   24.7511 H   0  0  0  0  0  0
  -28.1091  -36.2577   24.6306 H   0  0  0  0  0  0
  -27.2257  -37.1370   25.8880 H   0  0  0  0  0  0
  -20.9666  -29.8719   21.6568 H   0  0  0  0  0  0
  -26.0098  -38.2723   24.1439 H   0  0  0  0  0  0
  -30.4882  -23.5265   19.0283 H   0  0  0  0  0  0
  -29.4879  -22.4059   18.1126 H   0  0  0  0  0  0
  -30.8463  -21.8021   19.0570 H   0  0  0  0  0  0
  -31.8222  -18.4868   21.0251 H   0  0  0  0  0  0
  -30.8521  -19.4220   22.1618 H   0  0  0  0  0  0
  -31.5286  -20.2003   20.7480 H   0  0  0  0  0  0
  -28.3262  -17.6091   22.4140 H   0  0  0  0  0  0
  -30.0462  -17.4186   22.7132 H   0  0  0  0  0  0
  -29.0454  -16.0227   22.5063 H   0  0  0  0  0  0
  -27.7401  -15.9525   20.1513 H   0  0  0  0  0  0
  -28.2721  -16.9740   18.8113 H   0  0  0  0  0  0
  -27.4226  -17.6307   20.2144 H   0  0  0  0  0  0
  -27.1296  -21.2265   19.0998 H   0  0  0  0  0  0
  -27.0842  -19.5097   19.3643 H   0  0  0  0  0  0
  -28.2738  -20.1871   18.2675 H   0  0  0  0  0  0
  -27.3671  -21.3029   21.8541 H   0  0  0  0  0  0
  -28.6960  -20.3817   22.5432 H   0  0  0  0  0  0
  -27.3653  -19.5532   21.7478 H   0  0  0  0  0  0
  -27.3563  -23.7942   21.0332 H   0  0  0  0  0  0
  -27.4583  -23.8338   19.3245 H   0  0  0  0  0  0
  -29.7301  -22.5466   21.1258 H   0  0  0  0  0  0
  -30.1317  -18.9194   19.2778 H   0  0  0  0  0  0
  1 25  1  0  0  0
  1 30  2  0  0  0
  1 80  1  0  0  0
  2  3  1  0  0  0
  2 25  1  0  0  0
  2 82  1  0  0  0
  2 83  1  0  0  0
  3  4  1  0  0  0
  3 84  1  0  0  0
  3 85  1  0  0  0
  4  5  1  0  0  0
  4 86  1  0  0  0
  4 87  1  0  0  0
  5  6  1  0  0  0
  5 26  1  0  0  0
  5 88  1  0  0  0
  6 25  1  0  0  0
  6 89  1  0  0  0
  6 90  1  0  0  0
  7  8  2  0  0  0
  7 26  1  0  0  0
  7 29  1  0  0  0
  8  9  1  0  0  0
  8 22  1  0  0  0
  9 10  1  0  0  0
  9 27  2  0  0  0
 10 11  2  0  0  0
 10 15  1  0  0  0
 11 12  1  0  0  0
 11 91  1  0  0  0
 12 13  2  0  0  0
 12 92  1  0  0  0
 13 14  1  0  0  0
 13 31  1  0  0  0
 14 15  2  0  0  0
 14 93  1  0  0  0
 15 94  1  0  0  0
 16 17  2  0  0  0
 16 21  1  0  0  0
 16 31  1  0  0  0
 17 18  1  0  0  0
 17 95  1  0  0  0
 18 19  2  0  0  0
 18 96  1  0  0  0
 19 20  1  0  0  0
 19 24  1  0  0  0
 20 21  2  0  0  0
 20 97  1  0  0  0
 21 23  1  0  0  0
 22 28  1  0  0  0
 22 32  2  0  0  0
 26 27  1  0  0  0
 28 98  1  0  0  0
 28 99  1  0  0  0
 29100  1  0  0  0
 29101  1  0  0  0
 33 34  1  0  0  0
 33 66  1  0  0  0
 33 70  2  0  0  0
 34 36  1  0  0  0
 34 59  1  0  0  0
 34102  1  0  0  0
 35 44  2  0  0  0
 35 45  1  0  0  0
 35 68  1  0  0  0
 36 56  1  0  0  0
 36103  1  0  0  0
 37 39  1  0  0  0
 37 47  1  0  0  0
 37 66  1  0  0  0
 37104  1  0  0  0
 38 43  2  0  0  0
 38 46  1  0  0  0
 38 47  1  0  0  0
 39 64  1  0  0  0
 39 67  2  0  0  0
 40 52  1  0  0  0
 40 53  2  0  0  0
 40 58  1  0  0  0
 41105  1  0  0  0
 41106  1  0  0  0
 41107  1  0  0  0
 41 48  1  0  0  0
 42 43  1  0  0  0
 42 66  1  0  0  0
 42108  1  0  0  0
 42109  1  0  0  0
 43 44  1  0  0  0
 44110  1  0  0  0
 45 46  2  0  0  0
 45111  1  0  0  0
 46112  1  0  0  0
 47113  1  0  0  0
 47114  1  0  0  0
 48 56  1  0  0  0
 48 65  1  0  0  0
 48115  1  0  0  0
 49 50  1  0  0  0
 49 53  1  0  0  0
 49 64  1  0  0  0
 49116  1  0  0  0
 50 51  1  0  0  0
 50117  1  0  0  0
 50118  1  0  0  0
 51 52  1  0  0  0
 51119  1  0  0  0
 51120  1  0  0  0
 52121  1  0  0  0
 52122  1  0  0  0
 53 54  1  0  0  0
 54 55  2  0  0  0
 54123  1  0  0  0
 55 57  1  0  0  0
 55124  1  0  0  0
 56 69  2  0  0  0
 57 58  2  0  0  0
 57125  1  0  0  0
 58126  1  0  0  0
 59 60  1  0  0  0
 59 61  1  0  0  0
 59 62  1  0  0  0
 60127  1  0  0  0
 60128  1  0  0  0
 60129  1  0  0  0
 61130  1  0  0  0
 61131  1  0  0  0
 61132  1  0  0  0
 62133  1  0  0  0
 62134  1  0  0  0
 62135  1  0  0  0
 63 65  1  0  0  0
 63136  1  0  0  0
 63137  1  0  0  0
 63138  1  0  0  0
 64139  1  0  0  0
 65140  1  0  0  0
 68 77  1  0  0  0
 71141  1  0  0  0
 71142  1  0  0  0
 71143  1  0  0  0
 71 78  1  0  0  0
 72144  1  0  0  0
 72145  1  0  0  0
 72146  1  0  0  0
 72 79  1  0  0  0
 73147  1  0  0  0
 73148  1  0  0  0
 73149  1  0  0  0
 73 80  1  0  0  0
 74 80  1  0  0  0
 74150  1  0  0  0
 74151  1  0  0  0
 74152  1  0  0  0
 75153  1  0  0  0
 75154  1  0  0  0
 75155  1  0  0  0
 75 81  1  0  0  0
 76 81  1  0  0  0
 76156  1  0  0  0
 76157  1  0  0  0
 76158  1  0  0  0
 77 78  1  0  0  0
 77159  1  0  0  0
 77160  1  0  0  0
 78 81  1  0  0  0
 78161  1  0  0  0
 79 80  1  0  0  0
 79 81  1  0  0  0
 79162  1  0  0  0
M  ISO  4   1 100  68 101  77 101  80 100
M  END
> <chiral flag>
0

> <version>
0

> <s_m_source_file>
/data/baiqing/PycharmProjects/Reinvent-master-3.2/result/LINK_invent/BTK/process_docking_weight1_custom_sum_contain_oxygen_bond_distance_aromatic_linkinvent_7_9_3/rearranged_h_0074.sdf

> <i_m_source_file_index>
87

> <r_mmod_Potential_Energy-OPLS-2005>
2144.03247070312

> <r_mmod_Stretch_Energy-OPLS-2005>
1018.23657226562

> <r_mmod_Bend_Energy-OPLS-2005>
588.250732421875

> <r_mmod_Torsional_Energy-OPLS-2005>
237.772888183594

> <r_mmod_Improper_Torsional_Energy-OPLS-2005>
2.57709908485413

> <r_mmod_Van_der_Waal_Energy-OPLS-2005>
112.342811584473

> <r_mmod_Electrostatic_Energy-OPLS-2005>
-311.038024902344

> <r_mmod_Solvation_Energy-OPLS-2005>
-173.428405761719

> <b_mmod_Minimization_Converged-OPLS-2005>
0

> <r_mmod_RMS_Derivative-OPLS-2005>
3.52161312103271

$$$$
87
                    3D
 Structure written by MMmdl.
161169  0  0  1  0            999 V2000
  -30.6249  -14.9118   20.2834 C   0  0  0  0  0  0
  -30.4320  -12.5481   19.4676 C   0  0  0  0  0  0
  -29.5012  -12.4468   18.2401 C   0  0  0  0  0  0
  -28.0434  -12.2170   18.6843 C   0  0  0  0  0  0
  -27.6052  -13.1736   19.8186 C   0  0  2  0  0  0
  -28.6748  -13.3375   20.9229 C   0  0  0  0  0  0
  -25.2466  -13.7972   20.5804 C   0  0  0  0  0  0
  -24.1724  -13.0304   20.9301 C   0  0  0  0  0  0
  -24.6266  -11.6762   20.8849 C   0  0  0  0  0  0
  -23.8942  -10.4202   21.0468 C   0  0  0  0  0  0
  -24.3523   -9.4122   21.9231 C   0  0  0  0  0  0
  -23.6217   -8.2159   22.0774 C   0  0  0  0  0  0
  -22.4214   -8.0214   21.3549 C   0  0  0  0  0  0
  -21.9833   -9.0182   20.4652 C   0  0  0  0  0  0
  -22.7138  -10.2066   20.3084 C   0  0  0  0  0  0
  -21.6818   -6.0687   22.5284 C   0  0  0  0  0  0
  -21.3985   -6.5606   23.8213 C   0  0  0  0  0  0
  -21.3661   -5.6780   24.9187 C   0  0  0  0  0  0
  -21.6047   -4.3038   24.7251 C   0  0  0  0  0  0
  -21.8817   -3.8114   23.4375 C   0  0  0  0  0  0
  -21.9175   -4.6918   22.3415 C   0  0  0  0  0  0
  -22.7764  -13.5165   21.1908 C   0  0  0  0  0  0
  -22.1651   -4.2098   21.0993 F   0  0  0  0  0  0
  -21.5645   -3.4529   25.7768 F   0  0  0  0  0  0
  -29.9571  -13.6887   20.2897 N   0  0  0  0  0  0
  -26.2787  -12.9021   20.3361 N   0  0  0  0  0  0
  -25.9168  -11.6239   20.5876 N   0  0  0  0  0  0
  -22.0389  -12.8194   22.0463 N   0  0  0  0  0  0
  -25.4190  -15.1704   20.4210 N   0  0  0  0  0  0
  -31.8525  -14.8407   20.3799 O   0  0  0  0  0  0
  -21.6594   -6.8810   21.4235 O   0  0  0  0  0  0
  -22.3488  -14.5478   20.6728 O   0  0  0  0  0  0
  -24.6352  -31.8536   23.1983 C   0  0  0  0  0  0
  -25.9170  -32.4758   23.8335 C   0  0  1  0  0  0
  -27.2270  -27.2338   20.1430 C   0  0  0  0  0  0
  -25.5937  -33.8552   24.2272 N   0  0  0  0  0  0
  -23.4351  -30.4775   21.5407 C   0  0  2  0  0  0
  -24.8862  -28.9218   20.1087 C   0  0  0  0  0  0
  -22.7544  -29.4596   22.4889 C   0  0  0  0  0  0
  -18.0311  -28.1390   22.8470 C   0  0  0  0  0  0
  -24.1502  -36.7289   23.2634 C   0  0  0  0  0  0
  -25.9829  -30.7576   21.3852 C   0  0  0  0  0  0
  -26.0568  -29.3785   20.7263 C   0  0  0  0  0  0
  -27.2282  -28.5474   20.7319 C   0  0  0  0  0  0
  -26.0327  -26.8582   19.4841 C   0  0  0  0  0  0
  -24.8810  -27.6710   19.4737 C   0  0  0  0  0  0
  -23.6595  -29.8158   20.1553 C   0  0  0  0  0  0
  -25.4122  -36.3086   24.0329 C   0  0  1  0  0  0
  -20.5914  -28.3724   23.1235 C   0  0  2  0  0  0
  -20.6810  -26.9440   22.5390 C   0  0  0  0  0  0
  -19.5779  -26.6374   21.5203 C   0  0  0  0  0  0
  -18.1959  -26.7935   22.1600 C   0  0  0  0  0  0
  -19.1564  -28.8865   23.2852 C   0  0  0  0  0  0
  -18.9482  -30.1459   23.8893 C   0  0  0  0  0  0
  -17.6483  -30.6592   24.0561 C   0  0  0  0  0  0
  -25.9044  -34.9449   23.5103 C   0  0  0  0  0  0
  -16.5376  -29.9082   23.6325 C   0  0  0  0  0  0
  -16.7302  -28.6496   23.0346 C   0  0  0  0  0  0
  -26.4528  -31.6588   25.0734 C   0  0  0  0  0  0
  -25.3735  -31.3731   26.1442 C   0  0  0  0  0  0
  -27.0386  -30.3011   24.6223 C   0  0  0  0  0  0
  -27.6090  -32.4326   25.7498 C   0  0  0  0  0  0
  -27.5594  -37.1799   24.8456 C   0  0  0  0  0  0
  -21.4237  -29.3071   22.3632 N   0  0  0  0  0  0
  -26.4304  -37.3775   23.9397 N   0  0  0  0  0  0
  -24.7033  -31.0472   22.0977 N   0  0  0  0  0  0
  -23.4214  -28.8120   23.3002 O   0  0  0  0  0  0
  -28.3110  -26.3110   20.2320 O   0  0  0  0  0  0
  -26.5615  -34.8921   22.4683 O   0  0  0  0  0  0
  -23.5484  -32.1352   23.7256 O   0  0  0  0  0  0
  -30.6125  -20.2704   20.1167 C   0  0  0  0  0  0
  -31.0151  -18.8791   20.1146 C   0  0  0  0  0  0
  -29.2628  -20.6471   20.3521 C   0  0  0  0  0  0
  -30.0260  -17.8317   20.2653 C   0  0  0  0  0  0
  -33.4620  -19.4575   20.6772 C   0  0  0  0  0  0
  -28.6869  -16.1539   18.9336 C   0  0  0  0  0  0
  -30.9418  -16.4233   18.2918 C   0  0  0  0  0  0
  -32.4902  -18.5647   19.8876 C   0  0  0  0  0  0
  -28.5870  -22.0756   20.0112 C   0  0  0  0  0  0
  -29.0294  -23.5792   20.4779 C   0  0  0  0  0  0
  -28.0524  -24.8260   20.0399 C   0  0  0  0  0  0
  -30.0726  -16.3244   19.5855 C   0  0  0  0  0  0
  -28.4195  -19.6149   20.6715 N   0  0  0  0  0  0
  -28.7819  -18.3006   20.6371 N   0  0  0  0  0  0
  -31.4640  -12.6829   19.1384 H   0  0  0  0  0  0
  -30.4180  -11.6233   20.0460 H   0  0  0  0  0  0
  -29.8218  -11.6267   17.5972 H   0  0  0  0  0  0
  -29.5783  -13.3497   17.6339 H   0  0  0  0  0  0
  -27.9682  -11.1863   19.0320 H   0  0  0  0  0  0
  -27.3684  -12.2982   17.8329 H   0  0  0  0  0  0
  -27.4542  -14.0943   19.3003 H   0  0  0  0  0  0
  -28.7735  -12.4213   21.5063 H   0  0  0  0  0  0
  -28.3786  -14.1221   21.6196 H   0  0  0  0  0  0
  -25.2672   -9.5581   22.4806 H   0  0  0  0  0  0
  -23.9917   -7.4533   22.7478 H   0  0  0  0  0  0
  -21.0778   -8.8673   19.8947 H   0  0  0  0  0  0
  -22.3608  -10.9603   19.6187 H   0  0  0  0  0  0
  -21.1969   -7.6119   23.9680 H   0  0  0  0  0  0
  -21.1501   -6.0536   25.9088 H   0  0  0  0  0  0
  -22.0601   -2.7572   23.2897 H   0  0  0  0  0  0
  -22.3990  -11.9847   22.4838 H   0  0  0  0  0  0
  -21.1012  -13.1226   22.2665 H   0  0  0  0  0  0
  -24.6563  -15.8277   20.5435 H   0  0  0  0  0  0
  -26.2781  -15.6113   20.1203 H   0  0  0  0  0  0
  -26.7250  -32.5445   23.1080 H   0  0  0  0  0  0
  -25.0134  -33.9668   25.0452 H   0  0  0  0  0  0
  -22.7363  -31.3043   21.3944 H   0  0  0  0  0  0
  -23.3777  -35.9610   23.3278 H   0  0  0  0  0  0
  -24.3590  -36.8916   22.2047 H   0  0  0  0  0  0
  -23.7222  -37.6468   23.6686 H   0  0  0  0  0  0
  -26.1242  -31.5165   20.6146 H   0  0  0  0  0  0
  -26.8586  -30.8094   22.0206 H   0  0  0  0  0  0
  -28.1195  -28.8860   21.2394 H   0  0  0  0  0  0
  -25.9565  -25.9062   18.9817 H   0  0  0  0  0  0
  -23.9884  -27.3204   18.9733 H   0  0  0  0  0  0
  -23.8004  -30.5958   19.4055 H   0  0  0  0  0  0
  -22.7758  -29.2574   19.8430 H   0  0  0  0  0  0
  -25.1314  -36.1944   25.0819 H   0  0  0  0  0  0
  -21.0019  -28.3333   24.1341 H   0  0  0  0  0  0
  -20.5720  -26.2352   23.3610 H   0  0  0  0  0  0
  -21.6682  -26.7465   22.1192 H   0  0  0  0  0  0
  -19.6949  -25.6272   21.1264 H   0  0  0  0  0  0
  -19.6716  -27.3162   20.6724 H   0  0  0  0  0  0
  -17.4236  -26.6679   21.4000 H   0  0  0  0  0  0
  -18.0352  -26.0078   22.8995 H   0  0  0  0  0  0
  -19.7968  -30.7252   24.2281 H   0  0  0  0  0  0
  -17.5050  -31.6278   24.5160 H   0  0  0  0  0  0
  -15.5385  -30.2984   23.7644 H   0  0  0  0  0  0
  -15.8701  -28.0815   22.7056 H   0  0  0  0  0  0
  -24.5916  -30.7083   25.7743 H   0  0  0  0  0  0
  -24.8915  -32.2902   26.4872 H   0  0  0  0  0  0
  -25.8015  -30.8892   27.0227 H   0  0  0  0  0  0
  -26.2972  -29.6719   24.1280 H   0  0  0  0  0  0
  -27.4107  -29.7315   25.4745 H   0  0  0  0  0  0
  -27.8855  -30.4286   23.9464 H   0  0  0  0  0  0
  -27.2740  -33.3660   26.2040 H   0  0  0  0  0  0
  -28.3931  -32.6794   25.0329 H   0  0  0  0  0  0
  -28.0752  -31.8456   26.5422 H   0  0  0  0  0  0
  -28.2600  -38.0111   24.7540 H   0  0  0  0  0  0
  -28.1106  -36.2637   24.6279 H   0  0  0  0  0  0
  -27.2312  -37.1440   25.8856 H   0  0  0  0  0  0
  -20.9437  -29.8807   21.6833 H   0  0  0  0  0  0
  -26.0200  -38.2850   24.1412 H   0  0  0  0  0  0
  -31.3191  -21.0478   19.8668 H   0  0  0  0  0  0
  -34.4907  -19.1338   20.5141 H   0  0  0  0  0  0
  -33.2684  -19.3979   21.7483 H   0  0  0  0  0  0
  -33.4107  -20.5037   20.3770 H   0  0  0  0  0  0
  -28.4286  -17.0226   18.3253 H   0  0  0  0  0  0
  -27.9068  -16.0742   19.6865 H   0  0  0  0  0  0
  -28.6552  -15.3192   18.2379 H   0  0  0  0  0  0
  -30.6814  -17.2938   17.6884 H   0  0  0  0  0  0
  -30.8099  -15.5485   17.6545 H   0  0  0  0  0  0
  -32.0127  -16.4605   18.4725 H   0  0  0  0  0  0
  -32.7068  -18.6377   18.8207 H   0  0  0  0  0  0
  -32.6862  -17.5397   20.2000 H   0  0  0  0  0  0
  -27.5432  -21.9713   20.3047 H   0  0  0  0  0  0
  -28.5542  -22.1021   18.9219 H   0  0  0  0  0  0
  -30.0317  -23.7736   20.0964 H   0  0  0  0  0  0
  -29.1229  -23.5851   21.5646 H   0  0  0  0  0  0
  -27.0998  -24.6159   20.5311 H   0  0  0  0  0  0
  -27.8686  -24.6983   18.9730 H   0  0  0  0  0  0
  1 25  1  0  0  0
  1 30  2  0  0  0
  1 82  1  0  0  0
  2  3  1  0  0  0
  2 25  1  0  0  0
  2 85  1  0  0  0
  2 86  1  0  0  0
  3  4  1  0  0  0
  3 87  1  0  0  0
  3 88  1  0  0  0
  4  5  1  0  0  0
  4 89  1  0  0  0
  4 90  1  0  0  0
  5  6  1  0  0  0
  5 26  1  0  0  0
  5 91  1  0  0  0
  6 25  1  0  0  0
  6 92  1  0  0  0
  6 93  1  0  0  0
  7  8  2  0  0  0
  7 26  1  0  0  0
  7 29  1  0  0  0
  8  9  1  0  0  0
  8 22  1  0  0  0
  9 10  1  0  0  0
  9 27  2  0  0  0
 10 11  2  0  0  0
 10 15  1  0  0  0
 11 12  1  0  0  0
 11 94  1  0  0  0
 12 13  2  0  0  0
 12 95  1  0  0  0
 13 14  1  0  0  0
 13 31  1  0  0  0
 14 15  2  0  0  0
 14 96  1  0  0  0
 15 97  1  0  0  0
 16 17  2  0  0  0
 16 21  1  0  0  0
 16 31  1  0  0  0
 17 18  1  0  0  0
 17 98  1  0  0  0
 18 19  2  0  0  0
 18 99  1  0  0  0
 19 20  1  0  0  0
 19 24  1  0  0  0
 20 21  2  0  0  0
 20100  1  0  0  0
 21 23  1  0  0  0
 22 28  1  0  0  0
 22 32  2  0  0  0
 26 27  1  0  0  0
 28101  1  0  0  0
 28102  1  0  0  0
 29103  1  0  0  0
 29104  1  0  0  0
 33 34  1  0  0  0
 33 66  1  0  0  0
 33 70  2  0  0  0
 34 36  1  0  0  0
 34 59  1  0  0  0
 34105  1  0  0  0
 35 44  2  0  0  0
 35 45  1  0  0  0
 35 68  1  0  0  0
 36 56  1  0  0  0
 36106  1  0  0  0
 37 39  1  0  0  0
 37 47  1  0  0  0
 37 66  1  0  0  0
 37107  1  0  0  0
 38 43  2  0  0  0
 38 46  1  0  0  0
 38 47  1  0  0  0
 39 64  1  0  0  0
 39 67  2  0  0  0
 40 52  1  0  0  0
 40 53  2  0  0  0
 40 58  1  0  0  0
 41108  1  0  0  0
 41109  1  0  0  0
 41110  1  0  0  0
 41 48  1  0  0  0
 42 43  1  0  0  0
 42 66  1  0  0  0
 42111  1  0  0  0
 42112  1  0  0  0
 43 44  1  0  0  0
 44113  1  0  0  0
 45 46  2  0  0  0
 45114  1  0  0  0
 46115  1  0  0  0
 47116  1  0  0  0
 47117  1  0  0  0
 48 56  1  0  0  0
 48 65  1  0  0  0
 48118  1  0  0  0
 49 50  1  0  0  0
 49 53  1  0  0  0
 49 64  1  0  0  0
 49119  1  0  0  0
 50 51  1  0  0  0
 50120  1  0  0  0
 50121  1  0  0  0
 51 52  1  0  0  0
 51122  1  0  0  0
 51123  1  0  0  0
 52124  1  0  0  0
 52125  1  0  0  0
 53 54  1  0  0  0
 54 55  2  0  0  0
 54126  1  0  0  0
 55 57  1  0  0  0
 55127  1  0  0  0
 56 69  2  0  0  0
 57 58  2  0  0  0
 57128  1  0  0  0
 58129  1  0  0  0
 59 60  1  0  0  0
 59 61  1  0  0  0
 59 62  1  0  0  0
 60130  1  0  0  0
 60131  1  0  0  0
 60132  1  0  0  0
 61133  1  0  0  0
 61134  1  0  0  0
 61135  1  0  0  0
 62136  1  0  0  0
 62137  1  0  0  0
 62138  1  0  0  0
 63 65  1  0  0  0
 63139  1  0  0  0
 63140  1  0  0  0
 63141  1  0  0  0
 64142  1  0  0  0
 65143  1  0  0  0
 68 81  1  0  0  0
 71 72  2  0  0  0
 71 73  1  0  0  0
 71144  1  0  0  0
 72 74  1  0  0  0
 72 78  1  0  0  0
 73 79  1  0  0  0
 73 83  2  0  0  0
 74 82  1  0  0  0
 74 84  2  0  0  0
 75 78  1  0  0  0
 75145  1  0  0  0
 75146  1  0  0  0
 75147  1  0  0  0
 76148  1  0  0  0
 76149  1  0  0  0
 76150  1  0  0  0
 76 82  1  0  0  0
 77 82  1  0  0  0
 77151  1  0  0  0
 77152  1  0  0  0
 77153  1  0  0  0
 78154  1  0  0  0
 78155  1  0  0  0
 79 80  1  0  0  0
 79156  1  0  0  0
 79157  1  0  0  0
 80 81  1  0  0  0
 80158  1  0  0  0
 80159  1  0  0  0
 81160  1  0  0  0
 81161  1  0  0  0
 83 84  1  0  0  0
M  ISO  4   1 100  68 101  81 101  82 100
M  END
> <chiral flag>
0

> <version>
0

> <s_m_source_file>
/data/baiqing/PycharmProjects/Reinvent-master-3.2/result/LINK_invent/BTK/process_docking_weight1_custom_sum_contain_oxygen_bond_distance_aromatic_linkinvent_7_9_3/rearranged_h_0074.sdf

> <i_m_source_file_index>
88

> <r_mmod_Potential_Energy-OPLS-2005>
595.139709472656

> <r_mmod_Stretch_Energy-OPLS-2005>
186.606140136719

> <r_mmod_Bend_Energy-OPLS-2005>
270.181518554688

> <r_mmod_Torsional_Energy-OPLS-2005>
267.679138183594

> <r_mmod_Improper_Torsional_Energy-OPLS-2005>
22.901330947876

> <r_mmod_Van_der_Waal_Energy-OPLS-2005>
169.134674072266

> <r_mmod_Electrostatic_Energy-OPLS-2005>
-287.558563232422

> <r_mmod_Solvation_Energy-OPLS-2005>
-203.044906616211

> <b_mmod_Minimization_Converged-OPLS-2005>
0

> <r_mmod_RMS_Derivative-OPLS-2005>
2.52129745483398

$$$$
88
                    3D
 Structure written by MMmdl.
167175  0  0  1  0            999 V2000
  -30.6465  -14.6825   20.5251 C   0  0  0  0  0  0
  -30.4275  -12.4273   19.4682 C   0  0  0  0  0  0
  -29.5059  -12.5183   18.2324 C   0  0  0  0  0  0
  -28.0309  -12.3508   18.6428 C   0  0  0  0  0  0
  -27.6473  -13.2319   19.8612 C   0  0  2  0  0  0
  -28.6895  -13.1183   20.9932 C   0  0  0  0  0  0
  -25.2491  -13.8198   20.5688 C   0  0  0  0  0  0
  -24.1787  -13.0439   20.9194 C   0  0  0  0  0  0
  -24.6395  -11.6918   20.8743 C   0  0  0  0  0  0
  -23.9071  -10.4300   21.0399 C   0  0  0  0  0  0
  -24.3613   -9.4215   21.9183 C   0  0  0  0  0  0
  -23.6288   -8.2254   22.0761 C   0  0  0  0  0  0
  -22.4271   -8.0290   21.3548 C   0  0  0  0  0  0
  -21.9909   -9.0264   20.4647 C   0  0  0  0  0  0
  -22.7236  -10.2143   20.3055 C   0  0  0  0  0  0
  -21.6847   -6.0727   22.5271 C   0  0  0  0  0  0
  -21.4025   -6.5628   23.8213 C   0  0  0  0  0  0
  -21.3659   -5.6781   24.9174 C   0  0  0  0  0  0
  -21.6046   -4.3045   24.7221 C   0  0  0  0  0  0
  -21.8827   -3.8136   23.4346 C   0  0  0  0  0  0
  -21.9181   -4.6950   22.3396 C   0  0  0  0  0  0
  -22.7802  -13.5207   21.1844 C   0  0  0  0  0  0
  -22.1648   -4.2135   21.0976 F   0  0  0  0  0  0
  -21.5631   -3.4527   25.7735 F   0  0  0  0  0  0
  -29.9998  -13.4699   20.4301 N   0  0  0  0  0  0
  -26.2955  -12.9418   20.3325 N   0  0  0  0  0  0
  -25.9332  -11.6553   20.5774 N   0  0  0  0  0  0
  -22.0440  -12.8215   22.0409 N   0  0  0  0  0  0
  -25.4134  -15.1926   20.4079 N   0  0  0  0  0  0
  -31.7807  -14.8118   20.0518 O   0  0  0  0  0  0
  -21.6642   -6.8880   21.4237 O   0  0  0  0  0  0
  -22.3479  -14.5500   20.6664 O   0  0  0  0  0  0
  -24.6291  -31.8577   23.2017 C   0  0  0  0  0  0
  -25.9127  -32.4771   23.8352 C   0  0  1  0  0  0
  -27.2112  -27.2761   20.1230 C   0  0  0  0  0  0
  -25.5933  -33.8575   24.2271 N   0  0  0  0  0  0
  -23.4248  -30.4817   21.5454 C   0  0  2  0  0  0
  -24.8714  -28.9338   20.1112 C   0  0  0  0  0  0
  -22.7496  -29.4613   22.4930 C   0  0  0  0  0  0
  -18.0293  -28.1390   22.8490 C   0  0  0  0  0  0
  -24.1496  -36.7292   23.2637 C   0  0  0  0  0  0
  -25.9719  -30.7723   21.3824 C   0  0  0  0  0  0
  -26.0437  -29.3975   20.7230 C   0  0  0  0  0  0
  -27.2194  -28.5810   20.7190 C   0  0  0  0  0  0
  -26.0238  -26.8898   19.4636 C   0  0  0  0  0  0
  -24.8656  -27.6870   19.4702 C   0  0  0  0  0  0
  -23.6419  -29.8183   20.1606 C   0  0  0  0  0  0
  -25.4122  -36.3079   24.0322 C   0  0  1  0  0  0
  -20.5893  -28.3697   23.1278 C   0  0  2  0  0  0
  -20.6782  -26.9418   22.5409 C   0  0  0  0  0  0
  -19.5756  -26.6387   21.5217 C   0  0  0  0  0  0
  -18.1934  -26.7934   22.1627 C   0  0  0  0  0  0
  -19.1544  -28.8863   23.2877 C   0  0  0  0  0  0
  -18.9465  -30.1462   23.8897 C   0  0  0  0  0  0
  -17.6464  -30.6591   24.0562 C   0  0  0  0  0  0
  -25.9058  -34.9448   23.5097 C   0  0  0  0  0  0
  -16.5356  -29.9088   23.6329 C   0  0  0  0  0  0
  -16.7280  -28.6504   23.0357 C   0  0  0  0  0  0
  -26.4497  -31.6592   25.0737 C   0  0  0  0  0  0
  -25.3717  -31.3732   26.1452 C   0  0  0  0  0  0
  -27.0351  -30.3010   24.6230 C   0  0  0  0  0  0
  -27.6059  -32.4333   25.7506 C   0  0  0  0  0  0
  -27.5587  -37.1800   24.8462 C   0  0  0  0  0  0
  -21.4205  -29.3047   22.3672 N   0  0  0  0  0  0
  -26.4300  -37.3773   23.9400 N   0  0  0  0  0  0
  -24.6944  -31.0548   22.0993 N   0  0  0  0  0  0
  -23.4203  -28.8142   23.3015 O   0  0  0  0  0  0
  -28.2953  -26.3734   20.1464 O   0  0  0  0  0  0
  -26.5623  -34.8913   22.4664 O   0  0  0  0  0  0
  -23.5443  -32.1408   23.7314 O   0  0  0  0  0  0
  -28.5843  -22.3475   20.3256 C   0  0  0  0  0  0
  -29.4013  -21.2312   19.8947 C   0  0  0  0  0  0
  -28.9500  -23.7324   20.0925 C   0  0  0  0  0  0
  -30.5925  -21.6026   19.2258 C   0  0  0  0  0  0
  -30.1937  -23.9150   19.4505 C   0  0  0  0  0  0
  -30.7514  -25.2861   19.1224 C   0  0  0  0  0  0
  -31.1911  -20.4937   17.0248 C   0  0  0  0  0  0
  -29.0144  -16.2158   23.3225 C   0  0  0  0  0  0
  -28.9359  -19.7069   19.9220 C   0  0  0  0  0  0
  -28.0079  -24.9445   20.5135 C   0  0  0  0  0  0
  -31.4985  -20.5975   18.5255 C   0  0  0  0  0  0
  -29.6810  -18.5447   20.7580 C   0  0  0  0  0  0
  -30.2791  -16.1004   22.4511 C   0  0  0  0  0  0
  -29.5961  -17.0183   20.2031 C   0  0  0  0  0  0
  -30.9726  -22.8871   19.0456 N   0  0  0  0  0  0
  -29.9778  -15.7897   21.0416 N   0  0  0  0  0  0
  -31.4719  -12.5349   19.1690 H   0  0  0  0  0  0
  -30.3568  -11.4405   19.9271 H   0  0  0  0  0  0
  -29.7795  -11.7563   17.5016 H   0  0  0  0  0  0
  -29.6387  -13.4808   17.7368 H   0  0  0  0  0  0
  -27.8769  -11.2996   18.8872 H   0  0  0  0  0  0
  -27.3788  -12.5677   17.7967 H   0  0  0  0  0  0
  -27.6556  -14.2641   19.5087 H   0  0  0  0  0  0
  -28.7077  -12.1062   21.4016 H   0  0  0  0  0  0
  -28.4212  -13.7700   21.8207 H   0  0  0  0  0  0
  -25.2749   -9.5679   22.4764 H   0  0  0  0  0  0
  -23.9991   -7.4638   22.7482 H   0  0  0  0  0  0
  -21.0846   -8.8781   19.8934 H   0  0  0  0  0  0
  -22.3700  -10.9688   19.6177 H   0  0  0  0  0  0
  -21.2046   -7.6140   23.9719 H   0  0  0  0  0  0
  -21.1467   -6.0513   25.9078 H   0  0  0  0  0  0
  -22.0610   -2.7589   23.2863 H   0  0  0  0  0  0
  -22.4030  -11.9889   22.4847 H   0  0  0  0  0  0
  -21.1057  -13.1248   22.2583 H   0  0  0  0  0  0
  -24.6446  -15.8457   20.5173 H   0  0  0  0  0  0
  -26.2633  -15.6313   20.0783 H   0  0  0  0  0  0
  -26.7194  -32.5415   23.1090 H   0  0  0  0  0  0
  -25.0073  -33.9725   25.0412 H   0  0  0  0  0  0
  -22.7201  -31.3032   21.4014 H   0  0  0  0  0  0
  -23.3763  -35.9618   23.3291 H   0  0  0  0  0  0
  -24.3582  -36.8933   22.2054 H   0  0  0  0  0  0
  -23.7253  -37.6490   23.6676 H   0  0  0  0  0  0
  -26.1125  -31.5350   20.6155 H   0  0  0  0  0  0
  -26.8483  -30.8177   22.0170 H   0  0  0  0  0  0
  -28.1171  -28.9284   21.2102 H   0  0  0  0  0  0
  -25.9704  -25.9511   18.9326 H   0  0  0  0  0  0
  -23.9730  -27.3361   18.9698 H   0  0  0  0  0  0
  -23.7631  -30.5955   19.4059 H   0  0  0  0  0  0
  -22.7609  -29.2496   19.8567 H   0  0  0  0  0  0
  -25.1307  -36.1924   25.0815 H   0  0  0  0  0  0
  -20.9982  -28.3276   24.1403 H   0  0  0  0  0  0
  -20.5703  -26.2306   23.3608 H   0  0  0  0  0  0
  -21.6645  -26.7461   22.1190 H   0  0  0  0  0  0
  -19.6914  -25.6298   21.1253 H   0  0  0  0  0  0
  -19.6689  -27.3191   20.6741 H   0  0  0  0  0  0
  -17.4204  -26.6689   21.4028 H   0  0  0  0  0  0
  -18.0329  -26.0077   22.9025 H   0  0  0  0  0  0
  -19.7938  -30.7280   24.2272 H   0  0  0  0  0  0
  -17.5017  -31.6274   24.5159 H   0  0  0  0  0  0
  -15.5354  -30.2987   23.7662 H   0  0  0  0  0  0
  -15.8680  -28.0822   22.7078 H   0  0  0  0  0  0
  -24.5899  -30.7080   25.7766 H   0  0  0  0  0  0
  -24.8894  -32.2895   26.4869 H   0  0  0  0  0  0
  -25.8024  -30.8911   27.0236 H   0  0  0  0  0  0
  -26.2939  -29.6746   24.1255 H   0  0  0  0  0  0
  -27.4031  -29.7283   25.4753 H   0  0  0  0  0  0
  -27.8815  -30.4286   23.9479 H   0  0  0  0  0  0
  -27.2686  -33.3648   26.2060 H   0  0  0  0  0  0
  -28.3877  -32.6871   25.0335 H   0  0  0  0  0  0
  -28.0716  -31.8472   26.5439 H   0  0  0  0  0  0
  -28.2594  -38.0107   24.7521 H   0  0  0  0  0  0
  -28.1098  -36.2640   24.6283 H   0  0  0  0  0  0
  -27.2296  -37.1434   25.8862 H   0  0  0  0  0  0
  -20.9390  -29.8770   21.6878 H   0  0  0  0  0  0
  -26.0182  -38.2849   24.1395 H   0  0  0  0  0  0
  -27.6334  -22.1402   20.7957 H   0  0  0  0  0  0
  -30.1179  -25.7884   18.3919 H   0  0  0  0  0  0
  -31.7546  -25.2208   18.6993 H   0  0  0  0  0  0
  -30.8125  -25.9024   20.0187 H   0  0  0  0  0  0
  -31.8326  -19.7548   16.5443 H   0  0  0  0  0  0
  -31.3487  -21.4497   16.5240 H   0  0  0  0  0  0
  -30.1556  -20.1993   16.8577 H   0  0  0  0  0  0
  -28.2929  -16.9225   22.9136 H   0  0  0  0  0  0
  -29.2726  -16.5609   24.3241 H   0  0  0  0  0  0
  -28.5067  -15.2595   23.4380 H   0  0  0  0  0  0
  -28.9348  -19.3892   18.8785 H   0  0  0  0  0  0
  -27.8795  -19.6917   20.1953 H   0  0  0  0  0  0
  -27.9565  -24.9208   21.6023 H   0  0  0  0  0  0
  -27.0145  -24.6408   20.1940 H   0  0  0  0  0  0
  -31.4268  -19.6110   18.9722 H   0  0  0  0  0  0
  -32.5361  -20.9025   18.6656 H   0  0  0  0  0  0
  -29.2865  -18.6002   21.7715 H   0  0  0  0  0  0
  -30.7349  -18.7961   20.8660 H   0  0  0  0  0  0
  -30.9204  -15.3344   22.8951 H   0  0  0  0  0  0
  -30.8698  -17.0138   22.5151 H   0  0  0  0  0  0
  -30.1603  -16.9738   19.2692 H   0  0  0  0  0  0
  -28.5614  -16.8433   19.9061 H   0  0  0  0  0  0
  1 25  1  0  0  0
  1 30  2  0  0  0
  1 86  1  0  0  0
  2  3  1  0  0  0
  2 25  1  0  0  0
  2 87  1  0  0  0
  2 88  1  0  0  0
  3  4  1  0  0  0
  3 89  1  0  0  0
  3 90  1  0  0  0
  4  5  1  0  0  0
  4 91  1  0  0  0
  4 92  1  0  0  0
  5  6  1  0  0  0
  5 26  1  0  0  0
  5 93  1  0  0  0
  6 25  1  0  0  0
  6 94  1  0  0  0
  6 95  1  0  0  0
  7  8  2  0  0  0
  7 26  1  0  0  0
  7 29  1  0  0  0
  8  9  1  0  0  0
  8 22  1  0  0  0
  9 10  1  0  0  0
  9 27  2  0  0  0
 10 11  2  0  0  0
 10 15  1  0  0  0
 11 12  1  0  0  0
 11 96  1  0  0  0
 12 13  2  0  0  0
 12 97  1  0  0  0
 13 14  1  0  0  0
 13 31  1  0  0  0
 14 15  2  0  0  0
 14 98  1  0  0  0
 15 99  1  0  0  0
 16 17  2  0  0  0
 16 21  1  0  0  0
 16 31  1  0  0  0
 17 18  1  0  0  0
 17100  1  0  0  0
 18 19  2  0  0  0
 18101  1  0  0  0
 19 20  1  0  0  0
 19 24  1  0  0  0
 20 21  2  0  0  0
 20102  1  0  0  0
 21 23  1  0  0  0
 22 28  1  0  0  0
 22 32  2  0  0  0
 26 27  1  0  0  0
 28103  1  0  0  0
 28104  1  0  0  0
 29105  1  0  0  0
 29106  1  0  0  0
 33 34  1  0  0  0
 33 66  1  0  0  0
 33 70  2  0  0  0
 34 36  1  0  0  0
 34 59  1  0  0  0
 34107  1  0  0  0
 35 44  2  0  0  0
 35 45  1  0  0  0
 35 68  1  0  0  0
 36 56  1  0  0  0
 36108  1  0  0  0
 37 39  1  0  0  0
 37 47  1  0  0  0
 37 66  1  0  0  0
 37109  1  0  0  0
 38 43  2  0  0  0
 38 46  1  0  0  0
 38 47  1  0  0  0
 39 64  1  0  0  0
 39 67  2  0  0  0
 40 52  1  0  0  0
 40 53  2  0  0  0
 40 58  1  0  0  0
 41110  1  0  0  0
 41111  1  0  0  0
 41112  1  0  0  0
 41 48  1  0  0  0
 42 43  1  0  0  0
 42 66  1  0  0  0
 42113  1  0  0  0
 42114  1  0  0  0
 43 44  1  0  0  0
 44115  1  0  0  0
 45 46  2  0  0  0
 45116  1  0  0  0
 46117  1  0  0  0
 47118  1  0  0  0
 47119  1  0  0  0
 48 56  1  0  0  0
 48 65  1  0  0  0
 48120  1  0  0  0
 49 50  1  0  0  0
 49 53  1  0  0  0
 49 64  1  0  0  0
 49121  1  0  0  0
 50 51  1  0  0  0
 50122  1  0  0  0
 50123  1  0  0  0
 51 52  1  0  0  0
 51124  1  0  0  0
 51125  1  0  0  0
 52126  1  0  0  0
 52127  1  0  0  0
 53 54  1  0  0  0
 54 55  2  0  0  0
 54128  1  0  0  0
 55 57  1  0  0  0
 55129  1  0  0  0
 56 69  2  0  0  0
 57 58  2  0  0  0
 57130  1  0  0  0
 58131  1  0  0  0
 59 60  1  0  0  0
 59 61  1  0  0  0
 59 62  1  0  0  0
 60132  1  0  0  0
 60133  1  0  0  0
 60134  1  0  0  0
 61135  1  0  0  0
 61136  1  0  0  0
 61137  1  0  0  0
 62138  1  0  0  0
 62139  1  0  0  0
 62140  1  0  0  0
 63 65  1  0  0  0
 63141  1  0  0  0
 63142  1  0  0  0
 63143  1  0  0  0
 64144  1  0  0  0
 65145  1  0  0  0
 68 80  1  0  0  0
 71 72  2  0  0  0
 71 73  1  0  0  0
 71146  1  0  0  0
 72 74  1  0  0  0
 72 79  1  0  0  0
 73 75  2  0  0  0
 73 80  1  0  0  0
 74 81  1  0  0  0
 74 85  2  0  0  0
 75 76  1  0  0  0
 75 85  1  0  0  0
 76147  1  0  0  0
 76148  1  0  0  0
 76149  1  0  0  0
 77 81  1  0  0  0
 77150  1  0  0  0
 77151  1  0  0  0
 77152  1  0  0  0
 78 83  1  0  0  0
 78153  1  0  0  0
 78154  1  0  0  0
 78155  1  0  0  0
 79 82  1  0  0  0
 79156  1  0  0  0
 79157  1  0  0  0
 80158  1  0  0  0
 80159  1  0  0  0
 81160  1  0  0  0
 81161  1  0  0  0
 82 84  1  0  0  0
 82162  1  0  0  0
 82163  1  0  0  0
 83 86  1  0  0  0
 83164  1  0  0  0
 83165  1  0  0  0
 84 86  1  0  0  0
 84166  1  0  0  0
 84167  1  0  0  0
M  ISO  4   1 100  68 101  80 101  86 100
M  END
> <chiral flag>
0

> <version>
0

> <s_m_source_file>
/data/baiqing/PycharmProjects/Reinvent-master-3.2/result/LINK_invent/BTK/process_docking_weight1_custom_sum_contain_oxygen_bond_distance_aromatic_linkinvent_7_9_3/rearranged_h_0074.sdf

> <i_m_source_file_index>
89

> <r_mmod_Potential_Energy-OPLS-2005>
204.581665039062

> <r_mmod_Stretch_Energy-OPLS-2005>
120.115020751953

> <r_mmod_Bend_Energy-OPLS-2005>
168.307022094727

> <r_mmod_Torsional_Energy-OPLS-2005>
320.519500732422

> <r_mmod_Improper_Torsional_Energy-OPLS-2005>
6.52178812026978

> <r_mmod_Van_der_Waal_Energy-OPLS-2005>
144.188186645508

> <r_mmod_Electrostatic_Energy-OPLS-2005>
-423.978149414062

> <r_mmod_Solvation_Energy-OPLS-2005>
-197.610214233398

> <b_mmod_Minimization_Converged-OPLS-2005>
0

> <r_mmod_RMS_Derivative-OPLS-2005>
1.88015651702881

$$$$
89
                    3D
 Structure written by MMmdl.
174182  0  0  1  0            999 V2000
  -30.7182  -14.4941   20.5316 C   0  0  0  0  0  0
  -30.4148  -12.3073   19.4418 C   0  0  0  0  0  0
  -29.4918  -12.5035   18.2220 C   0  0  0  0  0  0
  -28.0174  -12.3593   18.6387 C   0  0  0  0  0  0
  -27.6629  -13.2165   19.8819 C   0  0  2  0  0  0
  -28.7081  -13.0361   21.0100 C   0  0  0  0  0  0
  -25.2598  -13.8185   20.5719 C   0  0  0  0  0  0
  -24.1840  -13.0433   20.9170 C   0  0  0  0  0  0
  -24.6424  -11.6921   20.8769 C   0  0  0  0  0  0
  -23.9084  -10.4311   21.0434 C   0  0  0  0  0  0
  -24.3630   -9.4212   21.9197 C   0  0  0  0  0  0
  -23.6298   -8.2252   22.0769 C   0  0  0  0  0  0
  -22.4285   -8.0299   21.3550 C   0  0  0  0  0  0
  -21.9927   -9.0283   20.4653 C   0  0  0  0  0  0
  -22.7267  -10.2157   20.3066 C   0  0  0  0  0  0
  -21.6849   -6.0741   22.5276 C   0  0  0  0  0  0
  -21.4009   -6.5641   23.8208 C   0  0  0  0  0  0
  -21.3661   -5.6796   24.9176 C   0  0  0  0  0  0
  -21.6053   -4.3056   24.7227 C   0  0  0  0  0  0
  -21.8801   -3.8142   23.4347 C   0  0  0  0  0  0
  -21.9192   -4.6967   22.3404 C   0  0  0  0  0  0
  -22.7870  -13.5244   21.1813 C   0  0  0  0  0  0
  -22.1652   -4.2157   21.0979 F   0  0  0  0  0  0
  -21.5662   -3.4528   25.7731 F   0  0  0  0  0  0
  -30.0377  -13.3175   20.4480 N   0  0  0  0  0  0
  -26.3046  -12.9370   20.3437 N   0  0  0  0  0  0
  -25.9365  -11.6522   20.5842 N   0  0  0  0  0  0
  -22.0505  -12.8265   22.0386 N   0  0  0  0  0  0
  -25.4300  -15.1893   20.4147 N   0  0  0  0  0  0
  -31.8572  -14.6279   20.0759 O   0  0  0  0  0  0
  -21.6641   -6.8899   21.4241 O   0  0  0  0  0  0
  -22.3554  -14.5536   20.6652 O   0  0  0  0  0  0
  -24.6204  -31.8652   23.2068 C   0  0  0  0  0  0
  -25.9059  -32.4817   23.8382 C   0  0  1  0  0  0
  -27.2474  -27.3955   20.1064 C   0  0  0  0  0  0
  -25.5878  -33.8614   24.2321 N   0  0  0  0  0  0
  -23.4092  -30.4879   21.5482 C   0  0  2  0  0  0
  -24.8557  -28.9439   20.1172 C   0  0  0  0  0  0
  -22.7424  -29.4650   22.4976 C   0  0  0  0  0  0
  -18.0274  -28.1376   22.8479 C   0  0  0  0  0  0
  -24.1476  -36.7313   23.2653 C   0  0  0  0  0  0
  -25.9415  -30.8173   21.3616 C   0  0  0  0  0  0
  -26.0170  -29.4477   20.7143 C   0  0  0  0  0  0
  -27.2099  -28.6835   20.7020 C   0  0  0  0  0  0
  -26.0589  -26.9166   19.5031 C   0  0  0  0  0  0
  -24.8737  -27.6781   19.5084 C   0  0  0  0  0  0
  -23.6214  -29.8192   20.1625 C   0  0  0  0  0  0
  -25.4093  -36.3122   24.0358 C   0  0  1  0  0  0
  -20.5873  -28.3656   23.1299 C   0  0  2  0  0  0
  -20.6769  -26.9385   22.5412 C   0  0  0  0  0  0
  -19.5755  -26.6378   21.5205 C   0  0  0  0  0  0
  -18.1922  -26.7914   22.1615 C   0  0  0  0  0  0
  -19.1527  -28.8834   23.2884 C   0  0  0  0  0  0
  -18.9477  -30.1431   23.8894 C   0  0  0  0  0  0
  -17.6485  -30.6595   24.0560 C   0  0  0  0  0  0
  -25.9029  -34.9482   23.5147 C   0  0  0  0  0  0
  -16.5357  -29.9096   23.6334 C   0  0  0  0  0  0
  -16.7263  -28.6513   23.0345 C   0  0  0  0  0  0
  -26.4431  -31.6616   25.0739 C   0  0  0  0  0  0
  -25.3681  -31.3732   26.1482 C   0  0  0  0  0  0
  -27.0263  -30.3078   24.6103 C   0  0  0  0  0  0
  -27.6024  -32.4330   25.7468 C   0  0  0  0  0  0
  -27.5571  -37.1812   24.8475 C   0  0  0  0  0  0
  -21.4150  -29.3015   22.3696 N   0  0  0  0  0  0
  -26.4283  -37.3809   23.9428 N   0  0  0  0  0  0
  -24.6751  -31.0731   22.0963 N   0  0  0  0  0  0
  -23.4184  -28.8174   23.3028 O   0  0  0  0  0  0
  -28.4468  -26.6928   20.1269 O   0  0  0  0  0  0
  -26.5627  -34.8937   22.4729 O   0  0  0  0  0  0
  -23.5395  -32.1394   23.7461 O   0  0  0  0  0  0
  -28.7159  -22.8908   20.9170 C   0  0  0  0  0  0
  -27.5594  -22.0395   20.8397 C   0  0  0  0  0  0
  -29.7668  -22.0009   20.7813 C   0  0  0  0  0  0
  -31.2433  -22.2489   20.7900 C   0  0  0  0  0  0
  -25.7061  -23.6912   21.5070 C   0  0  0  0  0  0
  -25.4080  -21.2750   21.8942 C   0  0  0  0  0  0
  -25.4370  -22.1957   19.5311 C   0  0  0  0  0  0
  -28.3159  -17.9464   21.6338 C   0  0  0  0  0  0
  -30.6651  -18.3362   22.3830 C   0  0  0  0  0  0
  -28.7848  -24.4140   21.1291 C   0  0  0  0  0  0
  -29.9069  -19.4488   20.2167 C   0  0  0  0  0  0
  -30.2499  -16.9274   20.3296 C   0  0  0  0  0  0
  -28.5349  -25.2704   19.8521 C   0  0  0  0  0  0
  -26.0542  -22.3059   20.9382 C   0  0  0  0  0  0
  -29.7628  -18.1731   21.1475 C   0  0  0  0  0  0
  -27.9073  -20.7904   20.5547 N   0  0  0  0  0  0
  -29.2482  -20.7230   20.5871 N   0  0  0  0  0  0
  -30.0045  -15.5800   20.9018 N   0  0  0  0  0  0
  -31.4612  -12.3733   19.1386 H   0  0  0  0  0  0
  -30.2918  -11.3033   19.8517 H   0  0  0  0  0  0
  -29.7308  -11.7748   17.4468 H   0  0  0  0  0  0
  -29.6533  -13.4887   17.7832 H   0  0  0  0  0  0
  -27.8415  -11.3054   18.8588 H   0  0  0  0  0  0
  -27.3598  -12.6106   17.8067 H   0  0  0  0  0  0
  -27.6998  -14.2589   19.5612 H   0  0  0  0  0  0
  -28.6848  -12.0146   21.3940 H   0  0  0  0  0  0
  -28.4815  -13.6806   21.8613 H   0  0  0  0  0  0
  -25.2767   -9.5660   22.4790 H   0  0  0  0  0  0
  -23.9997   -7.4644   22.7503 H   0  0  0  0  0  0
  -21.0847   -8.8797   19.8983 H   0  0  0  0  0  0
  -22.3713  -10.9701   19.6187 H   0  0  0  0  0  0
  -21.1980   -7.6144   23.9706 H   0  0  0  0  0  0
  -21.1512   -6.0538   25.9078 H   0  0  0  0  0  0
  -22.0579   -2.7605   23.2852 H   0  0  0  0  0  0
  -22.4112  -11.9929   22.4782 H   0  0  0  0  0  0
  -21.1138  -13.1335   22.2598 H   0  0  0  0  0  0
  -24.6648  -15.8440   20.5387 H   0  0  0  0  0  0
  -26.2905  -15.6332   20.1215 H   0  0  0  0  0  0
  -26.7123  -32.5513   23.1131 H   0  0  0  0  0  0
  -24.9967  -33.9741   25.0427 H   0  0  0  0  0  0
  -22.7001  -31.3066   21.4081 H   0  0  0  0  0  0
  -23.3738  -35.9645   23.3328 H   0  0  0  0  0  0
  -24.3572  -36.8923   22.2068 H   0  0  0  0  0  0
  -23.7197  -37.6517   23.6643 H   0  0  0  0  0  0
  -26.0577  -31.5740   20.5853 H   0  0  0  0  0  0
  -26.8281  -30.8755   21.9802 H   0  0  0  0  0  0
  -28.1051  -29.0751   21.1644 H   0  0  0  0  0  0
  -26.0065  -25.9588   19.0107 H   0  0  0  0  0  0
  -23.9831  -27.2751   19.0438 H   0  0  0  0  0  0
  -23.7344  -30.5935   19.4015 H   0  0  0  0  0  0
  -22.7444  -29.2402   19.8693 H   0  0  0  0  0  0
  -25.1268  -36.2009   25.0854 H   0  0  0  0  0  0
  -20.9957  -28.3214   24.1427 H   0  0  0  0  0  0
  -20.5683  -26.2239   23.3595 H   0  0  0  0  0  0
  -21.6634  -26.7426   22.1196 H   0  0  0  0  0  0
  -19.6902  -25.6284   21.1238 H   0  0  0  0  0  0
  -19.6713  -27.3189   20.6739 H   0  0  0  0  0  0
  -17.4193  -26.6669   21.4010 H   0  0  0  0  0  0
  -18.0308  -26.0069   22.9027 H   0  0  0  0  0  0
  -19.7953  -30.7236   24.2272 H   0  0  0  0  0  0
  -17.5050  -31.6280   24.5133 H   0  0  0  0  0  0
  -15.5356  -30.3016   23.7663 H   0  0  0  0  0  0
  -15.8648  -28.0848   22.7051 H   0  0  0  0  0  0
  -24.5868  -30.7069   25.7789 H   0  0  0  0  0  0
  -24.8853  -32.2896   26.4925 H   0  0  0  0  0  0
  -25.8035  -30.8902   27.0240 H   0  0  0  0  0  0
  -26.2826  -29.6858   24.1135 H   0  0  0  0  0  0
  -27.4024  -29.7299   25.4540 H   0  0  0  0  0  0
  -27.8628  -30.4435   23.9247 H   0  0  0  0  0  0
  -27.2688  -33.3637   26.2045 H   0  0  0  0  0  0
  -28.3791  -32.6884   25.0244 H   0  0  0  0  0  0
  -28.0707  -31.8450   26.5377 H   0  0  0  0  0  0
  -28.2607  -38.0085   24.7532 H   0  0  0  0  0  0
  -28.1038  -36.2638   24.6285 H   0  0  0  0  0  0
  -27.2310  -37.1460   25.8879 H   0  0  0  0  0  0
  -20.9330  -29.8797   21.6948 H   0  0  0  0  0  0
  -26.0184  -38.2897   24.1435 H   0  0  0  0  0  0
  -31.4726  -23.3078   20.8842 H   0  0  0  0  0  0
  -31.7084  -21.9036   19.8682 H   0  0  0  0  0  0
  -31.7194  -21.7238   21.6191 H   0  0  0  0  0  0
  -26.1288  -23.8346   22.5016 H   0  0  0  0  0  0
  -24.6286  -23.8157   21.5999 H   0  0  0  0  0  0
  -26.0459  -24.4941   20.8586 H   0  0  0  0  0  0
  -25.8635  -21.3200   22.8854 H   0  0  0  0  0  0
  -25.5256  -20.2523   21.5316 H   0  0  0  0  0  0
  -24.3375  -21.4467   22.0146 H   0  0  0  0  0  0
  -25.8839  -22.9268   18.8560 H   0  0  0  0  0  0
  -24.3617  -22.3712   19.5479 H   0  0  0  0  0  0
  -25.6022  -21.2108   19.0934 H   0  0  0  0  0  0
  -27.9721  -18.7720   22.2564 H   0  0  0  0  0  0
  -28.2141  -17.0435   22.2365 H   0  0  0  0  0  0
  -27.6306  -17.8651   20.7926 H   0  0  0  0  0  0
  -30.3940  -19.2230   22.9573 H   0  0  0  0  0  0
  -31.7121  -18.4416   22.0922 H   0  0  0  0  0  0
  -30.6063  -17.4760   23.0505 H   0  0  0  0  0  0
  -28.0944  -24.7294   21.9056 H   0  0  0  0  0  0
  -29.7590  -24.6966   21.5294 H   0  0  0  0  0  0
  -29.5132  -19.1989   19.2286 H   0  0  0  0  0  0
  -30.9647  -19.6478   20.0442 H   0  0  0  0  0  0
  -31.3108  -17.0539   20.0992 H   0  0  0  0  0  0
  -29.7520  -16.9277   19.3586 H   0  0  0  0  0  0
  -29.3876  -25.1324   19.1858 H   0  0  0  0  0  0
  -27.6947  -24.8736   19.2937 H   0  0  0  0  0  0
  -29.1007  -15.4127   21.3141 H   0  0  0  0  0  0
  1 25  1  0  0  0
  1 30  2  0  0  0
  1 88  1  0  0  0
  2  3  1  0  0  0
  2 25  1  0  0  0
  2 89  1  0  0  0
  2 90  1  0  0  0
  3  4  1  0  0  0
  3 91  1  0  0  0
  3 92  1  0  0  0
  4  5  1  0  0  0
  4 93  1  0  0  0
  4 94  1  0  0  0
  5  6  1  0  0  0
  5 26  1  0  0  0
  5 95  1  0  0  0
  6 25  1  0  0  0
  6 96  1  0  0  0
  6 97  1  0  0  0
  7  8  2  0  0  0
  7 26  1  0  0  0
  7 29  1  0  0  0
  8  9  1  0  0  0
  8 22  1  0  0  0
  9 10  1  0  0  0
  9 27  2  0  0  0
 10 11  2  0  0  0
 10 15  1  0  0  0
 11 12  1  0  0  0
 11 98  1  0  0  0
 12 13  2  0  0  0
 12 99  1  0  0  0
 13 14  1  0  0  0
 13 31  1  0  0  0
 14 15  2  0  0  0
 14100  1  0  0  0
 15101  1  0  0  0
 16 17  2  0  0  0
 16 21  1  0  0  0
 16 31  1  0  0  0
 17 18  1  0  0  0
 17102  1  0  0  0
 18 19  2  0  0  0
 18103  1  0  0  0
 19 20  1  0  0  0
 19 24  1  0  0  0
 20 21  2  0  0  0
 20104  1  0  0  0
 21 23  1  0  0  0
 22 28  1  0  0  0
 22 32  2  0  0  0
 26 27  1  0  0  0
 28105  1  0  0  0
 28106  1  0  0  0
 29107  1  0  0  0
 29108  1  0  0  0
 33 34  1  0  0  0
 33 66  1  0  0  0
 33 70  2  0  0  0
 34 36  1  0  0  0
 34 59  1  0  0  0
 34109  1  0  0  0
 35 44  2  0  0  0
 35 45  1  0  0  0
 35 68  1  0  0  0
 36 56  1  0  0  0
 36110  1  0  0  0
 37 39  1  0  0  0
 37 47  1  0  0  0
 37 66  1  0  0  0
 37111  1  0  0  0
 38 43  2  0  0  0
 38 46  1  0  0  0
 38 47  1  0  0  0
 39 64  1  0  0  0
 39 67  2  0  0  0
 40 52  1  0  0  0
 40 53  2  0  0  0
 40 58  1  0  0  0
 41112  1  0  0  0
 41113  1  0  0  0
 41114  1  0  0  0
 41 48  1  0  0  0
 42 43  1  0  0  0
 42 66  1  0  0  0
 42115  1  0  0  0
 42116  1  0  0  0
 43 44  1  0  0  0
 44117  1  0  0  0
 45 46  2  0  0  0
 45118  1  0  0  0
 46119  1  0  0  0
 47120  1  0  0  0
 47121  1  0  0  0
 48 56  1  0  0  0
 48 65  1  0  0  0
 48122  1  0  0  0
 49 50  1  0  0  0
 49 53  1  0  0  0
 49 64  1  0  0  0
 49123  1  0  0  0
 50 51  1  0  0  0
 50124  1  0  0  0
 50125  1  0  0  0
 51 52  1  0  0  0
 51126  1  0  0  0
 51127  1  0  0  0
 52128  1  0  0  0
 52129  1  0  0  0
 53 54  1  0  0  0
 54 55  2  0  0  0
 54130  1  0  0  0
 55 57  1  0  0  0
 55131  1  0  0  0
 56 69  2  0  0  0
 57 58  2  0  0  0
 57132  1  0  0  0
 58133  1  0  0  0
 59 60  1  0  0  0
 59 61  1  0  0  0
 59 62  1  0  0  0
 60134  1  0  0  0
 60135  1  0  0  0
 60136  1  0  0  0
 61137  1  0  0  0
 61138  1  0  0  0
 61139  1  0  0  0
 62140  1  0  0  0
 62141  1  0  0  0
 62142  1  0  0  0
 63 65  1  0  0  0
 63143  1  0  0  0
 63144  1  0  0  0
 63145  1  0  0  0
 64146  1  0  0  0
 65147  1  0  0  0
 68 83  1  0  0  0
 71 72  1  0  0  0
 71 73  2  0  0  0
 71 80  1  0  0  0
 72 84  1  0  0  0
 72 86  2  0  0  0
 73 74  1  0  0  0
 73 87  1  0  0  0
 74148  1  0  0  0
 74149  1  0  0  0
 74150  1  0  0  0
 75151  1  0  0  0
 75152  1  0  0  0
 75153  1  0  0  0
 75 84  1  0  0  0
 76 84  1  0  0  0
 76154  1  0  0  0
 76155  1  0  0  0
 76156  1  0  0  0
 77 84  1  0  0  0
 77157  1  0  0  0
 77158  1  0  0  0
 77159  1  0  0  0
 78160  1  0  0  0
 78161  1  0  0  0
 78162  1  0  0  0
 78 85  1  0  0  0
 79 85  1  0  0  0
 79163  1  0  0  0
 79164  1  0  0  0
 79165  1  0  0  0
 80 83  1  0  0  0
 80166  1  0  0  0
 80167  1  0  0  0
 81 85  1  0  0  0
 81 87  1  0  0  0
 81168  1  0  0  0
 81169  1  0  0  0
 82 85  1  0  0  0
 82 88  1  0  0  0
 82170  1  0  0  0
 82171  1  0  0  0
 83172  1  0  0  0
 83173  1  0  0  0
 86 87  1  0  0  0
 88174  1  0  0  0
M  ISO  4   1 100  68 101  83 101  88 100
M  END
> <chiral flag>
0

> <version>
0

> <s_m_source_file>
/data/baiqing/PycharmProjects/Reinvent-master-3.2/result/LINK_invent/BTK/process_docking_weight1_custom_sum_contain_oxygen_bond_distance_aromatic_linkinvent_7_9_3/rearranged_h_0074.sdf

> <i_m_source_file_index>
90

> <r_mmod_Potential_Energy-OPLS-2005>
-110.696723937988

> <r_mmod_Stretch_Energy-OPLS-2005>
50.8571929931641

> <r_mmod_Bend_Energy-OPLS-2005>
137.887710571289

> <r_mmod_Torsional_Energy-OPLS-2005>
216.639099121094

> <r_mmod_Improper_Torsional_Energy-OPLS-2005>
7.92274713516235

> <r_mmod_Van_der_Waal_Energy-OPLS-2005>
126.20580291748

> <r_mmod_Electrostatic_Energy-OPLS-2005>
-473.716674804688

> <r_mmod_Solvation_Energy-OPLS-2005>
-194.695678710938

> <b_mmod_Minimization_Converged-OPLS-2005>
0

> <r_mmod_RMS_Derivative-OPLS-2005>
3.77768206596375

$$$$
90
                    3D
 Structure written by MMmdl.
173181  0  0  1  0            999 V2000
  -30.6602  -14.6595   20.6104 C   0  0  0  0  0  0
  -30.4437  -12.4356   19.4602 C   0  0  0  0  0  0
  -29.5152  -12.5540   18.2306 C   0  0  0  0  0  0
  -28.0358  -12.3776   18.6331 C   0  0  0  0  0  0
  -27.6572  -13.2225   19.8779 C   0  0  2  0  0  0
  -28.7035  -13.0057   20.9912 C   0  0  0  0  0  0
  -25.2545  -13.8176   20.5669 C   0  0  0  0  0  0
  -24.1802  -13.0417   20.9178 C   0  0  0  0  0  0
  -24.6375  -11.6904   20.8722 C   0  0  0  0  0  0
  -23.9015  -10.4293   21.0348 C   0  0  0  0  0  0
  -24.3580   -9.4211   21.9113 C   0  0  0  0  0  0
  -23.6241   -8.2263   22.0738 C   0  0  0  0  0  0
  -22.4237   -8.0291   21.3537 C   0  0  0  0  0  0
  -21.9858   -9.0241   20.4632 C   0  0  0  0  0  0
  -22.7181  -10.2118   20.2997 C   0  0  0  0  0  0
  -21.6836   -6.0735   22.5293 C   0  0  0  0  0  0
  -21.4026   -6.5641   23.8225 C   0  0  0  0  0  0
  -21.3654   -5.6791   24.9182 C   0  0  0  0  0  0
  -21.6031   -4.3056   24.7240 C   0  0  0  0  0  0
  -21.8804   -3.8140   23.4368 C   0  0  0  0  0  0
  -21.9181   -4.6961   22.3418 C   0  0  0  0  0  0
  -22.7831  -13.5219   21.1854 C   0  0  0  0  0  0
  -22.1649   -4.2151   21.0994 F   0  0  0  0  0  0
  -21.5587   -3.4539   25.7747 F   0  0  0  0  0  0
  -30.0053  -13.4448   20.4657 N   0  0  0  0  0  0
  -26.3002  -12.9367   20.3354 N   0  0  0  0  0  0
  -25.9320  -11.6518   20.5731 N   0  0  0  0  0  0
  -22.0473  -12.8219   22.0443 N   0  0  0  0  0  0
  -25.4227  -15.1883   20.4063 N   0  0  0  0  0  0
  -31.7797  -14.7488   20.0894 O   0  0  0  0  0  0
  -21.6616   -6.8887   21.4257 O   0  0  0  0  0  0
  -22.3476  -14.5498   20.6688 O   0  0  0  0  0  0
  -24.6284  -31.8611   23.2041 C   0  0  0  0  0  0
  -25.9120  -32.4788   23.8377 C   0  0  1  0  0  0
  -27.2184  -27.2838   20.1167 C   0  0  0  0  0  0
  -25.5926  -33.8589   24.2282 N   0  0  0  0  0  0
  -23.4198  -30.4814   21.5522 C   0  0  2  0  0  0
  -24.8675  -28.9360   20.1115 C   0  0  0  0  0  0
  -22.7468  -29.4596   22.4992 C   0  0  0  0  0  0
  -18.0245  -28.1412   22.8452 C   0  0  0  0  0  0
  -24.1481  -36.7279   23.2636 C   0  0  0  0  0  0
  -25.9667  -30.7692   21.3883 C   0  0  0  0  0  0
  -26.0373  -29.3970   20.7275 C   0  0  0  0  0  0
  -27.2096  -28.5792   20.7304 C   0  0  0  0  0  0
  -26.0314  -26.9014   19.4445 C   0  0  0  0  0  0
  -24.8689  -27.6926   19.4638 C   0  0  0  0  0  0
  -23.6355  -29.8202   20.1666 C   0  0  0  0  0  0
  -25.4118  -36.3103   24.0328 C   0  0  1  0  0  0
  -20.5842  -28.3714   23.1291 C   0  0  2  0  0  0
  -20.6771  -26.9454   22.5411 C   0  0  0  0  0  0
  -19.5760  -26.6405   21.5210 C   0  0  0  0  0  0
  -18.1927  -26.7942   22.1610 C   0  0  0  0  0  0
  -19.1508  -28.8879   23.2851 C   0  0  0  0  0  0
  -18.9456  -30.1469   23.8884 C   0  0  0  0  0  0
  -17.6466  -30.6628   24.0559 C   0  0  0  0  0  0
  -25.9050  -34.9466   23.5115 C   0  0  0  0  0  0
  -16.5335  -29.9129   23.6356 C   0  0  0  0  0  0
  -16.7234  -28.6546   23.0362 C   0  0  0  0  0  0
  -26.4494  -31.6584   25.0741 C   0  0  0  0  0  0
  -25.3680  -31.3747   26.1438 C   0  0  0  0  0  0
  -27.0309  -30.2988   24.6202 C   0  0  0  0  0  0
  -27.6044  -32.4331   25.7486 C   0  0  0  0  0  0
  -27.5587  -37.1795   24.8475 C   0  0  0  0  0  0
  -21.4195  -29.3030   22.3706 N   0  0  0  0  0  0
  -26.4296  -37.3800   23.9417 N   0  0  0  0  0  0
  -24.6904  -31.0539   22.1052 N   0  0  0  0  0  0
  -23.4173  -28.8157   23.3108 O   0  0  0  0  0  0
  -28.3272  -26.4120   20.2077 O   0  0  0  0  0  0
  -26.5645  -34.8934   22.4678 O   0  0  0  0  0  0
  -23.5446  -32.1447   23.7346 O   0  0  0  0  0  0
  -29.6502  -17.1461   19.0482 C   0  0  0  0  0  0
  -29.8963  -17.2780   20.4178 C   0  0  0  0  0  0
  -29.3842  -18.2967   18.2893 C   0  0  0  0  0  0
  -29.5673  -19.6246   20.1675 C   0  0  0  0  0  0
  -26.9509  -19.6118   16.7143 C   0  0  0  0  0  0
  -31.2723  -16.3881   22.3435 C   0  0  0  0  0  0
  -28.8673  -15.8621   22.2126 C   0  0  0  0  0  0
  -28.3779  -16.8944   16.4238 C   0  0  0  0  0  0
  -30.5379  -18.1137   16.0813 C   0  0  0  0  0  0
  -29.5063  -21.0714   20.8006 C   0  0  0  0  0  0
  -28.3795  -19.4072   16.1822 C   0  0  0  0  0  0
  -28.9455  -22.3255   19.9684 C   0  0  0  0  0  0
  -28.9385  -23.7978   20.6215 C   0  0  0  0  0  0
  -28.2359  -24.9764   19.7933 C   0  0  0  0  0  0
  -30.1393  -16.0152   21.3540 C   0  0  0  0  0  0
  -29.1607  -18.1895   16.7672 C   0  0  0  0  0  0
  -29.8073  -18.5488   20.9577 N   0  0  0  0  0  0
  -29.4152  -19.5274   18.8513 N   0  0  0  0  0  0
  -31.4809  -12.5601   19.1500 H   0  0  0  0  0  0
  -30.3947  -11.4281   19.8773 H   0  0  0  0  0  0
  -29.7895  -11.8152   17.4780 H   0  0  0  0  0  0
  -29.6568  -13.5300   17.7642 H   0  0  0  0  0  0
  -27.8721  -11.3210   18.8442 H   0  0  0  0  0  0
  -27.3803  -12.6294   17.8017 H   0  0  0  0  0  0
  -27.6858  -14.2687   19.5685 H   0  0  0  0  0  0
  -28.7508  -11.9443   21.2373 H   0  0  0  0  0  0
  -28.4199  -13.4531   21.9327 H   0  0  0  0  0  0
  -25.2735   -9.5696   22.4670 H   0  0  0  0  0  0
  -23.9938   -7.4680   22.7486 H   0  0  0  0  0  0
  -21.0774   -8.8718   19.8971 H   0  0  0  0  0  0
  -22.3581  -10.9628   19.6113 H   0  0  0  0  0  0
  -21.2049   -7.6156   23.9737 H   0  0  0  0  0  0
  -21.1476   -6.0524   25.9081 H   0  0  0  0  0  0
  -22.0591   -2.7613   23.2862 H   0  0  0  0  0  0
  -22.4012  -11.9863   22.4843 H   0  0  0  0  0  0
  -21.1115  -13.1314   22.2637 H   0  0  0  0  0  0
  -24.6620  -15.8480   20.5189 H   0  0  0  0  0  0
  -26.2748  -15.6308   20.0861 H   0  0  0  0  0  0
  -26.7146  -32.5455   23.1084 H   0  0  0  0  0  0
  -25.0043  -33.9706   25.0418 H   0  0  0  0  0  0
  -22.7136  -31.3026   21.4131 H   0  0  0  0  0  0
  -23.3781  -35.9574   23.3323 H   0  0  0  0  0  0
  -24.3563  -36.8888   22.2048 H   0  0  0  0  0  0
  -23.7192  -37.6460   23.6642 H   0  0  0  0  0  0
  -26.1026  -31.5303   20.6200 H   0  0  0  0  0  0
  -26.8450  -30.8081   22.0203 H   0  0  0  0  0  0
  -28.0994  -28.9218   21.2417 H   0  0  0  0  0  0
  -25.9534  -25.9782   18.8928 H   0  0  0  0  0  0
  -23.9778  -27.3390   18.9658 H   0  0  0  0  0  0
  -23.7599  -30.6042   19.4206 H   0  0  0  0  0  0
  -22.7514  -29.2595   19.8584 H   0  0  0  0  0  0
  -25.1303  -36.1964   25.0822 H   0  0  0  0  0  0
  -20.9834  -28.3294   24.1447 H   0  0  0  0  0  0
  -20.5744  -26.2316   23.3599 H   0  0  0  0  0  0
  -21.6656  -26.7586   22.1177 H   0  0  0  0  0  0
  -19.6980  -25.6323   21.1250 H   0  0  0  0  0  0
  -19.6724  -27.3212   20.6742 H   0  0  0  0  0  0
  -17.4202  -26.6634   21.3998 H   0  0  0  0  0  0
  -18.0387  -26.0101   22.9045 H   0  0  0  0  0  0
  -19.7933  -30.7279   24.2273 H   0  0  0  0  0  0
  -17.5036  -31.6314   24.5174 H   0  0  0  0  0  0
  -15.5354  -30.3064   23.7713 H   0  0  0  0  0  0
  -15.8602  -28.0886   22.7114 H   0  0  0  0  0  0
  -24.5870  -30.7084   25.7774 H   0  0  0  0  0  0
  -24.8842  -32.2914   26.4819 H   0  0  0  0  0  0
  -25.7962  -30.8965   27.0249 H   0  0  0  0  0  0
  -26.2882  -29.6767   24.1187 H   0  0  0  0  0  0
  -27.3940  -29.7235   25.4733 H   0  0  0  0  0  0
  -27.8813  -30.4284   23.9493 H   0  0  0  0  0  0
  -27.2659  -33.3663   26.2004 H   0  0  0  0  0  0
  -28.3860  -32.6828   25.0293 H   0  0  0  0  0  0
  -28.0688  -31.8489   26.5440 H   0  0  0  0  0  0
  -28.2623  -38.0078   24.7566 H   0  0  0  0  0  0
  -28.1061  -36.2615   24.6280 H   0  0  0  0  0  0
  -27.2302  -37.1458   25.8873 H   0  0  0  0  0  0
  -20.9442  -29.8666   21.6808 H   0  0  0  0  0  0
  -26.0201  -38.2875   24.1423 H   0  0  0  0  0  0
  -29.6891  -16.1727   18.5849 H   0  0  0  0  0  0
  -26.3117  -18.7726   16.4481 H   0  0  0  0  0  0
  -26.5009  -20.5149   16.3008 H   0  0  0  0  0  0
  -26.9443  -19.7016   17.8013 H   0  0  0  0  0  0
  -31.0007  -17.2560   22.9497 H   0  0  0  0  0  0
  -32.1932  -16.6331   21.8174 H   0  0  0  0  0  0
  -31.4888  -15.5726   23.0349 H   0  0  0  0  0  0
  -28.5957  -16.8124   22.6787 H   0  0  0  0  0  0
  -29.0094  -15.1626   23.0344 H   0  0  0  0  0  0
  -28.0073  -15.5686   21.6127 H   0  0  0  0  0  0
  -28.9680  -15.9929   16.5825 H   0  0  0  0  0  0
  -28.0672  -16.8762   15.3811 H   0  0  0  0  0  0
  -27.4824  -16.7891   17.0377 H   0  0  0  0  0  0
  -31.1178  -17.2608   16.4409 H   0  0  0  0  0  0
  -31.1230  -19.0152   16.2670 H   0  0  0  0  0  0
  -30.4383  -18.0044   15.0034 H   0  0  0  0  0  0
  -30.5076  -21.2982   21.1618 H   0  0  0  0  0  0
  -28.8984  -20.9785   21.6980 H   0  0  0  0  0  0
  -28.9523  -20.3147   16.3695 H   0  0  0  0  0  0
  -28.3368  -19.3202   15.0957 H   0  0  0  0  0  0
  -29.5180  -22.3868   19.0407 H   0  0  0  0  0  0
  -27.9248  -22.0907   19.6598 H   0  0  0  0  0  0
  -28.4431  -23.7393   21.5905 H   0  0  0  0  0  0
  -29.9682  -24.0812   20.8488 H   0  0  0  0  0  0
  -28.6300  -24.9347   18.7775 H   0  0  0  0  0  0
  -27.2041  -24.6430   19.7375 H   0  0  0  0  0  0
  1 25  1  0  0  0
  1 30  2  0  0  0
  1 85  1  0  0  0
  2  3  1  0  0  0
  2 25  1  0  0  0
  2 89  1  0  0  0
  2 90  1  0  0  0
  3  4  1  0  0  0
  3 91  1  0  0  0
  3 92  1  0  0  0
  4  5  1  0  0  0
  4 93  1  0  0  0
  4 94  1  0  0  0
  5  6  1  0  0  0
  5 26  1  0  0  0
  5 95  1  0  0  0
  6 25  1  0  0  0
  6 96  1  0  0  0
  6 97  1  0  0  0
  7  8  2  0  0  0
  7 26  1  0  0  0
  7 29  1  0  0  0
  8  9  1  0  0  0
  8 22  1  0  0  0
  9 10  1  0  0  0
  9 27  2  0  0  0
 10 11  2  0  0  0
 10 15  1  0  0  0
 11 12  1  0  0  0
 11 98  1  0  0  0
 12 13  2  0  0  0
 12 99  1  0  0  0
 13 14  1  0  0  0
 13 31  1  0  0  0
 14 15  2  0  0  0
 14100  1  0  0  0
 15101  1  0  0  0
 16 17  2  0  0  0
 16 21  1  0  0  0
 16 31  1  0  0  0
 17 18  1  0  0  0
 17102  1  0  0  0
 18 19  2  0  0  0
 18103  1  0  0  0
 19 20  1  0  0  0
 19 24  1  0  0  0
 20 21  2  0  0  0
 20104  1  0  0  0
 21 23  1  0  0  0
 22 28  1  0  0  0
 22 32  2  0  0  0
 26 27  1  0  0  0
 28105  1  0  0  0
 28106  1  0  0  0
 29107  1  0  0  0
 29108  1  0  0  0
 33 34  1  0  0  0
 33 66  1  0  0  0
 33 70  2  0  0  0
 34 36  1  0  0  0
 34 59  1  0  0  0
 34109  1  0  0  0
 35 44  2  0  0  0
 35 45  1  0  0  0
 35 68  1  0  0  0
 36 56  1  0  0  0
 36110  1  0  0  0
 37 39  1  0  0  0
 37 47  1  0  0  0
 37 66  1  0  0  0
 37111  1  0  0  0
 38 43  2  0  0  0
 38 46  1  0  0  0
 38 47  1  0  0  0
 39 64  1  0  0  0
 39 67  2  0  0  0
 40 52  1  0  0  0
 40 53  2  0  0  0
 40 58  1  0  0  0
 41112  1  0  0  0
 41113  1  0  0  0
 41114  1  0  0  0
 41 48  1  0  0  0
 42 43  1  0  0  0
 42 66  1  0  0  0
 42115  1  0  0  0
 42116  1  0  0  0
 43 44  1  0  0  0
 44117  1  0  0  0
 45 46  2  0  0  0
 45118  1  0  0  0
 46119  1  0  0  0
 47120  1  0  0  0
 47121  1  0  0  0
 48 56  1  0  0  0
 48 65  1  0  0  0
 48122  1  0  0  0
 49 50  1  0  0  0
 49 53  1  0  0  0
 49 64  1  0  0  0
 49123  1  0  0  0
 50 51  1  0  0  0
 50124  1  0  0  0
 50125  1  0  0  0
 51 52  1  0  0  0
 51126  1  0  0  0
 51127  1  0  0  0
 52128  1  0  0  0
 52129  1  0  0  0
 53 54  1  0  0  0
 54 55  2  0  0  0
 54130  1  0  0  0
 55 57  1  0  0  0
 55131  1  0  0  0
 56 69  2  0  0  0
 57 58  2  0  0  0
 57132  1  0  0  0
 58133  1  0  0  0
 59 60  1  0  0  0
 59 61  1  0  0  0
 59 62  1  0  0  0
 60134  1  0  0  0
 60135  1  0  0  0
 60136  1  0  0  0
 61137  1  0  0  0
 61138  1  0  0  0
 61139  1  0  0  0
 62140  1  0  0  0
 62141  1  0  0  0
 62142  1  0  0  0
 63 65  1  0  0  0
 63143  1  0  0  0
 63144  1  0  0  0
 63145  1  0  0  0
 64146  1  0  0  0
 65147  1  0  0  0
 68 84  1  0  0  0
 71 72  2  0  0  0
 71 73  1  0  0  0
 71148  1  0  0  0
 72 85  1  0  0  0
 72 87  1  0  0  0
 73 86  1  0  0  0
 73 88  2  0  0  0
 74 80  1  0  0  0
 74 87  2  0  0  0
 74 88  1  0  0  0
 75 81  1  0  0  0
 75149  1  0  0  0
 75150  1  0  0  0
 75151  1  0  0  0
 76152  1  0  0  0
 76153  1  0  0  0
 76154  1  0  0  0
 76 85  1  0  0  0
 77 85  1  0  0  0
 77155  1  0  0  0
 77156  1  0  0  0
 77157  1  0  0  0
 78158  1  0  0  0
 78159  1  0  0  0
 78160  1  0  0  0
 78 86  1  0  0  0
 79 86  1  0  0  0
 79161  1  0  0  0
 79162  1  0  0  0
 79163  1  0  0  0
 80 82  1  0  0  0
 80164  1  0  0  0
 80165  1  0  0  0
 81 86  1  0  0  0
 81166  1  0  0  0
 81167  1  0  0  0
 82 83  1  0  0  0
 82168  1  0  0  0
 82169  1  0  0  0
 83 84  1  0  0  0
 83170  1  0  0  0
 83171  1  0  0  0
 84172  1  0  0  0
 84173  1  0  0  0
M  ISO  4   1 100  68 101  84 101  85 100
M  END
> <chiral flag>
0

> <version>
0

> <s_m_source_file>
/data/baiqing/PycharmProjects/Reinvent-master-3.2/result/LINK_invent/BTK/process_docking_weight1_custom_sum_contain_oxygen_bond_distance_aromatic_linkinvent_7_9_3/rearranged_h_0074.sdf

> <i_m_source_file_index>
91

> <r_mmod_Potential_Energy-OPLS-2005>
-175.292373657227

> <r_mmod_Stretch_Energy-OPLS-2005>
116.885185241699

> <r_mmod_Bend_Energy-OPLS-2005>
195.374298095703

> <r_mmod_Torsional_Energy-OPLS-2005>
182.638412475586

> <r_mmod_Improper_Torsional_Energy-OPLS-2005>
2.2404522895813

> <r_mmod_Van_der_Waal_Energy-OPLS-2005>
166.790679931641

> <r_mmod_Electrostatic_Energy-OPLS-2005>
-701.493896484375

> <r_mmod_Solvation_Energy-OPLS-2005>
-194.255615234375

> <b_mmod_Minimization_Converged-OPLS-2005>
0

> <r_mmod_RMS_Derivative-OPLS-2005>
5.48486757278442

$$$$
91
                    3D
 Structure written by MMmdl.
170178  0  0  1  0            999 V2000
  -30.6433  -14.8939   20.3166 C   0  0  0  0  0  0
  -30.4595  -12.5298   19.4637 C   0  0  0  0  0  0
  -29.5162  -12.3557   18.2443 C   0  0  0  0  0  0
  -28.0514  -12.2085   18.7022 C   0  0  0  0  0  0
  -27.6299  -13.1965   19.8322 C   0  0  2  0  0  0
  -28.7103  -13.2871   20.9332 C   0  0  0  0  0  0
  -25.2468  -13.7901   20.5846 C   0  0  0  0  0  0
  -24.1759  -13.0301   20.9316 C   0  0  0  0  0  0
  -24.6272  -11.6709   20.8883 C   0  0  0  0  0  0
  -23.8941  -10.4091   21.0595 C   0  0  0  0  0  0
  -24.3353   -9.3875   21.9305 C   0  0  0  0  0  0
  -23.5971   -8.1947   22.0792 C   0  0  0  0  0  0
  -22.3986   -8.0013   21.3546 C   0  0  0  0  0  0
  -21.9698   -9.0103   20.4738 C   0  0  0  0  0  0
  -22.7132  -10.1950   20.3252 C   0  0  0  0  0  0
  -21.6633   -6.0490   22.5346 C   0  0  0  0  0  0
  -21.3864   -6.5438   23.8288 C   0  0  0  0  0  0
  -21.3739   -5.6674   24.9325 C   0  0  0  0  0  0
  -21.6114   -4.2935   24.7396 C   0  0  0  0  0  0
  -21.8789   -3.7923   23.4527 C   0  0  0  0  0  0
  -21.9056   -4.6709   22.3516 C   0  0  0  0  0  0
  -22.7818  -13.5191   21.1961 C   0  0  0  0  0  0
  -22.1490   -4.1829   21.1109 F   0  0  0  0  0  0
  -21.5772   -3.4485   25.7950 F   0  0  0  0  0  0
  -29.9710  -13.6690   20.2822 N   0  0  0  0  0  0
  -26.2913  -12.9096   20.3499 N   0  0  0  0  0  0
  -25.9221  -11.6267   20.6009 N   0  0  0  0  0  0
  -22.0206  -12.8357   22.0412 N   0  0  0  0  0  0
  -25.4159  -15.1615   20.4144 N   0  0  0  0  0  0
  -31.8704  -14.7870   20.4316 O   0  0  0  0  0  0
  -21.6419   -6.8561   21.4245 O   0  0  0  0  0  0
  -22.3589  -14.5452   20.6593 O   0  0  0  0  0  0
  -24.6534  -31.8524   23.1815 C   0  0  0  0  0  0
  -25.9205  -32.4860   23.8255 C   0  0  1  0  0  0
  -27.1983  -27.1736   20.1311 C   0  0  0  0  0  0
  -25.5875  -33.8640   24.2229 N   0  0  0  0  0  0
  -23.5990  -30.2304   21.6617 C   0  0  2  0  0  0
  -24.9306  -28.9480   20.0030 C   0  0  0  0  0  0
  -22.6940  -29.4564   22.6485 C   0  0  0  0  0  0
  -18.0015  -28.1437   22.8409 C   0  0  0  0  0  0
  -24.1475  -36.7309   23.2593 C   0  0  0  0  0  0
  -26.0241  -30.7910   21.3160 C   0  0  0  0  0  0
  -26.1139  -29.3976   20.6216 C   0  0  0  0  0  0
  -27.2435  -28.5125   20.6810 C   0  0  0  0  0  0
  -26.0125  -26.8401   19.4436 C   0  0  0  0  0  0
  -24.8945  -27.6825   19.4073 C   0  0  0  0  0  0
  -23.6544  -29.7560   20.1935 C   0  0  0  0  0  0
  -25.4086  -36.3079   24.0300 C   0  0  1  0  0  0
  -20.5444  -28.3800   23.1187 C   0  0  2  0  0  0
  -20.6544  -26.9519   22.5417 C   0  0  0  0  0  0
  -19.5584  -26.6376   21.5234 C   0  0  0  0  0  0
  -18.1754  -26.7957   22.1642 C   0  0  0  0  0  0
  -19.1228  -28.8966   23.2751 C   0  0  0  0  0  0
  -18.9239  -30.1548   23.8793 C   0  0  0  0  0  0
  -17.6277  -30.6686   24.0517 C   0  0  0  0  0  0
  -25.9061  -34.9478   23.5069 C   0  0  0  0  0  0
  -16.5154  -29.9153   23.6367 C   0  0  0  0  0  0
  -16.7049  -28.6569   23.0386 C   0  0  0  0  0  0
  -26.4512  -31.6611   25.0636 C   0  0  0  0  0  0
  -25.3680  -31.3799   26.1306 C   0  0  0  0  0  0
  -27.0246  -30.3011   24.6002 C   0  0  0  0  0  0
  -27.6045  -32.4302   25.7483 C   0  0  0  0  0  0
  -27.5585  -37.1808   24.8456 C   0  0  0  0  0  0
  -21.3951  -29.3119   22.3766 N   0  0  0  0  0  0
  -26.4243  -37.3794   23.9410 N   0  0  0  0  0  0
  -24.7446  -31.0800   22.0546 N   0  0  0  0  0  0
  -23.1967  -28.8725   23.6221 O   0  0  0  0  0  0
  -28.2185  -26.1758   20.2473 O   0  0  0  0  0  0
  -26.5699  -34.8950   22.4662 O   0  0  0  0  0  0
  -23.5667  -32.1046   23.7146 O   0  0  0  0  0  0
  -28.6330  -20.4013   20.7336 C   0  0  0  0  0  0
  -29.2105  -19.4889   21.6930 C   0  0  0  0  0  0
  -28.2801  -19.6675   19.5504 C   0  0  0  0  0  0
  -29.3902  -17.6361   20.2163 C   0  0  0  0  0  0
  -27.5694  -19.0284   23.5673 C   0  0  0  0  0  0
  -26.2897  -21.6887   16.8488 C   0  0  0  0  0  0
  -29.4542  -15.9368   18.3351 C   0  0  0  0  0  0
  -31.5103  -17.0323   19.0922 C   0  0  0  0  0  0
  -28.0799  -21.9044   21.0393 C   0  0  0  0  0  0
  -28.9567  -19.6130   23.2160 C   0  0  0  0  0  0
  -27.1538  -20.1263   18.6241 C   0  0  0  0  0  0
  -27.5278  -20.9119   17.3577 C   0  0  0  0  0  0
  -28.7091  -23.3347   20.4729 C   0  0  0  0  0  0
  -27.8071  -24.7137   20.5224 C   0  0  0  0  0  0
  -30.1903  -16.3420   19.6089 C   0  0  0  0  0  0
  -29.6744  -18.2246   21.3872 N   0  0  0  0  0  0
  -28.6833  -18.3752   19.3273 N   0  0  0  0  0  0
  -31.4864  -12.6850   19.1043 H   0  0  0  0  0  0
  -30.5110  -11.6157   20.0589 H   0  0  0  0  0  0
  -29.8279  -11.4614   17.7008 H   0  0  0  0  0  0
  -29.6128  -13.1468   17.5073 H   0  0  0  0  0  0
  -27.9671  -11.1840   19.0656 H   0  0  0  0  0  0
  -27.3896  -12.2886   17.8426 H   0  0  0  0  0  0
  -27.5339  -14.1664   19.3638 H   0  0  0  0  0  0
  -28.8237  -12.3235   21.4257 H   0  0  0  0  0  0
  -28.4554  -14.0277   21.6888 H   0  0  0  0  0  0
  -25.2435   -9.5231   22.4968 H   0  0  0  0  0  0
  -23.9693   -7.4229   22.7392 H   0  0  0  0  0  0
  -21.0702   -8.8666   19.8885 H   0  0  0  0  0  0
  -22.3663  -10.9518   19.6381 H   0  0  0  0  0  0
  -21.1720   -7.5911   23.9723 H   0  0  0  0  0  0
  -21.1716   -6.0414   25.9274 H   0  0  0  0  0  0
  -22.0480   -2.7308   23.3236 H   0  0  0  0  0  0
  -22.3523  -12.0176   22.5272 H   0  0  0  0  0  0
  -21.0822  -13.1662   22.2376 H   0  0  0  0  0  0
  -24.6313  -15.7964   20.5074 H   0  0  0  0  0  0
  -26.2813  -15.5912   20.1289 H   0  0  0  0  0  0
  -26.7286  -32.5530   23.1036 H   0  0  0  0  0  0
  -24.9926  -33.9800   25.0323 H   0  0  0  0  0  0
  -24.2503  -29.4460   22.0090 H   0  0  0  0  0  0
  -23.3775  -35.9637   23.3244 H   0  0  0  0  0  0
  -24.3555  -36.8974   22.2021 H   0  0  0  0  0  0
  -23.7263  -37.6496   23.6628 H   0  0  0  0  0  0
  -26.1308  -31.5563   20.5372 H   0  0  0  0  0  0
  -26.9094  -30.8634   21.9342 H   0  0  0  0  0  0
  -28.1319  -28.8351   21.2042 H   0  0  0  0  0  0
  -25.9042  -25.8861   18.9460 H   0  0  0  0  0  0
  -23.9815  -27.3351   18.9441 H   0  0  0  0  0  0
  -23.6394  -30.5984   19.4966 H   0  0  0  0  0  0
  -22.7916  -29.1269   19.9568 H   0  0  0  0  0  0
  -25.1301  -36.1913   25.0817 H   0  0  0  0  0  0
  -20.8961  -28.3255   24.1508 H   0  0  0  0  0  0
  -20.5423  -26.2455   23.3657 H   0  0  0  0  0  0
  -21.6461  -26.7631   22.1296 H   0  0  0  0  0  0
  -19.6768  -25.6262   21.1346 H   0  0  0  0  0  0
  -19.6522  -27.3128   20.6685 H   0  0  0  0  0  0
  -17.4043  -26.6616   21.4053 H   0  0  0  0  0  0
  -18.0213  -26.0190   22.9108 H   0  0  0  0  0  0
  -19.7742  -30.7368   24.2088 H   0  0  0  0  0  0
  -17.4826  -31.6375   24.5117 H   0  0  0  0  0  0
  -15.5156  -30.3014   23.7767 H   0  0  0  0  0  0
  -15.8425  -28.0849   22.7183 H   0  0  0  0  0  0
  -24.5985  -30.7025   25.7640 H   0  0  0  0  0  0
  -24.8733  -32.2965   26.4507 H   0  0  0  0  0  0
  -25.7943  -30.9185   27.0213 H   0  0  0  0  0  0
  -26.2861  -29.7039   24.0673 H   0  0  0  0  0  0
  -27.3495  -29.7004   25.4493 H   0  0  0  0  0  0
  -27.8868  -30.4272   23.9452 H   0  0  0  0  0  0
  -27.2692  -33.3704   26.1923 H   0  0  0  0  0  0
  -28.3993  -32.6767   25.0401 H   0  0  0  0  0  0
  -28.0515  -31.8474   26.5564 H   0  0  0  0  0  0
  -28.2588  -38.0104   24.7512 H   0  0  0  0  0  0
  -28.1064  -36.2672   24.6227 H   0  0  0  0  0  0
  -27.2279  -37.1405   25.8829 H   0  0  0  0  0  0
  -21.0007  -29.7852   21.5781 H   0  0  0  0  0  0
  -26.0167  -38.2866   24.1387 H   0  0  0  0  0  0
  -27.2409  -19.1685   24.5998 H   0  0  0  0  0  0
  -27.6108  -17.9479   23.4426 H   0  0  0  0  0  0
  -26.8091  -19.4166   22.8788 H   0  0  0  0  0  0
  -26.4212  -22.0250   15.8232 H   0  0  0  0  0  0
  -26.1335  -22.5635   17.4761 H   0  0  0  0  0  0
  -25.3800  -21.0875   16.8570 H   0  0  0  0  0  0
  -29.4918  -16.7350   17.5997 H   0  0  0  0  0  0
  -28.4125  -15.7405   18.5224 H   0  0  0  0  0  0
  -29.9536  -15.0903   17.8854 H   0  0  0  0  0  0
  -32.2517  -16.3548   18.6365 H   0  0  0  0  0  0
  -32.0138  -17.5626   19.9123 H   0  0  0  0  0  0
  -31.2796  -17.7731   18.3139 H   0  0  0  0  0  0
  -28.0336  -21.9926   22.1186 H   0  0  0  0  0  0
  -27.0235  -21.8939   20.7649 H   0  0  0  0  0  0
  -29.0615  -20.6215   23.6146 H   0  0  0  0  0  0
  -29.6880  -19.0187   23.7766 H   0  0  0  0  0  0
  -26.4308  -20.6882   19.2036 H   0  0  0  0  0  0
  -26.5713  -19.2553   18.3147 H   0  0  0  0  0  0
  -28.3563  -21.6048   17.5442 H   0  0  0  0  0  0
  -27.8431  -20.2137   16.5910 H   0  0  0  0  0  0
  -28.9781  -23.1824   19.4303 H   0  0  0  0  0  0
  -29.6533  -23.5005   20.9972 H   0  0  0  0  0  0
  -27.0093  -24.4460   19.8363 H   0  0  0  0  0  0
  -27.3556  -24.7330   21.5131 H   0  0  0  0  0  0
  1 25  1  0  0  0
  1 30  2  0  0  0
  1 85  1  0  0  0
  2  3  1  0  0  0
  2 25  1  0  0  0
  2 88  1  0  0  0
  2 89  1  0  0  0
  3  4  1  0  0  0
  3 90  1  0  0  0
  3 91  1  0  0  0
  4  5  1  0  0  0
  4 92  1  0  0  0
  4 93  1  0  0  0
  5  6  1  0  0  0
  5 26  1  0  0  0
  5 94  1  0  0  0
  6 25  1  0  0  0
  6 95  1  0  0  0
  6 96  1  0  0  0
  7  8  2  0  0  0
  7 26  1  0  0  0
  7 29  1  0  0  0
  8  9  1  0  0  0
  8 22  1  0  0  0
  9 10  1  0  0  0
  9 27  2  0  0  0
 10 11  2  0  0  0
 10 15  1  0  0  0
 11 12  1  0  0  0
 11 97  1  0  0  0
 12 13  2  0  0  0
 12 98  1  0  0  0
 13 14  1  0  0  0
 13 31  1  0  0  0
 14 15  2  0  0  0
 14 99  1  0  0  0
 15100  1  0  0  0
 16 17  2  0  0  0
 16 21  1  0  0  0
 16 31  1  0  0  0
 17 18  1  0  0  0
 17101  1  0  0  0
 18 19  2  0  0  0
 18102  1  0  0  0
 19 20  1  0  0  0
 19 24  1  0  0  0
 20 21  2  0  0  0
 20103  1  0  0  0
 21 23  1  0  0  0
 22 28  1  0  0  0
 22 32  2  0  0  0
 26 27  1  0  0  0
 28104  1  0  0  0
 28105  1  0  0  0
 29106  1  0  0  0
 29107  1  0  0  0
 33 34  1  0  0  0
 33 66  1  0  0  0
 33 70  2  0  0  0
 34 36  1  0  0  0
 34 59  1  0  0  0
 34108  1  0  0  0
 35 44  2  0  0  0
 35 45  1  0  0  0
 35 68  1  0  0  0
 36 56  1  0  0  0
 36109  1  0  0  0
 37 39  1  0  0  0
 37 47  1  0  0  0
 37 66  1  0  0  0
 37110  1  0  0  0
 38 43  2  0  0  0
 38 46  1  0  0  0
 38 47  1  0  0  0
 39 64  1  0  0  0
 39 67  2  0  0  0
 40 52  1  0  0  0
 40 53  2  0  0  0
 40 58  1  0  0  0
 41111  1  0  0  0
 41112  1  0  0  0
 41113  1  0  0  0
 41 48  1  0  0  0
 42 43  1  0  0  0
 42 66  1  0  0  0
 42114  1  0  0  0
 42115  1  0  0  0
 43 44  1  0  0  0
 44116  1  0  0  0
 45 46  2  0  0  0
 45117  1  0  0  0
 46118  1  0  0  0
 47119  1  0  0  0
 47120  1  0  0  0
 48 56  1  0  0  0
 48 65  1  0  0  0
 48121  1  0  0  0
 49 50  1  0  0  0
 49 53  1  0  0  0
 49 64  1  0  0  0
 49122  1  0  0  0
 50 51  1  0  0  0
 50123  1  0  0  0
 50124  1  0  0  0
 51 52  1  0  0  0
 51125  1  0  0  0
 51126  1  0  0  0
 52127  1  0  0  0
 52128  1  0  0  0
 53 54  1  0  0  0
 54 55  2  0  0  0
 54129  1  0  0  0
 55 57  1  0  0  0
 55130  1  0  0  0
 56 69  2  0  0  0
 57 58  2  0  0  0
 57131  1  0  0  0
 58132  1  0  0  0
 59 60  1  0  0  0
 59 61  1  0  0  0
 59 62  1  0  0  0
 60133  1  0  0  0
 60134  1  0  0  0
 60135  1  0  0  0
 61136  1  0  0  0
 61137  1  0  0  0
 61138  1  0  0  0
 62139  1  0  0  0
 62140  1  0  0  0
 62141  1  0  0  0
 63 65  1  0  0  0
 63142  1  0  0  0
 63143  1  0  0  0
 63144  1  0  0  0
 64145  1  0  0  0
 65146  1  0  0  0
 68 84  1  0  0  0
 71 72  2  0  0  0
 71 73  1  0  0  0
 71 79  1  0  0  0
 72 80  1  0  0  0
 72 86  1  0  0  0
 73 81  1  0  0  0
 73 87  2  0  0  0
 74 85  1  0  0  0
 74 86  2  0  0  0
 74 87  1  0  0  0
 75 80  1  0  0  0
 75147  1  0  0  0
 75148  1  0  0  0
 75149  1  0  0  0
 76 82  1  0  0  0
 76150  1  0  0  0
 76151  1  0  0  0
 76152  1  0  0  0
 77153  1  0  0  0
 77154  1  0  0  0
 77155  1  0  0  0
 77 85  1  0  0  0
 78 85  1  0  0  0
 78156  1  0  0  0
 78157  1  0  0  0
 78158  1  0  0  0
 79 83  1  0  0  0
 79159  1  0  0  0
 79160  1  0  0  0
 80161  1  0  0  0
 80162  1  0  0  0
 81 82  1  0  0  0
 81163  1  0  0  0
 81164  1  0  0  0
 82165  1  0  0  0
 82166  1  0  0  0
 83 84  1  0  0  0
 83167  1  0  0  0
 83168  1  0  0  0
 84169  1  0  0  0
 84170  1  0  0  0
M  ISO  4   1 100  68 101  84 101  85 100
M  END
> <chiral flag>
0

> <version>
0

> <s_m_source_file>
/data/baiqing/PycharmProjects/Reinvent-master-3.2/result/LINK_invent/BTK/process_docking_weight1_custom_sum_contain_oxygen_bond_distance_aromatic_linkinvent_7_9_3/rearranged_h_0074.sdf

> <i_m_source_file_index>
92

> <r_mmod_Potential_Energy-OPLS-2005>
567.757629394531

> <r_mmod_Stretch_Energy-OPLS-2005>
211.269149780273

> <r_mmod_Bend_Energy-OPLS-2005>
433.075653076172

> <r_mmod_Torsional_Energy-OPLS-2005>
280.232299804688

> <r_mmod_Improper_Torsional_Energy-OPLS-2005>
35.932056427002

> <r_mmod_Van_der_Waal_Energy-OPLS-2005>
220.089508056641

> <r_mmod_Electrostatic_Energy-OPLS-2005>
-637.877258300781

> <r_mmod_Solvation_Energy-OPLS-2005>
-199.123840332031

> <b_mmod_Minimization_Converged-OPLS-2005>
0

> <r_mmod_RMS_Derivative-OPLS-2005>
19.7483291625977

$$$$
92
                    3D
 Structure written by MMmdl.
155163  0  0  1  0            999 V2000
  -30.4434  -15.2567   20.3740 C   0  0  0  0  0  0
  -30.4315  -12.7868   19.5815 C   0  0  0  0  0  0
  -29.5537  -12.5865   18.3198 C   0  0  0  0  0  0
  -28.0940  -12.3123   18.7215 C   0  0  0  0  0  0
  -27.6131  -13.2823   19.8294 C   0  0  2  0  0  0
  -28.6264  -13.4591   20.9781 C   0  0  0  0  0  0
  -25.2392  -13.8261   20.5722 C   0  0  0  0  0  0
  -24.1739  -13.0444   20.9206 C   0  0  0  0  0  0
  -24.6416  -11.6950   20.8762 C   0  0  0  0  0  0
  -23.9117  -10.4303   21.0413 C   0  0  0  0  0  0
  -24.3658   -9.4223   21.9192 C   0  0  0  0  0  0
  -23.6321   -8.2264   22.0763 C   0  0  0  0  0  0
  -22.4310   -8.0299   21.3541 C   0  0  0  0  0  0
  -21.9947   -9.0280   20.4647 C   0  0  0  0  0  0
  -22.7286  -10.2155   20.3054 C   0  0  0  0  0  0
  -21.6871   -6.0758   22.5287 C   0  0  0  0  0  0
  -21.4010   -6.5649   23.8222 C   0  0  0  0  0  0
  -21.3654   -5.6798   24.9172 C   0  0  0  0  0  0
  -21.6033   -4.3063   24.7230 C   0  0  0  0  0  0
  -21.8822   -3.8160   23.4347 C   0  0  0  0  0  0
  -21.9193   -4.6975   22.3404 C   0  0  0  0  0  0
  -22.7760  -13.5208   21.1857 C   0  0  0  0  0  0
  -22.1672   -4.2172   21.0986 F   0  0  0  0  0  0
  -21.5632   -3.4536   25.7733 F   0  0  0  0  0  0
  -29.8817  -13.9447   20.3857 N   0  0  0  0  0  0
  -26.2811  -12.9557   20.3178 N   0  0  0  0  0  0
  -25.9355  -11.6653   20.5722 N   0  0  0  0  0  0
  -22.0424  -12.8188   22.0411 N   0  0  0  0  0  0
  -25.4056  -15.2004   20.4257 N   0  0  0  0  0  0
  -31.6447  -15.2177   20.0643 O   0  0  0  0  0  0
  -21.6652   -6.8905   21.4258 O   0  0  0  0  0  0
  -22.3437  -14.5499   20.6693 O   0  0  0  0  0  0
  -24.6615  -31.8233   23.1729 C   0  0  0  0  0  0
  -25.9304  -32.4578   23.8156 C   0  0  1  0  0  0
  -27.2052  -26.9261   20.1845 C   0  0  0  0  0  0
  -25.5973  -33.8397   24.2076 N   0  0  0  0  0  0
  -23.4773  -30.4374   21.5234 C   0  0  2  0  0  0
  -24.9235  -28.8201   20.1196 C   0  0  0  0  0  0
  -22.7676  -29.4484   22.4825 C   0  0  0  0  0  0
  -18.0348  -28.1290   22.8472 C   0  0  0  0  0  0
  -24.1495  -36.7193   23.2656 C   0  0  0  0  0  0
  -26.0458  -30.6275   21.4045 C   0  0  0  0  0  0
  -26.1079  -29.2175   20.7499 C   0  0  0  0  0  0
  -27.2443  -28.2909   20.7604 C   0  0  0  0  0  0
  -25.9955  -26.6830   19.4986 C   0  0  0  0  0  0
  -24.8907  -27.5715   19.4787 C   0  0  0  0  0  0
  -23.7141  -29.7511   20.1508 C   0  0  0  0  0  0
  -25.4140  -36.2975   24.0317 C   0  0  1  0  0  0
  -20.5950  -28.3772   23.1141 C   0  0  2  0  0  0
  -20.6943  -26.9526   22.5191 C   0  0  0  0  0  0
  -19.5814  -26.6321   21.5181 C   0  0  0  0  0  0
  -18.2033  -26.7805   22.1680 C   0  0  0  0  0  0
  -19.1580  -28.8863   23.2793 C   0  0  0  0  0  0
  -18.9454  -30.1443   23.8830 C   0  0  0  0  0  0
  -17.6419  -30.6509   24.0480 C   0  0  0  0  0  0
  -25.9097  -34.9344   23.5020 C   0  0  0  0  0  0
  -16.5360  -29.8947   23.6268 C   0  0  0  0  0  0
  -16.7306  -28.6337   23.0356 C   0  0  0  0  0  0
  -26.4565  -31.6548   25.0693 C   0  0  0  0  0  0
  -25.3680  -31.3775   26.1334 C   0  0  0  0  0  0
  -27.0480  -30.2936   24.6419 C   0  0  0  0  0  0
  -27.6064  -32.4356   25.7485 C   0  0  0  0  0  0
  -27.5581  -37.1768   24.8474 C   0  0  0  0  0  0
  -21.4339  -29.3163   22.3599 N   0  0  0  0  0  0
  -26.4285  -37.3720   23.9404 N   0  0  0  0  0  0
  -24.7496  -30.9928   22.0850 N   0  0  0  0  0  0
  -23.4230  -28.7979   23.2997 O   0  0  0  0  0  0
  -28.1952  -25.8139   20.2735 O   0  0  0  0  0  0
  -26.5698  -34.8891   22.4616 O   0  0  0  0  0  0
  -23.5684  -32.1181   23.6852 O   0  0  0  0  0  0
  -29.6602  -18.0832   19.8209 C   0  0  0  0  0  0
  -28.9038  -18.7170   21.7151 C   0  0  0  0  0  0
  -29.0685  -19.3334   20.4860 C   0  0  0  0  0  0
  -29.7664  -16.8252   20.5585 C   0  0  0  0  0  0
  -28.6114  -20.8896   18.4483 C   0  0  0  0  0  0
  -26.9549  -20.8248   20.2892 C   0  0  0  0  0  0
  -29.1468  -16.5737   23.0113 C   0  0  0  0  0  0
  -28.7947  -22.6462   20.4348 C   0  0  0  0  0  0
  -27.9414  -24.1967   20.0369 C   0  0  0  0  0  0
  -28.4619  -20.9281   19.9804 C   0  0  0  0  0  0
  -29.2753  -17.3326   21.7773 N   0  0  0  0  0  0
  -31.4653  -12.9527   19.2787 H   0  0  0  0  0  0
  -30.4564  -11.8782   20.1839 H   0  0  0  0  0  0
  -29.9443  -11.7699   17.7116 H   0  0  0  0  0  0
  -29.6029  -13.4843   17.7011 H   0  0  0  0  0  0
  -28.0438  -11.2846   19.0873 H   0  0  0  0  0  0
  -27.4370  -12.3637   17.8512 H   0  0  0  0  0  0
  -27.5361  -14.2519   19.3356 H   0  0  0  0  0  0
  -28.7731  -12.5343   21.5402 H   0  0  0  0  0  0
  -28.2509  -14.1956   21.6875 H   0  0  0  0  0  0
  -25.2799   -9.5700   22.4762 H   0  0  0  0  0  0
  -24.0032   -7.4651   22.7471 H   0  0  0  0  0  0
  -21.0882   -8.8796   19.8940 H   0  0  0  0  0  0
  -22.3745  -10.9696   19.6158 H   0  0  0  0  0  0
  -21.1998   -7.6156   23.9733 H   0  0  0  0  0  0
  -21.1471   -6.0523   25.9082 H   0  0  0  0  0  0
  -22.0602   -2.7622   23.2835 H   0  0  0  0  0  0
  -22.4082  -11.9868   22.4811 H   0  0  0  0  0  0
  -21.1024  -13.1185   22.2580 H   0  0  0  0  0  0
  -24.6439  -15.8536   20.5688 H   0  0  0  0  0  0
  -26.2679  -15.6550   20.1521 H   0  0  0  0  0  0
  -26.7348  -32.5093   23.0846 H   0  0  0  0  0  0
  -25.0080  -33.9423   25.0194 H   0  0  0  0  0  0
  -22.7878  -31.2669   21.3564 H   0  0  0  0  0  0
  -23.3784  -35.9498   23.3292 H   0  0  0  0  0  0
  -24.3593  -36.8843   22.2079 H   0  0  0  0  0  0
  -23.7222  -37.6368   23.6705 H   0  0  0  0  0  0
  -26.2352  -31.3644   20.6228 H   0  0  0  0  0  0
  -26.9039  -30.6816   22.0633 H   0  0  0  0  0  0
  -28.1384  -28.5968   21.2842 H   0  0  0  0  0  0
  -25.8664  -25.7336   18.9985 H   0  0  0  0  0  0
  -23.9876  -27.2624   18.9717 H   0  0  0  0  0  0
  -23.8739  -30.5170   19.3922 H   0  0  0  0  0  0
  -22.8216  -29.2104   19.8364 H   0  0  0  0  0  0
  -25.1357  -36.1792   25.0816 H   0  0  0  0  0  0
  -21.0014  -28.3331   24.1266 H   0  0  0  0  0  0
  -21.6728  -26.7820   22.0668 H   0  0  0  0  0  0
  -20.6239  -26.2372   23.3398 H   0  0  0  0  0  0
  -19.7042  -25.6200   21.1292 H   0  0  0  0  0  0
  -19.6618  -27.2989   20.6589 H   0  0  0  0  0  0
  -17.4245  -26.6443   21.4154 H   0  0  0  0  0  0
  -18.0554  -25.9976   22.9125 H   0  0  0  0  0  0
  -19.7906  -30.7322   24.2162 H   0  0  0  0  0  0
  -17.4880  -31.6205   24.5004 H   0  0  0  0  0  0
  -15.5362  -30.2860   23.7470 H   0  0  0  0  0  0
  -15.8679  -28.0646   22.7158 H   0  0  0  0  0  0
  -24.5865  -30.7148   25.7616 H   0  0  0  0  0  0
  -24.8853  -32.2955   26.4691 H   0  0  0  0  0  0
  -25.7885  -30.8961   27.0169 H   0  0  0  0  0  0
  -26.3146  -29.6601   24.1429 H   0  0  0  0  0  0
  -27.4048  -29.7336   25.5073 H   0  0  0  0  0  0
  -27.9065  -30.4173   23.9816 H   0  0  0  0  0  0
  -27.2658  -33.3703   26.1958 H   0  0  0  0  0  0
  -28.3920  -32.6852   25.0341 H   0  0  0  0  0  0
  -28.0680  -31.8548   26.5482 H   0  0  0  0  0  0
  -28.2613  -38.0053   24.7529 H   0  0  0  0  0  0
  -28.1056  -36.2593   24.6303 H   0  0  0  0  0  0
  -27.2274  -37.1416   25.8865 H   0  0  0  0  0  0
  -20.9628  -29.8925   21.6770 H   0  0  0  0  0  0
  -26.0139  -38.2778   24.1421 H   0  0  0  0  0  0
  -29.9675  -18.1039   18.7842 H   0  0  0  0  0  0
  -28.4795  -19.1582   22.6090 H   0  0  0  0  0  0
  -28.1587  -21.7511   17.9583 H   0  0  0  0  0  0
  -28.1306  -20.0046   18.0287 H   0  0  0  0  0  0
  -29.6607  -20.8568   18.1558 H   0  0  0  0  0  0
  -26.5256  -19.8973   19.9083 H   0  0  0  0  0  0
  -26.3850  -21.6426   19.8473 H   0  0  0  0  0  0
  -26.7759  -20.8408   21.3643 H   0  0  0  0  0  0
  -29.3207  -17.2262   23.8675 H   0  0  0  0  0  0
  -29.8709  -15.7603   23.0561 H   0  0  0  0  0  0
  -28.1400  -16.1627   23.0941 H   0  0  0  0  0  0
  -28.8463  -22.6467   21.5254 H   0  0  0  0  0  0
  -29.8277  -22.8149   20.1326 H   0  0  0  0  0  0
  -26.9359  -24.0475   20.4382 H   0  0  0  0  0  0
  -27.8114  -24.1347   18.9569 H   0  0  0  0  0  0
  1 25  1  0  0  0
  1 30  2  0  0  0
  1 74  1  0  0  0
  2  3  1  0  0  0
  2 25  1  0  0  0
  2 82  1  0  0  0
  2 83  1  0  0  0
  3  4  1  0  0  0
  3 84  1  0  0  0
  3 85  1  0  0  0
  4  5  1  0  0  0
  4 86  1  0  0  0
  4 87  1  0  0  0
  5  6  1  0  0  0
  5 26  1  0  0  0
  5 88  1  0  0  0
  6 25  1  0  0  0
  6 89  1  0  0  0
  6 90  1  0  0  0
  7  8  2  0  0  0
  7 26  1  0  0  0
  7 29  1  0  0  0
  8  9  1  0  0  0
  8 22  1  0  0  0
  9 10  1  0  0  0
  9 27  2  0  0  0
 10 11  2  0  0  0
 10 15  1  0  0  0
 11 12  1  0  0  0
 11 91  1  0  0  0
 12 13  2  0  0  0
 12 92  1  0  0  0
 13 14  1  0  0  0
 13 31  1  0  0  0
 14 15  2  0  0  0
 14 93  1  0  0  0
 15 94  1  0  0  0
 16 17  2  0  0  0
 16 21  1  0  0  0
 16 31  1  0  0  0
 17 18  1  0  0  0
 17 95  1  0  0  0
 18 19  2  0  0  0
 18 96  1  0  0  0
 19 20  1  0  0  0
 19 24  1  0  0  0
 20 21  2  0  0  0
 20 97  1  0  0  0
 21 23  1  0  0  0
 22 28  1  0  0  0
 22 32  2  0  0  0
 26 27  1  0  0  0
 28 98  1  0  0  0
 28 99  1  0  0  0
 29100  1  0  0  0
 29101  1  0  0  0
 33 34  1  0  0  0
 33 66  1  0  0  0
 33 70  2  0  0  0
 34 36  1  0  0  0
 34 59  1  0  0  0
 34102  1  0  0  0
 35 44  2  0  0  0
 35 45  1  0  0  0
 35 68  1  0  0  0
 36 56  1  0  0  0
 36103  1  0  0  0
 37 39  1  0  0  0
 37 47  1  0  0  0
 37 66  1  0  0  0
 37104  1  0  0  0
 38 43  2  0  0  0
 38 46  1  0  0  0
 38 47  1  0  0  0
 39 64  1  0  0  0
 39 67  2  0  0  0
 40 52  1  0  0  0
 40 53  2  0  0  0
 40 58  1  0  0  0
 41105  1  0  0  0
 41106  1  0  0  0
 41107  1  0  0  0
 41 48  1  0  0  0
 42 43  1  0  0  0
 42 66  1  0  0  0
 42108  1  0  0  0
 42109  1  0  0  0
 43 44  1  0  0  0
 44110  1  0  0  0
 45 46  2  0  0  0
 45111  1  0  0  0
 46112  1  0  0  0
 47113  1  0  0  0
 47114  1  0  0  0
 48 56  1  0  0  0
 48 65  1  0  0  0
 48115  1  0  0  0
 49 50  1  0  0  0
 49 53  1  0  0  0
 49 64  1  0  0  0
 49116  1  0  0  0
 50 51  1  0  0  0
 50117  1  0  0  0
 50118  1  0  0  0
 51 52  1  0  0  0
 51119  1  0  0  0
 51120  1  0  0  0
 52121  1  0  0  0
 52122  1  0  0  0
 53 54  1  0  0  0
 54 55  2  0  0  0
 54123  1  0  0  0
 55 57  1  0  0  0
 55124  1  0  0  0
 56 69  2  0  0  0
 57 58  2  0  0  0
 57125  1  0  0  0
 58126  1  0  0  0
 59 60  1  0  0  0
 59 61  1  0  0  0
 59 62  1  0  0  0
 60127  1  0  0  0
 60128  1  0  0  0
 60129  1  0  0  0
 61130  1  0  0  0
 61131  1  0  0  0
 61132  1  0  0  0
 62133  1  0  0  0
 62134  1  0  0  0
 62135  1  0  0  0
 63 65  1  0  0  0
 63136  1  0  0  0
 63137  1  0  0  0
 63138  1  0  0  0
 64139  1  0  0  0
 65140  1  0  0  0
 68 79  1  0  0  0
 71 73  1  0  0  0
 71 74  2  0  0  0
 71141  1  0  0  0
 72 73  2  0  0  0
 72 81  1  0  0  0
 72142  1  0  0  0
 73 80  1  0  0  0
 74 81  1  0  0  0
 75143  1  0  0  0
 75144  1  0  0  0
 75145  1  0  0  0
 75 80  1  0  0  0
 76 80  1  0  0  0
 76146  1  0  0  0
 76147  1  0  0  0
 76148  1  0  0  0
 77 81  1  0  0  0
 77149  1  0  0  0
 77150  1  0  0  0
 77151  1  0  0  0
 78 79  1  0  0  0
 78 80  1  0  0  0
 78152  1  0  0  0
 78153  1  0  0  0
 79154  1  0  0  0
 79155  1  0  0  0
M  ISO  4   1 100  68 101  74 100  79 101
M  END
> <chiral flag>
0

> <version>
0

> <s_m_source_file>
/data/baiqing/PycharmProjects/Reinvent-master-3.2/result/LINK_invent/BTK/process_docking_weight1_custom_sum_contain_oxygen_bond_distance_aromatic_linkinvent_7_9_3/rearranged_h_0074.sdf

> <i_m_source_file_index>
93

> <r_mmod_Potential_Energy-OPLS-2005>
1340.41235351562

> <r_mmod_Stretch_Energy-OPLS-2005>
600.334106445312

> <r_mmod_Bend_Energy-OPLS-2005>
440.201446533203

> <r_mmod_Torsional_Energy-OPLS-2005>
225.415222167969

> <r_mmod_Improper_Torsional_Energy-OPLS-2005>
5.26410627365112

> <r_mmod_Van_der_Waal_Energy-OPLS-2005>
105.426376342773

> <r_mmod_Electrostatic_Energy-OPLS-2005>
-297.219177246094

> <r_mmod_Solvation_Energy-OPLS-2005>
-190.921051025391

> <b_mmod_Minimization_Converged-OPLS-2005>
0

> <r_mmod_RMS_Derivative-OPLS-2005>
4.15584802627563

$$$$
93
                    3D
 Structure written by MMmdl.
160168  0  0  1  0            999 V2000
  -30.5767  -14.7572   20.4114 C   0  0  0  0  0  0
  -30.4607  -12.4575   19.4596 C   0  0  0  0  0  0
  -29.5233  -12.4852   18.2303 C   0  0  0  0  0  0
  -28.0407  -12.3355   18.6312 C   0  0  0  0  0  0
  -27.6557  -13.2245   19.8435 C   0  0  2  0  0  0
  -28.7050  -13.1415   20.9675 C   0  0  0  0  0  0
  -25.2603  -13.8206   20.5556 C   0  0  0  0  0  0
  -24.1890  -13.0483   20.9085 C   0  0  0  0  0  0
  -24.6452  -11.6942   20.8680 C   0  0  0  0  0  0
  -23.9126  -10.4307   21.0378 C   0  0  0  0  0  0
  -24.3661   -9.4197   21.9164 C   0  0  0  0  0  0
  -23.6297   -8.2260   22.0752 C   0  0  0  0  0  0
  -22.4246   -8.0311   21.3579 C   0  0  0  0  0  0
  -21.9923   -9.0284   20.4646 C   0  0  0  0  0  0
  -22.7288  -10.2154   20.3033 C   0  0  0  0  0  0
  -21.6857   -6.0744   22.5276 C   0  0  0  0  0  0
  -21.4011   -6.5640   23.8217 C   0  0  0  0  0  0
  -21.3617   -5.6765   24.9164 C   0  0  0  0  0  0
  -21.6010   -4.3039   24.7190 C   0  0  0  0  0  0
  -21.8836   -3.8165   23.4310 C   0  0  0  0  0  0
  -21.9213   -4.6990   22.3378 C   0  0  0  0  0  0
  -22.7892  -13.5272   21.1731 C   0  0  0  0  0  0
  -22.1660   -4.2197   21.0951 F   0  0  0  0  0  0
  -21.5632   -3.4493   25.7692 F   0  0  0  0  0  0
  -30.0075  -13.5030   20.3996 N   0  0  0  0  0  0
  -26.3069  -12.9402   20.3269 N   0  0  0  0  0  0
  -25.9418  -11.6559   20.5762 N   0  0  0  0  0  0
  -22.0513  -12.8379   22.0342 N   0  0  0  0  0  0
  -25.4343  -15.1928   20.3875 N   0  0  0  0  0  0
  -31.7793  -14.8744   20.1546 O   0  0  0  0  0  0
  -21.6626   -6.8894   21.4246 O   0  0  0  0  0  0
  -22.3554  -14.5524   20.6447 O   0  0  0  0  0  0
  -24.6294  -31.8596   23.2010 C   0  0  0  0  0  0
  -25.9142  -32.4775   23.8355 C   0  0  1  0  0  0
  -27.2187  -27.3090   20.1158 C   0  0  0  0  0  0
  -25.5954  -33.8571   24.2276 N   0  0  0  0  0  0
  -23.4210  -30.4882   21.5393 C   0  0  2  0  0  0
  -24.8667  -28.9374   20.1110 C   0  0  0  0  0  0
  -22.7473  -29.4678   22.4871 C   0  0  0  0  0  0
  -18.0292  -28.1403   22.8464 C   0  0  0  0  0  0
  -24.1481  -36.7298   23.2641 C   0  0  0  0  0  0
  -25.9641  -30.7866   21.3744 C   0  0  0  0  0  0
  -26.0368  -29.4097   20.7210 C   0  0  0  0  0  0
  -27.2162  -28.6045   20.7182 C   0  0  0  0  0  0
  -26.0363  -26.8994   19.4620 C   0  0  0  0  0  0
  -24.8680  -27.6852   19.4754 C   0  0  0  0  0  0
  -23.6352  -29.8219   20.1549 C   0  0  0  0  0  0
  -25.4107  -36.3079   24.0322 C   0  0  1  0  0  0
  -20.5891  -28.3728   23.1236 C   0  0  2  0  0  0
  -20.6784  -26.9446   22.5382 C   0  0  0  0  0  0
  -19.5767  -26.6394   21.5190 C   0  0  0  0  0  0
  -18.1940  -26.7937   22.1609 C   0  0  0  0  0  0
  -19.1541  -28.8876   23.2850 C   0  0  0  0  0  0
  -18.9477  -30.1463   23.8893 C   0  0  0  0  0  0
  -17.6482  -30.6597   24.0569 C   0  0  0  0  0  0
  -25.9050  -34.9447   23.5087 C   0  0  0  0  0  0
  -16.5366  -29.9110   23.6330 C   0  0  0  0  0  0
  -16.7280  -28.6526   23.0346 C   0  0  0  0  0  0
  -26.4519  -31.6601   25.0729 C   0  0  0  0  0  0
  -25.3741  -31.3777   26.1454 C   0  0  0  0  0  0
  -27.0398  -30.3030   24.6217 C   0  0  0  0  0  0
  -27.6037  -32.4363   25.7525 C   0  0  0  0  0  0
  -27.5568  -37.1798   24.8461 C   0  0  0  0  0  0
  -21.4187  -29.3100   22.3610 N   0  0  0  0  0  0
  -26.4286  -37.3774   23.9392 N   0  0  0  0  0  0
  -24.6906  -31.0607   22.0948 N   0  0  0  0  0  0
  -23.4172  -28.8186   23.2941 O   0  0  0  0  0  0
  -28.3233  -26.4412   20.1295 O   0  0  0  0  0  0
  -26.5592  -34.8927   22.4634 O   0  0  0  0  0  0
  -23.5456  -32.1407   23.7347 O   0  0  0  0  0  0
  -28.8896  -19.7264   20.0414 C   0  0  0  0  0  0
  -28.4781  -21.0860   20.1993 C   0  0  0  0  0  0
  -26.8045  -19.8459   19.4371 C   0  0  0  0  0  0
  -25.4432  -19.4515   18.9523 C   0  0  0  0  0  0
  -26.1768  -22.1710   20.0494 C   0  0  0  0  0  0
  -30.1907  -18.8931   20.2006 C   0  0  0  0  0  0
  -29.1238  -22.4148   20.7178 C   0  0  0  0  0  0
  -29.6778  -16.0938   20.4279 C   0  0  0  0  0  0
  -30.1873  -17.5029   21.0245 C   0  0  0  0  0  0
  -28.9852  -23.8374   19.9562 C   0  0  0  0  0  0
  -28.1068  -25.0326   20.5717 C   0  0  0  0  0  0
  -27.8262  -19.0092   19.5049 N   0  0  0  0  0  0
  -27.1072  -21.0706   19.8949 N   0  0  0  0  0  0
  -31.4898  -12.6211   19.1389 H   0  0  0  0  0  0
  -30.4505  -11.4800   19.9426 H   0  0  0  0  0  0
  -29.7975  -11.6895   17.5335 H   0  0  0  0  0  0
  -29.6541  -13.4246   17.6950 H   0  0  0  0  0  0
  -27.8607  -11.2888   18.8667 H   0  0  0  0  0  0
  -27.4045  -12.5713   17.7780 H   0  0  0  0  0  0
  -27.6568  -14.2460   19.4716 H   0  0  0  0  0  0
  -28.7413  -12.1348   21.3849 H   0  0  0  0  0  0
  -28.4494  -13.8037   21.7941 H   0  0  0  0  0  0
  -25.2800   -9.5683   22.4742 H   0  0  0  0  0  0
  -23.9976   -7.4626   22.7454 H   0  0  0  0  0  0
  -21.0879   -8.8820   19.8911 H   0  0  0  0  0  0
  -22.3780  -10.9696   19.6125 H   0  0  0  0  0  0
  -21.1978   -7.6140   23.9764 H   0  0  0  0  0  0
  -21.1400   -6.0461   25.9071 H   0  0  0  0  0  0
  -22.0664   -2.7640   23.2791 H   0  0  0  0  0  0
  -22.4076  -12.0122   22.4900 H   0  0  0  0  0  0
  -21.1080  -13.1425   22.2318 H   0  0  0  0  0  0
  -24.6497  -15.8343   20.3706 H   0  0  0  0  0  0
  -26.3155  -15.6511   20.1883 H   0  0  0  0  0  0
  -26.7203  -32.5452   23.1103 H   0  0  0  0  0  0
  -25.0156  -33.9711   25.0463 H   0  0  0  0  0  0
  -22.7207  -31.3126   21.3941 H   0  0  0  0  0  0
  -23.3746  -35.9632   23.3303 H   0  0  0  0  0  0
  -24.3582  -36.8923   22.2059 H   0  0  0  0  0  0
  -23.7243  -37.6494   23.6682 H   0  0  0  0  0  0
  -26.0951  -31.5514   20.6061 H   0  0  0  0  0  0
  -26.8440  -30.8395   22.0013 H   0  0  0  0  0  0
  -28.1126  -28.9529   21.2131 H   0  0  0  0  0  0
  -26.0079  -25.9545   18.9354 H   0  0  0  0  0  0
  -23.9717  -27.3250   18.9894 H   0  0  0  0  0  0
  -23.7566  -30.5975   19.3962 H   0  0  0  0  0  0
  -22.7522  -29.2554   19.8528 H   0  0  0  0  0  0
  -25.1298  -36.1927   25.0820 H   0  0  0  0  0  0
  -21.0014  -28.3342   24.1344 H   0  0  0  0  0  0
  -20.5695  -26.2355   23.3594 H   0  0  0  0  0  0
  -21.6656  -26.7479   22.1180 H   0  0  0  0  0  0
  -19.6946  -25.6300   21.1237 H   0  0  0  0  0  0
  -19.6706  -27.3189   20.6697 H   0  0  0  0  0  0
  -17.4205  -26.6654   21.4016 H   0  0  0  0  0  0
  -18.0381  -26.0085   22.9021 H   0  0  0  0  0  0
  -19.7956  -30.7258   24.2273 H   0  0  0  0  0  0
  -17.5053  -31.6282   24.5175 H   0  0  0  0  0  0
  -15.5377  -30.3029   23.7660 H   0  0  0  0  0  0
  -15.8664  -28.0854   22.7073 H   0  0  0  0  0  0
  -24.5863  -30.7181   25.7794 H   0  0  0  0  0  0
  -24.9002  -32.2977   26.4895 H   0  0  0  0  0  0
  -25.8054  -30.8934   27.0223 H   0  0  0  0  0  0
  -26.2990  -29.6708   24.1304 H   0  0  0  0  0  0
  -27.4159  -29.7366   25.4750 H   0  0  0  0  0  0
  -27.8829  -30.4316   23.9419 H   0  0  0  0  0  0
  -27.2592  -33.3629   26.2143 H   0  0  0  0  0  0
  -28.3862  -32.6984   25.0384 H   0  0  0  0  0  0
  -28.0716  -31.8479   26.5434 H   0  0  0  0  0  0
  -28.2597  -38.0081   24.7485 H   0  0  0  0  0  0
  -28.1048  -36.2607   24.6325 H   0  0  0  0  0  0
  -27.2275  -37.1494   25.8861 H   0  0  0  0  0  0
  -20.9348  -29.8850   21.6846 H   0  0  0  0  0  0
  -26.0170  -38.2846   24.1391 H   0  0  0  0  0  0
  -25.4735  -18.4790   18.4516 H   0  0  0  0  0  0
  -25.0515  -20.1912   18.2529 H   0  0  0  0  0  0
  -24.7582  -19.3776   19.7984 H   0  0  0  0  0  0
  -26.2995  -22.8678   19.2241 H   0  0  0  0  0  0
  -26.3529  -22.6624   21.0065 H   0  0  0  0  0  0
  -25.1445  -21.8220   20.0572 H   0  0  0  0  0  0
  -30.9304  -19.5442   20.6781 H   0  0  0  0  0  0
  -30.6056  -18.6926   19.2107 H   0  0  0  0  0  0
  -30.1869  -22.2133   20.8299 H   0  0  0  0  0  0
  -28.7879  -22.5638   21.7433 H   0  0  0  0  0  0
  -29.3956  -16.2750   19.3916 H   0  0  0  0  0  0
  -28.7313  -15.8686   20.9151 H   0  0  0  0  0  0
  -29.6553  -17.6947   21.9572 H   0  0  0  0  0  0
  -31.2198  -17.3449   21.3352 H   0  0  0  0  0  0
  -28.7540  -23.6832   18.9020 H   0  0  0  0  0  0
  -29.9985  -24.2440   19.9416 H   0  0  0  0  0  0
  -28.2762  -25.0438   21.6512 H   0  0  0  0  0  0
  -27.0524  -24.7676   20.4700 H   0  0  0  0  0  0
  1 25  1  0  0  0
  1 30  2  0  0  0
  1 78  1  0  0  0
  2  3  1  0  0  0
  2 25  1  0  0  0
  2 84  1  0  0  0
  2 85  1  0  0  0
  3  4  1  0  0  0
  3 86  1  0  0  0
  3 87  1  0  0  0
  4  5  1  0  0  0
  4 88  1  0  0  0
  4 89  1  0  0  0
  5  6  1  0  0  0
  5 26  1  0  0  0
  5 90  1  0  0  0
  6 25  1  0  0  0
  6 91  1  0  0  0
  6 92  1  0  0  0
  7  8  2  0  0  0
  7 26  1  0  0  0
  7 29  1  0  0  0
  8  9  1  0  0  0
  8 22  1  0  0  0
  9 10  1  0  0  0
  9 27  2  0  0  0
 10 11  2  0  0  0
 10 15  1  0  0  0
 11 12  1  0  0  0
 11 93  1  0  0  0
 12 13  2  0  0  0
 12 94  1  0  0  0
 13 14  1  0  0  0
 13 31  1  0  0  0
 14 15  2  0  0  0
 14 95  1  0  0  0
 15 96  1  0  0  0
 16 17  2  0  0  0
 16 21  1  0  0  0
 16 31  1  0  0  0
 17 18  1  0  0  0
 17 97  1  0  0  0
 18 19  2  0  0  0
 18 98  1  0  0  0
 19 20  1  0  0  0
 19 24  1  0  0  0
 20 21  2  0  0  0
 20 99  1  0  0  0
 21 23  1  0  0  0
 22 28  1  0  0  0
 22 32  2  0  0  0
 26 27  1  0  0  0
 28100  1  0  0  0
 28101  1  0  0  0
 29102  1  0  0  0
 29103  1  0  0  0
 33 34  1  0  0  0
 33 66  1  0  0  0
 33 70  2  0  0  0
 34 36  1  0  0  0
 34 59  1  0  0  0
 34104  1  0  0  0
 35 44  2  0  0  0
 35 45  1  0  0  0
 35 68  1  0  0  0
 36 56  1  0  0  0
 36105  1  0  0  0
 37 39  1  0  0  0
 37 47  1  0  0  0
 37 66  1  0  0  0
 37106  1  0  0  0
 38 43  2  0  0  0
 38 46  1  0  0  0
 38 47  1  0  0  0
 39 64  1  0  0  0
 39 67  2  0  0  0
 40 52  1  0  0  0
 40 53  2  0  0  0
 40 58  1  0  0  0
 41107  1  0  0  0
 41108  1  0  0  0
 41109  1  0  0  0
 41 48  1  0  0  0
 42 43  1  0  0  0
 42 66  1  0  0  0
 42110  1  0  0  0
 42111  1  0  0  0
 43 44  1  0  0  0
 44112  1  0  0  0
 45 46  2  0  0  0
 45113  1  0  0  0
 46114  1  0  0  0
 47115  1  0  0  0
 47116  1  0  0  0
 48 56  1  0  0  0
 48 65  1  0  0  0
 48117  1  0  0  0
 49 50  1  0  0  0
 49 53  1  0  0  0
 49 64  1  0  0  0
 49118  1  0  0  0
 50 51  1  0  0  0
 50119  1  0  0  0
 50120  1  0  0  0
 51 52  1  0  0  0
 51121  1  0  0  0
 51122  1  0  0  0
 52123  1  0  0  0
 52124  1  0  0  0
 53 54  1  0  0  0
 54 55  2  0  0  0
 54125  1  0  0  0
 55 57  1  0  0  0
 55126  1  0  0  0
 56 69  2  0  0  0
 57 58  2  0  0  0
 57127  1  0  0  0
 58128  1  0  0  0
 59 60  1  0  0  0
 59 61  1  0  0  0
 59 62  1  0  0  0
 60129  1  0  0  0
 60130  1  0  0  0
 60131  1  0  0  0
 61132  1  0  0  0
 61133  1  0  0  0
 61134  1  0  0  0
 62135  1  0  0  0
 62136  1  0  0  0
 62137  1  0  0  0
 63 65  1  0  0  0
 63138  1  0  0  0
 63139  1  0  0  0
 63140  1  0  0  0
 64141  1  0  0  0
 65142  1  0  0  0
 68 81  1  0  0  0
 71 72  2  0  0  0
 71 76  1  0  0  0
 71 82  1  0  0  0
 72 77  1  0  0  0
 72 83  1  0  0  0
 73 74  1  0  0  0
 73 82  2  0  0  0
 73 83  1  0  0  0
 74143  1  0  0  0
 74144  1  0  0  0
 74145  1  0  0  0
 75 83  1  0  0  0
 75146  1  0  0  0
 75147  1  0  0  0
 75148  1  0  0  0
 76 79  1  0  0  0
 76149  1  0  0  0
 76150  1  0  0  0
 77 80  1  0  0  0
 77151  1  0  0  0
 77152  1  0  0  0
 78 79  1  0  0  0
 78153  1  0  0  0
 78154  1  0  0  0
 79155  1  0  0  0
 79156  1  0  0  0
 80 81  1  0  0  0
 80157  1  0  0  0
 80158  1  0  0  0
 81159  1  0  0  0
 81160  1  0  0  0
M  ISO  4   1 100  68 101  78 100  81 101
M  END
> <chiral flag>
0

> <version>
0

> <s_m_source_file>
/data/baiqing/PycharmProjects/Reinvent-master-3.2/result/LINK_invent/BTK/process_docking_weight1_custom_sum_contain_oxygen_bond_distance_aromatic_linkinvent_7_9_3/rearranged_h_0074.sdf

> <i_m_source_file_index>
94

> <r_mmod_Potential_Energy-OPLS-2005>
128.40364074707

> <r_mmod_Stretch_Energy-OPLS-2005>
111.709426879883

> <r_mmod_Bend_Energy-OPLS-2005>
182.573364257812

> <r_mmod_Torsional_Energy-OPLS-2005>
223.244995117188

> <r_mmod_Improper_Torsional_Energy-OPLS-2005>
7.39371395111084

> <r_mmod_Van_der_Waal_Energy-OPLS-2005>
111.693161010742

> <r_mmod_Electrostatic_Energy-OPLS-2005>
-382.10693359375

> <r_mmod_Solvation_Energy-OPLS-2005>
-203.810729980469

> <b_mmod_Minimization_Converged-OPLS-2005>
0

> <r_mmod_RMS_Derivative-OPLS-2005>
6.21728610992432

$$$$
94
                    3D
 Structure written by MMmdl.
159167  0  0  1  0            999 V2000
  -30.4348  -15.3055   20.3397 C   0  0  0  0  0  0
  -30.4395  -12.8338   19.5297 C   0  0  0  0  0  0
  -29.5424  -12.5858   18.2911 C   0  0  0  0  0  0
  -28.0913  -12.3035   18.7172 C   0  0  0  0  0  0
  -27.6129  -13.2819   19.8202 C   0  0  2  0  0  0
  -28.6457  -13.4785   20.9520 C   0  0  0  0  0  0
  -25.2382  -13.8252   20.5725 C   0  0  0  0  0  0
  -24.1741  -13.0436   20.9252 C   0  0  0  0  0  0
  -24.6412  -11.6937   20.8748 C   0  0  0  0  0  0
  -23.9103  -10.4298   21.0391 C   0  0  0  0  0  0
  -24.3645   -9.4211   21.9177 C   0  0  0  0  0  0
  -23.6312   -8.2241   22.0747 C   0  0  0  0  0  0
  -22.4297   -8.0270   21.3536 C   0  0  0  0  0  0
  -21.9933   -9.0252   20.4638 C   0  0  0  0  0  0
  -22.7270  -10.2134   20.3049 C   0  0  0  0  0  0
  -21.6862   -6.0730   22.5265 C   0  0  0  0  0  0
  -21.4019   -6.5632   23.8198 C   0  0  0  0  0  0
  -21.3669   -5.6781   24.9156 C   0  0  0  0  0  0
  -21.6055   -4.3046   24.7211 C   0  0  0  0  0  0
  -21.8818   -3.8133   23.4329 C   0  0  0  0  0  0
  -21.9189   -4.6956   22.3391 C   0  0  0  0  0  0
  -22.7754  -13.5188   21.1878 C   0  0  0  0  0  0
  -22.1659   -4.2147   21.0971 F   0  0  0  0  0  0
  -21.5644   -3.4524   25.7722 F   0  0  0  0  0  0
  -29.8745  -13.9913   20.3210 N   0  0  0  0  0  0
  -26.2828  -12.9549   20.3201 N   0  0  0  0  0  0
  -25.9353  -11.6649   20.5704 N   0  0  0  0  0  0
  -22.0400  -12.8189   22.0441 N   0  0  0  0  0  0
  -25.4013  -15.1988   20.4169 N   0  0  0  0  0  0
  -31.6552  -15.2916   20.1193 O   0  0  0  0  0  0
  -21.6647   -6.8875   21.4229 O   0  0  0  0  0  0
  -22.3443  -14.5487   20.6700 O   0  0  0  0  0  0
  -24.6658  -31.8217   23.1674 C   0  0  0  0  0  0
  -25.9325  -32.4580   23.8155 C   0  0  1  0  0  0
  -27.2178  -26.9013   20.1898 C   0  0  0  0  0  0
  -25.5969  -33.8395   24.2056 N   0  0  0  0  0  0
  -23.4813  -30.4321   21.5176 C   0  0  2  0  0  0
  -24.9342  -28.8097   20.1183 C   0  0  0  0  0  0
  -22.7671  -29.4440   22.4780 C   0  0  0  0  0  0
  -18.0321  -28.1403   22.8458 C   0  0  0  0  0  0
  -24.1499  -36.7210   23.2648 C   0  0  0  0  0  0
  -26.0518  -30.6214   21.3988 C   0  0  0  0  0  0
  -26.1201  -29.2058   20.7484 C   0  0  0  0  0  0
  -27.2576  -28.2745   20.7534 C   0  0  0  0  0  0
  -25.9980  -26.6602   19.5189 C   0  0  0  0  0  0
  -24.8991  -27.5580   19.4835 C   0  0  0  0  0  0
  -23.7222  -29.7411   20.1472 C   0  0  0  0  0  0
  -25.4137  -36.2966   24.0298 C   0  0  1  0  0  0
  -20.5948  -28.3756   23.1184 C   0  0  2  0  0  0
  -20.6795  -26.9435   22.5409 C   0  0  0  0  0  0
  -19.5778  -26.6374   21.5213 C   0  0  0  0  0  0
  -18.1955  -26.7935   22.1615 C   0  0  0  0  0  0
  -19.1580  -28.8899   23.2807 C   0  0  0  0  0  0
  -18.9489  -30.1479   23.8856 C   0  0  0  0  0  0
  -17.6485  -30.6599   24.0550 C   0  0  0  0  0  0
  -25.9098  -34.9346   23.5007 C   0  0  0  0  0  0
  -16.5376  -29.9092   23.6336 C   0  0  0  0  0  0
  -16.7301  -28.6505   23.0368 C   0  0  0  0  0  0
  -26.4560  -31.6531   25.0694 C   0  0  0  0  0  0
  -25.3670  -31.3798   26.1338 C   0  0  0  0  0  0
  -27.0447  -30.2891   24.6436 C   0  0  0  0  0  0
  -27.6058  -32.4333   25.7503 C   0  0  0  0  0  0
  -27.5572  -37.1762   24.8454 C   0  0  0  0  0  0
  -21.4341  -29.3047   22.3532 N   0  0  0  0  0  0
  -26.4276  -37.3709   23.9402 N   0  0  0  0  0  0
  -24.7552  -30.9852   22.0813 N   0  0  0  0  0  0
  -23.4196  -28.8012   23.3036 O   0  0  0  0  0  0
  -28.2409  -25.8056   20.2059 O   0  0  0  0  0  0
  -26.5724  -34.8890   22.4604 O   0  0  0  0  0  0
  -23.5727  -32.1203   23.6744 O   0  0  0  0  0  0
  -29.8792  -23.6000   18.9948 C   0  0  0  0  0  0
  -30.6177  -21.5778   18.9494 C   0  0  0  0  0  0
  -29.4959  -21.4711   19.7915 C   0  0  0  0  0  0
  -33.6258  -21.3327   19.8283 C   0  0  0  0  0  0
  -31.2057  -20.1069   16.9917 C   0  0  0  0  0  0
  -29.1163  -19.8346   20.3388 C   0  0  0  0  0  0
  -33.0737  -21.0793   18.4188 C   0  0  0  0  0  0
  -29.9805  -18.2274   20.1008 C   0  0  0  0  0  0
  -27.9695  -24.1974   20.3559 C   0  0  0  0  0  0
  -31.6119  -20.5679   18.4025 C   0  0  1  0  0  0
  -30.7902  -22.8506   18.4335 N   0  0  0  0  0  0
  -29.0252  -23.0128   19.8343 N   0  0  0  0  0  0
  -29.6827  -16.5955   20.4016 N   0  0  0  0  0  0
  -31.4596  -13.0318   19.1992 H   0  0  0  0  0  0
  -30.5081  -11.9378   20.1480 H   0  0  0  0  0  0
  -29.9310  -11.7578   17.6974 H   0  0  0  0  0  0
  -29.5660  -13.4635   17.6438 H   0  0  0  0  0  0
  -28.0513  -11.2817   19.0964 H   0  0  0  0  0  0
  -27.4249  -12.3354   17.8550 H   0  0  0  0  0  0
  -27.5224  -14.2439   19.3131 H   0  0  0  0  0  0
  -28.8214  -12.5544   21.5054 H   0  0  0  0  0  0
  -28.2814  -14.2090   21.6753 H   0  0  0  0  0  0
  -25.2786   -9.5695   22.4749 H   0  0  0  0  0  0
  -24.0011   -7.4653   22.7489 H   0  0  0  0  0  0
  -21.0856   -8.8774   19.8975 H   0  0  0  0  0  0
  -22.3707  -10.9666   19.6156 H   0  0  0  0  0  0
  -21.2011   -7.6141   23.9699 H   0  0  0  0  0  0
  -21.1503   -6.0512   25.9066 H   0  0  0  0  0  0
  -22.0596   -2.7594   23.2815 H   0  0  0  0  0  0
  -22.4026  -11.9878   22.4888 H   0  0  0  0  0  0
  -21.1006  -13.1215   22.2610 H   0  0  0  0  0  0
  -24.6306  -15.8486   20.5307 H   0  0  0  0  0  0
  -26.2414  -15.6369   20.0631 H   0  0  0  0  0  0
  -26.7398  -32.5113   23.0874 H   0  0  0  0  0  0
  -25.0031  -33.9468   25.0153 H   0  0  0  0  0  0
  -22.7957  -31.2641   21.3428 H   0  0  0  0  0  0
  -23.3779  -35.9521   23.3270 H   0  0  0  0  0  0
  -24.3592  -36.8902   22.2073 H   0  0  0  0  0  0
  -23.7242  -37.6377   23.6737 H   0  0  0  0  0  0
  -26.2269  -31.3592   20.6144 H   0  0  0  0  0  0
  -26.9132  -30.6859   22.0517 H   0  0  0  0  0  0
  -28.1610  -28.5815   21.2607 H   0  0  0  0  0  0
  -25.8644  -25.7096   19.0232 H   0  0  0  0  0  0
  -23.9984  -27.2505   18.9704 H   0  0  0  0  0  0
  -23.8781  -30.5046   19.3850 H   0  0  0  0  0  0
  -22.8310  -29.1957   19.8327 H   0  0  0  0  0  0
  -25.1344  -36.1762   25.0793 H   0  0  0  0  0  0
  -21.0022  -28.3371   24.1313 H   0  0  0  0  0  0
  -20.5662  -26.2381   23.3654 H   0  0  0  0  0  0
  -21.6660  -26.7409   22.1229 H   0  0  0  0  0  0
  -19.6941  -25.6270   21.1282 H   0  0  0  0  0  0
  -19.6718  -27.3152   20.6716 H   0  0  0  0  0  0
  -17.4225  -26.6670   21.4018 H   0  0  0  0  0  0
  -18.0347  -26.0088   22.9021 H   0  0  0  0  0  0
  -19.7963  -30.7291   24.2222 H   0  0  0  0  0  0
  -17.5046  -31.6276   24.5158 H   0  0  0  0  0  0
  -15.5375  -30.2988   23.7681 H   0  0  0  0  0  0
  -15.8696  -28.0811   22.7122 H   0  0  0  0  0  0
  -24.5871  -30.7125   25.7650 H   0  0  0  0  0  0
  -24.8822  -32.2993   26.4618 H   0  0  0  0  0  0
  -25.7882  -30.9063   27.0209 H   0  0  0  0  0  0
  -26.3105  -29.6563   24.1425 H   0  0  0  0  0  0
  -27.3947  -29.7275   25.5108 H   0  0  0  0  0  0
  -27.9066  -30.4070   23.9869 H   0  0  0  0  0  0
  -27.2638  -33.3682   26.1955 H   0  0  0  0  0  0
  -28.3935  -32.6801   25.0375 H   0  0  0  0  0  0
  -28.0636  -31.8521   26.5514 H   0  0  0  0  0  0
  -28.2561  -38.0087   24.7519 H   0  0  0  0  0  0
  -28.1095  -36.2610   24.6254 H   0  0  0  0  0  0
  -27.2286  -37.1372   25.8857 H   0  0  0  0  0  0
  -20.9601  -29.8734   21.6660 H   0  0  0  0  0  0
  -26.0123  -38.2765   24.1416 H   0  0  0  0  0  0
  -29.8237  -24.6514   18.7522 H   0  0  0  0  0  0
  -34.6106  -21.7974   19.7806 H   0  0  0  0  0  0
  -33.7252  -20.3987   20.3827 H   0  0  0  0  0  0
  -32.9770  -21.9971   20.3998 H   0  0  0  0  0  0
  -30.2122  -19.6606   16.9925 H   0  0  0  0  0  0
  -31.8987  -19.3599   16.6040 H   0  0  0  0  0  0
  -31.1912  -20.9401   16.2874 H   0  0  0  0  0  0
  -28.1023  -19.6503   19.9839 H   0  0  0  0  0  0
  -28.9919  -19.9176   21.4181 H   0  0  0  0  0  0
  -33.7193  -20.3483   17.9294 H   0  0  0  0  0  0
  -33.1647  -21.9903   17.8239 H   0  0  0  0  0  0
  -30.9630  -18.3649   20.5523 H   0  0  0  0  0  0
  -30.1539  -18.1804   19.0265 H   0  0  0  0  0  0
  -27.8067  -24.0074   21.4179 H   0  0  0  0  0  0
  -27.0248  -23.9805   19.8596 H   0  0  0  0  0  0
  -31.6560  -19.6998   19.0388 H   0  0  0  0  0  0
  -28.7041  -16.4217   20.5858 H   0  0  0  0  0  0
  1 25  1  0  0  0
  1 30  2  0  0  0
  1 83  1  0  0  0
  2  3  1  0  0  0
  2 25  1  0  0  0
  2 84  1  0  0  0
  2 85  1  0  0  0
  3  4  1  0  0  0
  3 86  1  0  0  0
  3 87  1  0  0  0
  4  5  1  0  0  0
  4 88  1  0  0  0
  4 89  1  0  0  0
  5  6  1  0  0  0
  5 26  1  0  0  0
  5 90  1  0  0  0
  6 25  1  0  0  0
  6 91  1  0  0  0
  6 92  1  0  0  0
  7  8  2  0  0  0
  7 26  1  0  0  0
  7 29  1  0  0  0
  8  9  1  0  0  0
  8 22  1  0  0  0
  9 10  1  0  0  0
  9 27  2  0  0  0
 10 11  2  0  0  0
 10 15  1  0  0  0
 11 12  1  0  0  0
 11 93  1  0  0  0
 12 13  2  0  0  0
 12 94  1  0  0  0
 13 14  1  0  0  0
 13 31  1  0  0  0
 14 15  2  0  0  0
 14 95  1  0  0  0
 15 96  1  0  0  0
 16 17  2  0  0  0
 16 21  1  0  0  0
 16 31  1  0  0  0
 17 18  1  0  0  0
 17 97  1  0  0  0
 18 19  2  0  0  0
 18 98  1  0  0  0
 19 20  1  0  0  0
 19 24  1  0  0  0
 20 21  2  0  0  0
 20 99  1  0  0  0
 21 23  1  0  0  0
 22 28  1  0  0  0
 22 32  2  0  0  0
 26 27  1  0  0  0
 28100  1  0  0  0
 28101  1  0  0  0
 29102  1  0  0  0
 29103  1  0  0  0
 33 34  1  0  0  0
 33 66  1  0  0  0
 33 70  2  0  0  0
 34 36  1  0  0  0
 34 59  1  0  0  0
 34104  1  0  0  0
 35 44  2  0  0  0
 35 45  1  0  0  0
 35 68  1  0  0  0
 36 56  1  0  0  0
 36105  1  0  0  0
 37 39  1  0  0  0
 37 47  1  0  0  0
 37 66  1  0  0  0
 37106  1  0  0  0
 38 43  2  0  0  0
 38 46  1  0  0  0
 38 47  1  0  0  0
 39 64  1  0  0  0
 39 67  2  0  0  0
 40 52  1  0  0  0
 40 53  2  0  0  0
 40 58  1  0  0  0
 41107  1  0  0  0
 41108  1  0  0  0
 41109  1  0  0  0
 41 48  1  0  0  0
 42 43  1  0  0  0
 42 66  1  0  0  0
 42110  1  0  0  0
 42111  1  0  0  0
 43 44  1  0  0  0
 44112  1  0  0  0
 45 46  2  0  0  0
 45113  1  0  0  0
 46114  1  0  0  0
 47115  1  0  0  0
 47116  1  0  0  0
 48 56  1  0  0  0
 48 65  1  0  0  0
 48117  1  0  0  0
 49 50  1  0  0  0
 49 53  1  0  0  0
 49 64  1  0  0  0
 49118  1  0  0  0
 50 51  1  0  0  0
 50119  1  0  0  0
 50120  1  0  0  0
 51 52  1  0  0  0
 51121  1  0  0  0
 51122  1  0  0  0
 52123  1  0  0  0
 52124  1  0  0  0
 53 54  1  0  0  0
 54 55  2  0  0  0
 54125  1  0  0  0
 55 57  1  0  0  0
 55126  1  0  0  0
 56 69  2  0  0  0
 57 58  2  0  0  0
 57127  1  0  0  0
 58128  1  0  0  0
 59 60  1  0  0  0
 59 61  1  0  0  0
 59 62  1  0  0  0
 60129  1  0  0  0
 60130  1  0  0  0
 60131  1  0  0  0
 61132  1  0  0  0
 61133  1  0  0  0
 61134  1  0  0  0
 62135  1  0  0  0
 62136  1  0  0  0
 62137  1  0  0  0
 63 65  1  0  0  0
 63138  1  0  0  0
 63139  1  0  0  0
 63140  1  0  0  0
 64141  1  0  0  0
 65142  1  0  0  0
 68 79  1  0  0  0
 71 81  2  0  0  0
 71 82  1  0  0  0
 71143  1  0  0  0
 72 73  2  0  0  0
 72 80  1  0  0  0
 72 81  1  0  0  0
 73 76  1  0  0  0
 73 82  1  0  0  0
 74 77  1  0  0  0
 74144  1  0  0  0
 74145  1  0  0  0
 74146  1  0  0  0
 75147  1  0  0  0
 75148  1  0  0  0
 75149  1  0  0  0
 75 80  1  0  0  0
 76 78  1  0  0  0
 76150  1  0  0  0
 76151  1  0  0  0
 77 80  1  0  0  0
 77152  1  0  0  0
 77153  1  0  0  0
 78 83  1  0  0  0
 78154  1  0  0  0
 78155  1  0  0  0
 79 82  1  0  0  0
 79156  1  0  0  0
 79157  1  0  0  0
 80158  1  0  0  0
 83159  1  0  0  0
M  ISO  4   1 100  68 101  79 101  83 100
M  END
> <chiral flag>
0

> <version>
0

> <s_m_source_file>
/data/baiqing/PycharmProjects/Reinvent-master-3.2/result/LINK_invent/BTK/process_docking_weight1_custom_sum_contain_oxygen_bond_distance_aromatic_linkinvent_7_9_3/rearranged_h_0074.sdf

> <i_m_source_file_index>
95

> <r_mmod_Potential_Energy-OPLS-2005>
1437.31323242188

> <r_mmod_Stretch_Energy-OPLS-2005>
715.04150390625

> <r_mmod_Bend_Energy-OPLS-2005>
512.280456542969

> <r_mmod_Torsional_Energy-OPLS-2005>
205.990966796875

> <r_mmod_Improper_Torsional_Energy-OPLS-2005>
4.5924220085144

> <r_mmod_Van_der_Waal_Energy-OPLS-2005>
116.203002929688

> <r_mmod_Electrostatic_Energy-OPLS-2005>
-381.919067382812

> <r_mmod_Solvation_Energy-OPLS-2005>
-226.829788208008

> <b_mmod_Minimization_Converged-OPLS-2005>
0

> <r_mmod_RMS_Derivative-OPLS-2005>
2.3293936252594

$$$$
95
                    3D
 Structure written by MMmdl.
168176  0  0  1  0            999 V2000
  -30.7100  -14.5467   20.2072 C   0  0  0  0  0  0
  -30.4115  -12.2738   19.4190 C   0  0  0  0  0  0
  -29.4781  -12.3135   18.1934 C   0  0  0  0  0  0
  -27.9929  -12.2954   18.6218 C   0  0  0  0  0  0
  -27.6381  -13.2032   19.8365 C   0  0  2  0  0  0
  -28.7196  -13.1508   20.9368 C   0  0  0  0  0  0
  -25.2548  -13.8113   20.5803 C   0  0  0  0  0  0
  -24.1794  -13.0393   20.9264 C   0  0  0  0  0  0
  -24.6362  -11.6870   20.8818 C   0  0  0  0  0  0
  -23.9026  -10.4270   21.0447 C   0  0  0  0  0  0
  -24.3587   -9.4187   21.9213 C   0  0  0  0  0  0
  -23.6261   -8.2219   22.0764 C   0  0  0  0  0  0
  -22.4246   -8.0263   21.3547 C   0  0  0  0  0  0
  -21.9891   -9.0239   20.4652 C   0  0  0  0  0  0
  -22.7210  -10.2127   20.3071 C   0  0  0  0  0  0
  -21.6851   -6.0705   22.5277 C   0  0  0  0  0  0
  -21.3998   -6.5613   23.8201 C   0  0  0  0  0  0
  -21.3661   -5.6775   24.9172 C   0  0  0  0  0  0
  -21.6053   -4.3035   24.7239 C   0  0  0  0  0  0
  -21.8822   -3.8124   23.4359 C   0  0  0  0  0  0
  -21.9188   -4.6933   22.3411 C   0  0  0  0  0  0
  -22.7814  -13.5205   21.1885 C   0  0  0  0  0  0
  -22.1652   -4.2112   21.0989 F   0  0  0  0  0  0
  -21.5658   -3.4530   25.7761 F   0  0  0  0  0  0
  -30.0344  -13.3687   20.3149 N   0  0  0  0  0  0
  -26.2958  -12.9266   20.3405 N   0  0  0  0  0  0
  -25.9306  -11.6447   20.5925 N   0  0  0  0  0  0
  -22.0434  -12.8211   22.0437 N   0  0  0  0  0  0
  -25.4245  -15.1836   20.4294 N   0  0  0  0  0  0
  -31.8876  -14.6162   20.5432 O   0  0  0  0  0  0
  -21.6616   -6.8853   21.4236 O   0  0  0  0  0  0
  -22.3516  -14.5514   20.6743 O   0  0  0  0  0  0
  -24.6116  -31.8694   23.2113 C   0  0  0  0  0  0
  -25.9018  -32.4824   23.8403 C   0  0  1  0  0  0
  -27.2330  -27.4560   20.0977 C   0  0  0  0  0  0
  -25.5886  -33.8618   24.2328 N   0  0  0  0  0  0
  -23.3980  -30.4921   21.5509 C   0  0  2  0  0  0
  -24.8461  -28.9594   20.1161 C   0  0  0  0  0  0
  -22.7394  -29.4643   22.4990 C   0  0  0  0  0  0
  -18.0288  -28.1333   22.8505 C   0  0  0  0  0  0
  -24.1491  -36.7333   23.2636 C   0  0  0  0  0  0
  -25.9245  -30.8419   21.3617 C   0  0  0  0  0  0
  -26.0034  -29.4751   20.7154 C   0  0  0  0  0  0
  -27.2014  -28.7274   20.7090 C   0  0  0  0  0  0
  -26.0668  -26.9503   19.4902 C   0  0  0  0  0  0
  -24.8703  -27.6927   19.5044 C   0  0  0  0  0  0
  -23.6065  -29.8232   20.1650 C   0  0  0  0  0  0
  -25.4106  -36.3114   24.0334 C   0  0  1  0  0  0
  -20.5871  -28.3613   23.1325 C   0  0  2  0  0  0
  -20.6763  -26.9340   22.5440 C   0  0  0  0  0  0
  -19.5730  -26.6301   21.5256 C   0  0  0  0  0  0
  -18.1920  -26.7870   22.1665 C   0  0  0  0  0  0
  -19.1539  -28.8788   23.2905 C   0  0  0  0  0  0
  -18.9479  -30.1411   23.8873 C   0  0  0  0  0  0
  -17.6481  -30.6550   24.0543 C   0  0  0  0  0  0
  -25.9027  -34.9478   23.5125 C   0  0  0  0  0  0
  -16.5372  -29.9052   23.6312 C   0  0  0  0  0  0
  -16.7289  -28.6470   23.0331 C   0  0  0  0  0  0
  -26.4464  -31.6591   25.0715 C   0  0  0  0  0  0
  -25.3751  -31.3681   26.1477 C   0  0  0  0  0  0
  -27.0284  -30.3041   24.6057 C   0  0  0  0  0  0
  -27.6042  -32.4312   25.7470 C   0  0  0  0  0  0
  -27.5577  -37.1819   24.8460 C   0  0  0  0  0  0
  -21.4127  -29.2976   22.3717 N   0  0  0  0  0  0
  -26.4292  -37.3795   23.9398 N   0  0  0  0  0  0
  -24.6624  -31.0814   22.1002 N   0  0  0  0  0  0
  -23.4183  -28.8192   23.3032 O   0  0  0  0  0  0
  -28.3968  -26.7315   20.0422 O   0  0  0  0  0  0
  -26.5595  -34.8928   22.4689 O   0  0  0  0  0  0
  -23.5312  -32.1435   23.7520 O   0  0  0  0  0  0
  -28.3049  -20.9594   21.1158 C   0  0  0  0  0  0
  -28.3010  -19.6089   21.3560 C   0  0  0  0  0  0
  -27.6385  -18.7940   22.4241 C   0  0  0  0  0  0
  -27.7059  -17.4498   18.9973 C   0  0  0  0  0  0
  -31.5470  -17.5963   20.0101 C   0  0  0  0  0  0
  -30.5177  -17.7044   17.7457 C   0  0  0  0  0  0
  -27.5720  -22.0622   21.8379 C   0  0  0  0  0  0
  -28.3317  -23.4038   21.9632 C   0  0  0  0  0  0
  -28.0078  -24.4341   20.8555 C   0  0  0  0  0  0
  -28.6020  -25.8324   21.1328 C   0  0  0  0  0  0
  -28.9914  -17.6427   19.8399 C   0  0  1  0  0  0
  -30.3828  -15.5227   19.0105 C   0  0  0  0  0  0
  -30.3371  -17.1085   19.1792 C   0  0  0  0  0  0
  -28.9687  -21.1837   19.9147 N   0  0  0  0  0  0
  -29.3534  -20.0504   19.4215 N   0  0  0  0  0  0
  -28.9636  -19.0598   20.2653 N   0  0  0  0  0  0
  -29.2713  -15.1716   18.3891 F   0  0  0  0  0  0
  -31.3551  -15.2671   18.1274 F   0  0  0  0  0  0
  -31.4568  -12.3426   19.1066 H   0  0  0  0  0  0
  -30.3128  -11.3207   19.9412 H   0  0  0  0  0  0
  -29.6731  -11.4374   17.5741 H   0  0  0  0  0  0
  -29.7065  -13.1487   17.5371 H   0  0  0  0  0  0
  -27.7685  -11.2594   18.8784 H   0  0  0  0  0  0
  -27.3514  -12.5316   17.7727 H   0  0  0  0  0  0
  -27.5928  -14.2199   19.4716 H   0  0  0  0  0  0
  -28.7054  -12.1841   21.4408 H   0  0  0  0  0  0
  -28.5301  -13.9047   21.7025 H   0  0  0  0  0  0
  -25.2727   -9.5659   22.4798 H   0  0  0  0  0  0
  -23.9977   -7.4602   22.7472 H   0  0  0  0  0  0
  -21.0828   -8.8750   19.8949 H   0  0  0  0  0  0
  -22.3662  -10.9671   19.6187 H   0  0  0  0  0  0
  -21.1958   -7.6117   23.9685 H   0  0  0  0  0  0
  -21.1491   -6.0515   25.9070 H   0  0  0  0  0  0
  -22.0600   -2.7580   23.2883 H   0  0  0  0  0  0
  -22.3993  -11.9854   22.4844 H   0  0  0  0  0  0
  -21.1074  -13.1293   22.2636 H   0  0  0  0  0  0
  -24.6626  -15.8393   20.5592 H   0  0  0  0  0  0
  -26.2779  -15.6230   20.1133 H   0  0  0  0  0  0
  -26.7093  -32.5557   23.1176 H   0  0  0  0  0  0
  -25.0023  -33.9783   25.0463 H   0  0  0  0  0  0
  -22.6850  -31.3066   21.4116 H   0  0  0  0  0  0
  -23.3739  -35.9682   23.3310 H   0  0  0  0  0  0
  -24.3594  -36.8935   22.2050 H   0  0  0  0  0  0
  -23.7265  -37.6549   23.6649 H   0  0  0  0  0  0
  -26.0288  -31.6057   20.5905 H   0  0  0  0  0  0
  -26.8153  -30.9006   21.9751 H   0  0  0  0  0  0
  -28.1005  -29.1216   21.1617 H   0  0  0  0  0  0
  -26.0860  -25.9858   19.0022 H   0  0  0  0  0  0
  -23.9806  -27.2889   19.0400 H   0  0  0  0  0  0
  -23.7107  -30.5966   19.4032 H   0  0  0  0  0  0
  -22.7325  -29.2382   19.8719 H   0  0  0  0  0  0
  -25.1287  -36.1981   25.0828 H   0  0  0  0  0  0
  -20.9972  -28.3184   24.1445 H   0  0  0  0  0  0
  -21.6632  -26.7370   22.1224 H   0  0  0  0  0  0
  -20.5683  -26.2232   23.3641 H   0  0  0  0  0  0
  -19.6876  -25.6189   21.1324 H   0  0  0  0  0  0
  -19.6669  -27.3081   20.6767 H   0  0  0  0  0  0
  -17.4195  -26.6638   21.4054 H   0  0  0  0  0  0
  -18.0288  -26.0020   22.9063 H   0  0  0  0  0  0
  -19.7950  -30.7231   24.2224 H   0  0  0  0  0  0
  -17.5035  -31.6227   24.5144 H   0  0  0  0  0  0
  -15.5368  -30.2942   23.7627 H   0  0  0  0  0  0
  -15.8693  -28.0798   22.7024 H   0  0  0  0  0  0
  -24.5927  -30.7018   25.7826 H   0  0  0  0  0  0
  -24.8945  -32.2831   26.4952 H   0  0  0  0  0  0
  -25.8134  -30.8844   27.0214 H   0  0  0  0  0  0
  -26.2817  -29.6814   24.1123 H   0  0  0  0  0  0
  -27.4078  -29.7257   25.4488 H   0  0  0  0  0  0
  -27.8639  -30.4363   23.9179 H   0  0  0  0  0  0
  -27.2657  -33.3593   26.2083 H   0  0  0  0  0  0
  -28.3832  -32.6897   25.0288 H   0  0  0  0  0  0
  -28.0738  -31.8421   26.5356 H   0  0  0  0  0  0
  -28.2603  -38.0109   24.7495 H   0  0  0  0  0  0
  -28.1068  -36.2641   24.6303 H   0  0  0  0  0  0
  -27.2299  -37.1486   25.8864 H   0  0  0  0  0  0
  -20.9276  -29.8672   21.6927 H   0  0  0  0  0  0
  -26.0188  -38.2874   24.1398 H   0  0  0  0  0  0
  -28.3371  -18.0886   22.8755 H   0  0  0  0  0  0
  -26.8053  -18.2240   22.0125 H   0  0  0  0  0  0
  -27.2459  -19.4212   23.2227 H   0  0  0  0  0  0
  -27.4556  -16.4165   18.7905 H   0  0  0  0  0  0
  -27.7688  -17.9691   18.0416 H   0  0  0  0  0  0
  -26.8393  -17.8655   19.5132 H   0  0  0  0  0  0
  -32.4763  -17.1648   19.6339 H   0  0  0  0  0  0
  -31.4550  -17.3125   21.0585 H   0  0  0  0  0  0
  -31.6664  -18.6794   19.9724 H   0  0  0  0  0  0
  -29.7440  -17.3550   17.0626 H   0  0  0  0  0  0
  -31.4748  -17.4237   17.3047 H   0  0  0  0  0  0
  -30.5182  -18.7879   17.7014 H   0  0  0  0  0  0
  -27.3474  -21.7193   22.8477 H   0  0  0  0  0  0
  -26.5966  -22.2199   21.3764 H   0  0  0  0  0  0
  -29.4061  -23.2291   22.0338 H   0  0  0  0  0  0
  -28.0417  -23.8538   22.9127 H   0  0  0  0  0  0
  -26.9267  -24.5245   20.7530 H   0  0  0  0  0  0
  -28.3742  -24.0664   19.8975 H   0  0  0  0  0  0
  -29.6778  -25.7480   21.2855 H   0  0  0  0  0  0
  -28.1991  -26.2449   22.0595 H   0  0  0  0  0  0
  -28.8597  -17.0561   20.7478 H   0  0  0  0  0  0
  1 25  1  0  0  0
  1 30  2  0  0  0
  1 82  1  0  0  0
  2  3  1  0  0  0
  2 25  1  0  0  0
  2 89  1  0  0  0
  2 90  1  0  0  0
  3  4  1  0  0  0
  3 91  1  0  0  0
  3 92  1  0  0  0
  4  5  1  0  0  0
  4 93  1  0  0  0
  4 94  1  0  0  0
  5  6  1  0  0  0
  5 26  1  0  0  0
  5 95  1  0  0  0
  6 25  1  0  0  0
  6 96  1  0  0  0
  6 97  1  0  0  0
  7  8  2  0  0  0
  7 26  1  0  0  0
  7 29  1  0  0  0
  8  9  1  0  0  0
  8 22  1  0  0  0
  9 10  1  0  0  0
  9 27  2  0  0  0
 10 11  2  0  0  0
 10 15  1  0  0  0
 11 12  1  0  0  0
 11 98  1  0  0  0
 12 13  2  0  0  0
 12 99  1  0  0  0
 13 14  1  0  0  0
 13 31  1  0  0  0
 14 15  2  0  0  0
 14100  1  0  0  0
 15101  1  0  0  0
 16 17  2  0  0  0
 16 21  1  0  0  0
 16 31  1  0  0  0
 17 18  1  0  0  0
 17102  1  0  0  0
 18 19  2  0  0  0
 18103  1  0  0  0
 19 20  1  0  0  0
 19 24  1  0  0  0
 20 21  2  0  0  0
 20104  1  0  0  0
 21 23  1  0  0  0
 22 28  1  0  0  0
 22 32  2  0  0  0
 26 27  1  0  0  0
 28105  1  0  0  0
 28106  1  0  0  0
 29107  1  0  0  0
 29108  1  0  0  0
 33 34  1  0  0  0
 33 66  1  0  0  0
 33 70  2  0  0  0
 34 36  1  0  0  0
 34 59  1  0  0  0
 34109  1  0  0  0
 35 44  2  0  0  0
 35 45  1  0  0  0
 35 68  1  0  0  0
 36 56  1  0  0  0
 36110  1  0  0  0
 37 39  1  0  0  0
 37 47  1  0  0  0
 37 66  1  0  0  0
 37111  1  0  0  0
 38 43  2  0  0  0
 38 46  1  0  0  0
 38 47  1  0  0  0
 39 64  1  0  0  0
 39 67  2  0  0  0
 40 52  1  0  0  0
 40 53  2  0  0  0
 40 58  1  0  0  0
 41112  1  0  0  0
 41113  1  0  0  0
 41114  1  0  0  0
 41 48  1  0  0  0
 42 43  1  0  0  0
 42 66  1  0  0  0
 42115  1  0  0  0
 42116  1  0  0  0
 43 44  1  0  0  0
 44117  1  0  0  0
 45 46  2  0  0  0
 45118  1  0  0  0
 46119  1  0  0  0
 47120  1  0  0  0
 47121  1  0  0  0
 48 56  1  0  0  0
 48 65  1  0  0  0
 48122  1  0  0  0
 49 50  1  0  0  0
 49 53  1  0  0  0
 49 64  1  0  0  0
 49123  1  0  0  0
 50 51  1  0  0  0
 50124  1  0  0  0
 50125  1  0  0  0
 51 52  1  0  0  0
 51126  1  0  0  0
 51127  1  0  0  0
 52128  1  0  0  0
 52129  1  0  0  0
 53 54  1  0  0  0
 54 55  2  0  0  0
 54130  1  0  0  0
 55 57  1  0  0  0
 55131  1  0  0  0
 56 69  2  0  0  0
 57 58  2  0  0  0
 57132  1  0  0  0
 58133  1  0  0  0
 59 60  1  0  0  0
 59 61  1  0  0  0
 59 62  1  0  0  0
 60134  1  0  0  0
 60135  1  0  0  0
 60136  1  0  0  0
 61137  1  0  0  0
 61138  1  0  0  0
 61139  1  0  0  0
 62140  1  0  0  0
 62141  1  0  0  0
 62142  1  0  0  0
 63 65  1  0  0  0
 63143  1  0  0  0
 63144  1  0  0  0
 63145  1  0  0  0
 64146  1  0  0  0
 65147  1  0  0  0
 68 80  1  0  0  0
 71 72  2  0  0  0
 71 77  1  0  0  0
 71 84  1  0  0  0
 72 73  1  0  0  0
 72 86  1  0  0  0
 73148  1  0  0  0
 73149  1  0  0  0
 73150  1  0  0  0
 74151  1  0  0  0
 74152  1  0  0  0
 74153  1  0  0  0
 74 81  1  0  0  0
 75154  1  0  0  0
 75155  1  0  0  0
 75156  1  0  0  0
 75 83  1  0  0  0
 76 83  1  0  0  0
 76157  1  0  0  0
 76158  1  0  0  0
 76159  1  0  0  0
 77 78  1  0  0  0
 77160  1  0  0  0
 77161  1  0  0  0
 78 79  1  0  0  0
 78162  1  0  0  0
 78163  1  0  0  0
 79 80  1  0  0  0
 79164  1  0  0  0
 79165  1  0  0  0
 80166  1  0  0  0
 80167  1  0  0  0
 81 83  1  0  0  0
 81 86  1  0  0  0
 81168  1  0  0  0
 82 83  1  0  0  0
 82 87  1  0  0  0
 82 88  1  0  0  0
 84 85  2  0  0  0
 85 86  1  0  0  0
M  ISO  4   1 100  68 101  80 101  82 100
M  END
> <chiral flag>
0

> <version>
0

> <s_m_source_file>
/data/baiqing/PycharmProjects/Reinvent-master-3.2/result/LINK_invent/BTK/process_docking_weight1_custom_sum_contain_oxygen_bond_distance_aromatic_linkinvent_7_9_3/rearranged_h_0074.sdf

> <i_m_source_file_index>
96

> <r_mmod_Potential_Energy-OPLS-2005>
257.313781738281

> <r_mmod_Stretch_Energy-OPLS-2005>
48.3803520202637

> <r_mmod_Bend_Energy-OPLS-2005>
135.110961914062

> <r_mmod_Torsional_Energy-OPLS-2005>
290.127532958984

> <r_mmod_Improper_Torsional_Energy-OPLS-2005>
29.5241451263428

> <r_mmod_Van_der_Waal_Energy-OPLS-2005>
142.207260131836

> <r_mmod_Electrostatic_Energy-OPLS-2005>
-269.602996826172

> <r_mmod_Solvation_Energy-OPLS-2005>
-190.463516235352

> <b_mmod_Minimization_Converged-OPLS-2005>
0

> <r_mmod_RMS_Derivative-OPLS-2005>
2.10280513763428

$$$$
96
                    3D
 Structure written by MMmdl.
170178  0  0  1  0            999 V2000
  -30.7746  -14.5953   20.4921 C   0  0  0  0  0  0
  -30.4054  -12.3918   19.4388 C   0  0  0  0  0  0
  -29.4896  -12.4906   18.2041 C   0  0  0  0  0  0
  -28.0155  -12.3454   18.6263 C   0  0  0  0  0  0
  -27.6380  -13.2356   19.8421 C   0  0  2  0  0  0
  -28.6976  -13.1654   20.9699 C   0  0  0  0  0  0
  -25.2476  -13.8185   20.5713 C   0  0  0  0  0  0
  -24.1786  -13.0433   20.9227 C   0  0  0  0  0  0
  -24.6423  -11.6903   20.8802 C   0  0  0  0  0  0
  -23.9122  -10.4287   21.0487 C   0  0  0  0  0  0
  -24.3619   -9.4148   21.9241 C   0  0  0  0  0  0
  -23.6283   -8.2165   22.0760 C   0  0  0  0  0  0
  -22.4263   -8.0270   21.3568 C   0  0  0  0  0  0
  -21.9952   -9.0253   20.4653 C   0  0  0  0  0  0
  -22.7299  -10.2119   20.3103 C   0  0  0  0  0  0
  -21.6829   -6.0704   22.5292 C   0  0  0  0  0  0
  -21.4000   -6.5613   23.8227 C   0  0  0  0  0  0
  -21.3675   -5.6774   24.9213 C   0  0  0  0  0  0
  -21.6063   -4.3046   24.7268 C   0  0  0  0  0  0
  -21.8777   -3.8119   23.4390 C   0  0  0  0  0  0
  -21.9172   -4.6926   22.3444 C   0  0  0  0  0  0
  -22.7812  -13.5205   21.1859 C   0  0  0  0  0  0
  -22.1618   -4.2106   21.1032 F   0  0  0  0  0  0
  -21.5657   -3.4539   25.7788 F   0  0  0  0  0  0
  -29.9984  -13.4719   20.3595 N   0  0  0  0  0  0
  -26.2943  -12.9431   20.3313 N   0  0  0  0  0  0
  -25.9357  -11.6565   20.5811 N   0  0  0  0  0  0
  -22.0471  -12.8209   22.0448 N   0  0  0  0  0  0
  -25.4019  -15.1867   20.3949 N   0  0  0  0  0  0
  -31.9835  -14.5085   20.2656 O   0  0  0  0  0  0
  -21.6602   -6.8872   21.4264 O   0  0  0  0  0  0
  -22.3519  -14.5488   20.6691 O   0  0  0  0  0  0
  -24.6213  -31.8665   23.2117 C   0  0  0  0  0  0
  -25.9110  -32.4756   23.8415 C   0  0  1  0  0  0
  -27.2178  -27.4140   20.0784 C   0  0  0  0  0  0
  -25.6008  -33.8572   24.2330 N   0  0  0  0  0  0
  -23.4103  -30.4907   21.5495 C   0  0  2  0  0  0
  -24.8447  -28.9558   20.1023 C   0  0  0  0  0  0
  -22.7480  -29.4681   22.5003 C   0  0  0  0  0  0
  -18.0298  -28.1389   22.8779 C   0  0  0  0  0  0
  -24.1519  -36.7340   23.2634 C   0  0  0  0  0  0
  -25.9395  -30.8185   21.3634 C   0  0  0  0  0  0
  -26.0031  -29.4492   20.7146 C   0  0  0  0  0  0
  -27.1975  -28.6914   20.6924 C   0  0  0  0  0  0
  -26.0521  -26.9480   19.4401 C   0  0  0  0  0  0
  -24.8656  -27.7091   19.4482 C   0  0  0  0  0  0
  -23.6110  -29.8298   20.1579 C   0  0  0  0  0  0
  -25.4129  -36.3080   24.0326 C   0  0  1  0  0  0
  -20.5878  -28.3973   23.1461 C   0  0  2  0  0  0
  -20.6912  -26.9632   22.5845 C   0  0  0  0  0  0
  -19.5900  -26.6144   21.5759 C   0  0  0  0  0  0
  -18.2071  -26.7774   22.2261 C   0  0  0  0  0  0
  -19.1495  -28.9037   23.2986 C   0  0  0  0  0  0
  -18.9394  -30.1707   23.8839 C   0  0  0  0  0  0
  -17.6353  -30.6809   24.0377 C   0  0  0  0  0  0
  -25.9056  -34.9453   23.5102 C   0  0  0  0  0  0
  -16.5264  -29.9157   23.6281 C   0  0  0  0  0  0
  -16.7199  -28.6459   23.0597 C   0  0  0  0  0  0
  -26.4518  -31.6509   25.0737 C   0  0  0  0  0  0
  -25.3826  -31.3623   26.1524 C   0  0  0  0  0  0
  -27.0364  -30.2968   24.6099 C   0  0  0  0  0  0
  -27.6074  -32.4201   25.7546 C   0  0  0  0  0  0
  -27.5591  -37.1838   24.8462 C   0  0  0  0  0  0
  -21.4166  -29.3322   22.3876 N   0  0  0  0  0  0
  -26.4304  -37.3754   23.9391 N   0  0  0  0  0  0
  -24.6747  -31.0756   22.0984 N   0  0  0  0  0  0
  -23.4278  -28.8130   23.2975 O   0  0  0  0  0  0
  -28.3852  -26.6891   19.9698 O   0  0  0  0  0  0
  -26.5571  -34.8891   22.4640 O   0  0  0  0  0  0
  -23.5394  -32.1431   23.7478 O   0  0  0  0  0  0
  -25.4072  -19.8929   20.9521 C   0  0  0  0  0  0
  -25.6808  -22.2467   21.3703 C   0  0  0  0  0  0
  -24.8348  -21.1690   21.0560 C   0  0  0  0  0  0
  -26.7745  -19.7131   21.2697 C   0  0  0  0  0  0
  -27.0607  -22.0258   21.5685 C   0  0  0  0  0  0
  -23.3382  -21.3779   20.8899 C   0  0  0  0  0  0
  -27.5945  -23.8332   23.2521 C   0  0  0  0  0  0
  -29.4824  -22.8416   21.9331 C   0  0  0  0  0  0
  -30.9955  -16.9196   19.6836 C   0  0  0  0  0  0
  -27.2890  -18.2779   21.4414 C   0  0  0  0  0  0
  -28.7537  -17.9489   21.0399 C   0  0  0  0  0  0
  -27.7991  -24.3441   20.7609 C   0  0  0  0  0  0
  -29.0137  -16.3949   21.0510 C   0  0  0  0  0  0
  -28.6298  -25.6496   20.9263 C   0  0  0  0  0  0
  -27.9862  -23.2420   21.8756 C   0  0  0  0  0  0
  -27.5817  -20.7641   21.5826 N   0  0  0  0  0  0
  -30.2210  -15.8568   20.3724 N   0  0  0  0  0  0
  -31.4482  -12.4694   19.1196 H   0  0  0  0  0  0
  -30.3121  -11.4148   19.9139 H   0  0  0  0  0  0
  -29.7504  -11.7142   17.4812 H   0  0  0  0  0  0
  -29.6457  -13.4451   17.6920 H   0  0  0  0  0  0
  -27.8539  -11.2960   18.8744 H   0  0  0  0  0  0
  -27.3610  -12.5649   17.7821 H   0  0  0  0  0  0
  -27.6208  -14.2505   19.4517 H   0  0  0  0  0  0
  -28.7206  -12.1692   21.4026 H   0  0  0  0  0  0
  -28.4535  -13.8414   21.7905 H   0  0  0  0  0  0
  -25.2737   -9.5549   22.4865 H   0  0  0  0  0  0
  -23.9968   -7.4512   22.7415 H   0  0  0  0  0  0
  -21.0906   -8.8775   19.8930 H   0  0  0  0  0  0
  -22.3788  -10.9667   19.6214 H   0  0  0  0  0  0
  -21.1947   -7.6104   23.9731 H   0  0  0  0  0  0
  -21.1588   -6.0530   25.9135 H   0  0  0  0  0  0
  -22.0548   -2.7574   23.2924 H   0  0  0  0  0  0
  -22.4112  -11.9911   22.4917 H   0  0  0  0  0  0
  -21.1059  -13.1154   22.2555 H   0  0  0  0  0  0
  -24.6035  -15.8109   20.4555 H   0  0  0  0  0  0
  -26.2089  -15.6227   19.9766 H   0  0  0  0  0  0
  -26.7143  -32.5395   23.1152 H   0  0  0  0  0  0
  -25.0275  -33.9708   25.0548 H   0  0  0  0  0  0
  -22.6959  -31.3054   21.4234 H   0  0  0  0  0  0
  -23.3711  -35.9730   23.3273 H   0  0  0  0  0  0
  -24.3601  -36.8986   22.2045 H   0  0  0  0  0  0
  -23.7333  -37.6584   23.6637 H   0  0  0  0  0  0
  -26.0585  -31.5752   20.5860 H   0  0  0  0  0  0
  -26.8263  -30.8662   21.9808 H   0  0  0  0  0  0
  -28.1045  -29.0868   21.1243 H   0  0  0  0  0  0
  -26.0656  -26.0138   18.8995 H   0  0  0  0  0  0
  -23.9913  -27.3575   18.9152 H   0  0  0  0  0  0
  -23.7215  -30.6135   19.4108 H   0  0  0  0  0  0
  -22.7271  -29.2629   19.8605 H   0  0  0  0  0  0
  -25.1283  -36.1954   25.0804 H   0  0  0  0  0  0
  -20.9950  -28.3833   24.1579 H   0  0  0  0  0  0
  -20.6057  -26.2605   23.4162 H   0  0  0  0  0  0
  -21.6771  -26.7871   22.1576 H   0  0  0  0  0  0
  -19.7108  -25.5809   21.2394 H   0  0  0  0  0  0
  -19.6806  -27.2490   20.6955 H   0  0  0  0  0  0
  -17.4146  -26.6108   21.4961 H   0  0  0  0  0  0
  -18.0838  -26.0168   22.9974 H   0  0  0  0  0  0
  -19.7785  -30.7669   24.2190 H   0  0  0  0  0  0
  -17.4860  -31.6642   24.4583 H   0  0  0  0  0  0
  -15.5285  -30.3108   23.7373 H   0  0  0  0  0  0
  -15.8521  -28.0759   22.7548 H   0  0  0  0  0  0
  -24.6010  -30.6913   25.7953 H   0  0  0  0  0  0
  -24.9014  -32.2775   26.4994 H   0  0  0  0  0  0
  -25.8259  -30.8856   27.0286 H   0  0  0  0  0  0
  -26.2897  -29.6702   24.1222 H   0  0  0  0  0  0
  -27.4251  -29.7200   25.4509 H   0  0  0  0  0  0
  -27.8658  -30.4310   23.9147 H   0  0  0  0  0  0
  -27.2663  -33.3455   26.2211 H   0  0  0  0  0  0
  -28.3896  -32.6844   25.0404 H   0  0  0  0  0  0
  -28.0739  -31.8278   26.5454 H   0  0  0  0  0  0
  -28.2611  -38.0146   24.7474 H   0  0  0  0  0  0
  -28.1092  -36.2669   24.6289 H   0  0  0  0  0  0
  -27.2305  -37.1490   25.8873 H   0  0  0  0  0  0
  -20.9423  -29.9212   21.7216 H   0  0  0  0  0  0
  -26.0197  -38.2838   24.1331 H   0  0  0  0  0  0
  -24.7955  -19.0324   20.7009 H   0  0  0  0  0  0
  -25.2521  -23.2344   21.4729 H   0  0  0  0  0  0
  -23.0123  -21.1280   19.8791 H   0  0  0  0  0  0
  -23.0485  -22.4099   21.0899 H   0  0  0  0  0  0
  -22.7842  -20.7496   21.5923 H   0  0  0  0  0  0
  -27.5987  -23.0919   24.0515 H   0  0  0  0  0  0
  -26.5982  -24.2757   23.2219 H   0  0  0  0  0  0
  -28.2875  -24.6191   23.5462 H   0  0  0  0  0  0
  -29.6505  -21.9781   22.5751 H   0  0  0  0  0  0
  -30.0860  -23.6517   22.3411 H   0  0  0  0  0  0
  -29.8820  -22.6084   20.9452 H   0  0  0  0  0  0
  -30.4117  -17.3169   18.8496 H   0  0  0  0  0  0
  -31.9490  -16.6195   19.2479 H   0  0  0  0  0  0
  -31.2283  -17.7391   20.3654 H   0  0  0  0  0  0
  -26.6468  -17.6526   20.8143 H   0  0  0  0  0  0
  -27.0946  -17.9530   22.4666 H   0  0  0  0  0  0
  -29.4387  -18.4494   21.7339 H   0  0  0  0  0  0
  -28.9194  -18.3943   20.0565 H   0  0  0  0  0  0
  -28.0174  -23.9082   19.7793 H   0  0  0  0  0  0
  -26.7513  -24.6299   20.7331 H   0  0  0  0  0  0
  -28.1612  -15.9386   20.5662 H   0  0  0  0  0  0
  -29.0157  -16.0690   22.0901 H   0  0  0  0  0  0
  -29.6802  -25.3877   20.7996 H   0  0  0  0  0  0
  -28.5396  -26.0583   21.9343 H   0  0  0  0  0  0
  1 25  1  0  0  0
  1 30  2  0  0  0
  1 87  1  0  0  0
  2  3  1  0  0  0
  2 25  1  0  0  0
  2 88  1  0  0  0
  2 89  1  0  0  0
  3  4  1  0  0  0
  3 90  1  0  0  0
  3 91  1  0  0  0
  4  5  1  0  0  0
  4 92  1  0  0  0
  4 93  1  0  0  0
  5  6  1  0  0  0
  5 26  1  0  0  0
  5 94  1  0  0  0
  6 25  1  0  0  0
  6 95  1  0  0  0
  6 96  1  0  0  0
  7  8  2  0  0  0
  7 26  1  0  0  0
  7 29  1  0  0  0
  8  9  1  0  0  0
  8 22  1  0  0  0
  9 10  1  0  0  0
  9 27  2  0  0  0
 10 11  2  0  0  0
 10 15  1  0  0  0
 11 12  1  0  0  0
 11 97  1  0  0  0
 12 13  2  0  0  0
 12 98  1  0  0  0
 13 14  1  0  0  0
 13 31  1  0  0  0
 14 15  2  0  0  0
 14 99  1  0  0  0
 15100  1  0  0  0
 16 17  2  0  0  0
 16 21  1  0  0  0
 16 31  1  0  0  0
 17 18  1  0  0  0
 17101  1  0  0  0
 18 19  2  0  0  0
 18102  1  0  0  0
 19 20  1  0  0  0
 19 24  1  0  0  0
 20 21  2  0  0  0
 20103  1  0  0  0
 21 23  1  0  0  0
 22 28  1  0  0  0
 22 32  2  0  0  0
 26 27  1  0  0  0
 28104  1  0  0  0
 28105  1  0  0  0
 29106  1  0  0  0
 29107  1  0  0  0
 33 34  1  0  0  0
 33 66  1  0  0  0
 33 70  2  0  0  0
 34 36  1  0  0  0
 34 59  1  0  0  0
 34108  1  0  0  0
 35 44  2  0  0  0
 35 45  1  0  0  0
 35 68  1  0  0  0
 36 56  1  0  0  0
 36109  1  0  0  0
 37 39  1  0  0  0
 37 47  1  0  0  0
 37 66  1  0  0  0
 37110  1  0  0  0
 38 43  2  0  0  0
 38 46  1  0  0  0
 38 47  1  0  0  0
 39 64  1  0  0  0
 39 67  2  0  0  0
 40 52  1  0  0  0
 40 53  2  0  0  0
 40 58  1  0  0  0
 41111  1  0  0  0
 41112  1  0  0  0
 41113  1  0  0  0
 41 48  1  0  0  0
 42 43  1  0  0  0
 42 66  1  0  0  0
 42114  1  0  0  0
 42115  1  0  0  0
 43 44  1  0  0  0
 44116  1  0  0  0
 45 46  2  0  0  0
 45117  1  0  0  0
 46118  1  0  0  0
 47119  1  0  0  0
 47120  1  0  0  0
 48 56  1  0  0  0
 48 65  1  0  0  0
 48121  1  0  0  0
 49 50  1  0  0  0
 49 53  1  0  0  0
 49 64  1  0  0  0
 49122  1  0  0  0
 50 51  1  0  0  0
 50123  1  0  0  0
 50124  1  0  0  0
 51 52  1  0  0  0
 51125  1  0  0  0
 51126  1  0  0  0
 52127  1  0  0  0
 52128  1  0  0  0
 53 54  1  0  0  0
 54 55  2  0  0  0
 54129  1  0  0  0
 55 57  1  0  0  0
 55130  1  0  0  0
 56 69  2  0  0  0
 57 58  2  0  0  0
 57131  1  0  0  0
 58132  1  0  0  0
 59 60  1  0  0  0
 59 61  1  0  0  0
 59 62  1  0  0  0
 60133  1  0  0  0
 60134  1  0  0  0
 60135  1  0  0  0
 61136  1  0  0  0
 61137  1  0  0  0
 61138  1  0  0  0
 62139  1  0  0  0
 62140  1  0  0  0
 62141  1  0  0  0
 63 65  1  0  0  0
 63142  1  0  0  0
 63143  1  0  0  0
 63144  1  0  0  0
 64145  1  0  0  0
 65146  1  0  0  0
 68 84  1  0  0  0
 71 73  2  0  0  0
 71 74  1  0  0  0
 71147  1  0  0  0
 72 73  1  0  0  0
 72 75  2  0  0  0
 72148  1  0  0  0
 73 76  1  0  0  0
 74 80  1  0  0  0
 74 86  2  0  0  0
 75 85  1  0  0  0
 75 86  1  0  0  0
 76149  1  0  0  0
 76150  1  0  0  0
 76151  1  0  0  0
 77152  1  0  0  0
 77153  1  0  0  0
 77154  1  0  0  0
 77 85  1  0  0  0
 78 85  1  0  0  0
 78155  1  0  0  0
 78156  1  0  0  0
 78157  1  0  0  0
 79 87  1  0  0  0
 79158  1  0  0  0
 79159  1  0  0  0
 79160  1  0  0  0
 80 81  1  0  0  0
 80161  1  0  0  0
 80162  1  0  0  0
 81 83  1  0  0  0
 81163  1  0  0  0
 81164  1  0  0  0
 82 84  1  0  0  0
 82 85  1  0  0  0
 82165  1  0  0  0
 82166  1  0  0  0
 83 87  1  0  0  0
 83167  1  0  0  0
 83168  1  0  0  0
 84169  1  0  0  0
 84170  1  0  0  0
M  ISO  4   1 100  68 101  84 101  87 100
M  END
> <chiral flag>
0

> <version>
0

> <s_m_source_file>
/data/baiqing/PycharmProjects/Reinvent-master-3.2/result/LINK_invent/BTK/process_docking_weight1_custom_sum_contain_oxygen_bond_distance_aromatic_linkinvent_7_9_3/rearranged_h_0074.sdf

> <i_m_source_file_index>
97

> <r_mmod_Potential_Energy-OPLS-2005>
48.0673065185547

> <r_mmod_Stretch_Energy-OPLS-2005>
56.5579566955566

> <r_mmod_Bend_Energy-OPLS-2005>
142.217269897461

> <r_mmod_Torsional_Energy-OPLS-2005>
305.644989013672

> <r_mmod_Improper_Torsional_Energy-OPLS-2005>
18.1899337768555

> <r_mmod_Van_der_Waal_Energy-OPLS-2005>
167.591323852539

> <r_mmod_Electrostatic_Energy-OPLS-2005>
-489.191741943359

> <r_mmod_Solvation_Energy-OPLS-2005>
-199.907012939453

> <b_mmod_Minimization_Converged-OPLS-2005>
0

> <r_mmod_RMS_Derivative-OPLS-2005>
11.0175561904907

$$$$
97
                    3D
 Structure written by MMmdl.
174182  0  0  1  0            999 V2000
  -30.7124  -14.5547   20.3606 C   0  0  0  0  0  0
  -30.4369  -12.2998   19.4810 C   0  0  0  0  0  0
  -29.5253  -12.4271   18.2396 C   0  0  0  0  0  0
  -28.0406  -12.3096   18.6378 C   0  0  0  0  0  0
  -27.6475  -13.2139   19.8324 C   0  0  2  0  0  0
  -28.6985  -13.1515   20.9651 C   0  0  0  0  0  0
  -25.2598  -13.8175   20.5665 C   0  0  0  0  0  0
  -24.1858  -13.0436   20.9215 C   0  0  0  0  0  0
  -24.6445  -11.6920   20.8757 C   0  0  0  0  0  0
  -23.9133  -10.4324   21.0433 C   0  0  0  0  0  0
  -24.3653   -9.4232   21.9224 C   0  0  0  0  0  0
  -23.6283   -8.2313   22.0800 C   0  0  0  0  0  0
  -22.4267   -8.0378   21.3596 C   0  0  0  0  0  0
  -21.9921   -9.0384   20.4700 C   0  0  0  0  0  0
  -22.7304  -10.2200   20.3090 C   0  0  0  0  0  0
  -21.6866   -6.0790   22.5283 C   0  0  0  0  0  0
  -21.4035   -6.5679   23.8221 C   0  0  0  0  0  0
  -21.3645   -5.6807   24.9175 C   0  0  0  0  0  0
  -21.6016   -4.3085   24.7225 C   0  0  0  0  0  0
  -21.8834   -3.8171   23.4375 C   0  0  0  0  0  0
  -21.9210   -4.7007   22.3408 C   0  0  0  0  0  0
  -22.7884  -13.5210   21.1867 C   0  0  0  0  0  0
  -22.1667   -4.2181   21.1003 F   0  0  0  0  0  0
  -21.5605   -3.4553   25.7739 F   0  0  0  0  0  0
  -30.0423  -13.3712   20.4125 N   0  0  0  0  0  0
  -26.2992  -12.9328   20.3219 N   0  0  0  0  0  0
  -25.9348  -11.6501   20.5720 N   0  0  0  0  0  0
  -22.0460  -12.8262   22.0421 N   0  0  0  0  0  0
  -25.4272  -15.1900   20.4108 N   0  0  0  0  0  0
  -31.9263  -14.5801   20.1588 O   0  0  0  0  0  0
  -21.6661   -6.8963   21.4263 O   0  0  0  0  0  0
  -22.3604  -14.5539   20.6714 O   0  0  0  0  0  0
  -24.6189  -31.8670   23.2048 C   0  0  0  0  0  0
  -25.9092  -32.4788   23.8322 C   0  0  1  0  0  0
  -27.2061  -27.3951   20.1060 C   0  0  0  0  0  0
  -25.5974  -33.8591   24.2260 N   0  0  0  0  0  0
  -23.4037  -30.4908   21.5450 C   0  0  2  0  0  0
  -24.8447  -28.9470   20.1166 C   0  0  0  0  0  0
  -22.7456  -29.4660   22.4967 C   0  0  0  0  0  0
  -18.0318  -28.1343   22.8487 C   0  0  0  0  0  0
  -24.1500  -36.7295   23.2616 C   0  0  0  0  0  0
  -25.9361  -30.8160   21.3676 C   0  0  0  0  0  0
  -26.0078  -29.4472   20.7172 C   0  0  0  0  0  0
  -27.1964  -28.6752   20.7130 C   0  0  0  0  0  0
  -26.0306  -26.9167   19.4995 C   0  0  0  0  0  0
  -24.8476  -27.6788   19.5117 C   0  0  0  0  0  0
  -23.6134  -29.8222   20.1602 C   0  0  0  0  0  0
  -25.4135  -36.3087   24.0288 C   0  0  1  0  0  0
  -20.5917  -28.3625   23.1323 C   0  0  2  0  0  0
  -20.6825  -26.9370   22.5400 C   0  0  0  0  0  0
  -19.5799  -26.6366   21.5183 C   0  0  0  0  0  0
  -18.1991  -26.7904   22.1605 C   0  0  0  0  0  0
  -19.1583  -28.8800   23.2904 C   0  0  0  0  0  0
  -18.9504  -30.1417   23.8891 C   0  0  0  0  0  0
  -17.6510  -30.6548   24.0551 C   0  0  0  0  0  0
  -25.9070  -34.9449   23.5059 C   0  0  0  0  0  0
  -16.5386  -29.9067   23.6311 C   0  0  0  0  0  0
  -16.7315  -28.6490   23.0333 C   0  0  0  0  0  0
  -26.4506  -31.6550   25.0638 C   0  0  0  0  0  0
  -25.3767  -31.3669   26.1364 C   0  0  0  0  0  0
  -27.0334  -30.2968   24.6078 C   0  0  0  0  0  0
  -27.6075  -32.4248   25.7460 C   0  0  0  0  0  0
  -27.5578  -37.1813   24.8461 C   0  0  0  0  0  0
  -21.4194  -29.3008   22.3737 N   0  0  0  0  0  0
  -26.4310  -37.3777   23.9370 N   0  0  0  0  0  0
  -24.6699  -31.0748   22.0963 N   0  0  0  0  0  0
  -23.4247  -28.8230   23.3026 O   0  0  0  0  0  0
  -28.3464  -26.6153   20.0837 O   0  0  0  0  0  0
  -26.5617  -34.8921   22.4620 O   0  0  0  0  0  0
  -23.5379  -32.1499   23.7406 O   0  0  0  0  0  0
  -26.9790  -18.6752   22.5815 C   0  0  0  0  0  0
  -27.9853  -17.7212   22.3673 C   0  0  0  0  0  0
  -26.9977  -19.8761   21.8517 C   0  0  0  0  0  0
  -29.0209  -18.0113   21.4570 C   0  0  0  0  0  0
  -28.0703  -20.1244   20.9668 C   0  0  0  0  0  0
  -25.8236  -20.8308   22.0314 C   0  0  0  0  0  0
  -28.2021  -17.4482   17.9717 C   0  0  0  0  0  0
  -31.5326  -18.6444   18.3468 C   0  0  0  0  0  0
  -30.1438  -16.9713   21.2536 C   0  0  0  0  0  0
  -28.0922  -21.4017   20.0922 C   0  0  0  0  0  0
  -28.2063  -22.7746   20.8441 C   0  0  0  0  0  0
  -28.0063  -24.0502   19.9736 C   0  0  0  0  0  0
  -29.3939  -16.5301   17.6671 C   0  0  0  0  0  0
  -31.6829  -17.1371   18.5934 C   0  0  0  0  0  0
  -28.2595  -25.3554   20.7898 C   0  0  0  0  0  0
  -29.9683  -15.9101   20.1175 C   0  0  2  0  0  0
  -29.0620  -19.2001   20.7875 N   0  0  0  0  0  0
  -30.4060  -16.3704   18.7524 N   0  3  0  0  0  0
  -31.4880  -12.3598   19.1834 H   0  0  0  0  0  0
  -30.3219  -11.3239   19.9622 H   0  0  0  0  0  0
  -29.7760  -11.6597   17.5051 H   0  0  0  0  0  0
  -29.7136  -13.3746   17.7376 H   0  0  0  0  0  0
  -27.8765  -11.2656   18.8994 H   0  0  0  0  0  0
  -27.3928  -12.5246   17.7894 H   0  0  0  0  0  0
  -27.6161  -14.2145   19.4154 H   0  0  0  0  0  0
  -28.6673  -12.1866   21.4726 H   0  0  0  0  0  0
  -28.4761  -13.9073   21.7215 H   0  0  0  0  0  0
  -25.2814   -9.5695   22.4794 H   0  0  0  0  0  0
  -23.9988   -7.4689   22.7493 H   0  0  0  0  0  0
  -21.0876   -8.8991   19.8983 H   0  0  0  0  0  0
  -22.3839  -10.9802   19.6213 H   0  0  0  0  0  0
  -21.2076   -7.6181   23.9730 H   0  0  0  0  0  0
  -21.1385   -6.0545   25.9075 H   0  0  0  0  0  0
  -22.0606   -2.7653   23.2842 H   0  0  0  0  0  0
  -22.3867  -11.9783   22.4746 H   0  0  0  0  0  0
  -21.1143  -13.1484   22.2652 H   0  0  0  0  0  0
  -24.6541  -15.8386   20.5207 H   0  0  0  0  0  0
  -26.2785  -15.6548   20.1265 H   0  0  0  0  0  0
  -26.7151  -32.5463   23.1054 H   0  0  0  0  0  0
  -25.0104  -33.9731   25.0401 H   0  0  0  0  0  0
  -22.6920  -31.3064   21.4004 H   0  0  0  0  0  0
  -23.3749  -35.9647   23.3306 H   0  0  0  0  0  0
  -24.3576  -36.8907   22.2029 H   0  0  0  0  0  0
  -23.7278  -37.6506   23.6639 H   0  0  0  0  0  0
  -26.0592  -31.5763   20.5971 H   0  0  0  0  0  0
  -26.8220  -30.8645   21.9871 H   0  0  0  0  0  0
  -28.0910  -29.0437   21.1909 H   0  0  0  0  0  0
  -26.0224  -25.9525   19.0147 H   0  0  0  0  0  0
  -23.9505  -27.2859   19.0558 H   0  0  0  0  0  0
  -23.7352  -30.5960   19.4031 H   0  0  0  0  0  0
  -22.7340  -29.2501   19.8587 H   0  0  0  0  0  0
  -25.1337  -36.1898   25.0779 H   0  0  0  0  0  0
  -21.0052  -28.3183   24.1426 H   0  0  0  0  0  0
  -20.5741  -26.2238   23.3568 H   0  0  0  0  0  0
  -21.6701  -26.7444   22.1206 H   0  0  0  0  0  0
  -19.6978  -25.6261   21.1282 H   0  0  0  0  0  0
  -19.6682  -27.3135   20.6661 H   0  0  0  0  0  0
  -17.4221  -26.6652   21.4019 H   0  0  0  0  0  0
  -18.0436  -26.0012   22.8981 H   0  0  0  0  0  0
  -19.7987  -30.7242   24.2277 H   0  0  0  0  0  0
  -17.5103  -31.6233   24.5168 H   0  0  0  0  0  0
  -15.5419  -30.3002   23.7678 H   0  0  0  0  0  0
  -15.8723  -28.0818   22.6988 H   0  0  0  0  0  0
  -24.5985  -30.6972   25.7657 H   0  0  0  0  0  0
  -24.8918  -32.2847   26.4724 H   0  0  0  0  0  0
  -25.8116  -30.8870   27.0154 H   0  0  0  0  0  0
  -26.2887  -29.6717   24.1140 H   0  0  0  0  0  0
  -27.4074  -29.7193   25.4547 H   0  0  0  0  0  0
  -27.8741  -30.4198   23.9249 H   0  0  0  0  0  0
  -27.2688  -33.3543   26.2066 H   0  0  0  0  0  0
  -28.3935  -32.6832   25.0338 H   0  0  0  0  0  0
  -28.0728  -31.8350   26.5386 H   0  0  0  0  0  0
  -28.2624  -38.0085   24.7516 H   0  0  0  0  0  0
  -28.1046  -36.2625   24.6307 H   0  0  0  0  0  0
  -27.2285  -37.1502   25.8861 H   0  0  0  0  0  0
  -20.9329  -29.8781   21.7026 H   0  0  0  0  0  0
  -26.0172  -38.2837   24.1389 H   0  0  0  0  0  0
  -26.1784  -18.4793   23.2785 H   0  0  0  0  0  0
  -27.9547  -16.7866   22.9100 H   0  0  0  0  0  0
  -25.7344  -21.5890   21.2535 H   0  0  0  0  0  0
  -25.8996  -21.3293   22.9976 H   0  0  0  0  0  0
  -24.8882  -20.2747   22.0295 H   0  0  0  0  0  0
  -27.5264  -17.0124   18.7088 H   0  0  0  0  0  0
  -28.5042  -18.4323   18.3226 H   0  0  0  0  0  0
  -27.6280  -17.6089   17.0585 H   0  0  0  0  0  0
  -31.0929  -18.8509   17.3735 H   0  0  0  0  0  0
  -32.5122  -19.1212   18.3654 H   0  0  0  0  0  0
  -30.9213  -19.1304   19.0982 H   0  0  0  0  0  0
  -31.0923  -17.4969   21.1686 H   0  0  0  0  0  0
  -30.2355  -16.4286   22.1992 H   0  0  0  0  0  0
  -27.1646  -21.3761   19.5185 H   0  0  0  0  0  0
  -28.8699  -21.3295   19.3317 H   0  0  0  0  0  0
  -29.1607  -22.8272   21.3642 H   0  0  0  0  0  0
  -27.4649  -22.8575   21.6376 H   0  0  0  0  0  0
  -26.9894  -24.0396   19.5786 H   0  0  0  0  0  0
  -28.6622  -24.0145   19.1036 H   0  0  0  0  0  0
  -29.8938  -16.8875   16.7634 H   0  0  0  0  0  0
  -29.0114  -15.5429   17.4103 H   0  0  0  0  0  0
  -32.2073  -16.7154   17.7336 H   0  0  0  0  0  0
  -32.3600  -16.9635   19.4280 H   0  0  0  0  0  0
  -29.2190  -25.2363   21.2924 H   0  0  0  0  0  0
  -27.5178  -25.4220   21.5899 H   0  0  0  0  0  0
  -28.9083  -15.6971   20.0862 H   0  0  0  0  0  0
  -30.7961  -15.4769   18.4724 H   0  0  0  0  0  0
  1 25  1  0  0  0
  1 30  2  0  0  0
  1 86  1  0  0  0
  2  3  1  0  0  0
  2 25  1  0  0  0
  2 89  1  0  0  0
  2 90  1  0  0  0
  3  4  1  0  0  0
  3 91  1  0  0  0
  3 92  1  0  0  0
  4  5  1  0  0  0
  4 93  1  0  0  0
  4 94  1  0  0  0
  5  6  1  0  0  0
  5 26  1  0  0  0
  5 95  1  0  0  0
  6 25  1  0  0  0
  6 96  1  0  0  0
  6 97  1  0  0  0
  7  8  2  0  0  0
  7 26  1  0  0  0
  7 29  1  0  0  0
  8  9  1  0  0  0
  8 22  1  0  0  0
  9 10  1  0  0  0
  9 27  2  0  0  0
 10 11  2  0  0  0
 10 15  1  0  0  0
 11 12  1  0  0  0
 11 98  1  0  0  0
 12 13  2  0  0  0
 12 99  1  0  0  0
 13 14  1  0  0  0
 13 31  1  0  0  0
 14 15  2  0  0  0
 14100  1  0  0  0
 15101  1  0  0  0
 16 17  2  0  0  0
 16 21  1  0  0  0
 16 31  1  0  0  0
 17 18  1  0  0  0
 17102  1  0  0  0
 18 19  2  0  0  0
 18103  1  0  0  0
 19 20  1  0  0  0
 19 24  1  0  0  0
 20 21  2  0  0  0
 20104  1  0  0  0
 21 23  1  0  0  0
 22 28  1  0  0  0
 22 32  2  0  0  0
 26 27  1  0  0  0
 28105  1  0  0  0
 28106  1  0  0  0
 29107  1  0  0  0
 29108  1  0  0  0
 33 34  1  0  0  0
 33 66  1  0  0  0
 33 70  2  0  0  0
 34 36  1  0  0  0
 34 59  1  0  0  0
 34109  1  0  0  0
 35 44  2  0  0  0
 35 45  1  0  0  0
 35 68  1  0  0  0
 36 56  1  0  0  0
 36110  1  0  0  0
 37 39  1  0  0  0
 37 47  1  0  0  0
 37 66  1  0  0  0
 37111  1  0  0  0
 38 43  2  0  0  0
 38 46  1  0  0  0
 38 47  1  0  0  0
 39 64  1  0  0  0
 39 67  2  0  0  0
 40 52  1  0  0  0
 40 53  2  0  0  0
 40 58  1  0  0  0
 41112  1  0  0  0
 41113  1  0  0  0
 41114  1  0  0  0
 41 48  1  0  0  0
 42 43  1  0  0  0
 42 66  1  0  0  0
 42115  1  0  0  0
 42116  1  0  0  0
 43 44  1  0  0  0
 44117  1  0  0  0
 45 46  2  0  0  0
 45118  1  0  0  0
 46119  1  0  0  0
 47120  1  0  0  0
 47121  1  0  0  0
 48 56  1  0  0  0
 48 65  1  0  0  0
 48122  1  0  0  0
 49 50  1  0  0  0
 49 53  1  0  0  0
 49 64  1  0  0  0
 49123  1  0  0  0
 50 51  1  0  0  0
 50124  1  0  0  0
 50125  1  0  0  0
 51 52  1  0  0  0
 51126  1  0  0  0
 51127  1  0  0  0
 52128  1  0  0  0
 52129  1  0  0  0
 53 54  1  0  0  0
 54 55  2  0  0  0
 54130  1  0  0  0
 55 57  1  0  0  0
 55131  1  0  0  0
 56 69  2  0  0  0
 57 58  2  0  0  0
 57132  1  0  0  0
 58133  1  0  0  0
 59 60  1  0  0  0
 59 61  1  0  0  0
 59 62  1  0  0  0
 60134  1  0  0  0
 60135  1  0  0  0
 60136  1  0  0  0
 61137  1  0  0  0
 61138  1  0  0  0
 61139  1  0  0  0
 62140  1  0  0  0
 62141  1  0  0  0
 62142  1  0  0  0
 63 65  1  0  0  0
 63143  1  0  0  0
 63144  1  0  0  0
 63145  1  0  0  0
 64146  1  0  0  0
 65147  1  0  0  0
 68 85  1  0  0  0
 71 72  2  0  0  0
 71 73  1  0  0  0
 71148  1  0  0  0
 72 74  1  0  0  0
 72149  1  0  0  0
 73 75  2  0  0  0
 73 76  1  0  0  0
 74 79  1  0  0  0
 74 87  2  0  0  0
 75 80  1  0  0  0
 75 87  1  0  0  0
 76150  1  0  0  0
 76151  1  0  0  0
 76152  1  0  0  0
 77 83  1  0  0  0
 77153  1  0  0  0
 77154  1  0  0  0
 77155  1  0  0  0
 78 84  1  0  0  0
 78156  1  0  0  0
 78157  1  0  0  0
 78158  1  0  0  0
 79159  1  0  0  0
 79160  1  0  0  0
 79 86  1  0  0  0
 80 81  1  0  0  0
 80161  1  0  0  0
 80162  1  0  0  0
 81 82  1  0  0  0
 81163  1  0  0  0
 81164  1  0  0  0
 82 85  1  0  0  0
 82165  1  0  0  0
 82166  1  0  0  0
 83167  1  0  0  0
 83168  1  0  0  0
 83 88  1  0  0  0
 84 88  1  0  0  0
 84169  1  0  0  0
 84170  1  0  0  0
 85171  1  0  0  0
 85172  1  0  0  0
 86 88  1  0  0  0
 86173  1  0  0  0
 88174  1  0  0  0
M  CHG  1  88   1
M  ISO  4   1 100  68 101  85 101  86 100
M  END
> <chiral flag>
0

> <version>
0

> <s_m_source_file>
/data/baiqing/PycharmProjects/Reinvent-master-3.2/result/LINK_invent/BTK/process_docking_weight1_custom_sum_contain_oxygen_bond_distance_aromatic_linkinvent_7_9_3/rearranged_h_0074.sdf

> <i_m_source_file_index>
98

> <r_mmod_Potential_Energy-OPLS-2005>
-226.008148193359

> <r_mmod_Stretch_Energy-OPLS-2005>
50.6147689819336

> <r_mmod_Bend_Energy-OPLS-2005>
158.684371948242

> <r_mmod_Torsional_Energy-OPLS-2005>
253.599563598633

> <r_mmod_Improper_Torsional_Energy-OPLS-2005>
10.9838542938232

> <r_mmod_Van_der_Waal_Energy-OPLS-2005>
134.912841796875

> <r_mmod_Electrostatic_Energy-OPLS-2005>
-477.182586669922

> <r_mmod_Solvation_Energy-OPLS-2005>
-397.857757568359

> <b_mmod_Minimization_Converged-OPLS-2005>
0

> <r_mmod_RMS_Derivative-OPLS-2005>
7.6061577796936

$$$$
98
                    3D
 Structure written by MMmdl.
160168  0  0  1  0            999 V2000
  -30.6236  -14.7096   20.5774 C   0  0  0  0  0  0
  -30.4366  -12.4567   19.4785 C   0  0  0  0  0  0
  -29.5156  -12.5308   18.2378 C   0  0  0  0  0  0
  -28.0380  -12.3389   18.6335 C   0  0  0  0  0  0
  -27.6464  -13.2083   19.8549 C   0  0  2  0  0  0
  -28.6810  -13.0685   20.9908 C   0  0  0  0  0  0
  -25.2565  -13.8134   20.5572 C   0  0  0  0  0  0
  -24.1850  -13.0439   20.9254 C   0  0  0  0  0  0
  -24.6387  -11.6898   20.8779 C   0  0  0  0  0  0
  -23.9041  -10.4288   21.0433 C   0  0  0  0  0  0
  -24.3598   -9.4194   21.9198 C   0  0  0  0  0  0
  -23.6278   -8.2227   22.0755 C   0  0  0  0  0  0
  -22.4257   -8.0279   21.3545 C   0  0  0  0  0  0
  -21.9899   -9.0251   20.4645 C   0  0  0  0  0  0
  -22.7215  -10.2139   20.3073 C   0  0  0  0  0  0
  -21.6843   -6.0727   22.5262 C   0  0  0  0  0  0
  -21.4003   -6.5638   23.8194 C   0  0  0  0  0  0
  -21.3661   -5.6798   24.9163 C   0  0  0  0  0  0
  -21.6045   -4.3059   24.7219 C   0  0  0  0  0  0
  -21.8817   -3.8144   23.4346 C   0  0  0  0  0  0
  -21.9187   -4.6953   22.3395 C   0  0  0  0  0  0
  -22.7879  -13.5250   21.1901 C   0  0  0  0  0  0
  -22.1656   -4.2137   21.0975 F   0  0  0  0  0  0
  -21.5646   -3.4547   25.7738 F   0  0  0  0  0  0
  -29.9891  -13.4826   20.4581 N   0  0  0  0  0  0
  -26.2929  -12.9264   20.3184 N   0  0  0  0  0  0
  -25.9286  -11.6447   20.5710 N   0  0  0  0  0  0
  -22.0477  -12.8238   22.0417 N   0  0  0  0  0  0
  -25.4375  -15.1804   20.3541 N   0  0  0  0  0  0
  -31.7263  -14.8295   20.0290 O   0  0  0  0  0  0
  -21.6630   -6.8870   21.4226 O   0  0  0  0  0  0
  -22.3626  -14.5582   20.6753 O   0  0  0  0  0  0
  -24.6263  -31.8562   23.2001 C   0  0  0  0  0  0
  -25.9093  -32.4760   23.8340 C   0  0  1  0  0  0
  -27.2321  -27.2963   20.1304 C   0  0  0  0  0  0
  -25.5886  -33.8573   24.2250 N   0  0  0  0  0  0
  -23.4202  -30.4794   21.5421 C   0  0  2  0  0  0
  -24.8664  -28.9267   20.1145 C   0  0  0  0  0  0
  -22.7472  -29.4609   22.4922 C   0  0  0  0  0  0
  -18.0304  -28.1362   22.8512 C   0  0  0  0  0  0
  -24.1475  -36.7321   23.2642 C   0  0  0  0  0  0
  -25.9623  -30.7838   21.3704 C   0  0  0  0  0  0
  -26.0353  -29.4092   20.7135 C   0  0  0  0  0  0
  -27.2150  -28.6083   20.7048 C   0  0  0  0  0  0
  -26.0259  -26.8532   19.5440 C   0  0  0  0  0  0
  -24.8643  -27.6533   19.5231 C   0  0  0  0  0  0
  -23.6352  -29.8097   20.1594 C   0  0  0  0  0  0
  -25.4101  -36.3104   24.0319 C   0  0  1  0  0  0
  -20.5896  -28.3672   23.1266 C   0  0  2  0  0  0
  -20.6784  -26.9382   22.5417 C   0  0  0  0  0  0
  -19.5750  -26.6404   21.5206 C   0  0  0  0  0  0
  -18.1952  -26.7878   22.1699 C   0  0  0  0  0  0
  -19.1560  -28.8849   23.2866 C   0  0  0  0  0  0
  -18.9494  -30.1454   23.8879 C   0  0  0  0  0  0
  -17.6488  -30.6588   24.0534 C   0  0  0  0  0  0
  -25.9047  -34.9460   23.5099 C   0  0  0  0  0  0
  -16.5374  -29.9083   23.6311 C   0  0  0  0  0  0
  -16.7291  -28.6483   23.0367 C   0  0  0  0  0  0
  -26.4484  -31.6593   25.0722 C   0  0  0  0  0  0
  -25.3708  -31.3709   26.1435 C   0  0  0  0  0  0
  -27.0348  -30.3014   24.6198 C   0  0  0  0  0  0
  -27.6021  -32.4367   25.7484 C   0  0  0  0  0  0
  -27.5569  -37.1812   24.8450 C   0  0  0  0  0  0
  -21.4184  -29.3031   22.3664 N   0  0  0  0  0  0
  -26.4289  -37.3792   23.9399 N   0  0  0  0  0  0
  -24.6884  -31.0569   22.0940 N   0  0  0  0  0  0
  -23.4197  -28.8153   23.3006 O   0  0  0  0  0  0
  -28.3990  -26.5088   20.1936 O   0  0  0  0  0  0
  -26.5645  -34.8922   22.4674 O   0  0  0  0  0  0
  -23.5418  -32.1348   23.7320 O   0  0  0  0  0  0
  -28.9990  -21.1720   22.3033 C   0  0  0  0  0  0
  -29.1419  -21.1059   20.9029 C   0  0  0  0  0  0
  -29.4572  -18.7559   21.1698 C   0  0  0  0  0  0
  -28.1530  -24.8802   18.2396 C   0  0  0  0  0  0
  -31.2822  -16.4585   22.2847 C   0  0  0  0  0  0
  -29.0558  -22.4144   20.0188 C   0  0  0  0  0  0
  -28.4965  -23.8110   20.6074 C   0  0  0  0  0  0
  -29.4284  -17.2752   20.5892 C   0  0  1  0  0  0
  -28.6280  -25.1209   19.6830 C   0  0  2  0  0  0
  -30.0954  -16.0111   21.3923 C   0  0  1  0  0  0
  -29.0408  -20.0517   23.0641 N   0  0  0  0  0  0
  -29.3727  -19.8523   20.3438 N   0  0  0  0  0  0
  -29.2174  -18.8495   22.4908 N   0  0  0  0  0  0
  -27.9954  -17.0458   20.3524 N   0  3  0  0  0  0
  -29.1863  -15.6212   22.2865 F   0  0  0  0  0  0
  -31.4766  -12.5851   19.1770 H   0  0  0  0  0  0
  -30.3934  -11.4637   19.9298 H   0  0  0  0  0  0
  -29.8100  -11.7782   17.5052 H   0  0  0  0  0  0
  -29.6435  -13.4978   17.7480 H   0  0  0  0  0  0
  -27.8916  -11.2846   18.8700 H   0  0  0  0  0  0
  -27.3844  -12.5501   17.7871 H   0  0  0  0  0  0
  -27.6662  -14.2391   19.5075 H   0  0  0  0  0  0
  -28.7248  -12.0291   21.3182 H   0  0  0  0  0  0
  -28.3633  -13.6078   21.8759 H   0  0  0  0  0  0
  -25.2748   -9.5672   22.4764 H   0  0  0  0  0  0
  -23.9987   -7.4617   22.7476 H   0  0  0  0  0  0
  -21.0832   -8.8758   19.8953 H   0  0  0  0  0  0
  -22.3667  -10.9681   19.6190 H   0  0  0  0  0  0
  -21.1981   -7.6146   23.9683 H   0  0  0  0  0  0
  -21.1498   -6.0541   25.9068 H   0  0  0  0  0  0
  -22.0600   -2.7607   23.2843 H   0  0  0  0  0  0
  -22.4017  -11.9838   22.4740 H   0  0  0  0  0  0
  -21.1114  -13.1309   22.2637 H   0  0  0  0  0  0
  -24.5575  -15.6692   20.4859 H   0  0  0  0  0  0
  -25.7158  -15.3129   19.3883 H   0  0  0  0  0  0
  -26.7162  -32.5431   23.1094 H   0  0  0  0  0  0
  -24.9950  -33.9716   25.0336 H   0  0  0  0  0  0
  -22.7145  -31.3001   21.3961 H   0  0  0  0  0  0
  -23.3732  -35.9663   23.3304 H   0  0  0  0  0  0
  -24.3570  -36.8962   22.2064 H   0  0  0  0  0  0
  -23.7242  -37.6516   23.6685 H   0  0  0  0  0  0
  -26.1001  -31.5487   20.6048 H   0  0  0  0  0  0
  -26.8403  -30.8319   22.0049 H   0  0  0  0  0  0
  -28.1150  -28.9819   21.1729 H   0  0  0  0  0  0
  -25.9336  -25.8651   19.1327 H   0  0  0  0  0  0
  -23.9605  -27.2673   19.0713 H   0  0  0  0  0  0
  -23.7562  -30.5848   19.4018 H   0  0  0  0  0  0
  -22.7541  -29.2403   19.8579 H   0  0  0  0  0  0
  -25.1286  -36.1952   25.0816 H   0  0  0  0  0  0
  -20.9996  -28.3273   24.1380 H   0  0  0  0  0  0
  -20.5635  -26.2257   23.3605 H   0  0  0  0  0  0
  -21.6656  -26.7363   22.1218 H   0  0  0  0  0  0
  -19.6635  -27.3267   20.6774 H   0  0  0  0  0  0
  -19.6911  -25.6340   21.1141 H   0  0  0  0  0  0
  -17.4138  -26.6488   21.4198 H   0  0  0  0  0  0
  -18.0470  -26.0071   22.9182 H   0  0  0  0  0  0
  -19.7968  -30.7269   24.2234 H   0  0  0  0  0  0
  -17.5058  -31.6276   24.5139 H   0  0  0  0  0  0
  -15.5368  -30.2987   23.7639 H   0  0  0  0  0  0
  -15.8701  -28.0771   22.7122 H   0  0  0  0  0  0
  -24.5890  -30.7058   25.7751 H   0  0  0  0  0  0
  -24.8884  -32.2868   26.4862 H   0  0  0  0  0  0
  -25.8022  -30.8887   27.0216 H   0  0  0  0  0  0
  -26.2952  -29.6758   24.1185 H   0  0  0  0  0  0
  -27.4002  -29.7264   25.4719 H   0  0  0  0  0  0
  -27.8837  -30.4289   23.9473 H   0  0  0  0  0  0
  -27.2594  -33.3644   26.2072 H   0  0  0  0  0  0
  -28.3800  -32.6979   25.0304 H   0  0  0  0  0  0
  -28.0741  -31.8517   26.5384 H   0  0  0  0  0  0
  -28.2587  -38.0107   24.7491 H   0  0  0  0  0  0
  -28.1065  -36.2635   24.6283 H   0  0  0  0  0  0
  -27.2292  -37.1471   25.8856 H   0  0  0  0  0  0
  -20.9367  -29.8728   21.6848 H   0  0  0  0  0  0
  -26.0167  -38.2868   24.1395 H   0  0  0  0  0  0
  -28.8428  -22.1065   22.8196 H   0  0  0  0  0  0
  -28.7710  -24.1215   17.7577 H   0  0  0  0  0  0
  -28.2300  -25.7849   17.6371 H   0  0  0  0  0  0
  -27.1337  -24.5043   18.1894 H   0  0  0  0  0  0
  -31.7927  -15.6041   22.7305 H   0  0  0  0  0  0
  -32.0291  -17.0177   21.7186 H   0  0  0  0  0  0
  -30.9656  -17.0775   23.1234 H   0  0  0  0  0  0
  -28.4540  -22.1559   19.1483 H   0  0  0  0  0  0
  -30.0630  -22.5946   19.6398 H   0  0  0  0  0  0
  -29.0311  -24.0245   21.5330 H   0  0  0  0  0  0
  -27.4554  -23.6810   20.9017 H   0  0  0  0  0  0
  -29.9141  -17.3193   19.6146 H   0  0  0  0  0  0
  -29.7092  -25.1846   19.5541 H   0  0  0  0  0  0
  -27.5176  -17.6242   21.0230 H   0  0  0  0  0  0
  -27.7161  -16.0975   20.5229 H   0  0  0  0  0  0
  -27.7377  -17.3611   19.4342 H   0  0  0  0  0  0
  1 25  1  0  0  0
  1 30  2  0  0  0
  1 80  1  0  0  0
  2  3  1  0  0  0
  2 25  1  0  0  0
  2 86  1  0  0  0
  2 87  1  0  0  0
  3  4  1  0  0  0
  3 88  1  0  0  0
  3 89  1  0  0  0
  4  5  1  0  0  0
  4 90  1  0  0  0
  4 91  1  0  0  0
  5  6  1  0  0  0
  5 26  1  0  0  0
  5 92  1  0  0  0
  6 25  1  0  0  0
  6 93  1  0  0  0
  6 94  1  0  0  0
  7  8  2  0  0  0
  7 26  1  0  0  0
  7 29  1  0  0  0
  8  9  1  0  0  0
  8 22  1  0  0  0
  9 10  1  0  0  0
  9 27  2  0  0  0
 10 11  2  0  0  0
 10 15  1  0  0  0
 11 12  1  0  0  0
 11 95  1  0  0  0
 12 13  2  0  0  0
 12 96  1  0  0  0
 13 14  1  0  0  0
 13 31  1  0  0  0
 14 15  2  0  0  0
 14 97  1  0  0  0
 15 98  1  0  0  0
 16 17  2  0  0  0
 16 21  1  0  0  0
 16 31  1  0  0  0
 17 18  1  0  0  0
 17 99  1  0  0  0
 18 19  2  0  0  0
 18100  1  0  0  0
 19 20  1  0  0  0
 19 24  1  0  0  0
 20 21  2  0  0  0
 20101  1  0  0  0
 21 23  1  0  0  0
 22 28  1  0  0  0
 22 32  2  0  0  0
 26 27  1  0  0  0
 28102  1  0  0  0
 28103  1  0  0  0
 29104  1  0  0  0
 29105  1  0  0  0
 33 34  1  0  0  0
 33 66  1  0  0  0
 33 70  2  0  0  0
 34 36  1  0  0  0
 34 59  1  0  0  0
 34106  1  0  0  0
 35 44  2  0  0  0
 35 45  1  0  0  0
 35 68  1  0  0  0
 36 56  1  0  0  0
 36107  1  0  0  0
 37 39  1  0  0  0
 37 47  1  0  0  0
 37 66  1  0  0  0
 37108  1  0  0  0
 38 43  2  0  0  0
 38 46  1  0  0  0
 38 47  1  0  0  0
 39 64  1  0  0  0
 39 67  2  0  0  0
 40 52  1  0  0  0
 40 53  2  0  0  0
 40 58  1  0  0  0
 41109  1  0  0  0
 41110  1  0  0  0
 41111  1  0  0  0
 41 48  1  0  0  0
 42 43  1  0  0  0
 42 66  1  0  0  0
 42112  1  0  0  0
 42113  1  0  0  0
 43 44  1  0  0  0
 44114  1  0  0  0
 45 46  2  0  0  0
 45115  1  0  0  0
 46116  1  0  0  0
 47117  1  0  0  0
 47118  1  0  0  0
 48 56  1  0  0  0
 48 65  1  0  0  0
 48119  1  0  0  0
 49 50  1  0  0  0
 49 53  1  0  0  0
 49 64  1  0  0  0
 49120  1  0  0  0
 50 51  1  0  0  0
 50121  1  0  0  0
 50122  1  0  0  0
 51 52  1  0  0  0
 51123  1  0  0  0
 51124  1  0  0  0
 52125  1  0  0  0
 52126  1  0  0  0
 53 54  1  0  0  0
 54 55  2  0  0  0
 54127  1  0  0  0
 55 57  1  0  0  0
 55128  1  0  0  0
 56 69  2  0  0  0
 57 58  2  0  0  0
 57129  1  0  0  0
 58130  1  0  0  0
 59 60  1  0  0  0
 59 61  1  0  0  0
 59 62  1  0  0  0
 60131  1  0  0  0
 60132  1  0  0  0
 60133  1  0  0  0
 61134  1  0  0  0
 61135  1  0  0  0
 61136  1  0  0  0
 62137  1  0  0  0
 62138  1  0  0  0
 62139  1  0  0  0
 63 65  1  0  0  0
 63140  1  0  0  0
 63141  1  0  0  0
 63142  1  0  0  0
 64143  1  0  0  0
 65144  1  0  0  0
 68 79  1  0  0  0
 71 72  2  0  0  0
 71 81  1  0  0  0
 71145  1  0  0  0
 72 76  1  0  0  0
 72 82  1  0  0  0
 73 78  1  0  0  0
 73 82  2  0  0  0
 73 83  1  0  0  0
 74146  1  0  0  0
 74147  1  0  0  0
 74148  1  0  0  0
 74 79  1  0  0  0
 75149  1  0  0  0
 75150  1  0  0  0
 75151  1  0  0  0
 75 80  1  0  0  0
 76 77  1  0  0  0
 76152  1  0  0  0
 76153  1  0  0  0
 77 79  1  0  0  0
 77154  1  0  0  0
 77155  1  0  0  0
 78 80  1  0  0  0
 78 84  1  0  0  0
 78156  1  0  0  0
 79157  1  0  0  0
 80 85  1  0  0  0
 81 83  2  0  0  0
 84158  1  0  0  0
 84159  1  0  0  0
 84160  1  0  0  0
M  CHG  1  84   1
M  ISO  4   1 100  68 101  79 101  80 100
M  END
> <chiral flag>
0

> <version>
0

> <s_m_source_file>
/data/baiqing/PycharmProjects/Reinvent-master-3.2/result/LINK_invent/BTK/process_docking_weight1_custom_sum_contain_oxygen_bond_distance_aromatic_linkinvent_7_9_3/rearranged_h_0074.sdf

> <i_m_source_file_index>
99

> <r_mmod_Potential_Energy-OPLS-2005>
-205.495819091797

> <r_mmod_Stretch_Energy-OPLS-2005>
126.014495849609

> <r_mmod_Bend_Energy-OPLS-2005>
220.637054443359

> <r_mmod_Torsional_Energy-OPLS-2005>
194.082992553711

> <r_mmod_Improper_Torsional_Energy-OPLS-2005>
11.3868055343628

> <r_mmod_Van_der_Waal_Energy-OPLS-2005>
156.471908569336

> <r_mmod_Electrostatic_Energy-OPLS-2005>
-502.686859130859

> <r_mmod_Solvation_Energy-OPLS-2005>
-471.431884765625

> <b_mmod_Minimization_Converged-OPLS-2005>
0

> <r_mmod_RMS_Derivative-OPLS-2005>
3.02024030685425

$$$$
