0
                    3D
 Structure written by MMmdl.
163172  0  0  1  0            999 V2000
  -30.7024  -14.8354   20.4261 C   0  0  0  0  0  0
  -30.3884  -12.5339   19.4756 C   0  0  0  0  0  0
  -29.4774  -12.4961   18.2361 C   0  0  0  0  0  0
  -28.0199  -12.3045   18.6792 C   0  0  0  0  0  0
  -27.6132  -13.2617   19.8311 C   0  0  2  0  0  0
  -28.6681  -13.3318   20.9564 C   0  0  0  0  0  0
  -25.2378  -13.8291   20.5794 C   0  0  0  0  0  0
  -24.1723  -13.0496   20.9293 C   0  0  0  0  0  0
  -24.6351  -11.6994   20.8828 C   0  0  0  0  0  0
  -23.9059  -10.4336   21.0447 C   0  0  0  0  0  0
  -24.3622   -9.4224   21.9193 C   0  0  0  0  0  0
  -23.6293   -8.2253   22.0760 C   0  0  0  0  0  0
  -22.4278   -8.0295   21.3549 C   0  0  0  0  0  0
  -21.9914   -9.0276   20.4667 C   0  0  0  0  0  0
  -22.7242  -10.2156   20.3075 C   0  0  0  0  0  0
  -21.6869   -6.0743   22.5272 C   0  0  0  0  0  0
  -21.4019   -6.5631   23.8217 C   0  0  0  0  0  0
  -21.3661   -5.6784   24.9177 C   0  0  0  0  0  0
  -21.6061   -4.3049   24.7233 C   0  0  0  0  0  0
  -21.8812   -3.8142   23.4341 C   0  0  0  0  0  0
  -21.9190   -4.6961   22.3402 C   0  0  0  0  0  0
  -22.7724  -13.5226   21.1941 C   0  0  0  0  0  0
  -22.1662   -4.2145   21.0990 F   0  0  0  0  0  0
  -21.5628   -3.4539   25.7746 F   0  0  0  0  0  0
  -29.9352  -13.6853   20.3101 N   0  0  0  0  0  0
  -26.2813  -12.9549   20.3326 N   0  0  0  0  0  0
  -25.9284  -11.6675   20.5847 N   0  0  0  0  0  0
  -22.0390  -12.8190   22.0490 N   0  0  0  0  0  0
  -25.4107  -15.2021   20.4205 N   0  0  0  0  0  0
  -31.9151  -14.6727   20.2696 O   0  0  0  0  0  0
  -21.6640   -6.8880   21.4243 O   0  0  0  0  0  0
  -22.3414  -14.5538   20.6801 O   0  0  0  0  0  0
  -24.6283  -31.8583   23.1986 C   0  0  0  0  0  0
  -25.9104  -32.4770   23.8328 C   0  0  1  0  0  0
  -27.1945  -27.2302   20.1649 C   0  0  0  0  0  0
  -25.5916  -33.8577   24.2271 N   0  0  0  0  0  0
  -23.4257  -30.4755   21.5446 C   0  0  2  0  0  0
  -24.8722  -28.9196   20.1103 C   0  0  0  0  0  0
  -22.7505  -29.4594   22.4971 C   0  0  0  0  0  0
  -18.0287  -28.1388   22.8498 C   0  0  0  0  0  0
  -24.1476  -36.7261   23.2642 C   0  0  0  0  0  0
  -25.9713  -30.7568   21.3887 C   0  0  0  0  0  0
  -26.0422  -29.3759   20.7339 C   0  0  0  0  0  0
  -27.2111  -28.5435   20.7485 C   0  0  0  0  0  0
  -26.0130  -26.8474   19.5019 C   0  0  0  0  0  0
  -24.8681  -27.6692   19.4746 C   0  0  0  0  0  0
  -23.6431  -29.8106   20.1591 C   0  0  0  0  0  0
  -25.4117  -36.3092   24.0337 C   0  0  1  0  0  0
  -20.5888  -28.3682   23.1305 C   0  0  2  0  0  0
  -20.6768  -26.9425   22.5404 C   0  0  0  0  0  0
  -19.5757  -26.6404   21.5194 C   0  0  0  0  0  0
  -18.1943  -26.7931   22.1620 C   0  0  0  0  0  0
  -19.1542  -28.8864   23.2883 C   0  0  0  0  0  0
  -18.9452  -30.1466   23.8896 C   0  0  0  0  0  0
  -17.6450  -30.6591   24.0563 C   0  0  0  0  0  0
  -25.9056  -34.9450   23.5111 C   0  0  0  0  0  0
  -16.5347  -29.9078   23.6336 C   0  0  0  0  0  0
  -16.7271  -28.6491   23.0373 C   0  0  0  0  0  0
  -26.4485  -31.6579   25.0697 C   0  0  0  0  0  0
  -25.3705  -31.3661   26.1411 C   0  0  0  0  0  0
  -27.0316  -30.3011   24.6141 C   0  0  0  0  0  0
  -27.6071  -32.4305   25.7434 C   0  0  0  0  0  0
  -27.5594  -37.1796   24.8487 C   0  0  0  0  0  0
  -21.4220  -29.3006   22.3691 N   0  0  0  0  0  0
  -26.4308  -37.3783   23.9420 N   0  0  0  0  0  0
  -24.6928  -31.0513   22.0985 N   0  0  0  0  0  0
  -23.4212  -28.8183   23.3100 O   0  0  0  0  0  0
  -28.2506  -26.2905   20.1907 O   0  0  0  0  0  0
  -26.5641  -34.8922   22.4690 O   0  0  0  0  0  0
  -23.5431  -32.1448   23.7267 O   0  0  0  0  0  0
  -28.4555  -22.2312   21.0213 C   0  0  0  0  0  0
  -28.2557  -23.1529   19.0230 C   0  0  0  0  0  0
  -28.2875  -23.5261   20.3403 C   0  0  0  0  0  0
  -28.4769  -21.1494   20.1267 C   0  0  0  0  0  0
  -30.6592  -18.6359   19.9185 C   0  0  0  0  0  0
  -31.2891  -17.2434   20.1750 C   0  0  0  0  0  0
  -29.0014  -17.0358   20.5784 C   0  0  0  0  0  0
  -29.3756  -18.6208   20.7177 C   0  0  2  0  0  0
  -26.7660  -20.1784   17.6541 C   0  0  0  0  0  0
  -29.1740  -20.5259   16.8674 C   0  0  0  0  0  0
  -28.0359  -24.9983   20.9456 C   0  0  0  0  0  0
  -27.9612  -21.1422   17.5733 C   0  0  0  0  0  0
  -28.2656  -21.7534   18.8730 N   0  0  0  0  0  0
  -30.2521  -16.1906   20.3684 N   0  0  0  0  0  0
  -28.3424  -19.7054   20.4000 N   0  0  0  0  0  0
  -31.4296  -12.6055   19.1581 H   0  0  0  0  0  0
  -30.3244  -11.5996   20.0363 H   0  0  0  0  0  0
  -29.7731  -11.6866   17.5657 H   0  0  0  0  0  0
  -29.5762  -13.4236   17.6689 H   0  0  0  0  0  0
  -27.9221  -11.2712   19.0159 H   0  0  0  0  0  0
  -27.3396  -12.4187   17.8352 H   0  0  0  0  0  0
  -27.5648  -14.2526   19.3780 H   0  0  0  0  0  0
  -28.7447  -12.3830   21.4912 H   0  0  0  0  0  0
  -28.3939  -14.0922   21.6919 H   0  0  0  0  0  0
  -25.2768   -9.5694   22.4773 H   0  0  0  0  0  0
  -24.0015   -7.4640   22.7455 H   0  0  0  0  0  0
  -21.0848   -8.8802   19.8958 H   0  0  0  0  0  0
  -22.3709  -10.9699   19.6195 H   0  0  0  0  0  0
  -21.2015   -7.6148   23.9716 H   0  0  0  0  0  0
  -21.1498   -6.0523   25.9084 H   0  0  0  0  0  0
  -22.0589   -2.7602   23.2852 H   0  0  0  0  0  0
  -22.3990  -11.9816   22.4830 H   0  0  0  0  0  0
  -21.1042  -13.1242   22.2810 H   0  0  0  0  0  0
  -24.6522  -15.8663   20.5344 H   0  0  0  0  0  0
  -26.2704  -15.6312   20.1034 H   0  0  0  0  0  0
  -26.7153  -32.5438   23.1049 H   0  0  0  0  0  0
  -25.0025  -33.9725   25.0395 H   0  0  0  0  0  0
  -22.7198  -31.2970   21.4042 H   0  0  0  0  0  0
  -23.3761  -35.9567   23.3305 H   0  0  0  0  0  0
  -24.3556  -36.8876   22.2058 H   0  0  0  0  0  0
  -23.7190  -37.6444   23.6652 H   0  0  0  0  0  0
  -26.1265  -31.5162   20.6219 H   0  0  0  0  0  0
  -26.8407  -30.8004   22.0315 H   0  0  0  0  0  0
  -28.1005  -28.8834   21.2573 H   0  0  0  0  0  0
  -25.9655  -25.8824   19.0169 H   0  0  0  0  0  0
  -23.9783  -27.3228   18.9670 H   0  0  0  0  0  0
  -23.7700  -30.5875   19.4044 H   0  0  0  0  0  0
  -22.7570  -29.2485   19.8562 H   0  0  0  0  0  0
  -25.1299  -36.1950   25.0828 H   0  0  0  0  0  0
  -20.9945  -28.3205   24.1445 H   0  0  0  0  0  0
  -20.5671  -26.2279   23.3580 H   0  0  0  0  0  0
  -21.6640  -26.7483   22.1210 H   0  0  0  0  0  0
  -19.6910  -25.6313   21.1235 H   0  0  0  0  0  0
  -19.6670  -27.3193   20.6702 H   0  0  0  0  0  0
  -17.4208  -26.6675   21.4022 H   0  0  0  0  0  0
  -18.0372  -26.0066   22.9018 H   0  0  0  0  0  0
  -19.7925  -30.7294   24.2264 H   0  0  0  0  0  0
  -17.4999  -31.6278   24.5157 H   0  0  0  0  0  0
  -15.5349  -30.2980   23.7655 H   0  0  0  0  0  0
  -15.8672  -28.0788   22.7119 H   0  0  0  0  0  0
  -24.5904  -30.7012   25.7680 H   0  0  0  0  0  0
  -24.8851  -32.2775   26.4906 H   0  0  0  0  0  0
  -25.8033  -30.8774   27.0149 H   0  0  0  0  0  0
  -26.2862  -29.6781   24.1185 H   0  0  0  0  0  0
  -27.4029  -29.7269   25.4634 H   0  0  0  0  0  0
  -27.8741  -30.4302   23.9344 H   0  0  0  0  0  0
  -27.2724  -33.3618   26.2015 H   0  0  0  0  0  0
  -28.3835  -32.6852   25.0200 H   0  0  0  0  0  0
  -28.0768  -31.8415   26.5325 H   0  0  0  0  0  0
  -28.2647  -38.0065   24.7555 H   0  0  0  0  0  0
  -28.1072  -36.2620   24.6304 H   0  0  0  0  0  0
  -27.2322  -37.1427   25.8891 H   0  0  0  0  0  0
  -20.9442  -29.8635   21.6802 H   0  0  0  0  0  0
  -26.0199  -38.2868   24.1385 H   0  0  0  0  0  0
  -28.4680  -22.1214   22.0975 H   0  0  0  0  0  0
  -28.1060  -23.7894   18.1599 H   0  0  0  0  0  0
  -30.4692  -18.7573   18.8572 H   0  0  0  0  0  0
  -31.3233  -19.4436   20.2282 H   0  0  0  0  0  0
  -31.9914  -16.9996   19.3755 H   0  0  0  0  0  0
  -31.8697  -17.2965   21.0969 H   0  0  0  0  0  0
  -28.4456  -16.6808   21.4453 H   0  0  0  0  0  0
  -28.3586  -16.8892   19.7104 H   0  0  0  0  0  0
  -29.6699  -18.7876   21.7569 H   0  0  0  0  0  0
  -26.4105  -19.8895   16.6665 H   0  0  0  0  0  0
  -25.9280  -20.6380   18.1807 H   0  0  0  0  0  0
  -27.0319  -19.2642   18.1805 H   0  0  0  0  0  0
  -28.9815  -20.4349   15.7973 H   0  0  0  0  0  0
  -29.3674  -19.5201   17.2272 H   0  0  0  0  0  0
  -30.0757  -21.1278   16.9903 H   0  0  0  0  0  0
  -28.6738  -25.0724   21.8274 H   0  0  0  0  0  0
  -27.0223  -24.9858   21.3530 H   0  0  0  0  0  0
  -27.6323  -21.9563   16.9245 H   0  0  0  0  0  0
  -27.5670  -19.5869   21.0484 H   0  0  0  0  0  0
  1 25  1  0  0  0
  1 30  2  0  0  0
  1 84  1  0  0  0
  2  3  1  0  0  0
  2 25  1  0  0  0
  2 86  1  0  0  0
  2 87  1  0  0  0
  3  4  1  0  0  0
  3 88  1  0  0  0
  3 89  1  0  0  0
  4  5  1  0  0  0
  4 90  1  0  0  0
  4 91  1  0  0  0
  5  6  1  0  0  0
  5 26  1  0  0  0
  5 92  1  0  0  0
  6 25  1  0  0  0
  6 93  1  0  0  0
  6 94  1  0  0  0
  7  8  2  0  0  0
  7 26  1  0  0  0
  7 29  1  0  0  0
  8  9  1  0  0  0
  8 22  1  0  0  0
  9 10  1  0  0  0
  9 27  2  0  0  0
 10 11  2  0  0  0
 10 15  1  0  0  0
 11 12  1  0  0  0
 11 95  1  0  0  0
 12 13  2  0  0  0
 12 96  1  0  0  0
 13 14  1  0  0  0
 13 31  1  0  0  0
 14 15  2  0  0  0
 14 97  1  0  0  0
 15 98  1  0  0  0
 16 17  2  0  0  0
 16 21  1  0  0  0
 16 31  1  0  0  0
 17 18  1  0  0  0
 17 99  1  0  0  0
 18 19  2  0  0  0
 18100  1  0  0  0
 19 20  1  0  0  0
 19 24  1  0  0  0
 20 21  2  0  0  0
 20101  1  0  0  0
 21 23  1  0  0  0
 22 28  1  0  0  0
 22 32  2  0  0  0
 26 27  1  0  0  0
 28102  1  0  0  0
 28103  1  0  0  0
 29104  1  0  0  0
 29105  1  0  0  0
 33 34  1  0  0  0
 33 66  1  0  0  0
 33 70  2  0  0  0
 34 36  1  0  0  0
 34 59  1  0  0  0
 34106  1  0  0  0
 35 44  2  0  0  0
 35 45  1  0  0  0
 35 68  1  0  0  0
 36 56  1  0  0  0
 36107  1  0  0  0
 37 39  1  0  0  0
 37 47  1  0  0  0
 37 66  1  0  0  0
 37108  1  0  0  0
 38 43  2  0  0  0
 38 46  1  0  0  0
 38 47  1  0  0  0
 39 64  1  0  0  0
 39 67  2  0  0  0
 40 52  1  0  0  0
 40 53  2  0  0  0
 40 58  1  0  0  0
 41109  1  0  0  0
 41110  1  0  0  0
 41111  1  0  0  0
 41 48  1  0  0  0
 42 43  1  0  0  0
 42 66  1  0  0  0
 42112  1  0  0  0
 42113  1  0  0  0
 43 44  1  0  0  0
 44114  1  0  0  0
 45 46  2  0  0  0
 45115  1  0  0  0
 46116  1  0  0  0
 47117  1  0  0  0
 47118  1  0  0  0
 48 56  1  0  0  0
 48 65  1  0  0  0
 48119  1  0  0  0
 49 50  1  0  0  0
 49 53  1  0  0  0
 49 64  1  0  0  0
 49120  1  0  0  0
 50 51  1  0  0  0
 50121  1  0  0  0
 50122  1  0  0  0
 51 52  1  0  0  0
 51123  1  0  0  0
 51124  1  0  0  0
 52125  1  0  0  0
 52126  1  0  0  0
 53 54  1  0  0  0
 54 55  2  0  0  0
 54127  1  0  0  0
 55 57  1  0  0  0
 55128  1  0  0  0
 56 69  2  0  0  0
 57 58  2  0  0  0
 57129  1  0  0  0
 58130  1  0  0  0
 59 60  1  0  0  0
 59 61  1  0  0  0
 59 62  1  0  0  0
 60131  1  0  0  0
 60132  1  0  0  0
 60133  1  0  0  0
 61134  1  0  0  0
 61135  1  0  0  0
 61136  1  0  0  0
 62137  1  0  0  0
 62138  1  0  0  0
 62139  1  0  0  0
 63 65  1  0  0  0
 63140  1  0  0  0
 63141  1  0  0  0
 63142  1  0  0  0
 64143  1  0  0  0
 65144  1  0  0  0
 68 81  1  0  0  0
 71 73  1  0  0  0
 71 74  2  0  0  0
 71145  1  0  0  0
 72 73  2  0  0  0
 72 83  1  0  0  0
 72146  1  0  0  0
 73 81  1  0  0  0
 74 83  1  0  0  0
 74 85  1  0  0  0
 75 76  1  0  0  0
 75 78  1  0  0  0
 75147  1  0  0  0
 75148  1  0  0  0
 76 84  1  0  0  0
 76149  1  0  0  0
 76150  1  0  0  0
 77 78  1  0  0  0
 77 84  1  0  0  0
 77151  1  0  0  0
 77152  1  0  0  0
 78 85  1  0  0  0
 78153  1  0  0  0
 79154  1  0  0  0
 79155  1  0  0  0
 79156  1  0  0  0
 79 82  1  0  0  0
 80 82  1  0  0  0
 80157  1  0  0  0
 80158  1  0  0  0
 80159  1  0  0  0
 81160  1  0  0  0
 81161  1  0  0  0
 82 83  1  0  0  0
 82162  1  0  0  0
 85163  1  0  0  0
M  ISO  4   1 100  68 101  81 101  84 100
M  END
> <chiral flag>
0

> <version>
0

> <s_m_source_file>
/data/baiqing/PycharmProjects/Reinvent-master-3.2/result/LINK_invent/BTK/process_docking_weight1_custom_sum_contain_oxygen_bond_distance_aromatic_linkinvent_7_9_3/rearranged_h_0198.sdf

> <i_m_source_file_index>
1

> <r_mmod_Potential_Energy-OPLS-2005>
547.483154296875

> <r_mmod_Stretch_Energy-OPLS-2005>
152.175170898438

> <r_mmod_Bend_Energy-OPLS-2005>
291.244689941406

> <r_mmod_Torsional_Energy-OPLS-2005>
403.14111328125

> <r_mmod_Improper_Torsional_Energy-OPLS-2005>
18.3469123840332

> <r_mmod_Van_der_Waal_Energy-OPLS-2005>
113.423233032227

> <r_mmod_Electrostatic_Energy-OPLS-2005>
-364.822143554688

> <r_mmod_Solvation_Energy-OPLS-2005>
-205.457290649414

> <b_mmod_Minimization_Converged-OPLS-2005>
0

> <r_mmod_RMS_Derivative-OPLS-2005>
4.33424425125122

$$$$
1
                    3D
 Structure written by MMmdl.
166175  0  0  1  0            999 V2000
  -30.6873  -14.5681   20.5265 C   0  0  0  0  0  0
  -30.4254  -12.3606   19.4434 C   0  0  0  0  0  0
  -29.5043  -12.5139   18.2166 C   0  0  0  0  0  0
  -28.0235  -12.3634   18.6228 C   0  0  0  0  0  0
  -27.6545  -13.2210   19.8647 C   0  0  2  0  0  0
  -28.6988  -13.0670   20.9923 C   0  0  0  0  0  0
  -25.2549  -13.8183   20.5683 C   0  0  0  0  0  0
  -24.1818  -13.0452   20.9193 C   0  0  0  0  0  0
  -24.6384  -11.6937   20.8721 C   0  0  0  0  0  0
  -23.9049  -10.4305   21.0402 C   0  0  0  0  0  0
  -24.3615   -9.4224   21.9183 C   0  0  0  0  0  0
  -23.6307   -8.2244   22.0743 C   0  0  0  0  0  0
  -22.4296   -8.0267   21.3532 C   0  0  0  0  0  0
  -21.9910   -9.0243   20.4634 C   0  0  0  0  0  0
  -22.7225  -10.2131   20.3046 C   0  0  0  0  0  0
  -21.6845   -6.0726   22.5280 C   0  0  0  0  0  0
  -21.3992   -6.5645   23.8212 C   0  0  0  0  0  0
  -21.3657   -5.6794   24.9173 C   0  0  0  0  0  0
  -21.6056   -4.3053   24.7219 C   0  0  0  0  0  0
  -21.8825   -3.8142   23.4340 C   0  0  0  0  0  0
  -21.9187   -4.6951   22.3395 C   0  0  0  0  0  0
  -22.7845  -13.5250   21.1856 C   0  0  0  0  0  0
  -22.1671   -4.2152   21.0971 F   0  0  0  0  0  0
  -21.5648   -3.4536   25.7722 F   0  0  0  0  0  0
  -30.0183  -13.3795   20.4259 N   0  0  0  0  0  0
  -26.2991  -12.9384   20.3332 N   0  0  0  0  0  0
  -25.9314  -11.6525   20.5725 N   0  0  0  0  0  0
  -22.0469  -12.8253   22.0405 N   0  0  0  0  0  0
  -25.4285  -15.1901   20.4100 N   0  0  0  0  0  0
  -31.8417  -14.6948   20.1047 O   0  0  0  0  0  0
  -21.6652   -6.8864   21.4228 O   0  0  0  0  0  0
  -22.3534  -14.5546   20.6674 O   0  0  0  0  0  0
  -24.6215  -31.8628   23.2042 C   0  0  0  0  0  0
  -25.9082  -32.4789   23.8360 C   0  0  1  0  0  0
  -27.2253  -27.3713   20.1020 C   0  0  0  0  0  0
  -25.5926  -33.8589   24.2299 N   0  0  0  0  0  0
  -23.4129  -30.4860   21.5460 C   0  0  2  0  0  0
  -24.8569  -28.9412   20.1177 C   0  0  0  0  0  0
  -22.7442  -29.4645   22.4955 C   0  0  0  0  0  0
  -18.0284  -28.1373   22.8502 C   0  0  0  0  0  0
  -24.1486  -36.7307   23.2640 C   0  0  0  0  0  0
  -25.9472  -30.8074   21.3660 C   0  0  0  0  0  0
  -26.0222  -29.4351   20.7190 C   0  0  0  0  0  0
  -27.2122  -28.6592   20.7059 C   0  0  0  0  0  0
  -26.0441  -26.9178   19.4799 C   0  0  0  0  0  0
  -24.8660  -27.6847   19.4934 C   0  0  0  0  0  0
  -23.6228  -29.8157   20.1628 C   0  0  0  0  0  0
  -25.4109  -36.3087   24.0338 C   0  0  1  0  0  0
  -20.5883  -28.3676   23.1307 C   0  0  2  0  0  0
  -20.6766  -26.9403   22.5410 C   0  0  0  0  0  0
  -19.5737  -26.6391   21.5214 C   0  0  0  0  0  0
  -18.1917  -26.7933   22.1617 C   0  0  0  0  0  0
  -19.1533  -28.8839   23.2896 C   0  0  0  0  0  0
  -18.9451  -30.1450   23.8894 C   0  0  0  0  0  0
  -17.6455  -30.6597   24.0557 C   0  0  0  0  0  0
  -25.9044  -34.9452   23.5109 C   0  0  0  0  0  0
  -16.5345  -29.9095   23.6321 C   0  0  0  0  0  0
  -16.7273  -28.6502   23.0358 C   0  0  0  0  0  0
  -26.4487  -31.6577   25.0715 C   0  0  0  0  0  0
  -25.3762  -31.3729   26.1478 C   0  0  0  0  0  0
  -27.0302  -30.3010   24.6108 C   0  0  0  0  0  0
  -27.6065  -32.4289   25.7487 C   0  0  0  0  0  0
  -27.5578  -37.1810   24.8464 C   0  0  0  0  0  0
  -21.4162  -29.3055   22.3708 N   0  0  0  0  0  0
  -26.4285  -37.3783   23.9413 N   0  0  0  0  0  0
  -24.6793  -31.0687   22.0966 N   0  0  0  0  0  0
  -23.4185  -28.8180   23.3010 O   0  0  0  0  0  0
  -28.3685  -26.5834   20.0596 O   0  0  0  0  0  0
  -26.5588  -34.8927   22.4664 O   0  0  0  0  0  0
  -23.5388  -32.1406   23.7392 O   0  0  0  0  0  0
  -30.1333  -17.9487   21.8467 C   0  0  0  0  0  0
  -27.4385  -24.1292   20.1111 C   0  0  0  0  0  0
  -29.4885  -24.3032   20.4162 C   0  0  0  0  0  0
  -30.6022  -16.4951   22.0510 C   0  0  0  0  0  0
  -29.3223  -16.6035   20.0749 C   0  0  0  0  0  0
  -29.8142  -18.0604   20.3610 C   0  0  1  0  0  0
  -28.4960  -23.1265   20.6399 C   0  0  2  0  0  0
  -28.3040  -25.2747   20.7001 C   0  0  1  0  0  0
  -27.1506  -19.7264   18.0354 C   0  0  0  0  0  0
  -28.5531  -19.2145   18.4284 C   0  0  0  0  0  0
  -29.3767  -20.6978   20.4152 C   0  0  0  0  0  0
  -28.8679  -19.2658   19.9511 C   0  0  2  0  0  0
  -30.0039  -15.6560   20.9977 N   0  0  0  0  0  0
  -28.6373  -21.8680   19.8258 N   0  3  0  0  0  0
  -31.4706  -12.4596   19.1439 H   0  0  0  0  0  0
  -30.3408  -11.3609   19.8728 H   0  0  0  0  0  0
  -29.7627  -11.7767   17.4550 H   0  0  0  0  0  0
  -29.6631  -13.4934   17.7598 H   0  0  0  0  0  0
  -27.8381  -11.3089   18.8303 H   0  0  0  0  0  0
  -27.3771  -12.6269   17.7849 H   0  0  0  0  0  0
  -27.6757  -14.2600   19.5346 H   0  0  0  0  0  0
  -28.6944  -12.0489   21.3860 H   0  0  0  0  0  0
  -28.4586  -13.7174   21.8338 H   0  0  0  0  0  0
  -25.2764   -9.5709   22.4762 H   0  0  0  0  0  0
  -24.0028   -7.4614   22.7459 H   0  0  0  0  0  0
  -21.0838   -8.8730   19.8940 H   0  0  0  0  0  0
  -22.3674  -10.9651   19.6138 H   0  0  0  0  0  0
  -21.1958   -7.6142   23.9726 H   0  0  0  0  0  0
  -21.1500   -6.0511   25.9091 H   0  0  0  0  0  0
  -22.0597   -2.7594   23.2827 H   0  0  0  0  0  0
  -22.4051  -11.9905   22.4804 H   0  0  0  0  0  0
  -21.1051  -13.1253   22.2534 H   0  0  0  0  0  0
  -24.6716  -15.8528   20.5288 H   0  0  0  0  0  0
  -26.2926  -15.6221   20.1079 H   0  0  0  0  0  0
  -26.7147  -32.5473   23.1112 H   0  0  0  0  0  0
  -25.0125  -33.9741   25.0482 H   0  0  0  0  0  0
  -22.7048  -31.3046   21.4014 H   0  0  0  0  0  0
  -23.3748  -35.9637   23.3270 H   0  0  0  0  0  0
  -24.3579  -36.8949   22.2059 H   0  0  0  0  0  0
  -23.7227  -37.6502   23.6669 H   0  0  0  0  0  0
  -26.0625  -31.5642   20.5884 H   0  0  0  0  0  0
  -26.8335  -30.8628   21.9849 H   0  0  0  0  0  0
  -28.1125  -29.0372   21.1695 H   0  0  0  0  0  0
  -26.0242  -25.9732   18.9587 H   0  0  0  0  0  0
  -23.9771  -27.3064   19.0063 H   0  0  0  0  0  0
  -23.7337  -30.5876   19.3997 H   0  0  0  0  0  0
  -22.7463  -29.2366   19.8652 H   0  0  0  0  0  0
  -25.1294  -36.1934   25.0832 H   0  0  0  0  0  0
  -20.9985  -28.3214   24.1428 H   0  0  0  0  0  0
  -20.5655  -26.2290   23.3603 H   0  0  0  0  0  0
  -21.6622  -26.7406   22.1199 H   0  0  0  0  0  0
  -19.6883  -25.6295   21.1259 H   0  0  0  0  0  0
  -19.6706  -27.3187   20.6732 H   0  0  0  0  0  0
  -17.4210  -26.6711   21.3993 H   0  0  0  0  0  0
  -18.0276  -26.0052   22.8976 H   0  0  0  0  0  0
  -19.7934  -30.7247   24.2257 H   0  0  0  0  0  0
  -17.5022  -31.6282   24.5145 H   0  0  0  0  0  0
  -15.5347  -30.2984   23.7658 H   0  0  0  0  0  0
  -15.8676  -28.0825   22.7060 H   0  0  0  0  0  0
  -24.5872  -30.7141   25.7832 H   0  0  0  0  0  0
  -24.9043  -32.2914   26.4977 H   0  0  0  0  0  0
  -25.8114  -30.8848   27.0211 H   0  0  0  0  0  0
  -26.2833  -29.6770   24.1186 H   0  0  0  0  0  0
  -27.4077  -29.7243   25.4562 H   0  0  0  0  0  0
  -27.8674  -30.4304   23.9251 H   0  0  0  0  0  0
  -27.2702  -33.3612   26.2030 H   0  0  0  0  0  0
  -28.3916  -32.6790   25.0343 H   0  0  0  0  0  0
  -28.0677  -31.8417   26.5441 H   0  0  0  0  0  0
  -28.2597  -38.0105   24.7471 H   0  0  0  0  0  0
  -28.1062  -36.2627   24.6318 H   0  0  0  0  0  0
  -27.2291  -37.1470   25.8864 H   0  0  0  0  0  0
  -20.9314  -29.8841   21.6988 H   0  0  0  0  0  0
  -26.0168  -38.2864   24.1383 H   0  0  0  0  0  0
  -30.8860  -18.6716   22.1608 H   0  0  0  0  0  0
  -29.2380  -18.1294   22.4422 H   0  0  0  0  0  0
  -26.4513  -24.0222   20.5618 H   0  0  0  0  0  0
  -27.3745  -24.1522   19.0201 H   0  0  0  0  0  0
  -29.8688  -24.3840   19.3953 H   0  0  0  0  0  0
  -30.3012  -24.3591   21.1417 H   0  0  0  0  0  0
  -30.3130  -16.1280   23.0356 H   0  0  0  0  0  0
  -31.6946  -16.4554   22.0093 H   0  0  0  0  0  0
  -29.4820  -16.3220   19.0319 H   0  0  0  0  0  0
  -28.2509  -16.5343   20.2632 H   0  0  0  0  0  0
  -30.7634  -18.1864   19.8337 H   0  0  0  0  0  0
  -28.3371  -22.9155   21.6996 H   0  0  0  0  0  0
  -28.1373  -25.3885   21.7749 H   0  0  0  0  0  0
  -26.9031  -19.4239   17.0171 H   0  0  0  0  0  0
  -27.0551  -20.8109   18.0632 H   0  0  0  0  0  0
  -26.3813  -19.3055   18.6841 H   0  0  0  0  0  0
  -29.3266  -19.7260   17.8526 H   0  0  0  0  0  0
  -28.5923  -18.1836   18.0818 H   0  0  0  0  0  0
  -30.4368  -20.8208   20.1901 H   0  0  0  0  0  0
  -29.3000  -20.7493   21.5014 H   0  0  0  0  0  0
  -27.9277  -19.0864   20.4758 H   0  0  0  0  0  0
  -29.0186  -22.0751   18.9153 H   0  0  0  0  0  0
  -27.7001  -21.5293   19.6725 H   0  0  0  0  0  0
  1 25  1  0  0  0
  1 30  2  0  0  0
  1 83  1  0  0  0
  2  3  1  0  0  0
  2 25  1  0  0  0
  2 85  1  0  0  0
  2 86  1  0  0  0
  3  4  1  0  0  0
  3 87  1  0  0  0
  3 88  1  0  0  0
  4  5  1  0  0  0
  4 89  1  0  0  0
  4 90  1  0  0  0
  5  6  1  0  0  0
  5 26  1  0  0  0
  5 91  1  0  0  0
  6 25  1  0  0  0
  6 92  1  0  0  0
  6 93  1  0  0  0
  7  8  2  0  0  0
  7 26  1  0  0  0
  7 29  1  0  0  0
  8  9  1  0  0  0
  8 22  1  0  0  0
  9 10  1  0  0  0
  9 27  2  0  0  0
 10 11  2  0  0  0
 10 15  1  0  0  0
 11 12  1  0  0  0
 11 94  1  0  0  0
 12 13  2  0  0  0
 12 95  1  0  0  0
 13 14  1  0  0  0
 13 31  1  0  0  0
 14 15  2  0  0  0
 14 96  1  0  0  0
 15 97  1  0  0  0
 16 17  2  0  0  0
 16 21  1  0  0  0
 16 31  1  0  0  0
 17 18  1  0  0  0
 17 98  1  0  0  0
 18 19  2  0  0  0
 18 99  1  0  0  0
 19 20  1  0  0  0
 19 24  1  0  0  0
 20 21  2  0  0  0
 20100  1  0  0  0
 21 23  1  0  0  0
 22 28  1  0  0  0
 22 32  2  0  0  0
 26 27  1  0  0  0
 28101  1  0  0  0
 28102  1  0  0  0
 29103  1  0  0  0
 29104  1  0  0  0
 33 34  1  0  0  0
 33 66  1  0  0  0
 33 70  2  0  0  0
 34 36  1  0  0  0
 34 59  1  0  0  0
 34105  1  0  0  0
 35 44  2  0  0  0
 35 45  1  0  0  0
 35 68  1  0  0  0
 36 56  1  0  0  0
 36106  1  0  0  0
 37 39  1  0  0  0
 37 47  1  0  0  0
 37 66  1  0  0  0
 37107  1  0  0  0
 38 43  2  0  0  0
 38 46  1  0  0  0
 38 47  1  0  0  0
 39 64  1  0  0  0
 39 67  2  0  0  0
 40 52  1  0  0  0
 40 53  2  0  0  0
 40 58  1  0  0  0
 41108  1  0  0  0
 41109  1  0  0  0
 41110  1  0  0  0
 41 48  1  0  0  0
 42 43  1  0  0  0
 42 66  1  0  0  0
 42111  1  0  0  0
 42112  1  0  0  0
 43 44  1  0  0  0
 44113  1  0  0  0
 45 46  2  0  0  0
 45114  1  0  0  0
 46115  1  0  0  0
 47116  1  0  0  0
 47117  1  0  0  0
 48 56  1  0  0  0
 48 65  1  0  0  0
 48118  1  0  0  0
 49 50  1  0  0  0
 49 53  1  0  0  0
 49 64  1  0  0  0
 49119  1  0  0  0
 50 51  1  0  0  0
 50120  1  0  0  0
 50121  1  0  0  0
 51 52  1  0  0  0
 51122  1  0  0  0
 51123  1  0  0  0
 52124  1  0  0  0
 52125  1  0  0  0
 53 54  1  0  0  0
 54 55  2  0  0  0
 54126  1  0  0  0
 55 57  1  0  0  0
 55127  1  0  0  0
 56 69  2  0  0  0
 57 58  2  0  0  0
 57128  1  0  0  0
 58129  1  0  0  0
 59 60  1  0  0  0
 59 61  1  0  0  0
 59 62  1  0  0  0
 60130  1  0  0  0
 60131  1  0  0  0
 60132  1  0  0  0
 61133  1  0  0  0
 61134  1  0  0  0
 61135  1  0  0  0
 62136  1  0  0  0
 62137  1  0  0  0
 62138  1  0  0  0
 63 65  1  0  0  0
 63139  1  0  0  0
 63140  1  0  0  0
 63141  1  0  0  0
 64142  1  0  0  0
 65143  1  0  0  0
 68 78  1  0  0  0
 71 74  1  0  0  0
 71144  1  0  0  0
 71145  1  0  0  0
 71 76  1  0  0  0
 72 77  1  0  0  0
 72 78  1  0  0  0
 72146  1  0  0  0
 72147  1  0  0  0
 73 77  1  0  0  0
 73 78  1  0  0  0
 73148  1  0  0  0
 73149  1  0  0  0
 74 83  1  0  0  0
 74150  1  0  0  0
 74151  1  0  0  0
 75 76  1  0  0  0
 75 83  1  0  0  0
 75152  1  0  0  0
 75153  1  0  0  0
 76 82  1  0  0  0
 76154  1  0  0  0
 77 84  1  0  0  0
 77155  1  0  0  0
 78156  1  0  0  0
 79 80  1  0  0  0
 79157  1  0  0  0
 79158  1  0  0  0
 79159  1  0  0  0
 80160  1  0  0  0
 80161  1  0  0  0
 80 82  1  0  0  0
 81 82  1  0  0  0
 81 84  1  0  0  0
 81162  1  0  0  0
 81163  1  0  0  0
 82164  1  0  0  0
 84165  1  0  0  0
 84166  1  0  0  0
M  CHG  1  84   1
M  ISO  4   1 100  68 101  78 101  83 100
M  END
> <chiral flag>
0

> <version>
0

> <s_m_source_file>
/data/baiqing/PycharmProjects/Reinvent-master-3.2/result/LINK_invent/BTK/process_docking_weight1_custom_sum_contain_oxygen_bond_distance_aromatic_linkinvent_7_9_3/rearranged_h_0198.sdf

> <i_m_source_file_index>
2

> <r_mmod_Potential_Energy-OPLS-2005>
153.892105102539

> <r_mmod_Stretch_Energy-OPLS-2005>
58.2718124389648

> <r_mmod_Bend_Energy-OPLS-2005>
171.485061645508

> <r_mmod_Torsional_Energy-OPLS-2005>
394.036560058594

> <r_mmod_Improper_Torsional_Energy-OPLS-2005>
6.79305839538574

> <r_mmod_Van_der_Waal_Energy-OPLS-2005>
121.022102355957

> <r_mmod_Electrostatic_Energy-OPLS-2005>
-172.617416381836

> <r_mmod_Solvation_Energy-OPLS-2005>
-452.363891601562

> <b_mmod_Minimization_Converged-OPLS-2005>
0

> <r_mmod_RMS_Derivative-OPLS-2005>
3.3783712387085

$$$$
2
                    3D
 Structure written by MMmdl.
159168  0  0  1  0            999 V2000
  -30.6978  -14.5133   20.5498 C   0  0  0  0  0  0
  -30.4223  -12.3327   19.4257 C   0  0  0  0  0  0
  -29.4919  -12.4961   18.2062 C   0  0  0  0  0  0
  -28.0144  -12.3522   18.6230 C   0  0  0  0  0  0
  -27.6536  -13.2120   19.8633 C   0  0  2  0  0  0
  -28.6988  -13.0331   20.9867 C   0  0  0  0  0  0
  -25.2562  -13.8178   20.5677 C   0  0  0  0  0  0
  -24.1826  -13.0445   20.9198 C   0  0  0  0  0  0
  -24.6388  -11.6912   20.8753 C   0  0  0  0  0  0
  -23.9063  -10.4294   21.0417 C   0  0  0  0  0  0
  -24.3619   -9.4209   21.9191 C   0  0  0  0  0  0
  -23.6293   -8.2245   22.0752 C   0  0  0  0  0  0
  -22.4277   -8.0287   21.3544 C   0  0  0  0  0  0
  -21.9913   -9.0261   20.4648 C   0  0  0  0  0  0
  -22.7240  -10.2139   20.3059 C   0  0  0  0  0  0
  -21.6847   -6.0739   22.5281 C   0  0  0  0  0  0
  -21.4011   -6.5644   23.8216 C   0  0  0  0  0  0
  -21.3663   -5.6797   24.9180 C   0  0  0  0  0  0
  -21.6039   -4.3058   24.7227 C   0  0  0  0  0  0
  -21.8823   -3.8153   23.4351 C   0  0  0  0  0  0
  -21.9191   -4.6968   22.3404 C   0  0  0  0  0  0
  -22.7849  -13.5242   21.1863 C   0  0  0  0  0  0
  -22.1661   -4.2157   21.0979 F   0  0  0  0  0  0
  -21.5632   -3.4537   25.7738 F   0  0  0  0  0  0
  -30.0216  -13.3389   20.4219 N   0  0  0  0  0  0
  -26.2986  -12.9348   20.3324 N   0  0  0  0  0  0
  -25.9312  -11.6507   20.5770 N   0  0  0  0  0  0
  -22.0483  -12.8231   22.0419 N   0  0  0  0  0  0
  -25.4295  -15.1891   20.4075 N   0  0  0  0  0  0
  -31.8566  -14.6530   20.1537 O   0  0  0  0  0  0
  -21.6638   -6.8885   21.4244 O   0  0  0  0  0  0
  -22.3536  -14.5547   20.6718 O   0  0  0  0  0  0
  -24.6182  -31.8664   23.2090 C   0  0  0  0  0  0
  -25.9063  -32.4815   23.8386 C   0  0  1  0  0  0
  -27.2276  -27.3997   20.0947 C   0  0  0  0  0  0
  -25.5902  -33.8619   24.2311 N   0  0  0  0  0  0
  -23.4070  -30.4926   21.5499 C   0  0  2  0  0  0
  -24.8526  -28.9613   20.1106 C   0  0  0  0  0  0
  -22.7435  -29.4657   22.4968 C   0  0  0  0  0  0
  -18.0282  -28.1366   22.8484 C   0  0  0  0  0  0
  -24.1490  -36.7315   23.2642 C   0  0  0  0  0  0
  -25.9413  -30.8230   21.3681 C   0  0  0  0  0  0
  -26.0176  -29.4570   20.7091 C   0  0  0  0  0  0
  -27.2077  -28.6851   20.6962 C   0  0  0  0  0  0
  -26.0391  -26.9373   19.4797 C   0  0  0  0  0  0
  -24.8607  -27.7024   19.4921 C   0  0  0  0  0  0
  -23.6171  -29.8317   20.1625 C   0  0  0  0  0  0
  -25.4109  -36.3108   24.0339 C   0  0  1  0  0  0
  -20.5877  -28.3659   23.1300 C   0  0  2  0  0  0
  -20.6773  -26.9390   22.5405 C   0  0  0  0  0  0
  -19.5748  -26.6378   21.5209 C   0  0  0  0  0  0
  -18.1931  -26.7909   22.1624 C   0  0  0  0  0  0
  -19.1535  -28.8830   23.2880 C   0  0  0  0  0  0
  -18.9465  -30.1440   23.8886 C   0  0  0  0  0  0
  -17.6464  -30.6568   24.0561 C   0  0  0  0  0  0
  -25.9042  -34.9479   23.5128 C   0  0  0  0  0  0
  -16.5357  -29.9062   23.6326 C   0  0  0  0  0  0
  -16.7273  -28.6492   23.0330 C   0  0  0  0  0  0
  -26.4466  -31.6610   25.0729 C   0  0  0  0  0  0
  -25.3726  -31.3733   26.1477 C   0  0  0  0  0  0
  -27.0305  -30.3050   24.6127 C   0  0  0  0  0  0
  -27.6030  -32.4341   25.7481 C   0  0  0  0  0  0
  -27.5583  -37.1811   24.8464 C   0  0  0  0  0  0
  -21.4157  -29.3033   22.3718 N   0  0  0  0  0  0
  -26.4298  -37.3796   23.9416 N   0  0  0  0  0  0
  -24.6738  -31.0743   22.1003 N   0  0  0  0  0  0
  -23.4210  -28.8187   23.3002 O   0  0  0  0  0  0
  -28.3764  -26.6171   20.1300 O   0  0  0  0  0  0
  -26.5606  -34.8927   22.4687 O   0  0  0  0  0  0
  -23.5363  -32.1436   23.7452 O   0  0  0  0  0  0
  -30.1248  -21.8371   20.5614 C   0  0  0  0  0  0
  -27.9913  -22.1755   20.5025 C   0  0  0  0  0  0
  -29.4793  -20.6138   20.6138 C   0  0  0  0  0  0
  -29.3270  -18.0544   20.9596 C   0  0  0  0  0  0
  -31.4740  -19.0647   20.6453 C   0  0  0  0  0  0
  -30.4098  -16.9777   21.2700 C   0  0  2  0  0  0
  -31.6085  -17.5426   20.4715 C   0  0  2  0  0  0
  -29.3900  -24.3094   20.4797 C   0  0  0  0  0  0
  -28.1907  -25.1821   20.0059 C   0  0  0  0  0  0
  -28.1102  -20.8475   20.5770 N   0  0  0  0  0  0
  -29.1557  -22.8477   20.4920 N   0  0  0  0  0  0
  -30.0422  -19.3132   20.6992 N   0  0  0  0  0  0
  -29.9844  -15.5733   20.9961 N   0  0  0  0  0  0
  -32.9153  -17.0186   20.8991 N   0  3  0  0  0  0
  -31.4649  -12.4373   19.1192 H   0  0  0  0  0  0
  -30.3359  -11.3302   19.8481 H   0  0  0  0  0  0
  -29.7381  -11.7569   17.4429 H   0  0  0  0  0  0
  -29.6521  -13.4734   17.7474 H   0  0  0  0  0  0
  -27.8344  -11.2985   18.8394 H   0  0  0  0  0  0
  -27.3612  -12.6056   17.7863 H   0  0  0  0  0  0
  -27.6850  -14.2527   19.5396 H   0  0  0  0  0  0
  -28.6850  -12.0083   21.3597 H   0  0  0  0  0  0
  -28.4602  -13.6627   21.8453 H   0  0  0  0  0  0
  -25.2764   -9.5686   22.4766 H   0  0  0  0  0  0
  -24.0008   -7.4631   22.7460 H   0  0  0  0  0  0
  -21.0846   -8.8784   19.8943 H   0  0  0  0  0  0
  -22.3706  -10.9685   19.6170 H   0  0  0  0  0  0
  -21.1999   -7.6149   23.9727 H   0  0  0  0  0  0
  -21.1479   -6.0520   25.9084 H   0  0  0  0  0  0
  -22.0595   -2.7614   23.2844 H   0  0  0  0  0  0
  -22.4089  -11.9881   22.4794 H   0  0  0  0  0  0
  -21.1103  -13.1258   22.2621 H   0  0  0  0  0  0
  -24.6631  -15.8461   20.5089 H   0  0  0  0  0  0
  -26.2742  -15.6217   20.0564 H   0  0  0  0  0  0
  -26.7144  -32.5508   23.1151 H   0  0  0  0  0  0
  -25.0021  -33.9772   25.0431 H   0  0  0  0  0  0
  -22.6960  -31.3094   21.4126 H   0  0  0  0  0  0
  -23.3743  -35.9658   23.3315 H   0  0  0  0  0  0
  -24.3581  -36.8920   22.2057 H   0  0  0  0  0  0
  -23.7263  -37.6527   23.6651 H   0  0  0  0  0  0
  -26.0613  -31.5928   20.6039 H   0  0  0  0  0  0
  -26.8263  -30.8689   21.9910 H   0  0  0  0  0  0
  -28.1044  -29.0636   21.1677 H   0  0  0  0  0  0
  -25.9936  -25.9776   18.9866 H   0  0  0  0  0  0
  -23.9668  -27.3150   19.0228 H   0  0  0  0  0  0
  -23.7280  -30.6118   19.4079 H   0  0  0  0  0  0
  -22.7392  -29.2571   19.8619 H   0  0  0  0  0  0
  -25.1292  -36.1968   25.0836 H   0  0  0  0  0  0
  -20.9964  -28.3221   24.1420 H   0  0  0  0  0  0
  -20.5687  -26.2263   23.3593 H   0  0  0  0  0  0
  -21.6639  -26.7415   22.1198 H   0  0  0  0  0  0
  -19.6904  -25.6295   21.1213 H   0  0  0  0  0  0
  -19.6687  -27.3202   20.6755 H   0  0  0  0  0  0
  -17.4201  -26.6667   21.4023 H   0  0  0  0  0  0
  -18.0319  -26.0039   22.9008 H   0  0  0  0  0  0
  -19.7946  -30.7261   24.2235 H   0  0  0  0  0  0
  -17.5020  -31.6243   24.5164 H   0  0  0  0  0  0
  -15.5349  -30.2965   23.7655 H   0  0  0  0  0  0
  -15.8678  -28.0822   22.7019 H   0  0  0  0  0  0
  -24.5881  -30.7099   25.7818 H   0  0  0  0  0  0
  -24.8938  -32.2899   26.4933 H   0  0  0  0  0  0
  -25.8079  -30.8897   27.0231 H   0  0  0  0  0  0
  -26.2869  -29.6802   24.1169 H   0  0  0  0  0  0
  -27.4050  -29.7297   25.4601 H   0  0  0  0  0  0
  -27.8707  -30.4350   23.9303 H   0  0  0  0  0  0
  -27.2632  -33.3625   26.2085 H   0  0  0  0  0  0
  -28.3813  -32.6942   25.0292 H   0  0  0  0  0  0
  -28.0729  -31.8464   26.5375 H   0  0  0  0  0  0
  -28.2599  -38.0110   24.7508 H   0  0  0  0  0  0
  -28.1080  -36.2640   24.6290 H   0  0  0  0  0  0
  -27.2296  -37.1458   25.8865 H   0  0  0  0  0  0
  -20.9313  -29.8772   21.6957 H   0  0  0  0  0  0
  -26.0178  -38.2869   24.1422 H   0  0  0  0  0  0
  -31.1805  -22.0727   20.5829 H   0  0  0  0  0  0
  -27.0265  -22.6596   20.4665 H   0  0  0  0  0  0
  -28.6212  -18.1660   21.7846 H   0  0  0  0  0  0
  -28.7544  -17.7881   20.0689 H   0  0  0  0  0  0
  -31.9507  -19.6087   19.8279 H   0  0  0  0  0  0
  -31.9235  -19.4004   21.5818 H   0  0  0  0  0  0
  -30.6426  -17.0427   22.3340 H   0  0  0  0  0  0
  -31.4735  -17.3106   19.4127 H   0  0  0  0  0  0
  -29.6706  -24.6059   21.4902 H   0  0  0  0  0  0
  -30.2552  -24.5096   19.8479 H   0  0  0  0  0  0
  -27.3223  -24.9007   20.6037 H   0  0  0  0  0  0
  -27.9721  -24.9331   18.9666 H   0  0  0  0  0  0
  -29.0294  -15.3593   21.2397 H   0  0  0  0  0  0
  -33.0766  -17.1654   21.8786 H   0  0  0  0  0  0
  -33.6638  -17.4306   20.3715 H   0  0  0  0  0  0
  -32.8932  -16.0216   20.7080 H   0  0  0  0  0  0
  1 25  1  0  0  0
  1 30  2  0  0  0
  1 83  1  0  0  0
  2  3  1  0  0  0
  2 25  1  0  0  0
  2 85  1  0  0  0
  2 86  1  0  0  0
  3  4  1  0  0  0
  3 87  1  0  0  0
  3 88  1  0  0  0
  4  5  1  0  0  0
  4 89  1  0  0  0
  4 90  1  0  0  0
  5  6  1  0  0  0
  5 26  1  0  0  0
  5 91  1  0  0  0
  6 25  1  0  0  0
  6 92  1  0  0  0
  6 93  1  0  0  0
  7  8  2  0  0  0
  7 26  1  0  0  0
  7 29  1  0  0  0
  8  9  1  0  0  0
  8 22  1  0  0  0
  9 10  1  0  0  0
  9 27  2  0  0  0
 10 11  2  0  0  0
 10 15  1  0  0  0
 11 12  1  0  0  0
 11 94  1  0  0  0
 12 13  2  0  0  0
 12 95  1  0  0  0
 13 14  1  0  0  0
 13 31  1  0  0  0
 14 15  2  0  0  0
 14 96  1  0  0  0
 15 97  1  0  0  0
 16 17  2  0  0  0
 16 21  1  0  0  0
 16 31  1  0  0  0
 17 18  1  0  0  0
 17 98  1  0  0  0
 18 19  2  0  0  0
 18 99  1  0  0  0
 19 20  1  0  0  0
 19 24  1  0  0  0
 20 21  2  0  0  0
 20100  1  0  0  0
 21 23  1  0  0  0
 22 28  1  0  0  0
 22 32  2  0  0  0
 26 27  1  0  0  0
 28101  1  0  0  0
 28102  1  0  0  0
 29103  1  0  0  0
 29104  1  0  0  0
 33 34  1  0  0  0
 33 66  1  0  0  0
 33 70  2  0  0  0
 34 36  1  0  0  0
 34 59  1  0  0  0
 34105  1  0  0  0
 35 44  2  0  0  0
 35 45  1  0  0  0
 35 68  1  0  0  0
 36 56  1  0  0  0
 36106  1  0  0  0
 37 39  1  0  0  0
 37 47  1  0  0  0
 37 66  1  0  0  0
 37107  1  0  0  0
 38 43  2  0  0  0
 38 46  1  0  0  0
 38 47  1  0  0  0
 39 64  1  0  0  0
 39 67  2  0  0  0
 40 52  1  0  0  0
 40 53  2  0  0  0
 40 58  1  0  0  0
 41108  1  0  0  0
 41109  1  0  0  0
 41110  1  0  0  0
 41 48  1  0  0  0
 42 43  1  0  0  0
 42 66  1  0  0  0
 42111  1  0  0  0
 42112  1  0  0  0
 43 44  1  0  0  0
 44113  1  0  0  0
 45 46  2  0  0  0
 45114  1  0  0  0
 46115  1  0  0  0
 47116  1  0  0  0
 47117  1  0  0  0
 48 56  1  0  0  0
 48 65  1  0  0  0
 48118  1  0  0  0
 49 50  1  0  0  0
 49 53  1  0  0  0
 49 64  1  0  0  0
 49119  1  0  0  0
 50 51  1  0  0  0
 50120  1  0  0  0
 50121  1  0  0  0
 51 52  1  0  0  0
 51122  1  0  0  0
 51123  1  0  0  0
 52124  1  0  0  0
 52125  1  0  0  0
 53 54  1  0  0  0
 54 55  2  0  0  0
 54126  1  0  0  0
 55 57  1  0  0  0
 55127  1  0  0  0
 56 69  2  0  0  0
 57 58  2  0  0  0
 57128  1  0  0  0
 58129  1  0  0  0
 59 60  1  0  0  0
 59 61  1  0  0  0
 59 62  1  0  0  0
 60130  1  0  0  0
 60131  1  0  0  0
 60132  1  0  0  0
 61133  1  0  0  0
 61134  1  0  0  0
 61135  1  0  0  0
 62136  1  0  0  0
 62137  1  0  0  0
 62138  1  0  0  0
 63 65  1  0  0  0
 63139  1  0  0  0
 63140  1  0  0  0
 63141  1  0  0  0
 64142  1  0  0  0
 65143  1  0  0  0
 68 79  1  0  0  0
 71 73  2  0  0  0
 71 81  1  0  0  0
 71144  1  0  0  0
 72 80  2  0  0  0
 72 81  1  0  0  0
 72145  1  0  0  0
 73 80  1  0  0  0
 73 82  1  0  0  0
 74 76  1  0  0  0
 74 82  1  0  0  0
 74146  1  0  0  0
 74147  1  0  0  0
 75 77  1  0  0  0
 75 82  1  0  0  0
 75148  1  0  0  0
 75149  1  0  0  0
 76 77  1  0  0  0
 76 83  1  0  0  0
 76150  1  0  0  0
 77 84  1  0  0  0
 77151  1  0  0  0
 78 79  1  0  0  0
 78 81  1  0  0  0
 78152  1  0  0  0
 78153  1  0  0  0
 79154  1  0  0  0
 79155  1  0  0  0
 83156  1  0  0  0
 84157  1  0  0  0
 84158  1  0  0  0
 84159  1  0  0  0
M  CHG  1  84   1
M  ISO  4   1 100  68 101  79 101  83 100
M  END
> <chiral flag>
0

> <version>
0

> <s_m_source_file>
/data/baiqing/PycharmProjects/Reinvent-master-3.2/result/LINK_invent/BTK/process_docking_weight1_custom_sum_contain_oxygen_bond_distance_aromatic_linkinvent_7_9_3/rearranged_h_0198.sdf

> <i_m_source_file_index>
3

> <r_mmod_Potential_Energy-OPLS-2005>
-438.613250732422

> <r_mmod_Stretch_Energy-OPLS-2005>
44.0989723205566

> <r_mmod_Bend_Energy-OPLS-2005>
152.549026489258

> <r_mmod_Torsional_Energy-OPLS-2005>
287.142974853516

> <r_mmod_Improper_Torsional_Energy-OPLS-2005>
3.48301291465759

> <r_mmod_Van_der_Waal_Energy-OPLS-2005>
141.036087036133

> <r_mmod_Electrostatic_Energy-OPLS-2005>
-597.279479980469

> <r_mmod_Solvation_Energy-OPLS-2005>
-491.009796142578

> <b_mmod_Minimization_Converged-OPLS-2005>
0

> <r_mmod_RMS_Derivative-OPLS-2005>
1.7873158454895

$$$$
3
                    3D
 Structure written by MMmdl.
157166  0  0  1  0            999 V2000
  -30.6950  -14.4725   20.5644 C   0  0  0  0  0  0
  -30.4217  -12.3076   19.4120 C   0  0  0  0  0  0
  -29.4885  -12.4968   18.1999 C   0  0  0  0  0  0
  -28.0104  -12.3608   18.6176 C   0  0  0  0  0  0
  -27.6574  -13.2045   19.8698 C   0  0  2  0  0  0
  -28.7018  -12.9911   20.9872 C   0  0  0  0  0  0
  -25.2595  -13.8169   20.5680 C   0  0  0  0  0  0
  -24.1844  -13.0444   20.9169 C   0  0  0  0  0  0
  -24.6385  -11.6911   20.8732 C   0  0  0  0  0  0
  -23.9052  -10.4296   21.0403 C   0  0  0  0  0  0
  -24.3606   -9.4215   21.9181 C   0  0  0  0  0  0
  -23.6288   -8.2246   22.0744 C   0  0  0  0  0  0
  -22.4271   -8.0270   21.3537 C   0  0  0  0  0  0
  -21.9905   -9.0249   20.4649 C   0  0  0  0  0  0
  -22.7225  -10.2131   20.3064 C   0  0  0  0  0  0
  -21.6852   -6.0724   22.5267 C   0  0  0  0  0  0
  -21.4016   -6.5634   23.8196 C   0  0  0  0  0  0
  -21.3673   -5.6781   24.9162 C   0  0  0  0  0  0
  -21.6052   -4.3045   24.7210 C   0  0  0  0  0  0
  -21.8831   -3.8137   23.4334 C   0  0  0  0  0  0
  -21.9200   -4.6959   22.3387 C   0  0  0  0  0  0
  -22.7871  -13.5239   21.1839 C   0  0  0  0  0  0
  -22.1671   -4.2145   21.0965 F   0  0  0  0  0  0
  -21.5639   -3.4532   25.7726 F   0  0  0  0  0  0
  -30.0293  -13.2942   20.4283 N   0  0  0  0  0  0
  -26.3006  -12.9320   20.3358 N   0  0  0  0  0  0
  -25.9300  -11.6484   20.5760 N   0  0  0  0  0  0
  -22.0522  -12.8229   22.0410 N   0  0  0  0  0  0
  -25.4366  -15.1887   20.4086 N   0  0  0  0  0  0
  -31.8307  -14.6596   20.1172 O   0  0  0  0  0  0
  -21.6647   -6.8860   21.4218 O   0  0  0  0  0  0
  -22.3553  -14.5549   20.6688 O   0  0  0  0  0  0
  -24.6174  -31.8685   23.2094 C   0  0  0  0  0  0
  -25.9066  -32.4830   23.8385 C   0  0  1  0  0  0
  -27.2276  -27.4170   20.0783 C   0  0  0  0  0  0
  -25.5933  -33.8633   24.2324 N   0  0  0  0  0  0
  -23.4027  -30.4959   21.5504 C   0  0  2  0  0  0
  -24.8435  -28.9557   20.1167 C   0  0  0  0  0  0
  -22.7404  -29.4679   22.4961 C   0  0  0  0  0  0
  -18.0274  -28.1389   22.8475 C   0  0  0  0  0  0
  -24.1494  -36.7311   23.2635 C   0  0  0  0  0  0
  -25.9346  -30.8266   21.3635 C   0  0  0  0  0  0
  -26.0065  -29.4584   20.7110 C   0  0  0  0  0  0
  -27.1975  -28.6950   20.6894 C   0  0  0  0  0  0
  -26.0343  -26.9256   19.4955 C   0  0  0  0  0  0
  -24.8521  -27.6882   19.5136 C   0  0  0  0  0  0
  -23.6118  -29.8323   20.1639 C   0  0  0  0  0  0
  -25.4117  -36.3111   24.0330 C   0  0  1  0  0  0
  -20.5868  -28.3685   23.1301 C   0  0  2  0  0  0
  -20.6773  -26.9423   22.5402 C   0  0  0  0  0  0
  -19.5755  -26.6397   21.5201 C   0  0  0  0  0  0
  -18.1932  -26.7932   22.1615 C   0  0  0  0  0  0
  -19.1524  -28.8846   23.2886 C   0  0  0  0  0  0
  -18.9462  -30.1450   23.8902 C   0  0  0  0  0  0
  -17.6469  -30.6592   24.0580 C   0  0  0  0  0  0
  -25.9051  -34.9482   23.5119 C   0  0  0  0  0  0
  -16.5357  -29.9105   23.6334 C   0  0  0  0  0  0
  -16.7265  -28.6528   23.0328 C   0  0  0  0  0  0
  -26.4489  -31.6611   25.0719 C   0  0  0  0  0  0
  -25.3762  -31.3718   26.1469 C   0  0  0  0  0  0
  -27.0339  -30.3066   24.6095 C   0  0  0  0  0  0
  -27.6072  -32.4321   25.7486 C   0  0  0  0  0  0
  -27.5579  -37.1819   24.8466 C   0  0  0  0  0  0
  -21.4136  -29.3058   22.3708 N   0  0  0  0  0  0
  -26.4301  -37.3797   23.9402 N   0  0  0  0  0  0
  -24.6704  -31.0767   22.1010 N   0  0  0  0  0  0
  -23.4174  -28.8201   23.2989 O   0  0  0  0  0  0
  -28.4201  -26.7122   20.0661 O   0  0  0  0  0  0
  -26.5604  -34.8921   22.4676 O   0  0  0  0  0  0
  -23.5362  -32.1461   23.7475 O   0  0  0  0  0  0
  -29.7505  -20.8613   22.2109 C   0  0  0  0  0  0
  -30.0129  -19.5358   22.4168 C   0  0  0  0  0  0
  -29.6280  -20.9946   20.7993 C   0  0  0  0  0  0
  -29.3552  -16.5447   20.3257 C   0  0  0  0  0  0
  -30.5922  -16.5074   21.9972 C   0  0  0  0  0  0
  -30.3668  -17.5399   20.8888 C   0  0  0  0  0  0
  -29.4408  -22.2866   20.0198 C   0  0  0  0  0  0
  -28.0706  -24.3291   20.6790 C   0  0  0  0  0  0
  -28.4744  -25.3522   19.5843 C   0  0  0  0  0  0
  -29.7702  -19.8138   20.1895 N   0  0  0  0  0  0
  -30.0253  -18.9179   21.1831 N   0  0  0  0  0  0
  -29.9897  -15.4790   21.1318 N   0  0  0  0  0  0
  -28.1128  -22.8888   20.2710 N   0  3  0  0  0  0
  -31.4639  -12.4141   19.1051 H   0  0  0  0  0  0
  -30.3289  -11.2971   19.8149 H   0  0  0  0  0  0
  -29.7223  -11.7642   17.4280 H   0  0  0  0  0  0
  -29.6579  -13.4774   17.7522 H   0  0  0  0  0  0
  -27.8170  -11.3052   18.8154 H   0  0  0  0  0  0
  -27.3582  -12.6370   17.7890 H   0  0  0  0  0  0
  -27.6966  -14.2500   19.5670 H   0  0  0  0  0  0
  -28.6779  -11.9606   21.3423 H   0  0  0  0  0  0
  -28.4682  -13.6039   21.8579 H   0  0  0  0  0  0
  -25.2753   -9.5709   22.4751 H   0  0  0  0  0  0
  -24.0025   -7.4640   22.7450 H   0  0  0  0  0  0
  -21.0845   -8.8754   19.8948 H   0  0  0  0  0  0
  -22.3672  -10.9669   19.6185 H   0  0  0  0  0  0
  -21.1999   -7.6139   23.9694 H   0  0  0  0  0  0
  -21.1491   -6.0512   25.9063 H   0  0  0  0  0  0
  -22.0603   -2.7596   23.2829 H   0  0  0  0  0  0
  -22.4123  -11.9885   22.4807 H   0  0  0  0  0  0
  -21.1148  -13.1256   22.2617 H   0  0  0  0  0  0
  -24.6798  -15.8549   20.5201 H   0  0  0  0  0  0
  -26.3024  -15.6182   20.1097 H   0  0  0  0  0  0
  -26.7122  -32.5522   23.1120 H   0  0  0  0  0  0
  -25.0138  -33.9820   25.0501 H   0  0  0  0  0  0
  -22.6926  -31.3141   21.4115 H   0  0  0  0  0  0
  -23.3762  -35.9643   23.3322 H   0  0  0  0  0  0
  -24.3569  -36.8907   22.2042 H   0  0  0  0  0  0
  -23.7260  -37.6529   23.6638 H   0  0  0  0  0  0
  -26.0446  -31.5919   20.5936 H   0  0  0  0  0  0
  -26.8242  -30.8819   21.9789 H   0  0  0  0  0  0
  -28.0960  -29.0885   21.1432 H   0  0  0  0  0  0
  -25.9767  -25.9605   19.0168 H   0  0  0  0  0  0
  -23.9538  -27.2927   19.0595 H   0  0  0  0  0  0
  -23.7321  -30.6123   19.4097 H   0  0  0  0  0  0
  -22.7321  -29.2613   19.8627 H   0  0  0  0  0  0
  -25.1293  -36.1969   25.0825 H   0  0  0  0  0  0
  -20.9964  -28.3262   24.1418 H   0  0  0  0  0  0
  -20.5664  -26.2314   23.3598 H   0  0  0  0  0  0
  -21.6652  -26.7464   22.1205 H   0  0  0  0  0  0
  -19.6940  -25.6304   21.1243 H   0  0  0  0  0  0
  -19.6702  -27.3204   20.6726 H   0  0  0  0  0  0
  -17.4201  -26.6664   21.4015 H   0  0  0  0  0  0
  -18.0337  -26.0067   22.9006 H   0  0  0  0  0  0
  -19.7940  -30.7260   24.2273 H   0  0  0  0  0  0
  -17.5035  -31.6271   24.5188 H   0  0  0  0  0  0
  -15.5363  -30.3026   23.7652 H   0  0  0  0  0  0
  -15.8660  -28.0882   22.7013 H   0  0  0  0  0  0
  -24.5903  -30.7101   25.7793 H   0  0  0  0  0  0
  -24.8986  -32.2883   26.4951 H   0  0  0  0  0  0
  -25.8108  -30.8846   27.0209 H   0  0  0  0  0  0
  -26.2895  -29.6795   24.1179 H   0  0  0  0  0  0
  -27.4168  -29.7315   25.4533 H   0  0  0  0  0  0
  -27.8681  -30.4391   23.9207 H   0  0  0  0  0  0
  -27.2707  -33.3595   26.2124 H   0  0  0  0  0  0
  -28.3863  -32.6935   25.0315 H   0  0  0  0  0  0
  -28.0775  -31.8418   26.5359 H   0  0  0  0  0  0
  -28.2620  -38.0093   24.7500 H   0  0  0  0  0  0
  -28.1059  -36.2634   24.6317 H   0  0  0  0  0  0
  -27.2288  -37.1484   25.8867 H   0  0  0  0  0  0
  -20.9286  -29.8821   21.6971 H   0  0  0  0  0  0
  -26.0192  -38.2878   24.1403 H   0  0  0  0  0  0
  -29.7022  -21.6371   22.9619 H   0  0  0  0  0  0
  -30.2123  -18.9954   23.3326 H   0  0  0  0  0  0
  -28.3258  -16.7588   20.6160 H   0  0  0  0  0  0
  -29.4337  -16.4284   19.2435 H   0  0  0  0  0  0
  -30.0065  -16.6894   22.8982 H   0  0  0  0  0  0
  -31.6439  -16.3584   22.2468 H   0  0  0  0  0  0
  -31.2454  -17.5841   20.2412 H   0  0  0  0  0  0
  -29.5511  -22.1185   18.9483 H   0  0  0  0  0  0
  -30.2274  -22.9864   20.3018 H   0  0  0  0  0  0
  -27.0530  -24.5474   21.0027 H   0  0  0  0  0  0
  -28.7038  -24.4680   21.5559 H   0  0  0  0  0  0
  -27.9125  -25.2115   18.6602 H   0  0  0  0  0  0
  -29.5118  -25.1710   19.3050 H   0  0  0  0  0  0
  -27.7217  -22.3418   21.0208 H   0  0  0  0  0  0
  -27.5332  -22.7139   19.4665 H   0  0  0  0  0  0
  1 25  1  0  0  0
  1 30  2  0  0  0
  1 82  1  0  0  0
  2  3  1  0  0  0
  2 25  1  0  0  0
  2 84  1  0  0  0
  2 85  1  0  0  0
  3  4  1  0  0  0
  3 86  1  0  0  0
  3 87  1  0  0  0
  4  5  1  0  0  0
  4 88  1  0  0  0
  4 89  1  0  0  0
  5  6  1  0  0  0
  5 26  1  0  0  0
  5 90  1  0  0  0
  6 25  1  0  0  0
  6 91  1  0  0  0
  6 92  1  0  0  0
  7  8  2  0  0  0
  7 26  1  0  0  0
  7 29  1  0  0  0
  8  9  1  0  0  0
  8 22  1  0  0  0
  9 10  1  0  0  0
  9 27  2  0  0  0
 10 11  2  0  0  0
 10 15  1  0  0  0
 11 12  1  0  0  0
 11 93  1  0  0  0
 12 13  2  0  0  0
 12 94  1  0  0  0
 13 14  1  0  0  0
 13 31  1  0  0  0
 14 15  2  0  0  0
 14 95  1  0  0  0
 15 96  1  0  0  0
 16 17  2  0  0  0
 16 21  1  0  0  0
 16 31  1  0  0  0
 17 18  1  0  0  0
 17 97  1  0  0  0
 18 19  2  0  0  0
 18 98  1  0  0  0
 19 20  1  0  0  0
 19 24  1  0  0  0
 20 21  2  0  0  0
 20 99  1  0  0  0
 21 23  1  0  0  0
 22 28  1  0  0  0
 22 32  2  0  0  0
 26 27  1  0  0  0
 28100  1  0  0  0
 28101  1  0  0  0
 29102  1  0  0  0
 29103  1  0  0  0
 33 34  1  0  0  0
 33 66  1  0  0  0
 33 70  2  0  0  0
 34 36  1  0  0  0
 34 59  1  0  0  0
 34104  1  0  0  0
 35 44  2  0  0  0
 35 45  1  0  0  0
 35 68  1  0  0  0
 36 56  1  0  0  0
 36105  1  0  0  0
 37 39  1  0  0  0
 37 47  1  0  0  0
 37 66  1  0  0  0
 37106  1  0  0  0
 38 43  2  0  0  0
 38 46  1  0  0  0
 38 47  1  0  0  0
 39 64  1  0  0  0
 39 67  2  0  0  0
 40 52  1  0  0  0
 40 53  2  0  0  0
 40 58  1  0  0  0
 41107  1  0  0  0
 41108  1  0  0  0
 41109  1  0  0  0
 41 48  1  0  0  0
 42 43  1  0  0  0
 42 66  1  0  0  0
 42110  1  0  0  0
 42111  1  0  0  0
 43 44  1  0  0  0
 44112  1  0  0  0
 45 46  2  0  0  0
 45113  1  0  0  0
 46114  1  0  0  0
 47115  1  0  0  0
 47116  1  0  0  0
 48 56  1  0  0  0
 48 65  1  0  0  0
 48117  1  0  0  0
 49 50  1  0  0  0
 49 53  1  0  0  0
 49 64  1  0  0  0
 49118  1  0  0  0
 50 51  1  0  0  0
 50119  1  0  0  0
 50120  1  0  0  0
 51 52  1  0  0  0
 51121  1  0  0  0
 51122  1  0  0  0
 52123  1  0  0  0
 52124  1  0  0  0
 53 54  1  0  0  0
 54 55  2  0  0  0
 54125  1  0  0  0
 55 57  1  0  0  0
 55126  1  0  0  0
 56 69  2  0  0  0
 57 58  2  0  0  0
 57127  1  0  0  0
 58128  1  0  0  0
 59 60  1  0  0  0
 59 61  1  0  0  0
 59 62  1  0  0  0
 60129  1  0  0  0
 60130  1  0  0  0
 60131  1  0  0  0
 61132  1  0  0  0
 61133  1  0  0  0
 61134  1  0  0  0
 62135  1  0  0  0
 62136  1  0  0  0
 62137  1  0  0  0
 63 65  1  0  0  0
 63138  1  0  0  0
 63139  1  0  0  0
 63140  1  0  0  0
 64141  1  0  0  0
 65142  1  0  0  0
 68 79  1  0  0  0
 71 72  2  0  0  0
 71 73  1  0  0  0
 71143  1  0  0  0
 72 81  1  0  0  0
 72144  1  0  0  0
 73 77  1  0  0  0
 73 80  2  0  0  0
 74 76  1  0  0  0
 74 82  1  0  0  0
 74145  1  0  0  0
 74146  1  0  0  0
 75 76  1  0  0  0
 75 82  1  0  0  0
 75147  1  0  0  0
 75148  1  0  0  0
 76 81  1  0  0  0
 76149  1  0  0  0
 77 83  1  0  0  0
 77150  1  0  0  0
 77151  1  0  0  0
 78 79  1  0  0  0
 78 83  1  0  0  0
 78152  1  0  0  0
 78153  1  0  0  0
 79154  1  0  0  0
 79155  1  0  0  0
 80 81  1  0  0  0
 83156  1  0  0  0
 83157  1  0  0  0
M  CHG  1  83   1
M  ISO  4   1 100  68 101  79 101  82 100
M  END
> <chiral flag>
0

> <version>
0

> <s_m_source_file>
/data/baiqing/PycharmProjects/Reinvent-master-3.2/result/LINK_invent/BTK/process_docking_weight1_custom_sum_contain_oxygen_bond_distance_aromatic_linkinvent_7_9_3/rearranged_h_0198.sdf

> <i_m_source_file_index>
4

> <r_mmod_Potential_Energy-OPLS-2005>
-181.533309936523

> <r_mmod_Stretch_Energy-OPLS-2005>
38.4072036743164

> <r_mmod_Bend_Energy-OPLS-2005>
108.504852294922

> <r_mmod_Torsional_Energy-OPLS-2005>
278.416870117188

> <r_mmod_Improper_Torsional_Energy-OPLS-2005>
9.82582759857178

> <r_mmod_Van_der_Waal_Energy-OPLS-2005>
125.997001647949

> <r_mmod_Electrostatic_Energy-OPLS-2005>
-287.634826660156

> <r_mmod_Solvation_Energy-OPLS-2005>
-468.964080810547

> <b_mmod_Minimization_Converged-OPLS-2005>
0

> <r_mmod_RMS_Derivative-OPLS-2005>
2.27614879608154

$$$$
4
                    3D
 Structure written by MMmdl.
169179  0  0  1  0            999 V2000
  -30.7194  -14.4518   20.6155 C   0  0  0  0  0  0
  -30.4211  -12.3130   19.4070 C   0  0  0  0  0  0
  -29.4876  -12.5078   18.1956 C   0  0  0  0  0  0
  -28.0090  -12.3667   18.6131 C   0  0  0  0  0  0
  -27.6584  -13.2046   19.8709 C   0  0  2  0  0  0
  -28.7010  -12.9797   20.9868 C   0  0  0  0  0  0
  -25.2553  -13.8161   20.5665 C   0  0  0  0  0  0
  -24.1818  -13.0432   20.9180 C   0  0  0  0  0  0
  -24.6372  -11.6895   20.8732 C   0  0  0  0  0  0
  -23.9049  -10.4285   21.0395 C   0  0  0  0  0  0
  -24.3608   -9.4210   21.9173 C   0  0  0  0  0  0
  -23.6286   -8.2252   22.0755 C   0  0  0  0  0  0
  -22.4263   -8.0274   21.3549 C   0  0  0  0  0  0
  -21.9892   -9.0247   20.4651 C   0  0  0  0  0  0
  -22.7216  -10.2125   20.3048 C   0  0  0  0  0  0
  -21.6855   -6.0720   22.5281 C   0  0  0  0  0  0
  -21.4016   -6.5626   23.8212 C   0  0  0  0  0  0
  -21.3664   -5.6781   24.9178 C   0  0  0  0  0  0
  -21.6050   -4.3050   24.7226 C   0  0  0  0  0  0
  -21.8821   -3.8135   23.4355 C   0  0  0  0  0  0
  -21.9193   -4.6949   22.3403 C   0  0  0  0  0  0
  -22.7838  -13.5224   21.1844 C   0  0  0  0  0  0
  -22.1653   -4.2134   21.0985 F   0  0  0  0  0  0
  -21.5647   -3.4533   25.7749 F   0  0  0  0  0  0
  -30.0312  -13.2921   20.4342 N   0  0  0  0  0  0
  -26.3000  -12.9325   20.3360 N   0  0  0  0  0  0
  -25.9306  -11.6486   20.5778 N   0  0  0  0  0  0
  -22.0491  -12.8218   22.0410 N   0  0  0  0  0  0
  -25.4254  -15.1891   20.4069 N   0  0  0  0  0  0
  -31.8357  -14.6417   20.1264 O   0  0  0  0  0  0
  -21.6639   -6.8865   21.4242 O   0  0  0  0  0  0
  -22.3518  -14.5520   20.6668 O   0  0  0  0  0  0
  -24.6203  -31.8681   23.2142 C   0  0  0  0  0  0
  -25.9096  -32.4814   23.8417 C   0  0  1  0  0  0
  -27.2135  -27.4105   20.0576 C   0  0  0  0  0  0
  -25.5944  -33.8612   24.2341 N   0  0  0  0  0  0
  -23.4042  -30.5004   21.5577 C   0  0  2  0  0  0
  -24.8400  -28.9723   20.1178 C   0  0  0  0  0  0
  -22.7422  -29.4692   22.4996 C   0  0  0  0  0  0
  -18.0272  -28.1384   22.8484 C   0  0  0  0  0  0
  -24.1489  -36.7318   23.2630 C   0  0  0  0  0  0
  -25.9418  -30.8218   21.3745 C   0  0  0  0  0  0
  -26.0106  -29.4588   20.7123 C   0  0  0  0  0  0
  -27.1975  -28.6833   20.6863 C   0  0  0  0  0  0
  -25.9988  -26.9386   19.4991 C   0  0  0  0  0  0
  -24.8299  -27.7098   19.5167 C   0  0  0  0  0  0
  -23.6096  -29.8460   20.1691 C   0  0  0  0  0  0
  -25.4109  -36.3110   24.0335 C   0  0  1  0  0  0
  -20.5867  -28.3682   23.1300 C   0  0  2  0  0  0
  -20.6763  -26.9413   22.5409 C   0  0  0  0  0  0
  -19.5744  -26.6390   21.5204 C   0  0  0  0  0  0
  -18.1919  -26.7932   22.1617 C   0  0  0  0  0  0
  -19.1520  -28.8843   23.2894 C   0  0  0  0  0  0
  -18.9451  -30.1442   23.8913 C   0  0  0  0  0  0
  -17.6450  -30.6584   24.0566 C   0  0  0  0  0  0
  -25.9047  -34.9472   23.5132 C   0  0  0  0  0  0
  -16.5341  -29.9084   23.6329 C   0  0  0  0  0  0
  -16.7261  -28.6506   23.0351 C   0  0  0  0  0  0
  -26.4502  -31.6597   25.0755 C   0  0  0  0  0  0
  -25.3768  -31.3724   26.1510 C   0  0  0  0  0  0
  -27.0319  -30.3018   24.6177 C   0  0  0  0  0  0
  -27.6089  -32.4312   25.7506 C   0  0  0  0  0  0
  -27.5596  -37.1801   24.8451 C   0  0  0  0  0  0
  -21.4153  -29.3057   22.3717 N   0  0  0  0  0  0
  -26.4292  -37.3800   23.9420 N   0  0  0  0  0  0
  -24.6742  -31.0775   22.1058 N   0  0  0  0  0  0
  -23.4181  -28.8212   23.3031 O   0  0  0  0  0  0
  -28.3828  -26.6594   20.0347 O   0  0  0  0  0  0
  -26.5606  -34.8920   22.4690 O   0  0  0  0  0  0
  -23.5398  -32.1451   23.7527 O   0  0  0  0  0  0
  -31.2878  -23.2567   20.0069 C   0  0  0  0  0  0
  -28.9702  -23.5285   20.4098 C   0  0  0  0  0  0
  -32.2481  -18.5704   22.1759 C   0  0  0  0  0  0
  -31.8224  -17.3066   21.4924 C   0  0  1  0  0  0
  -30.9047  -24.6811   19.5738 C   0  0  2  0  0  0
  -29.4319  -24.4557   19.2754 C   0  0  2  0  0  0
  -30.5227  -16.6524   21.8758 C   0  0  1  0  0  0
  -30.5327  -17.9669   21.0713 C   0  0  1  0  0  0
  -31.7077  -25.2094   18.3588 C   0  0  0  0  0  0
  -28.5450  -25.6885   18.9761 C   0  0  0  0  0  0
  -29.9407  -21.2832   20.6682 C   0  0  0  0  0  0
  -31.2110  -20.4396   20.9689 C   0  0  0  0  0  0
  -30.1554  -22.7416   20.7929 N   0  0  0  0  0  0
  -30.0596  -15.4030   21.3059 N   0  0  0  0  0  0
  -30.9957  -19.2050   21.7744 N   0  3  2  0  0  0
  -33.1107  -25.5220   18.6798 N   0  3  0  0  0  0
  -31.4636  -12.4195   19.1028 H   0  0  0  0  0  0
  -30.3332  -11.2985   19.8014 H   0  0  0  0  0  0
  -29.7273  -11.7853   17.4148 H   0  0  0  0  0  0
  -29.6540  -13.4937   17.7592 H   0  0  0  0  0  0
  -27.8175  -11.3093   18.8062 H   0  0  0  0  0  0
  -27.3542  -12.6442   17.7856 H   0  0  0  0  0  0
  -27.7037  -14.2532   19.5769 H   0  0  0  0  0  0
  -28.6818  -11.9413   21.3199 H   0  0  0  0  0  0
  -28.4539  -13.5676   21.8708 H   0  0  0  0  0  0
  -25.2758   -9.5685   22.4732 H   0  0  0  0  0  0
  -23.9998   -7.4641   22.7463 H   0  0  0  0  0  0
  -21.0831   -8.8752   19.8953 H   0  0  0  0  0  0
  -22.3679  -10.9650   19.6146 H   0  0  0  0  0  0
  -21.1999   -7.6125   23.9715 H   0  0  0  0  0  0
  -21.1487   -6.0508   25.9080 H   0  0  0  0  0  0
  -22.0595   -2.7596   23.2862 H   0  0  0  0  0  0
  -22.4095  -11.9867   22.4770 H   0  0  0  0  0  0
  -21.1116  -13.1254   22.2636 H   0  0  0  0  0  0
  -24.6535  -15.8402   20.5081 H   0  0  0  0  0  0
  -26.2741  -15.6310   20.0756 H   0  0  0  0  0  0
  -26.7162  -32.5494   23.1170 H   0  0  0  0  0  0
  -25.0098  -33.9758   25.0490 H   0  0  0  0  0  0
  -22.6958  -31.3210   21.4256 H   0  0  0  0  0  0
  -23.3751  -35.9649   23.3270 H   0  0  0  0  0  0
  -24.3595  -36.8952   22.2051 H   0  0  0  0  0  0
  -23.7227  -37.6510   23.6654 H   0  0  0  0  0  0
  -26.0680  -31.5918   20.6124 H   0  0  0  0  0  0
  -26.8263  -30.8620   21.9992 H   0  0  0  0  0  0
  -28.1019  -29.0609   21.1431 H   0  0  0  0  0  0
  -25.8756  -25.9660   19.0547 H   0  0  0  0  0  0
  -23.9230  -27.3199   19.0749 H   0  0  0  0  0  0
  -23.7253  -30.6258   19.4152 H   0  0  0  0  0  0
  -22.7289  -29.2752   19.8677 H   0  0  0  0  0  0
  -25.1284  -36.1974   25.0824 H   0  0  0  0  0  0
  -20.9952  -28.3250   24.1428 H   0  0  0  0  0  0
  -20.5659  -26.2298   23.3611 H   0  0  0  0  0  0
  -21.6634  -26.7457   22.1209 H   0  0  0  0  0  0
  -19.6901  -25.6302   21.1233 H   0  0  0  0  0  0
  -19.6678  -27.3201   20.6741 H   0  0  0  0  0  0
  -17.4195  -26.6686   21.4012 H   0  0  0  0  0  0
  -18.0317  -26.0059   22.9005 H   0  0  0  0  0  0
  -19.7925  -30.7248   24.2303 H   0  0  0  0  0  0
  -17.5009  -31.6269   24.5163 H   0  0  0  0  0  0
  -15.5346  -30.2993   23.7643 H   0  0  0  0  0  0
  -15.8665  -28.0824   22.7072 H   0  0  0  0  0  0
  -24.5933  -30.7071   25.7865 H   0  0  0  0  0  0
  -24.8976  -32.2884   26.4975 H   0  0  0  0  0  0
  -25.8126  -30.8888   27.0263 H   0  0  0  0  0  0
  -26.2868  -29.6771   24.1241 H   0  0  0  0  0  0
  -27.4052  -29.7276   25.4669 H   0  0  0  0  0  0
  -27.8733  -30.4295   23.9362 H   0  0  0  0  0  0
  -27.2723  -33.3607   26.2116 H   0  0  0  0  0  0
  -28.3885  -32.6879   25.0318 H   0  0  0  0  0  0
  -28.0778  -31.8415   26.5393 H   0  0  0  0  0  0
  -28.2587  -38.0129   24.7556 H   0  0  0  0  0  0
  -28.1119  -36.2666   24.6200 H   0  0  0  0  0  0
  -27.2325  -37.1360   25.8854 H   0  0  0  0  0  0
  -20.9313  -29.8800   21.6954 H   0  0  0  0  0  0
  -26.0178  -38.2871   24.1456 H   0  0  0  0  0  0
  -32.2155  -23.2406   20.5819 H   0  0  0  0  0  0
  -31.4402  -22.6379   19.1193 H   0  0  0  0  0  0
  -28.1207  -22.9138   20.1061 H   0  0  0  0  0  0
  -28.6505  -24.1205   21.2693 H   0  0  0  0  0  0
  -33.1414  -19.0270   21.7476 H   0  0  0  0  0  0
  -32.3369  -18.4966   23.2593 H   0  0  0  0  0  0
  -32.4515  -16.9482   20.6815 H   0  0  0  0  0  0
  -30.9949  -25.3686   20.4166 H   0  0  0  0  0  0
  -29.3901  -23.8517   18.3657 H   0  0  0  0  0  0
  -30.2533  -16.7584   22.9260 H   0  0  0  0  0  0
  -30.3736  -18.0316   19.9954 H   0  0  0  0  0  0
  -31.2506  -26.1240   17.9801 H   0  0  0  0  0  0
  -31.6791  -24.4917   17.5377 H   0  0  0  0  0  0
  -27.6267  -25.2341   18.6299 H   0  0  0  0  0  0
  -28.9303  -26.2176   18.1047 H   0  0  0  0  0  0
  -29.1420  -21.0067   21.3579 H   0  0  0  0  0  0
  -29.5770  -21.0343   19.6698 H   0  0  0  0  0  0
  -31.8936  -21.0496   21.5617 H   0  0  0  0  0  0
  -31.7398  -20.2049   20.0447 H   0  0  0  0  0  0
  -29.1266  -15.1310   21.5798 H   0  0  0  0  0  0
  -30.4313  -19.3992   22.5885 H   0  0  0  0  0  0
  -33.1689  -26.2295   19.3906 H   0  0  0  0  0  0
  -33.5694  -25.8717   17.8578 H   0  0  0  0  0  0
  -33.6120  -24.7084   18.9864 H   0  0  0  0  0  0
  1 25  1  0  0  0
  1 30  2  0  0  0
  1 84  1  0  0  0
  2  3  1  0  0  0
  2 25  1  0  0  0
  2 87  1  0  0  0
  2 88  1  0  0  0
  3  4  1  0  0  0
  3 89  1  0  0  0
  3 90  1  0  0  0
  4  5  1  0  0  0
  4 91  1  0  0  0
  4 92  1  0  0  0
  5  6  1  0  0  0
  5 26  1  0  0  0
  5 93  1  0  0  0
  6 25  1  0  0  0
  6 94  1  0  0  0
  6 95  1  0  0  0
  7  8  2  0  0  0
  7 26  1  0  0  0
  7 29  1  0  0  0
  8  9  1  0  0  0
  8 22  1  0  0  0
  9 10  1  0  0  0
  9 27  2  0  0  0
 10 11  2  0  0  0
 10 15  1  0  0  0
 11 12  1  0  0  0
 11 96  1  0  0  0
 12 13  2  0  0  0
 12 97  1  0  0  0
 13 14  1  0  0  0
 13 31  1  0  0  0
 14 15  2  0  0  0
 14 98  1  0  0  0
 15 99  1  0  0  0
 16 17  2  0  0  0
 16 21  1  0  0  0
 16 31  1  0  0  0
 17 18  1  0  0  0
 17100  1  0  0  0
 18 19  2  0  0  0
 18101  1  0  0  0
 19 20  1  0  0  0
 19 24  1  0  0  0
 20 21  2  0  0  0
 20102  1  0  0  0
 21 23  1  0  0  0
 22 28  1  0  0  0
 22 32  2  0  0  0
 26 27  1  0  0  0
 28103  1  0  0  0
 28104  1  0  0  0
 29105  1  0  0  0
 29106  1  0  0  0
 33 34  1  0  0  0
 33 66  1  0  0  0
 33 70  2  0  0  0
 34 36  1  0  0  0
 34 59  1  0  0  0
 34107  1  0  0  0
 35 44  2  0  0  0
 35 45  1  0  0  0
 35 68  1  0  0  0
 36 56  1  0  0  0
 36108  1  0  0  0
 37 39  1  0  0  0
 37 47  1  0  0  0
 37 66  1  0  0  0
 37109  1  0  0  0
 38 43  2  0  0  0
 38 46  1  0  0  0
 38 47  1  0  0  0
 39 64  1  0  0  0
 39 67  2  0  0  0
 40 52  1  0  0  0
 40 53  2  0  0  0
 40 58  1  0  0  0
 41110  1  0  0  0
 41111  1  0  0  0
 41112  1  0  0  0
 41 48  1  0  0  0
 42 43  1  0  0  0
 42 66  1  0  0  0
 42113  1  0  0  0
 42114  1  0  0  0
 43 44  1  0  0  0
 44115  1  0  0  0
 45 46  2  0  0  0
 45116  1  0  0  0
 46117  1  0  0  0
 47118  1  0  0  0
 47119  1  0  0  0
 48 56  1  0  0  0
 48 65  1  0  0  0
 48120  1  0  0  0
 49 50  1  0  0  0
 49 53  1  0  0  0
 49 64  1  0  0  0
 49121  1  0  0  0
 50 51  1  0  0  0
 50122  1  0  0  0
 50123  1  0  0  0
 51 52  1  0  0  0
 51124  1  0  0  0
 51125  1  0  0  0
 52126  1  0  0  0
 52127  1  0  0  0
 53 54  1  0  0  0
 54 55  2  0  0  0
 54128  1  0  0  0
 55 57  1  0  0  0
 55129  1  0  0  0
 56 69  2  0  0  0
 57 58  2  0  0  0
 57130  1  0  0  0
 58131  1  0  0  0
 59 60  1  0  0  0
 59 61  1  0  0  0
 59 62  1  0  0  0
 60132  1  0  0  0
 60133  1  0  0  0
 60134  1  0  0  0
 61135  1  0  0  0
 61136  1  0  0  0
 61137  1  0  0  0
 62138  1  0  0  0
 62139  1  0  0  0
 62140  1  0  0  0
 63 65  1  0  0  0
 63141  1  0  0  0
 63142  1  0  0  0
 63143  1  0  0  0
 64144  1  0  0  0
 65145  1  0  0  0
 68 80  1  0  0  0
 71 75  1  0  0  0
 71 83  1  0  0  0
 71146  1  0  0  0
 71147  1  0  0  0
 72 76  1  0  0  0
 72 83  1  0  0  0
 72148  1  0  0  0
 72149  1  0  0  0
 73 85  1  0  0  0
 73150  1  0  0  0
 73151  1  0  0  0
 73 74  1  0  0  0
 74 77  1  0  0  0
 74 78  1  0  0  0
 74152  1  0  0  0
 75 76  1  0  0  0
 75 79  1  0  0  0
 75153  1  0  0  0
 76 80  1  0  0  0
 76154  1  0  0  0
 77 78  1  0  0  0
 77 84  1  0  0  0
 77155  1  0  0  0
 78 85  1  0  0  0
 78156  1  0  0  0
 79 86  1  0  0  0
 79157  1  0  0  0
 79158  1  0  0  0
 80159  1  0  0  0
 80160  1  0  0  0
 81 82  1  0  0  0
 81 83  1  0  0  0
 81161  1  0  0  0
 81162  1  0  0  0
 82163  1  0  0  0
 82164  1  0  0  0
 82 85  1  0  0  0
 84165  1  0  0  0
 85166  1  0  0  0
 86167  1  0  0  0
 86168  1  0  0  0
 86169  1  0  0  0
M  CHG  2  85   1  86   1
M  ISO  4   1 100  68 101  80 101  84 100
M  END
> <chiral flag>
0

> <version>
0

> <s_m_source_file>
/data/baiqing/PycharmProjects/Reinvent-master-3.2/result/LINK_invent/BTK/process_docking_weight1_custom_sum_contain_oxygen_bond_distance_aromatic_linkinvent_7_9_3/rearranged_h_0198.sdf

> <i_m_source_file_index>
5

> <r_mmod_Potential_Energy-OPLS-2005>
43.8462104797363

> <r_mmod_Stretch_Energy-OPLS-2005>
43.0952911376953

> <r_mmod_Bend_Energy-OPLS-2005>
380.1484375

> <r_mmod_Torsional_Energy-OPLS-2005>
420.875549316406

> <r_mmod_Improper_Torsional_Energy-OPLS-2005>
2.31682586669922

> <r_mmod_Van_der_Waal_Energy-OPLS-2005>
144.444152832031

> <r_mmod_Electrostatic_Energy-OPLS-2005>
-10.8422050476074

> <r_mmod_Solvation_Energy-OPLS-2005>
-950.572875976562

> <b_mmod_Minimization_Converged-OPLS-2005>
0

> <r_mmod_RMS_Derivative-OPLS-2005>
2.16111540794373

$$$$
5
                    3D
 Structure written by MMmdl.
161171  0  0  1  0            999 V2000
  -30.6785  -14.8202   20.4382 C   0  0  0  0  0  0
  -30.4056  -12.5163   19.4846 C   0  0  0  0  0  0
  -29.4973  -12.5053   18.2400 C   0  0  0  0  0  0
  -28.0321  -12.3097   18.6632 C   0  0  0  0  0  0
  -27.6236  -13.2421   19.8336 C   0  0  2  0  0  0
  -28.6722  -13.2761   20.9691 C   0  0  0  0  0  0
  -25.2415  -13.8173   20.5653 C   0  0  0  0  0  0
  -24.1751  -13.0414   20.9235 C   0  0  0  0  0  0
  -24.6379  -11.6906   20.8791 C   0  0  0  0  0  0
  -23.9068  -10.4282   21.0431 C   0  0  0  0  0  0
  -24.3621   -9.4193   21.9201 C   0  0  0  0  0  0
  -23.6293   -8.2228   22.0759 C   0  0  0  0  0  0
  -22.4273   -8.0275   21.3548 C   0  0  0  0  0  0
  -21.9914   -9.0251   20.4651 C   0  0  0  0  0  0
  -22.7245  -10.2128   20.3071 C   0  0  0  0  0  0
  -21.6850   -6.0736   22.5280 C   0  0  0  0  0  0
  -21.4009   -6.5639   23.8214 C   0  0  0  0  0  0
  -21.3659   -5.6793   24.9178 C   0  0  0  0  0  0
  -21.6043   -4.3055   24.7224 C   0  0  0  0  0  0
  -21.8820   -3.8149   23.4344 C   0  0  0  0  0  0
  -21.9188   -4.6966   22.3401 C   0  0  0  0  0  0
  -22.7777  -13.5199   21.1885 C   0  0  0  0  0  0
  -22.1658   -4.2151   21.0978 F   0  0  0  0  0  0
  -21.5632   -3.4540   25.7739 F   0  0  0  0  0  0
  -29.9539  -13.6390   20.3555 N   0  0  0  0  0  0
  -26.2858  -12.9414   20.3261 N   0  0  0  0  0  0
  -25.9315  -11.6557   20.5805 N   0  0  0  0  0  0
  -22.0429  -12.8192   22.0445 N   0  0  0  0  0  0
  -25.4008  -15.1865   20.3908 N   0  0  0  0  0  0
  -31.8867  -14.7287   20.1954 O   0  0  0  0  0  0
  -21.6634   -6.8875   21.4241 O   0  0  0  0  0  0
  -22.3465  -14.5506   20.6728 O   0  0  0  0  0  0
  -24.6360  -31.8515   23.1955 C   0  0  0  0  0  0
  -25.9171  -32.4731   23.8312 C   0  0  1  0  0  0
  -27.2150  -27.2169   20.1224 C   0  0  0  0  0  0
  -25.5956  -33.8536   24.2231 N   0  0  0  0  0  0
  -23.4342  -30.4747   21.5397 C   0  0  2  0  0  0
  -24.8794  -28.9187   20.1064 C   0  0  0  0  0  0
  -22.7529  -29.4584   22.4891 C   0  0  0  0  0  0
  -18.0296  -28.1392   22.8481 C   0  0  0  0  0  0
  -24.1492  -36.7267   23.2641 C   0  0  0  0  0  0
  -25.9845  -30.7498   21.3824 C   0  0  0  0  0  0
  -26.0536  -29.3701   20.7201 C   0  0  0  0  0  0
  -27.2196  -28.5310   20.7191 C   0  0  0  0  0  0
  -26.0061  -26.8411   19.4914 C   0  0  0  0  0  0
  -24.8635  -27.6641   19.4825 C   0  0  0  0  0  0
  -23.6537  -29.8115   20.1552 C   0  0  0  0  0  0
  -25.4120  -36.3051   24.0320 C   0  0  1  0  0  0
  -20.5904  -28.3706   23.1257 C   0  0  2  0  0  0
  -20.6781  -26.9417   22.5409 C   0  0  0  0  0  0
  -19.5758  -26.6382   21.5213 C   0  0  0  0  0  0
  -18.1936  -26.7937   22.1617 C   0  0  0  0  0  0
  -19.1551  -28.8866   23.2863 C   0  0  0  0  0  0
  -18.9472  -30.1466   23.8883 C   0  0  0  0  0  0
  -17.6471  -30.6591   24.0561 C   0  0  0  0  0  0
  -25.9067  -34.9426   23.5076 C   0  0  0  0  0  0
  -16.5361  -29.9086   23.6340 C   0  0  0  0  0  0
  -16.7281  -28.6505   23.0356 C   0  0  0  0  0  0
  -26.4517  -31.6576   25.0725 C   0  0  0  0  0  0
  -25.3723  -31.3755   26.1437 C   0  0  0  0  0  0
  -27.0362  -30.2978   24.6259 C   0  0  0  0  0  0
  -27.6065  -32.4326   25.7499 C   0  0  0  0  0  0
  -27.5579  -37.1787   24.8464 C   0  0  0  0  0  0
  -21.4231  -29.3048   22.3642 N   0  0  0  0  0  0
  -26.4287  -37.3758   23.9411 N   0  0  0  0  0  0
  -24.7042  -31.0447   22.0948 N   0  0  0  0  0  0
  -23.4211  -28.8125   23.3003 O   0  0  0  0  0  0
  -28.3002  -26.2979   20.2232 O   0  0  0  0  0  0
  -26.5639  -34.8911   22.4647 O   0  0  0  0  0  0
  -23.5500  -32.1354   23.7228 O   0  0  0  0  0  0
  -29.7990  -23.0812   20.7272 C   0  0  0  0  0  0
  -30.0733  -21.6789   20.9117 C   0  0  0  0  0  0
  -28.6252  -23.5049   20.0441 C   0  0  0  0  0  0
  -29.1896  -20.6714   20.4096 C   0  0  0  0  0  0
  -26.8924  -19.3148   22.5312 C   0  0  0  0  0  0
  -26.4265  -17.8889   22.3721 C   0  0  0  0  0  0
  -30.7024  -18.7163   21.0513 C   0  0  0  0  0  0
  -31.1290  -17.2623   20.6092 C   0  0  0  0  0  0
  -28.7879  -16.6682   20.2800 C   0  0  0  0  0  0
  -27.8619  -18.2496   22.0694 C   0  0  0  0  0  0
  -28.3942  -18.1956   20.6406 C   0  0  1  0  0  0
  -28.3847  -24.9939   19.4484 C   0  0  0  0  0  0
  -27.7975  -22.4876   19.6177 N   0  0  0  0  0  0
  -28.0583  -21.1534   19.7965 N   0  0  0  0  0  0
  -29.4552  -19.2223   20.4598 N   0  0  0  0  0  0
  -30.1452  -16.1254   20.6214 N   0  0  0  0  0  0
  -31.4468  -12.6046   19.1711 H   0  0  0  0  0  0
  -30.3433  -11.5667   20.0184 H   0  0  0  0  0  0
  -29.7992  -11.7116   17.5553 H   0  0  0  0  0  0
  -29.6043  -13.4430   17.6920 H   0  0  0  0  0  0
  -27.9163  -11.2676   18.9636 H   0  0  0  0  0  0
  -27.3676  -12.4559   17.8108 H   0  0  0  0  0  0
  -27.5826  -14.2364   19.3924 H   0  0  0  0  0  0
  -28.7408  -12.3091   21.4690 H   0  0  0  0  0  0
  -28.3951  -13.9990   21.7371 H   0  0  0  0  0  0
  -25.2764   -9.5665   22.4781 H   0  0  0  0  0  0
  -24.0004   -7.4612   22.7467 H   0  0  0  0  0  0
  -21.0851   -8.8770   19.8946 H   0  0  0  0  0  0
  -22.3709  -10.9674   19.6185 H   0  0  0  0  0  0
  -21.2000   -7.6147   23.9720 H   0  0  0  0  0  0
  -21.1483   -6.0521   25.9080 H   0  0  0  0  0  0
  -22.0599   -2.7612   23.2843 H   0  0  0  0  0  0
  -22.4049  -11.9855   22.4832 H   0  0  0  0  0  0
  -21.1054  -13.1226   22.2669 H   0  0  0  0  0  0
  -24.6222  -15.8290   20.4821 H   0  0  0  0  0  0
  -26.2352  -15.6210   20.0227 H   0  0  0  0  0  0
  -26.7235  -32.5355   23.1045 H   0  0  0  0  0  0
  -25.0120  -33.9671   25.0389 H   0  0  0  0  0  0
  -22.7327  -31.2985   21.3930 H   0  0  0  0  0  0
  -23.3762  -35.9593   23.3292 H   0  0  0  0  0  0
  -24.3583  -36.8904   22.2059 H   0  0  0  0  0  0
  -23.7237  -37.6458   23.6676 H   0  0  0  0  0  0
  -26.1332  -31.5109   20.6152 H   0  0  0  0  0  0
  -26.8580  -30.7942   22.0212 H   0  0  0  0  0  0
  -28.1156  -28.8699   21.2202 H   0  0  0  0  0  0
  -25.8749  -25.8740   19.0361 H   0  0  0  0  0  0
  -23.9596  -27.3074   19.0075 H   0  0  0  0  0  0
  -23.7830  -30.5892   19.4016 H   0  0  0  0  0  0
  -22.7697  -29.2505   19.8474 H   0  0  0  0  0  0
  -25.1306  -36.1884   25.0813 H   0  0  0  0  0  0
  -20.9992  -28.3285   24.1379 H   0  0  0  0  0  0
  -20.5674  -26.2322   23.3621 H   0  0  0  0  0  0
  -21.6648  -26.7433   22.1202 H   0  0  0  0  0  0
  -19.6921  -25.6287   21.1259 H   0  0  0  0  0  0
  -19.6700  -27.3181   20.6735 H   0  0  0  0  0  0
  -17.4209  -26.6693   21.4014 H   0  0  0  0  0  0
  -18.0323  -26.0075   22.9007 H   0  0  0  0  0  0
  -19.7948  -30.7289   24.2240 H   0  0  0  0  0  0
  -17.5025  -31.6273   24.5160 H   0  0  0  0  0  0
  -15.5360  -30.2983   23.7674 H   0  0  0  0  0  0
  -15.8680  -28.0822   22.7076 H   0  0  0  0  0  0
  -24.5935  -30.7049   25.7787 H   0  0  0  0  0  0
  -24.8869  -32.2929   26.4781 H   0  0  0  0  0  0
  -25.8034  -30.9016   27.0265 H   0  0  0  0  0  0
  -26.2957  -29.6722   24.1263 H   0  0  0  0  0  0
  -27.3989  -29.7255   25.4807 H   0  0  0  0  0  0
  -27.8862  -30.4227   23.9548 H   0  0  0  0  0  0
  -27.2676  -33.3647   26.2033 H   0  0  0  0  0  0
  -28.3898  -32.6848   25.0338 H   0  0  0  0  0  0
  -28.0707  -31.8477   26.5450 H   0  0  0  0  0  0
  -28.2586  -38.0093   24.7514 H   0  0  0  0  0  0
  -28.1081  -36.2623   24.6275 H   0  0  0  0  0  0
  -27.2304  -37.1419   25.8869 H   0  0  0  0  0  0
  -20.9423  -29.8777   21.6846 H   0  0  0  0  0  0
  -26.0157  -38.2826   24.1424 H   0  0  0  0  0  0
  -30.5203  -23.8174   21.0497 H   0  0  0  0  0  0
  -30.9883  -21.4022   21.4112 H   0  0  0  0  0  0
  -27.0123  -19.6975   23.5427 H   0  0  0  0  0  0
  -26.5273  -20.0354   21.8026 H   0  0  0  0  0  0
  -25.7599  -17.6850   21.5376 H   0  0  0  0  0  0
  -26.2296  -17.3169   23.2768 H   0  0  0  0  0  0
  -31.5227  -19.3862   20.7925 H   0  0  0  0  0  0
  -30.6185  -18.7583   22.1382 H   0  0  0  0  0  0
  -31.9900  -16.9955   21.2253 H   0  0  0  0  0  0
  -31.5116  -17.3308   19.5890 H   0  0  0  0  0  0
  -28.6778  -16.5419   19.2021 H   0  0  0  0  0  0
  -28.0401  -16.0188   20.7272 H   0  0  0  0  0  0
  -28.5813  -17.9146   22.8149 H   0  0  0  0  0  0
  -27.5685  -18.4747   19.9832 H   0  0  0  0  0  0
  -27.6093  -24.9105   18.6936 H   0  0  0  0  0  0
  -29.2703  -25.1491   18.8325 H   0  0  0  0  0  0
  1 25  1  0  0  0
  1 30  2  0  0  0
  1 86  1  0  0  0
  2  3  1  0  0  0
  2 25  1  0  0  0
  2 87  1  0  0  0
  2 88  1  0  0  0
  3  4  1  0  0  0
  3 89  1  0  0  0
  3 90  1  0  0  0
  4  5  1  0  0  0
  4 91  1  0  0  0
  4 92  1  0  0  0
  5  6  1  0  0  0
  5 26  1  0  0  0
  5 93  1  0  0  0
  6 25  1  0  0  0
  6 94  1  0  0  0
  6 95  1  0  0  0
  7  8  2  0  0  0
  7 26  1  0  0  0
  7 29  1  0  0  0
  8  9  1  0  0  0
  8 22  1  0  0  0
  9 10  1  0  0  0
  9 27  2  0  0  0
 10 11  2  0  0  0
 10 15  1  0  0  0
 11 12  1  0  0  0
 11 96  1  0  0  0
 12 13  2  0  0  0
 12 97  1  0  0  0
 13 14  1  0  0  0
 13 31  1  0  0  0
 14 15  2  0  0  0
 14 98  1  0  0  0
 15 99  1  0  0  0
 16 17  2  0  0  0
 16 21  1  0  0  0
 16 31  1  0  0  0
 17 18  1  0  0  0
 17100  1  0  0  0
 18 19  2  0  0  0
 18101  1  0  0  0
 19 20  1  0  0  0
 19 24  1  0  0  0
 20 21  2  0  0  0
 20102  1  0  0  0
 21 23  1  0  0  0
 22 28  1  0  0  0
 22 32  2  0  0  0
 26 27  1  0  0  0
 28103  1  0  0  0
 28104  1  0  0  0
 29105  1  0  0  0
 29106  1  0  0  0
 33 34  1  0  0  0
 33 66  1  0  0  0
 33 70  2  0  0  0
 34 36  1  0  0  0
 34 59  1  0  0  0
 34107  1  0  0  0
 35 44  2  0  0  0
 35 45  1  0  0  0
 35 68  1  0  0  0
 36 56  1  0  0  0
 36108  1  0  0  0
 37 39  1  0  0  0
 37 47  1  0  0  0
 37 66  1  0  0  0
 37109  1  0  0  0
 38 43  2  0  0  0
 38 46  1  0  0  0
 38 47  1  0  0  0
 39 64  1  0  0  0
 39 67  2  0  0  0
 40 52  1  0  0  0
 40 53  2  0  0  0
 40 58  1  0  0  0
 41110  1  0  0  0
 41111  1  0  0  0
 41112  1  0  0  0
 41 48  1  0  0  0
 42 43  1  0  0  0
 42 66  1  0  0  0
 42113  1  0  0  0
 42114  1  0  0  0
 43 44  1  0  0  0
 44115  1  0  0  0
 45 46  2  0  0  0
 45116  1  0  0  0
 46117  1  0  0  0
 47118  1  0  0  0
 47119  1  0  0  0
 48 56  1  0  0  0
 48 65  1  0  0  0
 48120  1  0  0  0
 49 50  1  0  0  0
 49 53  1  0  0  0
 49 64  1  0  0  0
 49121  1  0  0  0
 50 51  1  0  0  0
 50122  1  0  0  0
 50123  1  0  0  0
 51 52  1  0  0  0
 51124  1  0  0  0
 51125  1  0  0  0
 52126  1  0  0  0
 52127  1  0  0  0
 53 54  1  0  0  0
 54 55  2  0  0  0
 54128  1  0  0  0
 55 57  1  0  0  0
 55129  1  0  0  0
 56 69  2  0  0  0
 57 58  2  0  0  0
 57130  1  0  0  0
 58131  1  0  0  0
 59 60  1  0  0  0
 59 61  1  0  0  0
 59 62  1  0  0  0
 60132  1  0  0  0
 60133  1  0  0  0
 60134  1  0  0  0
 61135  1  0  0  0
 61136  1  0  0  0
 61137  1  0  0  0
 62138  1  0  0  0
 62139  1  0  0  0
 62140  1  0  0  0
 63 65  1  0  0  0
 63141  1  0  0  0
 63142  1  0  0  0
 63143  1  0  0  0
 64144  1  0  0  0
 65145  1  0  0  0
 68 82  1  0  0  0
 71 72  2  0  0  0
 71 73  1  0  0  0
 71146  1  0  0  0
 72 74  1  0  0  0
 72147  1  0  0  0
 73 82  1  0  0  0
 73 83  2  0  0  0
 74 84  2  0  0  0
 74 85  1  0  0  0
 75 76  1  0  0  0
 75148  1  0  0  0
 75149  1  0  0  0
 75 80  1  0  0  0
 76 80  1  0  0  0
 76150  1  0  0  0
 76151  1  0  0  0
 77 78  1  0  0  0
 77 85  1  0  0  0
 77152  1  0  0  0
 77153  1  0  0  0
 78 86  1  0  0  0
 78154  1  0  0  0
 78155  1  0  0  0
 79 86  1  0  0  0
 79156  1  0  0  0
 79157  1  0  0  0
 79 81  1  0  0  0
 80 81  1  0  0  0
 80158  1  0  0  0
 81 85  1  0  0  0
 81159  1  0  0  0
 82160  1  0  0  0
 82161  1  0  0  0
 83 84  1  0  0  0
M  ISO  4   1 100  68 101  82 101  86 100
M  END
> <chiral flag>
0

> <version>
0

> <s_m_source_file>
/data/baiqing/PycharmProjects/Reinvent-master-3.2/result/LINK_invent/BTK/process_docking_weight1_custom_sum_contain_oxygen_bond_distance_aromatic_linkinvent_7_9_3/rearranged_h_0198.sdf

> <i_m_source_file_index>
6

> <r_mmod_Potential_Energy-OPLS-2005>
527.830810546875

> <r_mmod_Stretch_Energy-OPLS-2005>
151.894775390625

> <r_mmod_Bend_Energy-OPLS-2005>
263.397277832031

> <r_mmod_Torsional_Energy-OPLS-2005>
387.451721191406

> <r_mmod_Improper_Torsional_Energy-OPLS-2005>
9.9028434753418

> <r_mmod_Van_der_Waal_Energy-OPLS-2005>
146.592910766602

> <r_mmod_Electrostatic_Energy-OPLS-2005>
-323.342895507812

> <r_mmod_Solvation_Energy-OPLS-2005>
-233.486846923828

> <b_mmod_Minimization_Converged-OPLS-2005>
0

> <r_mmod_RMS_Derivative-OPLS-2005>
0.681582689285278

$$$$
6
                    3D
 Structure written by MMmdl.
163172  0  0  1  0            999 V2000
  -30.7213  -14.4907   20.3723 C   0  0  0  0  0  0
  -30.4475  -12.3052   19.3570 C   0  0  0  0  0  0
  -29.4556  -12.4101   18.1822 C   0  0  0  0  0  0
  -28.0106  -12.2238   18.6787 C   0  0  0  0  0  0
  -27.6577  -13.1477   19.8713 C   0  0  2  0  0  0
  -28.7436  -13.0314   20.9657 C   0  0  0  0  0  0
  -25.2721  -13.8013   20.5770 C   0  0  0  0  0  0
  -24.1882  -13.0384   20.9263 C   0  0  0  0  0  0
  -24.6373  -11.6833   20.8888 C   0  0  0  0  0  0
  -23.9023  -10.4254   21.0462 C   0  0  0  0  0  0
  -24.3566   -9.4149   21.9204 C   0  0  0  0  0  0
  -23.6281   -8.2167   22.0700 C   0  0  0  0  0  0
  -22.4274   -8.0236   21.3489 C   0  0  0  0  0  0
  -21.9899   -9.0243   20.4623 C   0  0  0  0  0  0
  -22.7214  -10.2140   20.3083 C   0  0  0  0  0  0
  -21.6838   -6.0702   22.5265 C   0  0  0  0  0  0
  -21.4039   -6.5630   23.8202 C   0  0  0  0  0  0
  -21.3713   -5.6801   24.9177 C   0  0  0  0  0  0
  -21.6059   -4.3059   24.7229 C   0  0  0  0  0  0
  -21.8796   -3.8124   23.4353 C   0  0  0  0  0  0
  -21.9181   -4.6930   22.3403 C   0  0  0  0  0  0
  -22.7908  -13.5246   21.1901 C   0  0  0  0  0  0
  -22.1623   -4.2112   21.0976 F   0  0  0  0  0  0
  -21.5662   -3.4545   25.7745 F   0  0  0  0  0  0
  -30.0477  -13.3146   20.3429 N   0  0  0  0  0  0
  -26.3059  -12.9015   20.3572 N   0  0  0  0  0  0
  -25.9296  -11.6267   20.6052 N   0  0  0  0  0  0
  -22.0537  -12.8162   22.0399 N   0  0  0  0  0  0
  -25.4552  -15.1692   20.4013 N   0  0  0  0  0  0
  -31.9451  -14.5673   20.2229 O   0  0  0  0  0  0
  -21.6612   -6.8837   21.4215 O   0  0  0  0  0  0
  -22.3630  -14.5613   20.6857 O   0  0  0  0  0  0
  -24.6076  -31.8728   23.2068 C   0  0  0  0  0  0
  -25.8966  -32.4857   23.8386 C   0  0  1  0  0  0
  -27.2435  -27.4783   20.0713 C   0  0  0  0  0  0
  -25.5861  -33.8654   24.2296 N   0  0  0  0  0  0
  -23.3945  -30.4888   21.5519 C   0  0  2  0  0  0
  -24.8452  -28.9529   20.1150 C   0  0  0  0  0  0
  -22.7352  -29.4677   22.5064 C   0  0  0  0  0  0
  -18.0238  -28.1395   22.8513 C   0  0  0  0  0  0
  -24.1462  -36.7292   23.2668 C   0  0  0  0  0  0
  -25.9176  -30.8504   21.3472 C   0  0  0  0  0  0
  -25.9992  -29.4833   20.7013 C   0  0  0  0  0  0
  -27.2061  -28.7516   20.6789 C   0  0  0  0  0  0
  -26.0797  -26.9465   19.4887 C   0  0  0  0  0  0
  -24.8767  -27.6815   19.5067 C   0  0  0  0  0  0
  -23.5967  -29.8036   20.1700 C   0  0  0  0  0  0
  -25.4100  -36.3146   24.0353 C   0  0  1  0  0  0
  -20.5821  -28.3634   23.1368 C   0  0  2  0  0  0
  -20.6716  -26.9380   22.5467 C   0  0  0  0  0  0
  -19.5700  -26.6380   21.5252 C   0  0  0  0  0  0
  -18.1874  -26.7947   22.1649 C   0  0  0  0  0  0
  -19.1500  -28.8835   23.2916 C   0  0  0  0  0  0
  -18.9460  -30.1469   23.8887 C   0  0  0  0  0  0
  -17.6470  -30.6613   24.0586 C   0  0  0  0  0  0
  -25.9003  -34.9510   23.5115 C   0  0  0  0  0  0
  -16.5343  -29.9141   23.6348 C   0  0  0  0  0  0
  -16.7235  -28.6548   23.0371 C   0  0  0  0  0  0
  -26.4366  -31.6708   25.0778 C   0  0  0  0  0  0
  -25.3617  -31.3903   26.1538 C   0  0  0  0  0  0
  -27.0210  -30.3177   24.6150 C   0  0  0  0  0  0
  -27.5917  -32.4498   25.7527 C   0  0  0  0  0  0
  -27.5549  -37.1830   24.8472 C   0  0  0  0  0  0
  -21.4084  -29.3027   22.3798 N   0  0  0  0  0  0
  -26.4256  -37.3843   23.9419 N   0  0  0  0  0  0
  -24.6587  -31.0827   22.0958 N   0  0  0  0  0  0
  -23.4141  -28.8232   23.3105 O   0  0  0  0  0  0
  -28.4223  -26.7837   20.0135 O   0  0  0  0  0  0
  -26.5623  -34.8944   22.4703 O   0  0  0  0  0  0
  -23.5277  -32.1488   23.7469 O   0  0  0  0  0  0
  -32.1294  -20.0544   19.5099 C   0  0  0  0  0  0
  -30.1841  -20.0228   20.5427 C   0  0  0  0  0  0
  -31.0614  -19.1944   19.9070 C   0  0  0  0  0  0
  -29.8063  -17.4640   18.6206 C   0  0  0  0  0  0
  -29.5760  -15.9699   18.8091 C   0  0  0  0  0  0
  -30.4600  -16.8586   20.7973 C   0  0  0  0  0  0
  -30.9100  -17.7331   19.6182 C   0  0  2  0  0  0
  -30.0193  -22.5439   20.7579 C   0  0  0  0  0  0
  -30.7176  -23.2025   21.9600 C   0  0  0  0  0  0
  -29.9726  -25.5224   21.3076 C   0  0  0  0  0  0
  -28.4972  -25.6941   20.9223 C   0  0  0  0  0  0
  -31.8761  -21.3257   19.7923 N   0  0  0  0  0  0
  -30.6672  -21.3026   20.3991 N   0  0  0  0  0  0
  -29.9713  -15.6057   20.1974 N   0  0  0  0  0  0
  -30.1447  -24.5012   22.3670 N   0  3  0  0  0  0
  -31.4610  -12.4590   18.9751 H   0  0  0  0  0  0
  -30.4433  -11.3123   19.8059 H   0  0  0  0  0  0
  -29.7020  -11.6572   17.4332 H   0  0  0  0  0  0
  -29.5384  -13.3677   17.6713 H   0  0  0  0  0  0
  -27.9198  -11.1889   19.0105 H   0  0  0  0  0  0
  -27.2960  -12.3414   17.8633 H   0  0  0  0  0  0
  -27.6436  -14.1593   19.5016 H   0  0  0  0  0  0
  -28.7564  -12.0258   21.3910 H   0  0  0  0  0  0
  -28.5450  -13.7091   21.7955 H   0  0  0  0  0  0
  -25.2668   -9.5669   22.4847 H   0  0  0  0  0  0
  -24.0008   -7.4525   22.7368 H   0  0  0  0  0  0
  -21.0821   -8.8831   19.8904 H   0  0  0  0  0  0
  -22.3636  -10.9765   19.6271 H   0  0  0  0  0  0
  -21.2044   -7.6130   23.9729 H   0  0  0  0  0  0
  -21.1589   -6.0503   25.9103 H   0  0  0  0  0  0
  -22.0537   -2.7573   23.2862 H   0  0  0  0  0  0
  -22.4151  -11.9712   22.4582 H   0  0  0  0  0  0
  -21.1218  -13.1204   22.2841 H   0  0  0  0  0  0
  -24.7049  -15.8398   20.5271 H   0  0  0  0  0  0
  -26.3184  -15.5925   20.0834 H   0  0  0  0  0  0
  -26.7088  -32.5556   23.1210 H   0  0  0  0  0  0
  -25.0065  -33.9847   25.0471 H   0  0  0  0  0  0
  -22.6798  -31.3026   21.4071 H   0  0  0  0  0  0
  -23.3731  -35.9626   23.3389 H   0  0  0  0  0  0
  -24.3529  -36.8847   22.2067 H   0  0  0  0  0  0
  -23.7188  -37.6511   23.6621 H   0  0  0  0  0  0
  -26.0118  -31.6120   20.5718 H   0  0  0  0  0  0
  -26.8124  -30.9183   21.9534 H   0  0  0  0  0  0
  -28.1021  -29.1679   21.1129 H   0  0  0  0  0  0
  -26.1079  -25.9814   19.0008 H   0  0  0  0  0  0
  -23.9908  -27.2707   19.0453 H   0  0  0  0  0  0
  -23.6647  -30.5672   19.3954 H   0  0  0  0  0  0
  -22.7277  -29.2032   19.8947 H   0  0  0  0  0  0
  -25.1273  -36.2024   25.0863 H   0  0  0  0  0  0
  -20.9885  -28.3193   24.1489 H   0  0  0  0  0  0
  -20.5575  -26.2246   23.3651 H   0  0  0  0  0  0
  -21.6590  -26.7408   22.1283 H   0  0  0  0  0  0
  -19.6816  -25.6285   21.1299 H   0  0  0  0  0  0
  -19.6643  -27.3167   20.6767 H   0  0  0  0  0  0
  -17.4145  -26.6715   21.4056 H   0  0  0  0  0  0
  -18.0230  -26.0099   22.9040 H   0  0  0  0  0  0
  -19.7946  -30.7306   24.2189 H   0  0  0  0  0  0
  -17.5047  -31.6270   24.5248 H   0  0  0  0  0  0
  -15.5359  -30.3076   23.7674 H   0  0  0  0  0  0
  -15.8616  -28.0893   22.7094 H   0  0  0  0  0  0
  -24.5758  -30.7256   25.7943 H   0  0  0  0  0  0
  -24.8821  -32.3109   26.4907 H   0  0  0  0  0  0
  -25.7975  -30.9180   27.0356 H   0  0  0  0  0  0
  -26.2811  -29.7051   24.1006 H   0  0  0  0  0  0
  -27.3795  -29.7331   25.4628 H   0  0  0  0  0  0
  -27.8686  -30.4562   23.9436 H   0  0  0  0  0  0
  -27.2499  -33.3846   26.1983 H   0  0  0  0  0  0
  -28.3756  -32.7029   25.0380 H   0  0  0  0  0  0
  -28.0518  -31.8726   26.5561 H   0  0  0  0  0  0
  -28.2640  -38.0063   24.7499 H   0  0  0  0  0  0
  -28.0970  -36.2609   24.6314 H   0  0  0  0  0  0
  -27.2252  -37.1488   25.8874 H   0  0  0  0  0  0
  -20.9216  -29.8762   21.7057 H   0  0  0  0  0  0
  -26.0136  -38.2921   24.1471 H   0  0  0  0  0  0
  -33.0489  -19.8044   18.9953 H   0  0  0  0  0  0
  -29.2365  -19.8162   21.0242 H   0  0  0  0  0  0
  -28.9062  -18.0014   18.9177 H   0  0  0  0  0  0
  -30.0443  -17.7592   17.5948 H   0  0  0  0  0  0
  -30.1835  -15.4465   18.0687 H   0  0  0  0  0  0
  -28.5335  -15.7598   18.5805 H   0  0  0  0  0  0
  -31.2556  -16.7169   21.5373 H   0  0  0  0  0  0
  -29.6169  -17.3090   21.3222 H   0  0  0  0  0  0
  -31.8423  -17.3396   19.2080 H   0  0  0  0  0  0
  -30.0407  -23.1870   19.8799 H   0  0  0  0  0  0
  -28.9659  -22.3458   20.9650 H   0  0  0  0  0  0
  -31.7830  -23.3348   21.7568 H   0  0  0  0  0  0
  -30.6495  -22.5347   22.8205 H   0  0  0  0  0  0
  -30.3142  -26.4727   21.7161 H   0  0  0  0  0  0
  -30.6019  -25.3245   20.4352 H   0  0  0  0  0  0
  -27.9183  -25.9138   21.8209 H   0  0  0  0  0  0
  -28.0846  -24.7829   20.4835 H   0  0  0  0  0  0
  -29.2646  -24.3539   22.8400 H   0  0  0  0  0  0
  -30.7855  -24.8761   23.0539 H   0  0  0  0  0  0
  1 25  1  0  0  0
  1 30  2  0  0  0
  1 84  1  0  0  0
  2  3  1  0  0  0
  2 25  1  0  0  0
  2 86  1  0  0  0
  2 87  1  0  0  0
  3  4  1  0  0  0
  3 88  1  0  0  0
  3 89  1  0  0  0
  4  5  1  0  0  0
  4 90  1  0  0  0
  4 91  1  0  0  0
  5  6  1  0  0  0
  5 26  1  0  0  0
  5 92  1  0  0  0
  6 25  1  0  0  0
  6 93  1  0  0  0
  6 94  1  0  0  0
  7  8  2  0  0  0
  7 26  1  0  0  0
  7 29  1  0  0  0
  8  9  1  0  0  0
  8 22  1  0  0  0
  9 10  1  0  0  0
  9 27  2  0  0  0
 10 11  2  0  0  0
 10 15  1  0  0  0
 11 12  1  0  0  0
 11 95  1  0  0  0
 12 13  2  0  0  0
 12 96  1  0  0  0
 13 14  1  0  0  0
 13 31  1  0  0  0
 14 15  2  0  0  0
 14 97  1  0  0  0
 15 98  1  0  0  0
 16 17  2  0  0  0
 16 21  1  0  0  0
 16 31  1  0  0  0
 17 18  1  0  0  0
 17 99  1  0  0  0
 18 19  2  0  0  0
 18100  1  0  0  0
 19 20  1  0  0  0
 19 24  1  0  0  0
 20 21  2  0  0  0
 20101  1  0  0  0
 21 23  1  0  0  0
 22 28  1  0  0  0
 22 32  2  0  0  0
 26 27  1  0  0  0
 28102  1  0  0  0
 28103  1  0  0  0
 29104  1  0  0  0
 29105  1  0  0  0
 33 34  1  0  0  0
 33 66  1  0  0  0
 33 70  2  0  0  0
 34 36  1  0  0  0
 34 59  1  0  0  0
 34106  1  0  0  0
 35 44  2  0  0  0
 35 45  1  0  0  0
 35 68  1  0  0  0
 36 56  1  0  0  0
 36107  1  0  0  0
 37 39  1  0  0  0
 37 47  1  0  0  0
 37 66  1  0  0  0
 37108  1  0  0  0
 38 43  2  0  0  0
 38 46  1  0  0  0
 38 47  1  0  0  0
 39 64  1  0  0  0
 39 67  2  0  0  0
 40 52  1  0  0  0
 40 53  2  0  0  0
 40 58  1  0  0  0
 41109  1  0  0  0
 41110  1  0  0  0
 41111  1  0  0  0
 41 48  1  0  0  0
 42 43  1  0  0  0
 42 66  1  0  0  0
 42112  1  0  0  0
 42113  1  0  0  0
 43 44  1  0  0  0
 44114  1  0  0  0
 45 46  2  0  0  0
 45115  1  0  0  0
 46116  1  0  0  0
 47117  1  0  0  0
 47118  1  0  0  0
 48 56  1  0  0  0
 48 65  1  0  0  0
 48119  1  0  0  0
 49 50  1  0  0  0
 49 53  1  0  0  0
 49 64  1  0  0  0
 49120  1  0  0  0
 50 51  1  0  0  0
 50121  1  0  0  0
 50122  1  0  0  0
 51 52  1  0  0  0
 51123  1  0  0  0
 51124  1  0  0  0
 52125  1  0  0  0
 52126  1  0  0  0
 53 54  1  0  0  0
 54 55  2  0  0  0
 54127  1  0  0  0
 55 57  1  0  0  0
 55128  1  0  0  0
 56 69  2  0  0  0
 57 58  2  0  0  0
 57129  1  0  0  0
 58130  1  0  0  0
 59 60  1  0  0  0
 59 61  1  0  0  0
 59 62  1  0  0  0
 60131  1  0  0  0
 60132  1  0  0  0
 60133  1  0  0  0
 61134  1  0  0  0
 61135  1  0  0  0
 61136  1  0  0  0
 62137  1  0  0  0
 62138  1  0  0  0
 62139  1  0  0  0
 63 65  1  0  0  0
 63140  1  0  0  0
 63141  1  0  0  0
 63142  1  0  0  0
 64143  1  0  0  0
 65144  1  0  0  0
 68 81  1  0  0  0
 71 73  1  0  0  0
 71 82  2  0  0  0
 71145  1  0  0  0
 72 73  2  0  0  0
 72 83  1  0  0  0
 72146  1  0  0  0
 73 77  1  0  0  0
 74 75  1  0  0  0
 74 77  1  0  0  0
 74147  1  0  0  0
 74148  1  0  0  0
 75 84  1  0  0  0
 75149  1  0  0  0
 75150  1  0  0  0
 76 77  1  0  0  0
 76 84  1  0  0  0
 76151  1  0  0  0
 76152  1  0  0  0
 77153  1  0  0  0
 78 79  1  0  0  0
 78 83  1  0  0  0
 78154  1  0  0  0
 78155  1  0  0  0
 79 85  1  0  0  0
 79156  1  0  0  0
 79157  1  0  0  0
 80 81  1  0  0  0
 80 85  1  0  0  0
 80158  1  0  0  0
 80159  1  0  0  0
 81160  1  0  0  0
 81161  1  0  0  0
 82 83  1  0  0  0
 85162  1  0  0  0
 85163  1  0  0  0
M  CHG  1  85   1
M  ISO  4   1 100  68 101  81 101  84 100
M  END
> <chiral flag>
0

> <version>
0

> <s_m_source_file>
/data/baiqing/PycharmProjects/Reinvent-master-3.2/result/LINK_invent/BTK/process_docking_weight1_custom_sum_contain_oxygen_bond_distance_aromatic_linkinvent_7_9_3/rearranged_h_0198.sdf

> <i_m_source_file_index>
7

> <r_mmod_Potential_Energy-OPLS-2005>
53.2526397705078

> <r_mmod_Stretch_Energy-OPLS-2005>
33.0105934143066

> <r_mmod_Bend_Energy-OPLS-2005>
129.707077026367

> <r_mmod_Torsional_Energy-OPLS-2005>
382.615173339844

> <r_mmod_Improper_Torsional_Energy-OPLS-2005>
15.0893306732178

> <r_mmod_Van_der_Waal_Energy-OPLS-2005>
126.72339630127

> <r_mmod_Electrostatic_Energy-OPLS-2005>
-205.290466308594

> <r_mmod_Solvation_Energy-OPLS-2005>
-462.434356689453

> <b_mmod_Minimization_Converged-OPLS-2005>
0

> <r_mmod_RMS_Derivative-OPLS-2005>
7.19750642776489

$$$$
7
                    3D
 Structure written by MMmdl.
162171  0  0  1  0            999 V2000
  -30.7085  -14.7109   20.4430 C   0  0  0  0  0  0
  -30.4018  -12.4405   19.4674 C   0  0  0  0  0  0
  -29.4799  -12.5127   18.2319 C   0  0  0  0  0  0
  -28.0183  -12.2901   18.6587 C   0  0  0  0  0  0
  -27.6137  -13.2011   19.8437 C   0  0  2  0  0  0
  -28.6783  -13.2230   20.9740 C   0  0  0  0  0  0
  -25.2412  -13.8096   20.5810 C   0  0  0  0  0  0
  -24.1659  -13.0367   20.9339 C   0  0  0  0  0  0
  -24.6253  -11.6872   20.8866 C   0  0  0  0  0  0
  -23.8959  -10.4254   21.0478 C   0  0  0  0  0  0
  -24.3534   -9.4145   21.9203 C   0  0  0  0  0  0
  -23.6241   -8.2158   22.0721 C   0  0  0  0  0  0
  -22.4218   -8.0216   21.3532 C   0  0  0  0  0  0
  -21.9880   -9.0191   20.4621 C   0  0  0  0  0  0
  -22.7177  -10.2089   20.3077 C   0  0  0  0  0  0
  -21.6839   -6.0711   22.5297 C   0  0  0  0  0  0
  -21.3969   -6.5622   23.8228 C   0  0  0  0  0  0
  -21.3664   -5.6773   24.9194 C   0  0  0  0  0  0
  -21.6038   -4.3033   24.7251 C   0  0  0  0  0  0
  -21.8814   -3.8138   23.4374 C   0  0  0  0  0  0
  -21.9181   -4.6946   22.3427 C   0  0  0  0  0  0
  -22.7692  -13.5179   21.2016 C   0  0  0  0  0  0
  -22.1649   -4.2134   21.1005 F   0  0  0  0  0  0
  -21.5684   -3.4524   25.7779 F   0  0  0  0  0  0
  -29.9839  -13.5355   20.3707 N   0  0  0  0  0  0
  -26.2790  -12.9216   20.3404 N   0  0  0  0  0  0
  -25.9177  -11.6412   20.5875 N   0  0  0  0  0  0
  -22.0326  -12.8087   22.0522 N   0  0  0  0  0  0
  -25.3979  -15.1779   20.4094 N   0  0  0  0  0  0
  -31.9194  -14.6898   20.2232 O   0  0  0  0  0  0
  -21.6589   -6.8819   21.4235 O   0  0  0  0  0  0
  -22.3380  -14.5499   20.6877 O   0  0  0  0  0  0
  -24.6306  -31.8531   23.2025 C   0  0  0  0  0  0
  -25.9146  -32.4733   23.8341 C   0  0  1  0  0  0
  -27.2364  -27.2805   20.1160 C   0  0  0  0  0  0
  -25.5954  -33.8528   24.2257 N   0  0  0  0  0  0
  -23.4272  -30.4768   21.5411 C   0  0  2  0  0  0
  -24.8760  -28.9249   20.1109 C   0  0  0  0  0  0
  -22.7505  -29.4581   22.4900 C   0  0  0  0  0  0
  -18.0288  -28.1388   22.8455 C   0  0  0  0  0  0
  -24.1517  -36.7285   23.2639 C   0  0  0  0  0  0
  -25.9710  -30.7713   21.3803 C   0  0  0  0  0  0
  -26.0437  -29.3954   20.7211 C   0  0  0  0  0  0
  -27.2174  -28.5810   20.7204 C   0  0  0  0  0  0
  -26.0333  -26.8656   19.4974 C   0  0  0  0  0  0
  -24.8707  -27.6638   19.4979 C   0  0  0  0  0  0
  -23.6506  -29.8144   20.1544 C   0  0  0  0  0  0
  -25.4141  -36.3049   24.0320 C   0  0  1  0  0  0
  -20.5893  -28.3703   23.1276 C   0  0  2  0  0  0
  -20.6793  -26.9418   22.5421 C   0  0  0  0  0  0
  -19.5788  -26.6378   21.5209 C   0  0  0  0  0  0
  -18.1949  -26.7923   22.1598 C   0  0  0  0  0  0
  -19.1536  -28.8856   23.2852 C   0  0  0  0  0  0
  -18.9467  -30.1458   23.8874 C   0  0  0  0  0  0
  -17.6464  -30.6585   24.0556 C   0  0  0  0  0  0
  -25.9058  -34.9411   23.5077 C   0  0  0  0  0  0
  -16.5353  -29.9086   23.6331 C   0  0  0  0  0  0
  -16.7269  -28.6514   23.0324 C   0  0  0  0  0  0
  -26.4515  -31.6573   25.0735 C   0  0  0  0  0  0
  -25.3763  -31.3669   26.1469 C   0  0  0  0  0  0
  -27.0365  -30.2982   24.6214 C   0  0  0  0  0  0
  -27.6067  -32.4282   25.7504 C   0  0  0  0  0  0
  -27.5575  -37.1815   24.8457 C   0  0  0  0  0  0
  -21.4209  -29.3044   22.3653 N   0  0  0  0  0  0
  -26.4314  -37.3757   23.9367 N   0  0  0  0  0  0
  -24.6938  -31.0533   22.0964 N   0  0  0  0  0  0
  -23.4194  -28.8117   23.2992 O   0  0  0  0  0  0
  -28.3819  -26.4574   20.1881 O   0  0  0  0  0  0
  -26.5626  -34.8890   22.4644 O   0  0  0  0  0  0
  -23.5466  -32.1335   23.7324 O   0  0  0  0  0  0
  -28.6774  -17.8154   19.7532 C   0  0  0  0  0  0
  -30.8087  -21.5969   21.7417 C   0  0  0  0  0  0
  -28.7694  -16.2991   20.0215 C   0  0  0  0  0  0
  -30.7863  -17.2780   20.6755 C   0  0  0  0  0  0
  -32.0547  -21.1150   20.9970 C   0  0  0  0  0  0
  -29.7423  -18.4879   20.6210 C   0  0  1  0  0  0
  -29.6304  -21.3026   20.8007 C   0  0  2  0  0  0
  -30.1543  -19.9523   20.0708 C   0  0  1  0  0  0
  -28.9839  -23.8619   20.5988 C   0  0  0  0  0  0
  -28.4691  -25.0638   19.6524 C   0  0  0  0  0  0
  -30.0833  -15.9530   20.5624 N   0  0  0  0  0  0
  -29.2865  -22.5183   19.9602 N   0  0  0  0  0  0
  -31.6222  -20.0290   20.1063 N   0  3  0  0  0  0
  -31.4451  -12.5254   19.1577 H   0  0  0  0  0  0
  -30.3117  -11.4760   19.9745 H   0  0  0  0  0  0
  -29.7785  -11.7832   17.4781 H   0  0  0  0  0  0
  -29.5668  -13.5001   17.7670 H   0  0  0  0  0  0
  -27.8957  -11.2428   18.9360 H   0  0  0  0  0  0
  -27.3460  -12.4556   17.8162 H   0  0  0  0  0  0
  -27.5175  -14.1721   19.3890 H   0  0  0  0  0  0
  -28.7256  -12.2618   21.4870 H   0  0  0  0  0  0
  -28.4201  -13.9641   21.7308 H   0  0  0  0  0  0
  -25.2676   -9.5627   22.4759 H   0  0  0  0  0  0
  -24.0012   -7.4527   22.7380 H   0  0  0  0  0  0
  -21.0861   -8.8683   19.8887 H   0  0  0  0  0  0
  -22.3646  -10.9621   19.6190 H   0  0  0  0  0  0
  -21.1876   -7.6113   23.9724 H   0  0  0  0  0  0
  -21.1524   -6.0501   25.9094 H   0  0  0  0  0  0
  -22.0576   -2.7604   23.2886 H   0  0  0  0  0  0
  -22.3995  -11.9745   22.4844 H   0  0  0  0  0  0
  -21.0906  -13.0999   22.2770 H   0  0  0  0  0  0
  -24.6163  -15.8170   20.4999 H   0  0  0  0  0  0
  -26.2315  -15.6203   20.0457 H   0  0  0  0  0  0
  -26.7219  -32.5400   23.1078 H   0  0  0  0  0  0
  -25.0152  -33.9679   25.0434 H   0  0  0  0  0  0
  -22.7241  -31.2992   21.3955 H   0  0  0  0  0  0
  -23.3748  -35.9652   23.3320 H   0  0  0  0  0  0
  -24.3588  -36.8868   22.2041 H   0  0  0  0  0  0
  -23.7314  -37.6511   23.6658 H   0  0  0  0  0  0
  -26.1196  -31.5324   20.6133 H   0  0  0  0  0  0
  -26.8432  -30.8093   22.0209 H   0  0  0  0  0  0
  -28.1105  -28.9359   21.2154 H   0  0  0  0  0  0
  -25.9367  -25.9097   19.0118 H   0  0  0  0  0  0
  -23.9701  -27.2887   19.0287 H   0  0  0  0  0  0
  -23.7909  -30.5917   19.4028 H   0  0  0  0  0  0
  -22.7664  -29.2572   19.8433 H   0  0  0  0  0  0
  -25.1332  -36.1875   25.0821 H   0  0  0  0  0  0
  -20.9975  -28.3279   24.1399 H   0  0  0  0  0  0
  -20.5699  -26.2294   23.3615 H   0  0  0  0  0  0
  -21.6666  -26.7442   22.1218 H   0  0  0  0  0  0
  -19.6946  -25.6282   21.1254 H   0  0  0  0  0  0
  -19.6742  -27.3183   20.6743 H   0  0  0  0  0  0
  -17.4221  -26.6633   21.4001 H   0  0  0  0  0  0
  -18.0349  -26.0083   22.9022 H   0  0  0  0  0  0
  -19.7943  -30.7280   24.2229 H   0  0  0  0  0  0
  -17.5018  -31.6269   24.5161 H   0  0  0  0  0  0
  -15.5355  -30.2977   23.7684 H   0  0  0  0  0  0
  -15.8666  -28.0854   22.7025 H   0  0  0  0  0  0
  -24.5987  -30.6949   25.7803 H   0  0  0  0  0  0
  -24.8950  -32.2832   26.4905 H   0  0  0  0  0  0
  -25.8153  -30.8863   27.0232 H   0  0  0  0  0  0
  -26.2959  -29.6690   24.1254 H   0  0  0  0  0  0
  -27.4052  -29.7240   25.4734 H   0  0  0  0  0  0
  -27.8844  -30.4204   23.9450 H   0  0  0  0  0  0
  -27.2679  -33.3562   26.2106 H   0  0  0  0  0  0
  -28.3906  -32.6833   25.0359 H   0  0  0  0  0  0
  -28.0735  -31.8392   26.5414 H   0  0  0  0  0  0
  -28.2606  -38.0099   24.7474 H   0  0  0  0  0  0
  -28.1057  -36.2618   24.6339 H   0  0  0  0  0  0
  -27.2279  -37.1523   25.8862 H   0  0  0  0  0  0
  -20.9374  -29.8760   21.6857 H   0  0  0  0  0  0
  -26.0159  -38.2814   24.1379 H   0  0  0  0  0  0
  -28.9106  -17.9823   18.6975 H   0  0  0  0  0  0
  -27.6735  -18.2165   19.9178 H   0  0  0  0  0  0
  -30.8994  -22.6290   22.0710 H   0  0  0  0  0  0
  -30.6819  -21.0033   22.6437 H   0  0  0  0  0  0
  -28.0033  -15.9835   20.7292 H   0  0  0  0  0  0
  -28.6454  -15.8063   19.0603 H   0  0  0  0  0  0
  -31.3716  -17.2820   21.5945 H   0  0  0  0  0  0
  -31.4933  -17.3268   19.8418 H   0  0  0  0  0  0
  -32.8434  -20.7768   21.6709 H   0  0  0  0  0  0
  -32.4666  -21.9167   20.3828 H   0  0  0  0  0  0
  -29.3532  -18.6170   21.6348 H   0  0  0  0  0  0
  -28.7430  -21.0691   21.3894 H   0  0  0  0  0  0
  -29.8768  -20.0078   19.0174 H   0  0  0  0  0  0
  -28.2344  -23.7129   21.3803 H   0  0  0  0  0  0
  -29.8814  -24.2211   21.0947 H   0  0  0  0  0  0
  -27.5575  -24.7287   19.1667 H   0  0  0  0  0  0
  -29.1806  -25.1455   18.8305 H   0  0  0  0  0  0
  -28.4612  -22.2767   19.4148 H   0  0  0  0  0  0
  -31.9641  -19.1420   20.4431 H   0  0  0  0  0  0
  -31.9914  -20.1728   19.1796 H   0  0  0  0  0  0
  1 25  1  0  0  0
  1 30  2  0  0  0
  1 81  1  0  0  0
  2  3  1  0  0  0
  2 25  1  0  0  0
  2 84  1  0  0  0
  2 85  1  0  0  0
  3  4  1  0  0  0
  3 86  1  0  0  0
  3 87  1  0  0  0
  4  5  1  0  0  0
  4 88  1  0  0  0
  4 89  1  0  0  0
  5  6  1  0  0  0
  5 26  1  0  0  0
  5 90  1  0  0  0
  6 25  1  0  0  0
  6 91  1  0  0  0
  6 92  1  0  0  0
  7  8  2  0  0  0
  7 26  1  0  0  0
  7 29  1  0  0  0
  8  9  1  0  0  0
  8 22  1  0  0  0
  9 10  1  0  0  0
  9 27  2  0  0  0
 10 11  2  0  0  0
 10 15  1  0  0  0
 11 12  1  0  0  0
 11 93  1  0  0  0
 12 13  2  0  0  0
 12 94  1  0  0  0
 13 14  1  0  0  0
 13 31  1  0  0  0
 14 15  2  0  0  0
 14 95  1  0  0  0
 15 96  1  0  0  0
 16 17  2  0  0  0
 16 21  1  0  0  0
 16 31  1  0  0  0
 17 18  1  0  0  0
 17 97  1  0  0  0
 18 19  2  0  0  0
 18 98  1  0  0  0
 19 20  1  0  0  0
 19 24  1  0  0  0
 20 21  2  0  0  0
 20 99  1  0  0  0
 21 23  1  0  0  0
 22 28  1  0  0  0
 22 32  2  0  0  0
 26 27  1  0  0  0
 28100  1  0  0  0
 28101  1  0  0  0
 29102  1  0  0  0
 29103  1  0  0  0
 33 34  1  0  0  0
 33 66  1  0  0  0
 33 70  2  0  0  0
 34 36  1  0  0  0
 34 59  1  0  0  0
 34104  1  0  0  0
 35 44  2  0  0  0
 35 45  1  0  0  0
 35 68  1  0  0  0
 36 56  1  0  0  0
 36105  1  0  0  0
 37 39  1  0  0  0
 37 47  1  0  0  0
 37 66  1  0  0  0
 37106  1  0  0  0
 38 43  2  0  0  0
 38 46  1  0  0  0
 38 47  1  0  0  0
 39 64  1  0  0  0
 39 67  2  0  0  0
 40 52  1  0  0  0
 40 53  2  0  0  0
 40 58  1  0  0  0
 41107  1  0  0  0
 41108  1  0  0  0
 41109  1  0  0  0
 41 48  1  0  0  0
 42 43  1  0  0  0
 42 66  1  0  0  0
 42110  1  0  0  0
 42111  1  0  0  0
 43 44  1  0  0  0
 44112  1  0  0  0
 45 46  2  0  0  0
 45113  1  0  0  0
 46114  1  0  0  0
 47115  1  0  0  0
 47116  1  0  0  0
 48 56  1  0  0  0
 48 65  1  0  0  0
 48117  1  0  0  0
 49 50  1  0  0  0
 49 53  1  0  0  0
 49 64  1  0  0  0
 49118  1  0  0  0
 50 51  1  0  0  0
 50119  1  0  0  0
 50120  1  0  0  0
 51 52  1  0  0  0
 51121  1  0  0  0
 51122  1  0  0  0
 52123  1  0  0  0
 52124  1  0  0  0
 53 54  1  0  0  0
 54 55  2  0  0  0
 54125  1  0  0  0
 55 57  1  0  0  0
 55126  1  0  0  0
 56 69  2  0  0  0
 57 58  2  0  0  0
 57127  1  0  0  0
 58128  1  0  0  0
 59 60  1  0  0  0
 59 61  1  0  0  0
 59 62  1  0  0  0
 60129  1  0  0  0
 60130  1  0  0  0
 60131  1  0  0  0
 61132  1  0  0  0
 61133  1  0  0  0
 61134  1  0  0  0
 62135  1  0  0  0
 62136  1  0  0  0
 62137  1  0  0  0
 63 65  1  0  0  0
 63138  1  0  0  0
 63139  1  0  0  0
 63140  1  0  0  0
 64141  1  0  0  0
 65142  1  0  0  0
 68 80  1  0  0  0
 71 73  1  0  0  0
 71143  1  0  0  0
 71144  1  0  0  0
 71 76  1  0  0  0
 72 75  1  0  0  0
 72 77  1  0  0  0
 72145  1  0  0  0
 72146  1  0  0  0
 73 81  1  0  0  0
 73147  1  0  0  0
 73148  1  0  0  0
 74 76  1  0  0  0
 74 81  1  0  0  0
 74149  1  0  0  0
 74150  1  0  0  0
 75 83  1  0  0  0
 75151  1  0  0  0
 75152  1  0  0  0
 76 78  1  0  0  0
 76153  1  0  0  0
 77 78  1  0  0  0
 77 82  1  0  0  0
 77154  1  0  0  0
 78 83  1  0  0  0
 78155  1  0  0  0
 79 80  1  0  0  0
 79 82  1  0  0  0
 79156  1  0  0  0
 79157  1  0  0  0
 80158  1  0  0  0
 80159  1  0  0  0
 82160  1  0  0  0
 83161  1  0  0  0
 83162  1  0  0  0
M  CHG  1  83   1
M  ISO  4   1 100  68 101  80 101  81 100
M  END
> <chiral flag>
0

> <version>
0

> <s_m_source_file>
/data/baiqing/PycharmProjects/Reinvent-master-3.2/result/LINK_invent/BTK/process_docking_weight1_custom_sum_contain_oxygen_bond_distance_aromatic_linkinvent_7_9_3/rearranged_h_0198.sdf

> <i_m_source_file_index>
8

> <r_mmod_Potential_Energy-OPLS-2005>
331.794372558594

> <r_mmod_Stretch_Energy-OPLS-2005>
112.350425720215

> <r_mmod_Bend_Energy-OPLS-2005>
233.059432983398

> <r_mmod_Torsional_Energy-OPLS-2005>
398.553680419922

> <r_mmod_Improper_Torsional_Energy-OPLS-2005>
6.07911157608032

> <r_mmod_Van_der_Waal_Energy-OPLS-2005>
129.055908203125

> <r_mmod_Electrostatic_Energy-OPLS-2005>
-168.786972045898

> <r_mmod_Solvation_Energy-OPLS-2005>
-458.198699951172

> <b_mmod_Minimization_Converged-OPLS-2005>
0

> <r_mmod_RMS_Derivative-OPLS-2005>
7.38948011398315

$$$$
8
                    3D
 Structure written by MMmdl.
163173  0  0  1  0            999 V2000
  -30.6448  -14.6931   20.4680 C   0  0  0  0  0  0
  -30.4222  -12.4259   19.4576 C   0  0  0  0  0  0
  -29.4983  -12.4990   18.2237 C   0  0  0  0  0  0
  -28.0244  -12.3331   18.6418 C   0  0  0  0  0  0
  -27.6383  -13.2245   19.8525 C   0  0  2  0  0  0
  -28.6877  -13.1569   20.9825 C   0  0  0  0  0  0
  -25.2510  -13.8167   20.5718 C   0  0  0  0  0  0
  -24.1791  -13.0425   20.9215 C   0  0  0  0  0  0
  -24.6374  -11.6902   20.8756 C   0  0  0  0  0  0
  -23.9049  -10.4287   21.0413 C   0  0  0  0  0  0
  -24.3607   -9.4208   21.9186 C   0  0  0  0  0  0
  -23.6295   -8.2238   22.0752 C   0  0  0  0  0  0
  -22.4276   -8.0274   21.3539 C   0  0  0  0  0  0
  -21.9905   -9.0245   20.4640 C   0  0  0  0  0  0
  -22.7226  -10.2131   20.3056 C   0  0  0  0  0  0
  -21.6849   -6.0734   22.5284 C   0  0  0  0  0  0
  -21.4009   -6.5636   23.8216 C   0  0  0  0  0  0
  -21.3662   -5.6793   24.9176 C   0  0  0  0  0  0
  -21.6058   -4.3058   24.7221 C   0  0  0  0  0  0
  -21.8820   -3.8147   23.4338 C   0  0  0  0  0  0
  -21.9189   -4.6963   22.3400 C   0  0  0  0  0  0
  -22.7825  -13.5223   21.1879 C   0  0  0  0  0  0
  -22.1655   -4.2154   21.0980 F   0  0  0  0  0  0
  -21.5636   -3.4539   25.7723 F   0  0  0  0  0  0
  -29.9897  -13.4876   20.3917 N   0  0  0  0  0  0
  -26.2924  -12.9354   20.3329 N   0  0  0  0  0  0
  -25.9306  -11.6502   20.5781 N   0  0  0  0  0  0
  -22.0466  -12.8209   22.0423 N   0  0  0  0  0  0
  -25.4228  -15.1892   20.4138 N   0  0  0  0  0  0
  -31.8387  -14.7731   20.1645 O   0  0  0  0  0  0
  -21.6638   -6.8878   21.4243 O   0  0  0  0  0  0
  -22.3520  -14.5539   20.6734 O   0  0  0  0  0  0
  -24.6296  -31.8573   23.2010 C   0  0  0  0  0  0
  -25.9133  -32.4760   23.8342 C   0  0  1  0  0  0
  -27.2194  -27.2888   20.1037 C   0  0  0  0  0  0
  -25.5936  -33.8563   24.2263 N   0  0  0  0  0  0
  -23.4234  -30.4826   21.5446 C   0  0  2  0  0  0
  -24.8666  -28.9358   20.1079 C   0  0  0  0  0  0
  -22.7492  -29.4614   22.4923 C   0  0  0  0  0  0
  -18.0290  -28.1385   22.8487 C   0  0  0  0  0  0
  -24.1491  -36.7289   23.2640 C   0  0  0  0  0  0
  -25.9681  -30.7781   21.3757 C   0  0  0  0  0  0
  -26.0388  -29.4045   20.7131 C   0  0  0  0  0  0
  -27.2137  -28.5910   20.7042 C   0  0  0  0  0  0
  -26.0092  -26.8704   19.5010 C   0  0  0  0  0  0
  -24.8553  -27.6753   19.4959 C   0  0  0  0  0  0
  -23.6380  -29.8212   20.1587 C   0  0  0  0  0  0
  -25.4118  -36.3076   24.0326 C   0  0  1  0  0  0
  -20.5892  -28.3695   23.1277 C   0  0  2  0  0  0
  -20.6778  -26.9414   22.5410 C   0  0  0  0  0  0
  -19.5753  -26.6384   21.5212 C   0  0  0  0  0  0
  -18.1935  -26.7928   22.1625 C   0  0  0  0  0  0
  -19.1544  -28.8859   23.2876 C   0  0  0  0  0  0
  -18.9463  -30.1458   23.8895 C   0  0  0  0  0  0
  -17.6462  -30.6587   24.0562 C   0  0  0  0  0  0
  -25.9056  -34.9441   23.5097 C   0  0  0  0  0  0
  -16.5352  -29.9085   23.6331 C   0  0  0  0  0  0
  -16.7277  -28.6502   23.0353 C   0  0  0  0  0  0
  -26.4500  -31.6582   25.0728 C   0  0  0  0  0  0
  -25.3722  -31.3730   26.1449 C   0  0  0  0  0  0
  -27.0343  -30.3000   24.6203 C   0  0  0  0  0  0
  -27.6057  -32.4320   25.7502 C   0  0  0  0  0  0
  -27.5577  -37.1804   24.8463 C   0  0  0  0  0  0
  -21.4200  -29.3046   22.3666 N   0  0  0  0  0  0
  -26.4292  -37.3772   23.9404 N   0  0  0  0  0  0
  -24.6930  -31.0566   22.0964 N   0  0  0  0  0  0
  -23.4204  -28.8148   23.3004 O   0  0  0  0  0  0
  -28.3373  -26.4304   20.1874 O   0  0  0  0  0  0
  -26.5627  -34.8913   22.4663 O   0  0  0  0  0  0
  -23.5456  -32.1379   23.7321 O   0  0  0  0  0  0
  -28.6768  -22.6488   19.2616 C   0  0  0  0  0  0
  -29.3046  -21.7236   20.0936 C   0  0  0  0  0  0
  -28.8003  -21.7614   16.7830 C   0  0  0  0  0  0
  -28.5446  -23.2445   16.6958 C   0  0  0  0  0  0
  -30.2324  -16.8139   21.7446 C   0  0  0  0  0  0
  -29.4674  -16.6333   19.4544 C   0  0  0  0  0  0
  -30.5008  -18.3241   21.3357 C   0  0  0  0  0  0
  -28.6805  -17.9753   19.7467 C   0  0  0  0  0  0
  -28.0670  -22.4675   17.9023 C   0  0  0  0  0  0
  -29.8478  -20.2685   19.7963 C   0  0  0  0  0  0
  -28.4893  -25.2905   19.2902 C   0  0  0  0  0  0
  -29.6780  -22.4672   21.2261 N   0  0  0  0  0  0
  -29.3629  -23.7404   21.0920 N   0  0  0  0  0  0
  -28.7596  -23.9167   19.8878 N   0  0  0  0  0  0
  -29.9059  -15.8564   20.6477 N   0  0  0  0  0  0
  -29.4105  -19.0097   20.5579 N   0  3  0  0  0  0
  -31.4639  -12.5380   19.1513 H   0  0  0  0  0  0
  -30.3533  -11.4471   19.9345 H   0  0  0  0  0  0
  -29.7703  -11.7289   17.5012 H   0  0  0  0  0  0
  -29.6318  -13.4563   17.7179 H   0  0  0  0  0  0
  -27.8733  -11.2833   18.8955 H   0  0  0  0  0  0
  -27.3653  -12.5358   17.7966 H   0  0  0  0  0  0
  -27.6265  -14.2459   19.4797 H   0  0  0  0  0  0
  -28.7133  -12.1646   21.4366 H   0  0  0  0  0  0
  -28.4343  -13.8558   21.7811 H   0  0  0  0  0  0
  -25.2743   -9.5686   22.4768 H   0  0  0  0  0  0
  -24.0007   -7.4626   22.7466 H   0  0  0  0  0  0
  -21.0839   -8.8753   19.8946 H   0  0  0  0  0  0
  -22.3675  -10.9667   19.6168 H   0  0  0  0  0  0
  -21.1994   -7.6141   23.9715 H   0  0  0  0  0  0
  -21.1493   -6.0520   25.9086 H   0  0  0  0  0  0
  -22.0596   -2.7607   23.2831 H   0  0  0  0  0  0
  -22.4059  -11.9849   22.4793 H   0  0  0  0  0  0
  -21.1096  -13.1252   22.2636 H   0  0  0  0  0  0
  -24.6601  -15.8474   20.5298 H   0  0  0  0  0  0
  -26.2804  -15.6228   20.1010 H   0  0  0  0  0  0
  -26.7199  -32.5408   23.1084 H   0  0  0  0  0  0
  -25.0077  -33.9703   25.0406 H   0  0  0  0  0  0
  -22.7191  -31.3050   21.4031 H   0  0  0  0  0  0
  -23.3749  -35.9625   23.3300 H   0  0  0  0  0  0
  -24.3586  -36.8914   22.2055 H   0  0  0  0  0  0
  -23.7245  -37.6491   23.6665 H   0  0  0  0  0  0
  -26.1076  -31.5424   20.6103 H   0  0  0  0  0  0
  -26.8464  -30.8217   22.0085 H   0  0  0  0  0  0
  -28.1115  -28.9475   21.1897 H   0  0  0  0  0  0
  -25.8875  -25.8906   19.0687 H   0  0  0  0  0  0
  -23.9499  -27.3020   19.0377 H   0  0  0  0  0  0
  -23.7613  -30.5997   19.4050 H   0  0  0  0  0  0
  -22.7555  -29.2558   19.8530 H   0  0  0  0  0  0
  -25.1300  -36.1924   25.0818 H   0  0  0  0  0  0
  -20.9989  -28.3269   24.1395 H   0  0  0  0  0  0
  -20.5682  -26.2304   23.3611 H   0  0  0  0  0  0
  -21.6645  -26.7443   22.1199 H   0  0  0  0  0  0
  -19.6913  -25.6295   21.1244 H   0  0  0  0  0  0
  -19.6690  -27.3192   20.6741 H   0  0  0  0  0  0
  -17.4203  -26.6677   21.4026 H   0  0  0  0  0  0
  -18.0334  -26.0072   22.9023 H   0  0  0  0  0  0
  -19.7940  -30.7276   24.2263 H   0  0  0  0  0  0
  -17.5016  -31.6269   24.5162 H   0  0  0  0  0  0
  -15.5354  -30.2982   23.7661 H   0  0  0  0  0  0
  -15.8675  -28.0819   22.7069 H   0  0  0  0  0  0
  -24.5898  -30.7081   25.7773 H   0  0  0  0  0  0
  -24.8914  -32.2899   26.4869 H   0  0  0  0  0  0
  -25.8041  -30.8908   27.0228 H   0  0  0  0  0  0
  -26.2923  -29.6753   24.1219 H   0  0  0  0  0  0
  -27.4014  -29.7262   25.4723 H   0  0  0  0  0  0
  -27.8806  -30.4275   23.9451 H   0  0  0  0  0  0
  -27.2666  -33.3623   26.2072 H   0  0  0  0  0  0
  -28.3875  -32.6874   25.0336 H   0  0  0  0  0  0
  -28.0713  -31.8445   26.5426 H   0  0  0  0  0  0
  -28.2595  -38.0101   24.7509 H   0  0  0  0  0  0
  -28.1076  -36.2632   24.6292 H   0  0  0  0  0  0
  -27.2298  -37.1456   25.8867 H   0  0  0  0  0  0
  -20.9378  -29.8778   21.6884 H   0  0  0  0  0  0
  -26.0169  -38.2846   24.1399 H   0  0  0  0  0  0
  -29.8349  -21.4608   16.9333 H   0  0  0  0  0  0
  -28.2157  -21.1123   16.1339 H   0  0  0  0  0  0
  -27.7910  -23.5827   15.9866 H   0  0  0  0  0  0
  -29.4047  -23.9016   16.8092 H   0  0  0  0  0  0
  -29.4033  -16.7828   22.4530 H   0  0  0  0  0  0
  -31.0990  -16.4529   22.3028 H   0  0  0  0  0  0
  -30.3427  -16.8611   18.8427 H   0  0  0  0  0  0
  -28.8423  -15.9963   18.8297 H   0  0  0  0  0  0
  -31.4200  -18.3376   20.7468 H   0  0  0  0  0  0
  -30.7133  -18.9169   22.2258 H   0  0  0  0  0  0
  -27.7846  -17.7173   20.3134 H   0  0  0  0  0  0
  -28.3039  -18.3995   18.8151 H   0  0  0  0  0  0
  -26.9958  -22.2864   17.9821 H   0  0  0  0  0  0
  -30.9329  -20.3265   19.8766 H   0  0  0  0  0  0
  -29.7109  -20.0647   18.7364 H   0  0  0  0  0  0
  -27.7016  -25.1846   18.5519 H   0  0  0  0  0  0
  -29.3768  -25.5257   18.7028 H   0  0  0  0  0  0
  -28.7392  -19.3480   21.2318 H   0  0  0  0  0  0
  1 25  1  0  0  0
  1 30  2  0  0  0
  1 85  1  0  0  0
  2  3  1  0  0  0
  2 25  1  0  0  0
  2 87  1  0  0  0
  2 88  1  0  0  0
  3  4  1  0  0  0
  3 89  1  0  0  0
  3 90  1  0  0  0
  4  5  1  0  0  0
  4 91  1  0  0  0
  4 92  1  0  0  0
  5  6  1  0  0  0
  5 26  1  0  0  0
  5 93  1  0  0  0
  6 25  1  0  0  0
  6 94  1  0  0  0
  6 95  1  0  0  0
  7  8  2  0  0  0
  7 26  1  0  0  0
  7 29  1  0  0  0
  8  9  1  0  0  0
  8 22  1  0  0  0
  9 10  1  0  0  0
  9 27  2  0  0  0
 10 11  2  0  0  0
 10 15  1  0  0  0
 11 12  1  0  0  0
 11 96  1  0  0  0
 12 13  2  0  0  0
 12 97  1  0  0  0
 13 14  1  0  0  0
 13 31  1  0  0  0
 14 15  2  0  0  0
 14 98  1  0  0  0
 15 99  1  0  0  0
 16 17  2  0  0  0
 16 21  1  0  0  0
 16 31  1  0  0  0
 17 18  1  0  0  0
 17100  1  0  0  0
 18 19  2  0  0  0
 18101  1  0  0  0
 19 20  1  0  0  0
 19 24  1  0  0  0
 20 21  2  0  0  0
 20102  1  0  0  0
 21 23  1  0  0  0
 22 28  1  0  0  0
 22 32  2  0  0  0
 26 27  1  0  0  0
 28103  1  0  0  0
 28104  1  0  0  0
 29105  1  0  0  0
 29106  1  0  0  0
 33 34  1  0  0  0
 33 66  1  0  0  0
 33 70  2  0  0  0
 34 36  1  0  0  0
 34 59  1  0  0  0
 34107  1  0  0  0
 35 44  2  0  0  0
 35 45  1  0  0  0
 35 68  1  0  0  0
 36 56  1  0  0  0
 36108  1  0  0  0
 37 39  1  0  0  0
 37 47  1  0  0  0
 37 66  1  0  0  0
 37109  1  0  0  0
 38 43  2  0  0  0
 38 46  1  0  0  0
 38 47  1  0  0  0
 39 64  1  0  0  0
 39 67  2  0  0  0
 40 52  1  0  0  0
 40 53  2  0  0  0
 40 58  1  0  0  0
 41110  1  0  0  0
 41111  1  0  0  0
 41112  1  0  0  0
 41 48  1  0  0  0
 42 43  1  0  0  0
 42 66  1  0  0  0
 42113  1  0  0  0
 42114  1  0  0  0
 43 44  1  0  0  0
 44115  1  0  0  0
 45 46  2  0  0  0
 45116  1  0  0  0
 46117  1  0  0  0
 47118  1  0  0  0
 47119  1  0  0  0
 48 56  1  0  0  0
 48 65  1  0  0  0
 48120  1  0  0  0
 49 50  1  0  0  0
 49 53  1  0  0  0
 49 64  1  0  0  0
 49121  1  0  0  0
 50 51  1  0  0  0
 50122  1  0  0  0
 50123  1  0  0  0
 51 52  1  0  0  0
 51124  1  0  0  0
 51125  1  0  0  0
 52126  1  0  0  0
 52127  1  0  0  0
 53 54  1  0  0  0
 54 55  2  0  0  0
 54128  1  0  0  0
 55 57  1  0  0  0
 55129  1  0  0  0
 56 69  2  0  0  0
 57 58  2  0  0  0
 57130  1  0  0  0
 58131  1  0  0  0
 59 60  1  0  0  0
 59 61  1  0  0  0
 59 62  1  0  0  0
 60132  1  0  0  0
 60133  1  0  0  0
 60134  1  0  0  0
 61135  1  0  0  0
 61136  1  0  0  0
 61137  1  0  0  0
 62138  1  0  0  0
 62139  1  0  0  0
 62140  1  0  0  0
 63 65  1  0  0  0
 63141  1  0  0  0
 63142  1  0  0  0
 63143  1  0  0  0
 64144  1  0  0  0
 65145  1  0  0  0
 68 81  1  0  0  0
 71 72  2  0  0  0
 71 84  1  0  0  0
 71 79  1  0  0  0
 72 80  1  0  0  0
 72 82  1  0  0  0
 73 74  1  0  0  0
 73 79  1  0  0  0
 73146  1  0  0  0
 73147  1  0  0  0
 74 79  1  0  0  0
 74148  1  0  0  0
 74149  1  0  0  0
 75 77  1  0  0  0
 75 85  1  0  0  0
 75150  1  0  0  0
 75151  1  0  0  0
 76 78  1  0  0  0
 76 85  1  0  0  0
 76152  1  0  0  0
 76153  1  0  0  0
 77 86  1  0  0  0
 77154  1  0  0  0
 77155  1  0  0  0
 78 86  1  0  0  0
 78156  1  0  0  0
 78157  1  0  0  0
 79158  1  0  0  0
 80159  1  0  0  0
 80160  1  0  0  0
 80 86  1  0  0  0
 81 84  1  0  0  0
 81161  1  0  0  0
 81162  1  0  0  0
 82 83  2  0  0  0
 83 84  1  0  0  0
 86163  1  0  0  0
M  CHG  1  86   1
M  ISO  4   1 100  68 101  81 101  85 100
M  END
> <chiral flag>
0

> <version>
0

> <s_m_source_file>
/data/baiqing/PycharmProjects/Reinvent-master-3.2/result/LINK_invent/BTK/process_docking_weight1_custom_sum_contain_oxygen_bond_distance_aromatic_linkinvent_7_9_3/rearranged_h_0198.sdf

> <i_m_source_file_index>
9

> <r_mmod_Potential_Energy-OPLS-2005>
228.243835449219

> <r_mmod_Stretch_Energy-OPLS-2005>
99.5126724243164

> <r_mmod_Bend_Energy-OPLS-2005>
178.752944946289

> <r_mmod_Torsional_Energy-OPLS-2005>
446.563690185547

> <r_mmod_Improper_Torsional_Energy-OPLS-2005>
11.7058238983154

> <r_mmod_Van_der_Waal_Energy-OPLS-2005>
126.085845947266

> <r_mmod_Electrostatic_Energy-OPLS-2005>
-248.712371826172

> <r_mmod_Solvation_Energy-OPLS-2005>
-453.834289550781

> <b_mmod_Minimization_Converged-OPLS-2005>
0

> <r_mmod_RMS_Derivative-OPLS-2005>
1.32453441619873

$$$$
9
                    3D
 Structure written by MMmdl.
159168  0  0  1  0            999 V2000
  -30.6886  -14.5571   20.5185 C   0  0  0  0  0  0
  -30.4231  -12.3479   19.4416 C   0  0  0  0  0  0
  -29.4993  -12.5029   18.2162 C   0  0  0  0  0  0
  -28.0223  -12.3527   18.6292 C   0  0  0  0  0  0
  -27.6550  -13.2173   19.8661 C   0  0  2  0  0  0
  -28.7011  -13.0633   20.9939 C   0  0  0  0  0  0
  -25.2566  -13.8178   20.5696 C   0  0  0  0  0  0
  -24.1829  -13.0439   20.9192 C   0  0  0  0  0  0
  -24.6395  -11.6906   20.8734 C   0  0  0  0  0  0
  -23.9054  -10.4292   21.0397 C   0  0  0  0  0  0
  -24.3607   -9.4210   21.9176 C   0  0  0  0  0  0
  -23.6290   -8.2242   22.0749 C   0  0  0  0  0  0
  -22.4271   -8.0275   21.3543 C   0  0  0  0  0  0
  -21.9897   -9.0244   20.4643 C   0  0  0  0  0  0
  -22.7222  -10.2129   20.3048 C   0  0  0  0  0  0
  -21.6853   -6.0726   22.5275 C   0  0  0  0  0  0
  -21.4011   -6.5631   23.8209 C   0  0  0  0  0  0
  -21.3664   -5.6787   24.9173 C   0  0  0  0  0  0
  -21.6050   -4.3049   24.7226 C   0  0  0  0  0  0
  -21.8823   -3.8136   23.4343 C   0  0  0  0  0  0
  -21.9197   -4.6951   22.3397 C   0  0  0  0  0  0
  -22.7853  -13.5229   21.1852 C   0  0  0  0  0  0
  -22.1667   -4.2138   21.0975 F   0  0  0  0  0  0
  -21.5633   -3.4529   25.7737 F   0  0  0  0  0  0
  -30.0226  -13.3691   20.4265 N   0  0  0  0  0  0
  -26.3002  -12.9361   20.3340 N   0  0  0  0  0  0
  -25.9324  -11.6512   20.5758 N   0  0  0  0  0  0
  -22.0493  -12.8225   22.0403 N   0  0  0  0  0  0
  -25.4272  -15.1901   20.4124 N   0  0  0  0  0  0
  -31.8436  -14.6928   20.1089 O   0  0  0  0  0  0
  -21.6645   -6.8862   21.4234 O   0  0  0  0  0  0
  -22.3543  -14.5542   20.6704 O   0  0  0  0  0  0
  -24.6230  -31.8639   23.2072 C   0  0  0  0  0  0
  -25.9101  -32.4790   23.8379 C   0  0  1  0  0  0
  -27.2224  -27.3626   20.1015 C   0  0  0  0  0  0
  -25.5940  -33.8593   24.2306 N   0  0  0  0  0  0
  -23.4130  -30.4901   21.5490 C   0  0  2  0  0  0
  -24.8576  -28.9561   20.1092 C   0  0  0  0  0  0
  -22.7457  -29.4642   22.4955 C   0  0  0  0  0  0
  -18.0288  -28.1385   22.8485 C   0  0  0  0  0  0
  -24.1491  -36.7290   23.2632 C   0  0  0  0  0  0
  -25.9510  -30.8062   21.3744 C   0  0  0  0  0  0
  -26.0245  -29.4386   20.7149 C   0  0  0  0  0  0
  -27.2088  -28.6511   20.7073 C   0  0  0  0  0  0
  -26.0334  -26.9299   19.4657 C   0  0  0  0  0  0
  -24.8612  -27.7043   19.4787 C   0  0  0  0  0  0
  -23.6243  -29.8303   20.1619 C   0  0  0  0  0  0
  -25.4110  -36.3086   24.0333 C   0  0  1  0  0  0
  -20.5884  -28.3677   23.1303 C   0  0  2  0  0  0
  -20.6773  -26.9403   22.5427 C   0  0  0  0  0  0
  -19.5759  -26.6387   21.5221 C   0  0  0  0  0  0
  -18.1931  -26.7940   22.1608 C   0  0  0  0  0  0
  -19.1538  -28.8850   23.2892 C   0  0  0  0  0  0
  -18.9458  -30.1457   23.8905 C   0  0  0  0  0  0
  -17.6457  -30.6584   24.0575 C   0  0  0  0  0  0
  -25.9054  -34.9457   23.5113 C   0  0  0  0  0  0
  -16.5348  -29.9081   23.6334 C   0  0  0  0  0  0
  -16.7273  -28.6506   23.0340 C   0  0  0  0  0  0
  -26.4501  -31.6579   25.0730 C   0  0  0  0  0  0
  -25.3742  -31.3712   26.1460 C   0  0  0  0  0  0
  -27.0317  -30.2998   24.6156 C   0  0  0  0  0  0
  -27.6082  -32.4289   25.7485 C   0  0  0  0  0  0
  -27.5592  -37.1782   24.8450 C   0  0  0  0  0  0
  -21.4176  -29.3033   22.3693 N   0  0  0  0  0  0
  -26.4277  -37.3783   23.9432 N   0  0  0  0  0  0
  -24.6805  -31.0685   22.1008 N   0  0  0  0  0  0
  -23.4206  -28.8180   23.3014 O   0  0  0  0  0  0
  -28.3534  -26.5424   20.1536 O   0  0  0  0  0  0
  -26.5606  -34.8924   22.4670 O   0  0  0  0  0  0
  -23.5404  -32.1419   23.7427 O   0  0  0  0  0  0
  -29.2787  -20.7429   18.7664 C   0  0  0  0  0  0
  -29.2253  -22.2876   18.7867 C   0  0  0  0  0  0
  -29.5590  -21.6118   20.9635 C   0  0  0  0  0  0
  -29.6369  -18.1381   21.6006 C   0  0  0  0  0  0
  -30.0475  -17.9153   19.6342 C   0  0  0  0  0  0
  -30.4473  -17.0608   20.8513 C   0  0  2  0  0  0
  -29.2127  -20.2787   20.2316 C   0  0  2  0  0  0
  -28.1563  -25.1093   19.9128 C   0  0  0  0  0  0
  -29.2185  -24.0930   20.4777 C   0  0  2  0  0  0
  -28.9033  -22.6689   20.1622 N   0  0  0  0  0  0
  -29.9670  -15.6458   20.8960 N   0  0  0  0  0  0
  -30.0879  -19.0846   20.5483 N   0  3  1  0  0  0
  -29.2311  -24.2228   21.8053 F   0  0  0  0  0  0
  -31.4684  -12.4416   19.1413 H   0  0  0  0  0  0
  -30.3265  -11.3496   19.8708 H   0  0  0  0  0  0
  -29.7533  -11.7621   17.4570 H   0  0  0  0  0  0
  -29.6553  -13.4792   17.7554 H   0  0  0  0  0  0
  -27.8486  -11.2987   18.8483 H   0  0  0  0  0  0
  -27.3683  -12.5981   17.7917 H   0  0  0  0  0  0
  -27.6772  -14.2555   19.5353 H   0  0  0  0  0  0
  -28.6928  -12.0466   21.3890 H   0  0  0  0  0  0
  -28.4622  -13.7126   21.8377 H   0  0  0  0  0  0
  -25.2751   -9.5701   22.4745 H   0  0  0  0  0  0
  -24.0012   -7.4632   22.7464 H   0  0  0  0  0  0
  -21.0827   -8.8742   19.8950 H   0  0  0  0  0  0
  -22.3663  -10.9656   19.6155 H   0  0  0  0  0  0
  -21.1991   -7.6140   23.9704 H   0  0  0  0  0  0
  -21.1491   -6.0519   25.9079 H   0  0  0  0  0  0
  -22.0599   -2.7596   23.2842 H   0  0  0  0  0  0
  -22.4097  -11.9880   22.4790 H   0  0  0  0  0  0
  -21.1103  -13.1247   22.2593 H   0  0  0  0  0  0
  -24.6558  -15.8406   20.5154 H   0  0  0  0  0  0
  -26.2731  -15.6305   20.0745 H   0  0  0  0  0  0
  -26.7168  -32.5469   23.1130 H   0  0  0  0  0  0
  -25.0125  -33.9748   25.0475 H   0  0  0  0  0  0
  -22.7060  -31.3105   21.4107 H   0  0  0  0  0  0
  -23.3772  -35.9600   23.3251 H   0  0  0  0  0  0
  -24.3610  -36.8949   22.2058 H   0  0  0  0  0  0
  -23.7211  -37.6469   23.6675 H   0  0  0  0  0  0
  -26.0793  -31.5723   20.6087 H   0  0  0  0  0  0
  -26.8339  -30.8515   21.9998 H   0  0  0  0  0  0
  -28.1036  -29.0144   21.1940 H   0  0  0  0  0  0
  -25.9762  -25.9821   18.9525 H   0  0  0  0  0  0
  -23.9672  -27.3324   18.9964 H   0  0  0  0  0  0
  -23.7408  -30.6095   19.4077 H   0  0  0  0  0  0
  -22.7458  -29.2579   19.8579 H   0  0  0  0  0  0
  -25.1277  -36.1925   25.0819 H   0  0  0  0  0  0
  -20.9981  -28.3249   24.1422 H   0  0  0  0  0  0
  -20.5676  -26.2287   23.3622 H   0  0  0  0  0  0
  -21.6644  -26.7434   22.1222 H   0  0  0  0  0  0
  -19.6920  -25.6303   21.1239 H   0  0  0  0  0  0
  -19.6715  -27.3213   20.6767 H   0  0  0  0  0  0
  -17.4217  -26.6726   21.3991 H   0  0  0  0  0  0
  -18.0300  -26.0069   22.8982 H   0  0  0  0  0  0
  -19.7937  -30.7279   24.2269 H   0  0  0  0  0  0
  -17.5011  -31.6268   24.5173 H   0  0  0  0  0  0
  -15.5348  -30.2982   23.7670 H   0  0  0  0  0  0
  -15.8677  -28.0838   22.7024 H   0  0  0  0  0  0
  -24.5999  -30.6941   25.7833 H   0  0  0  0  0  0
  -24.8824  -32.2856   26.4786 H   0  0  0  0  0  0
  -25.8095  -30.9021   27.0292 H   0  0  0  0  0  0
  -26.2869  -29.6762   24.1195 H   0  0  0  0  0  0
  -27.4034  -29.7236   25.4642 H   0  0  0  0  0  0
  -27.8744  -30.4276   23.9354 H   0  0  0  0  0  0
  -27.2727  -33.3605   26.2047 H   0  0  0  0  0  0
  -28.3906  -32.6801   25.0312 H   0  0  0  0  0  0
  -28.0736  -31.8407   26.5404 H   0  0  0  0  0  0
  -28.2549  -38.0137   24.7567 H   0  0  0  0  0  0
  -28.1141  -36.2671   24.6159 H   0  0  0  0  0  0
  -27.2336  -37.1288   25.8854 H   0  0  0  0  0  0
  -20.9349  -29.8758   21.6907 H   0  0  0  0  0  0
  -26.0154  -38.2842   24.1490 H   0  0  0  0  0  0
  -30.1992  -20.4228   18.2762 H   0  0  0  0  0  0
  -28.4491  -20.3259   18.1931 H   0  0  0  0  0  0
  -28.5002  -22.6859   18.0750 H   0  0  0  0  0  0
  -30.2054  -22.6829   18.5107 H   0  0  0  0  0  0
  -30.6380  -21.7793   20.9727 H   0  0  0  0  0  0
  -29.2130  -21.6126   21.9978 H   0  0  0  0  0  0
  -30.0083  -18.3816   22.5963 H   0  0  0  0  0  0
  -28.5573  -17.9660   21.6081 H   0  0  0  0  0  0
  -29.0516  -17.7020   19.2372 H   0  0  0  0  0  0
  -30.7946  -17.9493   18.8406 H   0  0  0  0  0  0
  -31.5155  -17.1467   21.0750 H   0  0  0  0  0  0
  -28.1754  -20.0231   20.4539 H   0  0  0  0  0  0
  -27.2035  -24.7958   20.3415 H   0  0  0  0  0  0
  -28.0773  -24.9714   18.8337 H   0  0  0  0  0  0
  -30.2213  -24.3568   20.1349 H   0  0  0  0  0  0
  -29.0166  -15.4760   21.1907 H   0  0  0  0  0  0
  -31.0471  -19.3574   20.7019 H   0  0  0  0  0  0
  1 25  1  0  0  0
  1 30  2  0  0  0
  1 81  1  0  0  0
  2  3  1  0  0  0
  2 25  1  0  0  0
  2 84  1  0  0  0
  2 85  1  0  0  0
  3  4  1  0  0  0
  3 86  1  0  0  0
  3 87  1  0  0  0
  4  5  1  0  0  0
  4 88  1  0  0  0
  4 89  1  0  0  0
  5  6  1  0  0  0
  5 26  1  0  0  0
  5 90  1  0  0  0
  6 25  1  0  0  0
  6 91  1  0  0  0
  6 92  1  0  0  0
  7  8  2  0  0  0
  7 26  1  0  0  0
  7 29  1  0  0  0
  8  9  1  0  0  0
  8 22  1  0  0  0
  9 10  1  0  0  0
  9 27  2  0  0  0
 10 11  2  0  0  0
 10 15  1  0  0  0
 11 12  1  0  0  0
 11 93  1  0  0  0
 12 13  2  0  0  0
 12 94  1  0  0  0
 13 14  1  0  0  0
 13 31  1  0  0  0
 14 15  2  0  0  0
 14 95  1  0  0  0
 15 96  1  0  0  0
 16 17  2  0  0  0
 16 21  1  0  0  0
 16 31  1  0  0  0
 17 18  1  0  0  0
 17 97  1  0  0  0
 18 19  2  0  0  0
 18 98  1  0  0  0
 19 20  1  0  0  0
 19 24  1  0  0  0
 20 21  2  0  0  0
 20 99  1  0  0  0
 21 23  1  0  0  0
 22 28  1  0  0  0
 22 32  2  0  0  0
 26 27  1  0  0  0
 28100  1  0  0  0
 28101  1  0  0  0
 29102  1  0  0  0
 29103  1  0  0  0
 33 34  1  0  0  0
 33 66  1  0  0  0
 33 70  2  0  0  0
 34 36  1  0  0  0
 34 59  1  0  0  0
 34104  1  0  0  0
 35 44  2  0  0  0
 35 45  1  0  0  0
 35 68  1  0  0  0
 36 56  1  0  0  0
 36105  1  0  0  0
 37 39  1  0  0  0
 37 47  1  0  0  0
 37 66  1  0  0  0
 37106  1  0  0  0
 38 43  2  0  0  0
 38 46  1  0  0  0
 38 47  1  0  0  0
 39 64  1  0  0  0
 39 67  2  0  0  0
 40 52  1  0  0  0
 40 53  2  0  0  0
 40 58  1  0  0  0
 41107  1  0  0  0
 41108  1  0  0  0
 41109  1  0  0  0
 41 48  1  0  0  0
 42 43  1  0  0  0
 42 66  1  0  0  0
 42110  1  0  0  0
 42111  1  0  0  0
 43 44  1  0  0  0
 44112  1  0  0  0
 45 46  2  0  0  0
 45113  1  0  0  0
 46114  1  0  0  0
 47115  1  0  0  0
 47116  1  0  0  0
 48 56  1  0  0  0
 48 65  1  0  0  0
 48117  1  0  0  0
 49 50  1  0  0  0
 49 53  1  0  0  0
 49 64  1  0  0  0
 49118  1  0  0  0
 50 51  1  0  0  0
 50119  1  0  0  0
 50120  1  0  0  0
 51 52  1  0  0  0
 51121  1  0  0  0
 51122  1  0  0  0
 52123  1  0  0  0
 52124  1  0  0  0
 53 54  1  0  0  0
 54 55  2  0  0  0
 54125  1  0  0  0
 55 57  1  0  0  0
 55126  1  0  0  0
 56 69  2  0  0  0
 57 58  2  0  0  0
 57127  1  0  0  0
 58128  1  0  0  0
 59 60  1  0  0  0
 59 61  1  0  0  0
 59 62  1  0  0  0
 60129  1  0  0  0
 60130  1  0  0  0
 60131  1  0  0  0
 61132  1  0  0  0
 61133  1  0  0  0
 61134  1  0  0  0
 62135  1  0  0  0
 62136  1  0  0  0
 62137  1  0  0  0
 63 65  1  0  0  0
 63138  1  0  0  0
 63139  1  0  0  0
 63140  1  0  0  0
 64141  1  0  0  0
 65142  1  0  0  0
 68 78  1  0  0  0
 71 72  1  0  0  0
 71143  1  0  0  0
 71144  1  0  0  0
 71 77  1  0  0  0
 72 80  1  0  0  0
 72145  1  0  0  0
 72146  1  0  0  0
 73 77  1  0  0  0
 73 80  1  0  0  0
 73147  1  0  0  0
 73148  1  0  0  0
 74 76  1  0  0  0
 74149  1  0  0  0
 74150  1  0  0  0
 74 82  1  0  0  0
 75 76  1  0  0  0
 75 82  1  0  0  0
 75151  1  0  0  0
 75152  1  0  0  0
 76 81  1  0  0  0
 76153  1  0  0  0
 77 82  1  0  0  0
 77154  1  0  0  0
 78 79  1  0  0  0
 78155  1  0  0  0
 78156  1  0  0  0
 79 80  1  0  0  0
 79 83  1  0  0  0
 79157  1  0  0  0
 81158  1  0  0  0
 82159  1  0  0  0
M  CHG  1  82   1
M  ISO  4   1 100  68 101  78 101  81 100
M  END
> <chiral flag>
0

> <version>
0

> <s_m_source_file>
/data/baiqing/PycharmProjects/Reinvent-master-3.2/result/LINK_invent/BTK/process_docking_weight1_custom_sum_contain_oxygen_bond_distance_aromatic_linkinvent_7_9_3/rearranged_h_0198.sdf

> <i_m_source_file_index>
10

> <r_mmod_Potential_Energy-OPLS-2005>
-30.7338905334473

> <r_mmod_Stretch_Energy-OPLS-2005>
58.2552833557129

> <r_mmod_Bend_Energy-OPLS-2005>
166.653671264648

> <r_mmod_Torsional_Energy-OPLS-2005>
291.831481933594

> <r_mmod_Improper_Torsional_Energy-OPLS-2005>
4.27306985855103

> <r_mmod_Van_der_Waal_Energy-OPLS-2005>
135.361373901367

> <r_mmod_Electrostatic_Energy-OPLS-2005>
-234.569458007812

> <r_mmod_Solvation_Energy-OPLS-2005>
-483.238861083984

> <b_mmod_Minimization_Converged-OPLS-2005>
0

> <r_mmod_RMS_Derivative-OPLS-2005>
1.29594898223877

$$$$
10
                    3D
 Structure written by MMmdl.
169178  0  0  1  0            999 V2000
  -30.7056  -14.4867   20.3990 C   0  0  0  0  0  0
  -30.4161  -12.2621   19.4286 C   0  0  0  0  0  0
  -29.4768  -12.3679   18.2055 C   0  0  0  0  0  0
  -27.9960  -12.3079   18.6287 C   0  0  0  0  0  0
  -27.6481  -13.1979   19.8539 C   0  0  2  0  0  0
  -28.7082  -13.0708   20.9721 C   0  0  0  0  0  0
  -25.2564  -13.8150   20.5729 C   0  0  0  0  0  0
  -24.1805  -13.0448   20.9222 C   0  0  0  0  0  0
  -24.6354  -11.6908   20.8804 C   0  0  0  0  0  0
  -23.9032  -10.4300   21.0449 C   0  0  0  0  0  0
  -24.3599   -9.4208   21.9213 C   0  0  0  0  0  0
  -23.6289   -8.2235   22.0760 C   0  0  0  0  0  0
  -22.4271   -8.0274   21.3546 C   0  0  0  0  0  0
  -21.9906   -9.0247   20.4654 C   0  0  0  0  0  0
  -22.7218  -10.2139   20.3087 C   0  0  0  0  0  0
  -21.6845   -6.0743   22.5284 C   0  0  0  0  0  0
  -21.4009   -6.5648   23.8218 C   0  0  0  0  0  0
  -21.3658   -5.6802   24.9182 C   0  0  0  0  0  0
  -21.6038   -4.3064   24.7232 C   0  0  0  0  0  0
  -21.8814   -3.8158   23.4353 C   0  0  0  0  0  0
  -21.9185   -4.6974   22.3410 C   0  0  0  0  0  0
  -22.7828  -13.5247   21.1871 C   0  0  0  0  0  0
  -22.1656   -4.2162   21.0989 F   0  0  0  0  0  0
  -21.5637   -3.4546   25.7744 F   0  0  0  0  0  0
  -30.0298  -13.3101   20.3773 N   0  0  0  0  0  0
  -26.2977  -12.9295   20.3390 N   0  0  0  0  0  0
  -25.9280  -11.6476   20.5863 N   0  0  0  0  0  0
  -22.0469  -12.8238   22.0424 N   0  0  0  0  0  0
  -25.4333  -15.1870   20.4126 N   0  0  0  0  0  0
  -31.9287  -14.5776   20.2829 O   0  0  0  0  0  0
  -21.6631   -6.8878   21.4241 O   0  0  0  0  0  0
  -22.3513  -14.5545   20.6702 O   0  0  0  0  0  0
  -24.6092  -31.8714   23.2139 C   0  0  0  0  0  0
  -25.9012  -32.4844   23.8414 C   0  0  1  0  0  0
  -27.2414  -27.4802   20.0964 C   0  0  0  0  0  0
  -25.5889  -33.8639   24.2351 N   0  0  0  0  0  0
  -23.3937  -30.4937   21.5549 C   0  0  2  0  0  0
  -24.8400  -28.9603   20.1186 C   0  0  0  0  0  0
  -22.7375  -29.4678   22.5051 C   0  0  0  0  0  0
  -18.0258  -28.1373   22.8497 C   0  0  0  0  0  0
  -24.1486  -36.7323   23.2641 C   0  0  0  0  0  0
  -25.9157  -30.8516   21.3572 C   0  0  0  0  0  0
  -25.9955  -29.4877   20.7081 C   0  0  0  0  0  0
  -27.1981  -28.7555   20.6908 C   0  0  0  0  0  0
  -26.0709  -26.9523   19.5040 C   0  0  0  0  0  0
  -24.8703  -27.6901   19.5140 C   0  0  0  0  0  0
  -23.5982  -29.8209   20.1699 C   0  0  0  0  0  0
  -25.4107  -36.3135   24.0346 C   0  0  1  0  0  0
  -20.5839  -28.3643   23.1349 C   0  0  2  0  0  0
  -20.6754  -26.9394   22.5425 C   0  0  0  0  0  0
  -19.5744  -26.6383   21.5215 C   0  0  0  0  0  0
  -18.1913  -26.7918   22.1617 C   0  0  0  0  0  0
  -19.1501  -28.8828   23.2918 C   0  0  0  0  0  0
  -18.9438  -30.1436   23.8927 C   0  0  0  0  0  0
  -17.6444  -30.6588   24.0564 C   0  0  0  0  0  0
  -25.9028  -34.9491   23.5149 C   0  0  0  0  0  0
  -16.5336  -29.9092   23.6329 C   0  0  0  0  0  0
  -16.7247  -28.6503   23.0356 C   0  0  0  0  0  0
  -26.4454  -31.6610   25.0722 C   0  0  0  0  0  0
  -25.3736  -31.3693   26.1481 C   0  0  0  0  0  0
  -27.0279  -30.3070   24.6052 C   0  0  0  0  0  0
  -27.6047  -32.4303   25.7470 C   0  0  0  0  0  0
  -27.5584  -37.1818   24.8467 C   0  0  0  0  0  0
  -21.4110  -29.3015   22.3770 N   0  0  0  0  0  0
  -26.4301  -37.3810   23.9411 N   0  0  0  0  0  0
  -24.6577  -31.0854   22.1015 N   0  0  0  0  0  0
  -23.4167  -28.8233   23.3086 O   0  0  0  0  0  0
  -28.4416  -26.8148   20.0926 O   0  0  0  0  0  0
  -26.5582  -34.8932   22.4705 O   0  0  0  0  0  0
  -23.5303  -32.1438   23.7580 O   0  0  0  0  0  0
  -29.5208  -24.9541   21.2753 C   0  0  0  0  0  0
  -28.8532  -20.6539   18.0776 C   0  0  0  0  0  0
  -27.9766  -20.4783   19.3249 C   0  0  0  0  0  0
  -30.1662  -17.2208   18.2682 C   0  0  0  0  0  0
  -29.9040  -15.7521   18.5372 C   0  0  0  0  0  0
  -30.0740  -16.8786   20.6118 C   0  0  0  0  0  0
  -30.2245  -20.0964   18.4881 C   0  0  0  0  0  0
  -29.6243  -17.8756   19.5240 C   0  0  1  0  0  0
  -28.9651  -20.0928   20.4537 C   0  0  2  0  0  0
  -30.3210  -26.0704   21.9174 C   0  0  0  0  0  0
  -28.4127  -25.4094   20.3124 C   0  0  0  0  0  0
  -29.6094  -21.2944   21.2246 C   0  0  0  0  0  0
  -29.0208  -22.6869   20.9203 C   0  0  0  0  0  0
  -29.7896  -23.7365   21.5619 N   0  0  0  0  0  0
  -29.9547  -15.5395   19.9991 N   0  0  0  0  0  0
  -30.0067  -19.3114   19.7363 N   0  3  2  0  0  0
  -31.4576  -12.3495   19.1119 H   0  0  0  0  0  0
  -30.3237  -11.2838   19.9021 H   0  0  0  0  0  0
  -29.6844  -11.5492   17.5149 H   0  0  0  0  0  0
  -29.6637  -13.2704   17.6338 H   0  0  0  0  0  0
  -27.7785  -11.2649   18.8628 H   0  0  0  0  0  0
  -27.3533  -12.5636   17.7858 H   0  0  0  0  0  0
  -27.6536  -14.2270   19.5044 H   0  0  0  0  0  0
  -28.6776  -12.0795   21.4263 H   0  0  0  0  0  0
  -28.5062  -13.7854   21.7720 H   0  0  0  0  0  0
  -25.2744   -9.5678   22.4789 H   0  0  0  0  0  0
  -24.0009   -7.4609   22.7459 H   0  0  0  0  0  0
  -21.0850   -8.8751   19.8940 H   0  0  0  0  0  0
  -22.3676  -10.9681   19.6205 H   0  0  0  0  0  0
  -21.1992   -7.6155   23.9725 H   0  0  0  0  0  0
  -21.1492   -6.0540   25.9086 H   0  0  0  0  0  0
  -22.0594   -2.7622   23.2851 H   0  0  0  0  0  0
  -22.4083  -11.9889   22.4797 H   0  0  0  0  0  0
  -21.1088  -13.1263   22.2636 H   0  0  0  0  0  0
  -24.6754  -15.8515   20.5226 H   0  0  0  0  0  0
  -26.2978  -15.6176   20.1120 H   0  0  0  0  0  0
  -26.7086  -32.5583   23.1193 H   0  0  0  0  0  0
  -25.0077  -33.9814   25.0518 H   0  0  0  0  0  0
  -22.6804  -31.3093   21.4188 H   0  0  0  0  0  0
  -23.3753  -35.9653   23.3319 H   0  0  0  0  0  0
  -24.3581  -36.8912   22.2054 H   0  0  0  0  0  0
  -23.7223  -37.6528   23.6630 H   0  0  0  0  0  0
  -26.0155  -31.6182   20.5877 H   0  0  0  0  0  0
  -26.8069  -30.9101   21.9700 H   0  0  0  0  0  0
  -28.0937  -29.1631   21.1386 H   0  0  0  0  0  0
  -26.0841  -25.9846   19.0228 H   0  0  0  0  0  0
  -23.9828  -27.2819   19.0507 H   0  0  0  0  0  0
  -23.6964  -30.5930   19.4055 H   0  0  0  0  0  0
  -22.7232  -29.2341   19.8831 H   0  0  0  0  0  0
  -25.1283  -36.2015   25.0838 H   0  0  0  0  0  0
  -20.9910  -28.3196   24.1480 H   0  0  0  0  0  0
  -20.5677  -26.2250   23.3597 H   0  0  0  0  0  0
  -21.6630  -26.7467   22.1220 H   0  0  0  0  0  0
  -19.6918  -25.6298   21.1236 H   0  0  0  0  0  0
  -19.6695  -27.3209   20.6756 H   0  0  0  0  0  0
  -17.4191  -26.6670   21.4012 H   0  0  0  0  0  0
  -18.0313  -26.0052   22.9004 H   0  0  0  0  0  0
  -19.7923  -30.7229   24.2318 H   0  0  0  0  0  0
  -17.5013  -31.6279   24.5148 H   0  0  0  0  0  0
  -15.5340  -30.3010   23.7647 H   0  0  0  0  0  0
  -15.8639  -28.0837   22.7069 H   0  0  0  0  0  0
  -24.5907  -30.7044   25.7813 H   0  0  0  0  0  0
  -24.8933  -32.2844   26.4956 H   0  0  0  0  0  0
  -25.8104  -30.8841   27.0221 H   0  0  0  0  0  0
  -26.2810  -29.6840   24.1122 H   0  0  0  0  0  0
  -27.4093  -29.7293   25.4481 H   0  0  0  0  0  0
  -27.8618  -30.4418   23.9159 H   0  0  0  0  0  0
  -27.2690  -33.3588   26.2099 H   0  0  0  0  0  0
  -28.3827  -32.6878   25.0268 H   0  0  0  0  0  0
  -28.0747  -31.8388   26.5342 H   0  0  0  0  0  0
  -28.2616  -38.0105   24.7520 H   0  0  0  0  0  0
  -28.1067  -36.2638   24.6288 H   0  0  0  0  0  0
  -27.2305  -37.1470   25.8871 H   0  0  0  0  0  0
  -20.9265  -29.8712   21.6977 H   0  0  0  0  0  0
  -26.0205  -38.2895   24.1404 H   0  0  0  0  0  0
  -28.9343  -21.6982   17.7737 H   0  0  0  0  0  0
  -28.4396  -20.1012   17.2329 H   0  0  0  0  0  0
  -27.2857  -19.6528   19.1517 H   0  0  0  0  0  0
  -27.3355  -21.3337   19.5322 H   0  0  0  0  0  0
  -29.6758  -17.5589   17.3544 H   0  0  0  0  0  0
  -31.2409  -17.3871   18.1710 H   0  0  0  0  0  0
  -30.6392  -15.1668   17.9809 H   0  0  0  0  0  0
  -28.9181  -15.4811   18.1612 H   0  0  0  0  0  0
  -29.4551  -16.9521   21.5070 H   0  0  0  0  0  0
  -31.1097  -17.0650   20.9055 H   0  0  0  0  0  0
  -30.8778  -20.9349   18.7326 H   0  0  0  0  0  0
  -30.7353  -19.5849   17.6747 H   0  0  0  0  0  0
  -28.5377  -17.8084   19.4547 H   0  0  0  0  0  0
  -28.4574  -19.4643   21.1878 H   0  0  0  0  0  0
  -29.6619  -26.7375   22.4728 H   0  0  0  0  0  0
  -30.8422  -26.6496   21.1548 H   0  0  0  0  0  0
  -31.0639  -25.6743   22.6089 H   0  0  0  0  0  0
  -27.4584  -25.0817   20.7272 H   0  0  0  0  0  0
  -28.5352  -24.9321   19.3401 H   0  0  0  0  0  0
  -30.6836  -21.3312   21.0375 H   0  0  0  0  0  0
  -29.5245  -21.1053   22.2948 H   0  0  0  0  0  0
  -27.9784  -22.7224   21.2456 H   0  0  0  0  0  0
  -29.0406  -22.8363   19.8403 H   0  0  0  0  0  0
  -30.8672  -19.3149   20.2646 H   0  0  0  0  0  0
  1 25  1  0  0  0
  1 30  2  0  0  0
  1 85  1  0  0  0
  2  3  1  0  0  0
  2 25  1  0  0  0
  2 87  1  0  0  0
  2 88  1  0  0  0
  3  4  1  0  0  0
  3 89  1  0  0  0
  3 90  1  0  0  0
  4  5  1  0  0  0
  4 91  1  0  0  0
  4 92  1  0  0  0
  5  6  1  0  0  0
  5 26  1  0  0  0
  5 93  1  0  0  0
  6 25  1  0  0  0
  6 94  1  0  0  0
  6 95  1  0  0  0
  7  8  2  0  0  0
  7 26  1  0  0  0
  7 29  1  0  0  0
  8  9  1  0  0  0
  8 22  1  0  0  0
  9 10  1  0  0  0
  9 27  2  0  0  0
 10 11  2  0  0  0
 10 15  1  0  0  0
 11 12  1  0  0  0
 11 96  1  0  0  0
 12 13  2  0  0  0
 12 97  1  0  0  0
 13 14  1  0  0  0
 13 31  1  0  0  0
 14 15  2  0  0  0
 14 98  1  0  0  0
 15 99  1  0  0  0
 16 17  2  0  0  0
 16 21  1  0  0  0
 16 31  1  0  0  0
 17 18  1  0  0  0
 17100  1  0  0  0
 18 19  2  0  0  0
 18101  1  0  0  0
 19 20  1  0  0  0
 19 24  1  0  0  0
 20 21  2  0  0  0
 20102  1  0  0  0
 21 23  1  0  0  0
 22 28  1  0  0  0
 22 32  2  0  0  0
 26 27  1  0  0  0
 28103  1  0  0  0
 28104  1  0  0  0
 29105  1  0  0  0
 29106  1  0  0  0
 33 34  1  0  0  0
 33 66  1  0  0  0
 33 70  2  0  0  0
 34 36  1  0  0  0
 34 59  1  0  0  0
 34107  1  0  0  0
 35 44  2  0  0  0
 35 45  1  0  0  0
 35 68  1  0  0  0
 36 56  1  0  0  0
 36108  1  0  0  0
 37 39  1  0  0  0
 37 47  1  0  0  0
 37 66  1  0  0  0
 37109  1  0  0  0
 38 43  2  0  0  0
 38 46  1  0  0  0
 38 47  1  0  0  0
 39 64  1  0  0  0
 39 67  2  0  0  0
 40 52  1  0  0  0
 40 53  2  0  0  0
 40 58  1  0  0  0
 41110  1  0  0  0
 41111  1  0  0  0
 41112  1  0  0  0
 41 48  1  0  0  0
 42 43  1  0  0  0
 42 66  1  0  0  0
 42113  1  0  0  0
 42114  1  0  0  0
 43 44  1  0  0  0
 44115  1  0  0  0
 45 46  2  0  0  0
 45116  1  0  0  0
 46117  1  0  0  0
 47118  1  0  0  0
 47119  1  0  0  0
 48 56  1  0  0  0
 48 65  1  0  0  0
 48120  1  0  0  0
 49 50  1  0  0  0
 49 53  1  0  0  0
 49 64  1  0  0  0
 49121  1  0  0  0
 50 51  1  0  0  0
 50122  1  0  0  0
 50123  1  0  0  0
 51 52  1  0  0  0
 51124  1  0  0  0
 51125  1  0  0  0
 52126  1  0  0  0
 52127  1  0  0  0
 53 54  1  0  0  0
 54 55  2  0  0  0
 54128  1  0  0  0
 55 57  1  0  0  0
 55129  1  0  0  0
 56 69  2  0  0  0
 57 58  2  0  0  0
 57130  1  0  0  0
 58131  1  0  0  0
 59 60  1  0  0  0
 59 61  1  0  0  0
 59 62  1  0  0  0
 60132  1  0  0  0
 60133  1  0  0  0
 60134  1  0  0  0
 61135  1  0  0  0
 61136  1  0  0  0
 61137  1  0  0  0
 62138  1  0  0  0
 62139  1  0  0  0
 62140  1  0  0  0
 63 65  1  0  0  0
 63141  1  0  0  0
 63142  1  0  0  0
 63143  1  0  0  0
 64144  1  0  0  0
 65145  1  0  0  0
 68 81  1  0  0  0
 71 80  1  0  0  0
 71 81  1  0  0  0
 71 84  2  0  0  0
 72 73  1  0  0  0
 72 77  1  0  0  0
 72146  1  0  0  0
 72147  1  0  0  0
 73 79  1  0  0  0
 73148  1  0  0  0
 73149  1  0  0  0
 74 75  1  0  0  0
 74150  1  0  0  0
 74151  1  0  0  0
 74 78  1  0  0  0
 75 85  1  0  0  0
 75152  1  0  0  0
 75153  1  0  0  0
 76 78  1  0  0  0
 76 85  1  0  0  0
 76154  1  0  0  0
 76155  1  0  0  0
 77156  1  0  0  0
 77157  1  0  0  0
 77 86  1  0  0  0
 78 86  1  0  0  0
 78158  1  0  0  0
 79 82  1  0  0  0
 79 86  1  0  0  0
 79159  1  0  0  0
 80160  1  0  0  0
 80161  1  0  0  0
 80162  1  0  0  0
 81163  1  0  0  0
 81164  1  0  0  0
 82 83  1  0  0  0
 82165  1  0  0  0
 82166  1  0  0  0
 83 84  1  0  0  0
 83167  1  0  0  0
 83168  1  0  0  0
 86169  1  0  0  0
M  CHG  1  86   1
M  ISO  4   1 100  68 101  81 101  85 100
M  END
> <chiral flag>
0

> <version>
0

> <s_m_source_file>
/data/baiqing/PycharmProjects/Reinvent-master-3.2/result/LINK_invent/BTK/process_docking_weight1_custom_sum_contain_oxygen_bond_distance_aromatic_linkinvent_7_9_3/rearranged_h_0198.sdf

> <i_m_source_file_index>
11

> <r_mmod_Potential_Energy-OPLS-2005>
266.055145263672

> <r_mmod_Stretch_Energy-OPLS-2005>
38.163932800293

> <r_mmod_Bend_Energy-OPLS-2005>
164.75764465332

> <r_mmod_Torsional_Energy-OPLS-2005>
450.51708984375

> <r_mmod_Improper_Torsional_Energy-OPLS-2005>
21.7094993591309

> <r_mmod_Van_der_Waal_Energy-OPLS-2005>
152.756912231445

> <r_mmod_Electrostatic_Energy-OPLS-2005>
-166.412109375

> <r_mmod_Solvation_Energy-OPLS-2005>
-426.851531982422

> <b_mmod_Minimization_Converged-OPLS-2005>
0

> <r_mmod_RMS_Derivative-OPLS-2005>
1.49269306659698

$$$$
11
                    3D
 Structure written by MMmdl.
156166  0  0  1  0            999 V2000
  -30.6134  -14.9860   20.4084 C   0  0  0  0  0  0
  -30.4165  -12.6262   19.4996 C   0  0  0  0  0  0
  -29.5095  -12.5263   18.2556 C   0  0  0  0  0  0
  -28.0500  -12.3067   18.6841 C   0  0  0  0  0  0
  -27.6175  -13.2635   19.8265 C   0  0  2  0  0  0
  -28.6614  -13.3675   20.9591 C   0  0  0  0  0  0
  -25.2422  -13.8251   20.5746 C   0  0  0  0  0  0
  -24.1753  -13.0453   20.9248 C   0  0  0  0  0  0
  -24.6391  -11.6944   20.8764 C   0  0  0  0  0  0
  -23.9084  -10.4303   21.0403 C   0  0  0  0  0  0
  -24.3632   -9.4213   21.9177 C   0  0  0  0  0  0
  -23.6306   -8.2248   22.0749 C   0  0  0  0  0  0
  -22.4288   -8.0284   21.3541 C   0  0  0  0  0  0
  -21.9926   -9.0256   20.4639 C   0  0  0  0  0  0
  -22.7256  -10.2136   20.3048 C   0  0  0  0  0  0
  -21.6857   -6.0737   22.5275 C   0  0  0  0  0  0
  -21.4013   -6.5640   23.8208 C   0  0  0  0  0  0
  -21.3659   -5.6792   24.9170 C   0  0  0  0  0  0
  -21.6045   -4.3055   24.7219 C   0  0  0  0  0  0
  -21.8820   -3.8145   23.4341 C   0  0  0  0  0  0
  -21.9197   -4.6965   22.3399 C   0  0  0  0  0  0
  -22.7771  -13.5209   21.1890 C   0  0  0  0  0  0
  -22.1664   -4.2148   21.0976 F   0  0  0  0  0  0
  -21.5630   -3.4540   25.7733 F   0  0  0  0  0  0
  -29.9238  -13.7713   20.3299 N   0  0  0  0  0  0
  -26.2844  -12.9510   20.3247 N   0  0  0  0  0  0
  -25.9327  -11.6624   20.5748 N   0  0  0  0  0  0
  -22.0427  -12.8185   22.0437 N   0  0  0  0  0  0
  -25.4113  -15.1978   20.4186 N   0  0  0  0  0  0
  -31.8282  -14.9125   20.1985 O   0  0  0  0  0  0
  -21.6650   -6.8879   21.4236 O   0  0  0  0  0  0
  -22.3449  -14.5510   20.6735 O   0  0  0  0  0  0
  -24.6493  -31.8412   23.1867 C   0  0  0  0  0  0
  -25.9250  -32.4675   23.8260 C   0  0  1  0  0  0
  -27.2032  -27.0887   20.1465 C   0  0  0  0  0  0
  -25.5989  -33.8483   24.2180 N   0  0  0  0  0  0
  -23.4538  -30.4632   21.5343 C   0  0  2  0  0  0
  -24.9005  -28.8903   20.1074 C   0  0  0  0  0  0
  -22.7600  -29.4541   22.4846 C   0  0  0  0  0  0
  -18.0309  -28.1407   22.8475 C   0  0  0  0  0  0
  -24.1486  -36.7228   23.2642 C   0  0  0  0  0  0
  -26.0154  -30.6988   21.3942 C   0  0  0  0  0  0
  -26.0825  -29.3076   20.7325 C   0  0  0  0  0  0
  -27.2342  -28.4237   20.7374 C   0  0  0  0  0  0
  -25.9948  -26.7986   19.4686 C   0  0  0  0  0  0
  -24.8731  -27.6507   19.4590 C   0  0  0  0  0  0
  -23.6811  -29.7983   20.1523 C   0  0  0  0  0  0
  -25.4121  -36.3012   24.0314 C   0  0  1  0  0  0
  -20.5927  -28.3735   23.1217 C   0  0  2  0  0  0
  -20.6792  -26.9435   22.5397 C   0  0  0  0  0  0
  -19.5764  -26.6386   21.5211 C   0  0  0  0  0  0
  -18.1944  -26.7945   22.1618 C   0  0  0  0  0  0
  -19.1568  -28.8890   23.2838 C   0  0  0  0  0  0
  -18.9487  -30.1484   23.8866 C   0  0  0  0  0  0
  -17.6483  -30.6600   24.0564 C   0  0  0  0  0  0
  -25.9084  -34.9394   23.5050 C   0  0  0  0  0  0
  -16.5369  -29.9092   23.6349 C   0  0  0  0  0  0
  -16.7292  -28.6512   23.0361 C   0  0  0  0  0  0
  -26.4553  -31.6559   25.0719 C   0  0  0  0  0  0
  -25.3730  -31.3761   26.1411 C   0  0  0  0  0  0
  -27.0423  -30.2945   24.6334 C   0  0  0  0  0  0
  -27.6081  -32.4328   25.7506 C   0  0  0  0  0  0
  -27.5567  -37.1772   24.8471 C   0  0  0  0  0  0
  -21.4285  -29.3055   22.3590 N   0  0  0  0  0  0
  -26.4273  -37.3738   23.9417 N   0  0  0  0  0  0
  -24.7266  -31.0230   22.0928 N   0  0  0  0  0  0
  -23.4228  -28.8078   23.2999 O   0  0  0  0  0  0
  -28.2095  -26.0380   20.2318 O   0  0  0  0  0  0
  -26.5662  -34.8903   22.4627 O   0  0  0  0  0  0
  -23.5598  -32.1309   23.7060 O   0  0  0  0  0  0
  -28.5545  -22.0445   19.1120 C   0  0  0  0  0  0
  -29.1917  -20.1421   20.4861 C   0  0  0  0  0  0
  -29.1958  -21.1549   21.5361 C   0  0  0  0  0  0
  -28.5509  -23.0580   20.1470 C   0  0  0  0  0  0
  -28.7102  -19.8748   23.7714 C   0  0  0  0  0  0
  -28.7914  -21.3323   24.1327 C   0  0  0  0  0  0
  -28.7690  -17.1160   20.5574 C   0  0  0  0  0  0
  -30.7241  -17.6280   20.0553 C   0  0  0  0  0  0
  -29.5693  -18.5080   20.6785 C   0  0  0  0  0  0
  -29.5763  -20.8061   22.9468 C   0  0  0  0  0  0
  -27.8005  -24.5441   19.9420 C   0  0  0  0  0  0
  -28.8604  -20.6819   19.2610 N   0  0  0  0  0  0
  -28.8886  -22.5208   21.3727 N   0  0  0  0  0  0
  -30.0509  -16.3145   20.4149 N   0  0  0  0  0  0
  -31.4519  -12.7516   19.1799 H   0  0  0  0  0  0
  -30.3976  -11.6968   20.0710 H   0  0  0  0  0  0
  -29.8389  -11.7121   17.6086 H   0  0  0  0  0  0
  -29.5889  -13.4408   17.6653 H   0  0  0  0  0  0
  -27.9627  -11.2724   19.0188 H   0  0  0  0  0  0
  -27.3817  -12.4064   17.8283 H   0  0  0  0  0  0
  -27.5588  -14.2500   19.3647 H   0  0  0  0  0  0
  -28.7658  -12.4227   21.4945 H   0  0  0  0  0  0
  -28.3547  -14.1151   21.6924 H   0  0  0  0  0  0
  -25.2774   -9.5692   22.4760 H   0  0  0  0  0  0
  -24.0012   -7.4639   22.7474 H   0  0  0  0  0  0
  -21.0856   -8.8773   19.8945 H   0  0  0  0  0  0
  -22.3709  -10.9675   19.6160 H   0  0  0  0  0  0
  -21.2001   -7.6149   23.9710 H   0  0  0  0  0  0
  -21.1477   -6.0521   25.9072 H   0  0  0  0  0  0
  -22.0600   -2.7608   23.2840 H   0  0  0  0  0  0
  -22.4063  -11.9852   22.4821 H   0  0  0  0  0  0
  -21.1031  -13.1173   22.2633 H   0  0  0  0  0  0
  -24.6472  -15.8549   20.5329 H   0  0  0  0  0  0
  -26.2647  -15.6321   20.0938 H   0  0  0  0  0  0
  -26.7314  -32.5263   23.0980 H   0  0  0  0  0  0
  -25.0146  -33.9594   25.0335 H   0  0  0  0  0  0
  -22.7588  -31.2914   21.3811 H   0  0  0  0  0  0
  -23.3766  -35.9543   23.3286 H   0  0  0  0  0  0
  -24.3572  -36.8880   22.2061 H   0  0  0  0  0  0
  -23.7218  -37.6406   23.6691 H   0  0  0  0  0  0
  -26.1797  -31.4513   20.6216 H   0  0  0  0  0  0
  -26.8833  -30.7459   22.0402 H   0  0  0  0  0  0
  -28.1295  -28.7362   21.2565 H   0  0  0  0  0  0
  -25.8575  -25.8614   18.9540 H   0  0  0  0  0  0
  -23.9740  -27.3280   18.9516 H   0  0  0  0  0  0
  -23.8230  -30.5760   19.4009 H   0  0  0  0  0  0
  -22.7935  -29.2468   19.8364 H   0  0  0  0  0  0
  -25.1307  -36.1830   25.0804 H   0  0  0  0  0  0
  -21.0013  -28.3324   24.1340 H   0  0  0  0  0  0
  -20.5686  -26.2352   23.3622 H   0  0  0  0  0  0
  -21.6656  -26.7437   22.1192 H   0  0  0  0  0  0
  -19.6924  -25.6291   21.1254 H   0  0  0  0  0  0
  -19.6696  -27.3186   20.6733 H   0  0  0  0  0  0
  -17.4213  -26.6697   21.4022 H   0  0  0  0  0  0
  -18.0338  -26.0094   22.9020 H   0  0  0  0  0  0
  -19.7963  -30.7312   24.2216 H   0  0  0  0  0  0
  -17.5036  -31.6278   24.5169 H   0  0  0  0  0  0
  -15.5370  -30.2983   23.7696 H   0  0  0  0  0  0
  -15.8692  -28.0824   22.7091 H   0  0  0  0  0  0
  -24.5916  -30.7103   25.7730 H   0  0  0  0  0  0
  -24.8916  -32.2947   26.4774 H   0  0  0  0  0  0
  -25.8007  -30.8973   27.0229 H   0  0  0  0  0  0
  -26.3052  -29.6658   24.1325 H   0  0  0  0  0  0
  -27.4003  -29.7258   25.4924 H   0  0  0  0  0  0
  -27.8978  -30.4171   23.9689 H   0  0  0  0  0  0
  -27.2690  -33.3682   26.1974 H   0  0  0  0  0  0
  -28.3952  -32.6800   25.0367 H   0  0  0  0  0  0
  -28.0680  -31.8517   26.5509 H   0  0  0  0  0  0
  -28.2572  -38.0079   24.7521 H   0  0  0  0  0  0
  -28.1066  -36.2605   24.6284 H   0  0  0  0  0  0
  -27.2288  -37.1409   25.8875 H   0  0  0  0  0  0
  -20.9506  -29.8773   21.6768 H   0  0  0  0  0  0
  -26.0128  -38.2795   24.1441 H   0  0  0  0  0  0
  -28.2264  -22.3191   18.1196 H   0  0  0  0  0  0
  -27.7779  -19.5224   23.3338 H   0  0  0  0  0  0
  -29.2114  -19.1736   24.4358 H   0  0  0  0  0  0
  -29.3461  -21.5866   25.0335 H   0  0  0  0  0  0
  -27.9156  -21.9474   23.9335 H   0  0  0  0  0  0
  -28.1430  -17.0726   19.6654 H   0  0  0  0  0  0
  -28.1797  -16.8813   21.4449 H   0  0  0  0  0  0
  -31.6904  -17.7887   20.5355 H   0  0  0  0  0  0
  -30.8193  -17.7714   18.9776 H   0  0  0  0  0  0
  -29.8444  -18.5199   21.7315 H   0  0  0  0  0  0
  -30.6562  -20.7141   23.0491 H   0  0  0  0  0  0
  -26.8477  -24.4027   20.4529 H   0  0  0  0  0  0
  -27.5633  -24.5382   18.8783 H   0  0  0  0  0  0
  1 25  1  0  0  0
  1 30  2  0  0  0
  1 84  1  0  0  0
  2  3  1  0  0  0
  2 25  1  0  0  0
  2 85  1  0  0  0
  2 86  1  0  0  0
  3  4  1  0  0  0
  3 87  1  0  0  0
  3 88  1  0  0  0
  4  5  1  0  0  0
  4 89  1  0  0  0
  4 90  1  0  0  0
  5  6  1  0  0  0
  5 26  1  0  0  0
  5 91  1  0  0  0
  6 25  1  0  0  0
  6 92  1  0  0  0
  6 93  1  0  0  0
  7  8  2  0  0  0
  7 26  1  0  0  0
  7 29  1  0  0  0
  8  9  1  0  0  0
  8 22  1  0  0  0
  9 10  1  0  0  0
  9 27  2  0  0  0
 10 11  2  0  0  0
 10 15  1  0  0  0
 11 12  1  0  0  0
 11 94  1  0  0  0
 12 13  2  0  0  0
 12 95  1  0  0  0
 13 14  1  0  0  0
 13 31  1  0  0  0
 14 15  2  0  0  0
 14 96  1  0  0  0
 15 97  1  0  0  0
 16 17  2  0  0  0
 16 21  1  0  0  0
 16 31  1  0  0  0
 17 18  1  0  0  0
 17 98  1  0  0  0
 18 19  2  0  0  0
 18 99  1  0  0  0
 19 20  1  0  0  0
 19 24  1  0  0  0
 20 21  2  0  0  0
 20100  1  0  0  0
 21 23  1  0  0  0
 22 28  1  0  0  0
 22 32  2  0  0  0
 26 27  1  0  0  0
 28101  1  0  0  0
 28102  1  0  0  0
 29103  1  0  0  0
 29104  1  0  0  0
 33 34  1  0  0  0
 33 66  1  0  0  0
 33 70  2  0  0  0
 34 36  1  0  0  0
 34 59  1  0  0  0
 34105  1  0  0  0
 35 44  2  0  0  0
 35 45  1  0  0  0
 35 68  1  0  0  0
 36 56  1  0  0  0
 36106  1  0  0  0
 37 39  1  0  0  0
 37 47  1  0  0  0
 37 66  1  0  0  0
 37107  1  0  0  0
 38 43  2  0  0  0
 38 46  1  0  0  0
 38 47  1  0  0  0
 39 64  1  0  0  0
 39 67  2  0  0  0
 40 52  1  0  0  0
 40 53  2  0  0  0
 40 58  1  0  0  0
 41108  1  0  0  0
 41109  1  0  0  0
 41110  1  0  0  0
 41 48  1  0  0  0
 42 43  1  0  0  0
 42 66  1  0  0  0
 42111  1  0  0  0
 42112  1  0  0  0
 43 44  1  0  0  0
 44113  1  0  0  0
 45 46  2  0  0  0
 45114  1  0  0  0
 46115  1  0  0  0
 47116  1  0  0  0
 47117  1  0  0  0
 48 56  1  0  0  0
 48 65  1  0  0  0
 48118  1  0  0  0
 49 50  1  0  0  0
 49 53  1  0  0  0
 49 64  1  0  0  0
 49119  1  0  0  0
 50 51  1  0  0  0
 50120  1  0  0  0
 50121  1  0  0  0
 51 52  1  0  0  0
 51122  1  0  0  0
 51123  1  0  0  0
 52124  1  0  0  0
 52125  1  0  0  0
 53 54  1  0  0  0
 54 55  2  0  0  0
 54126  1  0  0  0
 55 57  1  0  0  0
 55127  1  0  0  0
 56 69  2  0  0  0
 57 58  2  0  0  0
 57128  1  0  0  0
 58129  1  0  0  0
 59 60  1  0  0  0
 59 61  1  0  0  0
 59 62  1  0  0  0
 60130  1  0  0  0
 60131  1  0  0  0
 60132  1  0  0  0
 61133  1  0  0  0
 61134  1  0  0  0
 61135  1  0  0  0
 62136  1  0  0  0
 62137  1  0  0  0
 62138  1  0  0  0
 63 65  1  0  0  0
 63139  1  0  0  0
 63140  1  0  0  0
 63141  1  0  0  0
 64142  1  0  0  0
 65143  1  0  0  0
 68 81  1  0  0  0
 71 74  2  0  0  0
 71 82  1  0  0  0
 71144  1  0  0  0
 72 73  1  0  0  0
 72 82  2  0  0  0
 72 79  1  0  0  0
 73 83  2  0  0  0
 73 80  1  0  0  0
 74 81  1  0  0  0
 74 83  1  0  0  0
 75 76  1  0  0  0
 75 80  1  0  0  0
 75145  1  0  0  0
 75146  1  0  0  0
 76 80  1  0  0  0
 76147  1  0  0  0
 76148  1  0  0  0
 77 79  1  0  0  0
 77 84  1  0  0  0
 77149  1  0  0  0
 77150  1  0  0  0
 78 79  1  0  0  0
 78 84  1  0  0  0
 78151  1  0  0  0
 78152  1  0  0  0
 79153  1  0  0  0
 80154  1  0  0  0
 81155  1  0  0  0
 81156  1  0  0  0
M  ISO  4   1 100  68 101  81 101  84 100
M  END
> <chiral flag>
0

> <version>
0

> <s_m_source_file>
/data/baiqing/PycharmProjects/Reinvent-master-3.2/result/LINK_invent/BTK/process_docking_weight1_custom_sum_contain_oxygen_bond_distance_aromatic_linkinvent_7_9_3/rearranged_h_0198.sdf

> <i_m_source_file_index>
12

> <r_mmod_Potential_Energy-OPLS-2005>
807.5810546875

> <r_mmod_Stretch_Energy-OPLS-2005>
272.496124267578

> <r_mmod_Bend_Energy-OPLS-2005>
354.064514160156

> <r_mmod_Torsional_Energy-OPLS-2005>
272.376708984375

> <r_mmod_Improper_Torsional_Energy-OPLS-2005>
10.1340465545654

> <r_mmod_Van_der_Waal_Energy-OPLS-2005>
135.177947998047

> <r_mmod_Electrostatic_Energy-OPLS-2005>
-242.861480712891

> <r_mmod_Solvation_Energy-OPLS-2005>
-231.705444335938

> <b_mmod_Minimization_Converged-OPLS-2005>
0

> <r_mmod_RMS_Derivative-OPLS-2005>
0.894425630569458

$$$$
12
                    3D
 Structure written by MMmdl.
165174  0  0  1  0            999 V2000
  -30.7546  -14.3497   20.6381 C   0  0  0  0  0  0
  -30.4263  -12.2713   19.3571 C   0  0  0  0  0  0
  -29.4745  -12.5048   18.1689 C   0  0  0  0  0  0
  -28.0014  -12.3564   18.6032 C   0  0  0  0  0  0
  -27.6670  -13.1771   19.8752 C   0  0  2  0  0  0
  -28.7174  -12.8864   20.9713 C   0  0  0  0  0  0
  -25.2655  -13.8126   20.5679 C   0  0  0  0  0  0
  -24.1866  -13.0465   20.9204 C   0  0  0  0  0  0
  -24.6364  -11.6902   20.8786 C   0  0  0  0  0  0
  -23.9018  -10.4310   21.0442 C   0  0  0  0  0  0
  -24.3601   -9.4227   21.9196 C   0  0  0  0  0  0
  -23.6289   -8.2255   22.0749 C   0  0  0  0  0  0
  -22.4267   -8.0298   21.3545 C   0  0  0  0  0  0
  -21.9895   -9.0268   20.4656 C   0  0  0  0  0  0
  -22.7220  -10.2142   20.3074 C   0  0  0  0  0  0
  -21.6862   -6.0742   22.5275 C   0  0  0  0  0  0
  -21.4016   -6.5635   23.8217 C   0  0  0  0  0  0
  -21.3651   -5.6779   24.9166 C   0  0  0  0  0  0
  -21.6066   -4.3046   24.7215 C   0  0  0  0  0  0
  -21.8827   -3.8142   23.4330 C   0  0  0  0  0  0
  -21.9198   -4.6962   22.3395 C   0  0  0  0  0  0
  -22.7899  -13.5293   21.1832 C   0  0  0  0  0  0
  -22.1682   -4.2170   21.0968 F   0  0  0  0  0  0
  -21.5624   -3.4518   25.7714 F   0  0  0  0  0  0
  -30.0508  -13.2066   20.4242 N   0  0  0  0  0  0
  -26.3060  -12.9235   20.3405 N   0  0  0  0  0  0
  -25.9281  -11.6441   20.5823 N   0  0  0  0  0  0
  -22.0476  -12.8323   22.0376 N   0  0  0  0  0  0
  -25.4432  -15.1842   20.4003 N   0  0  0  0  0  0
  -31.8406  -14.5883   20.0965 O   0  0  0  0  0  0
  -21.6654   -6.8871   21.4234 O   0  0  0  0  0  0
  -22.3623  -14.5605   20.6636 O   0  0  0  0  0  0
  -24.6112  -31.8732   23.2141 C   0  0  0  0  0  0
  -25.9032  -32.4855   23.8422 C   0  0  1  0  0  0
  -27.2371  -27.4876   20.0826 C   0  0  0  0  0  0
  -25.5930  -33.8653   24.2368 N   0  0  0  0  0  0
  -23.3944  -30.4958   21.5536 C   0  0  2  0  0  0
  -24.8409  -28.9621   20.1202 C   0  0  0  0  0  0
  -22.7347  -29.4692   22.5016 C   0  0  0  0  0  0
  -18.0270  -28.1365   22.8508 C   0  0  0  0  0  0
  -24.1478  -36.7321   23.2637 C   0  0  0  0  0  0
  -25.9179  -30.8539   21.3567 C   0  0  0  0  0  0
  -25.9974  -29.4884   20.7107 C   0  0  0  0  0  0
  -27.1995  -28.7556   20.6951 C   0  0  0  0  0  0
  -26.0716  -26.9649   19.4860 C   0  0  0  0  0  0
  -24.8689  -27.6955   19.5104 C   0  0  0  0  0  0
  -23.5994  -29.8231   20.1701 C   0  0  0  0  0  0
  -25.4106  -36.3135   24.0341 C   0  0  1  0  0  0
  -20.5848  -28.3642   23.1341 C   0  0  2  0  0  0
  -20.6754  -26.9385   22.5418 C   0  0  0  0  0  0
  -19.5735  -26.6377   21.5212 C   0  0  0  0  0  0
  -18.1916  -26.7926   22.1622 C   0  0  0  0  0  0
  -19.1515  -28.8814   23.2934 C   0  0  0  0  0  0
  -18.9447  -30.1432   23.8927 C   0  0  0  0  0  0
  -17.6452  -30.6576   24.0563 C   0  0  0  0  0  0
  -25.9044  -34.9498   23.5134 C   0  0  0  0  0  0
  -16.5343  -29.9072   23.6328 C   0  0  0  0  0  0
  -16.7265  -28.6485   23.0356 C   0  0  0  0  0  0
  -26.4481  -31.6619   25.0724 C   0  0  0  0  0  0
  -25.3786  -31.3685   26.1502 C   0  0  0  0  0  0
  -27.0304  -30.3073   24.6056 C   0  0  0  0  0  0
  -27.6056  -32.4334   25.7501 C   0  0  0  0  0  0
  -27.5586  -37.1818   24.8469 C   0  0  0  0  0  0
  -21.4086  -29.3037   22.3749 N   0  0  0  0  0  0
  -26.4297  -37.3812   23.9411 N   0  0  0  0  0  0
  -24.6592  -31.0871   22.1012 N   0  0  0  0  0  0
  -23.4140  -28.8232   23.3037 O   0  0  0  0  0  0
  -28.4045  -26.7762   20.0244 O   0  0  0  0  0  0
  -26.5576  -34.8915   22.4674 O   0  0  0  0  0  0
  -23.5317  -32.1478   23.7562 O   0  0  0  0  0  0
  -30.2121  -17.1478   22.9069 C   0  0  0  0  0  0
  -26.1798  -22.6777   23.1866 C   0  0  0  0  0  0
  -31.0490  -15.9396   22.4895 C   0  0  0  0  0  0
  -29.0604  -16.0126   21.1615 C   0  0  0  0  0  0
  -29.3142  -17.4109   21.7037 C   0  0  1  0  0  0
  -27.2887  -22.6763   22.1495 C   0  0  2  0  0  0
  -27.3383  -21.7112   23.3087 C   0  0  2  0  0  0
  -28.0182  -18.1769   22.0059 C   0  0  0  0  0  0
  -27.7698  -24.7637   21.2084 C   0  0  0  0  0  0
  -28.2967  -19.5887   22.5481 C   0  0  0  0  0  0
  -28.6783  -26.0032   21.1829 C   0  0  0  0  0  0
  -30.2216  -15.1988   21.5348 N   0  0  0  0  0  0
  -28.2519  -23.7615   22.1486 N   0  0  0  0  0  0
  -27.0651  -20.3169   22.9060 N   0  3  0  0  0  0
  -31.4633  -12.3859   19.0327 H   0  0  0  0  0  0
  -30.3475  -11.2439   19.7144 H   0  0  0  0  0  0
  -29.6929  -11.8021   17.3624 H   0  0  0  0  0  0
  -29.6391  -13.4995   17.7523 H   0  0  0  0  0  0
  -27.8150  -11.2972   18.7908 H   0  0  0  0  0  0
  -27.3345  -12.6444   17.7903 H   0  0  0  0  0  0
  -27.7225  -14.2265   19.5958 H   0  0  0  0  0  0
  -28.6859  -11.8277   21.2400 H   0  0  0  0  0  0
  -28.4906  -13.4095   21.8977 H   0  0  0  0  0  0
  -25.2736   -9.5731   22.4762 H   0  0  0  0  0  0
  -24.0029   -7.4645   22.7448 H   0  0  0  0  0  0
  -21.0833   -8.8798   19.8951 H   0  0  0  0  0  0
  -22.3695  -10.9690   19.6187 H   0  0  0  0  0  0
  -21.2012   -7.6136   23.9723 H   0  0  0  0  0  0
  -21.1468   -6.0495   25.9073 H   0  0  0  0  0  0
  -22.0601   -2.7606   23.2818 H   0  0  0  0  0  0
  -22.4078  -12.0001   22.4839 H   0  0  0  0  0  0
  -21.1089  -13.1381   22.2502 H   0  0  0  0  0  0
  -24.6730  -15.8390   20.4831 H   0  0  0  0  0  0
  -26.2926  -15.6059   20.0517 H   0  0  0  0  0  0
  -26.7105  -32.5571   23.1194 H   0  0  0  0  0  0
  -25.0119  -33.9819   25.0544 H   0  0  0  0  0  0
  -22.6842  -31.3138   21.4150 H   0  0  0  0  0  0
  -23.3737  -35.9664   23.3341 H   0  0  0  0  0  0
  -24.3573  -36.8900   22.2050 H   0  0  0  0  0  0
  -23.7235  -37.6533   23.6626 H   0  0  0  0  0  0
  -26.0193  -31.6225   20.5874 H   0  0  0  0  0  0
  -26.8100  -30.9123   21.9682 H   0  0  0  0  0  0
  -28.0950  -29.1668   21.1398 H   0  0  0  0  0  0
  -26.0970  -25.9963   19.0085 H   0  0  0  0  0  0
  -23.9784  -27.2819   19.0585 H   0  0  0  0  0  0
  -23.6964  -30.5949   19.4063 H   0  0  0  0  0  0
  -22.7241  -29.2371   19.8830 H   0  0  0  0  0  0
  -25.1287  -36.2005   25.0840 H   0  0  0  0  0  0
  -20.9964  -28.3195   24.1455 H   0  0  0  0  0  0
  -20.5643  -26.2249   23.3595 H   0  0  0  0  0  0
  -21.6631  -26.7427   22.1222 H   0  0  0  0  0  0
  -19.6890  -25.6289   21.1238 H   0  0  0  0  0  0
  -19.6682  -27.3183   20.6739 H   0  0  0  0  0  0
  -17.4189  -26.6707   21.4017 H   0  0  0  0  0  0
  -18.0305  -26.0053   22.8997 H   0  0  0  0  0  0
  -19.7922  -30.7249   24.2294 H   0  0  0  0  0  0
  -17.5002  -31.6269   24.5151 H   0  0  0  0  0  0
  -15.5340  -30.2975   23.7633 H   0  0  0  0  0  0
  -15.8674  -28.0803   22.7058 H   0  0  0  0  0  0
  -24.5898  -30.7108   25.7824 H   0  0  0  0  0  0
  -24.9052  -32.2833   26.5076 H   0  0  0  0  0  0
  -25.8176  -30.8738   27.0181 H   0  0  0  0  0  0
  -26.2817  -29.6824   24.1168 H   0  0  0  0  0  0
  -27.4159  -29.7313   25.4482 H   0  0  0  0  0  0
  -27.8612  -30.4404   23.9119 H   0  0  0  0  0  0
  -27.2658  -33.3584   26.2154 H   0  0  0  0  0  0
  -28.3825  -32.6993   25.0321 H   0  0  0  0  0  0
  -28.0774  -31.8427   26.5360 H   0  0  0  0  0  0
  -28.2622  -38.0092   24.7505 H   0  0  0  0  0  0
  -28.1058  -36.2634   24.6313 H   0  0  0  0  0  0
  -27.2301  -37.1492   25.8865 H   0  0  0  0  0  0
  -20.9216  -29.8744   21.6982 H   0  0  0  0  0  0
  -26.0197  -38.2892   24.1408 H   0  0  0  0  0  0
  -30.8267  -18.0120   23.1592 H   0  0  0  0  0  0
  -29.6091  -16.8886   23.7812 H   0  0  0  0  0  0
  -25.2045  -22.2988   22.8834 H   0  0  0  0  0  0
  -26.1459  -23.4988   23.9009 H   0  0  0  0  0  0
  -31.9853  -16.2630   22.0308 H   0  0  0  0  0  0
  -31.3079  -15.3138   23.3441 H   0  0  0  0  0  0
  -28.9132  -16.0516   20.0790 H   0  0  0  0  0  0
  -28.1589  -15.5931   21.6117 H   0  0  0  0  0  0
  -29.8887  -17.9616   20.9548 H   0  0  0  0  0  0
  -27.0293  -22.2350   21.1871 H   0  0  0  0  0  0
  -28.0802  -21.8330   24.0966 H   0  0  0  0  0  0
  -27.4290  -18.2439   21.0888 H   0  0  0  0  0  0
  -27.4138  -17.6136   22.7175 H   0  0  0  0  0  0
  -27.7236  -24.3228   20.2101 H   0  0  0  0  0  0
  -26.7553  -25.0724   21.4762 H   0  0  0  0  0  0
  -28.8576  -20.1581   21.8053 H   0  0  0  0  0  0
  -28.9220  -19.5293   23.4397 H   0  0  0  0  0  0
  -29.7279  -25.7110   21.1332 H   0  0  0  0  0  0
  -28.5490  -26.5925   22.0931 H   0  0  0  0  0  0
  -28.3230  -24.1795   23.0724 H   0  0  0  0  0  0
  -26.4203  -20.3062   22.1322 H   0  0  0  0  0  0
  -26.6263  -19.8401   23.6787 H   0  0  0  0  0  0
  1 25  1  0  0  0
  1 30  2  0  0  0
  1 82  1  0  0  0
  2  3  1  0  0  0
  2 25  1  0  0  0
  2 85  1  0  0  0
  2 86  1  0  0  0
  3  4  1  0  0  0
  3 87  1  0  0  0
  3 88  1  0  0  0
  4  5  1  0  0  0
  4 89  1  0  0  0
  4 90  1  0  0  0
  5  6  1  0  0  0
  5 26  1  0  0  0
  5 91  1  0  0  0
  6 25  1  0  0  0
  6 92  1  0  0  0
  6 93  1  0  0  0
  7  8  2  0  0  0
  7 26  1  0  0  0
  7 29  1  0  0  0
  8  9  1  0  0  0
  8 22  1  0  0  0
  9 10  1  0  0  0
  9 27  2  0  0  0
 10 11  2  0  0  0
 10 15  1  0  0  0
 11 12  1  0  0  0
 11 94  1  0  0  0
 12 13  2  0  0  0
 12 95  1  0  0  0
 13 14  1  0  0  0
 13 31  1  0  0  0
 14 15  2  0  0  0
 14 96  1  0  0  0
 15 97  1  0  0  0
 16 17  2  0  0  0
 16 21  1  0  0  0
 16 31  1  0  0  0
 17 18  1  0  0  0
 17 98  1  0  0  0
 18 19  2  0  0  0
 18 99  1  0  0  0
 19 20  1  0  0  0
 19 24  1  0  0  0
 20 21  2  0  0  0
 20100  1  0  0  0
 21 23  1  0  0  0
 22 28  1  0  0  0
 22 32  2  0  0  0
 26 27  1  0  0  0
 28101  1  0  0  0
 28102  1  0  0  0
 29103  1  0  0  0
 29104  1  0  0  0
 33 34  1  0  0  0
 33 66  1  0  0  0
 33 70  2  0  0  0
 34 36  1  0  0  0
 34 59  1  0  0  0
 34105  1  0  0  0
 35 44  2  0  0  0
 35 45  1  0  0  0
 35 68  1  0  0  0
 36 56  1  0  0  0
 36106  1  0  0  0
 37 39  1  0  0  0
 37 47  1  0  0  0
 37 66  1  0  0  0
 37107  1  0  0  0
 38 43  2  0  0  0
 38 46  1  0  0  0
 38 47  1  0  0  0
 39 64  1  0  0  0
 39 67  2  0  0  0
 40 52  1  0  0  0
 40 53  2  0  0  0
 40 58  1  0  0  0
 41108  1  0  0  0
 41109  1  0  0  0
 41110  1  0  0  0
 41 48  1  0  0  0
 42 43  1  0  0  0
 42 66  1  0  0  0
 42111  1  0  0  0
 42112  1  0  0  0
 43 44  1  0  0  0
 44113  1  0  0  0
 45 46  2  0  0  0
 45114  1  0  0  0
 46115  1  0  0  0
 47116  1  0  0  0
 47117  1  0  0  0
 48 56  1  0  0  0
 48 65  1  0  0  0
 48118  1  0  0  0
 49 50  1  0  0  0
 49 53  1  0  0  0
 49 64  1  0  0  0
 49119  1  0  0  0
 50 51  1  0  0  0
 50120  1  0  0  0
 50121  1  0  0  0
 51 52  1  0  0  0
 51122  1  0  0  0
 51123  1  0  0  0
 52124  1  0  0  0
 52125  1  0  0  0
 53 54  1  0  0  0
 54 55  2  0  0  0
 54126  1  0  0  0
 55 57  1  0  0  0
 55127  1  0  0  0
 56 69  2  0  0  0
 57 58  2  0  0  0
 57128  1  0  0  0
 58129  1  0  0  0
 59 60  1  0  0  0
 59 61  1  0  0  0
 59 62  1  0  0  0
 60130  1  0  0  0
 60131  1  0  0  0
 60132  1  0  0  0
 61133  1  0  0  0
 61134  1  0  0  0
 61135  1  0  0  0
 62136  1  0  0  0
 62137  1  0  0  0
 62138  1  0  0  0
 63 65  1  0  0  0
 63139  1  0  0  0
 63140  1  0  0  0
 63141  1  0  0  0
 64142  1  0  0  0
 65143  1  0  0  0
 68 81  1  0  0  0
 71 73  1  0  0  0
 71 75  1  0  0  0
 71144  1  0  0  0
 71145  1  0  0  0
 72 76  1  0  0  0
 72 77  1  0  0  0
 72146  1  0  0  0
 72147  1  0  0  0
 73 82  1  0  0  0
 73148  1  0  0  0
 73149  1  0  0  0
 74 75  1  0  0  0
 74 82  1  0  0  0
 74150  1  0  0  0
 74151  1  0  0  0
 75 78  1  0  0  0
 75152  1  0  0  0
 76 77  1  0  0  0
 76 83  1  0  0  0
 76153  1  0  0  0
 77 84  1  0  0  0
 77154  1  0  0  0
 78 80  1  0  0  0
 78155  1  0  0  0
 78156  1  0  0  0
 79 81  1  0  0  0
 79 83  1  0  0  0
 79157  1  0  0  0
 79158  1  0  0  0
 80 84  1  0  0  0
 80159  1  0  0  0
 80160  1  0  0  0
 81161  1  0  0  0
 81162  1  0  0  0
 83163  1  0  0  0
 84164  1  0  0  0
 84165  1  0  0  0
M  CHG  1  84   1
M  ISO  4   1 100  68 101  81 101  82 100
M  END
> <chiral flag>
0

> <version>
0

> <s_m_source_file>
/data/baiqing/PycharmProjects/Reinvent-master-3.2/result/LINK_invent/BTK/process_docking_weight1_custom_sum_contain_oxygen_bond_distance_aromatic_linkinvent_7_9_3/rearranged_h_0198.sdf

> <i_m_source_file_index>
13

> <r_mmod_Potential_Energy-OPLS-2005>
43.5611763000488

> <r_mmod_Stretch_Energy-OPLS-2005>
30.0051765441895

> <r_mmod_Bend_Energy-OPLS-2005>
110.890785217285

> <r_mmod_Torsional_Energy-OPLS-2005>
391.223266601562

> <r_mmod_Improper_Torsional_Energy-OPLS-2005>
5.0591139793396

> <r_mmod_Van_der_Waal_Energy-OPLS-2005>
130.022003173828

> <r_mmod_Electrostatic_Energy-OPLS-2005>
-163.351257324219

> <r_mmod_Solvation_Energy-OPLS-2005>
-468.650634765625

> <b_mmod_Minimization_Converged-OPLS-2005>
0

> <r_mmod_RMS_Derivative-OPLS-2005>
3.69896197319031

$$$$
13
                    3D
 Structure written by MMmdl.
168177  0  0  1  0            999 V2000
  -30.7124  -14.5256   20.6563 C   0  0  0  0  0  0
  -30.4413  -12.3783   19.4278 C   0  0  0  0  0  0
  -29.4985  -12.5377   18.2174 C   0  0  0  0  0  0
  -28.0321  -12.3497   18.6448 C   0  0  0  0  0  0
  -27.6643  -13.2127   19.8800 C   0  0  2  0  0  0
  -28.7031  -13.0211   21.0058 C   0  0  0  0  0  0
  -25.2604  -13.8184   20.5693 C   0  0  0  0  0  0
  -24.1836  -13.0444   20.9187 C   0  0  0  0  0  0
  -24.6401  -11.6920   20.8733 C   0  0  0  0  0  0
  -23.9076  -10.4303   21.0423 C   0  0  0  0  0  0
  -24.3611   -9.4231   21.9220 C   0  0  0  0  0  0
  -23.6281   -8.2247   22.0773 C   0  0  0  0  0  0
  -22.4277   -8.0285   21.3535 C   0  0  0  0  0  0
  -21.9905   -9.0280   20.4668 C   0  0  0  0  0  0
  -22.7236  -10.2162   20.3098 C   0  0  0  0  0  0
  -21.6849   -6.0732   22.5271 C   0  0  0  0  0  0
  -21.4022   -6.5639   23.8216 C   0  0  0  0  0  0
  -21.3663   -5.6793   24.9175 C   0  0  0  0  0  0
  -21.6032   -4.3052   24.7221 C   0  0  0  0  0  0
  -21.8826   -3.8147   23.4342 C   0  0  0  0  0  0
  -21.9196   -4.6955   22.3406 C   0  0  0  0  0  0
  -22.7870  -13.5267   21.1822 C   0  0  0  0  0  0
  -22.1664   -4.2148   21.0976 F   0  0  0  0  0  0
  -21.5627   -3.4538   25.7733 F   0  0  0  0  0  0
  -30.0379  -13.3466   20.4693 N   0  0  0  0  0  0
  -26.3043  -12.9351   20.3392 N   0  0  0  0  0  0
  -25.9340  -11.6514   20.5778 N   0  0  0  0  0  0
  -22.0463  -12.8295   22.0391 N   0  0  0  0  0  0
  -25.4346  -15.1878   20.4057 N   0  0  0  0  0  0
  -31.7481  -14.7926   20.0373 O   0  0  0  0  0  0
  -21.6629   -6.8874   21.4247 O   0  0  0  0  0  0
  -22.3572  -14.5553   20.6646 O   0  0  0  0  0  0
  -24.6185  -31.8595   23.2076 C   0  0  0  0  0  0
  -25.9090  -32.4762   23.8353 C   0  0  1  0  0  0
  -27.2220  -27.3702   20.1136 C   0  0  0  0  0  0
  -25.5957  -33.8565   24.2285 N   0  0  0  0  0  0
  -23.4042  -30.4886   21.5452 C   0  0  2  0  0  0
  -24.8511  -28.9473   20.1139 C   0  0  0  0  0  0
  -22.7422  -29.4641   22.4924 C   0  0  0  0  0  0
  -18.0289  -28.1379   22.8493 C   0  0  0  0  0  0
  -24.1489  -36.7293   23.2625 C   0  0  0  0  0  0
  -25.9407  -30.8124   21.3683 C   0  0  0  0  0  0
  -26.0105  -29.4413   20.7195 C   0  0  0  0  0  0
  -27.1919  -28.6557   20.7156 C   0  0  0  0  0  0
  -26.0304  -26.8997   19.5070 C   0  0  0  0  0  0
  -24.8603  -27.6840   19.5034 C   0  0  0  0  0  0
  -23.6132  -29.8199   20.1592 C   0  0  0  0  0  0
  -25.4111  -36.3061   24.0309 C   0  0  1  0  0  0
  -20.5874  -28.3660   23.1342 C   0  0  2  0  0  0
  -20.6783  -26.9396   22.5441 C   0  0  0  0  0  0
  -19.5764  -26.6383   21.5232 C   0  0  0  0  0  0
  -18.1930  -26.7936   22.1607 C   0  0  0  0  0  0
  -19.1533  -28.8844   23.2889 C   0  0  0  0  0  0
  -18.9460  -30.1452   23.8889 C   0  0  0  0  0  0
  -17.6456  -30.6585   24.0573 C   0  0  0  0  0  0
  -25.9061  -34.9443   23.5086 C   0  0  0  0  0  0
  -16.5350  -29.9076   23.6343 C   0  0  0  0  0  0
  -16.7263  -28.6500   23.0367 C   0  0  0  0  0  0
  -26.4545  -31.6569   25.0705 C   0  0  0  0  0  0
  -25.3815  -31.3720   26.1459 C   0  0  0  0  0  0
  -27.0394  -30.2988   24.6148 C   0  0  0  0  0  0
  -27.6072  -32.4322   25.7497 C   0  0  0  0  0  0
  -27.5556  -37.1789   24.8450 C   0  0  0  0  0  0
  -21.4144  -29.3014   22.3704 N   0  0  0  0  0  0
  -26.4274  -37.3755   23.9406 N   0  0  0  0  0  0
  -24.6714  -31.0737   22.0956 N   0  0  0  0  0  0
  -23.4195  -28.8216   23.2976 O   0  0  0  0  0  0
  -28.4038  -26.6355   20.1601 O   0  0  0  0  0  0
  -26.5593  -34.8909   22.4633 O   0  0  0  0  0  0
  -23.5390  -32.1357   23.7513 O   0  0  0  0  0  0
  -30.0436  -16.3302   23.8178 C   0  0  0  0  0  0
  -29.0784  -17.0446   22.8864 C   0  0  0  0  0  0
  -30.3122  -21.4702   21.6123 C   0  0  0  0  0  0
  -30.5850  -15.1638   22.9994 C   0  0  0  0  0  0
  -30.7549  -19.9903   21.6991 C   0  0  0  0  0  0
  -29.2985  -20.1766   19.9472 C   0  0  0  0  0  0
  -29.4910  -16.6798   21.4418 C   0  0  1  0  0  0
  -29.0415  -21.5101   20.7401 C   0  0  1  0  0  0
  -27.7645  -21.3780   21.6147 C   0  0  0  0  0  0
  -30.2250  -17.8359   20.6487 C   0  0  0  0  0  0
  -28.5659  -24.0748   20.5413 C   0  0  0  0  0  0
  -28.5442  -25.3139   19.5623 C   0  0  0  0  0  0
  -30.2184  -15.3794   21.5964 N   0  0  0  0  0  0
  -29.7444  -19.2155   20.9800 N   0  0  0  0  0  0
  -28.9580  -22.7646   19.8844 N   0  3  0  0  0  0
  -31.4775  -12.5154   19.1129 H   0  0  0  0  0  0
  -30.3993  -11.3604   19.8172 H   0  0  0  0  0  0
  -29.7585  -11.8181   17.4414 H   0  0  0  0  0  0
  -29.6304  -13.5258   17.7764 H   0  0  0  0  0  0
  -27.8972  -11.2940   18.8844 H   0  0  0  0  0  0
  -27.3612  -12.5599   17.8101 H   0  0  0  0  0  0
  -27.7002  -14.2549   19.5620 H   0  0  0  0  0  0
  -28.6868  -11.9915   21.3634 H   0  0  0  0  0  0
  -28.4293  -13.6320   21.8656 H   0  0  0  0  0  0
  -25.2756   -9.5684   22.4793 H   0  0  0  0  0  0
  -23.9988   -7.4637   22.7486 H   0  0  0  0  0  0
  -21.0824   -8.8806   19.8967 H   0  0  0  0  0  0
  -22.3704  -10.9701   19.6191 H   0  0  0  0  0  0
  -21.2022   -7.6148   23.9720 H   0  0  0  0  0  0
  -21.1476   -6.0517   25.9078 H   0  0  0  0  0  0
  -22.0595   -2.7605   23.2847 H   0  0  0  0  0  0
  -22.4020  -11.9966   22.4834 H   0  0  0  0  0  0
  -21.1102  -13.1398   22.2557 H   0  0  0  0  0  0
  -24.6753  -15.8507   20.5245 H   0  0  0  0  0  0
  -26.2920  -15.6188   20.0828 H   0  0  0  0  0  0
  -26.7135  -32.5439   23.1067 H   0  0  0  0  0  0
  -25.0193  -33.9721   25.0488 H   0  0  0  0  0  0
  -22.6862  -31.3011   21.4035 H   0  0  0  0  0  0
  -23.3747  -35.9624   23.3297 H   0  0  0  0  0  0
  -24.3570  -36.8922   22.2034 H   0  0  0  0  0  0
  -23.7285  -37.6505   23.6677 H   0  0  0  0  0  0
  -26.0673  -31.5749   20.5975 H   0  0  0  0  0  0
  -26.8242  -30.8557   21.9936 H   0  0  0  0  0  0
  -28.0897  -29.0307   21.1919 H   0  0  0  0  0  0
  -25.9641  -25.9306   19.0382 H   0  0  0  0  0  0
  -23.9643  -27.3005   19.0354 H   0  0  0  0  0  0
  -23.7163  -30.5902   19.3922 H   0  0  0  0  0  0
  -22.7338  -29.2372   19.8750 H   0  0  0  0  0  0
  -25.1315  -36.1850   25.0800 H   0  0  0  0  0  0
  -20.9962  -28.3248   24.1458 H   0  0  0  0  0  0
  -20.5774  -26.2222   23.3605 H   0  0  0  0  0  0
  -21.6642  -26.7494   22.1166 H   0  0  0  0  0  0
  -19.6943  -25.6312   21.1223 H   0  0  0  0  0  0
  -19.6748  -27.3222   20.6802 H   0  0  0  0  0  0
  -17.4225  -26.6714   21.3989 H   0  0  0  0  0  0
  -18.0300  -26.0072   22.8995 H   0  0  0  0  0  0
  -19.7938  -30.7282   24.2223 H   0  0  0  0  0  0
  -17.5030  -31.6287   24.5160 H   0  0  0  0  0  0
  -15.5358  -30.2988   23.7725 H   0  0  0  0  0  0
  -15.8639  -28.0843   22.7077 H   0  0  0  0  0  0
  -24.5925  -30.7120   25.7845 H   0  0  0  0  0  0
  -24.9105  -32.2917   26.4948 H   0  0  0  0  0  0
  -25.8185  -30.8855   27.0182 H   0  0  0  0  0  0
  -26.2941  -29.6672   24.1290 H   0  0  0  0  0  0
  -27.4230  -29.7309   25.4643 H   0  0  0  0  0  0
  -27.8772  -30.4291   23.9276 H   0  0  0  0  0  0
  -27.2627  -33.3565   26.2146 H   0  0  0  0  0  0
  -28.3895  -32.6966   25.0371 H   0  0  0  0  0  0
  -28.0741  -31.8399   26.5370 H   0  0  0  0  0  0
  -28.2584  -38.0078   24.7501 H   0  0  0  0  0  0
  -28.1047  -36.2611   24.6290 H   0  0  0  0  0  0
  -27.2270  -37.1472   25.8851 H   0  0  0  0  0  0
  -20.9256  -29.8609   21.6852 H   0  0  0  0  0  0
  -26.0133  -38.2804   24.1451 H   0  0  0  0  0  0
  -29.5488  -15.9911   24.7264 H   0  0  0  0  0  0
  -30.8542  -16.9938   24.1189 H   0  0  0  0  0  0
  -29.0367  -18.1093   23.1039 H   0  0  0  0  0  0
  -28.0724  -16.6622   23.0708 H   0  0  0  0  0  0
  -31.1244  -22.0391   21.1544 H   0  0  0  0  0  0
  -30.1659  -21.8915   22.6032 H   0  0  0  0  0  0
  -30.1382  -14.2327   23.3461 H   0  0  0  0  0  0
  -31.6655  -15.0650   23.1279 H   0  0  0  0  0  0
  -30.8517  -19.6478   22.7296 H   0  0  0  0  0  0
  -31.7239  -19.8759   21.2062 H   0  0  0  0  0  0
  -30.1073  -20.3265   19.2273 H   0  0  0  0  0  0
  -28.4236  -19.8314   19.3971 H   0  0  0  0  0  0
  -28.5688  -16.4686   20.8975 H   0  0  0  0  0  0
  -27.8013  -22.0468   22.4753 H   0  0  0  0  0  0
  -27.6280  -20.3738   22.0146 H   0  0  0  0  0  0
  -26.8597  -21.6131   21.0540 H   0  0  0  0  0  0
  -31.2953  -17.7729   20.8492 H   0  0  0  0  0  0
  -30.1168  -17.6497   19.5785 H   0  0  0  0  0  0
  -27.5847  -23.9776   21.0112 H   0  0  0  0  0  0
  -29.2706  -24.2867   21.3437 H   0  0  0  0  0  0
  -27.8511  -25.1432   18.7413 H   0  0  0  0  0  0
  -29.5161  -25.3556   19.0801 H   0  0  0  0  0  0
  -28.2723  -22.5866   19.1654 H   0  0  0  0  0  0
  -29.8357  -22.8862   19.3986 H   0  0  0  0  0  0
  1 25  1  0  0  0
  1 30  2  0  0  0
  1 83  1  0  0  0
  2  3  1  0  0  0
  2 25  1  0  0  0
  2 86  1  0  0  0
  2 87  1  0  0  0
  3  4  1  0  0  0
  3 88  1  0  0  0
  3 89  1  0  0  0
  4  5  1  0  0  0
  4 90  1  0  0  0
  4 91  1  0  0  0
  5  6  1  0  0  0
  5 26  1  0  0  0
  5 92  1  0  0  0
  6 25  1  0  0  0
  6 93  1  0  0  0
  6 94  1  0  0  0
  7  8  2  0  0  0
  7 26  1  0  0  0
  7 29  1  0  0  0
  8  9  1  0  0  0
  8 22  1  0  0  0
  9 10  1  0  0  0
  9 27  2  0  0  0
 10 11  2  0  0  0
 10 15  1  0  0  0
 11 12  1  0  0  0
 11 95  1  0  0  0
 12 13  2  0  0  0
 12 96  1  0  0  0
 13 14  1  0  0  0
 13 31  1  0  0  0
 14 15  2  0  0  0
 14 97  1  0  0  0
 15 98  1  0  0  0
 16 17  2  0  0  0
 16 21  1  0  0  0
 16 31  1  0  0  0
 17 18  1  0  0  0
 17 99  1  0  0  0
 18 19  2  0  0  0
 18100  1  0  0  0
 19 20  1  0  0  0
 19 24  1  0  0  0
 20 21  2  0  0  0
 20101  1  0  0  0
 21 23  1  0  0  0
 22 28  1  0  0  0
 22 32  2  0  0  0
 26 27  1  0  0  0
 28102  1  0  0  0
 28103  1  0  0  0
 29104  1  0  0  0
 29105  1  0  0  0
 33 34  1  0  0  0
 33 66  1  0  0  0
 33 70  2  0  0  0
 34 36  1  0  0  0
 34 59  1  0  0  0
 34106  1  0  0  0
 35 44  2  0  0  0
 35 45  1  0  0  0
 35 68  1  0  0  0
 36 56  1  0  0  0
 36107  1  0  0  0
 37 39  1  0  0  0
 37 47  1  0  0  0
 37 66  1  0  0  0
 37108  1  0  0  0
 38 43  2  0  0  0
 38 46  1  0  0  0
 38 47  1  0  0  0
 39 64  1  0  0  0
 39 67  2  0  0  0
 40 52  1  0  0  0
 40 53  2  0  0  0
 40 58  1  0  0  0
 41109  1  0  0  0
 41110  1  0  0  0
 41111  1  0  0  0
 41 48  1  0  0  0
 42 43  1  0  0  0
 42 66  1  0  0  0
 42112  1  0  0  0
 42113  1  0  0  0
 43 44  1  0  0  0
 44114  1  0  0  0
 45 46  2  0  0  0
 45115  1  0  0  0
 46116  1  0  0  0
 47117  1  0  0  0
 47118  1  0  0  0
 48 56  1  0  0  0
 48 65  1  0  0  0
 48119  1  0  0  0
 49 50  1  0  0  0
 49 53  1  0  0  0
 49 64  1  0  0  0
 49120  1  0  0  0
 50 51  1  0  0  0
 50121  1  0  0  0
 50122  1  0  0  0
 51 52  1  0  0  0
 51123  1  0  0  0
 51124  1  0  0  0
 52125  1  0  0  0
 52126  1  0  0  0
 53 54  1  0  0  0
 54 55  2  0  0  0
 54127  1  0  0  0
 55 57  1  0  0  0
 55128  1  0  0  0
 56 69  2  0  0  0
 57 58  2  0  0  0
 57129  1  0  0  0
 58130  1  0  0  0
 59 60  1  0  0  0
 59 61  1  0  0  0
 59 62  1  0  0  0
 60131  1  0  0  0
 60132  1  0  0  0
 60133  1  0  0  0
 61134  1  0  0  0
 61135  1  0  0  0
 61136  1  0  0  0
 62137  1  0  0  0
 62138  1  0  0  0
 62139  1  0  0  0
 63 65  1  0  0  0
 63140  1  0  0  0
 63141  1  0  0  0
 63142  1  0  0  0
 64143  1  0  0  0
 65144  1  0  0  0
 68 82  1  0  0  0
 71 72  1  0  0  0
 71 74  1  0  0  0
 71145  1  0  0  0
 71146  1  0  0  0
 72 77  1  0  0  0
 72147  1  0  0  0
 72148  1  0  0  0
 73 75  1  0  0  0
 73 78  1  0  0  0
 73149  1  0  0  0
 73150  1  0  0  0
 74 83  1  0  0  0
 74151  1  0  0  0
 74152  1  0  0  0
 75 84  1  0  0  0
 75153  1  0  0  0
 75154  1  0  0  0
 76 78  1  0  0  0
 76 84  1  0  0  0
 76155  1  0  0  0
 76156  1  0  0  0
 77 80  1  0  0  0
 77 83  1  0  0  0
 77157  1  0  0  0
 78 79  1  0  0  0
 78 85  1  0  0  0
 79158  1  0  0  0
 79159  1  0  0  0
 79160  1  0  0  0
 80 84  1  0  0  0
 80161  1  0  0  0
 80162  1  0  0  0
 81 82  1  0  0  0
 81 85  1  0  0  0
 81163  1  0  0  0
 81164  1  0  0  0
 82165  1  0  0  0
 82166  1  0  0  0
 85167  1  0  0  0
 85168  1  0  0  0
M  CHG  1  85   1
M  ISO  4   1 100  68 101  82 101  83 100
M  END
> <chiral flag>
0

> <version>
0

> <s_m_source_file>
/data/baiqing/PycharmProjects/Reinvent-master-3.2/result/LINK_invent/BTK/process_docking_weight1_custom_sum_contain_oxygen_bond_distance_aromatic_linkinvent_7_9_3/rearranged_h_0198.sdf

> <i_m_source_file_index>
14

> <r_mmod_Potential_Energy-OPLS-2005>
232.991577148438

> <r_mmod_Stretch_Energy-OPLS-2005>
65.683708190918

> <r_mmod_Bend_Energy-OPLS-2005>
186.12516784668

> <r_mmod_Torsional_Energy-OPLS-2005>
453.168182373047

> <r_mmod_Improper_Torsional_Energy-OPLS-2005>
2.09375476837158

> <r_mmod_Van_der_Waal_Energy-OPLS-2005>
124.646530151367

> <r_mmod_Electrostatic_Energy-OPLS-2005>
-188.132873535156

> <r_mmod_Solvation_Energy-OPLS-2005>
-434.015411376953

> <b_mmod_Minimization_Converged-OPLS-2005>
0

> <r_mmod_RMS_Derivative-OPLS-2005>
6.67356586456299

$$$$
14
                    3D
 Structure written by MMmdl.
170179  0  0  1  0            999 V2000
  -30.5835  -14.8902   20.4179 C   0  0  0  0  0  0
  -30.4214  -12.5446   19.4908 C   0  0  0  0  0  0
  -29.5079  -12.5131   18.2462 C   0  0  0  0  0  0
  -28.0373  -12.3273   18.6628 C   0  0  0  0  0  0
  -27.6270  -13.2510   19.8395 C   0  0  2  0  0  0
  -28.6714  -13.2681   20.9732 C   0  0  0  0  0  0
  -25.2464  -13.8242   20.5749 C   0  0  0  0  0  0
  -24.1773  -13.0449   20.9258 C   0  0  0  0  0  0
  -24.6389  -11.6934   20.8765 C   0  0  0  0  0  0
  -23.9082  -10.4288   21.0391 C   0  0  0  0  0  0
  -24.3648   -9.4193   21.9156 C   0  0  0  0  0  0
  -23.6327   -8.2227   22.0718 C   0  0  0  0  0  0
  -22.4298   -8.0276   21.3530 C   0  0  0  0  0  0
  -21.9935   -9.0234   20.4619 C   0  0  0  0  0  0
  -22.7258  -10.2120   20.3025 C   0  0  0  0  0  0
  -21.6852   -6.0736   22.5270 C   0  0  0  0  0  0
  -21.4004   -6.5632   23.8206 C   0  0  0  0  0  0
  -21.3668   -5.6778   24.9174 C   0  0  0  0  0  0
  -21.6066   -4.3046   24.7209 C   0  0  0  0  0  0
  -21.8830   -3.8137   23.4328 C   0  0  0  0  0  0
  -21.9193   -4.6959   22.3389 C   0  0  0  0  0  0
  -22.7790  -13.5193   21.1925 C   0  0  0  0  0  0
  -22.1674   -4.2159   21.0960 F   0  0  0  0  0  0
  -21.5637   -3.4524   25.7719 F   0  0  0  0  0  0
  -29.9474  -13.6558   20.3629 N   0  0  0  0  0  0
  -26.2877  -12.9468   20.3285 N   0  0  0  0  0  0
  -25.9317  -11.6597   20.5753 N   0  0  0  0  0  0
  -22.0489  -12.8103   22.0470 N   0  0  0  0  0  0
  -25.4187  -15.1955   20.4186 N   0  0  0  0  0  0
  -31.7902  -14.9078   20.1493 O   0  0  0  0  0  0
  -21.6648   -6.8880   21.4235 O   0  0  0  0  0  0
  -22.3426  -14.5481   20.6783 O   0  0  0  0  0  0
  -24.6436  -31.8498   23.1905 C   0  0  0  0  0  0
  -25.9225  -32.4722   23.8280 C   0  0  1  0  0  0
  -27.2082  -27.1745   20.1390 C   0  0  0  0  0  0
  -25.5984  -33.8524   24.2219 N   0  0  0  0  0  0
  -23.4418  -30.4698   21.5390 C   0  0  2  0  0  0
  -24.8889  -28.9041   20.1082 C   0  0  0  0  0  0
  -22.7561  -29.4564   22.4896 C   0  0  0  0  0  0
  -18.0315  -28.1365   22.8498 C   0  0  0  0  0  0
  -24.1496  -36.7251   23.2638 C   0  0  0  0  0  0
  -25.9968  -30.7325   21.3851 C   0  0  0  0  0  0
  -26.0661  -29.3475   20.7254 C   0  0  0  0  0  0
  -27.2314  -28.4991   20.7224 C   0  0  0  0  0  0
  -26.0113  -26.8250   19.4789 C   0  0  0  0  0  0
  -24.8740  -27.6557   19.4686 C   0  0  0  0  0  0
  -23.6627  -29.8009   20.1570 C   0  0  0  0  0  0
  -25.4129  -36.3053   24.0323 C   0  0  1  0  0  0
  -20.5924  -28.3692   23.1261 C   0  0  2  0  0  0
  -20.6788  -26.9391   22.5419 C   0  0  0  0  0  0
  -19.5757  -26.6369   21.5223 C   0  0  0  0  0  0
  -18.1945  -26.7916   22.1635 C   0  0  0  0  0  0
  -19.1567  -28.8846   23.2874 C   0  0  0  0  0  0
  -18.9470  -30.1443   23.8899 C   0  0  0  0  0  0
  -17.6460  -30.6569   24.0547 C   0  0  0  0  0  0
  -25.9082  -34.9423   23.5075 C   0  0  0  0  0  0
  -16.5359  -29.9055   23.6312 C   0  0  0  0  0  0
  -16.7294  -28.6462   23.0363 C   0  0  0  0  0  0
  -26.4534  -31.6570   25.0707 C   0  0  0  0  0  0
  -25.3682  -31.3756   26.1369 C   0  0  0  0  0  0
  -27.0401  -30.2984   24.6248 C   0  0  0  0  0  0
  -27.6086  -32.4302   25.7494 C   0  0  0  0  0  0
  -27.5584  -37.1778   24.8462 C   0  0  0  0  0  0
  -21.4256  -29.3042   22.3647 N   0  0  0  0  0  0
  -26.4295  -37.3762   23.9409 N   0  0  0  0  0  0
  -24.7135  -31.0379   22.0928 N   0  0  0  0  0  0
  -23.4237  -28.8107   23.3014 O   0  0  0  0  0  0
  -28.2555  -26.1988   20.1564 O   0  0  0  0  0  0
  -26.5646  -34.8901   22.4647 O   0  0  0  0  0  0
  -23.5567  -32.1354   23.7152 O   0  0  0  0  0  0
  -29.0538  -22.2186   20.6634 C   0  0  0  0  0  0
  -28.5505  -23.3812   20.0332 C   0  0  0  0  0  0
  -29.4687  -22.2604   22.1071 C   0  0  0  0  0  0
  -31.2144  -21.1285   20.7962 C   0  0  0  0  0  0
  -29.1962  -16.9527   21.3548 C   0  0  0  0  0  0
  -29.8879  -16.9575   19.0622 C   0  0  0  0  0  0
  -29.4808  -18.5534   21.4295 C   0  0  0  0  0  0
  -30.1996  -18.5259   19.1577 C   0  0  0  0  0  0
  -29.8426  -20.9144   20.0917 C   0  0  1  0  0  0
  -30.9935  -22.1382   21.9559 C   0  0  2  0  0  0
  -32.4437  -22.7921   25.4536 C   0  0  0  0  0  0
  -27.9436  -24.7722   20.6453 C   0  0  0  0  0  0
  -31.7560  -21.8325   23.2614 C   0  0  0  0  0  0
  -29.8525  -16.1077   20.2947 N   0  0  0  0  0  0
  -29.4247  -19.3718   20.1466 N   0  3  0  0  0  0
  -31.6596  -22.9596   24.2157 N   0  3  0  0  0  0
  -31.4614  -12.6686   19.1855 H   0  0  0  0  0  0
  -30.3759  -11.5928   20.0220 H   0  0  0  0  0  0
  -29.8077  -11.7082   17.5738 H   0  0  0  0  0  0
  -29.6201  -13.4411   17.6840 H   0  0  0  0  0  0
  -27.9148  -11.2837   18.9537 H   0  0  0  0  0  0
  -27.3742  -12.4882   17.8117 H   0  0  0  0  0  0
  -27.5919  -14.2569   19.4198 H   0  0  0  0  0  0
  -28.7396  -12.2885   21.4498 H   0  0  0  0  0  0
  -28.3830  -13.9773   21.7509 H   0  0  0  0  0  0
  -25.2808   -9.5659   22.4723 H   0  0  0  0  0  0
  -24.0056   -7.4584   22.7391 H   0  0  0  0  0  0
  -21.0896   -8.8728   19.8878 H   0  0  0  0  0  0
  -22.3725  -10.9653   19.6115 H   0  0  0  0  0  0
  -21.1981   -7.6136   23.9714 H   0  0  0  0  0  0
  -21.1499   -6.0508   25.9090 H   0  0  0  0  0  0
  -22.0602   -2.7600   23.2820 H   0  0  0  0  0  0
  -22.4212  -11.9804   22.4842 H   0  0  0  0  0  0
  -21.1056  -13.0991   22.2666 H   0  0  0  0  0  0
  -24.6564  -15.8560   20.5242 H   0  0  0  0  0  0
  -26.2725  -15.6218   20.0819 H   0  0  0  0  0  0
  -26.7295  -32.5316   23.1004 H   0  0  0  0  0  0
  -25.0135  -33.9660   25.0364 H   0  0  0  0  0  0
  -22.7418  -31.2950   21.3893 H   0  0  0  0  0  0
  -23.3788  -35.9553   23.3290 H   0  0  0  0  0  0
  -24.3589  -36.8890   22.2055 H   0  0  0  0  0  0
  -23.7205  -37.6428   23.6672 H   0  0  0  0  0  0
  -26.1543  -31.4916   20.6182 H   0  0  0  0  0  0
  -26.8690  -30.7770   22.0252 H   0  0  0  0  0  0
  -28.1337  -28.8358   21.2128 H   0  0  0  0  0  0
  -25.9413  -25.8727   18.9723 H   0  0  0  0  0  0
  -23.9776  -27.3193   18.9678 H   0  0  0  0  0  0
  -23.7910  -30.5783   19.4037 H   0  0  0  0  0  0
  -22.7764  -29.2431   19.8489 H   0  0  0  0  0  0
  -25.1315  -36.1899   25.0817 H   0  0  0  0  0  0
  -21.0011  -28.3270   24.1382 H   0  0  0  0  0  0
  -20.5695  -26.2281   23.3627 H   0  0  0  0  0  0
  -21.6644  -26.7404   22.1189 H   0  0  0  0  0  0
  -19.6904  -25.6281   21.1252 H   0  0  0  0  0  0
  -19.6696  -27.3181   20.6755 H   0  0  0  0  0  0
  -17.4209  -26.6694   21.4040 H   0  0  0  0  0  0
  -18.0313  -26.0046   22.9013 H   0  0  0  0  0  0
  -19.7936  -30.7262   24.2285 H   0  0  0  0  0  0
  -17.4997  -31.6252   24.5132 H   0  0  0  0  0  0
  -15.5353  -30.2942   23.7613 H   0  0  0  0  0  0
  -15.8702  -28.0758   22.7099 H   0  0  0  0  0  0
  -24.5862  -30.7134   25.7633 H   0  0  0  0  0  0
  -24.8854  -32.2934   26.4740 H   0  0  0  0  0  0
  -25.7900  -30.8924   27.0186 H   0  0  0  0  0  0
  -26.3012  -29.6701   24.1255 H   0  0  0  0  0  0
  -27.4060  -29.7296   25.4807 H   0  0  0  0  0  0
  -27.8902  -30.4284   23.9541 H   0  0  0  0  0  0
  -27.2731  -33.3624   26.2060 H   0  0  0  0  0  0
  -28.3904  -32.6823   25.0312 H   0  0  0  0  0  0
  -28.0738  -31.8407   26.5408 H   0  0  0  0  0  0
  -28.2585  -38.0092   24.7541 H   0  0  0  0  0  0
  -28.1104  -36.2625   24.6266 H   0  0  0  0  0  0
  -27.2300  -37.1378   25.8862 H   0  0  0  0  0  0
  -20.9454  -29.8746   21.6824 H   0  0  0  0  0  0
  -26.0185  -38.2845   24.1404 H   0  0  0  0  0  0
  -28.4840  -23.3416   18.9553 H   0  0  0  0  0  0
  -29.0480  -21.4036   22.6349 H   0  0  0  0  0  0
  -29.1623  -23.1583   22.6391 H   0  0  0  0  0  0
  -31.9217  -21.5560   20.0829 H   0  0  0  0  0  0
  -31.6896  -20.2136   21.1391 H   0  0  0  0  0  0
  -28.1213  -16.8181   21.2262 H   0  0  0  0  0  0
  -29.4108  -16.5156   22.3301 H   0  0  0  0  0  0
  -30.5881  -16.5205   18.3478 H   0  0  0  0  0  0
  -28.9118  -16.8339   18.5908 H   0  0  0  0  0  0
  -30.4641  -18.6577   21.8825 H   0  0  0  0  0  0
  -28.7882  -18.9990   22.1438 H   0  0  0  0  0  0
  -30.0541  -18.9550   18.1654 H   0  0  0  0  0  0
  -31.2653  -18.6363   19.3672 H   0  0  0  0  0  0
  -29.9647  -21.1314   19.0280 H   0  0  0  0  0  0
  -31.3593  -23.0997   21.5850 H   0  0  0  0  0  0
  -32.3035  -23.6560   26.1042 H   0  0  0  0  0  0
  -33.5076  -22.7131   25.2328 H   0  0  0  0  0  0
  -32.1358  -21.9019   26.0023 H   0  0  0  0  0  0
  -28.1663  -24.7983   21.7092 H   0  0  0  0  0  0
  -26.8644  -24.6250   20.6214 H   0  0  0  0  0  0
  -32.8079  -21.6574   23.0261 H   0  0  0  0  0  0
  -31.3778  -20.9187   23.7213 H   0  0  0  0  0  0
  -28.4638  -19.3482   19.8386 H   0  0  0  0  0  0
  -31.9718  -23.8018   23.7589 H   0  0  0  0  0  0
  -30.6966  -23.0936   24.4758 H   0  0  0  0  0  0
  1 25  1  0  0  0
  1 30  2  0  0  0
  1 84  1  0  0  0
  2  3  1  0  0  0
  2 25  1  0  0  0
  2 87  1  0  0  0
  2 88  1  0  0  0
  3  4  1  0  0  0
  3 89  1  0  0  0
  3 90  1  0  0  0
  4  5  1  0  0  0
  4 91  1  0  0  0
  4 92  1  0  0  0
  5  6  1  0  0  0
  5 26  1  0  0  0
  5 93  1  0  0  0
  6 25  1  0  0  0
  6 94  1  0  0  0
  6 95  1  0  0  0
  7  8  2  0  0  0
  7 26  1  0  0  0
  7 29  1  0  0  0
  8  9  1  0  0  0
  8 22  1  0  0  0
  9 10  1  0  0  0
  9 27  2  0  0  0
 10 11  2  0  0  0
 10 15  1  0  0  0
 11 12  1  0  0  0
 11 96  1  0  0  0
 12 13  2  0  0  0
 12 97  1  0  0  0
 13 14  1  0  0  0
 13 31  1  0  0  0
 14 15  2  0  0  0
 14 98  1  0  0  0
 15 99  1  0  0  0
 16 17  2  0  0  0
 16 21  1  0  0  0
 16 31  1  0  0  0
 17 18  1  0  0  0
 17100  1  0  0  0
 18 19  2  0  0  0
 18101  1  0  0  0
 19 20  1  0  0  0
 19 24  1  0  0  0
 20 21  2  0  0  0
 20102  1  0  0  0
 21 23  1  0  0  0
 22 28  1  0  0  0
 22 32  2  0  0  0
 26 27  1  0  0  0
 28103  1  0  0  0
 28104  1  0  0  0
 29105  1  0  0  0
 29106  1  0  0  0
 33 34  1  0  0  0
 33 66  1  0  0  0
 33 70  2  0  0  0
 34 36  1  0  0  0
 34 59  1  0  0  0
 34107  1  0  0  0
 35 44  2  0  0  0
 35 45  1  0  0  0
 35 68  1  0  0  0
 36 56  1  0  0  0
 36108  1  0  0  0
 37 39  1  0  0  0
 37 47  1  0  0  0
 37 66  1  0  0  0
 37109  1  0  0  0
 38 43  2  0  0  0
 38 46  1  0  0  0
 38 47  1  0  0  0
 39 64  1  0  0  0
 39 67  2  0  0  0
 40 52  1  0  0  0
 40 53  2  0  0  0
 40 58  1  0  0  0
 41110  1  0  0  0
 41111  1  0  0  0
 41112  1  0  0  0
 41 48  1  0  0  0
 42 43  1  0  0  0
 42 66  1  0  0  0
 42113  1  0  0  0
 42114  1  0  0  0
 43 44  1  0  0  0
 44115  1  0  0  0
 45 46  2  0  0  0
 45116  1  0  0  0
 46117  1  0  0  0
 47118  1  0  0  0
 47119  1  0  0  0
 48 56  1  0  0  0
 48 65  1  0  0  0
 48120  1  0  0  0
 49 50  1  0  0  0
 49 53  1  0  0  0
 49 64  1  0  0  0
 49121  1  0  0  0
 50 51  1  0  0  0
 50122  1  0  0  0
 50123  1  0  0  0
 51 52  1  0  0  0
 51124  1  0  0  0
 51125  1  0  0  0
 52126  1  0  0  0
 52127  1  0  0  0
 53 54  1  0  0  0
 54 55  2  0  0  0
 54128  1  0  0  0
 55 57  1  0  0  0
 55129  1  0  0  0
 56 69  2  0  0  0
 57 58  2  0  0  0
 57130  1  0  0  0
 58131  1  0  0  0
 59 60  1  0  0  0
 59 61  1  0  0  0
 59 62  1  0  0  0
 60132  1  0  0  0
 60133  1  0  0  0
 60134  1  0  0  0
 61135  1  0  0  0
 61136  1  0  0  0
 61137  1  0  0  0
 62138  1  0  0  0
 62139  1  0  0  0
 62140  1  0  0  0
 63 65  1  0  0  0
 63141  1  0  0  0
 63142  1  0  0  0
 63143  1  0  0  0
 64144  1  0  0  0
 65145  1  0  0  0
 68 82  1  0  0  0
 71 72  2  0  0  0
 71 73  1  0  0  0
 71 79  1  0  0  0
 72 82  1  0  0  0
 72146  1  0  0  0
 73 80  1  0  0  0
 73147  1  0  0  0
 73148  1  0  0  0
 74 80  1  0  0  0
 74149  1  0  0  0
 74150  1  0  0  0
 74 79  1  0  0  0
 75 77  1  0  0  0
 75 84  1  0  0  0
 75151  1  0  0  0
 75152  1  0  0  0
 76 78  1  0  0  0
 76 84  1  0  0  0
 76153  1  0  0  0
 76154  1  0  0  0
 77155  1  0  0  0
 77156  1  0  0  0
 77 85  1  0  0  0
 78 85  1  0  0  0
 78157  1  0  0  0
 78158  1  0  0  0
 79 85  1  0  0  0
 79159  1  0  0  0
 80 83  1  0  0  0
 80160  1  0  0  0
 81 86  1  0  0  0
 81161  1  0  0  0
 81162  1  0  0  0
 81163  1  0  0  0
 82164  1  0  0  0
 82165  1  0  0  0
 83 86  1  0  0  0
 83166  1  0  0  0
 83167  1  0  0  0
 85168  1  0  0  0
 86169  1  0  0  0
 86170  1  0  0  0
M  CHG  2  85   1  86   1
M  ISO  4   1 100  68 101  82 101  84 100
M  END
> <chiral flag>
0

> <version>
0

> <s_m_source_file>
/data/baiqing/PycharmProjects/Reinvent-master-3.2/result/LINK_invent/BTK/process_docking_weight1_custom_sum_contain_oxygen_bond_distance_aromatic_linkinvent_7_9_3/rearranged_h_0198.sdf

> <i_m_source_file_index>
15

> <r_mmod_Potential_Energy-OPLS-2005>
458.902526855469

> <r_mmod_Stretch_Energy-OPLS-2005>
205.323272705078

> <r_mmod_Bend_Energy-OPLS-2005>
323.224761962891

> <r_mmod_Torsional_Energy-OPLS-2005>
462.434783935547

> <r_mmod_Improper_Torsional_Energy-OPLS-2005>
16.7545185089111

> <r_mmod_Van_der_Waal_Energy-OPLS-2005>
114.858131408691

> <r_mmod_Electrostatic_Energy-OPLS-2005>
98.7473068237305

> <r_mmod_Solvation_Energy-OPLS-2005>
-919.4296875

> <b_mmod_Minimization_Converged-OPLS-2005>
0

> <r_mmod_RMS_Derivative-OPLS-2005>
2.89135813713074

$$$$
15
                    3D
 Structure written by MMmdl.
156165  0  0  1  0            999 V2000
  -30.5596  -14.9241   20.4310 C   0  0  0  0  0  0
  -30.4397  -12.5697   19.5087 C   0  0  0  0  0  0
  -29.5250  -12.5341   18.2612 C   0  0  0  0  0  0
  -28.0542  -12.3264   18.6710 C   0  0  0  0  0  0
  -27.6339  -13.2487   19.8461 C   0  0  2  0  0  0
  -28.6757  -13.2619   20.9871 C   0  0  0  0  0  0
  -25.2470  -13.8218   20.5711 C   0  0  0  0  0  0
  -24.1783  -13.0439   20.9223 C   0  0  0  0  0  0
  -24.6397  -11.6923   20.8749 C   0  0  0  0  0  0
  -23.9071  -10.4298   21.0395 C   0  0  0  0  0  0
  -24.3615   -9.4211   21.9182 C   0  0  0  0  0  0
  -23.6299   -8.2241   22.0747 C   0  0  0  0  0  0
  -22.4286   -8.0279   21.3529 C   0  0  0  0  0  0
  -21.9918   -9.0256   20.4631 C   0  0  0  0  0  0
  -22.7237  -10.2141   20.3042 C   0  0  0  0  0  0
  -21.6857   -6.0729   22.5278 C   0  0  0  0  0  0
  -21.4013   -6.5636   23.8211 C   0  0  0  0  0  0
  -21.3666   -5.6783   24.9176 C   0  0  0  0  0  0
  -21.6054   -4.3048   24.7225 C   0  0  0  0  0  0
  -21.8818   -3.8135   23.4346 C   0  0  0  0  0  0
  -21.9192   -4.6954   22.3397 C   0  0  0  0  0  0
  -22.7807  -13.5217   21.1875 C   0  0  0  0  0  0
  -22.1660   -4.2129   21.0977 F   0  0  0  0  0  0
  -21.5635   -3.4534   25.7742 F   0  0  0  0  0  0
  -29.9604  -13.6665   20.3998 N   0  0  0  0  0  0
  -26.2900  -12.9451   20.3267 N   0  0  0  0  0  0
  -25.9334  -11.6576   20.5741 N   0  0  0  0  0  0
  -22.0438  -12.8218   22.0426 N   0  0  0  0  0  0
  -25.4151  -15.1946   20.4130 N   0  0  0  0  0  0
  -31.7496  -14.9939   20.1057 O   0  0  0  0  0  0
  -21.6638   -6.8884   21.4240 O   0  0  0  0  0  0
  -22.3501  -14.5522   20.6709 O   0  0  0  0  0  0
  -24.6435  -31.8464   23.1896 C   0  0  0  0  0  0
  -25.9207  -32.4705   23.8289 C   0  0  1  0  0  0
  -27.2135  -27.1365   20.1537 C   0  0  0  0  0  0
  -25.5956  -33.8510   24.2208 N   0  0  0  0  0  0
  -23.4478  -30.4665   21.5363 C   0  0  2  0  0  0
  -24.8980  -28.8990   20.1097 C   0  0  0  0  0  0
  -22.7573  -29.4559   22.4865 C   0  0  0  0  0  0
  -18.0306  -28.1388   22.8478 C   0  0  0  0  0  0
  -24.1495  -36.7255   23.2640 C   0  0  0  0  0  0
  -26.0051  -30.7199   21.3905 C   0  0  0  0  0  0
  -26.0758  -29.3326   20.7299 C   0  0  0  0  0  0
  -27.2347  -28.4671   20.7371 C   0  0  0  0  0  0
  -26.0124  -26.8171   19.4771 C   0  0  0  0  0  0
  -24.8789  -27.6540   19.4676 C   0  0  0  0  0  0
  -23.6740  -29.7990   20.1551 C   0  0  0  0  0  0
  -25.4126  -36.3040   24.0318 C   0  0  1  0  0  0
  -20.5919  -28.3721   23.1233 C   0  0  2  0  0  0
  -20.6795  -26.9425   22.5405 C   0  0  0  0  0  0
  -19.5766  -26.6379   21.5214 C   0  0  0  0  0  0
  -18.1946  -26.7932   22.1622 C   0  0  0  0  0  0
  -19.1561  -28.8872   23.2850 C   0  0  0  0  0  0
  -18.9476  -30.1468   23.8873 C   0  0  0  0  0  0
  -17.6472  -30.6590   24.0551 C   0  0  0  0  0  0
  -25.9076  -34.9411   23.5076 C   0  0  0  0  0  0
  -16.5364  -29.9078   23.6330 C   0  0  0  0  0  0
  -16.7294  -28.6494   23.0361 C   0  0  0  0  0  0
  -26.4519  -31.6564   25.0727 C   0  0  0  0  0  0
  -25.3690  -31.3754   26.1413 C   0  0  0  0  0  0
  -27.0382  -30.2957   24.6319 C   0  0  0  0  0  0
  -27.6061  -32.4314   25.7506 C   0  0  0  0  0  0
  -27.5581  -37.1783   24.8461 C   0  0  0  0  0  0
  -21.4267  -29.3043   22.3606 N   0  0  0  0  0  0
  -26.4293  -37.3750   23.9400 N   0  0  0  0  0  0
  -24.7184  -31.0320   22.0933 N   0  0  0  0  0  0
  -23.4220  -28.8104   23.3011 O   0  0  0  0  0  0
  -28.2463  -26.1288   20.2552 O   0  0  0  0  0  0
  -26.5663  -34.8906   22.4653 O   0  0  0  0  0  0
  -23.5544  -32.1337   23.7104 O   0  0  0  0  0  0
  -30.0888  -22.0422   21.6888 C   0  0  0  0  0  0
  -29.6427  -23.3544   21.5395 C   0  0  0  0  0  0
  -29.4532  -21.2275   20.6862 C   0  0  0  0  0  0
  -30.4154  -18.7465   21.2530 C   0  0  0  0  0  0
  -28.8586  -18.6385   19.9248 C   0  0  0  0  0  0
  -30.0597  -17.6107   20.2042 C   0  0  0  0  0  0
  -31.0932  -21.5583   22.7076 C   0  0  0  0  0  0
  -29.9744  -24.5802   22.3338 C   0  0  0  0  0  0
  -27.9061  -24.6708   19.9556 C   0  0  0  0  0  0
  -28.6558  -22.1119   19.9803 N   0  0  0  0  0  0
  -28.7625  -23.4486   20.4730 N   0  0  0  0  0  0
  -29.7449  -19.7543   20.3677 N   0  0  0  0  0  0
  -29.7948  -16.1058   20.6100 N   0  0  0  0  0  0
  -31.4768  -12.7152   19.2016 H   0  0  0  0  0  0
  -30.4194  -11.6117   20.0301 H   0  0  0  0  0  0
  -29.8418  -11.7404   17.5830 H   0  0  0  0  0  0
  -29.6233  -13.4693   17.7080 H   0  0  0  0  0  0
  -27.9380  -11.2829   18.9643 H   0  0  0  0  0  0
  -27.3915  -12.4733   17.8160 H   0  0  0  0  0  0
  -27.6038  -14.2561   19.4314 H   0  0  0  0  0  0
  -28.7545  -12.2809   21.4563 H   0  0  0  0  0  0
  -28.3774  -13.9564   21.7738 H   0  0  0  0  0  0
  -25.2751   -9.5704   22.4769 H   0  0  0  0  0  0
  -23.9999   -7.4639   22.7484 H   0  0  0  0  0  0
  -21.0837   -8.8774   19.8960 H   0  0  0  0  0  0
  -22.3680  -10.9679   19.6152 H   0  0  0  0  0  0
  -21.2002   -7.6148   23.9716 H   0  0  0  0  0  0
  -21.1494   -6.0509   25.9081 H   0  0  0  0  0  0
  -22.0593   -2.7598   23.2838 H   0  0  0  0  0  0
  -22.4022  -11.9871   22.4827 H   0  0  0  0  0  0
  -21.1053  -13.1262   22.2611 H   0  0  0  0  0  0
  -24.6465  -15.8469   20.5279 H   0  0  0  0  0  0
  -26.2540  -15.6323   20.0547 H   0  0  0  0  0  0
  -26.7278  -32.5317   23.1021 H   0  0  0  0  0  0
  -25.0061  -33.9632   25.0327 H   0  0  0  0  0  0
  -22.7501  -31.2924   21.3825 H   0  0  0  0  0  0
  -23.3773  -35.9572   23.3297 H   0  0  0  0  0  0
  -24.3584  -36.8888   22.2057 H   0  0  0  0  0  0
  -23.7236  -37.6444   23.6677 H   0  0  0  0  0  0
  -26.1635  -31.4770   20.6213 H   0  0  0  0  0  0
  -26.8738  -30.7675   22.0351 H   0  0  0  0  0  0
  -28.1289  -28.7930   21.2487 H   0  0  0  0  0  0
  -25.9005  -25.8735   18.9661 H   0  0  0  0  0  0
  -23.9806  -27.3179   18.9684 H   0  0  0  0  0  0
  -23.8079  -30.5742   19.4001 H   0  0  0  0  0  0
  -22.7904  -29.2386   19.8449 H   0  0  0  0  0  0
  -25.1315  -36.1877   25.0814 H   0  0  0  0  0  0
  -21.0015  -28.3306   24.1351 H   0  0  0  0  0  0
  -20.5690  -26.2330   23.3622 H   0  0  0  0  0  0
  -21.6656  -26.7433   22.1196 H   0  0  0  0  0  0
  -19.6929  -25.6283   21.1259 H   0  0  0  0  0  0
  -19.6707  -27.3173   20.6729 H   0  0  0  0  0  0
  -17.4223  -26.6681   21.4023 H   0  0  0  0  0  0
  -18.0346  -26.0078   22.9020 H   0  0  0  0  0  0
  -19.7949  -30.7290   24.2237 H   0  0  0  0  0  0
  -17.5024  -31.6267   24.5157 H   0  0  0  0  0  0
  -15.5364  -30.2968   23.7670 H   0  0  0  0  0  0
  -15.8696  -28.0802   22.7088 H   0  0  0  0  0  0
  -24.5877  -30.7107   25.7709 H   0  0  0  0  0  0
  -24.8865  -32.2935   26.4778 H   0  0  0  0  0  0
  -25.7953  -30.8952   27.0231 H   0  0  0  0  0  0
  -26.3001  -29.6676   24.1323 H   0  0  0  0  0  0
  -27.3974  -29.7262   25.4901 H   0  0  0  0  0  0
  -27.8919  -30.4176   23.9651 H   0  0  0  0  0  0
  -27.2676  -33.3631   26.2046 H   0  0  0  0  0  0
  -28.3894  -32.6847   25.0350 H   0  0  0  0  0  0
  -28.0714  -31.8464   26.5448 H   0  0  0  0  0  0
  -28.2588  -38.0090   24.7526 H   0  0  0  0  0  0
  -28.1094  -36.2625   24.6279 H   0  0  0  0  0  0
  -27.2302  -37.1409   25.8862 H   0  0  0  0  0  0
  -20.9477  -29.8751   21.6779 H   0  0  0  0  0  0
  -26.0172  -38.2823   24.1401 H   0  0  0  0  0  0
  -31.4871  -18.9113   21.3722 H   0  0  0  0  0  0
  -29.9153  -18.6330   22.2165 H   0  0  0  0  0  0
  -27.9972  -18.5071   20.5823 H   0  0  0  0  0  0
  -28.5601  -18.7070   18.8773 H   0  0  0  0  0  0
  -30.7736  -17.6522   19.3789 H   0  0  0  0  0  0
  -31.2568  -22.2712   23.5139 H   0  0  0  0  0  0
  -32.0655  -21.3655   22.2516 H   0  0  0  0  0  0
  -30.7747  -20.6347   23.1893 H   0  0  0  0  0  0
  -30.7170  -24.3877   23.1052 H   0  0  0  0  0  0
  -29.0848  -24.9769   22.8239 H   0  0  0  0  0  0
  -30.3724  -25.3635   21.6886 H   0  0  0  0  0  0
  -26.9111  -24.4805   20.3592 H   0  0  0  0  0  0
  -27.8437  -24.5686   18.8711 H   0  0  0  0  0  0
  -28.8443  -15.9230   20.8949 H   0  0  0  0  0  0
  1 25  1  0  0  0
  1 30  2  0  0  0
  1 83  1  0  0  0
  2  3  1  0  0  0
  2 25  1  0  0  0
  2 84  1  0  0  0
  2 85  1  0  0  0
  3  4  1  0  0  0
  3 86  1  0  0  0
  3 87  1  0  0  0
  4  5  1  0  0  0
  4 88  1  0  0  0
  4 89  1  0  0  0
  5  6  1  0  0  0
  5 26  1  0  0  0
  5 90  1  0  0  0
  6 25  1  0  0  0
  6 91  1  0  0  0
  6 92  1  0  0  0
  7  8  2  0  0  0
  7 26  1  0  0  0
  7 29  1  0  0  0
  8  9  1  0  0  0
  8 22  1  0  0  0
  9 10  1  0  0  0
  9 27  2  0  0  0
 10 11  2  0  0  0
 10 15  1  0  0  0
 11 12  1  0  0  0
 11 93  1  0  0  0
 12 13  2  0  0  0
 12 94  1  0  0  0
 13 14  1  0  0  0
 13 31  1  0  0  0
 14 15  2  0  0  0
 14 95  1  0  0  0
 15 96  1  0  0  0
 16 17  2  0  0  0
 16 21  1  0  0  0
 16 31  1  0  0  0
 17 18  1  0  0  0
 17 97  1  0  0  0
 18 19  2  0  0  0
 18 98  1  0  0  0
 19 20  1  0  0  0
 19 24  1  0  0  0
 20 21  2  0  0  0
 20 99  1  0  0  0
 21 23  1  0  0  0
 22 28  1  0  0  0
 22 32  2  0  0  0
 26 27  1  0  0  0
 28100  1  0  0  0
 28101  1  0  0  0
 29102  1  0  0  0
 29103  1  0  0  0
 33 34  1  0  0  0
 33 66  1  0  0  0
 33 70  2  0  0  0
 34 36  1  0  0  0
 34 59  1  0  0  0
 34104  1  0  0  0
 35 44  2  0  0  0
 35 45  1  0  0  0
 35 68  1  0  0  0
 36 56  1  0  0  0
 36105  1  0  0  0
 37 39  1  0  0  0
 37 47  1  0  0  0
 37 66  1  0  0  0
 37106  1  0  0  0
 38 43  2  0  0  0
 38 46  1  0  0  0
 38 47  1  0  0  0
 39 64  1  0  0  0
 39 67  2  0  0  0
 40 52  1  0  0  0
 40 53  2  0  0  0
 40 58  1  0  0  0
 41107  1  0  0  0
 41108  1  0  0  0
 41109  1  0  0  0
 41 48  1  0  0  0
 42 43  1  0  0  0
 42 66  1  0  0  0
 42110  1  0  0  0
 42111  1  0  0  0
 43 44  1  0  0  0
 44112  1  0  0  0
 45 46  2  0  0  0
 45113  1  0  0  0
 46114  1  0  0  0
 47115  1  0  0  0
 47116  1  0  0  0
 48 56  1  0  0  0
 48 65  1  0  0  0
 48117  1  0  0  0
 49 50  1  0  0  0
 49 53  1  0  0  0
 49 64  1  0  0  0
 49118  1  0  0  0
 50 51  1  0  0  0
 50119  1  0  0  0
 50120  1  0  0  0
 51 52  1  0  0  0
 51121  1  0  0  0
 51122  1  0  0  0
 52123  1  0  0  0
 52124  1  0  0  0
 53 54  1  0  0  0
 54 55  2  0  0  0
 54125  1  0  0  0
 55 57  1  0  0  0
 55126  1  0  0  0
 56 69  2  0  0  0
 57 58  2  0  0  0
 57127  1  0  0  0
 58128  1  0  0  0
 59 60  1  0  0  0
 59 61  1  0  0  0
 59 62  1  0  0  0
 60129  1  0  0  0
 60130  1  0  0  0
 60131  1  0  0  0
 61132  1  0  0  0
 61133  1  0  0  0
 61134  1  0  0  0
 62135  1  0  0  0
 62136  1  0  0  0
 62137  1  0  0  0
 63 65  1  0  0  0
 63138  1  0  0  0
 63139  1  0  0  0
 63140  1  0  0  0
 64141  1  0  0  0
 65142  1  0  0  0
 68 79  1  0  0  0
 71 72  2  0  0  0
 71 73  1  0  0  0
 71 77  1  0  0  0
 72 78  1  0  0  0
 72 81  1  0  0  0
 73 80  2  0  0  0
 73 82  1  0  0  0
 74 76  1  0  0  0
 74 82  1  0  0  0
 74143  1  0  0  0
 74144  1  0  0  0
 75 76  1  0  0  0
 75 82  1  0  0  0
 75145  1  0  0  0
 75146  1  0  0  0
 76 83  1  0  0  0
 76147  1  0  0  0
 77148  1  0  0  0
 77149  1  0  0  0
 77150  1  0  0  0
 78151  1  0  0  0
 78152  1  0  0  0
 78153  1  0  0  0
 79 81  1  0  0  0
 79154  1  0  0  0
 79155  1  0  0  0
 80 81  1  0  0  0
 83156  1  0  0  0
M  ISO  4   1 100  68 101  79 101  83 100
M  END
> <chiral flag>
0

> <version>
0

> <s_m_source_file>
/data/baiqing/PycharmProjects/Reinvent-master-3.2/result/LINK_invent/BTK/process_docking_weight1_custom_sum_contain_oxygen_bond_distance_aromatic_linkinvent_7_9_3/rearranged_h_0198.sdf

> <i_m_source_file_index>
16

> <r_mmod_Potential_Energy-OPLS-2005>
341.746856689453

> <r_mmod_Stretch_Energy-OPLS-2005>
218.758728027344

> <r_mmod_Bend_Energy-OPLS-2005>
306.705017089844

> <r_mmod_Torsional_Energy-OPLS-2005>
229.493530273438

> <r_mmod_Improper_Torsional_Energy-OPLS-2005>
11.9142713546753

> <r_mmod_Van_der_Waal_Energy-OPLS-2005>
115.61979675293

> <r_mmod_Electrostatic_Energy-OPLS-2005>
-473.807861328125

> <r_mmod_Solvation_Energy-OPLS-2005>
-253.060134887695

> <b_mmod_Minimization_Converged-OPLS-2005>
0

> <r_mmod_RMS_Derivative-OPLS-2005>
1.935706615448

$$$$
16
                    3D
 Structure written by MMmdl.
147156  0  0  1  0            999 V2000
  -30.4828  -15.0773   20.3936 C   0  0  0  0  0  0
  -30.4427  -12.6669   19.5318 C   0  0  0  0  0  0
  -29.5344  -12.5541   18.2822 C   0  0  0  0  0  0
  -28.0707  -12.3160   18.6947 C   0  0  0  0  0  0
  -27.6274  -13.2596   19.8423 C   0  0  2  0  0  0
  -28.6624  -13.3323   20.9872 C   0  0  0  0  0  0
  -25.2441  -13.8231   20.5725 C   0  0  0  0  0  0
  -24.1767  -13.0440   20.9231 C   0  0  0  0  0  0
  -24.6399  -11.6930   20.8751 C   0  0  0  0  0  0
  -23.9086  -10.4295   21.0402 C   0  0  0  0  0  0
  -24.3633   -9.4208   21.9180 C   0  0  0  0  0  0
  -23.6303   -8.2245   22.0751 C   0  0  0  0  0  0
  -22.4284   -8.0284   21.3544 C   0  0  0  0  0  0
  -21.9922   -9.0258   20.4646 C   0  0  0  0  0  0
  -22.7255  -10.2135   20.3054 C   0  0  0  0  0  0
  -21.6856   -6.0738   22.5279 C   0  0  0  0  0  0
  -21.4016   -6.5641   23.8213 C   0  0  0  0  0  0
  -21.3660   -5.6793   24.9174 C   0  0  0  0  0  0
  -21.6044   -4.3055   24.7224 C   0  0  0  0  0  0
  -21.8818   -3.8147   23.4345 C   0  0  0  0  0  0
  -21.9193   -4.6965   22.3401 C   0  0  0  0  0  0
  -22.7786  -13.5203   21.1885 C   0  0  0  0  0  0
  -22.1661   -4.2150   21.0979 F   0  0  0  0  0  0
  -21.5629   -3.4539   25.7736 F   0  0  0  0  0  0
  -29.9305  -13.7822   20.3955 N   0  0  0  0  0  0
  -26.2874  -12.9483   20.3255 N   0  0  0  0  0  0
  -25.9336  -11.6600   20.5736 N   0  0  0  0  0  0
  -22.0441  -12.8191   22.0444 N   0  0  0  0  0  0
  -25.4100  -15.1962   20.4162 N   0  0  0  0  0  0
  -31.6636  -15.1465   20.0302 O   0  0  0  0  0  0
  -21.6644   -6.8883   21.4241 O   0  0  0  0  0  0
  -22.3466  -14.5504   20.6725 O   0  0  0  0  0  0
  -24.6508  -31.8340   23.1792 C   0  0  0  0  0  0
  -25.9242  -32.4639   23.8218 C   0  0  1  0  0  0
  -27.2251  -27.0477   20.1593 C   0  0  0  0  0  0
  -25.5956  -33.8451   24.2128 N   0  0  0  0  0  0
  -23.4603  -30.4482   21.5248 C   0  0  2  0  0  0
  -24.9141  -28.8583   20.1019 C   0  0  0  0  0  0
  -22.7608  -29.4487   22.4811 C   0  0  0  0  0  0
  -18.0312  -28.1402   22.8471 C   0  0  0  0  0  0
  -24.1494  -36.7233   23.2648 C   0  0  0  0  0  0
  -26.0206  -30.6768   21.3938 C   0  0  0  0  0  0
  -26.0895  -29.2798   20.7343 C   0  0  0  0  0  0
  -27.2363  -28.3879   20.7512 C   0  0  0  0  0  0
  -26.0256  -26.7492   19.4757 C   0  0  0  0  0  0
  -24.9003  -27.6102   19.4566 C   0  0  0  0  0  0
  -23.6926  -29.7698   20.1461 C   0  0  0  0  0  0
  -25.4133  -36.3000   24.0307 C   0  0  1  0  0  0
  -20.5929  -28.3735   23.1215 C   0  0  2  0  0  0
  -20.6791  -26.9427   22.5408 C   0  0  0  0  0  0
  -19.5767  -26.6377   21.5215 C   0  0  0  0  0  0
  -18.1948  -26.7938   22.1622 C   0  0  0  0  0  0
  -19.1570  -28.8888   23.2832 C   0  0  0  0  0  0
  -18.9484  -30.1481   23.8863 C   0  0  0  0  0  0
  -17.6479  -30.6595   24.0557 C   0  0  0  0  0  0
  -25.9084  -34.9377   23.5033 C   0  0  0  0  0  0
  -16.5370  -29.9085   23.6340 C   0  0  0  0  0  0
  -16.7295  -28.6505   23.0358 C   0  0  0  0  0  0
  -26.4535  -31.6551   25.0705 C   0  0  0  0  0  0
  -25.3692  -31.3780   26.1385 C   0  0  0  0  0  0
  -27.0414  -30.2928   24.6371 C   0  0  0  0  0  0
  -27.6045  -32.4343   25.7497 C   0  0  0  0  0  0
  -27.5568  -37.1785   24.8473 C   0  0  0  0  0  0
  -21.4290  -29.3039   22.3567 N   0  0  0  0  0  0
  -26.4294  -37.3717   23.9392 N   0  0  0  0  0  0
  -24.7305  -31.0108   22.0868 N   0  0  0  0  0  0
  -23.4209  -28.8053   23.3009 O   0  0  0  0  0  0
  -28.2508  -26.0164   20.3215 O   0  0  0  0  0  0
  -26.5683  -34.8892   22.4621 O   0  0  0  0  0  0
  -23.5606  -32.1261   23.6955 O   0  0  0  0  0  0
  -27.2174  -22.1568   20.0105 C   0  0  0  0  0  0
  -28.3790  -22.9904   20.1035 C   0  0  0  0  0  0
  -30.7209  -18.8187   20.4373 C   0  0  0  0  0  0
  -29.3357  -19.2591   20.8744 C   0  0  2  0  0  0
  -29.6597  -17.7792   20.0929 C   0  0  2  0  0  0
  -28.4146  -24.6115   19.5925 C   0  0  0  0  0  0
  -27.4444  -20.8500   20.1446 N   0  0  0  0  0  0
  -29.3583  -22.0408   20.3355 N   0  0  0  0  0  0
  -28.7880  -20.6972   20.3273 N   0  0  0  0  0  0
  -29.6916  -16.2676   20.6279 N   0  0  0  0  0  0
  -31.4750  -12.8344   19.2215 H   0  0  0  0  0  0
  -30.4547  -11.7269   20.0860 H   0  0  0  0  0  0
  -29.8786  -11.7474   17.6335 H   0  0  0  0  0  0
  -29.6051  -13.4715   17.6957 H   0  0  0  0  0  0
  -27.9858  -11.2786   19.0198 H   0  0  0  0  0  0
  -27.4088  -12.4214   17.8343 H   0  0  0  0  0  0
  -27.5775  -14.2525   19.3942 H   0  0  0  0  0  0
  -28.7735  -12.3663   21.4820 H   0  0  0  0  0  0
  -28.3344  -14.0353   21.7542 H   0  0  0  0  0  0
  -25.2775   -9.5683   22.4757 H   0  0  0  0  0  0
  -24.0010   -7.4637   22.7472 H   0  0  0  0  0  0
  -21.0851   -8.8782   19.8954 H   0  0  0  0  0  0
  -22.3713  -10.9676   19.6165 H   0  0  0  0  0  0
  -21.2011   -7.6150   23.9717 H   0  0  0  0  0  0
  -21.1483   -6.0522   25.9077 H   0  0  0  0  0  0
  -22.0597   -2.7610   23.2844 H   0  0  0  0  0  0
  -22.4072  -11.9865   22.4841 H   0  0  0  0  0  0
  -21.1054  -13.1204   22.2647 H   0  0  0  0  0  0
  -24.6391  -15.8463   20.5260 H   0  0  0  0  0  0
  -26.2512  -15.6377   20.0677 H   0  0  0  0  0  0
  -26.7306  -32.5211   23.0936 H   0  0  0  0  0  0
  -25.0067  -33.9551   25.0253 H   0  0  0  0  0  0
  -22.7675  -31.2765   21.3625 H   0  0  0  0  0  0
  -23.3749  -35.9575   23.3328 H   0  0  0  0  0  0
  -24.3562  -36.8851   22.2057 H   0  0  0  0  0  0
  -23.7270  -37.6441   23.6682 H   0  0  0  0  0  0
  -26.1904  -31.4265   20.6200 H   0  0  0  0  0  0
  -26.8848  -30.7273   22.0444 H   0  0  0  0  0  0
  -28.1221  -28.6988   21.2873 H   0  0  0  0  0  0
  -25.9082  -25.7870   19.0011 H   0  0  0  0  0  0
  -24.0022  -27.2807   18.9524 H   0  0  0  0  0  0
  -23.8342  -30.5418   19.3890 H   0  0  0  0  0  0
  -22.8059  -29.2152   19.8342 H   0  0  0  0  0  0
  -25.1334  -36.1818   25.0802 H   0  0  0  0  0  0
  -21.0023  -28.3336   24.1336 H   0  0  0  0  0  0
  -20.5673  -26.2352   23.3639 H   0  0  0  0  0  0
  -21.6656  -26.7415   22.1214 H   0  0  0  0  0  0
  -19.6927  -25.6277   21.1271 H   0  0  0  0  0  0
  -19.6709  -27.3165   20.6728 H   0  0  0  0  0  0
  -17.4219  -26.6681   21.4024 H   0  0  0  0  0  0
  -18.0343  -26.0089   22.9027 H   0  0  0  0  0  0
  -19.7960  -30.7306   24.2217 H   0  0  0  0  0  0
  -17.5032  -31.6271   24.5165 H   0  0  0  0  0  0
  -15.5368  -30.2975   23.7685 H   0  0  0  0  0  0
  -15.8696  -28.0812   22.7093 H   0  0  0  0  0  0
  -24.5881  -30.7116   25.7706 H   0  0  0  0  0  0
  -24.8871  -32.2976   26.4712 H   0  0  0  0  0  0
  -25.7949  -30.9019   27.0226 H   0  0  0  0  0  0
  -26.3056  -29.6627   24.1362 H   0  0  0  0  0  0
  -27.3961  -29.7265   25.4994 H   0  0  0  0  0  0
  -27.8993  -30.4128   23.9752 H   0  0  0  0  0  0
  -27.2620  -33.3671   26.1990 H   0  0  0  0  0  0
  -28.3898  -32.6862   25.0357 H   0  0  0  0  0  0
  -28.0669  -31.8529   26.5484 H   0  0  0  0  0  0
  -28.2613  -38.0050   24.7453 H   0  0  0  0  0  0
  -28.1034  -36.2575   24.6388 H   0  0  0  0  0  0
  -27.2272  -37.1537   25.8874 H   0  0  0  0  0  0
  -20.9520  -29.8733   21.6716 H   0  0  0  0  0  0
  -26.0155  -38.2791   24.1353 H   0  0  0  0  0  0
  -26.2181  -22.4949   19.7707 H   0  0  0  0  0  0
  -31.4212  -18.5777   21.2339 H   0  0  0  0  0  0
  -31.1670  -19.3532   19.6010 H   0  0  0  0  0  0
  -29.1196  -19.2026   21.9391 H   0  0  0  0  0  0
  -29.3415  -17.8076   19.0524 H   0  0  0  0  0  0
  -27.7548  -24.6646   18.7283 H   0  0  0  0  0  0
  -29.3946  -24.7298   19.1304 H   0  0  0  0  0  0
  -28.8041  -16.0125   21.0371 H   0  0  0  0  0  0
  1 25  1  0  0  0
  1 30  2  0  0  0
  1 80  1  0  0  0
  2  3  1  0  0  0
  2 25  1  0  0  0
  2 81  1  0  0  0
  2 82  1  0  0  0
  3  4  1  0  0  0
  3 83  1  0  0  0
  3 84  1  0  0  0
  4  5  1  0  0  0
  4 85  1  0  0  0
  4 86  1  0  0  0
  5  6  1  0  0  0
  5 26  1  0  0  0
  5 87  1  0  0  0
  6 25  1  0  0  0
  6 88  1  0  0  0
  6 89  1  0  0  0
  7  8  2  0  0  0
  7 26  1  0  0  0
  7 29  1  0  0  0
  8  9  1  0  0  0
  8 22  1  0  0  0
  9 10  1  0  0  0
  9 27  2  0  0  0
 10 11  2  0  0  0
 10 15  1  0  0  0
 11 12  1  0  0  0
 11 90  1  0  0  0
 12 13  2  0  0  0
 12 91  1  0  0  0
 13 14  1  0  0  0
 13 31  1  0  0  0
 14 15  2  0  0  0
 14 92  1  0  0  0
 15 93  1  0  0  0
 16 17  2  0  0  0
 16 21  1  0  0  0
 16 31  1  0  0  0
 17 18  1  0  0  0
 17 94  1  0  0  0
 18 19  2  0  0  0
 18 95  1  0  0  0
 19 20  1  0  0  0
 19 24  1  0  0  0
 20 21  2  0  0  0
 20 96  1  0  0  0
 21 23  1  0  0  0
 22 28  1  0  0  0
 22 32  2  0  0  0
 26 27  1  0  0  0
 28 97  1  0  0  0
 28 98  1  0  0  0
 29 99  1  0  0  0
 29100  1  0  0  0
 33 34  1  0  0  0
 33 66  1  0  0  0
 33 70  2  0  0  0
 34 36  1  0  0  0
 34 59  1  0  0  0
 34101  1  0  0  0
 35 44  2  0  0  0
 35 45  1  0  0  0
 35 68  1  0  0  0
 36 56  1  0  0  0
 36102  1  0  0  0
 37 39  1  0  0  0
 37 47  1  0  0  0
 37 66  1  0  0  0
 37103  1  0  0  0
 38 43  2  0  0  0
 38 46  1  0  0  0
 38 47  1  0  0  0
 39 64  1  0  0  0
 39 67  2  0  0  0
 40 52  1  0  0  0
 40 53  2  0  0  0
 40 58  1  0  0  0
 41104  1  0  0  0
 41105  1  0  0  0
 41106  1  0  0  0
 41 48  1  0  0  0
 42 43  1  0  0  0
 42 66  1  0  0  0
 42107  1  0  0  0
 42108  1  0  0  0
 43 44  1  0  0  0
 44109  1  0  0  0
 45 46  2  0  0  0
 45110  1  0  0  0
 46111  1  0  0  0
 47112  1  0  0  0
 47113  1  0  0  0
 48 56  1  0  0  0
 48 65  1  0  0  0
 48114  1  0  0  0
 49 50  1  0  0  0
 49 53  1  0  0  0
 49 64  1  0  0  0
 49115  1  0  0  0
 50 51  1  0  0  0
 50116  1  0  0  0
 50117  1  0  0  0
 51 52  1  0  0  0
 51118  1  0  0  0
 51119  1  0  0  0
 52120  1  0  0  0
 52121  1  0  0  0
 53 54  1  0  0  0
 54 55  2  0  0  0
 54122  1  0  0  0
 55 57  1  0  0  0
 55123  1  0  0  0
 56 69  2  0  0  0
 57 58  2  0  0  0
 57124  1  0  0  0
 58125  1  0  0  0
 59 60  1  0  0  0
 59 61  1  0  0  0
 59 62  1  0  0  0
 60126  1  0  0  0
 60127  1  0  0  0
 60128  1  0  0  0
 61129  1  0  0  0
 61130  1  0  0  0
 61131  1  0  0  0
 62132  1  0  0  0
 62133  1  0  0  0
 62134  1  0  0  0
 63 65  1  0  0  0
 63135  1  0  0  0
 63136  1  0  0  0
 63137  1  0  0  0
 64138  1  0  0  0
 65139  1  0  0  0
 68 76  1  0  0  0
 71 72  1  0  0  0
 71 77  2  0  0  0
 71140  1  0  0  0
 72 76  1  0  0  0
 72 78  2  0  0  0
 73 74  1  0  0  0
 73 75  1  0  0  0
 73141  1  0  0  0
 73142  1  0  0  0
 74 75  1  0  0  0
 74 79  1  0  0  0
 74143  1  0  0  0
 75 80  1  0  0  0
 75144  1  0  0  0
 76145  1  0  0  0
 76146  1  0  0  0
 77 79  1  0  0  0
 78 79  1  0  0  0
 80147  1  0  0  0
M  ISO  4   1 100  68 101  76 101  80 100
M  END
> <chiral flag>
0

> <version>
0

> <s_m_source_file>
/data/baiqing/PycharmProjects/Reinvent-master-3.2/result/LINK_invent/BTK/process_docking_weight1_custom_sum_contain_oxygen_bond_distance_aromatic_linkinvent_7_9_3/rearranged_h_0198.sdf

> <i_m_source_file_index>
17

> <r_mmod_Potential_Energy-OPLS-2005>
914.500061035156

> <r_mmod_Stretch_Energy-OPLS-2005>
375.707672119141

> <r_mmod_Bend_Energy-OPLS-2005>
373.553436279297

> <r_mmod_Torsional_Energy-OPLS-2005>
310.338104248047

> <r_mmod_Improper_Torsional_Energy-OPLS-2005>
11.636137008667

> <r_mmod_Van_der_Waal_Energy-OPLS-2005>
105.971237182617

> <r_mmod_Electrostatic_Energy-OPLS-2005>
-319.47705078125

> <r_mmod_Solvation_Energy-OPLS-2005>
-236.08171081543

> <b_mmod_Minimization_Converged-OPLS-2005>
0

> <r_mmod_RMS_Derivative-OPLS-2005>
0.246246039867401

$$$$
17
                    3D
 Structure written by MMmdl.
159168  0  0  1  0            999 V2000
  -30.4757  -15.2661   20.3650 C   0  0  0  0  0  0
  -30.4284  -12.8164   19.5130 C   0  0  0  0  0  0
  -29.5248  -12.5579   18.2840 C   0  0  0  0  0  0
  -28.0807  -12.2802   18.7277 C   0  0  0  0  0  0
  -27.6077  -13.2736   19.8174 C   0  0  2  0  0  0
  -28.6433  -13.4787   20.9429 C   0  0  0  0  0  0
  -25.2405  -13.8242   20.5775 C   0  0  0  0  0  0
  -24.1749  -13.0441   20.9264 C   0  0  0  0  0  0
  -24.6398  -11.6935   20.8781 C   0  0  0  0  0  0
  -23.9096  -10.4293   21.0423 C   0  0  0  0  0  0
  -24.3645   -9.4204   21.9188 C   0  0  0  0  0  0
  -23.6315   -8.2241   22.0760 C   0  0  0  0  0  0
  -22.4292   -8.0282   21.3559 C   0  0  0  0  0  0
  -21.9931   -9.0258   20.4661 C   0  0  0  0  0  0
  -22.7261  -10.2134   20.3078 C   0  0  0  0  0  0
  -21.6840   -6.0750   22.5286 C   0  0  0  0  0  0
  -21.3990   -6.5651   23.8214 C   0  0  0  0  0  0
  -21.3656   -5.6804   24.9175 C   0  0  0  0  0  0
  -21.6047   -4.3073   24.7228 C   0  0  0  0  0  0
  -21.8809   -3.8161   23.4346 C   0  0  0  0  0  0
  -21.9190   -4.6978   22.3403 C   0  0  0  0  0  0
  -22.7766  -13.5203   21.1899 C   0  0  0  0  0  0
  -22.1665   -4.2165   21.0983 F   0  0  0  0  0  0
  -21.5640   -3.4556   25.7740 F   0  0  0  0  0  0
  -29.8669  -13.9800   20.2982 N   0  0  0  0  0  0
  -26.2822  -12.9520   20.3245 N   0  0  0  0  0  0
  -25.9332  -11.6628   20.5760 N   0  0  0  0  0  0
  -22.0428  -12.8180   22.0451 N   0  0  0  0  0  0
  -25.4076  -15.1967   20.4256 N   0  0  0  0  0  0
  -31.7047  -15.1945   20.2115 O   0  0  0  0  0  0
  -21.6649   -6.8883   21.4249 O   0  0  0  0  0  0
  -22.3450  -14.5514   20.6748 O   0  0  0  0  0  0
  -24.6660  -31.8237   23.1685 C   0  0  0  0  0  0
  -25.9332  -32.4597   23.8169 C   0  0  1  0  0  0
  -27.2238  -26.9312   20.1947 C   0  0  0  0  0  0
  -25.5983  -33.8406   24.2086 N   0  0  0  0  0  0
  -23.4811  -30.4351   21.5155 C   0  0  2  0  0  0
  -24.9348  -28.8170   20.1175 C   0  0  0  0  0  0
  -22.7672  -29.4465   22.4752 C   0  0  0  0  0  0
  -18.0322  -28.1431   22.8468 C   0  0  0  0  0  0
  -24.1465  -36.7178   23.2661 C   0  0  0  0  0  0
  -26.0497  -30.6324   21.3975 C   0  0  0  0  0  0
  -26.1190  -29.2206   20.7479 C   0  0  0  0  0  0
  -27.2604  -28.3014   20.7558 C   0  0  0  0  0  0
  -26.0083  -26.6739   19.5213 C   0  0  0  0  0  0
  -24.9051  -27.5647   19.4826 C   0  0  0  0  0  0
  -23.7226  -29.7471   20.1446 C   0  0  0  0  0  0
  -25.4093  -36.2952   24.0328 C   0  0  1  0  0  0
  -20.5952  -28.3779   23.1172 C   0  0  2  0  0  0
  -20.6782  -26.9444   22.5403 C   0  0  0  0  0  0
  -19.5760  -26.6367   21.5216 C   0  0  0  0  0  0
  -18.1932  -26.7960   22.1602 C   0  0  0  0  0  0
  -19.1592  -28.8915   23.2812 C   0  0  0  0  0  0
  -18.9516  -30.1502   23.8853 C   0  0  0  0  0  0
  -17.6513  -30.6618   24.0568 C   0  0  0  0  0  0
  -25.9087  -34.9354   23.5010 C   0  0  0  0  0  0
  -16.5405  -29.9115   23.6360 C   0  0  0  0  0  0
  -16.7305  -28.6532   23.0369 C   0  0  0  0  0  0
  -26.4572  -31.6583   25.0724 C   0  0  0  0  0  0
  -25.3675  -31.3870   26.1366 C   0  0  0  0  0  0
  -27.0462  -30.2949   24.6474 C   0  0  0  0  0  0
  -27.6091  -32.4384   25.7481 C   0  0  0  0  0  0
  -27.5528  -37.1733   24.8468 C   0  0  0  0  0  0
  -21.4335  -29.3088   22.3532 N   0  0  0  0  0  0
  -26.4213  -37.3710   23.9455 N   0  0  0  0  0  0
  -24.7537  -30.9903   22.0822 N   0  0  0  0  0  0
  -23.4216  -28.8029   23.2980 O   0  0  0  0  0  0
  -28.2387  -25.8415   20.2539 O   0  0  0  0  0  0
  -26.5668  -34.8885   22.4596 O   0  0  0  0  0  0
  -23.5715  -32.1181   23.6772 O   0  0  0  0  0  0
  -28.8318  -23.0875   21.2041 C   0  0  0  0  0  0
  -30.5249  -17.8507   21.0948 C   0  0  0  0  0  0
  -29.0599  -17.4192   19.4339 C   0  0  0  0  0  0
  -29.8048  -19.3526   21.3229 C   0  0  0  0  0  0
  -28.4413  -18.9722   19.6652 C   0  0  0  0  0  0
  -28.5128  -21.7341   20.3149 C   0  0  1  0  0  0
  -28.4456  -23.0133   19.2596 C   0  0  2  0  0  0
  -28.0035  -24.2044   20.3105 C   0  0  2  0  0  0
  -27.5396  -23.8452   17.1018 C   0  0  0  0  0  0
  -29.8250  -16.6090   20.4977 N   0  0  0  0  0  0
  -29.2332  -20.1816   20.1795 N   0  0  0  0  0  0
  -27.4795  -22.8116   18.1569 N   0  3  0  0  0  0
  -31.4458  -13.0084   19.1708 H   0  0  0  0  0  0
  -30.4996  -11.9246   20.1367 H   0  0  0  0  0  0
  -29.9056  -11.7158   17.7061 H   0  0  0  0  0  0
  -29.5453  -13.4217   17.6187 H   0  0  0  0  0  0
  -28.0544  -11.2664   19.1296 H   0  0  0  0  0  0
  -27.4022  -12.2842   17.8744 H   0  0  0  0  0  0
  -27.5137  -14.2289   19.2990 H   0  0  0  0  0  0
  -28.8210  -12.5585   21.5007 H   0  0  0  0  0  0
  -28.2821  -14.2143   21.6633 H   0  0  0  0  0  0
  -25.2790   -9.5667   22.4772 H   0  0  0  0  0  0
  -24.0013   -7.4632   22.7481 H   0  0  0  0  0  0
  -21.0858   -8.8784   19.8971 H   0  0  0  0  0  0
  -22.3715  -10.9690   19.6207 H   0  0  0  0  0  0
  -21.1950   -7.6156   23.9712 H   0  0  0  0  0  0
  -21.1495   -6.0545   25.9076 H   0  0  0  0  0  0
  -22.0585   -2.7629   23.2849 H   0  0  0  0  0  0
  -22.4077  -11.9834   22.4813 H   0  0  0  0  0  0
  -21.1065  -13.1201   22.2704 H   0  0  0  0  0  0
  -24.6418  -15.8494   20.5495 H   0  0  0  0  0  0
  -26.2691  -15.6452   20.1422 H   0  0  0  0  0  0
  -26.7402  -32.5134   23.0874 H   0  0  0  0  0  0
  -25.0192  -33.9526   25.0272 H   0  0  0  0  0  0
  -22.7983  -31.2698   21.3391 H   0  0  0  0  0  0
  -23.3755  -35.9491   23.3289 H   0  0  0  0  0  0
  -24.3543  -36.8829   22.2084 H   0  0  0  0  0  0
  -23.7177  -37.6332   23.6737 H   0  0  0  0  0  0
  -26.2245  -31.3672   20.6107 H   0  0  0  0  0  0
  -26.9118  -30.6973   22.0504 H   0  0  0  0  0  0
  -28.1580  -28.6126   21.2730 H   0  0  0  0  0  0
  -25.8781  -25.7172   19.0390 H   0  0  0  0  0  0
  -24.0058  -27.2507   18.9724 H   0  0  0  0  0  0
  -23.8896  -30.5120   19.3854 H   0  0  0  0  0  0
  -22.8333  -29.2038   19.8212 H   0  0  0  0  0  0
  -25.1285  -36.1726   25.0819 H   0  0  0  0  0  0
  -21.0066  -28.3362   24.1290 H   0  0  0  0  0  0
  -20.5630  -26.2405   23.3656 H   0  0  0  0  0  0
  -21.6640  -26.7383   22.1230 H   0  0  0  0  0  0
  -19.6921  -25.6258   21.1277 H   0  0  0  0  0  0
  -19.6702  -27.3158   20.6732 H   0  0  0  0  0  0
  -17.4213  -26.6766   21.3983 H   0  0  0  0  0  0
  -18.0285  -26.0094   22.8977 H   0  0  0  0  0  0
  -19.8009  -30.7321   24.2188 H   0  0  0  0  0  0
  -17.5089  -31.6295   24.5179 H   0  0  0  0  0  0
  -15.5413  -30.3023   23.7718 H   0  0  0  0  0  0
  -15.8686  -28.0850   22.7131 H   0  0  0  0  0  0
  -24.5984  -30.7051   25.7706 H   0  0  0  0  0  0
  -24.8711  -32.3072   26.4486 H   0  0  0  0  0  0
  -25.7889  -30.9298   27.0327 H   0  0  0  0  0  0
  -26.3151  -29.6625   24.1417 H   0  0  0  0  0  0
  -27.3924  -29.7323   25.5157 H   0  0  0  0  0  0
  -27.9098  -30.4139   23.9920 H   0  0  0  0  0  0
  -27.2771  -33.3843   26.1758 H   0  0  0  0  0  0
  -28.4023  -32.6654   25.0355 H   0  0  0  0  0  0
  -28.0602  -31.8672   26.5598 H   0  0  0  0  0  0
  -28.2530  -38.0045   24.7503 H   0  0  0  0  0  0
  -28.1007  -36.2562   24.6254 H   0  0  0  0  0  0
  -27.2261  -37.1314   25.8873 H   0  0  0  0  0  0
  -20.9590  -29.8827   21.6686 H   0  0  0  0  0  0
  -26.0034  -38.2738   24.1534 H   0  0  0  0  0  0
  -29.9005  -23.3100   21.2479 H   0  0  0  0  0  0
  -28.4661  -23.0140   22.2291 H   0  0  0  0  0  0
  -30.9020  -17.5359   22.0689 H   0  0  0  0  0  0
  -31.4285  -18.0111   20.5021 H   0  0  0  0  0  0
  -29.7033  -17.4499   18.5521 H   0  0  0  0  0  0
  -28.2215  -16.7913   19.1291 H   0  0  0  0  0  0
  -30.5522  -19.9872   21.8044 H   0  0  0  0  0  0
  -29.0270  -19.2394   22.0808 H   0  0  0  0  0  0
  -27.5821  -18.8651   20.3329 H   0  0  0  0  0  0
  -27.9970  -19.2781   18.7167 H   0  0  0  0  0  0
  -27.4863  -21.4850   20.5911 H   0  0  0  0  0  0
  -29.4373  -23.2070   18.8393 H   0  0  0  0  0  0
  -26.9469  -24.0731   20.5536 H   0  0  0  0  0  0
  -26.7682  -23.6723   16.3508 H   0  0  0  0  0  0
  -28.5058  -23.8353   16.5948 H   0  0  0  0  0  0
  -27.3866  -24.8424   17.5132 H   0  0  0  0  0  0
  -26.5408  -22.7473   18.5144 H   0  0  0  0  0  0
  -27.6851  -21.9327   17.7138 H   0  0  0  0  0  0
  1 25  1  0  0  0
  1 30  2  0  0  0
  1 80  1  0  0  0
  2  3  1  0  0  0
  2 25  1  0  0  0
  2 83  1  0  0  0
  2 84  1  0  0  0
  3  4  1  0  0  0
  3 85  1  0  0  0
  3 86  1  0  0  0
  4  5  1  0  0  0
  4 87  1  0  0  0
  4 88  1  0  0  0
  5  6  1  0  0  0
  5 26  1  0  0  0
  5 89  1  0  0  0
  6 25  1  0  0  0
  6 90  1  0  0  0
  6 91  1  0  0  0
  7  8  2  0  0  0
  7 26  1  0  0  0
  7 29  1  0  0  0
  8  9  1  0  0  0
  8 22  1  0  0  0
  9 10  1  0  0  0
  9 27  2  0  0  0
 10 11  2  0  0  0
 10 15  1  0  0  0
 11 12  1  0  0  0
 11 92  1  0  0  0
 12 13  2  0  0  0
 12 93  1  0  0  0
 13 14  1  0  0  0
 13 31  1  0  0  0
 14 15  2  0  0  0
 14 94  1  0  0  0
 15 95  1  0  0  0
 16 17  2  0  0  0
 16 21  1  0  0  0
 16 31  1  0  0  0
 17 18  1  0  0  0
 17 96  1  0  0  0
 18 19  2  0  0  0
 18 97  1  0  0  0
 19 20  1  0  0  0
 19 24  1  0  0  0
 20 21  2  0  0  0
 20 98  1  0  0  0
 21 23  1  0  0  0
 22 28  1  0  0  0
 22 32  2  0  0  0
 26 27  1  0  0  0
 28 99  1  0  0  0
 28100  1  0  0  0
 29101  1  0  0  0
 29102  1  0  0  0
 33 34  1  0  0  0
 33 66  1  0  0  0
 33 70  2  0  0  0
 34 36  1  0  0  0
 34 59  1  0  0  0
 34103  1  0  0  0
 35 44  2  0  0  0
 35 45  1  0  0  0
 35 68  1  0  0  0
 36 56  1  0  0  0
 36104  1  0  0  0
 37 39  1  0  0  0
 37 47  1  0  0  0
 37 66  1  0  0  0
 37105  1  0  0  0
 38 43  2  0  0  0
 38 46  1  0  0  0
 38 47  1  0  0  0
 39 64  1  0  0  0
 39 67  2  0  0  0
 40 52  1  0  0  0
 40 53  2  0  0  0
 40 58  1  0  0  0
 41106  1  0  0  0
 41107  1  0  0  0
 41108  1  0  0  0
 41 48  1  0  0  0
 42 43  1  0  0  0
 42 66  1  0  0  0
 42109  1  0  0  0
 42110  1  0  0  0
 43 44  1  0  0  0
 44111  1  0  0  0
 45 46  2  0  0  0
 45112  1  0  0  0
 46113  1  0  0  0
 47114  1  0  0  0
 47115  1  0  0  0
 48 56  1  0  0  0
 48 65  1  0  0  0
 48116  1  0  0  0
 49 50  1  0  0  0
 49 53  1  0  0  0
 49 64  1  0  0  0
 49117  1  0  0  0
 50 51  1  0  0  0
 50118  1  0  0  0
 50119  1  0  0  0
 51 52  1  0  0  0
 51120  1  0  0  0
 51121  1  0  0  0
 52122  1  0  0  0
 52123  1  0  0  0
 53 54  1  0  0  0
 54 55  2  0  0  0
 54124  1  0  0  0
 55 57  1  0  0  0
 55125  1  0  0  0
 56 69  2  0  0  0
 57 58  2  0  0  0
 57126  1  0  0  0
 58127  1  0  0  0
 59 60  1  0  0  0
 59 61  1  0  0  0
 59 62  1  0  0  0
 60128  1  0  0  0
 60129  1  0  0  0
 60130  1  0  0  0
 61131  1  0  0  0
 61132  1  0  0  0
 61133  1  0  0  0
 62134  1  0  0  0
 62135  1  0  0  0
 62136  1  0  0  0
 63 65  1  0  0  0
 63137  1  0  0  0
 63138  1  0  0  0
 63139  1  0  0  0
 64140  1  0  0  0
 65141  1  0  0  0
 68 78  1  0  0  0
 71 76  1  0  0  0
 71 78  1  0  0  0
 71142  1  0  0  0
 71143  1  0  0  0
 72 74  1  0  0  0
 72 80  1  0  0  0
 72144  1  0  0  0
 72145  1  0  0  0
 73 75  1  0  0  0
 73 80  1  0  0  0
 73146  1  0  0  0
 73147  1  0  0  0
 74148  1  0  0  0
 74149  1  0  0  0
 74 81  1  0  0  0
 75 81  1  0  0  0
 75150  1  0  0  0
 75151  1  0  0  0
 76 77  1  0  0  0
 76 81  1  0  0  0
 76152  1  0  0  0
 77 78  1  0  0  0
 77 82  1  0  0  0
 77153  1  0  0  0
 78154  1  0  0  0
 79 82  1  0  0  0
 79155  1  0  0  0
 79156  1  0  0  0
 79157  1  0  0  0
 82158  1  0  0  0
 82159  1  0  0  0
M  CHG  1  82   1
M  ISO  4   1 100  68 101  78 101  80 100
M  END
> <chiral flag>
0

> <version>
0

> <s_m_source_file>
/data/baiqing/PycharmProjects/Reinvent-master-3.2/result/LINK_invent/BTK/process_docking_weight1_custom_sum_contain_oxygen_bond_distance_aromatic_linkinvent_7_9_3/rearranged_h_0198.sdf

> <i_m_source_file_index>
18

> <r_mmod_Potential_Energy-OPLS-2005>
1207.02514648438

> <r_mmod_Stretch_Energy-OPLS-2005>
500.360870361328

> <r_mmod_Bend_Energy-OPLS-2005>
516.650024414062

> <r_mmod_Torsional_Energy-OPLS-2005>
370.941558837891

> <r_mmod_Improper_Torsional_Energy-OPLS-2005>
6.65162515640259

> <r_mmod_Van_der_Waal_Energy-OPLS-2005>
117.221992492676

> <r_mmod_Electrostatic_Energy-OPLS-2005>
-268.974822998047

> <r_mmod_Solvation_Energy-OPLS-2005>
-489.733093261719

> <b_mmod_Minimization_Converged-OPLS-2005>
0

> <r_mmod_RMS_Derivative-OPLS-2005>
3.19988679885864

$$$$
18
                    3D
 Structure written by MMmdl.
166175  0  0  1  0            999 V2000
  -30.6721  -14.5255   20.4523 C   0  0  0  0  0  0
  -30.4173  -12.3091   19.4287 C   0  0  0  0  0  0
  -29.4893  -12.4694   18.2052 C   0  0  0  0  0  0
  -28.0117  -12.3318   18.6236 C   0  0  0  0  0  0
  -27.6463  -13.2015   19.8565 C   0  0  2  0  0  0
  -28.6974  -13.0602   20.9797 C   0  0  0  0  0  0
  -25.2562  -13.8137   20.5748 C   0  0  0  0  0  0
  -24.1798  -13.0421   20.9219 C   0  0  0  0  0  0
  -24.6335  -11.6897   20.8757 C   0  0  0  0  0  0
  -23.9007  -10.4290   21.0422 C   0  0  0  0  0  0
  -24.3569   -9.4210   21.9194 C   0  0  0  0  0  0
  -23.6275   -8.2231   22.0742 C   0  0  0  0  0  0
  -22.4262   -8.0255   21.3531 C   0  0  0  0  0  0
  -21.9879   -9.0224   20.4632 C   0  0  0  0  0  0
  -22.7182  -10.2123   20.3062 C   0  0  0  0  0  0
  -21.6825   -6.0719   22.5281 C   0  0  0  0  0  0
  -21.3995   -6.5627   23.8213 C   0  0  0  0  0  0
  -21.3669   -5.6789   24.9182 C   0  0  0  0  0  0
  -21.6051   -4.3042   24.7241 C   0  0  0  0  0  0
  -21.8815   -3.8131   23.4356 C   0  0  0  0  0  0
  -21.9196   -4.6951   22.3418 C   0  0  0  0  0  0
  -22.7828  -13.5238   21.1888 C   0  0  0  0  0  0
  -22.1668   -4.2147   21.0990 F   0  0  0  0  0  0
  -21.5663   -3.4514   25.7750 F   0  0  0  0  0  0
  -30.0190  -13.3344   20.3999 N   0  0  0  0  0  0
  -26.2947  -12.9273   20.3321 N   0  0  0  0  0  0
  -25.9251  -11.6447   20.5753 N   0  0  0  0  0  0
  -22.0448  -12.8222   22.0416 N   0  0  0  0  0  0
  -25.4344  -15.1846   20.4252 N   0  0  0  0  0  0
  -31.8737  -14.6439   20.1986 O   0  0  0  0  0  0
  -21.6625   -6.8853   21.4226 O   0  0  0  0  0  0
  -22.3545  -14.5567   20.6769 O   0  0  0  0  0  0
  -24.6189  -31.8679   23.2054 C   0  0  0  0  0  0
  -25.9084  -32.4813   23.8368 C   0  0  1  0  0  0
  -27.2325  -27.4171   20.1129 C   0  0  0  0  0  0
  -25.5937  -33.8613   24.2308 N   0  0  0  0  0  0
  -23.4052  -30.4932   21.5468 C   0  0  2  0  0  0
  -24.8550  -28.9554   20.1119 C   0  0  0  0  0  0
  -22.7426  -29.4691   22.4980 C   0  0  0  0  0  0
  -18.0323  -28.1320   22.8475 C   0  0  0  0  0  0
  -24.1486  -36.7294   23.2624 C   0  0  0  0  0  0
  -25.9359  -30.8343   21.3556 C   0  0  0  0  0  0
  -26.0186  -29.4672   20.7046 C   0  0  0  0  0  0
  -27.2156  -28.7099   20.6917 C   0  0  0  0  0  0
  -26.0559  -26.9269   19.5078 C   0  0  0  0  0  0
  -24.8697  -27.6851   19.5097 C   0  0  0  0  0  0
  -23.6125  -29.8175   20.1649 C   0  0  0  0  0  0
  -25.4107  -36.3093   24.0317 C   0  0  1  0  0  0
  -20.5912  -28.3693   23.1328 C   0  0  2  0  0  0
  -20.6849  -26.9424   22.5438 C   0  0  0  0  0  0
  -19.5865  -26.6386   21.5203 C   0  0  0  0  0  0
  -18.2015  -26.7882   22.1573 C   0  0  0  0  0  0
  -19.1550  -28.8813   23.2892 C   0  0  0  0  0  0
  -18.9442  -30.1423   23.8900 C   0  0  0  0  0  0
  -17.6441  -30.6550   24.0504 C   0  0  0  0  0  0
  -25.9051  -34.9467   23.5101 C   0  0  0  0  0  0
  -16.5356  -29.9020   23.6267 C   0  0  0  0  0  0
  -16.7300  -28.6427   23.0315 C   0  0  0  0  0  0
  -26.4501  -31.6587   25.0705 C   0  0  0  0  0  0
  -25.3732  -31.3739   26.1431 C   0  0  0  0  0  0
  -27.0318  -30.3009   24.6095 C   0  0  0  0  0  0
  -27.6068  -32.4309   25.7475 C   0  0  0  0  0  0
  -27.5576  -37.1795   24.8468 C   0  0  0  0  0  0
  -21.4148  -29.3094   22.3734 N   0  0  0  0  0  0
  -26.4298  -37.3775   23.9407 N   0  0  0  0  0  0
  -24.6713  -31.0794   22.0932 N   0  0  0  0  0  0
  -23.4188  -28.8220   23.3015 O   0  0  0  0  0  0
  -28.3558  -26.6115   20.1540 O   0  0  0  0  0  0
  -26.5628  -34.8927   22.4674 O   0  0  0  0  0  0
  -23.5378  -32.1452   23.7458 O   0  0  0  0  0  0
  -29.7690  -17.7686   19.2105 C   0  0  0  0  0  0
  -29.2992  -20.9534   22.9453 C   0  0  0  0  0  0
  -29.6971  -16.2464   19.0362 C   0  0  0  0  0  0
  -29.9134  -16.7150   21.3440 C   0  0  0  0  0  0
  -29.4575  -19.4457   22.6818 C   0  0  0  0  0  0
  -29.2263  -20.5247   20.5879 C   0  0  0  0  0  0
  -29.4728  -21.6781   21.5938 C   0  0  1  0  0  0
  -29.3350  -17.9786   20.6529 C   0  0  1  0  0  0
  -28.6137  -23.7841   19.0882 C   0  0  0  0  0  0
  -28.5731  -22.9584   21.5152 C   0  0  0  0  0  0
  -28.1844  -25.4347   20.9817 C   0  0  0  0  0  0
  -28.9358  -24.1350   20.5481 C   0  0  2  0  0  0
  -29.8619  -15.6164   20.3619 N   0  0  0  0  0  0
  -29.7519  -19.2920   21.2432 N   0  3  2  0  0  0
  -31.4630  -12.4032   19.1296 H   0  0  0  0  0  0
  -30.3139  -11.3158   19.8702 H   0  0  0  0  0  0
  -29.7328  -11.7251   17.4458 H   0  0  0  0  0  0
  -29.6469  -13.4414   17.7379 H   0  0  0  0  0  0
  -27.8369  -11.2776   18.8485 H   0  0  0  0  0  0
  -27.3576  -12.5752   17.7876 H   0  0  0  0  0  0
  -27.6578  -14.2325   19.5123 H   0  0  0  0  0  0
  -28.6796  -12.0565   21.4046 H   0  0  0  0  0  0
  -28.4755  -13.7447   21.7989 H   0  0  0  0  0  0
  -25.2707   -9.5686   22.4768 H   0  0  0  0  0  0
  -23.9995   -7.4611   22.7438 H   0  0  0  0  0  0
  -21.0823   -8.8712   19.8934 H   0  0  0  0  0  0
  -22.3625  -10.9654   19.6178 H   0  0  0  0  0  0
  -21.1940   -7.6127   23.9712 H   0  0  0  0  0  0
  -21.1506   -6.0522   25.9097 H   0  0  0  0  0  0
  -22.0581   -2.7588   23.2865 H   0  0  0  0  0  0
  -22.4058  -11.9887   22.4812 H   0  0  0  0  0  0
  -21.1059  -13.1260   22.2588 H   0  0  0  0  0  0
  -24.6798  -15.8481   20.5599 H   0  0  0  0  0  0
  -26.2981  -15.6161   20.1225 H   0  0  0  0  0  0
  -26.7159  -32.5532   23.1138 H   0  0  0  0  0  0
  -25.0066  -33.9766   25.0440 H   0  0  0  0  0  0
  -22.6925  -31.3092   21.4044 H   0  0  0  0  0  0
  -23.3738  -35.9641   23.3316 H   0  0  0  0  0  0
  -24.3573  -36.8910   22.2041 H   0  0  0  0  0  0
  -23.7275  -37.6507   23.6636 H   0  0  0  0  0  0
  -26.0543  -31.6006   20.5874 H   0  0  0  0  0  0
  -26.8189  -30.8864   21.9802 H   0  0  0  0  0  0
  -28.1148  -29.1008   21.1487 H   0  0  0  0  0  0
  -26.0517  -25.9434   19.0583 H   0  0  0  0  0  0
  -23.9730  -27.2807   19.0604 H   0  0  0  0  0  0
  -23.7080  -30.5864   19.3969 H   0  0  0  0  0  0
  -22.7381  -29.2300   19.8795 H   0  0  0  0  0  0
  -25.1285  -36.1927   25.0808 H   0  0  0  0  0  0
  -21.0005  -28.3277   24.1452 H   0  0  0  0  0  0
  -20.5763  -26.2286   23.3628 H   0  0  0  0  0  0
  -21.6729  -26.7512   22.1239 H   0  0  0  0  0  0
  -19.7096  -25.6319   21.1193 H   0  0  0  0  0  0
  -19.6818  -27.3249   20.6758 H   0  0  0  0  0  0
  -17.4317  -26.6650   21.3943 H   0  0  0  0  0  0
  -18.0427  -25.9979   22.8927 H   0  0  0  0  0  0
  -19.7918  -30.7241   24.2280 H   0  0  0  0  0  0
  -17.4978  -31.6239   24.5068 H   0  0  0  0  0  0
  -15.5337  -30.2903   23.7550 H   0  0  0  0  0  0
  -15.8720  -28.0730   22.7014 H   0  0  0  0  0  0
  -24.5883  -30.7121   25.7747 H   0  0  0  0  0  0
  -24.8947  -32.2923   26.4826 H   0  0  0  0  0  0
  -25.8051  -30.8919   27.0206 H   0  0  0  0  0  0
  -26.2879  -29.6797   24.1080 H   0  0  0  0  0  0
  -27.4007  -29.7227   25.4579 H   0  0  0  0  0  0
  -27.8751  -30.4318   23.9310 H   0  0  0  0  0  0
  -27.2668  -33.3583   26.2087 H   0  0  0  0  0  0
  -28.3847  -32.6917   25.0285 H   0  0  0  0  0  0
  -28.0741  -31.8404   26.5365 H   0  0  0  0  0  0
  -28.2588  -38.0083   24.7476 H   0  0  0  0  0  0
  -28.1072  -36.2621   24.6318 H   0  0  0  0  0  0
  -27.2296  -37.1469   25.8869 H   0  0  0  0  0  0
  -20.9280  -29.8814   21.6978 H   0  0  0  0  0  0
  -26.0175  -38.2854   24.1385 H   0  0  0  0  0  0
  -29.1321  -18.2921   18.4955 H   0  0  0  0  0  0
  -30.7936  -18.1120   19.0571 H   0  0  0  0  0  0
  -30.0221  -21.3040   23.6832 H   0  0  0  0  0  0
  -28.3077  -21.1326   23.3652 H   0  0  0  0  0  0
  -30.4383  -15.9117   18.3069 H   0  0  0  0  0  0
  -28.7229  -15.9757   18.6305 H   0  0  0  0  0  0
  -29.3295  -16.4485   22.2261 H   0  0  0  0  0  0
  -30.9438  -16.8794   21.6659 H   0  0  0  0  0  0
  -28.5285  -18.9309   22.9313 H   0  0  0  0  0  0
  -30.2472  -19.0010   23.2889 H   0  0  0  0  0  0
  -29.7176  -20.7059   19.6318 H   0  0  0  0  0  0
  -28.1591  -20.4092   20.3971 H   0  0  0  0  0  0
  -30.5210  -21.9739   21.5151 H   0  0  0  0  0  0
  -28.2442  -17.9165   20.6915 H   0  0  0  0  0  0
  -29.1673  -22.9090   18.7480 H   0  0  0  0  0  0
  -28.8835  -24.6074   18.4253 H   0  0  0  0  0  0
  -27.5499  -23.5830   18.9494 H   0  0  0  0  0  0
  -28.5890  -23.3914   22.5166 H   0  0  0  0  0  0
  -27.5344  -22.6639   21.3619 H   0  0  0  0  0  0
  -28.5238  -25.7088   21.9805 H   0  0  0  0  0  0
  -27.1301  -25.1817   21.1018 H   0  0  0  0  0  0
  -30.0051  -24.3351   20.6285 H   0  0  0  0  0  0
  -30.7561  -19.3521   21.1651 H   0  0  0  0  0  0
  1 25  1  0  0  0
  1 30  2  0  0  0
  1 83  1  0  0  0
  2  3  1  0  0  0
  2 25  1  0  0  0
  2 85  1  0  0  0
  2 86  1  0  0  0
  3  4  1  0  0  0
  3 87  1  0  0  0
  3 88  1  0  0  0
  4  5  1  0  0  0
  4 89  1  0  0  0
  4 90  1  0  0  0
  5  6  1  0  0  0
  5 26  1  0  0  0
  5 91  1  0  0  0
  6 25  1  0  0  0
  6 92  1  0  0  0
  6 93  1  0  0  0
  7  8  2  0  0  0
  7 26  1  0  0  0
  7 29  1  0  0  0
  8  9  1  0  0  0
  8 22  1  0  0  0
  9 10  1  0  0  0
  9 27  2  0  0  0
 10 11  2  0  0  0
 10 15  1  0  0  0
 11 12  1  0  0  0
 11 94  1  0  0  0
 12 13  2  0  0  0
 12 95  1  0  0  0
 13 14  1  0  0  0
 13 31  1  0  0  0
 14 15  2  0  0  0
 14 96  1  0  0  0
 15 97  1  0  0  0
 16 17  2  0  0  0
 16 21  1  0  0  0
 16 31  1  0  0  0
 17 18  1  0  0  0
 17 98  1  0  0  0
 18 19  2  0  0  0
 18 99  1  0  0  0
 19 20  1  0  0  0
 19 24  1  0  0  0
 20 21  2  0  0  0
 20100  1  0  0  0
 21 23  1  0  0  0
 22 28  1  0  0  0
 22 32  2  0  0  0
 26 27  1  0  0  0
 28101  1  0  0  0
 28102  1  0  0  0
 29103  1  0  0  0
 29104  1  0  0  0
 33 34  1  0  0  0
 33 66  1  0  0  0
 33 70  2  0  0  0
 34 36  1  0  0  0
 34 59  1  0  0  0
 34105  1  0  0  0
 35 44  2  0  0  0
 35 45  1  0  0  0
 35 68  1  0  0  0
 36 56  1  0  0  0
 36106  1  0  0  0
 37 39  1  0  0  0
 37 47  1  0  0  0
 37 66  1  0  0  0
 37107  1  0  0  0
 38 43  2  0  0  0
 38 46  1  0  0  0
 38 47  1  0  0  0
 39 64  1  0  0  0
 39 67  2  0  0  0
 40 52  1  0  0  0
 40 53  2  0  0  0
 40 58  1  0  0  0
 41108  1  0  0  0
 41109  1  0  0  0
 41110  1  0  0  0
 41 48  1  0  0  0
 42 43  1  0  0  0
 42 66  1  0  0  0
 42111  1  0  0  0
 42112  1  0  0  0
 43 44  1  0  0  0
 44113  1  0  0  0
 45 46  2  0  0  0
 45114  1  0  0  0
 46115  1  0  0  0
 47116  1  0  0  0
 47117  1  0  0  0
 48 56  1  0  0  0
 48 65  1  0  0  0
 48118  1  0  0  0
 49 50  1  0  0  0
 49 53  1  0  0  0
 49 64  1  0  0  0
 49119  1  0  0  0
 50 51  1  0  0  0
 50120  1  0  0  0
 50121  1  0  0  0
 51 52  1  0  0  0
 51122  1  0  0  0
 51123  1  0  0  0
 52124  1  0  0  0
 52125  1  0  0  0
 53 54  1  0  0  0
 54 55  2  0  0  0
 54126  1  0  0  0
 55 57  1  0  0  0
 55127  1  0  0  0
 56 69  2  0  0  0
 57 58  2  0  0  0
 57128  1  0  0  0
 58129  1  0  0  0
 59 60  1  0  0  0
 59 61  1  0  0  0
 59 62  1  0  0  0
 60130  1  0  0  0
 60131  1  0  0  0
 60132  1  0  0  0
 61133  1  0  0  0
 61134  1  0  0  0
 61135  1  0  0  0
 62136  1  0  0  0
 62137  1  0  0  0
 62138  1  0  0  0
 63 65  1  0  0  0
 63139  1  0  0  0
 63140  1  0  0  0
 63141  1  0  0  0
 64142  1  0  0  0
 65143  1  0  0  0
 68 81  1  0  0  0
 71 73  1  0  0  0
 71144  1  0  0  0
 71145  1  0  0  0
 71 78  1  0  0  0
 72 75  1  0  0  0
 72 77  1  0  0  0
 72146  1  0  0  0
 72147  1  0  0  0
 73 83  1  0  0  0
 73148  1  0  0  0
 73149  1  0  0  0
 74 78  1  0  0  0
 74 83  1  0  0  0
 74150  1  0  0  0
 74151  1  0  0  0
 75152  1  0  0  0
 75153  1  0  0  0
 75 84  1  0  0  0
 76 77  1  0  0  0
 76 84  1  0  0  0
 76154  1  0  0  0
 76155  1  0  0  0
 77 80  1  0  0  0
 77156  1  0  0  0
 78 84  1  0  0  0
 78157  1  0  0  0
 79158  1  0  0  0
 79159  1  0  0  0
 79160  1  0  0  0
 79 82  1  0  0  0
 80 82  1  0  0  0
 80161  1  0  0  0
 80162  1  0  0  0
 81 82  1  0  0  0
 81163  1  0  0  0
 81164  1  0  0  0
 82165  1  0  0  0
 84166  1  0  0  0
M  CHG  1  84   1
M  ISO  4   1 100  68 101  81 101  83 100
M  END
> <chiral flag>
0

> <version>
0

> <s_m_source_file>
/data/baiqing/PycharmProjects/Reinvent-master-3.2/result/LINK_invent/BTK/process_docking_weight1_custom_sum_contain_oxygen_bond_distance_aromatic_linkinvent_7_9_3/rearranged_h_0198.sdf

> <i_m_source_file_index>
19

> <r_mmod_Potential_Energy-OPLS-2005>
211.685165405273

> <r_mmod_Stretch_Energy-OPLS-2005>
43.2850646972656

> <r_mmod_Bend_Energy-OPLS-2005>
153.036239624023

> <r_mmod_Torsional_Energy-OPLS-2005>
446.675750732422

> <r_mmod_Improper_Torsional_Energy-OPLS-2005>
16.3690299987793

> <r_mmod_Van_der_Waal_Energy-OPLS-2005>
115.501739501953

> <r_mmod_Electrostatic_Energy-OPLS-2005>
-165.39436340332

> <r_mmod_Solvation_Energy-OPLS-2005>
-425.127838134766

> <b_mmod_Minimization_Converged-OPLS-2005>
0

> <r_mmod_RMS_Derivative-OPLS-2005>
3.18815970420837

$$$$
19
                    3D
 Structure written by MMmdl.
158168  0  0  1  0            999 V2000
  -30.6667  -14.5500   20.5029 C   0  0  0  0  0  0
  -30.4240  -12.3353   19.4419 C   0  0  0  0  0  0
  -29.5007  -12.4963   18.2151 C   0  0  0  0  0  0
  -28.0198  -12.3539   18.6237 C   0  0  0  0  0  0
  -27.6529  -13.2087   19.8671 C   0  0  2  0  0  0
  -28.6981  -13.0344   20.9921 C   0  0  0  0  0  0
  -25.2557  -13.8147   20.5666 C   0  0  0  0  0  0
  -24.1823  -13.0427   20.9187 C   0  0  0  0  0  0
  -24.6383  -11.6894   20.8747 C   0  0  0  0  0  0
  -23.9052  -10.4284   21.0412 C   0  0  0  0  0  0
  -24.3602   -9.4199   21.9189 C   0  0  0  0  0  0
  -23.6286   -8.2232   22.0753 C   0  0  0  0  0  0
  -22.4269   -8.0273   21.3542 C   0  0  0  0  0  0
  -21.9905   -9.0248   20.4648 C   0  0  0  0  0  0
  -22.7226  -10.2130   20.3058 C   0  0  0  0  0  0
  -21.6845   -6.0733   22.5282 C   0  0  0  0  0  0
  -21.4010   -6.5640   23.8216 C   0  0  0  0  0  0
  -21.3660   -5.6794   24.9178 C   0  0  0  0  0  0
  -21.6044   -4.3057   24.7227 C   0  0  0  0  0  0
  -21.8819   -3.8147   23.4350 C   0  0  0  0  0  0
  -21.9189   -4.6962   22.3404 C   0  0  0  0  0  0
  -22.7851  -13.5232   21.1844 C   0  0  0  0  0  0
  -22.1656   -4.2147   21.0982 F   0  0  0  0  0  0
  -21.5630   -3.4541   25.7740 F   0  0  0  0  0  0
  -30.0151  -13.3526   20.4255 N   0  0  0  0  0  0
  -26.2985  -12.9316   20.3346 N   0  0  0  0  0  0
  -25.9311  -11.6477   20.5780 N   0  0  0  0  0  0
  -22.0483  -12.8239   22.0407 N   0  0  0  0  0  0
  -25.4267  -15.1860   20.4018 N   0  0  0  0  0  0
  -31.8516  -14.6563   20.1700 O   0  0  0  0  0  0
  -21.6626   -6.8874   21.4246 O   0  0  0  0  0  0
  -22.3545  -14.5540   20.6689 O   0  0  0  0  0  0
  -24.6178  -31.8659   23.2076 C   0  0  0  0  0  0
  -25.9061  -32.4811   23.8379 C   0  0  1  0  0  0
  -27.2301  -27.3926   20.1013 C   0  0  0  0  0  0
  -25.5906  -33.8612   24.2314 N   0  0  0  0  0  0
  -23.4063  -30.4899   21.5497 C   0  0  2  0  0  0
  -24.8500  -28.9488   20.1162 C   0  0  0  0  0  0
  -22.7422  -29.4657   22.4986 C   0  0  0  0  0  0
  -18.0272  -28.1381   22.8492 C   0  0  0  0  0  0
  -24.1487  -36.7311   23.2641 C   0  0  0  0  0  0
  -25.9389  -30.8187   21.3652 C   0  0  0  0  0  0
  -26.0127  -29.4501   20.7120 C   0  0  0  0  0  0
  -27.2026  -28.6808   20.6977 C   0  0  0  0  0  0
  -26.0401  -26.9116   19.5063 C   0  0  0  0  0  0
  -24.8610  -27.6814   19.5105 C   0  0  0  0  0  0
  -23.6150  -29.8217   20.1648 C   0  0  0  0  0  0
  -25.4110  -36.3108   24.0335 C   0  0  1  0  0  0
  -20.5863  -28.3671   23.1314 C   0  0  2  0  0  0
  -20.6763  -26.9405   22.5422 C   0  0  0  0  0  0
  -19.5745  -26.6386   21.5215 C   0  0  0  0  0  0
  -18.1921  -26.7929   22.1620 C   0  0  0  0  0  0
  -19.1522  -28.8840   23.2900 C   0  0  0  0  0  0
  -18.9450  -30.1445   23.8912 C   0  0  0  0  0  0
  -17.6451  -30.6587   24.0563 C   0  0  0  0  0  0
  -25.9038  -34.9472   23.5126 C   0  0  0  0  0  0
  -16.5342  -29.9088   23.6324 C   0  0  0  0  0  0
  -16.7261  -28.6504   23.0350 C   0  0  0  0  0  0
  -26.4474  -31.6600   25.0721 C   0  0  0  0  0  0
  -25.3731  -31.3709   26.1463 C   0  0  0  0  0  0
  -27.0307  -30.3037   24.6117 C   0  0  0  0  0  0
  -27.6055  -32.4316   25.7477 C   0  0  0  0  0  0
  -27.5583  -37.1812   24.8465 C   0  0  0  0  0  0
  -21.4147  -29.3037   22.3720 N   0  0  0  0  0  0
  -26.4297  -37.3793   23.9407 N   0  0  0  0  0  0
  -24.6732  -31.0732   22.0990 N   0  0  0  0  0  0
  -23.4183  -28.8203   23.3038 O   0  0  0  0  0  0
  -28.4118  -26.6652   20.1260 O   0  0  0  0  0  0
  -26.5606  -34.8927   22.4691 O   0  0  0  0  0  0
  -23.5364  -32.1429   23.7453 O   0  0  0  0  0  0
  -27.9672  -21.9906   20.9889 C   0  0  0  0  0  0
  -28.0369  -20.5742   20.9930 C   0  0  0  0  0  0
  -29.0782  -22.7181   20.5077 C   0  0  0  0  0  0
  -29.2046  -19.9490   20.4969 C   0  0  0  0  0  0
  -29.9197  -24.9846   19.4902 C   0  0  0  0  0  0
  -30.2661  -17.9613   19.4780 C   0  0  0  0  0  0
  -29.2646  -17.7899   21.6989 C   0  0  0  0  0  0
  -29.9105  -16.4895   19.1889 C   0  0  0  0  0  0
  -29.0885  -16.2461   21.5138 C   0  0  0  0  0  0
  -29.1933  -24.2439   20.5899 C   0  0  1  0  0  0
  -28.4587  -25.2766   19.7029 C   0  0  1  0  0  0
  -30.1814  -22.0554   20.0606 N   0  0  0  0  0  0
  -30.2342  -20.7115   20.0370 N   0  0  0  0  0  0
  -29.3237  -18.5329   20.4355 N   0  0  0  0  0  0
  -29.8635  -15.6501   20.4026 N   0  0  0  0  0  0
  -31.4693  -12.4357   19.1438 H   0  0  0  0  0  0
  -30.3307  -11.3350   19.8680 H   0  0  0  0  0  0
  -29.7521  -11.7571   17.4542 H   0  0  0  0  0  0
  -29.6624  -13.4731   17.7563 H   0  0  0  0  0  0
  -27.8350  -11.3000   18.8333 H   0  0  0  0  0  0
  -27.3716  -12.6122   17.7855 H   0  0  0  0  0  0
  -27.6764  -14.2478   19.5421 H   0  0  0  0  0  0
  -28.6919  -12.0091   21.3645 H   0  0  0  0  0  0
  -28.4621  -13.6601   21.8519 H   0  0  0  0  0  0
  -25.2742   -9.5671   22.4775 H   0  0  0  0  0  0
  -23.9992   -7.4617   22.7469 H   0  0  0  0  0  0
  -21.0833   -8.8762   19.8962 H   0  0  0  0  0  0
  -22.3677  -10.9669   19.6170 H   0  0  0  0  0  0
  -21.2000   -7.6148   23.9720 H   0  0  0  0  0  0
  -21.1485   -6.0521   25.9081 H   0  0  0  0  0  0
  -22.0600   -2.7611   23.2845 H   0  0  0  0  0  0
  -22.4078  -11.9900   22.4808 H   0  0  0  0  0  0
  -21.1109  -13.1293   22.2607 H   0  0  0  0  0  0
  -24.6601  -15.8418   20.5025 H   0  0  0  0  0  0
  -26.2769  -15.6204   20.0667 H   0  0  0  0  0  0
  -26.7129  -32.5507   23.1136 H   0  0  0  0  0  0
  -25.0045  -33.9765   25.0450 H   0  0  0  0  0  0
  -22.6966  -31.3079   21.4102 H   0  0  0  0  0  0
  -23.3746  -35.9649   23.3321 H   0  0  0  0  0  0
  -24.3574  -36.8911   22.2053 H   0  0  0  0  0  0
  -23.7242  -37.6522   23.6643 H   0  0  0  0  0  0
  -26.0566  -31.5827   20.5954 H   0  0  0  0  0  0
  -26.8254  -30.8710   21.9858 H   0  0  0  0  0  0
  -28.1008  -29.0672   21.1593 H   0  0  0  0  0  0
  -25.9852  -25.9430   19.0358 H   0  0  0  0  0  0
  -23.9646  -27.2883   19.0507 H   0  0  0  0  0  0
  -23.7280  -30.5965   19.4058 H   0  0  0  0  0  0
  -22.7367  -29.2459   19.8674 H   0  0  0  0  0  0
  -25.1290  -36.1977   25.0829 H   0  0  0  0  0  0
  -20.9953  -28.3242   24.1436 H   0  0  0  0  0  0
  -20.5666  -26.2281   23.3613 H   0  0  0  0  0  0
  -21.6634  -26.7451   22.1214 H   0  0  0  0  0  0
  -19.6907  -25.6300   21.1241 H   0  0  0  0  0  0
  -19.6689  -27.3199   20.6751 H   0  0  0  0  0  0
  -17.4198  -26.6686   21.4015 H   0  0  0  0  0  0
  -18.0313  -26.0064   22.9007 H   0  0  0  0  0  0
  -19.7925  -30.7255   24.2294 H   0  0  0  0  0  0
  -17.5008  -31.6269   24.5162 H   0  0  0  0  0  0
  -15.5344  -30.2997   23.7641 H   0  0  0  0  0  0
  -15.8659  -28.0827   22.7062 H   0  0  0  0  0  0
  -24.5904  -30.7059   25.7794 H   0  0  0  0  0  0
  -24.8914  -32.2862   26.4916 H   0  0  0  0  0  0
  -25.8071  -30.8872   27.0223 H   0  0  0  0  0  0
  -26.2856  -29.6798   24.1168 H   0  0  0  0  0  0
  -27.4065  -29.7278   25.4584 H   0  0  0  0  0  0
  -27.8696  -30.4350   23.9278 H   0  0  0  0  0  0
  -27.2685  -33.3609   26.2084 H   0  0  0  0  0  0
  -28.3843  -32.6893   25.0287 H   0  0  0  0  0  0
  -28.0751  -31.8424   26.5364 H   0  0  0  0  0  0
  -28.2616  -38.0094   24.7500 H   0  0  0  0  0  0
  -28.1063  -36.2629   24.6306 H   0  0  0  0  0  0
  -27.2300  -37.1480   25.8867 H   0  0  0  0  0  0
  -20.9317  -29.8757   21.6934 H   0  0  0  0  0  0
  -26.0192  -38.2877   24.1392 H   0  0  0  0  0  0
  -27.0963  -22.5026   21.3716 H   0  0  0  0  0  0
  -27.2057  -19.9871   21.3537 H   0  0  0  0  0  0
  -30.1776  -24.4394   18.5847 H   0  0  0  0  0  0
  -30.6455  -25.7341   19.7988 H   0  0  0  0  0  0
  -30.2392  -18.5252   18.5434 H   0  0  0  0  0  0
  -31.2828  -18.0389   19.8688 H   0  0  0  0  0  0
  -30.1915  -17.9824   22.2422 H   0  0  0  0  0  0
  -28.4618  -18.1731   22.3308 H   0  0  0  0  0  0
  -30.6106  -16.0909   18.4516 H   0  0  0  0  0  0
  -28.9314  -16.4381   18.7113 H   0  0  0  0  0  0
  -28.0358  -16.0379   21.3237 H   0  0  0  0  0  0
  -29.3275  -15.7486   22.4554 H   0  0  0  0  0  0
  -29.4019  -24.5400   21.6157 H   0  0  0  0  0  0
  -27.8264  -24.9763   18.8717 H   0  0  0  0  0  0
  1 25  1  0  0  0
  1 30  2  0  0  0
  1 85  1  0  0  0
  2  3  1  0  0  0
  2 25  1  0  0  0
  2 86  1  0  0  0
  2 87  1  0  0  0
  3  4  1  0  0  0
  3 88  1  0  0  0
  3 89  1  0  0  0
  4  5  1  0  0  0
  4 90  1  0  0  0
  4 91  1  0  0  0
  5  6  1  0  0  0
  5 26  1  0  0  0
  5 92  1  0  0  0
  6 25  1  0  0  0
  6 93  1  0  0  0
  6 94  1  0  0  0
  7  8  2  0  0  0
  7 26  1  0  0  0
  7 29  1  0  0  0
  8  9  1  0  0  0
  8 22  1  0  0  0
  9 10  1  0  0  0
  9 27  2  0  0  0
 10 11  2  0  0  0
 10 15  1  0  0  0
 11 12  1  0  0  0
 11 95  1  0  0  0
 12 13  2  0  0  0
 12 96  1  0  0  0
 13 14  1  0  0  0
 13 31  1  0  0  0
 14 15  2  0  0  0
 14 97  1  0  0  0
 15 98  1  0  0  0
 16 17  2  0  0  0
 16 21  1  0  0  0
 16 31  1  0  0  0
 17 18  1  0  0  0
 17 99  1  0  0  0
 18 19  2  0  0  0
 18100  1  0  0  0
 19 20  1  0  0  0
 19 24  1  0  0  0
 20 21  2  0  0  0
 20101  1  0  0  0
 21 23  1  0  0  0
 22 28  1  0  0  0
 22 32  2  0  0  0
 26 27  1  0  0  0
 28102  1  0  0  0
 28103  1  0  0  0
 29104  1  0  0  0
 29105  1  0  0  0
 33 34  1  0  0  0
 33 66  1  0  0  0
 33 70  2  0  0  0
 34 36  1  0  0  0
 34 59  1  0  0  0
 34106  1  0  0  0
 35 44  2  0  0  0
 35 45  1  0  0  0
 35 68  1  0  0  0
 36 56  1  0  0  0
 36107  1  0  0  0
 37 39  1  0  0  0
 37 47  1  0  0  0
 37 66  1  0  0  0
 37108  1  0  0  0
 38 43  2  0  0  0
 38 46  1  0  0  0
 38 47  1  0  0  0
 39 64  1  0  0  0
 39 67  2  0  0  0
 40 52  1  0  0  0
 40 53  2  0  0  0
 40 58  1  0  0  0
 41109  1  0  0  0
 41110  1  0  0  0
 41111  1  0  0  0
 41 48  1  0  0  0
 42 43  1  0  0  0
 42 66  1  0  0  0
 42112  1  0  0  0
 42113  1  0  0  0
 43 44  1  0  0  0
 44114  1  0  0  0
 45 46  2  0  0  0
 45115  1  0  0  0
 46116  1  0  0  0
 47117  1  0  0  0
 47118  1  0  0  0
 48 56  1  0  0  0
 48 65  1  0  0  0
 48119  1  0  0  0
 49 50  1  0  0  0
 49 53  1  0  0  0
 49 64  1  0  0  0
 49120  1  0  0  0
 50 51  1  0  0  0
 50121  1  0  0  0
 50122  1  0  0  0
 51 52  1  0  0  0
 51123  1  0  0  0
 51124  1  0  0  0
 52125  1  0  0  0
 52126  1  0  0  0
 53 54  1  0  0  0
 54 55  2  0  0  0
 54127  1  0  0  0
 55 57  1  0  0  0
 55128  1  0  0  0
 56 69  2  0  0  0
 57 58  2  0  0  0
 57129  1  0  0  0
 58130  1  0  0  0
 59 60  1  0  0  0
 59 61  1  0  0  0
 59 62  1  0  0  0
 60131  1  0  0  0
 60132  1  0  0  0
 60133  1  0  0  0
 61134  1  0  0  0
 61135  1  0  0  0
 61136  1  0  0  0
 62137  1  0  0  0
 62138  1  0  0  0
 62139  1  0  0  0
 63 65  1  0  0  0
 63140  1  0  0  0
 63141  1  0  0  0
 63142  1  0  0  0
 64143  1  0  0  0
 65144  1  0  0  0
 68 81  1  0  0  0
 71 72  2  0  0  0
 71 73  1  0  0  0
 71145  1  0  0  0
 72 74  1  0  0  0
 72146  1  0  0  0
 73 82  2  0  0  0
 73 80  1  0  0  0
 74 83  2  0  0  0
 74 84  1  0  0  0
 75 80  1  0  0  0
 75 81  1  0  0  0
 75147  1  0  0  0
 75148  1  0  0  0
 76 78  1  0  0  0
 76 84  1  0  0  0
 76149  1  0  0  0
 76150  1  0  0  0
 77 79  1  0  0  0
 77 84  1  0  0  0
 77151  1  0  0  0
 77152  1  0  0  0
 78 85  1  0  0  0
 78153  1  0  0  0
 78154  1  0  0  0
 79 85  1  0  0  0
 79155  1  0  0  0
 79156  1  0  0  0
 80 81  1  0  0  0
 80157  1  0  0  0
 81158  1  0  0  0
 82 83  1  0  0  0
M  ISO  4   1 100  68 101  81 101  85 100
M  END
> <chiral flag>
0

> <version>
0

> <s_m_source_file>
/data/baiqing/PycharmProjects/Reinvent-master-3.2/result/LINK_invent/BTK/process_docking_weight1_custom_sum_contain_oxygen_bond_distance_aromatic_linkinvent_7_9_3/rearranged_h_0198.sdf

> <i_m_source_file_index>
20

> <r_mmod_Potential_Energy-OPLS-2005>
182.218780517578

> <r_mmod_Stretch_Energy-OPLS-2005>
50.9777069091797

> <r_mmod_Bend_Energy-OPLS-2005>
131.192535400391

> <r_mmod_Torsional_Energy-OPLS-2005>
370.166168212891

> <r_mmod_Improper_Torsional_Energy-OPLS-2005>
22.6859893798828

> <r_mmod_Van_der_Waal_Energy-OPLS-2005>
155.538818359375

> <r_mmod_Electrostatic_Energy-OPLS-2005>
-340.484802246094

> <r_mmod_Solvation_Energy-OPLS-2005>
-232.344619750977

> <b_mmod_Minimization_Converged-OPLS-2005>
0

> <r_mmod_RMS_Derivative-OPLS-2005>
0.845490455627441

$$$$
20
                    3D
 Structure written by MMmdl.
150159  0  0  1  0            999 V2000
  -30.5000  -15.0393   20.4279 C   0  0  0  0  0  0
  -30.4382  -12.6480   19.5222 C   0  0  0  0  0  0
  -29.5298  -12.5530   18.2724 C   0  0  0  0  0  0
  -28.0644  -12.3151   18.6839 C   0  0  0  0  0  0
  -27.6224  -13.2570   19.8333 C   0  0  2  0  0  0
  -28.6570  -13.3221   20.9770 C   0  0  0  0  0  0
  -25.2420  -13.8229   20.5700 C   0  0  0  0  0  0
  -24.1752  -13.0442   20.9240 C   0  0  0  0  0  0
  -24.6379  -11.6932   20.8751 C   0  0  0  0  0  0
  -23.9070  -10.4298   21.0396 C   0  0  0  0  0  0
  -24.3622   -9.4207   21.9163 C   0  0  0  0  0  0
  -23.6300   -8.2242   22.0738 C   0  0  0  0  0  0
  -22.4269   -8.0285   21.3554 C   0  0  0  0  0  0
  -21.9912   -9.0248   20.4642 C   0  0  0  0  0  0
  -22.7245  -10.2127   20.3046 C   0  0  0  0  0  0
  -21.6855   -6.0739   22.5289 C   0  0  0  0  0  0
  -21.4028   -6.5638   23.8221 C   0  0  0  0  0  0
  -21.3663   -5.6790   24.9182 C   0  0  0  0  0  0
  -21.6038   -4.3051   24.7227 C   0  0  0  0  0  0
  -21.8815   -3.8147   23.4345 C   0  0  0  0  0  0
  -21.9187   -4.6972   22.3404 C   0  0  0  0  0  0
  -22.7773  -13.5204   21.1901 C   0  0  0  0  0  0
  -22.1662   -4.2158   21.0979 F   0  0  0  0  0  0
  -21.5618   -3.4526   25.7734 F   0  0  0  0  0  0
  -29.9255  -13.7611   20.3812 N   0  0  0  0  0  0
  -26.2838  -12.9474   20.3198 N   0  0  0  0  0  0
  -25.9308  -11.6601   20.5723 N   0  0  0  0  0  0
  -22.0442  -12.8181   22.0466 N   0  0  0  0  0  0
  -25.4082  -15.1956   20.4075 N   0  0  0  0  0  0
  -31.7058  -15.0988   20.1586 O   0  0  0  0  0  0
  -21.6642   -6.8882   21.4247 O   0  0  0  0  0  0
  -22.3443  -14.5502   20.6742 O   0  0  0  0  0  0
  -24.6481  -31.8390   23.1829 C   0  0  0  0  0  0
  -25.9231  -32.4674   23.8231 C   0  0  1  0  0  0
  -27.2158  -27.0575   20.1834 C   0  0  0  0  0  0
  -25.5975  -33.8479   24.2174 N   0  0  0  0  0  0
  -23.4577  -30.4563   21.5270 C   0  0  2  0  0  0
  -24.9140  -28.8743   20.1093 C   0  0  0  0  0  0
  -22.7601  -29.4513   22.4785 C   0  0  0  0  0  0
  -18.0324  -28.1416   22.8458 C   0  0  0  0  0  0
  -24.1497  -36.7245   23.2633 C   0  0  0  0  0  0
  -26.0190  -30.6897   21.3950 C   0  0  0  0  0  0
  -26.0914  -29.2923   20.7402 C   0  0  0  0  0  0
  -27.2424  -28.4031   20.7578 C   0  0  0  0  0  0
  -26.0119  -26.7673   19.4994 C   0  0  0  0  0  0
  -24.8931  -27.6288   19.4671 C   0  0  0  0  0  0
  -23.6952  -29.7877   20.1459 C   0  0  0  0  0  0
  -25.4134  -36.3022   24.0300 C   0  0  1  0  0  0
  -20.5938  -28.3758   23.1203 C   0  0  2  0  0  0
  -20.6801  -26.9449   22.5391 C   0  0  0  0  0  0
  -19.5784  -26.6387   21.5201 C   0  0  0  0  0  0
  -18.1970  -26.7945   22.1613 C   0  0  0  0  0  0
  -19.1577  -28.8900   23.2826 C   0  0  0  0  0  0
  -18.9491  -30.1489   23.8867 C   0  0  0  0  0  0
  -17.6485  -30.6601   24.0567 C   0  0  0  0  0  0
  -25.9083  -34.9396   23.5042 C   0  0  0  0  0  0
  -16.5382  -29.9100   23.6336 C   0  0  0  0  0  0
  -16.7303  -28.6524   23.0347 C   0  0  0  0  0  0
  -26.4550  -31.6538   25.0673 C   0  0  0  0  0  0
  -25.3722  -31.3745   26.1359 C   0  0  0  0  0  0
  -27.0411  -30.2919   24.6268 C   0  0  0  0  0  0
  -27.6069  -32.4302   25.7474 C   0  0  0  0  0  0
  -27.5590  -37.1780   24.8471 C   0  0  0  0  0  0
  -21.4286  -29.3069   22.3550 N   0  0  0  0  0  0
  -26.4307  -37.3730   23.9398 N   0  0  0  0  0  0
  -24.7280  -31.0178   22.0903 N   0  0  0  0  0  0
  -23.4214  -28.8049   23.2952 O   0  0  0  0  0  0
  -28.2258  -26.0024   20.2903 O   0  0  0  0  0  0
  -26.5659  -34.8901   22.4624 O   0  0  0  0  0  0
  -23.5576  -32.1308   23.7003 O   0  0  0  0  0  0
  -29.8477  -22.7440   21.2184 C   0  0  0  0  0  0
  -28.6766  -23.0314   20.4314 C   0  0  0  0  0  0
  -29.2739  -18.5152   19.3057 C   0  0  0  0  0  0
  -28.9579  -19.1599   20.6285 C   0  0  2  0  0  0
  -29.9814  -17.7973   20.4449 C   0  0  2  0  0  0
  -30.6727  -23.7604   21.9484 C   0  0  0  0  0  0
  -27.8456  -24.4683   20.1155 C   0  0  0  0  0  0
  -30.1356  -21.4356   21.2976 N   0  0  0  0  0  0
  -28.2824  -21.7683   20.0658 N   0  0  0  0  0  0
  -29.1856  -20.7685   20.5719 N   0  0  0  0  0  0
  -29.7023  -16.2337   20.5619 N   0  0  0  0  0  0
  -31.4736  -12.8114   19.2201 H   0  0  0  0  0  0
  -30.4373  -11.7070   20.0740 H   0  0  0  0  0  0
  -29.8740  -11.7591   17.6078 H   0  0  0  0  0  0
  -29.6000  -13.4814   17.7034 H   0  0  0  0  0  0
  -27.9747  -11.2758   19.0041 H   0  0  0  0  0  0
  -27.4046  -12.4296   17.8237 H   0  0  0  0  0  0
  -27.5735  -14.2509   19.3864 H   0  0  0  0  0  0
  -28.7615  -12.3558   21.4709 H   0  0  0  0  0  0
  -28.3338  -14.0292   21.7430 H   0  0  0  0  0  0
  -25.2773   -9.5675   22.4731 H   0  0  0  0  0  0
  -24.0015   -7.4623   22.7438 H   0  0  0  0  0  0
  -21.0852   -8.8754   19.8939 H   0  0  0  0  0  0
  -22.3701  -10.9652   19.6144 H   0  0  0  0  0  0
  -21.2042   -7.6153   23.9739 H   0  0  0  0  0  0
  -21.1489   -6.0513   25.9086 H   0  0  0  0  0  0
  -22.0590   -2.7611   23.2835 H   0  0  0  0  0  0
  -22.4098  -11.9849   22.4848 H   0  0  0  0  0  0
  -21.1052  -13.1173   22.2693 H   0  0  0  0  0  0
  -24.6290  -15.8404   20.4826 H   0  0  0  0  0  0
  -26.2322  -15.6211   20.0017 H   0  0  0  0  0  0
  -26.7274  -32.5281   23.0934 H   0  0  0  0  0  0
  -25.0157  -33.9577   25.0345 H   0  0  0  0  0  0
  -22.7621  -31.2835   21.3663 H   0  0  0  0  0  0
  -23.3768  -35.9569   23.3290 H   0  0  0  0  0  0
  -24.3585  -36.8882   22.2049 H   0  0  0  0  0  0
  -23.7232  -37.6426   23.6679 H   0  0  0  0  0  0
  -26.1787  -31.4373   20.6169 H   0  0  0  0  0  0
  -26.8867  -30.7500   22.0396 H   0  0  0  0  0  0
  -28.1332  -28.7165   21.2833 H   0  0  0  0  0  0
  -25.8891  -25.8179   19.0035 H   0  0  0  0  0  0
  -23.9992  -27.3058   18.9530 H   0  0  0  0  0  0
  -23.8500  -30.5658   19.3967 H   0  0  0  0  0  0
  -22.8085  -29.2399   19.8222 H   0  0  0  0  0  0
  -25.1319  -36.1854   25.0785 H   0  0  0  0  0  0
  -21.0040  -28.3374   24.1326 H   0  0  0  0  0  0
  -20.5697  -26.2373   23.3621 H   0  0  0  0  0  0
  -21.6669  -26.7450   22.1200 H   0  0  0  0  0  0
  -19.6946  -25.6286   21.1271 H   0  0  0  0  0  0
  -19.6728  -27.3162   20.6705 H   0  0  0  0  0  0
  -17.4227  -26.6676   21.4032 H   0  0  0  0  0  0
  -18.0396  -26.0111   22.9036 H   0  0  0  0  0  0
  -19.7968  -30.7311   24.2229 H   0  0  0  0  0  0
  -17.5045  -31.6278   24.5180 H   0  0  0  0  0  0
  -15.5387  -30.3001   23.7658 H   0  0  0  0  0  0
  -15.8709  -28.0835   22.7069 H   0  0  0  0  0  0
  -24.5931  -30.7056   25.7685 H   0  0  0  0  0  0
  -24.8884  -32.2933   26.4681 H   0  0  0  0  0  0
  -25.8005  -30.8996   27.0196 H   0  0  0  0  0  0
  -26.3025  -29.6623   24.1290 H   0  0  0  0  0  0
  -27.4035  -29.7228   25.4839 H   0  0  0  0  0  0
  -27.8937  -30.4130   23.9582 H   0  0  0  0  0  0
  -27.2669  -33.3649   26.1951 H   0  0  0  0  0  0
  -28.3957  -32.6775   25.0354 H   0  0  0  0  0  0
  -28.0649  -31.8476   26.5479 H   0  0  0  0  0  0
  -28.2584  -38.0098   24.7531 H   0  0  0  0  0  0
  -28.1110  -36.2620   24.6304 H   0  0  0  0  0  0
  -27.2307  -37.1438   25.8874 H   0  0  0  0  0  0
  -20.9490  -29.8791   21.6738 H   0  0  0  0  0  0
  -26.0178  -38.2788   24.1426 H   0  0  0  0  0  0
  -28.4461  -18.0086   18.8139 H   0  0  0  0  0  0
  -29.9092  -19.0753   18.6238 H   0  0  0  0  0  0
  -27.9850  -18.9654   21.0736 H   0  0  0  0  0  0
  -31.0301  -18.0501   20.5910 H   0  0  0  0  0  0
  -31.3532  -23.3005   22.6652 H   0  0  0  0  0  0
  -30.0424  -24.4544   22.5055 H   0  0  0  0  0  0
  -31.2701  -24.3520   21.2565 H   0  0  0  0  0  0
  -27.5589  -24.3986   19.0671 H   0  0  0  0  0  0
  -26.9052  -24.3732   20.6598 H   0  0  0  0  0  0
  -28.7353  -16.0158   20.7530 H   0  0  0  0  0  0
  1 25  1  0  0  0
  1 30  2  0  0  0
  1 81  1  0  0  0
  2  3  1  0  0  0
  2 25  1  0  0  0
  2 82  1  0  0  0
  2 83  1  0  0  0
  3  4  1  0  0  0
  3 84  1  0  0  0
  3 85  1  0  0  0
  4  5  1  0  0  0
  4 86  1  0  0  0
  4 87  1  0  0  0
  5  6  1  0  0  0
  5 26  1  0  0  0
  5 88  1  0  0  0
  6 25  1  0  0  0
  6 89  1  0  0  0
  6 90  1  0  0  0
  7  8  2  0  0  0
  7 26  1  0  0  0
  7 29  1  0  0  0
  8  9  1  0  0  0
  8 22  1  0  0  0
  9 10  1  0  0  0
  9 27  2  0  0  0
 10 11  2  0  0  0
 10 15  1  0  0  0
 11 12  1  0  0  0
 11 91  1  0  0  0
 12 13  2  0  0  0
 12 92  1  0  0  0
 13 14  1  0  0  0
 13 31  1  0  0  0
 14 15  2  0  0  0
 14 93  1  0  0  0
 15 94  1  0  0  0
 16 17  2  0  0  0
 16 21  1  0  0  0
 16 31  1  0  0  0
 17 18  1  0  0  0
 17 95  1  0  0  0
 18 19  2  0  0  0
 18 96  1  0  0  0
 19 20  1  0  0  0
 19 24  1  0  0  0
 20 21  2  0  0  0
 20 97  1  0  0  0
 21 23  1  0  0  0
 22 28  1  0  0  0
 22 32  2  0  0  0
 26 27  1  0  0  0
 28 98  1  0  0  0
 28 99  1  0  0  0
 29100  1  0  0  0
 29101  1  0  0  0
 33 34  1  0  0  0
 33 66  1  0  0  0
 33 70  2  0  0  0
 34 36  1  0  0  0
 34 59  1  0  0  0
 34102  1  0  0  0
 35 44  2  0  0  0
 35 45  1  0  0  0
 35 68  1  0  0  0
 36 56  1  0  0  0
 36103  1  0  0  0
 37 39  1  0  0  0
 37 47  1  0  0  0
 37 66  1  0  0  0
 37104  1  0  0  0
 38 43  2  0  0  0
 38 46  1  0  0  0
 38 47  1  0  0  0
 39 64  1  0  0  0
 39 67  2  0  0  0
 40 52  1  0  0  0
 40 53  2  0  0  0
 40 58  1  0  0  0
 41105  1  0  0  0
 41106  1  0  0  0
 41107  1  0  0  0
 41 48  1  0  0  0
 42 43  1  0  0  0
 42 66  1  0  0  0
 42108  1  0  0  0
 42109  1  0  0  0
 43 44  1  0  0  0
 44110  1  0  0  0
 45 46  2  0  0  0
 45111  1  0  0  0
 46112  1  0  0  0
 47113  1  0  0  0
 47114  1  0  0  0
 48 56  1  0  0  0
 48 65  1  0  0  0
 48115  1  0  0  0
 49 50  1  0  0  0
 49 53  1  0  0  0
 49 64  1  0  0  0
 49116  1  0  0  0
 50 51  1  0  0  0
 50117  1  0  0  0
 50118  1  0  0  0
 51 52  1  0  0  0
 51119  1  0  0  0
 51120  1  0  0  0
 52121  1  0  0  0
 52122  1  0  0  0
 53 54  1  0  0  0
 54 55  2  0  0  0
 54123  1  0  0  0
 55 57  1  0  0  0
 55124  1  0  0  0
 56 69  2  0  0  0
 57 58  2  0  0  0
 57125  1  0  0  0
 58126  1  0  0  0
 59 60  1  0  0  0
 59 61  1  0  0  0
 59 62  1  0  0  0
 60127  1  0  0  0
 60128  1  0  0  0
 60129  1  0  0  0
 61130  1  0  0  0
 61131  1  0  0  0
 61132  1  0  0  0
 62133  1  0  0  0
 62134  1  0  0  0
 62135  1  0  0  0
 63 65  1  0  0  0
 63136  1  0  0  0
 63137  1  0  0  0
 63138  1  0  0  0
 64139  1  0  0  0
 65140  1  0  0  0
 68 77  1  0  0  0
 71 72  1  0  0  0
 71 76  1  0  0  0
 71 78  2  0  0  0
 72 77  1  0  0  0
 72 79  2  0  0  0
 73 74  1  0  0  0
 73 75  1  0  0  0
 73141  1  0  0  0
 73142  1  0  0  0
 74 75  1  0  0  0
 74 80  1  0  0  0
 74143  1  0  0  0
 75 81  1  0  0  0
 75144  1  0  0  0
 76145  1  0  0  0
 76146  1  0  0  0
 76147  1  0  0  0
 77148  1  0  0  0
 77149  1  0  0  0
 78 80  1  0  0  0
 79 80  1  0  0  0
 81150  1  0  0  0
M  ISO  4   1 100  68 101  77 101  81 100
M  END
> <chiral flag>
0

> <version>
0

> <s_m_source_file>
/data/baiqing/PycharmProjects/Reinvent-master-3.2/result/LINK_invent/BTK/process_docking_weight1_custom_sum_contain_oxygen_bond_distance_aromatic_linkinvent_7_9_3/rearranged_h_0198.sdf

> <i_m_source_file_index>
21

> <r_mmod_Potential_Energy-OPLS-2005>
777.908996582031

> <r_mmod_Stretch_Energy-OPLS-2005>
350.345886230469

> <r_mmod_Bend_Energy-OPLS-2005>
315.286865234375

> <r_mmod_Torsional_Energy-OPLS-2005>
282.616119384766

> <r_mmod_Improper_Torsional_Energy-OPLS-2005>
7.39774894714355

> <r_mmod_Van_der_Waal_Energy-OPLS-2005>
108.207916259766

> <r_mmod_Electrostatic_Energy-OPLS-2005>
-330.974060058594

> <r_mmod_Solvation_Energy-OPLS-2005>
-227.088882446289

> <b_mmod_Minimization_Converged-OPLS-2005>
0

> <r_mmod_RMS_Derivative-OPLS-2005>
2.36769938468933

$$$$
21
                    3D
 Structure written by MMmdl.
147156  0  0  1  0            999 V2000
  -30.3680  -15.4959   20.3501 C   0  0  0  0  0  0
  -30.4268  -12.9807   19.5320 C   0  0  0  0  0  0
  -29.5414  -12.6201   18.3091 C   0  0  0  0  0  0
  -28.1068  -12.2944   18.7513 C   0  0  0  0  0  0
  -27.5992  -13.2964   19.8147 C   0  0  2  0  0  0
  -28.6222  -13.5817   20.9368 C   0  0  0  0  0  0
  -25.2351  -13.8282   20.5798 C   0  0  0  0  0  0
  -24.1717  -13.0443   20.9269 C   0  0  0  0  0  0
  -24.6401  -11.6946   20.8759 C   0  0  0  0  0  0
  -23.9103  -10.4297   21.0400 C   0  0  0  0  0  0
  -24.3643   -9.4211   21.9182 C   0  0  0  0  0  0
  -23.6307   -8.2251   22.0754 C   0  0  0  0  0  0
  -22.4288   -8.0289   21.3548 C   0  0  0  0  0  0
  -21.9929   -9.0264   20.4646 C   0  0  0  0  0  0
  -22.7271  -10.2138   20.3053 C   0  0  0  0  0  0
  -21.6859   -6.0740   22.5279 C   0  0  0  0  0  0
  -21.4019   -6.5641   23.8212 C   0  0  0  0  0  0
  -21.3660   -5.6794   24.9174 C   0  0  0  0  0  0
  -21.6043   -4.3057   24.7221 C   0  0  0  0  0  0
  -21.8819   -3.8149   23.4343 C   0  0  0  0  0  0
  -21.9194   -4.6966   22.3400 C   0  0  0  0  0  0
  -22.7732  -13.5182   21.1910 C   0  0  0  0  0  0
  -22.1663   -4.2153   21.0978 F   0  0  0  0  0  0
  -21.5626   -3.4539   25.7734 F   0  0  0  0  0  0
  -29.8144  -14.1588   20.2826 N   0  0  0  0  0  0
  -26.2780  -12.9586   20.3237 N   0  0  0  0  0  0
  -25.9343  -11.6668   20.5709 N   0  0  0  0  0  0
  -22.0400  -12.8159   22.0466 N   0  0  0  0  0  0
  -25.4001  -15.2022   20.4288 N   0  0  0  0  0  0
  -31.5990  -15.4317   20.1790 O   0  0  0  0  0  0
  -21.6649   -6.8887   21.4242 O   0  0  0  0  0  0
  -22.3408  -14.5482   20.6752 O   0  0  0  0  0  0
  -24.6766  -31.8077   23.1576 C   0  0  0  0  0  0
  -25.9381  -32.4505   23.8096 C   0  0  1  0  0  0
  -27.2206  -26.7767   20.2056 C   0  0  0  0  0  0
  -25.5987  -33.8327   24.1989 N   0  0  0  0  0  0
  -23.4989  -30.4128   21.5102 C   0  0  2  0  0  0
  -24.9543  -28.7686   20.1160 C   0  0  0  0  0  0
  -22.7732  -29.4356   22.4736 C   0  0  0  0  0  0
  -18.0333  -28.1416   22.8461 C   0  0  0  0  0  0
  -24.1496  -36.7174   23.2655 C   0  0  0  0  0  0
  -26.0758  -30.5653   21.4102 C   0  0  0  0  0  0
  -26.1420  -29.1383   20.7585 C   0  0  0  0  0  0
  -27.2644  -28.1682   20.7720 C   0  0  0  0  0  0
  -26.0012  -26.5970   19.5089 C   0  0  0  0  0  0
  -24.9184  -27.5223   19.4683 C   0  0  0  0  0  0
  -23.7478  -29.7157   20.1425 C   0  0  0  0  0  0
  -25.4145  -36.2919   24.0286 C   0  0  1  0  0  0
  -20.5966  -28.3771   23.1160 C   0  0  2  0  0  0
  -20.6802  -26.9438   22.5403 C   0  0  0  0  0  0
  -19.5776  -26.6372   21.5217 C   0  0  0  0  0  0
  -18.1961  -26.7945   22.1624 C   0  0  0  0  0  0
  -19.1597  -28.8917   23.2793 C   0  0  0  0  0  0
  -18.9505  -30.1503   23.8835 C   0  0  0  0  0  0
  -17.6495  -30.6601   24.0551 C   0  0  0  0  0  0
  -25.9115  -34.9305   23.4970 C   0  0  0  0  0  0
  -16.5386  -29.9085   23.6347 C   0  0  0  0  0  0
  -16.7313  -28.6505   23.0367 C   0  0  0  0  0  0
  -26.4581  -31.6513   25.0690 C   0  0  0  0  0  0
  -25.3666  -31.3806   26.1317 C   0  0  0  0  0  0
  -27.0506  -30.2863   24.6533 C   0  0  0  0  0  0
  -27.6038  -32.4361   25.7508 C   0  0  0  0  0  0
  -27.5558  -37.1756   24.8476 C   0  0  0  0  0  0
  -21.4388  -29.3033   22.3489 N   0  0  0  0  0  0
  -26.4283  -37.3665   23.9392 N   0  0  0  0  0  0
  -24.7733  -30.9596   22.0789 N   0  0  0  0  0  0
  -23.4210  -28.7947   23.3047 O   0  0  0  0  0  0
  -28.1942  -25.5950   20.2818 O   0  0  0  0  0  0
  -26.5748  -34.8867   22.4581 O   0  0  0  0  0  0
  -23.5804  -32.1116   23.6576 O   0  0  0  0  0  0
  -31.1871  -22.2198   20.8321 C   0  0  0  0  0  0
  -29.1269  -22.5551   20.3857 C   0  0  0  0  0  0
  -29.5298  -18.0705   21.3238 C   0  0  0  0  0  0
  -29.8632  -18.1323   19.4095 C   0  0  0  0  0  0
  -29.1110  -19.3388   20.3000 C   0  0  0  0  0  0
  -27.9386  -23.8918   20.1595 C   0  0  0  0  0  0
  -30.2683  -23.1970   20.6558 N   0  0  0  0  0  0
  -30.7753  -20.9712   20.7039 N   0  0  0  0  0  0
  -29.4456  -21.0139   20.4147 N   0  0  0  0  0  0
  -29.6424  -16.8553   20.3179 N   0  0  0  0  0  0
  -31.4303  -13.2164   19.1758 H   0  0  0  0  0  0
  -30.5527  -12.1185   20.1890 H   0  0  0  0  0  0
  -29.9682  -11.7788   17.7613 H   0  0  0  0  0  0
  -29.5258  -13.4623   17.6158 H   0  0  0  0  0  0
  -28.1116  -11.2887   19.1733 H   0  0  0  0  0  0
  -27.4353  -12.2651   17.8925 H   0  0  0  0  0  0
  -27.4773  -14.2317   19.2663 H   0  0  0  0  0  0
  -28.8510  -12.6864   21.5167 H   0  0  0  0  0  0
  -28.2152  -14.3118   21.6385 H   0  0  0  0  0  0
  -25.2785   -9.5684   22.4762 H   0  0  0  0  0  0
  -24.0011   -7.4642   22.7476 H   0  0  0  0  0  0
  -21.0861   -8.8790   19.8952 H   0  0  0  0  0  0
  -22.3729  -10.9678   19.6163 H   0  0  0  0  0  0
  -21.2017   -7.6151   23.9716 H   0  0  0  0  0  0
  -21.1480   -6.0524   25.9077 H   0  0  0  0  0  0
  -22.0596   -2.7610   23.2844 H   0  0  0  0  0  0
  -22.4039  -11.9831   22.4856 H   0  0  0  0  0  0
  -21.1010  -13.1156   22.2672 H   0  0  0  0  0  0
  -24.6376  -15.8580   20.5598 H   0  0  0  0  0  0
  -26.2614  -15.6484   20.1379 H   0  0  0  0  0  0
  -26.7458  -32.4998   23.0808 H   0  0  0  0  0  0
  -25.0047  -33.9378   25.0082 H   0  0  0  0  0  0
  -22.8200  -31.2482   21.3266 H   0  0  0  0  0  0
  -23.3756  -35.9508   23.3313 H   0  0  0  0  0  0
  -24.3554  -36.8833   22.2069 H   0  0  0  0  0  0
  -23.7267  -37.6362   23.6727 H   0  0  0  0  0  0
  -26.2710  -31.2955   20.6239 H   0  0  0  0  0  0
  -26.9299  -30.6296   22.0722 H   0  0  0  0  0  0
  -28.1601  -28.4540   21.3052 H   0  0  0  0  0  0
  -25.8459  -25.6500   19.0123 H   0  0  0  0  0  0
  -24.0195  -27.2321   18.9417 H   0  0  0  0  0  0
  -23.9172  -30.4783   19.3816 H   0  0  0  0  0  0
  -22.8538  -29.1791   19.8204 H   0  0  0  0  0  0
  -25.1357  -36.1700   25.0779 H   0  0  0  0  0  0
  -21.0049  -28.3388   24.1286 H   0  0  0  0  0  0
  -20.5675  -26.2392   23.3656 H   0  0  0  0  0  0
  -21.6664  -26.7394   22.1214 H   0  0  0  0  0  0
  -19.6933  -25.6266   21.1288 H   0  0  0  0  0  0
  -19.6715  -27.3147   20.6718 H   0  0  0  0  0  0
  -17.4227  -26.6685   21.4030 H   0  0  0  0  0  0
  -18.0353  -26.0103   22.9037 H   0  0  0  0  0  0
  -19.7981  -30.7337   24.2175 H   0  0  0  0  0  0
  -17.5047  -31.6275   24.5165 H   0  0  0  0  0  0
  -15.5383  -30.2966   23.7707 H   0  0  0  0  0  0
  -15.8714  -28.0802   22.7120 H   0  0  0  0  0  0
  -24.5864  -30.7144   25.7616 H   0  0  0  0  0  0
  -24.8841  -32.3022   26.4582 H   0  0  0  0  0  0
  -25.7859  -30.9071   27.0203 H   0  0  0  0  0  0
  -26.3208  -29.6494   24.1524 H   0  0  0  0  0  0
  -27.3963  -29.7285   25.5247 H   0  0  0  0  0  0
  -27.9176  -30.4010   24.0026 H   0  0  0  0  0  0
  -27.2576  -33.3718   26.1914 H   0  0  0  0  0  0
  -28.3938  -32.6838   25.0407 H   0  0  0  0  0  0
  -28.0607  -31.8609   26.5571 H   0  0  0  0  0  0
  -28.2590  -38.0033   24.7457 H   0  0  0  0  0  0
  -28.1036  -36.2553   24.6396 H   0  0  0  0  0  0
  -27.2258  -37.1505   25.8877 H   0  0  0  0  0  0
  -20.9676  -29.8698   21.6575 H   0  0  0  0  0  0
  -26.0120  -38.2728   24.1360 H   0  0  0  0  0  0
  -32.2185  -22.4412   21.0683 H   0  0  0  0  0  0
  -28.7690  -17.9174   22.0896 H   0  0  0  0  0  0
  -30.4736  -18.2681   21.8386 H   0  0  0  0  0  0
  -30.9230  -18.3513   19.2570 H   0  0  0  0  0  0
  -29.4088  -18.0325   18.4235 H   0  0  0  0  0  0
  -28.0383  -19.2915   20.1108 H   0  0  0  0  0  0
  -27.1226  -23.6763   20.8489 H   0  0  0  0  0  0
  -27.5063  -23.7346   19.1715 H   0  0  0  0  0  0
  1 25  1  0  0  0
  1 30  2  0  0  0
  1 80  1  0  0  0
  2  3  1  0  0  0
  2 25  1  0  0  0
  2 81  1  0  0  0
  2 82  1  0  0  0
  3  4  1  0  0  0
  3 83  1  0  0  0
  3 84  1  0  0  0
  4  5  1  0  0  0
  4 85  1  0  0  0
  4 86  1  0  0  0
  5  6  1  0  0  0
  5 26  1  0  0  0
  5 87  1  0  0  0
  6 25  1  0  0  0
  6 88  1  0  0  0
  6 89  1  0  0  0
  7  8  2  0  0  0
  7 26  1  0  0  0
  7 29  1  0  0  0
  8  9  1  0  0  0
  8 22  1  0  0  0
  9 10  1  0  0  0
  9 27  2  0  0  0
 10 11  2  0  0  0
 10 15  1  0  0  0
 11 12  1  0  0  0
 11 90  1  0  0  0
 12 13  2  0  0  0
 12 91  1  0  0  0
 13 14  1  0  0  0
 13 31  1  0  0  0
 14 15  2  0  0  0
 14 92  1  0  0  0
 15 93  1  0  0  0
 16 17  2  0  0  0
 16 21  1  0  0  0
 16 31  1  0  0  0
 17 18  1  0  0  0
 17 94  1  0  0  0
 18 19  2  0  0  0
 18 95  1  0  0  0
 19 20  1  0  0  0
 19 24  1  0  0  0
 20 21  2  0  0  0
 20 96  1  0  0  0
 21 23  1  0  0  0
 22 28  1  0  0  0
 22 32  2  0  0  0
 26 27  1  0  0  0
 28 97  1  0  0  0
 28 98  1  0  0  0
 29 99  1  0  0  0
 29100  1  0  0  0
 33 34  1  0  0  0
 33 66  1  0  0  0
 33 70  2  0  0  0
 34 36  1  0  0  0
 34 59  1  0  0  0
 34101  1  0  0  0
 35 44  2  0  0  0
 35 45  1  0  0  0
 35 68  1  0  0  0
 36 56  1  0  0  0
 36102  1  0  0  0
 37 39  1  0  0  0
 37 47  1  0  0  0
 37 66  1  0  0  0
 37103  1  0  0  0
 38 43  2  0  0  0
 38 46  1  0  0  0
 38 47  1  0  0  0
 39 64  1  0  0  0
 39 67  2  0  0  0
 40 52  1  0  0  0
 40 53  2  0  0  0
 40 58  1  0  0  0
 41104  1  0  0  0
 41105  1  0  0  0
 41106  1  0  0  0
 41 48  1  0  0  0
 42 43  1  0  0  0
 42 66  1  0  0  0
 42107  1  0  0  0
 42108  1  0  0  0
 43 44  1  0  0  0
 44109  1  0  0  0
 45 46  2  0  0  0
 45110  1  0  0  0
 46111  1  0  0  0
 47112  1  0  0  0
 47113  1  0  0  0
 48 56  1  0  0  0
 48 65  1  0  0  0
 48114  1  0  0  0
 49 50  1  0  0  0
 49 53  1  0  0  0
 49 64  1  0  0  0
 49115  1  0  0  0
 50 51  1  0  0  0
 50116  1  0  0  0
 50117  1  0  0  0
 51 52  1  0  0  0
 51118  1  0  0  0
 51119  1  0  0  0
 52120  1  0  0  0
 52121  1  0  0  0
 53 54  1  0  0  0
 54 55  2  0  0  0
 54122  1  0  0  0
 55 57  1  0  0  0
 55123  1  0  0  0
 56 69  2  0  0  0
 57 58  2  0  0  0
 57124  1  0  0  0
 58125  1  0  0  0
 59 60  1  0  0  0
 59 61  1  0  0  0
 59 62  1  0  0  0
 60126  1  0  0  0
 60127  1  0  0  0
 60128  1  0  0  0
 61129  1  0  0  0
 61130  1  0  0  0
 61131  1  0  0  0
 62132  1  0  0  0
 62133  1  0  0  0
 62134  1  0  0  0
 63 65  1  0  0  0
 63135  1  0  0  0
 63136  1  0  0  0
 63137  1  0  0  0
 64138  1  0  0  0
 65139  1  0  0  0
 68 76  1  0  0  0
 71 77  1  0  0  0
 71 78  2  0  0  0
 71140  1  0  0  0
 72 76  1  0  0  0
 72 77  2  0  0  0
 72 79  1  0  0  0
 73 75  1  0  0  0
 73 80  1  0  0  0
 73141  1  0  0  0
 73142  1  0  0  0
 74 75  1  0  0  0
 74 80  1  0  0  0
 74143  1  0  0  0
 74144  1  0  0  0
 75 79  1  0  0  0
 75145  1  0  0  0
 76146  1  0  0  0
 76147  1  0  0  0
 78 79  1  0  0  0
M  ISO  4   1 100  68 101  76 101  80 100
M  END
> <chiral flag>
0

> <version>
0

> <s_m_source_file>
/data/baiqing/PycharmProjects/Reinvent-master-3.2/result/LINK_invent/BTK/process_docking_weight1_custom_sum_contain_oxygen_bond_distance_aromatic_linkinvent_7_9_3/rearranged_h_0198.sdf

> <i_m_source_file_index>
22

> <r_mmod_Potential_Energy-OPLS-2005>
2096.7548828125

> <r_mmod_Stretch_Energy-OPLS-2005>
835.527282714844

> <r_mmod_Bend_Energy-OPLS-2005>
662.918395996094

> <r_mmod_Torsional_Energy-OPLS-2005>
285.100524902344

> <r_mmod_Improper_Torsional_Energy-OPLS-2005>
13.7430973052979

> <r_mmod_Van_der_Waal_Energy-OPLS-2005>
105.374778747559

> <r_mmod_Electrostatic_Energy-OPLS-2005>
-294.754760742188

> <r_mmod_Solvation_Energy-OPLS-2005>
-234.756881713867

> <b_mmod_Minimization_Converged-OPLS-2005>
0

> <r_mmod_RMS_Derivative-OPLS-2005>
0.4823859333992

$$$$
22
                    3D
 Structure written by MMmdl.
163172  0  0  1  0            999 V2000
  -30.7318  -14.4395   20.5387 C   0  0  0  0  0  0
  -30.4045  -12.2840   19.4135 C   0  0  0  0  0  0
  -29.4831  -12.4812   18.1957 C   0  0  0  0  0  0
  -28.0028  -12.3629   18.6050 C   0  0  0  0  0  0
  -27.6535  -13.1980   19.8661 C   0  0  2  0  0  0
  -28.6998  -12.9965   20.9859 C   0  0  0  0  0  0
  -25.2530  -13.8112   20.5582 C   0  0  0  0  0  0
  -24.1820  -13.0404   20.9185 C   0  0  0  0  0  0
  -24.6368  -11.6877   20.8744 C   0  0  0  0  0  0
  -23.9039  -10.4275   21.0432 C   0  0  0  0  0  0
  -24.3587   -9.4195   21.9207 C   0  0  0  0  0  0
  -23.6263   -8.2232   22.0775 C   0  0  0  0  0  0
  -22.4259   -8.0260   21.3549 C   0  0  0  0  0  0
  -21.9876   -9.0244   20.4665 C   0  0  0  0  0  0
  -22.7207  -10.2122   20.3085 C   0  0  0  0  0  0
  -21.6856   -6.0708   22.5270 C   0  0  0  0  0  0
  -21.4023   -6.5622   23.8192 C   0  0  0  0  0  0
  -21.3668   -5.6777   24.9155 C   0  0  0  0  0  0
  -21.6045   -4.3036   24.7220 C   0  0  0  0  0  0
  -21.8819   -3.8119   23.4341 C   0  0  0  0  0  0
  -21.9199   -4.6929   22.3395 C   0  0  0  0  0  0
  -22.7850  -13.5217   21.1825 C   0  0  0  0  0  0
  -22.1669   -4.2110   21.0965 F   0  0  0  0  0  0
  -21.5636   -3.4527   25.7738 F   0  0  0  0  0  0
  -30.0169  -13.2911   20.4105 N   0  0  0  0  0  0
  -26.2976  -12.9284   20.3340 N   0  0  0  0  0  0
  -25.9289  -11.6447   20.5784 N   0  0  0  0  0  0
  -22.0476  -12.8260   22.0399 N   0  0  0  0  0  0
  -25.4106  -15.1817   20.3789 N   0  0  0  0  0  0
  -31.9161  -14.5125   20.2049 O   0  0  0  0  0  0
  -21.6644   -6.8843   21.4229 O   0  0  0  0  0  0
  -22.3540  -14.5495   20.6620 O   0  0  0  0  0  0
  -24.6164  -31.8680   23.2084 C   0  0  0  0  0  0
  -25.9072  -32.4807   23.8359 C   0  0  1  0  0  0
  -27.2377  -27.4531   20.0615 C   0  0  0  0  0  0
  -25.5945  -33.8608   24.2324 N   0  0  0  0  0  0
  -23.3992  -30.4954   21.5518 C   0  0  2  0  0  0
  -24.8415  -28.9558   20.1203 C   0  0  0  0  0  0
  -22.7403  -29.4678   22.5002 C   0  0  0  0  0  0
  -18.0279  -28.1368   22.8524 C   0  0  0  0  0  0
  -24.1496  -36.7301   23.2634 C   0  0  0  0  0  0
  -25.9290  -30.8405   21.3547 C   0  0  0  0  0  0
  -26.0049  -29.4762   20.7003 C   0  0  0  0  0  0
  -27.2063  -28.7334   20.6610 C   0  0  0  0  0  0
  -26.0445  -26.9346   19.5068 C   0  0  0  0  0  0
  -24.8525  -27.6822   19.5287 C   0  0  0  0  0  0
  -23.6083  -29.8281   20.1664 C   0  0  0  0  0  0
  -25.4117  -36.3100   24.0345 C   0  0  1  0  0  0
  -20.5860  -28.3667   23.1337 C   0  0  2  0  0  0
  -20.6784  -26.9413   22.5418 C   0  0  0  0  0  0
  -19.5761  -26.6400   21.5228 C   0  0  0  0  0  0
  -18.1931  -26.7934   22.1631 C   0  0  0  0  0  0
  -19.1524  -28.8837   23.2928 C   0  0  0  0  0  0
  -18.9456  -30.1440   23.8942 C   0  0  0  0  0  0
  -17.6457  -30.6583   24.0571 C   0  0  0  0  0  0
  -25.9040  -34.9468   23.5120 C   0  0  0  0  0  0
  -16.5346  -29.9093   23.6311 C   0  0  0  0  0  0
  -16.7268  -28.6486   23.0363 C   0  0  0  0  0  0
  -26.4493  -31.6578   25.0677 C   0  0  0  0  0  0
  -25.3768  -31.3689   26.1442 C   0  0  0  0  0  0
  -27.0302  -30.3028   24.6009 C   0  0  0  0  0  0
  -27.6066  -32.4282   25.7457 C   0  0  0  0  0  0
  -27.5586  -37.1794   24.8462 C   0  0  0  0  0  0
  -21.4128  -29.3043   22.3733 N   0  0  0  0  0  0
  -26.4292  -37.3779   23.9414 N   0  0  0  0  0  0
  -24.6676  -31.0802   22.0977 N   0  0  0  0  0  0
  -23.4188  -28.8227   23.3033 O   0  0  0  0  0  0
  -28.4406  -26.7771   20.0244 O   0  0  0  0  0  0
  -26.5559  -34.8899   22.4657 O   0  0  0  0  0  0
  -23.5377  -32.1426   23.7520 O   0  0  0  0  0  0
  -26.4791  -19.6746   19.6082 C   0  0  0  0  0  0
  -27.2086  -18.7229   20.3544 C   0  0  0  0  0  0
  -27.1223  -20.4730   18.6386 C   0  0  0  0  0  0
  -29.2342  -19.3943   19.1750 C   0  0  0  0  0  0
  -28.5937  -18.5734   20.1309 C   0  0  0  0  0  0
  -28.5097  -20.3353   18.4166 C   0  0  0  0  0  0
  -28.9272  -16.1608   21.3155 C   0  0  0  0  0  0
  -30.5860  -16.8887   20.1716 C   0  0  0  0  0  0
  -29.4253  -17.5551   20.9039 C   0  0  0  0  0  0
  -29.2560  -21.1591   17.3684 C   0  0  0  0  0  0
  -28.8315  -22.6381   17.2598 C   0  0  0  0  0  0
  -28.5462  -24.7622   18.5469 C   0  0  0  0  0  0
  -28.4436  -25.3464   19.9738 C   0  0  0  0  0  0
  -30.0291  -15.5925   20.5372 N   0  0  0  0  0  0
  -28.8516  -23.3094   18.5779 N   0  3  0  0  0  0
  -31.4471  -12.3686   19.1081 H   0  0  0  0  0  0
  -30.2934  -11.2762   19.8182 H   0  0  0  0  0  0
  -29.7120  -11.7490   17.4196 H   0  0  0  0  0  0
  -29.6670  -13.4620   17.7557 H   0  0  0  0  0  0
  -27.7911  -11.3080   18.7834 H   0  0  0  0  0  0
  -27.3616  -12.6610   17.7748 H   0  0  0  0  0  0
  -27.6881  -14.2382   19.5515 H   0  0  0  0  0  0
  -28.6798  -11.9669   21.3463 H   0  0  0  0  0  0
  -28.4820  -13.6172   21.8540 H   0  0  0  0  0  0
  -25.2727   -9.5664   22.4773 H   0  0  0  0  0  0
  -23.9968   -7.4613   22.7495 H   0  0  0  0  0  0
  -21.0805   -8.8749   19.8960 H   0  0  0  0  0  0
  -22.3659  -10.9663   19.6181 H   0  0  0  0  0  0
  -21.2032   -7.6123   23.9681 H   0  0  0  0  0  0
  -21.1495   -6.0516   25.9056 H   0  0  0  0  0  0
  -22.0602   -2.7584   23.2859 H   0  0  0  0  0  0
  -22.4068  -11.9953   22.4864 H   0  0  0  0  0  0
  -21.1099  -13.1331   22.2560 H   0  0  0  0  0  0
  -24.6053  -15.7990   20.4005 H   0  0  0  0  0  0
  -26.2236  -15.6089   19.9558 H   0  0  0  0  0  0
  -26.7143  -32.5529   23.1126 H   0  0  0  0  0  0
  -25.0212  -33.9760   25.0560 H   0  0  0  0  0  0
  -22.6878  -31.3120   21.4116 H   0  0  0  0  0  0
  -23.3734  -35.9642   23.3295 H   0  0  0  0  0  0
  -24.3616  -36.8919   22.2043 H   0  0  0  0  0  0
  -23.7265  -37.6522   23.6639 H   0  0  0  0  0  0
  -26.0356  -31.6091   20.5882 H   0  0  0  0  0  0
  -26.8188  -30.8951   21.9676 H   0  0  0  0  0  0
  -28.1125  -29.1443   21.0821 H   0  0  0  0  0  0
  -26.0076  -25.9672   19.0313 H   0  0  0  0  0  0
  -23.9520  -27.2715   19.0916 H   0  0  0  0  0  0
  -23.7270  -30.6046   19.4095 H   0  0  0  0  0  0
  -22.7287  -29.2544   19.8650 H   0  0  0  0  0  0
  -25.1288  -36.1956   25.0827 H   0  0  0  0  0  0
  -20.9973  -28.3241   24.1448 H   0  0  0  0  0  0
  -20.5748  -26.2256   23.3589 H   0  0  0  0  0  0
  -21.6655  -26.7492   22.1168 H   0  0  0  0  0  0
  -19.6915  -25.6320   21.1247 H   0  0  0  0  0  0
  -19.6708  -27.3225   20.6777 H   0  0  0  0  0  0
  -17.4206  -26.6713   21.4018 H   0  0  0  0  0  0
  -18.0301  -26.0053   22.9005 H   0  0  0  0  0  0
  -19.7930  -30.7245   24.2355 H   0  0  0  0  0  0
  -17.5007  -31.6288   24.5140 H   0  0  0  0  0  0
  -15.5352  -30.3009   23.7606 H   0  0  0  0  0  0
  -15.8666  -28.0818   22.7080 H   0  0  0  0  0  0
  -24.5964  -30.6997   25.7816 H   0  0  0  0  0  0
  -24.8917  -32.2827   26.4862 H   0  0  0  0  0  0
  -25.8151  -30.8912   27.0218 H   0  0  0  0  0  0
  -26.2827  -29.6805   24.1069 H   0  0  0  0  0  0
  -27.4124  -29.7246   25.4436 H   0  0  0  0  0  0
  -27.8628  -30.4354   23.9096 H   0  0  0  0  0  0
  -27.2697  -33.3585   26.2042 H   0  0  0  0  0  0
  -28.3886  -32.6850   25.0299 H   0  0  0  0  0  0
  -28.0695  -31.8382   26.5380 H   0  0  0  0  0  0
  -28.2571  -38.0110   24.7536 H   0  0  0  0  0  0
  -28.1110  -36.2651   24.6261 H   0  0  0  0  0  0
  -27.2305  -37.1425   25.8858 H   0  0  0  0  0  0
  -20.9282  -29.8731   21.6944 H   0  0  0  0  0  0
  -26.0175  -38.2856   24.1414 H   0  0  0  0  0  0
  -25.4168  -19.7937   19.7758 H   0  0  0  0  0  0
  -26.6982  -18.1107   21.0868 H   0  0  0  0  0  0
  -26.5401  -21.1873   18.0732 H   0  0  0  0  0  0
  -30.2981  -19.2938   19.0041 H   0  0  0  0  0  0
  -27.9333  -15.9361   20.9372 H   0  0  0  0  0  0
  -28.9968  -15.9804   22.3888 H   0  0  0  0  0  0
  -30.6052  -17.0416   19.0926 H   0  0  0  0  0  0
  -31.5549  -17.1144   20.6219 H   0  0  0  0  0  0
  -29.7990  -18.0662   21.7929 H   0  0  0  0  0  0
  -29.1336  -20.6707   16.3997 H   0  0  0  0  0  0
  -30.3246  -21.1189   17.5873 H   0  0  0  0  0  0
  -27.8339  -22.7119   16.8225 H   0  0  0  0  0  0
  -29.5062  -23.1518   16.5699 H   0  0  0  0  0  0
  -29.3361  -25.2702   17.9925 H   0  0  0  0  0  0
  -27.6229  -24.9241   17.9918 H   0  0  0  0  0  0
  -29.3297  -25.0404   20.5318 H   0  0  0  0  0  0
  -27.5962  -24.9253   20.5178 H   0  0  0  0  0  0
  -29.7608  -23.1701   18.9946 H   0  0  0  0  0  0
  -28.1828  -22.8302   19.1629 H   0  0  0  0  0  0
  1 25  1  0  0  0
  1 30  2  0  0  0
  1 84  1  0  0  0
  2  3  1  0  0  0
  2 25  1  0  0  0
  2 86  1  0  0  0
  2 87  1  0  0  0
  3  4  1  0  0  0
  3 88  1  0  0  0
  3 89  1  0  0  0
  4  5  1  0  0  0
  4 90  1  0  0  0
  4 91  1  0  0  0
  5  6  1  0  0  0
  5 26  1  0  0  0
  5 92  1  0  0  0
  6 25  1  0  0  0
  6 93  1  0  0  0
  6 94  1  0  0  0
  7  8  2  0  0  0
  7 26  1  0  0  0
  7 29  1  0  0  0
  8  9  1  0  0  0
  8 22  1  0  0  0
  9 10  1  0  0  0
  9 27  2  0  0  0
 10 11  2  0  0  0
 10 15  1  0  0  0
 11 12  1  0  0  0
 11 95  1  0  0  0
 12 13  2  0  0  0
 12 96  1  0  0  0
 13 14  1  0  0  0
 13 31  1  0  0  0
 14 15  2  0  0  0
 14 97  1  0  0  0
 15 98  1  0  0  0
 16 17  2  0  0  0
 16 21  1  0  0  0
 16 31  1  0  0  0
 17 18  1  0  0  0
 17 99  1  0  0  0
 18 19  2  0  0  0
 18100  1  0  0  0
 19 20  1  0  0  0
 19 24  1  0  0  0
 20 21  2  0  0  0
 20101  1  0  0  0
 21 23  1  0  0  0
 22 28  1  0  0  0
 22 32  2  0  0  0
 26 27  1  0  0  0
 28102  1  0  0  0
 28103  1  0  0  0
 29104  1  0  0  0
 29105  1  0  0  0
 33 34  1  0  0  0
 33 66  1  0  0  0
 33 70  2  0  0  0
 34 36  1  0  0  0
 34 59  1  0  0  0
 34106  1  0  0  0
 35 44  2  0  0  0
 35 45  1  0  0  0
 35 68  1  0  0  0
 36 56  1  0  0  0
 36107  1  0  0  0
 37 39  1  0  0  0
 37 47  1  0  0  0
 37 66  1  0  0  0
 37108  1  0  0  0
 38 43  2  0  0  0
 38 46  1  0  0  0
 38 47  1  0  0  0
 39 64  1  0  0  0
 39 67  2  0  0  0
 40 52  1  0  0  0
 40 53  2  0  0  0
 40 58  1  0  0  0
 41109  1  0  0  0
 41110  1  0  0  0
 41111  1  0  0  0
 41 48  1  0  0  0
 42 43  1  0  0  0
 42 66  1  0  0  0
 42112  1  0  0  0
 42113  1  0  0  0
 43 44  1  0  0  0
 44114  1  0  0  0
 45 46  2  0  0  0
 45115  1  0  0  0
 46116  1  0  0  0
 47117  1  0  0  0
 47118  1  0  0  0
 48 56  1  0  0  0
 48 65  1  0  0  0
 48119  1  0  0  0
 49 50  1  0  0  0
 49 53  1  0  0  0
 49 64  1  0  0  0
 49120  1  0  0  0
 50 51  1  0  0  0
 50121  1  0  0  0
 50122  1  0  0  0
 51 52  1  0  0  0
 51123  1  0  0  0
 51124  1  0  0  0
 52125  1  0  0  0
 52126  1  0  0  0
 53 54  1  0  0  0
 54 55  2  0  0  0
 54127  1  0  0  0
 55 57  1  0  0  0
 55128  1  0  0  0
 56 69  2  0  0  0
 57 58  2  0  0  0
 57129  1  0  0  0
 58130  1  0  0  0
 59 60  1  0  0  0
 59 61  1  0  0  0
 59 62  1  0  0  0
 60131  1  0  0  0
 60132  1  0  0  0
 60133  1  0  0  0
 61134  1  0  0  0
 61135  1  0  0  0
 61136  1  0  0  0
 62137  1  0  0  0
 62138  1  0  0  0
 62139  1  0  0  0
 63 65  1  0  0  0
 63140  1  0  0  0
 63141  1  0  0  0
 63142  1  0  0  0
 64143  1  0  0  0
 65144  1  0  0  0
 68 83  1  0  0  0
 71 72  2  0  0  0
 71 73  1  0  0  0
 71145  1  0  0  0
 72 75  1  0  0  0
 72146  1  0  0  0
 73 76  2  0  0  0
 73147  1  0  0  0
 74 75  2  0  0  0
 74 76  1  0  0  0
 74148  1  0  0  0
 75 79  1  0  0  0
 76 80  1  0  0  0
 77 79  1  0  0  0
 77 84  1  0  0  0
 77149  1  0  0  0
 77150  1  0  0  0
 78 79  1  0  0  0
 78 84  1  0  0  0
 78151  1  0  0  0
 78152  1  0  0  0
 79153  1  0  0  0
 80 81  1  0  0  0
 80154  1  0  0  0
 80155  1  0  0  0
 81 85  1  0  0  0
 81156  1  0  0  0
 81157  1  0  0  0
 82 83  1  0  0  0
 82 85  1  0  0  0
 82158  1  0  0  0
 82159  1  0  0  0
 83160  1  0  0  0
 83161  1  0  0  0
 85162  1  0  0  0
 85163  1  0  0  0
M  CHG  1  85   1
M  ISO  4   1 100  68 101  83 101  84 100
M  END
> <chiral flag>
0

> <version>
0

> <s_m_source_file>
/data/baiqing/PycharmProjects/Reinvent-master-3.2/result/LINK_invent/BTK/process_docking_weight1_custom_sum_contain_oxygen_bond_distance_aromatic_linkinvent_7_9_3/rearranged_h_0198.sdf

> <i_m_source_file_index>
23

> <r_mmod_Potential_Energy-OPLS-2005>
-52.1228637695312

> <r_mmod_Stretch_Energy-OPLS-2005>
33.4990653991699

> <r_mmod_Bend_Energy-OPLS-2005>
120.199005126953

> <r_mmod_Torsional_Energy-OPLS-2005>
288.819976806641

> <r_mmod_Improper_Torsional_Energy-OPLS-2005>
19.1938743591309

> <r_mmod_Van_der_Waal_Energy-OPLS-2005>
149.06787109375

> <r_mmod_Electrostatic_Energy-OPLS-2005>
-238.422225952148

> <r_mmod_Solvation_Energy-OPLS-2005>
-443.038787841797

> <b_mmod_Minimization_Converged-OPLS-2005>
0

> <r_mmod_RMS_Derivative-OPLS-2005>
4.06917810440063

$$$$
23
                    3D
 Structure written by MMmdl.
166175  0  0  1  0            999 V2000
  -30.7363  -14.5429   20.5582 C   0  0  0  0  0  0
  -30.4143  -12.3521   19.4436 C   0  0  0  0  0  0
  -29.4929  -12.4914   18.2155 C   0  0  0  0  0  0
  -28.0212  -12.3107   18.6318 C   0  0  0  0  0  0
  -27.6462  -13.1876   19.8512 C   0  0  2  0  0  0
  -28.6957  -13.0643   20.9874 C   0  0  0  0  0  0
  -25.2546  -13.8080   20.5629 C   0  0  0  0  0  0
  -24.1812  -13.0397   20.9216 C   0  0  0  0  0  0
  -24.6352  -11.6862   20.8779 C   0  0  0  0  0  0
  -23.9016  -10.4267   21.0439 C   0  0  0  0  0  0
  -24.3581   -9.4191   21.9209 C   0  0  0  0  0  0
  -23.6272   -8.2219   22.0759 C   0  0  0  0  0  0
  -22.4259   -8.0256   21.3542 C   0  0  0  0  0  0
  -21.9886   -9.0234   20.4653 C   0  0  0  0  0  0
  -22.7200  -10.2119   20.3081 C   0  0  0  0  0  0
  -21.6837   -6.0720   22.5277 C   0  0  0  0  0  0
  -21.4001   -6.5628   23.8209 C   0  0  0  0  0  0
  -21.3660   -5.6783   24.9172 C   0  0  0  0  0  0
  -21.6054   -4.3047   24.7224 C   0  0  0  0  0  0
  -21.8818   -3.8136   23.4343 C   0  0  0  0  0  0
  -21.9188   -4.6950   22.3397 C   0  0  0  0  0  0
  -22.7850  -13.5237   21.1866 C   0  0  0  0  0  0
  -22.1664   -4.2138   21.0974 F   0  0  0  0  0  0
  -21.5634   -3.4535   25.7739 F   0  0  0  0  0  0
  -30.0145  -13.3846   20.4230 N   0  0  0  0  0  0
  -26.2934  -12.9210   20.3251 N   0  0  0  0  0  0
  -25.9257  -11.6405   20.5769 N   0  0  0  0  0  0
  -22.0466  -12.8253   22.0416 N   0  0  0  0  0  0
  -25.4222  -15.1785   20.3890 N   0  0  0  0  0  0
  -31.8899  -14.6086   20.1253 O   0  0  0  0  0  0
  -21.6625   -6.8859   21.4239 O   0  0  0  0  0  0
  -22.3583  -14.5561   20.6709 O   0  0  0  0  0  0
  -24.6178  -31.8683   23.2108 C   0  0  0  0  0  0
  -25.9065  -32.4827   23.8403 C   0  0  1  0  0  0
  -27.2264  -27.4102   20.1022 C   0  0  0  0  0  0
  -25.5919  -33.8624   24.2336 N   0  0  0  0  0  0
  -23.4056  -30.4962   21.5513 C   0  0  2  0  0  0
  -24.8512  -28.9674   20.1113 C   0  0  0  0  0  0
  -22.7425  -29.4674   22.4963 C   0  0  0  0  0  0
  -18.0277  -28.1389   22.8484 C   0  0  0  0  0  0
  -24.1487  -36.7314   23.2634 C   0  0  0  0  0  0
  -25.9387  -30.8299   21.3660 C   0  0  0  0  0  0
  -26.0156  -29.4644   20.7094 C   0  0  0  0  0  0
  -27.2068  -28.6965   20.6993 C   0  0  0  0  0  0
  -26.0408  -26.9492   19.4770 C   0  0  0  0  0  0
  -24.8606  -27.7107   19.4894 C   0  0  0  0  0  0
  -23.6152  -29.8365   20.1639 C   0  0  0  0  0  0
  -25.4105  -36.3110   24.0338 C   0  0  1  0  0  0
  -20.5872  -28.3682   23.1307 C   0  0  2  0  0  0
  -20.6771  -26.9417   22.5416 C   0  0  0  0  0  0
  -19.5753  -26.6394   21.5210 C   0  0  0  0  0  0
  -18.1927  -26.7933   22.1616 C   0  0  0  0  0  0
  -19.1528  -28.8848   23.2894 C   0  0  0  0  0  0
  -18.9454  -30.1452   23.8911 C   0  0  0  0  0  0
  -17.6458  -30.6588   24.0569 C   0  0  0  0  0  0
  -25.9037  -34.9477   23.5129 C   0  0  0  0  0  0
  -16.5348  -29.9094   23.6330 C   0  0  0  0  0  0
  -16.7264  -28.6516   23.0340 C   0  0  0  0  0  0
  -26.4484  -31.6598   25.0729 C   0  0  0  0  0  0
  -25.3750  -31.3721   26.1480 C   0  0  0  0  0  0
  -27.0303  -30.3035   24.6106 C   0  0  0  0  0  0
  -27.6075  -32.4304   25.7478 C   0  0  0  0  0  0
  -27.5581  -37.1805   24.8462 C   0  0  0  0  0  0
  -21.4150  -29.3050   22.3707 N   0  0  0  0  0  0
  -26.4291  -37.3795   23.9413 N   0  0  0  0  0  0
  -24.6727  -31.0782   22.1012 N   0  0  0  0  0  0
  -23.4199  -28.8200   23.2987 O   0  0  0  0  0  0
  -28.3652  -26.6161   20.1611 O   0  0  0  0  0  0
  -26.5590  -34.8927   22.4685 O   0  0  0  0  0  0
  -23.5369  -32.1431   23.7503 O   0  0  0  0  0  0
  -30.2721  -21.0374   22.0028 C   0  0  0  0  0  0
  -28.6308  -20.7732   20.2226 C   0  0  0  0  0  0
  -28.9388  -16.2388   20.5800 C   0  0  0  0  0  0
  -31.0976  -16.6129   21.8116 C   0  0  0  0  0  0
  -29.6405  -22.3924   22.4288 C   0  0  0  0  0  0
  -27.9207  -22.0937   20.6081 C   0  0  0  0  0  0
  -28.5603  -17.7030   20.9246 C   0  0  0  0  0  0
  -30.5493  -18.0102   22.2057 C   0  0  0  0  0  0
  -29.2156  -20.0417   21.4572 C   0  0  1  0  0  0
  -29.2565  -24.2756   20.7442 C   0  0  0  0  0  0
  -28.1141  -25.1884   20.2052 C   0  0  0  0  0  0
  -30.1756  -15.6545   21.1449 N   0  0  0  0  0  0
  -29.6958  -18.6313   21.1595 N   0  3  0  0  0  0
  -28.7342  -23.0417   21.4303 N   0  3  2  0  0  0
  -31.4595  -12.4316   19.1384 H   0  0  0  0  0  0
  -30.3153  -11.3585   19.8844 H   0  0  0  0  0  0
  -29.7604  -11.7552   17.4565 H   0  0  0  0  0  0
  -29.6309  -13.4714   17.7560 H   0  0  0  0  0  0
  -27.8683  -11.2579   18.8728 H   0  0  0  0  0  0
  -27.3606  -12.5289   17.7920 H   0  0  0  0  0  0
  -27.6482  -14.1978   19.4560 H   0  0  0  0  0  0
  -28.7031  -12.0504   21.3885 H   0  0  0  0  0  0
  -28.4518  -13.7035   21.8361 H   0  0  0  0  0  0
  -25.2716   -9.5686   22.4789 H   0  0  0  0  0  0
  -23.9985   -7.4607   22.7464 H   0  0  0  0  0  0
  -21.0819   -8.8748   19.8959 H   0  0  0  0  0  0
  -22.3644  -10.9665   19.6205 H   0  0  0  0  0  0
  -21.1988   -7.6136   23.9708 H   0  0  0  0  0  0
  -21.1492   -6.0514   25.9078 H   0  0  0  0  0  0
  -22.0602   -2.7600   23.2833 H   0  0  0  0  0  0
  -22.4042  -11.9900   22.4810 H   0  0  0  0  0  0
  -21.1099  -13.1338   22.2619 H   0  0  0  0  0  0
  -24.6269  -15.8055   20.4405 H   0  0  0  0  0  0
  -26.2103  -15.5811   19.9015 H   0  0  0  0  0  0
  -26.7134  -32.5538   23.1165 H   0  0  0  0  0  0
  -25.0086  -33.9785   25.0494 H   0  0  0  0  0  0
  -22.6946  -31.3143   21.4156 H   0  0  0  0  0  0
  -23.3747  -35.9651   23.3307 H   0  0  0  0  0  0
  -24.3582  -36.8913   22.2046 H   0  0  0  0  0  0
  -23.7246  -37.6526   23.6638 H   0  0  0  0  0  0
  -26.0519  -31.5961   20.5983 H   0  0  0  0  0  0
  -26.8268  -30.8826   21.9839 H   0  0  0  0  0  0
  -28.1001  -29.0746   21.1770 H   0  0  0  0  0  0
  -25.9957  -25.9941   18.9759 H   0  0  0  0  0  0
  -23.9675  -27.3255   19.0173 H   0  0  0  0  0  0
  -23.7278  -30.6155   19.4086 H   0  0  0  0  0  0
  -22.7375  -29.2613   19.8637 H   0  0  0  0  0  0
  -25.1279  -36.1970   25.0830 H   0  0  0  0  0  0
  -20.9965  -28.3255   24.1427 H   0  0  0  0  0  0
  -20.5676  -26.2295   23.3609 H   0  0  0  0  0  0
  -21.6644  -26.7456   22.1215 H   0  0  0  0  0  0
  -19.6920  -25.6304   21.1246 H   0  0  0  0  0  0
  -19.6703  -27.3203   20.6740 H   0  0  0  0  0  0
  -17.4205  -26.6682   21.4011 H   0  0  0  0  0  0
  -18.0323  -26.0074   22.9011 H   0  0  0  0  0  0
  -19.7929  -30.7260   24.2289 H   0  0  0  0  0  0
  -17.5015  -31.6269   24.5175 H   0  0  0  0  0  0
  -15.5350  -30.3004   23.7646 H   0  0  0  0  0  0
  -15.8664  -28.0849   22.7035 H   0  0  0  0  0  0
  -24.5915  -30.7074   25.7820 H   0  0  0  0  0  0
  -24.8955  -32.2890   26.4923 H   0  0  0  0  0  0
  -25.8105  -30.8894   27.0239 H   0  0  0  0  0  0
  -26.2838  -29.6796   24.1178 H   0  0  0  0  0  0
  -27.4078  -29.7270   25.4561 H   0  0  0  0  0  0
  -27.8676  -30.4334   23.9246 H   0  0  0  0  0  0
  -27.2712  -33.3595   26.2088 H   0  0  0  0  0  0
  -28.3868  -32.6873   25.0290 H   0  0  0  0  0  0
  -28.0766  -31.8405   26.5362 H   0  0  0  0  0  0
  -28.2606  -38.0095   24.7506 H   0  0  0  0  0  0
  -28.1066  -36.2629   24.6282 H   0  0  0  0  0  0
  -27.2306  -37.1453   25.8867 H   0  0  0  0  0  0
  -20.9307  -29.8788   21.6945 H   0  0  0  0  0  0
  -26.0180  -38.2874   24.1416 H   0  0  0  0  0  0
  -30.7668  -20.6397   22.8875 H   0  0  0  0  0  0
  -31.0548  -21.2078   21.2624 H   0  0  0  0  0  0
  -29.4191  -20.9791   19.4964 H   0  0  0  0  0  0
  -27.9005  -20.1610   19.6977 H   0  0  0  0  0  0
  -28.9773  -16.1445   19.4923 H   0  0  0  0  0  0
  -28.0908  -15.6580   20.9253 H   0  0  0  0  0  0
  -31.5094  -16.1324   22.7008 H   0  0  0  0  0  0
  -31.9548  -16.8012   21.1624 H   0  0  0  0  0  0
  -30.4204  -23.0821   22.7531 H   0  0  0  0  0  0
  -29.0343  -22.2123   23.3180 H   0  0  0  0  0  0
  -27.0365  -21.8439   21.1956 H   0  0  0  0  0  0
  -27.5391  -22.5760   19.7087 H   0  0  0  0  0  0
  -27.9426  -17.6910   21.8248 H   0  0  0  0  0  0
  -27.9051  -18.0694   20.1362 H   0  0  0  0  0  0
  -31.4120  -18.6375   22.4248 H   0  0  0  0  0  0
  -29.9802  -17.9344   23.1333 H   0  0  0  0  0  0
  -28.4349  -19.9495   22.2157 H   0  0  0  0  0  0
  -29.8239  -24.8585   21.4706 H   0  0  0  0  0  0
  -29.9531  -24.0100   19.9481 H   0  0  0  0  0  0
  -27.2443  -25.0265   20.8460 H   0  0  0  0  0  0
  -27.8430  -24.8438   19.2072 H   0  0  0  0  0  0
  -30.2501  -18.6704   20.3166 H   0  0  0  0  0  0
  -28.0369  -23.4509   22.0393 H   0  0  0  0  0  0
  1 25  1  0  0  0
  1 30  2  0  0  0
  1 82  1  0  0  0
  2  3  1  0  0  0
  2 25  1  0  0  0
  2 85  1  0  0  0
  2 86  1  0  0  0
  3  4  1  0  0  0
  3 87  1  0  0  0
  3 88  1  0  0  0
  4  5  1  0  0  0
  4 89  1  0  0  0
  4 90  1  0  0  0
  5  6  1  0  0  0
  5 26  1  0  0  0
  5 91  1  0  0  0
  6 25  1  0  0  0
  6 92  1  0  0  0
  6 93  1  0  0  0
  7  8  2  0  0  0
  7 26  1  0  0  0
  7 29  1  0  0  0
  8  9  1  0  0  0
  8 22  1  0  0  0
  9 10  1  0  0  0
  9 27  2  0  0  0
 10 11  2  0  0  0
 10 15  1  0  0  0
 11 12  1  0  0  0
 11 94  1  0  0  0
 12 13  2  0  0  0
 12 95  1  0  0  0
 13 14  1  0  0  0
 13 31  1  0  0  0
 14 15  2  0  0  0
 14 96  1  0  0  0
 15 97  1  0  0  0
 16 17  2  0  0  0
 16 21  1  0  0  0
 16 31  1  0  0  0
 17 18  1  0  0  0
 17 98  1  0  0  0
 18 19  2  0  0  0
 18 99  1  0  0  0
 19 20  1  0  0  0
 19 24  1  0  0  0
 20 21  2  0  0  0
 20100  1  0  0  0
 21 23  1  0  0  0
 22 28  1  0  0  0
 22 32  2  0  0  0
 26 27  1  0  0  0
 28101  1  0  0  0
 28102  1  0  0  0
 29103  1  0  0  0
 29104  1  0  0  0
 33 34  1  0  0  0
 33 66  1  0  0  0
 33 70  2  0  0  0
 34 36  1  0  0  0
 34 59  1  0  0  0
 34105  1  0  0  0
 35 44  2  0  0  0
 35 45  1  0  0  0
 35 68  1  0  0  0
 36 56  1  0  0  0
 36106  1  0  0  0
 37 39  1  0  0  0
 37 47  1  0  0  0
 37 66  1  0  0  0
 37107  1  0  0  0
 38 43  2  0  0  0
 38 46  1  0  0  0
 38 47  1  0  0  0
 39 64  1  0  0  0
 39 67  2  0  0  0
 40 52  1  0  0  0
 40 53  2  0  0  0
 40 58  1  0  0  0
 41108  1  0  0  0
 41109  1  0  0  0
 41110  1  0  0  0
 41 48  1  0  0  0
 42 43  1  0  0  0
 42 66  1  0  0  0
 42111  1  0  0  0
 42112  1  0  0  0
 43 44  1  0  0  0
 44113  1  0  0  0
 45 46  2  0  0  0
 45114  1  0  0  0
 46115  1  0  0  0
 47116  1  0  0  0
 47117  1  0  0  0
 48 56  1  0  0  0
 48 65  1  0  0  0
 48118  1  0  0  0
 49 50  1  0  0  0
 49 53  1  0  0  0
 49 64  1  0  0  0
 49119  1  0  0  0
 50 51  1  0  0  0
 50120  1  0  0  0
 50121  1  0  0  0
 51 52  1  0  0  0
 51122  1  0  0  0
 51123  1  0  0  0
 52124  1  0  0  0
 52125  1  0  0  0
 53 54  1  0  0  0
 54 55  2  0  0  0
 54126  1  0  0  0
 55 57  1  0  0  0
 55127  1  0  0  0
 56 69  2  0  0  0
 57 58  2  0  0  0
 57128  1  0  0  0
 58129  1  0  0  0
 59 60  1  0  0  0
 59 61  1  0  0  0
 59 62  1  0  0  0
 60130  1  0  0  0
 60131  1  0  0  0
 60132  1  0  0  0
 61133  1  0  0  0
 61134  1  0  0  0
 61135  1  0  0  0
 62136  1  0  0  0
 62137  1  0  0  0
 62138  1  0  0  0
 63 65  1  0  0  0
 63139  1  0  0  0
 63140  1  0  0  0
 63141  1  0  0  0
 64142  1  0  0  0
 65143  1  0  0  0
 68 81  1  0  0  0
 71 75  1  0  0  0
 71144  1  0  0  0
 71145  1  0  0  0
 71 79  1  0  0  0
 72 76  1  0  0  0
 72 79  1  0  0  0
 72146  1  0  0  0
 72147  1  0  0  0
 73 77  1  0  0  0
 73 82  1  0  0  0
 73148  1  0  0  0
 73149  1  0  0  0
 74 78  1  0  0  0
 74 82  1  0  0  0
 74150  1  0  0  0
 74151  1  0  0  0
 75 84  1  0  0  0
 75152  1  0  0  0
 75153  1  0  0  0
 76 84  1  0  0  0
 76154  1  0  0  0
 76155  1  0  0  0
 77156  1  0  0  0
 77157  1  0  0  0
 77 83  1  0  0  0
 78 83  1  0  0  0
 78158  1  0  0  0
 78159  1  0  0  0
 79 83  1  0  0  0
 79160  1  0  0  0
 80 81  1  0  0  0
 80161  1  0  0  0
 80162  1  0  0  0
 80 84  1  0  0  0
 81163  1  0  0  0
 81164  1  0  0  0
 83165  1  0  0  0
 84166  1  0  0  0
M  CHG  2  83   1  84   1
M  ISO  4   1 100  68 101  81 101  82 100
M  END
> <chiral flag>
0

> <version>
0

> <s_m_source_file>
/data/baiqing/PycharmProjects/Reinvent-master-3.2/result/LINK_invent/BTK/process_docking_weight1_custom_sum_contain_oxygen_bond_distance_aromatic_linkinvent_7_9_3/rearranged_h_0198.sdf

> <i_m_source_file_index>
24

> <r_mmod_Potential_Energy-OPLS-2005>
69.4196929931641

> <r_mmod_Stretch_Energy-OPLS-2005>
53.9074668884277

> <r_mmod_Bend_Energy-OPLS-2005>
156.72412109375

> <r_mmod_Torsional_Energy-OPLS-2005>
426.476226806641

> <r_mmod_Improper_Torsional_Energy-OPLS-2005>
4.96797800064087

> <r_mmod_Van_der_Waal_Energy-OPLS-2005>
162.412750244141

> <r_mmod_Electrostatic_Energy-OPLS-2005>
173.940734863281

> <r_mmod_Solvation_Energy-OPLS-2005>
-935.176147460938

> <b_mmod_Minimization_Converged-OPLS-2005>
0

> <r_mmod_RMS_Derivative-OPLS-2005>
1.3780460357666

$$$$
24
                    3D
 Structure written by MMmdl.
162172  0  0  1  0            999 V2000
  -30.7232  -14.4095   20.6437 C   0  0  0  0  0  0
  -30.4238  -12.2945   19.4093 C   0  0  0  0  0  0
  -29.4893  -12.5138   18.1994 C   0  0  0  0  0  0
  -28.0066  -12.3764   18.6077 C   0  0  0  0  0  0
  -27.6654  -13.1865   19.8867 C   0  0  2  0  0  0
  -28.7035  -12.8668   20.9817 C   0  0  0  0  0  0
  -25.2617  -13.8118   20.5678 C   0  0  0  0  0  0
  -24.1847  -13.0431   20.9185 C   0  0  0  0  0  0
  -24.6370  -11.6889   20.8757 C   0  0  0  0  0  0
  -23.9032  -10.4286   21.0426 C   0  0  0  0  0  0
  -24.3606   -9.4202   21.9187 C   0  0  0  0  0  0
  -23.6287   -8.2234   22.0755 C   0  0  0  0  0  0
  -22.4264   -8.0278   21.3551 C   0  0  0  0  0  0
  -21.9896   -9.0256   20.4656 C   0  0  0  0  0  0
  -22.7215  -10.2132   20.3066 C   0  0  0  0  0  0
  -21.6843   -6.0736   22.5282 C   0  0  0  0  0  0
  -21.4001   -6.5649   23.8216 C   0  0  0  0  0  0
  -21.3651   -5.6801   24.9190 C   0  0  0  0  0  0
  -21.6040   -4.3061   24.7235 C   0  0  0  0  0  0
  -21.8817   -3.8158   23.4363 C   0  0  0  0  0  0
  -21.9193   -4.6970   22.3424 C   0  0  0  0  0  0
  -22.7879  -13.5255   21.1870 C   0  0  0  0  0  0
  -22.1663   -4.2157   21.0998 F   0  0  0  0  0  0
  -21.5631   -3.4549   25.7753 F   0  0  0  0  0  0
  -30.0282  -13.2467   20.4634 N   0  0  0  0  0  0
  -26.3031  -12.9242   20.3412 N   0  0  0  0  0  0
  -25.9278  -11.6419   20.5790 N   0  0  0  0  0  0
  -22.0527  -12.8224   22.0417 N   0  0  0  0  0  0
  -25.4397  -15.1821   20.4077 N   0  0  0  0  0  0
  -31.8321  -14.5766   20.1178 O   0  0  0  0  0  0
  -21.6623   -6.8879   21.4245 O   0  0  0  0  0  0
  -22.3569  -14.5583   20.6752 O   0  0  0  0  0  0
  -24.6099  -31.8704   23.2112 C   0  0  0  0  0  0
  -25.9004  -32.4835   23.8387 C   0  0  1  0  0  0
  -27.2497  -27.4763   20.0786 C   0  0  0  0  0  0
  -25.5864  -33.8631   24.2318 N   0  0  0  0  0  0
  -23.3977  -30.4908   21.5528 C   0  0  2  0  0  0
  -24.8448  -28.9594   20.1196 C   0  0  0  0  0  0
  -22.7382  -29.4666   22.5035 C   0  0  0  0  0  0
  -18.0255  -28.1374   22.8487 C   0  0  0  0  0  0
  -24.1498  -36.7341   23.2640 C   0  0  0  0  0  0
  -25.9197  -30.8501   21.3555 C   0  0  0  0  0  0
  -26.0015  -29.4848   20.7073 C   0  0  0  0  0  0
  -27.2058  -28.7506   20.6824 C   0  0  0  0  0  0
  -26.0713  -26.9575   19.4903 C   0  0  0  0  0  0
  -24.8724  -27.6926   19.5122 C   0  0  0  0  0  0
  -23.6031  -29.8192   20.1698 C   0  0  0  0  0  0
  -25.4114  -36.3119   24.0346 C   0  0  1  0  0  0
  -20.5847  -28.3648   23.1335 C   0  0  2  0  0  0
  -20.6753  -26.9393   22.5428 C   0  0  0  0  0  0
  -19.5734  -26.6393   21.5211 C   0  0  0  0  0  0
  -18.1910  -26.7922   22.1625 C   0  0  0  0  0  0
  -19.1505  -28.8825   23.2905 C   0  0  0  0  0  0
  -18.9447  -30.1436   23.8908 C   0  0  0  0  0  0
  -17.6447  -30.6581   24.0567 C   0  0  0  0  0  0
  -25.9030  -34.9484   23.5140 C   0  0  0  0  0  0
  -16.5336  -29.9097   23.6319 C   0  0  0  0  0  0
  -16.7245  -28.6514   23.0329 C   0  0  0  0  0  0
  -26.4431  -31.6579   25.0692 C   0  0  0  0  0  0
  -25.3712  -31.3665   26.1451 C   0  0  0  0  0  0
  -27.0254  -30.3033   24.6023 C   0  0  0  0  0  0
  -27.6032  -32.4261   25.7438 C   0  0  0  0  0  0
  -27.5583  -37.1833   24.8463 C   0  0  0  0  0  0
  -21.4108  -29.3021   22.3748 N   0  0  0  0  0  0
  -26.4307  -37.3795   23.9391 N   0  0  0  0  0  0
  -24.6606  -31.0841   22.0993 N   0  0  0  0  0  0
  -23.4149  -28.8222   23.3086 O   0  0  0  0  0  0
  -28.4501  -26.8014   20.0491 O   0  0  0  0  0  0
  -26.5608  -34.8931   22.4710 O   0  0  0  0  0  0
  -23.5301  -32.1428   23.7525 O   0  0  0  0  0  0
  -30.5878  -20.8461   18.8550 C   0  0  0  0  0  0
  -30.0506  -22.2465   20.4668 C   0  0  0  0  0  0
  -30.2410  -20.1023   20.8934 C   0  0  0  0  0  0
  -29.1960  -17.0309   22.7669 C   0  0  0  0  0  0
  -28.0658  -25.0636   21.7106 C   0  0  0  0  0  0
  -29.1373  -15.5871   22.2763 C   0  0  0  0  0  0
  -28.5864  -23.6389   21.8603 C   0  0  0  0  0  0
  -30.5157  -16.8407   20.7954 C   0  0  0  0  0  0
  -29.7766  -24.7321   20.1076 C   0  0  0  0  0  0
  -29.5762  -17.8039   21.5147 C   0  0  2  0  0  0
  -28.4077  -25.3944   20.2603 C   0  0  2  0  0  0
  -30.3544  -22.1118   19.1878 N   0  0  0  0  0  0
  -30.5340  -19.7819   19.6476 N   0  0  0  0  0  0
  -29.9922  -21.2956   21.3828 N   0  0  0  0  0  0
  -29.6890  -23.5112   20.9084 N   0  0  0  0  0  0
  -30.0665  -15.4898   21.1430 N   0  0  0  0  0  0
  -30.1705  -19.0937   21.8213 N   0  0  0  0  0  0
  -31.4667  -12.4011   19.1049 H   0  0  0  0  0  0
  -30.3410  -11.2703   19.7764 H   0  0  0  0  0  0
  -29.7259  -11.7984   17.4110 H   0  0  0  0  0  0
  -29.6584  -13.5044   17.7757 H   0  0  0  0  0  0
  -27.8103  -11.3169   18.7825 H   0  0  0  0  0  0
  -27.3570  -12.6747   17.7860 H   0  0  0  0  0  0
  -27.7393  -14.2450   19.6381 H   0  0  0  0  0  0
  -28.6944  -11.7941   21.1802 H   0  0  0  0  0  0
  -28.4398  -13.2775   21.9483 H   0  0  0  0  0  0
  -25.2756   -9.5670   22.4746 H   0  0  0  0  0  0
  -24.0005   -7.4617   22.7457 H   0  0  0  0  0  0
  -21.0825   -8.8769   19.8961 H   0  0  0  0  0  0
  -22.3676  -10.9678   19.6177 H   0  0  0  0  0  0
  -21.1974   -7.6152   23.9724 H   0  0  0  0  0  0
  -21.1471   -6.0538   25.9090 H   0  0  0  0  0  0
  -22.0602   -2.7619   23.2868 H   0  0  0  0  0  0
  -22.4130  -11.9834   22.4719 H   0  0  0  0  0  0
  -21.1165  -13.1253   22.2688 H   0  0  0  0  0  0
  -24.6806  -15.8446   20.5183 H   0  0  0  0  0  0
  -26.2971  -15.6139   20.0872 H   0  0  0  0  0  0
  -26.7079  -32.5550   23.1155 H   0  0  0  0  0  0
  -24.9934  -33.9780   25.0408 H   0  0  0  0  0  0
  -22.6816  -31.3049   21.4127 H   0  0  0  0  0  0
  -23.3739  -35.9700   23.3326 H   0  0  0  0  0  0
  -24.3580  -36.8929   22.2047 H   0  0  0  0  0  0
  -23.7295  -37.6581   23.6625 H   0  0  0  0  0  0
  -26.0193  -31.6171   20.5852 H   0  0  0  0  0  0
  -26.8111  -30.9088   21.9681 H   0  0  0  0  0  0
  -28.1032  -29.1615   21.1255 H   0  0  0  0  0  0
  -26.0656  -26.0051   18.9846 H   0  0  0  0  0  0
  -23.9854  -27.2825   19.0476 H   0  0  0  0  0  0
  -23.6978  -30.5886   19.4025 H   0  0  0  0  0  0
  -22.7315  -29.2280   19.8836 H   0  0  0  0  0  0
  -25.1301  -36.2002   25.0846 H   0  0  0  0  0  0
  -20.9911  -28.3224   24.1463 H   0  0  0  0  0  0
  -20.5658  -26.2256   23.3606 H   0  0  0  0  0  0
  -21.6629  -26.7455   22.1220 H   0  0  0  0  0  0
  -19.6911  -25.6316   21.1211 H   0  0  0  0  0  0
  -19.6688  -27.3231   20.6758 H   0  0  0  0  0  0
  -17.4186  -26.6639   21.4027 H   0  0  0  0  0  0
  -18.0330  -26.0067   22.9023 H   0  0  0  0  0  0
  -19.7924  -30.7246   24.2280 H   0  0  0  0  0  0
  -17.5011  -31.6261   24.5177 H   0  0  0  0  0  0
  -15.5340  -30.3005   23.7645 H   0  0  0  0  0  0
  -15.8636  -28.0854   22.7019 H   0  0  0  0  0  0
  -24.5900  -30.6995   25.7772 H   0  0  0  0  0  0
  -24.8887  -32.2816   26.4894 H   0  0  0  0  0  0
  -25.8091  -30.8829   27.0197 H   0  0  0  0  0  0
  -26.2788  -29.6813   24.1082 H   0  0  0  0  0  0
  -27.4043  -29.7235   25.4444 H   0  0  0  0  0  0
  -27.8590  -30.4345   23.9132 H   0  0  0  0  0  0
  -27.2669  -33.3539   26.2068 H   0  0  0  0  0  0
  -28.3805  -32.6855   25.0239 H   0  0  0  0  0  0
  -28.0726  -31.8347   26.5300 H   0  0  0  0  0  0
  -28.2636  -38.0091   24.7467 H   0  0  0  0  0  0
  -28.1047  -36.2634   24.6350 H   0  0  0  0  0  0
  -27.2286  -37.1559   25.8860 H   0  0  0  0  0  0
  -20.9266  -29.8702   21.6940 H   0  0  0  0  0  0
  -26.0214  -38.2893   24.1346 H   0  0  0  0  0  0
  -30.8290  -20.6585   17.8197 H   0  0  0  0  0  0
  -29.9678  -17.1199   23.5343 H   0  0  0  0  0  0
  -28.2506  -17.3619   23.1985 H   0  0  0  0  0  0
  -27.0022  -25.1553   21.9323 H   0  0  0  0  0  0
  -28.6147  -25.7264   22.3828 H   0  0  0  0  0  0
  -28.1243  -15.3986   21.9215 H   0  0  0  0  0  0
  -29.3756  -14.8910   23.0828 H   0  0  0  0  0  0
  -27.8009  -22.9294   21.5911 H   0  0  0  0  0  0
  -28.9046  -23.4148   22.8797 H   0  0  0  0  0  0
  -30.5035  -17.0015   19.7157 H   0  0  0  0  0  0
  -31.5428  -16.9751   21.1428 H   0  0  0  0  0  0
  -30.5559  -25.3672   20.5318 H   0  0  0  0  0  0
  -30.0228  -24.5656   19.0586 H   0  0  0  0  0  0
  -28.6820  -17.9508   20.9030 H   0  0  0  0  0  0
  -27.7283  -24.8842   19.5775 H   0  0  0  0  0  0
  -29.9639  -19.4437   22.7483 H   0  0  0  0  0  0
  1 25  1  0  0  0
  1 30  2  0  0  0
  1 86  1  0  0  0
  2  3  1  0  0  0
  2 25  1  0  0  0
  2 88  1  0  0  0
  2 89  1  0  0  0
  3  4  1  0  0  0
  3 90  1  0  0  0
  3 91  1  0  0  0
  4  5  1  0  0  0
  4 92  1  0  0  0
  4 93  1  0  0  0
  5  6  1  0  0  0
  5 26  1  0  0  0
  5 94  1  0  0  0
  6 25  1  0  0  0
  6 95  1  0  0  0
  6 96  1  0  0  0
  7  8  2  0  0  0
  7 26  1  0  0  0
  7 29  1  0  0  0
  8  9  1  0  0  0
  8 22  1  0  0  0
  9 10  1  0  0  0
  9 27  2  0  0  0
 10 11  2  0  0  0
 10 15  1  0  0  0
 11 12  1  0  0  0
 11 97  1  0  0  0
 12 13  2  0  0  0
 12 98  1  0  0  0
 13 14  1  0  0  0
 13 31  1  0  0  0
 14 15  2  0  0  0
 14 99  1  0  0  0
 15100  1  0  0  0
 16 17  2  0  0  0
 16 21  1  0  0  0
 16 31  1  0  0  0
 17 18  1  0  0  0
 17101  1  0  0  0
 18 19  2  0  0  0
 18102  1  0  0  0
 19 20  1  0  0  0
 19 24  1  0  0  0
 20 21  2  0  0  0
 20103  1  0  0  0
 21 23  1  0  0  0
 22 28  1  0  0  0
 22 32  2  0  0  0
 26 27  1  0  0  0
 28104  1  0  0  0
 28105  1  0  0  0
 29106  1  0  0  0
 29107  1  0  0  0
 33 34  1  0  0  0
 33 66  1  0  0  0
 33 70  2  0  0  0
 34 36  1  0  0  0
 34 59  1  0  0  0
 34108  1  0  0  0
 35 44  2  0  0  0
 35 45  1  0  0  0
 35 68  1  0  0  0
 36 56  1  0  0  0
 36109  1  0  0  0
 37 39  1  0  0  0
 37 47  1  0  0  0
 37 66  1  0  0  0
 37110  1  0  0  0
 38 43  2  0  0  0
 38 46  1  0  0  0
 38 47  1  0  0  0
 39 64  1  0  0  0
 39 67  2  0  0  0
 40 52  1  0  0  0
 40 53  2  0  0  0
 40 58  1  0  0  0
 41111  1  0  0  0
 41112  1  0  0  0
 41113  1  0  0  0
 41 48  1  0  0  0
 42 43  1  0  0  0
 42 66  1  0  0  0
 42114  1  0  0  0
 42115  1  0  0  0
 43 44  1  0  0  0
 44116  1  0  0  0
 45 46  2  0  0  0
 45117  1  0  0  0
 46118  1  0  0  0
 47119  1  0  0  0
 47120  1  0  0  0
 48 56  1  0  0  0
 48 65  1  0  0  0
 48121  1  0  0  0
 49 50  1  0  0  0
 49 53  1  0  0  0
 49 64  1  0  0  0
 49122  1  0  0  0
 50 51  1  0  0  0
 50123  1  0  0  0
 50124  1  0  0  0
 51 52  1  0  0  0
 51125  1  0  0  0
 51126  1  0  0  0
 52127  1  0  0  0
 52128  1  0  0  0
 53 54  1  0  0  0
 54 55  2  0  0  0
 54129  1  0  0  0
 55 57  1  0  0  0
 55130  1  0  0  0
 56 69  2  0  0  0
 57 58  2  0  0  0
 57131  1  0  0  0
 58132  1  0  0  0
 59 60  1  0  0  0
 59 61  1  0  0  0
 59 62  1  0  0  0
 60133  1  0  0  0
 60134  1  0  0  0
 60135  1  0  0  0
 61136  1  0  0  0
 61137  1  0  0  0
 61138  1  0  0  0
 62139  1  0  0  0
 62140  1  0  0  0
 62141  1  0  0  0
 63 65  1  0  0  0
 63142  1  0  0  0
 63143  1  0  0  0
 63144  1  0  0  0
 64145  1  0  0  0
 65146  1  0  0  0
 68 81  1  0  0  0
 71 82  2  0  0  0
 71 83  1  0  0  0
 71147  1  0  0  0
 72 82  1  0  0  0
 72 84  2  0  0  0
 72 85  1  0  0  0
 73 83  2  0  0  0
 73 84  1  0  0  0
 73 87  1  0  0  0
 74 76  1  0  0  0
 74 80  1  0  0  0
 74148  1  0  0  0
 74149  1  0  0  0
 75 77  1  0  0  0
 75 81  1  0  0  0
 75150  1  0  0  0
 75151  1  0  0  0
 76 86  1  0  0  0
 76152  1  0  0  0
 76153  1  0  0  0
 77 85  1  0  0  0
 77154  1  0  0  0
 77155  1  0  0  0
 78 80  1  0  0  0
 78 86  1  0  0  0
 78156  1  0  0  0
 78157  1  0  0  0
 79 81  1  0  0  0
 79 85  1  0  0  0
 79158  1  0  0  0
 79159  1  0  0  0
 80 87  1  0  0  0
 80160  1  0  0  0
 81161  1  0  0  0
 87162  1  0  0  0
M  ISO  4   1 100  68 101  81 101  86 100
M  END
> <chiral flag>
0

> <version>
0

> <s_m_source_file>
/data/baiqing/PycharmProjects/Reinvent-master-3.2/result/LINK_invent/BTK/process_docking_weight1_custom_sum_contain_oxygen_bond_distance_aromatic_linkinvent_7_9_3/rearranged_h_0198.sdf

> <i_m_source_file_index>
25

> <r_mmod_Potential_Energy-OPLS-2005>
-699.967224121094

> <r_mmod_Stretch_Energy-OPLS-2005>
33.6365623474121

> <r_mmod_Bend_Energy-OPLS-2005>
168.710800170898

> <r_mmod_Torsional_Energy-OPLS-2005>
347.505004882812

> <r_mmod_Improper_Torsional_Energy-OPLS-2005>
13.8680086135864

> <r_mmod_Van_der_Waal_Energy-OPLS-2005>
196.545059204102

> <r_mmod_Electrostatic_Energy-OPLS-2005>
-1224.31384277344

> <r_mmod_Solvation_Energy-OPLS-2005>
-246.053146362305

> <b_mmod_Minimization_Converged-OPLS-2005>
0

> <r_mmod_RMS_Derivative-OPLS-2005>
2.75413513183594

$$$$
25
                    3D
 Structure written by MMmdl.
167177  0  0  1  0            999 V2000
  -30.7447  -14.4507   20.6078 C   0  0  0  0  0  0
  -30.4319  -12.3073   19.4222 C   0  0  0  0  0  0
  -29.4981  -12.5071   18.2109 C   0  0  0  0  0  0
  -28.0226  -12.3652   18.6287 C   0  0  0  0  0  0
  -27.6686  -13.2091   19.8799 C   0  0  2  0  0  0
  -28.7132  -12.9980   20.9985 C   0  0  0  0  0  0
  -25.2610  -13.8170   20.5697 C   0  0  0  0  0  0
  -24.1846  -13.0448   20.9184 C   0  0  0  0  0  0
  -24.6408  -11.6923   20.8742 C   0  0  0  0  0  0
  -23.9074  -10.4303   21.0401 C   0  0  0  0  0  0
  -24.3614   -9.4218   21.9184 C   0  0  0  0  0  0
  -23.6288   -8.2252   22.0752 C   0  0  0  0  0  0
  -22.4275   -8.0281   21.3548 C   0  0  0  0  0  0
  -21.9910   -9.0259   20.4644 C   0  0  0  0  0  0
  -22.7235  -10.2138   20.3052 C   0  0  0  0  0  0
  -21.6862   -6.0731   22.5270 C   0  0  0  0  0  0
  -21.4015   -6.5637   23.8213 C   0  0  0  0  0  0
  -21.3652   -5.6798   24.9167 C   0  0  0  0  0  0
  -21.6051   -4.3053   24.7225 C   0  0  0  0  0  0
  -21.8816   -3.8144   23.4356 C   0  0  0  0  0  0
  -21.9189   -4.6965   22.3400 C   0  0  0  0  0  0
  -22.7857  -13.5237   21.1840 C   0  0  0  0  0  0
  -22.1662   -4.2150   21.0982 F   0  0  0  0  0  0
  -21.5625   -3.4533   25.7739 F   0  0  0  0  0  0
  -30.0498  -13.2914   20.4473 N   0  0  0  0  0  0
  -26.3071  -12.9354   20.3428 N   0  0  0  0  0  0
  -25.9348  -11.6512   20.5787 N   0  0  0  0  0  0
  -22.0507  -12.8235   22.0391 N   0  0  0  0  0  0
  -25.4341  -15.1893   20.4094 N   0  0  0  0  0  0
  -31.8472  -14.6464   20.0923 O   0  0  0  0  0  0
  -21.6631   -6.8877   21.4239 O   0  0  0  0  0  0
  -22.3557  -14.5554   20.6693 O   0  0  0  0  0  0
  -24.6123  -31.8716   23.2146 C   0  0  0  0  0  0
  -25.9037  -32.4839   23.8427 C   0  0  1  0  0  0
  -27.2266  -27.4467   20.0922 C   0  0  0  0  0  0
  -25.5901  -33.8636   24.2348 N   0  0  0  0  0  0
  -23.3966  -30.4986   21.5558 C   0  0  2  0  0  0
  -24.8403  -28.9706   20.1168 C   0  0  0  0  0  0
  -22.7384  -29.4687   22.5008 C   0  0  0  0  0  0
  -18.0268  -28.1371   22.8489 C   0  0  0  0  0  0
  -24.1492  -36.7326   23.2637 C   0  0  0  0  0  0
  -25.9261  -30.8368   21.3708 C   0  0  0  0  0  0
  -25.9997  -29.4727   20.7208 C   0  0  0  0  0  0
  -27.1926  -28.7158   20.7124 C   0  0  0  0  0  0
  -26.0556  -26.9803   19.4518 C   0  0  0  0  0  0
  -24.8621  -27.7188   19.4833 C   0  0  0  0  0  0
  -23.6034  -29.8358   20.1685 C   0  0  0  0  0  0
  -25.4110  -36.3122   24.0339 C   0  0  1  0  0  0
  -20.5855  -28.3660   23.1317 C   0  0  2  0  0  0
  -20.6765  -26.9402   22.5409 C   0  0  0  0  0  0
  -19.5745  -26.6386   21.5203 C   0  0  0  0  0  0
  -18.1922  -26.7919   22.1619 C   0  0  0  0  0  0
  -19.1513  -28.8829   23.2903 C   0  0  0  0  0  0
  -18.9454  -30.1435   23.8909 C   0  0  0  0  0  0
  -17.6458  -30.6584   24.0566 C   0  0  0  0  0  0
  -25.9025  -34.9485   23.5129 C   0  0  0  0  0  0
  -16.5348  -29.9087   23.6328 C   0  0  0  0  0  0
  -16.7255  -28.6506   23.0344 C   0  0  0  0  0  0
  -26.4472  -31.6598   25.0733 C   0  0  0  0  0  0
  -25.3743  -31.3694   26.1477 C   0  0  0  0  0  0
  -27.0305  -30.3047   24.6098 C   0  0  0  0  0  0
  -27.6044  -32.4317   25.7492 C   0  0  0  0  0  0
  -27.5582  -37.1817   24.8465 C   0  0  0  0  0  0
  -21.4115  -29.3034   22.3733 N   0  0  0  0  0  0
  -26.4301  -37.3803   23.9397 N   0  0  0  0  0  0
  -24.6633  -31.0837   22.1055 N   0  0  0  0  0  0
  -23.4174  -28.8218   23.3036 O   0  0  0  0  0  0
  -28.4207  -26.7545   20.0328 O   0  0  0  0  0  0
  -26.5595  -34.8930   22.4697 O   0  0  0  0  0  0
  -23.5317  -32.1480   23.7543 O   0  0  0  0  0  0
  -29.7069  -22.4717   20.1853 C   0  0  0  0  0  0
  -29.7478  -21.1352   19.8734 C   0  0  0  0  0  0
  -28.7099  -20.9988   18.8898 C   0  0  0  0  0  0
  -29.2374  -17.0807   22.0656 C   0  0  0  0  0  0
  -27.3405  -24.5496   20.8872 C   0  0  0  0  0  0
  -30.0620  -15.8928   22.5379 C   0  0  0  0  0  0
  -28.0476  -24.3636   19.5563 C   0  0  2  0  0  0
  -28.5473  -25.4066   20.5398 C   0  0  1  0  0  0
  -29.8912  -16.8824   20.6939 C   0  0  2  0  0  0
  -28.8328  -19.6894   16.7226 C   0  0  0  0  0  0
  -30.6512  -20.0947   20.5268 C   0  0  0  0  0  0
  -28.2148  -19.7948   18.1260 C   0  0  0  0  0  0
  -31.2068  -17.6286   20.3160 C   0  0  0  0  0  0
  -28.0900  -22.1451   18.6611 N   0  0  0  0  0  0
  -28.6593  -23.0407   19.4879 N   0  0  0  0  0  0
  -30.0363  -15.4728   21.1350 N   0  0  0  0  0  0
  -30.9491  -18.9384   19.6571 N   0  3  0  0  0  0
  -31.4754  -12.4086   19.1151 H   0  0  0  0  0  0
  -30.3383  -11.2975   19.8268 H   0  0  0  0  0  0
  -29.7385  -11.7821   17.4326 H   0  0  0  0  0  0
  -29.6627  -13.4936   17.7739 H   0  0  0  0  0  0
  -27.8399  -11.3102   18.8366 H   0  0  0  0  0  0
  -27.3679  -12.6277   17.7988 H   0  0  0  0  0  0
  -27.7117  -14.2555   19.5793 H   0  0  0  0  0  0
  -28.6840  -11.9707   21.3612 H   0  0  0  0  0  0
  -28.4709  -13.6136   21.8641 H   0  0  0  0  0  0
  -25.2758   -9.5687   22.4770 H   0  0  0  0  0  0
  -23.9994   -7.4634   22.7478 H   0  0  0  0  0  0
  -21.0841   -8.8777   19.8951 H   0  0  0  0  0  0
  -22.3695  -10.9678   19.6163 H   0  0  0  0  0  0
  -21.2010   -7.6147   23.9718 H   0  0  0  0  0  0
  -21.1479   -6.0519   25.9078 H   0  0  0  0  0  0
  -22.0604   -2.7609   23.2847 H   0  0  0  0  0  0
  -22.4083  -11.9872   22.4770 H   0  0  0  0  0  0
  -21.1123  -13.1273   22.2596 H   0  0  0  0  0  0
  -24.6742  -15.8522   20.5157 H   0  0  0  0  0  0
  -26.2979  -15.6210   20.1068 H   0  0  0  0  0  0
  -26.7094  -32.5562   23.1176 H   0  0  0  0  0  0
  -25.0055  -33.9815   25.0493 H   0  0  0  0  0  0
  -22.6842  -31.3160   21.4209 H   0  0  0  0  0  0
  -23.3746  -35.9667   23.3310 H   0  0  0  0  0  0
  -24.3583  -36.8931   22.2047 H   0  0  0  0  0  0
  -23.7250  -37.6538   23.6642 H   0  0  0  0  0  0
  -26.0410  -31.6021   20.6019 H   0  0  0  0  0  0
  -26.8145  -30.8879   21.9894 H   0  0  0  0  0  0
  -28.0889  -29.1040   21.1758 H   0  0  0  0  0  0
  -26.0398  -26.0510   18.9078 H   0  0  0  0  0  0
  -23.9773  -27.3328   18.9958 H   0  0  0  0  0  0
  -23.7093  -30.6140   19.4116 H   0  0  0  0  0  0
  -22.7265  -29.2574   19.8725 H   0  0  0  0  0  0
  -25.1282  -36.1998   25.0834 H   0  0  0  0  0  0
  -20.9948  -28.3223   24.1436 H   0  0  0  0  0  0
  -20.5670  -26.2267   23.3588 H   0  0  0  0  0  0
  -21.6636  -26.7456   22.1195 H   0  0  0  0  0  0
  -19.6909  -25.6301   21.1219 H   0  0  0  0  0  0
  -19.6680  -27.3207   20.6738 H   0  0  0  0  0  0
  -17.4188  -26.6656   21.4025 H   0  0  0  0  0  0
  -18.0337  -26.0057   22.9014 H   0  0  0  0  0  0
  -19.7927  -30.7245   24.2284 H   0  0  0  0  0  0
  -17.5015  -31.6262   24.5166 H   0  0  0  0  0  0
  -15.5346  -30.2997   23.7641 H   0  0  0  0  0  0
  -15.8655  -28.0830   22.7049 H   0  0  0  0  0  0
  -24.5897  -30.7073   25.7798 H   0  0  0  0  0  0
  -24.8965  -32.2849   26.4967 H   0  0  0  0  0  0
  -25.8098  -30.8816   27.0202 H   0  0  0  0  0  0
  -26.2859  -29.6806   24.1145 H   0  0  0  0  0  0
  -27.4069  -29.7279   25.4552 H   0  0  0  0  0  0
  -27.8692  -30.4361   23.9259 H   0  0  0  0  0  0
  -27.2649  -33.3575   26.2143 H   0  0  0  0  0  0
  -28.3817  -32.6945   25.0307 H   0  0  0  0  0  0
  -28.0758  -31.8407   26.5349 H   0  0  0  0  0  0
  -28.2613  -38.0104   24.7503 H   0  0  0  0  0  0
  -28.1069  -36.2632   24.6306 H   0  0  0  0  0  0
  -27.2296  -37.1484   25.8872 H   0  0  0  0  0  0
  -20.9266  -29.8773   21.6972 H   0  0  0  0  0  0
  -26.0195  -38.2888   24.1387 H   0  0  0  0  0  0
  -30.2881  -23.0444   20.8953 H   0  0  0  0  0  0
  -29.4513  -18.0109   22.5918 H   0  0  0  0  0  0
  -28.1669  -16.8770   22.0425 H   0  0  0  0  0  0
  -27.4976  -23.7888   21.6489 H   0  0  0  0  0  0
  -26.3418  -24.9677   20.9013 H   0  0  0  0  0  0
  -29.5419  -15.2269   23.2315 H   0  0  0  0  0  0
  -31.0491  -16.1771   22.9098 H   0  0  0  0  0  0
  -27.5884  -24.6592   18.6154 H   0  0  0  0  0  0
  -29.4914  -25.2404   21.0558 H   0  0  0  0  0  0
  -29.1482  -16.9472   19.8981 H   0  0  0  0  0  0
  -28.6361  -20.5864   16.1357 H   0  0  0  0  0  0
  -28.4086  -18.8451   16.1782 H   0  0  0  0  0  0
  -29.9121  -19.5510   16.7646 H   0  0  0  0  0  0
  -30.2052  -19.7622   21.4611 H   0  0  0  0  0  0
  -31.6038  -20.5438   20.8169 H   0  0  0  0  0  0
  -27.1307  -19.8615   18.0117 H   0  0  0  0  0  0
  -28.3802  -18.8760   18.6848 H   0  0  0  0  0  0
  -31.7718  -17.0558   19.5827 H   0  0  0  0  0  0
  -31.8771  -17.7563   21.1683 H   0  0  0  0  0  0
  -31.7657  -19.1792   19.1179 H   0  0  0  0  0  0
  -30.1903  -18.8089   19.0170 H   0  0  0  0  0  0
  1 25  1  0  0  0
  1 30  2  0  0  0
  1 86  1  0  0  0
  2  3  1  0  0  0
  2 25  1  0  0  0
  2 88  1  0  0  0
  2 89  1  0  0  0
  3  4  1  0  0  0
  3 90  1  0  0  0
  3 91  1  0  0  0
  4  5  1  0  0  0
  4 92  1  0  0  0
  4 93  1  0  0  0
  5  6  1  0  0  0
  5 26  1  0  0  0
  5 94  1  0  0  0
  6 25  1  0  0  0
  6 95  1  0  0  0
  6 96  1  0  0  0
  7  8  2  0  0  0
  7 26  1  0  0  0
  7 29  1  0  0  0
  8  9  1  0  0  0
  8 22  1  0  0  0
  9 10  1  0  0  0
  9 27  2  0  0  0
 10 11  2  0  0  0
 10 15  1  0  0  0
 11 12  1  0  0  0
 11 97  1  0  0  0
 12 13  2  0  0  0
 12 98  1  0  0  0
 13 14  1  0  0  0
 13 31  1  0  0  0
 14 15  2  0  0  0
 14 99  1  0  0  0
 15100  1  0  0  0
 16 17  2  0  0  0
 16 21  1  0  0  0
 16 31  1  0  0  0
 17 18  1  0  0  0
 17101  1  0  0  0
 18 19  2  0  0  0
 18102  1  0  0  0
 19 20  1  0  0  0
 19 24  1  0  0  0
 20 21  2  0  0  0
 20103  1  0  0  0
 21 23  1  0  0  0
 22 28  1  0  0  0
 22 32  2  0  0  0
 26 27  1  0  0  0
 28104  1  0  0  0
 28105  1  0  0  0
 29106  1  0  0  0
 29107  1  0  0  0
 33 34  1  0  0  0
 33 66  1  0  0  0
 33 70  2  0  0  0
 34 36  1  0  0  0
 34 59  1  0  0  0
 34108  1  0  0  0
 35 44  2  0  0  0
 35 45  1  0  0  0
 35 68  1  0  0  0
 36 56  1  0  0  0
 36109  1  0  0  0
 37 39  1  0  0  0
 37 47  1  0  0  0
 37 66  1  0  0  0
 37110  1  0  0  0
 38 43  2  0  0  0
 38 46  1  0  0  0
 38 47  1  0  0  0
 39 64  1  0  0  0
 39 67  2  0  0  0
 40 52  1  0  0  0
 40 53  2  0  0  0
 40 58  1  0  0  0
 41111  1  0  0  0
 41112  1  0  0  0
 41113  1  0  0  0
 41 48  1  0  0  0
 42 43  1  0  0  0
 42 66  1  0  0  0
 42114  1  0  0  0
 42115  1  0  0  0
 43 44  1  0  0  0
 44116  1  0  0  0
 45 46  2  0  0  0
 45117  1  0  0  0
 46118  1  0  0  0
 47119  1  0  0  0
 47120  1  0  0  0
 48 56  1  0  0  0
 48 65  1  0  0  0
 48121  1  0  0  0
 49 50  1  0  0  0
 49 53  1  0  0  0
 49 64  1  0  0  0
 49122  1  0  0  0
 50 51  1  0  0  0
 50123  1  0  0  0
 50124  1  0  0  0
 51 52  1  0  0  0
 51125  1  0  0  0
 51126  1  0  0  0
 52127  1  0  0  0
 52128  1  0  0  0
 53 54  1  0  0  0
 54 55  2  0  0  0
 54129  1  0  0  0
 55 57  1  0  0  0
 55130  1  0  0  0
 56 69  2  0  0  0
 57 58  2  0  0  0
 57131  1  0  0  0
 58132  1  0  0  0
 59 60  1  0  0  0
 59 61  1  0  0  0
 59 62  1  0  0  0
 60133  1  0  0  0
 60134  1  0  0  0
 60135  1  0  0  0
 61136  1  0  0  0
 61137  1  0  0  0
 61138  1  0  0  0
 62139  1  0  0  0
 62140  1  0  0  0
 62141  1  0  0  0
 63 65  1  0  0  0
 63142  1  0  0  0
 63143  1  0  0  0
 63144  1  0  0  0
 64145  1  0  0  0
 65146  1  0  0  0
 68 78  1  0  0  0
 71 72  2  0  0  0
 71 85  1  0  0  0
 71147  1  0  0  0
 72 73  1  0  0  0
 72 81  1  0  0  0
 73 82  1  0  0  0
 73 84  2  0  0  0
 74 76  1  0  0  0
 74 79  1  0  0  0
 74148  1  0  0  0
 74149  1  0  0  0
 75 77  1  0  0  0
 75 78  1  0  0  0
 75150  1  0  0  0
 75151  1  0  0  0
 76 86  1  0  0  0
 76152  1  0  0  0
 76153  1  0  0  0
 77 78  1  0  0  0
 77 85  1  0  0  0
 77154  1  0  0  0
 78155  1  0  0  0
 79 83  1  0  0  0
 79 86  1  0  0  0
 79156  1  0  0  0
 80 82  1  0  0  0
 80157  1  0  0  0
 80158  1  0  0  0
 80159  1  0  0  0
 81 87  1  0  0  0
 81160  1  0  0  0
 81161  1  0  0  0
 82162  1  0  0  0
 82163  1  0  0  0
 83 87  1  0  0  0
 83164  1  0  0  0
 83165  1  0  0  0
 84 85  1  0  0  0
 87166  1  0  0  0
 87167  1  0  0  0
M  CHG  1  87   1
M  ISO  4   1 100  68 101  78 101  86 100
M  END
> <chiral flag>
0

> <version>
0

> <s_m_source_file>
/data/baiqing/PycharmProjects/Reinvent-master-3.2/result/LINK_invent/BTK/process_docking_weight1_custom_sum_contain_oxygen_bond_distance_aromatic_linkinvent_7_9_3/rearranged_h_0198.sdf

> <i_m_source_file_index>
26

> <r_mmod_Potential_Energy-OPLS-2005>
-85.9135589599609

> <r_mmod_Stretch_Energy-OPLS-2005>
38.5761299133301

> <r_mmod_Bend_Energy-OPLS-2005>
146.455032348633

> <r_mmod_Torsional_Energy-OPLS-2005>
345.112548828125

> <r_mmod_Improper_Torsional_Energy-OPLS-2005>
11.7138080596924

> <r_mmod_Van_der_Waal_Energy-OPLS-2005>
127.00414276123

> <r_mmod_Electrostatic_Energy-OPLS-2005>
-300.020141601562

> <r_mmod_Solvation_Energy-OPLS-2005>
-465.518188476562

> <b_mmod_Minimization_Converged-OPLS-2005>
0

> <r_mmod_RMS_Derivative-OPLS-2005>
4.69413757324219

$$$$
26
                    3D
 Structure written by MMmdl.
169179  0  0  1  0            999 V2000
  -30.6997  -14.5363   20.5296 C   0  0  0  0  0  0
  -30.4203  -12.3414   19.4269 C   0  0  0  0  0  0
  -29.4862  -12.4775   18.2077 C   0  0  0  0  0  0
  -28.0127  -12.3081   18.6291 C   0  0  0  0  0  0
  -27.6389  -13.1808   19.8530 C   0  0  2  0  0  0
  -28.6928  -13.0611   20.9797 C   0  0  0  0  0  0
  -25.2521  -13.8062   20.5675 C   0  0  0  0  0  0
  -24.1778  -13.0375   20.9216 C   0  0  0  0  0  0
  -24.6323  -11.6845   20.8788 C   0  0  0  0  0  0
  -23.9001  -10.4254   21.0451 C   0  0  0  0  0  0
  -24.3570   -9.4177   21.9223 C   0  0  0  0  0  0
  -23.6259   -8.2208   22.0777 C   0  0  0  0  0  0
  -22.4248   -8.0251   21.3545 C   0  0  0  0  0  0
  -21.9886   -9.0218   20.4642 C   0  0  0  0  0  0
  -22.7205  -10.2102   20.3069 C   0  0  0  0  0  0
  -21.6834   -6.0719   22.5282 C   0  0  0  0  0  0
  -21.3995   -6.5627   23.8212 C   0  0  0  0  0  0
  -21.3651   -5.6784   24.9173 C   0  0  0  0  0  0
  -21.6044   -4.3047   24.7228 C   0  0  0  0  0  0
  -21.8822   -3.8138   23.4352 C   0  0  0  0  0  0
  -21.9187   -4.6951   22.3406 C   0  0  0  0  0  0
  -22.7810  -13.5208   21.1856 C   0  0  0  0  0  0
  -22.1658   -4.2141   21.0984 F   0  0  0  0  0  0
  -21.5634   -3.4537   25.7742 F   0  0  0  0  0  0
  -30.0147  -13.3621   20.4060 N   0  0  0  0  0  0
  -26.2899  -12.9166   20.3319 N   0  0  0  0  0  0
  -25.9230  -11.6369   20.5811 N   0  0  0  0  0  0
  -22.0412  -12.8210   22.0386 N   0  0  0  0  0  0
  -25.4204  -15.1787   20.4024 N   0  0  0  0  0  0
  -31.8742  -14.6567   20.1724 O   0  0  0  0  0  0
  -21.6612   -6.8854   21.4239 O   0  0  0  0  0  0
  -22.3532  -14.5535   20.6711 O   0  0  0  0  0  0
  -24.6124  -31.8657   23.2053 C   0  0  0  0  0  0
  -25.9014  -32.4806   23.8357 C   0  0  1  0  0  0
  -27.2583  -27.4320   20.0882 C   0  0  0  0  0  0
  -25.5858  -33.8610   24.2283 N   0  0  0  0  0  0
  -23.3998  -30.4835   21.5461 C   0  0  2  0  0  0
  -24.8458  -28.9336   20.1236 C   0  0  0  0  0  0
  -22.7380  -29.4642   22.4997 C   0  0  0  0  0  0
  -18.0257  -28.1387   22.8469 C   0  0  0  0  0  0
  -24.1459  -36.7295   23.2646 C   0  0  0  0  0  0
  -25.9249  -30.8303   21.3540 C   0  0  0  0  0  0
  -26.0015  -29.4607   20.7063 C   0  0  0  0  0  0
  -27.1995  -28.7169   20.6789 C   0  0  0  0  0  0
  -26.0648  -26.8887   19.5589 C   0  0  0  0  0  0
  -24.8716  -27.6454   19.5544 C   0  0  0  0  0  0
  -23.6072  -29.8024   20.1650 C   0  0  0  0  0  0
  -25.4092  -36.3103   24.0333 C   0  0  1  0  0  0
  -20.5839  -28.3660   23.1329 C   0  0  2  0  0  0
  -20.6732  -26.9397   22.5425 C   0  0  0  0  0  0
  -19.5720  -26.6398   21.5200 C   0  0  0  0  0  0
  -18.1890  -26.7937   22.1592 C   0  0  0  0  0  0
  -19.1508  -28.8837   23.2893 C   0  0  0  0  0  0
  -18.9457  -30.1439   23.8909 C   0  0  0  0  0  0
  -17.6468  -30.6586   24.0582 C   0  0  0  0  0  0
  -25.9033  -34.9472   23.5117 C   0  0  0  0  0  0
  -16.5352  -29.9108   23.6336 C   0  0  0  0  0  0
  -16.7254  -28.6532   23.0333 C   0  0  0  0  0  0
  -26.4436  -31.6609   25.0708 C   0  0  0  0  0  0
  -25.3698  -31.3678   26.1443 C   0  0  0  0  0  0
  -27.0326  -30.3080   24.6079 C   0  0  0  0  0  0
  -27.5956  -32.4361   25.7537 C   0  0  0  0  0  0
  -27.5559  -37.1820   24.8458 C   0  0  0  0  0  0
  -21.4109  -29.3040   22.3749 N   0  0  0  0  0  0
  -26.4263  -37.3800   23.9415 N   0  0  0  0  0  0
  -24.6641  -31.0755   22.0942 N   0  0  0  0  0  0
  -23.4150  -28.8197   23.3044 O   0  0  0  0  0  0
  -28.5189  -26.8569   20.0892 O   0  0  0  0  0  0
  -26.5623  -34.8929   22.4695 O   0  0  0  0  0  0
  -23.5323  -32.1408   23.7463 O   0  0  0  0  0  0
  -28.4829  -22.3096   20.7113 C   0  0  0  0  0  0
  -28.3296  -23.3339   19.8050 C   0  0  0  0  0  0
  -28.8774  -23.0389   21.8823 C   0  0  0  0  0  0
  -28.0284  -23.6261   18.3705 C   0  0  0  0  0  0
  -28.3854  -25.1401   18.1666 C   0  0  0  0  0  0
  -30.6303  -17.9545   21.7925 C   0  0  0  0  0  0
  -29.2458  -17.7701   19.7687 C   0  0  0  0  0  0
  -30.4279  -16.4445   22.1017 C   0  0  0  0  0  0
  -29.0054  -16.2729   20.0589 C   0  0  0  0  0  0
  -29.4209  -18.5765   21.0616 C   0  0  0  0  0  0
  -28.9172  -25.6092   19.5513 C   0  0  2  0  0  0
  -29.7971  -23.1999   24.1512 C   0  0  0  0  0  0
  -28.3169  -20.7999   20.5456 C   0  0  0  0  0  0
  -29.0529  -24.3433   21.6988 N   0  0  0  0  0  0
  -28.6864  -24.4858   20.4139 N   0  0  0  0  0  0
  -29.9948  -15.6271   20.9492 N   0  0  0  0  0  0
  -29.1823  -22.4094   23.0909 N   0  0  0  0  0  0
  -29.5749  -20.0422   20.8148 N   0  3  0  0  0  0
  -31.4611  -12.4478   19.1159 H   0  0  0  0  0  0
  -30.3413  -11.3465   19.8676 H   0  0  0  0  0  0
  -29.7436  -11.7330   17.4531 H   0  0  0  0  0  0
  -29.6266  -13.4527   17.7385 H   0  0  0  0  0  0
  -27.8527  -11.2551   18.8641 H   0  0  0  0  0  0
  -27.3530  -12.5337   17.7902 H   0  0  0  0  0  0
  -27.6219  -14.1928   19.4753 H   0  0  0  0  0  0
  -28.6912  -12.0547   21.3992 H   0  0  0  0  0  0
  -28.4474  -13.7302   21.8060 H   0  0  0  0  0  0
  -25.2708   -9.5654   22.4814 H   0  0  0  0  0  0
  -23.9963   -7.4594   22.7494 H   0  0  0  0  0  0
  -21.0831   -8.8722   19.8926 H   0  0  0  0  0  0
  -22.3680  -10.9640   19.6169 H   0  0  0  0  0  0
  -21.1978   -7.6131   23.9711 H   0  0  0  0  0  0
  -21.1468   -6.0514   25.9074 H   0  0  0  0  0  0
  -22.0613   -2.7607   23.2857 H   0  0  0  0  0  0
  -22.3969  -11.9833   22.4744 H   0  0  0  0  0  0
  -21.1032  -13.1262   22.2568 H   0  0  0  0  0  0
  -24.6484  -15.8286   20.5008 H   0  0  0  0  0  0
  -26.2585  -15.6119   20.0405 H   0  0  0  0  0  0
  -26.7094  -32.5507   23.1133 H   0  0  0  0  0  0
  -24.9945  -33.9768   25.0379 H   0  0  0  0  0  0
  -22.6887  -31.2992   21.4004 H   0  0  0  0  0  0
  -23.3736  -35.9614   23.3304 H   0  0  0  0  0  0
  -24.3537  -36.8931   22.2060 H   0  0  0  0  0  0
  -23.7197  -37.6485   23.6678 H   0  0  0  0  0  0
  -26.0299  -31.5931   20.5811 H   0  0  0  0  0  0
  -26.8146  -30.8895   21.9699 H   0  0  0  0  0  0
  -28.0986  -29.1343   21.1103 H   0  0  0  0  0  0
  -26.0236  -25.8860   19.1650 H   0  0  0  0  0  0
  -23.9715  -27.2184   19.1340 H   0  0  0  0  0  0
  -23.7165  -30.5702   19.3984 H   0  0  0  0  0  0
  -22.7310  -29.2214   19.8715 H   0  0  0  0  0  0
  -25.1273  -36.1955   25.0828 H   0  0  0  0  0  0
  -20.9912  -28.3222   24.1457 H   0  0  0  0  0  0
  -20.5597  -26.2275   23.3607 H   0  0  0  0  0  0
  -21.6613  -26.7409   22.1257 H   0  0  0  0  0  0
  -19.6878  -25.6316   21.1217 H   0  0  0  0  0  0
  -19.6669  -27.3225   20.6744 H   0  0  0  0  0  0
  -17.4163  -26.6709   21.3983 H   0  0  0  0  0  0
  -18.0257  -26.0061   22.8962 H   0  0  0  0  0  0
  -19.7945  -30.7237   24.2275 H   0  0  0  0  0  0
  -17.5045  -31.6266   24.5188 H   0  0  0  0  0  0
  -15.5362  -30.3035   23.7656 H   0  0  0  0  0  0
  -15.8647  -28.0893   22.7026 H   0  0  0  0  0  0
  -24.5885  -30.7016   25.7761 H   0  0  0  0  0  0
  -24.8872  -32.2824   26.4903 H   0  0  0  0  0  0
  -25.8051  -30.8840   27.0198 H   0  0  0  0  0  0
  -26.2925  -29.6858   24.1035 H   0  0  0  0  0  0
  -27.4035  -29.7282   25.4542 H   0  0  0  0  0  0
  -27.8749  -30.4450   23.9294 H   0  0  0  0  0  0
  -27.2491  -33.3618   26.2145 H   0  0  0  0  0  0
  -28.3778  -32.7006   25.0412 H   0  0  0  0  0  0
  -28.0602  -31.8480   26.5460 H   0  0  0  0  0  0
  -28.2560  -38.0131   24.7528 H   0  0  0  0  0  0
  -28.1069  -36.2667   24.6254 H   0  0  0  0  0  0
  -27.2278  -37.1437   25.8858 H   0  0  0  0  0  0
  -20.9252  -29.8808   21.7022 H   0  0  0  0  0  0
  -26.0137  -38.2866   24.1446 H   0  0  0  0  0  0
  -26.9769  -23.4398   18.1541 H   0  0  0  0  0  0
  -28.6270  -22.9928   17.7157 H   0  0  0  0  0  0
  -27.5629  -25.7395   17.7903 H   0  0  0  0  0  0
  -29.1912  -25.2444   17.4391 H   0  0  0  0  0  0
  -31.5321  -18.0782   21.1901 H   0  0  0  0  0  0
  -30.8173  -18.4848   22.7276 H   0  0  0  0  0  0
  -28.4085  -18.1574   19.1876 H   0  0  0  0  0  0
  -30.1309  -17.8792   19.1392 H   0  0  0  0  0  0
  -29.6661  -16.3388   22.8751 H   0  0  0  0  0  0
  -31.3437  -16.0413   22.5387 H   0  0  0  0  0  0
  -28.9727  -15.7707   19.0912 H   0  0  0  0  0  0
  -28.0265  -16.1609   20.5232 H   0  0  0  0  0  0
  -28.5442  -18.4332   21.6963 H   0  0  0  0  0  0
  -30.0041  -25.6899   19.4873 H   0  0  0  0  0  0
  -30.0485  -22.5658   25.0023 H   0  0  0  0  0  0
  -29.1238  -23.9855   24.4975 H   0  0  0  0  0  0
  -30.7189  -23.6684   23.8014 H   0  0  0  0  0  0
  -27.9650  -20.5524   19.5442 H   0  0  0  0  0  0
  -27.5402  -20.4464   21.2236 H   0  0  0  0  0  0
  -28.6598  -21.5821   23.3642 H   0  0  0  0  0  0
  -30.2290  -20.2015   20.0652 H   0  0  0  0  0  0
  -29.9774  -20.4425   21.6464 H   0  0  0  0  0  0
  1 25  1  0  0  0
  1 30  2  0  0  0
  1 86  1  0  0  0
  2  3  1  0  0  0
  2 25  1  0  0  0
  2 89  1  0  0  0
  2 90  1  0  0  0
  3  4  1  0  0  0
  3 91  1  0  0  0
  3 92  1  0  0  0
  4  5  1  0  0  0
  4 93  1  0  0  0
  4 94  1  0  0  0
  5  6  1  0  0  0
  5 26  1  0  0  0
  5 95  1  0  0  0
  6 25  1  0  0  0
  6 96  1  0  0  0
  6 97  1  0  0  0
  7  8  2  0  0  0
  7 26  1  0  0  0
  7 29  1  0  0  0
  8  9  1  0  0  0
  8 22  1  0  0  0
  9 10  1  0  0  0
  9 27  2  0  0  0
 10 11  2  0  0  0
 10 15  1  0  0  0
 11 12  1  0  0  0
 11 98  1  0  0  0
 12 13  2  0  0  0
 12 99  1  0  0  0
 13 14  1  0  0  0
 13 31  1  0  0  0
 14 15  2  0  0  0
 14100  1  0  0  0
 15101  1  0  0  0
 16 17  2  0  0  0
 16 21  1  0  0  0
 16 31  1  0  0  0
 17 18  1  0  0  0
 17102  1  0  0  0
 18 19  2  0  0  0
 18103  1  0  0  0
 19 20  1  0  0  0
 19 24  1  0  0  0
 20 21  2  0  0  0
 20104  1  0  0  0
 21 23  1  0  0  0
 22 28  1  0  0  0
 22 32  2  0  0  0
 26 27  1  0  0  0
 28105  1  0  0  0
 28106  1  0  0  0
 29107  1  0  0  0
 29108  1  0  0  0
 33 34  1  0  0  0
 33 66  1  0  0  0
 33 70  2  0  0  0
 34 36  1  0  0  0
 34 59  1  0  0  0
 34109  1  0  0  0
 35 44  2  0  0  0
 35 45  1  0  0  0
 35 68  1  0  0  0
 36 56  1  0  0  0
 36110  1  0  0  0
 37 39  1  0  0  0
 37 47  1  0  0  0
 37 66  1  0  0  0
 37111  1  0  0  0
 38 43  2  0  0  0
 38 46  1  0  0  0
 38 47  1  0  0  0
 39 64  1  0  0  0
 39 67  2  0  0  0
 40 52  1  0  0  0
 40 53  2  0  0  0
 40 58  1  0  0  0
 41112  1  0  0  0
 41113  1  0  0  0
 41114  1  0  0  0
 41 48  1  0  0  0
 42 43  1  0  0  0
 42 66  1  0  0  0
 42115  1  0  0  0
 42116  1  0  0  0
 43 44  1  0  0  0
 44117  1  0  0  0
 45 46  2  0  0  0
 45118  1  0  0  0
 46119  1  0  0  0
 47120  1  0  0  0
 47121  1  0  0  0
 48 56  1  0  0  0
 48 65  1  0  0  0
 48122  1  0  0  0
 49 50  1  0  0  0
 49 53  1  0  0  0
 49 64  1  0  0  0
 49123  1  0  0  0
 50 51  1  0  0  0
 50124  1  0  0  0
 50125  1  0  0  0
 51 52  1  0  0  0
 51126  1  0  0  0
 51127  1  0  0  0
 52128  1  0  0  0
 52129  1  0  0  0
 53 54  1  0  0  0
 54 55  2  0  0  0
 54130  1  0  0  0
 55 57  1  0  0  0
 55131  1  0  0  0
 56 69  2  0  0  0
 57 58  2  0  0  0
 57132  1  0  0  0
 58133  1  0  0  0
 59 60  1  0  0  0
 59 61  1  0  0  0
 59 62  1  0  0  0
 60134  1  0  0  0
 60135  1  0  0  0
 60136  1  0  0  0
 61137  1  0  0  0
 61138  1  0  0  0
 61139  1  0  0  0
 62140  1  0  0  0
 62141  1  0  0  0
 62142  1  0  0  0
 63 65  1  0  0  0
 63143  1  0  0  0
 63144  1  0  0  0
 63145  1  0  0  0
 64146  1  0  0  0
 65147  1  0  0  0
 68 81  1  0  0  0
 71 72  2  0  0  0
 71 73  1  0  0  0
 71 83  1  0  0  0
 72 74  1  0  0  0
 72 85  1  0  0  0
 73 84  2  0  0  0
 73 87  1  0  0  0
 74 75  1  0  0  0
 74148  1  0  0  0
 74149  1  0  0  0
 75 81  1  0  0  0
 75150  1  0  0  0
 75151  1  0  0  0
 76 78  1  0  0  0
 76 80  1  0  0  0
 76152  1  0  0  0
 76153  1  0  0  0
 77 79  1  0  0  0
 77 80  1  0  0  0
 77154  1  0  0  0
 77155  1  0  0  0
 78 86  1  0  0  0
 78156  1  0  0  0
 78157  1  0  0  0
 79 86  1  0  0  0
 79158  1  0  0  0
 79159  1  0  0  0
 80 88  1  0  0  0
 80160  1  0  0  0
 81 85  1  0  0  0
 81161  1  0  0  0
 82 87  1  0  0  0
 82162  1  0  0  0
 82163  1  0  0  0
 82164  1  0  0  0
 83 88  1  0  0  0
 83165  1  0  0  0
 83166  1  0  0  0
 84 85  1  0  0  0
 87167  1  0  0  0
 88168  1  0  0  0
 88169  1  0  0  0
M  CHG  1  88   1
M  ISO  4   1 100  68 101  81 101  86 100
M  END
> <chiral flag>
0

> <version>
0

> <s_m_source_file>
/data/baiqing/PycharmProjects/Reinvent-master-3.2/result/LINK_invent/BTK/process_docking_weight1_custom_sum_contain_oxygen_bond_distance_aromatic_linkinvent_7_9_3/rearranged_h_0198.sdf

> <i_m_source_file_index>
27

> <r_mmod_Potential_Energy-OPLS-2005>
43.516658782959

> <r_mmod_Stretch_Energy-OPLS-2005>
45.7358589172363

> <r_mmod_Bend_Energy-OPLS-2005>
230.529205322266

> <r_mmod_Torsional_Energy-OPLS-2005>
356.528717041016

> <r_mmod_Improper_Torsional_Energy-OPLS-2005>
8.23333168029785

> <r_mmod_Van_der_Waal_Energy-OPLS-2005>
124.986801147461

> <r_mmod_Electrostatic_Energy-OPLS-2005>
-261.592498779297

> <r_mmod_Solvation_Energy-OPLS-2005>
-486.719390869141

> <b_mmod_Minimization_Converged-OPLS-2005>
0

> <r_mmod_RMS_Derivative-OPLS-2005>
1.45149564743042

$$$$
27
                    3D
 Structure written by MMmdl.
154163  0  0  1  0            999 V2000
  -30.6562  -14.6979   20.4949 C   0  0  0  0  0  0
  -30.4267  -12.4357   19.4636 C   0  0  0  0  0  0
  -29.5031  -12.5162   18.2289 C   0  0  0  0  0  0
  -28.0267  -12.3513   18.6408 C   0  0  0  0  0  0
  -27.6458  -13.2297   19.8627 C   0  0  2  0  0  0
  -28.6950  -13.1152   20.9895 C   0  0  0  0  0  0
  -25.2511  -13.8188   20.5686 C   0  0  0  0  0  0
  -24.1802  -13.0438   20.9200 C   0  0  0  0  0  0
  -24.6396  -11.6916   20.8762 C   0  0  0  0  0  0
  -23.9072  -10.4292   21.0407 C   0  0  0  0  0  0
  -24.3619   -9.4210   21.9184 C   0  0  0  0  0  0
  -23.6295   -8.2245   22.0753 C   0  0  0  0  0  0
  -22.4277   -8.0284   21.3542 C   0  0  0  0  0  0
  -21.9917   -9.0259   20.4642 C   0  0  0  0  0  0
  -22.7249  -10.2136   20.3054 C   0  0  0  0  0  0
  -21.6848   -6.0743   22.5279 C   0  0  0  0  0  0
  -21.4010   -6.5643   23.8213 C   0  0  0  0  0  0
  -21.3659   -5.6797   24.9174 C   0  0  0  0  0  0
  -21.6046   -4.3060   24.7220 C   0  0  0  0  0  0
  -21.8818   -3.8153   23.4339 C   0  0  0  0  0  0
  -21.9190   -4.6972   22.3399 C   0  0  0  0  0  0
  -22.7823  -13.5220   21.1856 C   0  0  0  0  0  0
  -22.1662   -4.2158   21.0975 F   0  0  0  0  0  0
  -21.5630   -3.4541   25.7730 F   0  0  0  0  0  0
  -29.9919  -13.4906   20.4100 N   0  0  0  0  0  0
  -26.2959  -12.9399   20.3354 N   0  0  0  0  0  0
  -25.9331  -11.6539   20.5795 N   0  0  0  0  0  0
  -22.0473  -12.8208   22.0413 N   0  0  0  0  0  0
  -25.4168  -15.1903   20.4040 N   0  0  0  0  0  0
  -31.8336  -14.7564   20.1239 O   0  0  0  0  0  0
  -21.6636   -6.8886   21.4240 O   0  0  0  0  0  0
  -22.3509  -14.5529   20.6711 O   0  0  0  0  0  0
  -24.6288  -31.8582   23.2021 C   0  0  0  0  0  0
  -25.9130  -32.4767   23.8357 C   0  0  1  0  0  0
  -27.2190  -27.3020   20.1248 C   0  0  0  0  0  0
  -25.5952  -33.8568   24.2291 N   0  0  0  0  0  0
  -23.4243  -30.4814   21.5442 C   0  0  2  0  0  0
  -24.8736  -28.9361   20.1086 C   0  0  0  0  0  0
  -22.7491  -29.4614   22.4926 C   0  0  0  0  0  0
  -18.0286  -28.1383   22.8482 C   0  0  0  0  0  0
  -24.1488  -36.7271   23.2639 C   0  0  0  0  0  0
  -25.9677  -30.7832   21.3772 C   0  0  0  0  0  0
  -26.0437  -29.4097   20.7185 C   0  0  0  0  0  0
  -27.2247  -28.6048   20.7164 C   0  0  0  0  0  0
  -26.0342  -26.8901   19.4797 C   0  0  0  0  0  0
  -24.8716  -27.6830   19.4770 C   0  0  0  0  0  0
  -23.6418  -29.8175   20.1592 C   0  0  0  0  0  0
  -25.4116  -36.3075   24.0338 C   0  0  1  0  0  0
  -20.5889  -28.3684   23.1275 C   0  0  2  0  0  0
  -20.6775  -26.9405   22.5404 C   0  0  0  0  0  0
  -19.5756  -26.6382   21.5203 C   0  0  0  0  0  0
  -18.1933  -26.7933   22.1606 C   0  0  0  0  0  0
  -19.1539  -28.8850   23.2878 C   0  0  0  0  0  0
  -18.9460  -30.1451   23.8897 C   0  0  0  0  0  0
  -17.6460  -30.6586   24.0556 C   0  0  0  0  0  0
  -25.9055  -34.9444   23.5111 C   0  0  0  0  0  0
  -16.5352  -29.9077   23.6334 C   0  0  0  0  0  0
  -16.7273  -28.6495   23.0360 C   0  0  0  0  0  0
  -26.4515  -31.6573   25.0725 C   0  0  0  0  0  0
  -25.3749  -31.3697   26.1450 C   0  0  0  0  0  0
  -27.0355  -30.2997   24.6177 C   0  0  0  0  0  0
  -27.6090  -32.4292   25.7490 C   0  0  0  0  0  0
  -27.5579  -37.1794   24.8469 C   0  0  0  0  0  0
  -21.4200  -29.3036   22.3668 N   0  0  0  0  0  0
  -26.4292  -37.3772   23.9417 N   0  0  0  0  0  0
  -24.6922  -31.0581   22.0977 N   0  0  0  0  0  0
  -23.4207  -28.8152   23.3010 O   0  0  0  0  0  0
  -28.2849  -26.3876   20.1671 O   0  0  0  0  0  0
  -26.5602  -34.8917   22.4664 O   0  0  0  0  0  0
  -23.5447  -32.1385   23.7340 O   0  0  0  0  0  0
  -29.9019  -23.3286   20.8596 C   0  0  0  0  0  0
  -28.5815  -23.7083   20.5469 C   0  0  0  0  0  0
  -27.7891  -22.5917   20.1541 C   0  0  0  0  0  0
  -29.5044  -21.0655   20.4776 C   0  0  0  0  0  0
  -29.0215  -17.8128   21.8167 C   0  0  0  0  0  0
  -29.0036  -16.2653   21.6689 C   0  0  0  0  0  0
  -30.3590  -17.1935   19.9769 C   0  0  0  0  0  0
  -29.4246  -18.3769   20.4526 C   0  0  2  0  0  0
  -27.9842  -25.1341   20.9091 C   0  0  0  0  0  0
  -30.3473  -22.0371   20.8164 N   0  0  0  0  0  0
  -28.2463  -21.2987   20.1256 N   0  0  0  0  0  0
  -29.9401  -15.8890   20.6000 N   0  0  0  0  0  0
  -30.0388  -19.7481   20.5064 N   0  0  0  0  0  0
  -26.1291  -22.8183   19.7299 Cl  0  0  0  0  0  0
  -31.4682  -12.5450   19.1573 H   0  0  0  0  0  0
  -30.3627  -11.4519   19.9305 H   0  0  0  0  0  0
  -29.7765  -11.7515   17.5008 H   0  0  0  0  0  0
  -29.6390  -13.4767   17.7300 H   0  0  0  0  0  0
  -27.8675  -11.2992   18.8784 H   0  0  0  0  0  0
  -27.3708  -12.5733   17.7979 H   0  0  0  0  0  0
  -27.6529  -14.2615   19.5116 H   0  0  0  0  0  0
  -28.7315  -12.0948   21.3742 H   0  0  0  0  0  0
  -28.4302  -13.7315   21.8457 H   0  0  0  0  0  0
  -25.2757   -9.5689   22.4769 H   0  0  0  0  0  0
  -24.0002   -7.4634   22.7468 H   0  0  0  0  0  0
  -21.0854   -8.8774   19.8938 H   0  0  0  0  0  0
  -22.3704  -10.9676   19.6167 H   0  0  0  0  0  0
  -21.1997   -7.6154   23.9724 H   0  0  0  0  0  0
  -21.1485   -6.0521   25.9079 H   0  0  0  0  0  0
  -22.0595   -2.7617   23.2830 H   0  0  0  0  0  0
  -22.4082  -11.9848   22.4764 H   0  0  0  0  0  0
  -21.1104  -13.1245   22.2645 H   0  0  0  0  0  0
  -24.6413  -15.8383   20.4898 H   0  0  0  0  0  0
  -26.2648  -15.6295   20.0699 H   0  0  0  0  0  0
  -26.7197  -32.5439   23.1104 H   0  0  0  0  0  0
  -25.0157  -33.9714   25.0477 H   0  0  0  0  0  0
  -22.7196  -31.3031   21.4003 H   0  0  0  0  0  0
  -23.3767  -35.9583   23.3292 H   0  0  0  0  0  0
  -24.3582  -36.8891   22.2054 H   0  0  0  0  0  0
  -23.7219  -37.6465   23.6659 H   0  0  0  0  0  0
  -26.1028  -31.5460   20.6094 H   0  0  0  0  0  0
  -26.8473  -30.8317   22.0075 H   0  0  0  0  0  0
  -28.1210  -28.9583   21.2067 H   0  0  0  0  0  0
  -25.9984  -25.9239   18.9963 H   0  0  0  0  0  0
  -23.9777  -27.3174   18.9908 H   0  0  0  0  0  0
  -23.7642  -30.5951   19.4048 H   0  0  0  0  0  0
  -22.7618  -29.2487   19.8535 H   0  0  0  0  0  0
  -25.1296  -36.1922   25.0830 H   0  0  0  0  0  0
  -20.9981  -28.3250   24.1395 H   0  0  0  0  0  0
  -20.5665  -26.2289   23.3600 H   0  0  0  0  0  0
  -21.6644  -26.7430   22.1196 H   0  0  0  0  0  0
  -19.6911  -25.6291   21.1236 H   0  0  0  0  0  0
  -19.6706  -27.3189   20.6734 H   0  0  0  0  0  0
  -17.4207  -26.6687   21.4003 H   0  0  0  0  0  0
  -18.0323  -26.0070   22.8993 H   0  0  0  0  0  0
  -19.7938  -30.7258   24.2274 H   0  0  0  0  0  0
  -17.5019  -31.6273   24.5142 H   0  0  0  0  0  0
  -15.5351  -30.2975   23.7676 H   0  0  0  0  0  0
  -15.8669  -28.0812   22.7088 H   0  0  0  0  0  0
  -24.5950  -30.7018   25.7775 H   0  0  0  0  0  0
  -24.8906  -32.2848   26.4870 H   0  0  0  0  0  0
  -25.8081  -30.8886   27.0229 H   0  0  0  0  0  0
  -26.2918  -29.6736   24.1237 H   0  0  0  0  0  0
  -27.4094  -29.7268   25.4671 H   0  0  0  0  0  0
  -27.8777  -30.4285   23.9375 H   0  0  0  0  0  0
  -27.2746  -33.3629   26.2025 H   0  0  0  0  0  0
  -28.3929  -32.6779   25.0322 H   0  0  0  0  0  0
  -28.0725  -31.8425   26.5433 H   0  0  0  0  0  0
  -28.2594  -38.0090   24.7521 H   0  0  0  0  0  0
  -28.1075  -36.2626   24.6294 H   0  0  0  0  0  0
  -27.2299  -37.1433   25.8869 H   0  0  0  0  0  0
  -20.9380  -29.8754   21.6872 H   0  0  0  0  0  0
  -26.0170  -38.2846   24.1419 H   0  0  0  0  0  0
  -30.6059  -24.0612   21.2277 H   0  0  0  0  0  0
  -29.7705  -18.0861   22.5619 H   0  0  0  0  0  0
  -28.0658  -18.2075   22.1647 H   0  0  0  0  0  0
  -28.0018  -15.9400   21.3928 H   0  0  0  0  0  0
  -29.2641  -15.7854   22.6135 H   0  0  0  0  0  0
  -31.3889  -17.3926   20.2771 H   0  0  0  0  0  0
  -30.3589  -17.1106   18.8889 H   0  0  0  0  0  0
  -28.5415  -18.4132   19.8118 H   0  0  0  0  0  0
  -28.3308  -25.3316   21.9242 H   0  0  0  0  0  0
  -26.9091  -25.0161   21.0445 H   0  0  0  0  0  0
  -31.0226  -19.7426   20.7463 H   0  0  0  0  0  0
  1 25  1  0  0  0
  1 30  2  0  0  0
  1 82  1  0  0  0
  2  3  1  0  0  0
  2 25  1  0  0  0
  2 85  1  0  0  0
  2 86  1  0  0  0
  3  4  1  0  0  0
  3 87  1  0  0  0
  3 88  1  0  0  0
  4  5  1  0  0  0
  4 89  1  0  0  0
  4 90  1  0  0  0
  5  6  1  0  0  0
  5 26  1  0  0  0
  5 91  1  0  0  0
  6 25  1  0  0  0
  6 92  1  0  0  0
  6 93  1  0  0  0
  7  8  2  0  0  0
  7 26  1  0  0  0
  7 29  1  0  0  0
  8  9  1  0  0  0
  8 22  1  0  0  0
  9 10  1  0  0  0
  9 27  2  0  0  0
 10 11  2  0  0  0
 10 15  1  0  0  0
 11 12  1  0  0  0
 11 94  1  0  0  0
 12 13  2  0  0  0
 12 95  1  0  0  0
 13 14  1  0  0  0
 13 31  1  0  0  0
 14 15  2  0  0  0
 14 96  1  0  0  0
 15 97  1  0  0  0
 16 17  2  0  0  0
 16 21  1  0  0  0
 16 31  1  0  0  0
 17 18  1  0  0  0
 17 98  1  0  0  0
 18 19  2  0  0  0
 18 99  1  0  0  0
 19 20  1  0  0  0
 19 24  1  0  0  0
 20 21  2  0  0  0
 20100  1  0  0  0
 21 23  1  0  0  0
 22 28  1  0  0  0
 22 32  2  0  0  0
 26 27  1  0  0  0
 28101  1  0  0  0
 28102  1  0  0  0
 29103  1  0  0  0
 29104  1  0  0  0
 33 34  1  0  0  0
 33 66  1  0  0  0
 33 70  2  0  0  0
 34 36  1  0  0  0
 34 59  1  0  0  0
 34105  1  0  0  0
 35 44  2  0  0  0
 35 45  1  0  0  0
 35 68  1  0  0  0
 36 56  1  0  0  0
 36106  1  0  0  0
 37 39  1  0  0  0
 37 47  1  0  0  0
 37 66  1  0  0  0
 37107  1  0  0  0
 38 43  2  0  0  0
 38 46  1  0  0  0
 38 47  1  0  0  0
 39 64  1  0  0  0
 39 67  2  0  0  0
 40 52  1  0  0  0
 40 53  2  0  0  0
 40 58  1  0  0  0
 41108  1  0  0  0
 41109  1  0  0  0
 41110  1  0  0  0
 41 48  1  0  0  0
 42 43  1  0  0  0
 42 66  1  0  0  0
 42111  1  0  0  0
 42112  1  0  0  0
 43 44  1  0  0  0
 44113  1  0  0  0
 45 46  2  0  0  0
 45114  1  0  0  0
 46115  1  0  0  0
 47116  1  0  0  0
 47117  1  0  0  0
 48 56  1  0  0  0
 48 65  1  0  0  0
 48118  1  0  0  0
 49 50  1  0  0  0
 49 53  1  0  0  0
 49 64  1  0  0  0
 49119  1  0  0  0
 50 51  1  0  0  0
 50120  1  0  0  0
 50121  1  0  0  0
 51 52  1  0  0  0
 51122  1  0  0  0
 51123  1  0  0  0
 52124  1  0  0  0
 52125  1  0  0  0
 53 54  1  0  0  0
 54 55  2  0  0  0
 54126  1  0  0  0
 55 57  1  0  0  0
 55127  1  0  0  0
 56 69  2  0  0  0
 57 58  2  0  0  0
 57128  1  0  0  0
 58129  1  0  0  0
 59 60  1  0  0  0
 59 61  1  0  0  0
 59 62  1  0  0  0
 60130  1  0  0  0
 60131  1  0  0  0
 60132  1  0  0  0
 61133  1  0  0  0
 61134  1  0  0  0
 61135  1  0  0  0
 62136  1  0  0  0
 62137  1  0  0  0
 62138  1  0  0  0
 63 65  1  0  0  0
 63139  1  0  0  0
 63140  1  0  0  0
 63141  1  0  0  0
 64142  1  0  0  0
 65143  1  0  0  0
 68 79  1  0  0  0
 71 72  2  0  0  0
 71 80  1  0  0  0
 71144  1  0  0  0
 72 73  1  0  0  0
 72 79  1  0  0  0
 73 81  2  0  0  0
 73 84  1  0  0  0
 74 80  2  0  0  0
 74 81  1  0  0  0
 74 83  1  0  0  0
 75 76  1  0  0  0
 75 78  1  0  0  0
 75145  1  0  0  0
 75146  1  0  0  0
 76 82  1  0  0  0
 76147  1  0  0  0
 76148  1  0  0  0
 77 78  1  0  0  0
 77 82  1  0  0  0
 77149  1  0  0  0
 77150  1  0  0  0
 78 83  1  0  0  0
 78151  1  0  0  0
 79152  1  0  0  0
 79153  1  0  0  0
 83154  1  0  0  0
M  ISO  4   1 100  68 101  79 101  82 100
M  END
> <chiral flag>
0

> <version>
0

> <s_m_source_file>
/data/baiqing/PycharmProjects/Reinvent-master-3.2/result/LINK_invent/BTK/process_docking_weight1_custom_sum_contain_oxygen_bond_distance_aromatic_linkinvent_7_9_3/rearranged_h_0198.sdf

> <i_m_source_file_index>
28

> <r_mmod_Potential_Energy-OPLS-2005>
-251.301498413086

> <r_mmod_Stretch_Energy-OPLS-2005>
85.8937530517578

> <r_mmod_Bend_Energy-OPLS-2005>
191.867263793945

> <r_mmod_Torsional_Energy-OPLS-2005>
336.826171875

> <r_mmod_Improper_Torsional_Energy-OPLS-2005>
15.0221128463745

> <r_mmod_Van_der_Waal_Energy-OPLS-2005>
141.283966064453

> <r_mmod_Electrostatic_Energy-OPLS-2005>
-865.050354003906

> <r_mmod_Solvation_Energy-OPLS-2005>
-223.023803710938

> <b_mmod_Minimization_Converged-OPLS-2005>
0

> <r_mmod_RMS_Derivative-OPLS-2005>
1.07345950603485

$$$$
28
                    3D
 Structure written by MMmdl.
172183  0  0  1  0            999 V2000
  -29.5363  -17.6346   20.3560 C   0  0  0  0  0  0
  -30.1216  -14.6089   19.5607 C   0  0  0  0  0  0
  -29.5720  -13.4314   18.5539 C   0  0  0  0  0  0
  -28.3700  -12.6399   19.0630 C   0  0  0  0  0  0
  -27.5742  -13.6519   19.8840 C   0  0  2  0  0  0
  -28.3905  -14.6930   20.8535 C   0  0  0  0  0  0
  -25.1906  -13.8947   20.6122 C   0  0  0  0  0  0
  -24.1655  -13.0608   20.9389 C   0  0  0  0  0  0
  -24.6853  -11.7297   20.8718 C   0  0  0  0  0  0
  -23.9587  -10.4447   21.0245 C   0  0  0  0  0  0
  -24.3957   -9.4331   21.9101 C   0  0  0  0  0  0
  -23.6512   -8.2413   22.0740 C   0  0  0  0  0  0
  -22.4481   -8.0445   21.3542 C   0  0  0  0  0  0
  -22.0218   -9.0443   20.4618 C   0  0  0  0  0  0
  -22.7674  -10.2263   20.2963 C   0  0  0  0  0  0
  -21.6942   -6.0855   22.5271 C   0  0  0  0  0  0
  -21.4081   -6.5714   23.8216 C   0  0  0  0  0  0
  -21.3667   -5.6834   24.9153 C   0  0  0  0  0  0
  -21.6035   -4.3097   24.7180 C   0  0  0  0  0  0
  -21.8813   -3.8220   23.4290 C   0  0  0  0  0  0
  -21.9224   -4.7066   22.3368 C   0  0  0  0  0  0
  -22.7545  -13.4982   21.1930 C   0  0  0  0  0  0
  -22.1679   -4.2248   21.0943 F   0  0  0  0  0  0
  -21.5605   -3.4562   25.7680 F   0  0  0  0  0  0
  -29.2159  -15.9112   20.1691 N   0  0  0  0  0  0
  -26.2972  -13.1102   20.3967 N   0  0  0  0  0  0
  -25.9988  -11.7759   20.5753 N   0  0  0  0  0  0
  -22.0343  -12.7854   22.0491 N   0  0  0  0  0  0
  -25.2734  -15.2728   20.4454 N   0  0  0  0  0  0
  -30.7760  -17.2212   20.3366 O   0  0  0  0  0  0
  -21.6771   -6.9062   21.4261 O   0  0  0  0  0  0
  -22.3054  -14.5217   20.6773 O   0  0  0  0  0  0
  -24.8046  -31.5588   23.2535 C   0  0  0  0  0  0
  -25.9928  -32.3717   23.8499 C   0  0  1  0  0  0
  -26.8982  -25.1749   20.1262 C   0  0  0  0  0  0
  -25.5889  -33.7733   24.1662 N   0  0  0  0  0  0
  -23.5208  -29.8640   21.7132 C   0  0  2  0  0  0
  -26.3235  -28.2938   19.1376 C   0  0  0  0  0  0
  -22.6470  -29.3175   22.8368 C   0  0  0  0  0  0
  -17.9481  -28.1676   22.8649 C   0  0  0  0  0  0
  -24.1480  -36.6826   23.2630 C   0  0  0  0  0  0
  -26.6637  -29.7969   21.9513 C   0  0  0  0  0  0
  -27.2614  -28.4762   20.6767 C   0  0  0  0  0  0
  -27.7776  -26.8307   21.3738 C   0  0  0  0  0  0
  -26.2259  -25.6677   18.7437 C   0  0  0  0  0  0
  -26.0483  -27.0876   18.3495 C   0  0  0  0  0  0
  -24.4752  -28.3928   18.9500 C   0  0  0  0  0  0
  -25.4164  -36.2534   24.0199 C   0  0  1  0  0  0
  -20.4696  -28.3164   23.2686 C   0  0  2  0  0  0
  -20.5425  -26.8770   22.7131 C   0  0  0  0  0  0
  -19.4751  -26.5450   21.6715 C   0  0  0  0  0  0
  -18.0693  -26.8043   22.2063 C   0  0  0  0  0  0
  -19.0745  -28.8820   23.3340 C   0  0  0  0  0  0
  -18.9139  -30.1491   23.9293 C   0  0  0  0  0  0
  -17.6317  -30.6940   24.0909 C   0  0  0  0  0  0
  -25.9168  -34.8855   23.4867 C   0  0  0  0  0  0
  -16.5078  -29.9758   23.6519 C   0  0  0  0  0  0
  -16.6656  -28.7218   23.0334 C   0  0  0  0  0  0
  -26.4999  -31.6848   25.1743 C   0  0  0  0  0  0
  -25.3762  -31.4430   26.2105 C   0  0  0  0  0  0
  -27.1458  -30.3170   24.9385 C   0  0  0  0  0  0
  -27.6183  -32.5343   25.8132 C   0  0  0  0  0  0
  -27.5512  -37.1552   24.8465 C   0  0  0  0  0  0
  -21.3460  -29.2355   22.5759 N   0  0  0  0  0  0
  -26.4253  -37.3369   23.9344 N   0  0  0  0  0  0
  -25.0120  -30.3949   22.5016 N   0  0  0  0  0  0
  -23.2126  -28.7938   23.7896 O   0  0  0  0  0  0
  -25.7174  -24.4351   19.9537 O   0  0  0  0  0  0
  -26.6030  -34.8529   22.4644 O   0  0  0  0  0  0
  -23.6736  -31.9942   23.5540 O   0  0  0  0  0  0
  -23.5518  -27.5112   21.0646 C   0  0  0  0  0  0
  -23.7005  -30.5225   19.4757 C   0  0  0  0  0  0
  -22.4279  -28.0604   20.2079 C   0  0  0  0  0  0
  -22.4171  -29.4823   19.5212 C   0  0  0  0  0  0
  -24.9073  -28.1873   21.1205 C   0  0  0  0  0  0
  -21.2734  -29.3569   18.4983 C   0  0  0  0  0  0
  -20.7230  -27.8429   18.4806 C   0  0  0  0  0  0
  -28.9505  -24.1429   19.6094 C   0  0  0  0  0  0
  -27.0542  -23.3145   21.7970 C   0  0  0  0  0  0
  -28.2830  -26.5357   19.2905 C   0  0  0  0  0  0
  -25.8629  -25.2577   22.1512 C   0  0  0  0  0  0
  -23.1823  -24.8420   18.4709 C   0  0  0  0  0  0
  -22.7502  -24.5983   20.4118 C   0  0  0  0  0  0
  -21.7153  -26.9775   19.3450 C   0  0  1  0  0  0
  -28.4078  -22.0700   20.5719 C   0  0  0  0  0  0
  -24.1326  -24.8410   19.7134 C   0  0  2  0  0  0
  -25.0779  -30.0280   20.1924 N   0  0  0  0  0  0
  -25.6734  -26.7929   20.8844 N   0  0  0  0  0  0
  -28.8730  -19.5910   20.4291 N   0  0  0  0  0  0
  -22.0264  -25.4020   19.3146 N   0  3  1  0  0  0
  -30.8941  -15.1023   18.9701 H   0  0  0  0  0  0
  -30.7106  -14.1566   20.3624 H   0  0  0  0  0  0
  -30.3818  -12.7465   18.2993 H   0  0  0  0  0  0
  -29.2850  -13.9146   17.6196 H   0  0  0  0  0  0
  -28.6999  -11.8237   19.7064 H   0  0  0  0  0  0
  -27.7866  -12.2055   18.2509 H   0  0  0  0  0  0
  -27.2366  -14.3241   19.0927 H   0  0  0  0  0  0
  -28.9713  -14.1467   21.6025 H   0  0  0  0  0  0
  -27.6591  -15.2060   21.4788 H   0  0  0  0  0  0
  -25.3074   -9.5780   22.4726 H   0  0  0  0  0  0
  -24.0170   -7.4836   22.7515 H   0  0  0  0  0  0
  -21.1142   -8.9030   19.8930 H   0  0  0  0  0  0
  -22.4143  -10.9798   19.6061 H   0  0  0  0  0  0
  -21.2108   -7.6226   23.9745 H   0  0  0  0  0  0
  -21.1475   -6.0554   25.9056 H   0  0  0  0  0  0
  -22.0576   -2.7685   23.2751 H   0  0  0  0  0  0
  -22.4160  -11.9607   22.4878 H   0  0  0  0  0  0
  -21.0886  -13.0663   22.2667 H   0  0  0  0  0  0
  -24.4642  -15.8780   20.5308 H   0  0  0  0  0  0
  -26.1069  -15.7611   20.1436 H   0  0  0  0  0  0
  -26.8030  -32.3988   23.1203 H   0  0  0  0  0  0
  -24.9643  -33.8796   24.9512 H   0  0  0  0  0  0
  -22.9427  -30.7895   21.5938 H   0  0  0  0  0  0
  -23.3810  -35.9082   23.3218 H   0  0  0  0  0  0
  -24.3501  -36.8584   22.2052 H   0  0  0  0  0  0
  -23.7161  -37.5934   23.6803 H   0  0  0  0  0  0
  -27.2941  -30.6664   21.7893 H   0  0  0  0  0  0
  -27.0875  -29.2518   22.7761 H   0  0  0  0  0  0
  -28.0947  -26.7093   22.3982 H   0  0  0  0  0  0
  -25.9574  -24.9556   17.9653 H   0  0  0  0  0  0
  -25.6437  -27.1983   17.3483 H   0  0  0  0  0  0
  -24.3550  -28.9169   17.9882 H   0  0  0  0  0  0
  -24.0058  -27.5127   18.5862 H   0  0  0  0  0  0
  -25.1392  -36.1281   25.0685 H   0  0  0  0  0  0
  -20.7935  -28.2603   24.3130 H   0  0  0  0  0  0
  -20.3815  -26.1921   23.5458 H   0  0  0  0  0  0
  -21.5312  -26.6259   22.3740 H   0  0  0  0  0  0
  -19.5629  -25.5079   21.3449 H   0  0  0  0  0  0
  -19.6069  -27.1956   20.8247 H   0  0  0  0  0  0
  -17.3620  -26.7479   21.3759 H   0  0  0  0  0  0
  -17.7531  -26.0476   22.9311 H   0  0  0  0  0  0
  -19.7793  -30.6903   24.2888 H   0  0  0  0  0  0
  -17.5234  -31.6603   24.5648 H   0  0  0  0  0  0
  -15.5226  -30.3986   23.7935 H   0  0  0  0  0  0
  -15.7904  -28.1907   22.6905 H   0  0  0  0  0  0
  -24.6379  -30.7183   25.8651 H   0  0  0  0  0  0
  -24.8405  -32.3603   26.4544 H   0  0  0  0  0  0
  -25.7747  -31.0501   27.1469 H   0  0  0  0  0  0
  -26.4126  -29.5629   24.6585 H   0  0  0  0  0  0
  -27.5696  -29.9325   25.8684 H   0  0  0  0  0  0
  -27.9876  -30.3856   24.2500 H   0  0  0  0  0  0
  -27.2608  -33.5013   26.1686 H   0  0  0  0  0  0
  -28.4244  -32.7269   25.1041 H   0  0  0  0  0  0
  -28.0669  -32.0385   26.6756 H   0  0  0  0  0  0
  -28.2506  -37.9866   24.7527 H   0  0  0  0  0  0
  -28.1055  -36.2393   24.6374 H   0  0  0  0  0  0
  -27.2190  -37.1229   25.8852 H   0  0  0  0  0  0
  -21.0149  -29.6472   21.7148 H   0  0  0  0  0  0
  -26.0044  -38.2416   24.1288 H   0  0  0  0  0  0
  -23.5032  -26.5958   21.6024 H   0  0  0  0  0  0
  -23.7159  -31.4088   18.8581 H   0  0  0  0  0  0
  -21.6683  -29.6057   17.5138 H   0  0  0  0  0  0
  -20.4781  -30.0731   18.6975 H   0  0  0  0  0  0
  -20.6104  -27.4935   17.4476 H   0  0  0  0  0  0
  -19.7081  -27.8455   18.8726 H   0  0  0  0  0  0
  -29.9942  -24.2441   19.9111 H   0  0  0  0  0  0
  -29.0484  -23.8390   18.5669 H   0  0  0  0  0  0
  -26.3203  -22.5739   22.1131 H   0  0  0  0  0  0
  -27.6887  -23.3746   22.6811 H   0  0  0  0  0  0
  -28.3137  -26.7512   18.2180 H   0  0  0  0  0  0
  -29.1234  -27.1773   19.5935 H   0  0  0  0  0  0
  -26.1856  -25.6629   23.1120 H   0  0  0  0  0  0
  -24.8507  -24.9145   22.3706 H   0  0  0  0  0  0
  -22.9976  -23.8227   18.1355 H   0  0  0  0  0  0
  -23.4630  -25.4528   17.6147 H   0  0  0  0  0  0
  -22.5983  -24.9009   21.4419 H   0  0  0  0  0  0
  -22.5089  -23.5329   20.3698 H   0  0  0  0  0  0
  -22.2411  -27.0101   18.4190 H   0  0  0  0  0  0
  -29.2576  -22.0852   21.2551 H   0  0  0  0  0  0
  -24.1454  -25.8654   19.6306 H   0  0  0  0  0  0
  -29.8561  -19.7960   20.5601 H   0  0  0  0  0  0
  -21.1667  -24.9411   19.0511 H   0  0  0  0  0  0
  1 25  1  0  0  0
  1 30  2  0  0  0
  1 89  1  0  0  0
  2  3  1  0  0  0
  2 25  1  0  0  0
  2 91  1  0  0  0
  2 92  1  0  0  0
  3  4  1  0  0  0
  3 93  1  0  0  0
  3 94  1  0  0  0
  4  5  1  0  0  0
  4 95  1  0  0  0
  4 96  1  0  0  0
  5  6  1  0  0  0
  5 26  1  0  0  0
  5 97  1  0  0  0
  6 25  1  0  0  0
  6 98  1  0  0  0
  6 99  1  0  0  0
  7  8  2  0  0  0
  7 26  1  0  0  0
  7 29  1  0  0  0
  8  9  1  0  0  0
  8 22  1  0  0  0
  9 10  1  0  0  0
  9 27  2  0  0  0
 10 11  2  0  0  0
 10 15  1  0  0  0
 11 12  1  0  0  0
 11100  1  0  0  0
 12 13  2  0  0  0
 12101  1  0  0  0
 13 14  1  0  0  0
 13 31  1  0  0  0
 14 15  2  0  0  0
 14102  1  0  0  0
 15103  1  0  0  0
 16 17  2  0  0  0
 16 21  1  0  0  0
 16 31  1  0  0  0
 17 18  1  0  0  0
 17104  1  0  0  0
 18 19  2  0  0  0
 18105  1  0  0  0
 19 20  1  0  0  0
 19 24  1  0  0  0
 20 21  2  0  0  0
 20106  1  0  0  0
 21 23  1  0  0  0
 22 28  1  0  0  0
 22 32  2  0  0  0
 26 27  1  0  0  0
 28107  1  0  0  0
 28108  1  0  0  0
 29109  1  0  0  0
 29110  1  0  0  0
 33 34  1  0  0  0
 33 66  1  0  0  0
 33 70  2  0  0  0
 34 36  1  0  0  0
 34 59  1  0  0  0
 34111  1  0  0  0
 35 44  2  0  0  0
 35 45  1  0  0  0
 35 68  1  0  0  0
 36 56  1  0  0  0
 36112  1  0  0  0
 37 39  1  0  0  0
 37 47  1  0  0  0
 37 66  1  0  0  0
 37113  1  0  0  0
 38 43  2  0  0  0
 38 46  1  0  0  0
 38 47  1  0  0  0
 39 64  1  0  0  0
 39 67  2  0  0  0
 40 52  1  0  0  0
 40 53  2  0  0  0
 40 58  1  0  0  0
 41114  1  0  0  0
 41115  1  0  0  0
 41116  1  0  0  0
 41 48  1  0  0  0
 42 43  1  0  0  0
 42 66  1  0  0  0
 42117  1  0  0  0
 42118  1  0  0  0
 43 44  1  0  0  0
 44119  1  0  0  0
 45 46  2  0  0  0
 45120  1  0  0  0
 46121  1  0  0  0
 47122  1  0  0  0
 47123  1  0  0  0
 48 56  1  0  0  0
 48 65  1  0  0  0
 48124  1  0  0  0
 49 50  1  0  0  0
 49 53  1  0  0  0
 49 64  1  0  0  0
 49125  1  0  0  0
 50 51  1  0  0  0
 50126  1  0  0  0
 50127  1  0  0  0
 51 52  1  0  0  0
 51128  1  0  0  0
 51129  1  0  0  0
 52130  1  0  0  0
 52131  1  0  0  0
 53 54  1  0  0  0
 54 55  2  0  0  0
 54132  1  0  0  0
 55 57  1  0  0  0
 55133  1  0  0  0
 56 69  2  0  0  0
 57 58  2  0  0  0
 57134  1  0  0  0
 58135  1  0  0  0
 59 60  1  0  0  0
 59 61  1  0  0  0
 59 62  1  0  0  0
 60136  1  0  0  0
 60137  1  0  0  0
 60138  1  0  0  0
 61139  1  0  0  0
 61140  1  0  0  0
 61141  1  0  0  0
 62142  1  0  0  0
 62143  1  0  0  0
 62144  1  0  0  0
 63 65  1  0  0  0
 63145  1  0  0  0
 63146  1  0  0  0
 63147  1  0  0  0
 64148  1  0  0  0
 65149  1  0  0  0
 68 86  1  0  0  0
 71 73  2  0  0  0
 71 75  1  0  0  0
 71150  1  0  0  0
 72 74  2  0  0  0
 72 87  1  0  0  0
 72151  1  0  0  0
 73 74  1  0  0  0
 73 84  1  0  0  0
 74 76  1  0  0  0
 75 87  2  0  0  0
 75 88  1  0  0  0
 76 77  1  0  0  0
 76152  1  0  0  0
 76153  1  0  0  0
 77154  1  0  0  0
 77155  1  0  0  0
 77 84  1  0  0  0
 78 80  1  0  0  0
 78 85  1  0  0  0
 78156  1  0  0  0
 78157  1  0  0  0
 79 81  1  0  0  0
 79 85  1  0  0  0
 79158  1  0  0  0
 79159  1  0  0  0
 80 88  1  0  0  0
 80160  1  0  0  0
 80161  1  0  0  0
 81 88  1  0  0  0
 81162  1  0  0  0
 81163  1  0  0  0
 82 86  1  0  0  0
 82164  1  0  0  0
 82165  1  0  0  0
 82 90  1  0  0  0
 83 86  1  0  0  0
 83 90  1  0  0  0
 83166  1  0  0  0
 83167  1  0  0  0
 84 90  1  0  0  0
 84168  1  0  0  0
 85 89  1  0  0  0
 85169  1  0  0  0
 86170  1  0  0  0
 89171  1  0  0  0
 90172  1  0  0  0
M  CHG  1  90   1
M  ISO  4   1 100  68 101  86 101  89 100
M  END
> <chiral flag>
0

> <version>
0

> <s_m_source_file>
/data/baiqing/PycharmProjects/Reinvent-master-3.2/result/LINK_invent/BTK/process_docking_weight1_custom_sum_contain_oxygen_bond_distance_aromatic_linkinvent_7_9_3/rearranged_h_0198.sdf

> <i_m_source_file_index>
29

> <r_mmod_Potential_Energy-OPLS-2005>
35828.609375

> <r_mmod_Stretch_Energy-OPLS-2005>
19209.013671875

> <r_mmod_Bend_Energy-OPLS-2005>
2572.03955078125

> <r_mmod_Torsional_Energy-OPLS-2005>
727.585144042969

> <r_mmod_Improper_Torsional_Energy-OPLS-2005>
114.213768005371

> <r_mmod_Van_der_Waal_Energy-OPLS-2005>
6055.37353515625

> <r_mmod_Electrostatic_Energy-OPLS-2005>
-469.213623046875

> <r_mmod_Solvation_Energy-OPLS-2005>
-518.188293457031

> <b_mmod_Minimization_Converged-OPLS-2005>
0

> <r_mmod_RMS_Derivative-OPLS-2005>
12.4974365234375

$$$$
29
                    3D
 Structure written by MMmdl.
169179  0  0  1  0            999 V2000
  -30.7279  -14.4393   20.5504 C   0  0  0  0  0  0
  -30.4109  -12.2788   19.4288 C   0  0  0  0  0  0
  -29.4918  -12.4794   18.2072 C   0  0  0  0  0  0
  -28.0116  -12.3534   18.6187 C   0  0  0  0  0  0
  -27.6568  -13.2079   19.8657 C   0  0  2  0  0  0
  -28.6958  -13.0104   20.9928 C   0  0  0  0  0  0
  -25.2554  -13.8175   20.5652 C   0  0  0  0  0  0
  -24.1814  -13.0454   20.9152 C   0  0  0  0  0  0
  -24.6369  -11.6914   20.8707 C   0  0  0  0  0  0
  -23.9055  -10.4286   21.0376 C   0  0  0  0  0  0
  -24.3615   -9.4208   21.9159 C   0  0  0  0  0  0
  -23.6285   -8.2249   22.0747 C   0  0  0  0  0  0
  -22.4258   -8.0287   21.3554 C   0  0  0  0  0  0
  -21.9894   -9.0254   20.4650 C   0  0  0  0  0  0
  -22.7224  -10.2130   20.3035 C   0  0  0  0  0  0
  -21.6859   -6.0726   22.5269 C   0  0  0  0  0  0
  -21.4030   -6.5630   23.8204 C   0  0  0  0  0  0
  -21.3658   -5.6782   24.9162 C   0  0  0  0  0  0
  -21.6035   -4.3043   24.7217 C   0  0  0  0  0  0
  -21.8826   -3.8141   23.4338 C   0  0  0  0  0  0
  -21.9192   -4.6953   22.3393 C   0  0  0  0  0  0
  -22.7832  -13.5238   21.1819 C   0  0  0  0  0  0
  -22.1655   -4.2140   21.0972 F   0  0  0  0  0  0
  -21.5622   -3.4527   25.7735 F   0  0  0  0  0  0
  -30.0289  -13.2818   20.4325 N   0  0  0  0  0  0
  -26.2988  -12.9352   20.3316 N   0  0  0  0  0  0
  -25.9289  -11.6519   20.5737 N   0  0  0  0  0  0
  -22.0484  -12.8245   22.0386 N   0  0  0  0  0  0
  -25.4287  -15.1910   20.4083 N   0  0  0  0  0  0
  -31.8616  -14.5864   20.0843 O   0  0  0  0  0  0
  -21.6639   -6.8872   21.4234 O   0  0  0  0  0  0
  -22.3512  -14.5539   20.6650 O   0  0  0  0  0  0
  -24.6128  -31.8694   23.2076 C   0  0  0  0  0  0
  -25.9022  -32.4822   23.8399 C   0  0  1  0  0  0
  -27.2386  -27.4361   20.0913 C   0  0  0  0  0  0
  -25.5882  -33.8617   24.2351 N   0  0  0  0  0  0
  -23.4010  -30.4891   21.5486 C   0  0  2  0  0  0
  -24.8447  -28.9447   20.1224 C   0  0  0  0  0  0
  -22.7404  -29.4656   22.4995 C   0  0  0  0  0  0
  -18.0260  -28.1361   22.8485 C   0  0  0  0  0  0
  -24.1474  -36.7317   23.2656 C   0  0  0  0  0  0
  -25.9284  -30.8308   21.3616 C   0  0  0  0  0  0
  -26.0028  -29.4616   20.7142 C   0  0  0  0  0  0
  -27.2000  -28.7154   20.6910 C   0  0  0  0  0  0
  -26.0607  -26.9244   19.5018 C   0  0  0  0  0  0
  -24.8660  -27.6714   19.5211 C   0  0  0  0  0  0
  -23.6097  -29.8153   20.1647 C   0  0  0  0  0  0
  -25.4101  -36.3122   24.0353 C   0  0  1  0  0  0
  -20.5857  -28.3653   23.1335 C   0  0  2  0  0  0
  -20.6752  -26.9396   22.5423 C   0  0  0  0  0  0
  -19.5737  -26.6368   21.5215 C   0  0  0  0  0  0
  -18.1907  -26.7905   22.1616 C   0  0  0  0  0  0
  -19.1508  -28.8823   23.2898 C   0  0  0  0  0  0
  -18.9440  -30.1423   23.8909 C   0  0  0  0  0  0
  -17.6455  -30.6574   24.0563 C   0  0  0  0  0  0
  -25.9026  -34.9473   23.5154 C   0  0  0  0  0  0
  -16.5344  -29.9074   23.6325 C   0  0  0  0  0  0
  -16.7255  -28.6492   23.0334 C   0  0  0  0  0  0
  -26.4430  -31.6590   25.0726 C   0  0  0  0  0  0
  -25.3727  -31.3696   26.1486 C   0  0  0  0  0  0
  -27.0267  -30.3054   24.6065 C   0  0  0  0  0  0
  -27.5997  -32.4291   25.7510 C   0  0  0  0  0  0
  -27.5601  -37.1812   24.8478 C   0  0  0  0  0  0
  -21.4132  -29.3023   22.3752 N   0  0  0  0  0  0
  -26.4304  -37.3801   23.9427 N   0  0  0  0  0  0
  -24.6652  -31.0795   22.0962 N   0  0  0  0  0  0
  -23.4184  -28.8189   23.3028 O   0  0  0  0  0  0
  -28.4519  -26.7852   20.0353 O   0  0  0  0  0  0
  -26.5613  -34.8922   22.4729 O   0  0  0  0  0  0
  -23.5332  -32.1437   23.7480 O   0  0  0  0  0  0
  -29.7176  -20.9636   21.8290 C   0  0  0  0  0  0
  -29.5248  -22.2175   21.1877 C   0  0  0  0  0  0
  -29.9449  -20.0881   20.8091 C   0  0  0  0  0  0
  -29.9643  -17.8827   21.9470 C   0  0  0  0  0  0
  -30.4003  -17.7305   19.9062 C   0  0  0  0  0  0
  -31.0001  -24.2644   21.7344 C   0  0  0  0  0  0
  -29.6547  -23.5646   21.8578 C   0  0  1  0  0  0
  -30.6899  -16.8177   21.1175 C   0  0  0  0  0  0
  -29.0240  -24.9397   21.5313 C   0  0  1  0  0  0
  -29.6168  -21.4059   17.1715 C   0  0  0  0  0  0
  -30.9080  -26.7003   21.3620 C   0  0  0  0  0  0
  -28.5599  -25.3540   20.1209 C   0  0  0  0  0  0
  -29.8299  -20.3095   18.2328 C   0  0  0  0  0  0
  -29.4879  -22.0922   19.8689 N   0  0  0  0  0  0
  -29.7420  -20.7778   19.6156 N   0  0  0  0  0  0
  -30.4863  -18.7742   20.9194 N   0  0  0  0  0  0
  -30.0738  -15.4871   21.0706 N   0  0  0  0  0  0
  -30.3068  -25.5145   22.0099 N   0  3  2  0  0  0
  -31.4584  -12.3534   19.1323 H   0  0  0  0  0  0
  -30.2950  -11.2755   19.8427 H   0  0  0  0  0  0
  -29.7284  -11.7450   17.4358 H   0  0  0  0  0  0
  -29.6699  -13.4592   17.7621 H   0  0  0  0  0  0
  -27.8140  -11.3021   18.8265 H   0  0  0  0  0  0
  -27.3655  -12.6194   17.7822 H   0  0  0  0  0  0
  -27.6973  -14.2500   19.5504 H   0  0  0  0  0  0
  -28.6581  -11.9880   21.3740 H   0  0  0  0  0  0
  -28.4660  -13.6475   21.8487 H   0  0  0  0  0  0
  -25.2769   -9.5689   22.4719 H   0  0  0  0  0  0
  -23.9992   -7.4648   22.7483 H   0  0  0  0  0  0
  -21.0812   -8.8785   19.8958 H   0  0  0  0  0  0
  -22.3691  -10.9666   19.6133 H   0  0  0  0  0  0
  -21.2045   -7.6143   23.9711 H   0  0  0  0  0  0
  -21.1461   -6.0504   25.9066 H   0  0  0  0  0  0
  -22.0608   -2.7601   23.2838 H   0  0  0  0  0  0
  -22.4112  -11.9922   22.4804 H   0  0  0  0  0  0
  -21.1100  -13.1281   22.2590 H   0  0  0  0  0  0
  -24.6647  -15.8499   20.5189 H   0  0  0  0  0  0
  -26.2819  -15.6291   20.0853 H   0  0  0  0  0  0
  -26.7112  -32.5519   23.1185 H   0  0  0  0  0  0
  -24.9985  -33.9753   25.0468 H   0  0  0  0  0  0
  -22.6891  -31.3046   21.4065 H   0  0  0  0  0  0
  -23.3718  -35.9655   23.3323 H   0  0  0  0  0  0
  -24.3600  -36.8933   22.2070 H   0  0  0  0  0  0
  -23.7208  -37.6534   23.6646 H   0  0  0  0  0  0
  -26.0492  -31.5945   20.5922 H   0  0  0  0  0  0
  -26.8152  -30.8839   21.9800 H   0  0  0  0  0  0
  -28.1007  -29.1271   21.1252 H   0  0  0  0  0  0
  -26.0575  -25.9699   18.9979 H   0  0  0  0  0  0
  -23.9744  -27.2640   19.0642 H   0  0  0  0  0  0
  -23.7238  -30.5868   19.4021 H   0  0  0  0  0  0
  -22.7316  -29.2374   19.8698 H   0  0  0  0  0  0
  -25.1281  -36.2000   25.0848 H   0  0  0  0  0  0
  -20.9940  -28.3192   24.1465 H   0  0  0  0  0  0
  -20.5647  -26.2266   23.3609 H   0  0  0  0  0  0
  -21.6627  -26.7426   22.1238 H   0  0  0  0  0  0
  -19.6904  -25.6270   21.1252 H   0  0  0  0  0  0
  -19.6668  -27.3168   20.6735 H   0  0  0  0  0  0
  -17.4190  -26.6653   21.3999 H   0  0  0  0  0  0
  -18.0283  -26.0029   22.8994 H   0  0  0  0  0  0
  -19.7918  -30.7216   24.2296 H   0  0  0  0  0  0
  -17.5018  -31.6263   24.5144 H   0  0  0  0  0  0
  -15.5348  -30.2994   23.7649 H   0  0  0  0  0  0
  -15.8639  -28.0845   22.7025 H   0  0  0  0  0  0
  -24.5855  -30.7083   25.7864 H   0  0  0  0  0  0
  -24.8949  -32.2847   26.4982 H   0  0  0  0  0  0
  -25.8088  -30.8820   27.0213 H   0  0  0  0  0  0
  -26.2774  -29.6794   24.1184 H   0  0  0  0  0  0
  -27.4135  -29.7303   25.4494 H   0  0  0  0  0  0
  -27.8566  -30.4428   23.9125 H   0  0  0  0  0  0
  -27.2619  -33.3604   26.2079 H   0  0  0  0  0  0
  -28.3810  -32.6843   25.0335 H   0  0  0  0  0  0
  -28.0608  -31.8385   26.5454 H   0  0  0  0  0  0
  -28.2625  -38.0112   24.7532 H   0  0  0  0  0  0
  -28.1079  -36.2627   24.6281 H   0  0  0  0  0  0
  -27.2306  -37.1471   25.8883 H   0  0  0  0  0  0
  -20.9289  -29.8820   21.7041 H   0  0  0  0  0  0
  -26.0201  -38.2889   24.1381 H   0  0  0  0  0  0
  -29.8502  -20.7695   22.8838 H   0  0  0  0  0  0
  -30.3831  -18.0523   22.9400 H   0  0  0  0  0  0
  -28.8745  -17.8171   21.9450 H   0  0  0  0  0  0
  -29.4068  -17.6136   19.4695 H   0  0  0  0  0  0
  -31.1948  -17.7514   19.1588 H   0  0  0  0  0  0
  -31.4203  -24.2030   20.7276 H   0  0  0  0  0  0
  -31.7321  -23.9865   22.4950 H   0  0  0  0  0  0
  -29.4606  -23.3833   22.9175 H   0  0  0  0  0  0
  -31.7545  -16.7863   21.3736 H   0  0  0  0  0  0
  -28.2508  -25.1696   22.2638 H   0  0  0  0  0  0
  -29.5886  -20.9769   16.1712 H   0  0  0  0  0  0
  -30.4243  -22.1379   17.1970 H   0  0  0  0  0  0
  -28.6774  -21.9367   17.3243 H   0  0  0  0  0  0
  -31.8889  -26.8900   21.7964 H   0  0  0  0  0  0
  -30.2993  -27.5893   21.5252 H   0  0  0  0  0  0
  -31.0453  -26.5594   20.2905 H   0  0  0  0  0  0
  -27.6288  -24.8437   19.8840 H   0  0  0  0  0  0
  -29.2751  -25.0203   19.3700 H   0  0  0  0  0  0
  -30.8057  -19.8458   18.0848 H   0  0  0  0  0  0
  -29.0834  -19.5271   18.0932 H   0  0  0  0  0  0
  -29.1303  -15.3599   21.4080 H   0  0  0  0  0  0
  -30.2562  -25.6628   23.0073 H   0  0  0  0  0  0
  1 25  1  0  0  0
  1 30  2  0  0  0
  1 87  1  0  0  0
  2  3  1  0  0  0
  2 25  1  0  0  0
  2 89  1  0  0  0
  2 90  1  0  0  0
  3  4  1  0  0  0
  3 91  1  0  0  0
  3 92  1  0  0  0
  4  5  1  0  0  0
  4 93  1  0  0  0
  4 94  1  0  0  0
  5  6  1  0  0  0
  5 26  1  0  0  0
  5 95  1  0  0  0
  6 25  1  0  0  0
  6 96  1  0  0  0
  6 97  1  0  0  0
  7  8  2  0  0  0
  7 26  1  0  0  0
  7 29  1  0  0  0
  8  9  1  0  0  0
  8 22  1  0  0  0
  9 10  1  0  0  0
  9 27  2  0  0  0
 10 11  2  0  0  0
 10 15  1  0  0  0
 11 12  1  0  0  0
 11 98  1  0  0  0
 12 13  2  0  0  0
 12 99  1  0  0  0
 13 14  1  0  0  0
 13 31  1  0  0  0
 14 15  2  0  0  0
 14100  1  0  0  0
 15101  1  0  0  0
 16 17  2  0  0  0
 16 21  1  0  0  0
 16 31  1  0  0  0
 17 18  1  0  0  0
 17102  1  0  0  0
 18 19  2  0  0  0
 18103  1  0  0  0
 19 20  1  0  0  0
 19 24  1  0  0  0
 20 21  2  0  0  0
 20104  1  0  0  0
 21 23  1  0  0  0
 22 28  1  0  0  0
 22 32  2  0  0  0
 26 27  1  0  0  0
 28105  1  0  0  0
 28106  1  0  0  0
 29107  1  0  0  0
 29108  1  0  0  0
 33 34  1  0  0  0
 33 66  1  0  0  0
 33 70  2  0  0  0
 34 36  1  0  0  0
 34 59  1  0  0  0
 34109  1  0  0  0
 35 44  2  0  0  0
 35 45  1  0  0  0
 35 68  1  0  0  0
 36 56  1  0  0  0
 36110  1  0  0  0
 37 39  1  0  0  0
 37 47  1  0  0  0
 37 66  1  0  0  0
 37111  1  0  0  0
 38 43  2  0  0  0
 38 46  1  0  0  0
 38 47  1  0  0  0
 39 64  1  0  0  0
 39 67  2  0  0  0
 40 52  1  0  0  0
 40 53  2  0  0  0
 40 58  1  0  0  0
 41112  1  0  0  0
 41113  1  0  0  0
 41114  1  0  0  0
 41 48  1  0  0  0
 42 43  1  0  0  0
 42 66  1  0  0  0
 42115  1  0  0  0
 42116  1  0  0  0
 43 44  1  0  0  0
 44117  1  0  0  0
 45 46  2  0  0  0
 45118  1  0  0  0
 46119  1  0  0  0
 47120  1  0  0  0
 47121  1  0  0  0
 48 56  1  0  0  0
 48 65  1  0  0  0
 48122  1  0  0  0
 49 50  1  0  0  0
 49 53  1  0  0  0
 49 64  1  0  0  0
 49123  1  0  0  0
 50 51  1  0  0  0
 50124  1  0  0  0
 50125  1  0  0  0
 51 52  1  0  0  0
 51126  1  0  0  0
 51127  1  0  0  0
 52128  1  0  0  0
 52129  1  0  0  0
 53 54  1  0  0  0
 54 55  2  0  0  0
 54130  1  0  0  0
 55 57  1  0  0  0
 55131  1  0  0  0
 56 69  2  0  0  0
 57 58  2  0  0  0
 57132  1  0  0  0
 58133  1  0  0  0
 59 60  1  0  0  0
 59 61  1  0  0  0
 59 62  1  0  0  0
 60134  1  0  0  0
 60135  1  0  0  0
 60136  1  0  0  0
 61137  1  0  0  0
 61138  1  0  0  0
 61139  1  0  0  0
 62140  1  0  0  0
 62141  1  0  0  0
 62142  1  0  0  0
 63 65  1  0  0  0
 63143  1  0  0  0
 63144  1  0  0  0
 63145  1  0  0  0
 64146  1  0  0  0
 65147  1  0  0  0
 68 82  1  0  0  0
 71 72  1  0  0  0
 71 73  2  0  0  0
 71148  1  0  0  0
 72 84  2  0  0  0
 72 77  1  0  0  0
 73 85  1  0  0  0
 73 86  1  0  0  0
 74 78  1  0  0  0
 74 86  1  0  0  0
 74149  1  0  0  0
 74150  1  0  0  0
 75 78  1  0  0  0
 75 86  1  0  0  0
 75151  1  0  0  0
 75152  1  0  0  0
 76 77  1  0  0  0
 76 88  1  0  0  0
 76153  1  0  0  0
 76154  1  0  0  0
 77 79  1  0  0  0
 77155  1  0  0  0
 78 87  1  0  0  0
 78156  1  0  0  0
 79 82  1  0  0  0
 79 88  1  0  0  0
 79157  1  0  0  0
 80 83  1  0  0  0
 80158  1  0  0  0
 80159  1  0  0  0
 80160  1  0  0  0
 81161  1  0  0  0
 81162  1  0  0  0
 81163  1  0  0  0
 81 88  1  0  0  0
 82164  1  0  0  0
 82165  1  0  0  0
 83 85  1  0  0  0
 83166  1  0  0  0
 83167  1  0  0  0
 84 85  1  0  0  0
 87168  1  0  0  0
 88169  1  0  0  0
M  CHG  1  88   1
M  ISO  4   1 100  68 101  82 101  87 100
M  END
> <chiral flag>
0

> <version>
0

> <s_m_source_file>
/data/baiqing/PycharmProjects/Reinvent-master-3.2/result/LINK_invent/BTK/process_docking_weight1_custom_sum_contain_oxygen_bond_distance_aromatic_linkinvent_7_9_3/rearranged_h_0198.sdf

> <i_m_source_file_index>
30

> <r_mmod_Potential_Energy-OPLS-2005>
-252.305877685547

> <r_mmod_Stretch_Energy-OPLS-2005>
36.368896484375

> <r_mmod_Bend_Energy-OPLS-2005>
194.393051147461

> <r_mmod_Torsional_Energy-OPLS-2005>
282.403778076172

> <r_mmod_Improper_Torsional_Energy-OPLS-2005>
13.8106155395508

> <r_mmod_Van_der_Waal_Energy-OPLS-2005>
138.225357055664

> <r_mmod_Electrostatic_Energy-OPLS-2005>
-462.854064941406

> <r_mmod_Solvation_Energy-OPLS-2005>
-467.603515625

> <b_mmod_Minimization_Converged-OPLS-2005>
0

> <r_mmod_RMS_Derivative-OPLS-2005>
3.17724514007568

$$$$
30
                    3D
 Structure written by MMmdl.
151160  0  0  1  0            999 V2000
  -30.4803  -15.1955   20.3467 C   0  0  0  0  0  0
  -30.4439  -12.7491   19.5239 C   0  0  0  0  0  0
  -29.5437  -12.5634   18.2795 C   0  0  0  0  0  0
  -28.0833  -12.3062   18.6987 C   0  0  0  0  0  0
  -27.6172  -13.2733   19.8158 C   0  0  2  0  0  0
  -28.6528  -13.4249   20.9516 C   0  0  0  0  0  0
  -25.2450  -13.8225   20.5764 C   0  0  0  0  0  0
  -24.1762  -13.0425   20.9206 C   0  0  0  0  0  0
  -24.6405  -11.6924   20.8699 C   0  0  0  0  0  0
  -23.9077  -10.4293   21.0357 C   0  0  0  0  0  0
  -24.3617   -9.4212   21.9145 C   0  0  0  0  0  0
  -23.6285   -8.2251   22.0742 C   0  0  0  0  0  0
  -22.4278   -8.0272   21.3525 C   0  0  0  0  0  0
  -21.9907   -9.0250   20.4637 C   0  0  0  0  0  0
  -22.7241  -10.2125   20.3021 C   0  0  0  0  0  0
  -21.6872   -6.0710   22.5258 C   0  0  0  0  0  0
  -21.4067   -6.5615   23.8195 C   0  0  0  0  0  0
  -21.3672   -5.6752   24.9142 C   0  0  0  0  0  0
  -21.6042   -4.3011   24.7194 C   0  0  0  0  0  0
  -21.8817   -3.8115   23.4307 C   0  0  0  0  0  0
  -21.9214   -4.6943   22.3369 C   0  0  0  0  0  0
  -22.7775  -13.5200   21.1848 C   0  0  0  0  0  0
  -22.1657   -4.2132   21.0939 F   0  0  0  0  0  0
  -21.5623   -3.4495   25.7696 F   0  0  0  0  0  0
  -29.8962  -13.9026   20.3261 N   0  0  0  0  0  0
  -26.2850  -12.9493   20.3143 N   0  0  0  0  0  0
  -25.9335  -11.6600   20.5624 N   0  0  0  0  0  0
  -22.0407  -12.8242   22.0421 N   0  0  0  0  0  0
  -25.4113  -15.1975   20.4324 N   0  0  0  0  0  0
  -31.7008  -15.1807   20.1297 O   0  0  0  0  0  0
  -21.6639   -6.8873   21.4229 O   0  0  0  0  0  0
  -22.3450  -14.5442   20.6591 O   0  0  0  0  0  0
  -24.6553  -31.8315   23.1799 C   0  0  0  0  0  0
  -25.9289  -32.4624   23.8208 C   0  0  1  0  0  0
  -27.2095  -27.0014   20.1665 C   0  0  0  0  0  0
  -25.6012  -33.8424   24.2161 N   0  0  0  0  0  0
  -23.4627  -30.4486   21.5276 C   0  0  2  0  0  0
  -24.9119  -28.8521   20.1114 C   0  0  0  0  0  0
  -22.7623  -29.4474   22.4818 C   0  0  0  0  0  0
  -18.0327  -28.1353   22.8473 C   0  0  0  0  0  0
  -24.1494  -36.7211   23.2639 C   0  0  0  0  0  0
  -26.0272  -30.6606   21.4000 C   0  0  0  0  0  0
  -26.0956  -29.2586   20.7413 C   0  0  0  0  0  0
  -27.2427  -28.3552   20.7442 C   0  0  0  0  0  0
  -25.9995  -26.7328   19.4882 C   0  0  0  0  0  0
  -24.8877  -27.6097   19.4628 C   0  0  0  0  0  0
  -23.6921  -29.7692   20.1504 C   0  0  0  0  0  0
  -25.4135  -36.2997   24.0324 C   0  0  1  0  0  0
  -20.5945  -28.3685   23.1212 C   0  0  2  0  0  0
  -20.6815  -26.9377   22.5393 C   0  0  0  0  0  0
  -19.5804  -26.6331   21.5198 C   0  0  0  0  0  0
  -18.1971  -26.7889   22.1597 C   0  0  0  0  0  0
  -19.1583  -28.8841   23.2829 C   0  0  0  0  0  0
  -18.9487  -30.1434   23.8856 C   0  0  0  0  0  0
  -17.6478  -30.6557   24.0520 C   0  0  0  0  0  0
  -25.9079  -34.9368   23.5063 C   0  0  0  0  0  0
  -16.5373  -29.9041   23.6330 C   0  0  0  0  0  0
  -16.7301  -28.6449   23.0382 C   0  0  0  0  0  0
  -26.4591  -31.6529   25.0688 C   0  0  0  0  0  0
  -25.3735  -31.3749   26.1358 C   0  0  0  0  0  0
  -27.0504  -30.2925   24.6367 C   0  0  0  0  0  0
  -27.6102  -32.4308   25.7483 C   0  0  0  0  0  0
  -27.5603  -37.1751   24.8462 C   0  0  0  0  0  0
  -21.4300  -29.3018   22.3566 N   0  0  0  0  0  0
  -26.4299  -37.3724   23.9414 N   0  0  0  0  0  0
  -24.7350  -31.0045   22.0897 N   0  0  0  0  0  0
  -23.4232  -28.8031   23.2992 O   0  0  0  0  0  0
  -28.2329  -25.9422   20.1779 O   0  0  0  0  0  0
  -26.5608  -34.8893   22.4602 O   0  0  0  0  0  0
  -23.5655  -32.1247   23.6964 O   0  0  0  0  0  0
  -29.3610  -20.5130   19.9645 C   0  0  0  0  0  0
  -30.3904  -22.0734   18.6492 C   0  0  0  0  0  0
  -28.8116  -22.9528   20.0156 C   0  0  0  0  0  0
  -29.3528  -17.5069   19.3704 C   0  0  0  0  0  0
  -30.2914  -17.8000   21.0979 C   0  0  0  0  0  0
  -29.2937  -18.8166   20.3316 C   0  0  0  0  0  0
  -31.3858  -22.3280   17.5267 C   0  0  0  0  0  0
  -27.9395  -24.3685   20.4482 C   0  0  0  0  0  0
  -30.2862  -20.7980   19.0475 N   0  0  0  0  0  0
  -28.5988  -21.6079   20.4747 N   0  0  0  0  0  0
  -29.7341  -23.1574   19.0799 N   0  0  0  0  0  0
  -29.7671  -16.4846   20.4607 N   0  0  0  0  0  0
  -31.4735  -12.9209   19.2085 H   0  0  0  0  0  0
  -30.4791  -11.8316   20.1199 H   0  0  0  0  0  0
  -29.9106  -11.7432   17.6616 H   0  0  0  0  0  0
  -29.5954  -13.4610   17.6597 H   0  0  0  0  0  0
  -28.0285  -11.2756   19.0529 H   0  0  0  0  0  0
  -27.4215  -12.3706   17.8358 H   0  0  0  0  0  0
  -27.5435  -14.2496   19.3375 H   0  0  0  0  0  0
  -28.8022  -12.4823   21.4834 H   0  0  0  0  0  0
  -28.3035  -14.1493   21.6878 H   0  0  0  0  0  0
  -25.2778   -9.5670   22.4686 H   0  0  0  0  0  0
  -23.9991   -7.4645   22.7453 H   0  0  0  0  0  0
  -21.0846   -8.8755   19.8934 H   0  0  0  0  0  0
  -22.3715  -10.9625   19.6089 H   0  0  0  0  0  0
  -21.2094   -7.6127   23.9706 H   0  0  0  0  0  0
  -21.1496   -6.0465   25.9045 H   0  0  0  0  0  0
  -22.0602   -2.7580   23.2780 H   0  0  0  0  0  0
  -22.4046  -11.9981   22.4928 H   0  0  0  0  0  0
  -21.0963  -13.1202   22.2486 H   0  0  0  0  0  0
  -24.6564  -15.8512   20.6070 H   0  0  0  0  0  0
  -26.2746  -15.6489   20.1602 H   0  0  0  0  0  0
  -26.7312  -32.5194   23.0880 H   0  0  0  0  0  0
  -25.0267  -33.9473   25.0400 H   0  0  0  0  0  0
  -22.7740  -31.2815   21.3701 H   0  0  0  0  0  0
  -23.3785  -35.9509   23.3247 H   0  0  0  0  0  0
  -24.3596  -36.8880   22.2062 H   0  0  0  0  0  0
  -23.7206  -37.6376   23.6691 H   0  0  0  0  0  0
  -26.2066  -31.4073   20.6255 H   0  0  0  0  0  0
  -26.8889  -30.7068   22.0561 H   0  0  0  0  0  0
  -28.1432  -28.6671   21.2549 H   0  0  0  0  0  0
  -25.8859  -25.7911   18.9714 H   0  0  0  0  0  0
  -23.9922  -27.3034   18.9410 H   0  0  0  0  0  0
  -23.8277  -30.5402   19.3896 H   0  0  0  0  0  0
  -22.8021  -29.2160   19.8404 H   0  0  0  0  0  0
  -25.1326  -36.1831   25.0820 H   0  0  0  0  0  0
  -21.0039  -28.3252   24.1329 H   0  0  0  0  0  0
  -20.5711  -26.2266   23.3597 H   0  0  0  0  0  0
  -21.6679  -26.7372   22.1195 H   0  0  0  0  0  0
  -19.6950  -25.6237   21.1227 H   0  0  0  0  0  0
  -19.6759  -27.3125   20.6713 H   0  0  0  0  0  0
  -17.4260  -26.6623   21.3979 H   0  0  0  0  0  0
  -18.0382  -26.0046   22.9000 H   0  0  0  0  0  0
  -19.7965  -30.7247   24.2220 H   0  0  0  0  0  0
  -17.5034  -31.6245   24.5090 H   0  0  0  0  0  0
  -15.5368  -30.2912   23.7674 H   0  0  0  0  0  0
  -15.8709  -28.0702   22.7176 H   0  0  0  0  0  0
  -24.5946  -30.7081   25.7656 H   0  0  0  0  0  0
  -24.8897  -32.2938   26.4670 H   0  0  0  0  0  0
  -25.7991  -30.8986   27.0203 H   0  0  0  0  0  0
  -26.3173  -29.6578   24.1390 H   0  0  0  0  0  0
  -27.4106  -29.7315   25.4989 H   0  0  0  0  0  0
  -27.9079  -30.4139   23.9754 H   0  0  0  0  0  0
  -27.2712  -33.3662   26.1946 H   0  0  0  0  0  0
  -28.3994  -32.6759   25.0360 H   0  0  0  0  0  0
  -28.0691  -31.8493   26.5491 H   0  0  0  0  0  0
  -28.2560  -38.0106   24.7599 H   0  0  0  0  0  0
  -28.1164  -36.2636   24.6202 H   0  0  0  0  0  0
  -27.2310  -37.1297   25.8856 H   0  0  0  0  0  0
  -20.9518  -29.8698   21.6715 H   0  0  0  0  0  0
  -26.0169  -38.2785   24.1439 H   0  0  0  0  0  0
  -30.1007  -17.6270   18.5802 H   0  0  0  0  0  0
  -28.3867  -17.2920   18.9072 H   0  0  0  0  0  0
  -31.3399  -18.0000   20.8571 H   0  0  0  0  0  0
  -30.1635  -17.8506   22.1786 H   0  0  0  0  0  0
  -28.3338  -18.7465   20.8436 H   0  0  0  0  0  0
  -32.3621  -22.5996   17.9246 H   0  0  0  0  0  0
  -31.0637  -23.1392   16.8712 H   0  0  0  0  0  0
  -31.5150  -21.4403   16.9039 H   0  0  0  0  0  0
  -27.8835  -24.3110   21.5351 H   0  0  0  0  0  0
  -26.9182  -24.1743   20.1214 H   0  0  0  0  0  0
  1 25  1  0  0  0
  1 30  2  0  0  0
  1 82  1  0  0  0
  2  3  1  0  0  0
  2 25  1  0  0  0
  2 83  1  0  0  0
  2 84  1  0  0  0
  3  4  1  0  0  0
  3 85  1  0  0  0
  3 86  1  0  0  0
  4  5  1  0  0  0
  4 87  1  0  0  0
  4 88  1  0  0  0
  5  6  1  0  0  0
  5 26  1  0  0  0
  5 89  1  0  0  0
  6 25  1  0  0  0
  6 90  1  0  0  0
  6 91  1  0  0  0
  7  8  2  0  0  0
  7 26  1  0  0  0
  7 29  1  0  0  0
  8  9  1  0  0  0
  8 22  1  0  0  0
  9 10  1  0  0  0
  9 27  2  0  0  0
 10 11  2  0  0  0
 10 15  1  0  0  0
 11 12  1  0  0  0
 11 92  1  0  0  0
 12 13  2  0  0  0
 12 93  1  0  0  0
 13 14  1  0  0  0
 13 31  1  0  0  0
 14 15  2  0  0  0
 14 94  1  0  0  0
 15 95  1  0  0  0
 16 17  2  0  0  0
 16 21  1  0  0  0
 16 31  1  0  0  0
 17 18  1  0  0  0
 17 96  1  0  0  0
 18 19  2  0  0  0
 18 97  1  0  0  0
 19 20  1  0  0  0
 19 24  1  0  0  0
 20 21  2  0  0  0
 20 98  1  0  0  0
 21 23  1  0  0  0
 22 28  1  0  0  0
 22 32  2  0  0  0
 26 27  1  0  0  0
 28 99  1  0  0  0
 28100  1  0  0  0
 29101  1  0  0  0
 29102  1  0  0  0
 33 34  1  0  0  0
 33 66  1  0  0  0
 33 70  2  0  0  0
 34 36  1  0  0  0
 34 59  1  0  0  0
 34103  1  0  0  0
 35 44  2  0  0  0
 35 45  1  0  0  0
 35 68  1  0  0  0
 36 56  1  0  0  0
 36104  1  0  0  0
 37 39  1  0  0  0
 37 47  1  0  0  0
 37 66  1  0  0  0
 37105  1  0  0  0
 38 43  2  0  0  0
 38 46  1  0  0  0
 38 47  1  0  0  0
 39 64  1  0  0  0
 39 67  2  0  0  0
 40 52  1  0  0  0
 40 53  2  0  0  0
 40 58  1  0  0  0
 41106  1  0  0  0
 41107  1  0  0  0
 41108  1  0  0  0
 41 48  1  0  0  0
 42 43  1  0  0  0
 42 66  1  0  0  0
 42109  1  0  0  0
 42110  1  0  0  0
 43 44  1  0  0  0
 44111  1  0  0  0
 45 46  2  0  0  0
 45112  1  0  0  0
 46113  1  0  0  0
 47114  1  0  0  0
 47115  1  0  0  0
 48 56  1  0  0  0
 48 65  1  0  0  0
 48116  1  0  0  0
 49 50  1  0  0  0
 49 53  1  0  0  0
 49 64  1  0  0  0
 49117  1  0  0  0
 50 51  1  0  0  0
 50118  1  0  0  0
 50119  1  0  0  0
 51 52  1  0  0  0
 51120  1  0  0  0
 51121  1  0  0  0
 52122  1  0  0  0
 52123  1  0  0  0
 53 54  1  0  0  0
 54 55  2  0  0  0
 54124  1  0  0  0
 55 57  1  0  0  0
 55125  1  0  0  0
 56 69  2  0  0  0
 57 58  2  0  0  0
 57126  1  0  0  0
 58127  1  0  0  0
 59 60  1  0  0  0
 59 61  1  0  0  0
 59 62  1  0  0  0
 60128  1  0  0  0
 60129  1  0  0  0
 60130  1  0  0  0
 61131  1  0  0  0
 61132  1  0  0  0
 61133  1  0  0  0
 62134  1  0  0  0
 62135  1  0  0  0
 62136  1  0  0  0
 63 65  1  0  0  0
 63137  1  0  0  0
 63138  1  0  0  0
 63139  1  0  0  0
 64140  1  0  0  0
 65141  1  0  0  0
 68 78  1  0  0  0
 71 79  1  0  0  0
 71 80  2  0  0  0
 71 76  1  0  0  0
 72 77  1  0  0  0
 72 79  2  0  0  0
 72 81  1  0  0  0
 73 78  1  0  0  0
 73 80  1  0  0  0
 73 81  2  0  0  0
 74 76  1  0  0  0
 74 82  1  0  0  0
 74142  1  0  0  0
 74143  1  0  0  0
 75 76  1  0  0  0
 75 82  1  0  0  0
 75144  1  0  0  0
 75145  1  0  0  0
 76146  1  0  0  0
 77147  1  0  0  0
 77148  1  0  0  0
 77149  1  0  0  0
 78150  1  0  0  0
 78151  1  0  0  0
M  ISO  4   1 100  68 101  78 101  82 100
M  END
> <chiral flag>
0

> <version>
0

> <s_m_source_file>
/data/baiqing/PycharmProjects/Reinvent-master-3.2/result/LINK_invent/BTK/process_docking_weight1_custom_sum_contain_oxygen_bond_distance_aromatic_linkinvent_7_9_3/rearranged_h_0198.sdf

> <i_m_source_file_index>
31

> <r_mmod_Potential_Energy-OPLS-2005>
425.321746826172

> <r_mmod_Stretch_Energy-OPLS-2005>
422.000366210938

> <r_mmod_Bend_Energy-OPLS-2005>
373.217529296875

> <r_mmod_Torsional_Energy-OPLS-2005>
262.715484619141

> <r_mmod_Improper_Torsional_Energy-OPLS-2005>
9.8281364440918

> <r_mmod_Van_der_Waal_Energy-OPLS-2005>
138.309951782227

> <r_mmod_Electrostatic_Energy-OPLS-2005>
-902.246398925781

> <r_mmod_Solvation_Energy-OPLS-2005>
-245.812713623047

> <b_mmod_Minimization_Converged-OPLS-2005>
0

> <r_mmod_RMS_Derivative-OPLS-2005>
5.07787036895752

$$$$
31
                    3D
 Structure written by MMmdl.
168177  0  0  1  0            999 V2000
  -30.7067  -14.5178   20.5191 C   0  0  0  0  0  0
  -30.4120  -12.3230   19.4435 C   0  0  0  0  0  0
  -29.4951  -12.4942   18.2153 C   0  0  0  0  0  0
  -28.0178  -12.3444   18.6278 C   0  0  0  0  0  0
  -27.6491  -13.2128   19.8620 C   0  0  2  0  0  0
  -28.6925  -13.0716   20.9929 C   0  0  0  0  0  0
  -25.2530  -13.8163   20.5681 C   0  0  0  0  0  0
  -24.1796  -13.0435   20.9179 C   0  0  0  0  0  0
  -24.6371  -11.6904   20.8734 C   0  0  0  0  0  0
  -23.9048  -10.4294   21.0405 C   0  0  0  0  0  0
  -24.3607   -9.4214   21.9181 C   0  0  0  0  0  0
  -23.6288   -8.2242   22.0752 C   0  0  0  0  0  0
  -22.4270   -8.0269   21.3541 C   0  0  0  0  0  0
  -21.9908   -9.0242   20.4640 C   0  0  0  0  0  0
  -22.7225  -10.2125   20.3052 C   0  0  0  0  0  0
  -21.6852   -6.0730   22.5285 C   0  0  0  0  0  0
  -21.4004   -6.5635   23.8214 C   0  0  0  0  0  0
  -21.3658   -5.6786   24.9178 C   0  0  0  0  0  0
  -21.6050   -4.3050   24.7230 C   0  0  0  0  0  0
  -21.8815   -3.8145   23.4349 C   0  0  0  0  0  0
  -21.9189   -4.6963   22.3401 C   0  0  0  0  0  0
  -22.7823  -13.5222   21.1860 C   0  0  0  0  0  0
  -22.1658   -4.2148   21.0975 F   0  0  0  0  0  0
  -21.5643   -3.4536   25.7747 F   0  0  0  0  0  0
  -30.0159  -13.3486   20.4207 N   0  0  0  0  0  0
  -26.2956  -12.9339   20.3325 N   0  0  0  0  0  0
  -25.9297  -11.6499   20.5772 N   0  0  0  0  0  0
  -22.0469  -12.8211   22.0420 N   0  0  0  0  0  0
  -25.4278  -15.1884   20.4083 N   0  0  0  0  0  0
  -31.8843  -14.6191   20.1653 O   0  0  0  0  0  0
  -21.6634   -6.8872   21.4240 O   0  0  0  0  0  0
  -22.3510  -14.5540   20.6726 O   0  0  0  0  0  0
  -24.6197  -31.8659   23.2066 C   0  0  0  0  0  0
  -25.9088  -32.4785   23.8372 C   0  0  1  0  0  0
  -27.2276  -27.4050   20.1010 C   0  0  0  0  0  0
  -25.5936  -33.8587   24.2303 N   0  0  0  0  0  0
  -23.4063  -30.4884   21.5505 C   0  0  2  0  0  0
  -24.8483  -28.9478   20.1175 C   0  0  0  0  0  0
  -22.7412  -29.4659   22.5001 C   0  0  0  0  0  0
  -18.0273  -28.1392   22.8474 C   0  0  0  0  0  0
  -24.1477  -36.7289   23.2636 C   0  0  0  0  0  0
  -25.9368  -30.8201   21.3635 C   0  0  0  0  0  0
  -26.0115  -29.4529   20.7119 C   0  0  0  0  0  0
  -27.2048  -28.6904   20.6973 C   0  0  0  0  0  0
  -26.0481  -26.9295   19.4844 C   0  0  0  0  0  0
  -24.8623  -27.6861   19.5010 C   0  0  0  0  0  0
  -23.6135  -29.8189   20.1665 C   0  0  0  0  0  0
  -25.4099  -36.3083   24.0332 C   0  0  1  0  0  0
  -20.5861  -28.3684   23.1296 C   0  0  2  0  0  0
  -20.6769  -26.9422   22.5399 C   0  0  0  0  0  0
  -19.5746  -26.6391   21.5197 C   0  0  0  0  0  0
  -18.1923  -26.7933   22.1610 C   0  0  0  0  0  0
  -19.1522  -28.8852   23.2884 C   0  0  0  0  0  0
  -18.9460  -30.1452   23.8909 C   0  0  0  0  0  0
  -17.6464  -30.6594   24.0572 C   0  0  0  0  0  0
  -25.9047  -34.9456   23.5114 C   0  0  0  0  0  0
  -16.5353  -29.9102   23.6332 C   0  0  0  0  0  0
  -16.7262  -28.6521   23.0343 C   0  0  0  0  0  0
  -26.4495  -31.6573   25.0721 C   0  0  0  0  0  0
  -25.3754  -31.3728   26.1486 C   0  0  0  0  0  0
  -27.0283  -30.2991   24.6121 C   0  0  0  0  0  0
  -27.6101  -32.4278   25.7468 C   0  0  0  0  0  0
  -27.5571  -37.1786   24.8468 C   0  0  0  0  0  0
  -21.4142  -29.3046   22.3708 N   0  0  0  0  0  0
  -26.4275  -37.3777   23.9427 N   0  0  0  0  0  0
  -24.6728  -31.0733   22.0983 N   0  0  0  0  0  0
  -23.4159  -28.8215   23.3076 O   0  0  0  0  0  0
  -28.3892  -26.6522   20.1021 O   0  0  0  0  0  0
  -26.5609  -34.8914   22.4675 O   0  0  0  0  0  0
  -23.5392  -32.1440   23.7444 O   0  0  0  0  0  0
  -32.1898  -20.7756   18.3645 C   0  0  0  0  0  0
  -30.3273  -20.8294   19.6980 C   0  0  0  0  0  0
  -30.0116  -22.1177   19.1438 C   0  0  0  0  0  0
  -29.7274  -16.4381   19.4830 C   0  0  0  0  0  0
  -30.3232  -16.4593   21.9176 C   0  0  0  0  0  0
  -29.1125  -17.8467   19.6624 C   0  0  0  0  0  0
  -29.6848  -17.8739   22.0048 C   0  0  0  0  0  0
  -27.0610  -21.3624   18.6572 C   0  0  0  0  0  0
  -29.5131  -20.0762   20.7626 C   0  0  0  0  0  0
  -27.7815  -22.7109   18.5407 C   0  0  0  0  0  0
  -29.2306  -24.3682   19.5727 C   0  0  0  0  0  0
  -28.2754  -25.2460   20.4307 C   0  0  0  0  0  0
  -31.4453  -20.1705   19.2940 N   0  0  0  0  0  0
  -31.9320  -21.9589   17.7932 N   0  0  0  0  0  0
  -30.8389  -22.6247   18.1859 N   0  0  0  0  0  0
  -29.9794  -15.6533   20.7200 N   0  0  0  0  0  0
  -28.8901  -22.9208   19.4871 N   0  0  0  0  0  0
  -29.8066  -18.6047   20.7243 N   0  3  0  0  0  0
  -31.4605  -12.4007   19.1486 H   0  0  0  0  0  0
  -30.2960  -11.3270   19.8739 H   0  0  0  0  0  0
  -29.7477  -11.7610   17.4481 H   0  0  0  0  0  0
  -29.6550  -13.4751   17.7650 H   0  0  0  0  0  0
  -27.8474  -11.2917   18.8545 H   0  0  0  0  0  0
  -27.3637  -12.5838   17.7887 H   0  0  0  0  0  0
  -27.6626  -14.2470   19.5237 H   0  0  0  0  0  0
  -28.6703  -12.0666   21.4167 H   0  0  0  0  0  0
  -28.4612  -13.7541   21.8125 H   0  0  0  0  0  0
  -25.2752   -9.5693   22.4756 H   0  0  0  0  0  0
  -24.0012   -7.4627   22.7469 H   0  0  0  0  0  0
  -21.0849   -8.8737   19.8937 H   0  0  0  0  0  0
  -22.3679  -10.9653   19.6157 H   0  0  0  0  0  0
  -21.1981   -7.6139   23.9716 H   0  0  0  0  0  0
  -21.1490   -6.0516   25.9077 H   0  0  0  0  0  0
  -22.0596   -2.7605   23.2849 H   0  0  0  0  0  0
  -22.4084  -11.9876   22.4811 H   0  0  0  0  0  0
  -21.1077  -13.1212   22.2613 H   0  0  0  0  0  0
  -24.6647  -15.8476   20.5113 H   0  0  0  0  0  0
  -26.2858  -15.6197   20.0931 H   0  0  0  0  0  0
  -26.7161  -32.5472   23.1138 H   0  0  0  0  0  0
  -25.0110  -33.9739   25.0463 H   0  0  0  0  0  0
  -22.6970  -31.3064   21.4087 H   0  0  0  0  0  0
  -23.3759  -35.9600   23.3249 H   0  0  0  0  0  0
  -24.3580  -36.8967   22.2063 H   0  0  0  0  0  0
  -23.7192  -37.6454   23.6692 H   0  0  0  0  0  0
  -26.0532  -31.5801   20.5905 H   0  0  0  0  0  0
  -26.8237  -30.8721   21.9829 H   0  0  0  0  0  0
  -28.1034  -29.0759   21.1588 H   0  0  0  0  0  0
  -26.0358  -25.9746   18.9791 H   0  0  0  0  0  0
  -23.9689  -27.2937   19.0349 H   0  0  0  0  0  0
  -23.7240  -30.5929   19.4058 H   0  0  0  0  0  0
  -22.7357  -29.2414   19.8702 H   0  0  0  0  0  0
  -25.1278  -36.1930   25.0824 H   0  0  0  0  0  0
  -20.9937  -28.3264   24.1425 H   0  0  0  0  0  0
  -20.5668  -26.2310   23.3595 H   0  0  0  0  0  0
  -21.6640  -26.7464   22.1195 H   0  0  0  0  0  0
  -19.6918  -25.6297   21.1240 H   0  0  0  0  0  0
  -19.6692  -27.3195   20.6722 H   0  0  0  0  0  0
  -17.4189  -26.6661   21.4019 H   0  0  0  0  0  0
  -18.0353  -26.0074   22.9008 H   0  0  0  0  0  0
  -19.7936  -30.7256   24.2289 H   0  0  0  0  0  0
  -17.5027  -31.6268   24.5178 H   0  0  0  0  0  0
  -15.5362  -30.3020   23.7648 H   0  0  0  0  0  0
  -15.8657  -28.0852   22.7059 H   0  0  0  0  0  0
  -24.5841  -30.7184   25.7803 H   0  0  0  0  0  0
  -24.9062  -32.2913   26.5026 H   0  0  0  0  0  0
  -25.8079  -30.8772   27.0187 H   0  0  0  0  0  0
  -26.2792  -29.6761   24.1213 H   0  0  0  0  0  0
  -27.4058  -29.7240   25.4586 H   0  0  0  0  0  0
  -27.8648  -30.4264   23.9247 H   0  0  0  0  0  0
  -27.2783  -33.3638   26.1972 H   0  0  0  0  0  0
  -28.3950  -32.6717   25.0294 H   0  0  0  0  0  0
  -28.0705  -31.8419   26.5436 H   0  0  0  0  0  0
  -28.2585  -38.0085   24.7538 H   0  0  0  0  0  0
  -28.1072  -36.2626   24.6264 H   0  0  0  0  0  0
  -27.2297  -37.1411   25.8871 H   0  0  0  0  0  0
  -20.9336  -29.8747   21.6891 H   0  0  0  0  0  0
  -26.0160  -38.2847   24.1454 H   0  0  0  0  0  0
  -33.0754  -20.2526   18.0363 H   0  0  0  0  0  0
  -30.6700  -16.5652   18.9456 H   0  0  0  0  0  0
  -29.0916  -15.8627   18.8100 H   0  0  0  0  0  0
  -30.0623  -15.8945   22.8140 H   0  0  0  0  0  0
  -31.4078  -16.5843   21.9548 H   0  0  0  0  0  0
  -28.0509  -17.7689   19.9043 H   0  0  0  0  0  0
  -29.1707  -18.3846   18.7150 H   0  0  0  0  0  0
  -30.1607  -18.4365   22.8087 H   0  0  0  0  0  0
  -28.6300  -17.7910   22.2728 H   0  0  0  0  0  0
  -26.2327  -21.3224   17.9487 H   0  0  0  0  0  0
  -26.6342  -21.2216   19.6510 H   0  0  0  0  0  0
  -27.7091  -20.5203   18.4199 H   0  0  0  0  0  0
  -28.4468  -20.2652   20.6726 H   0  0  0  0  0  0
  -29.8125  -20.4906   21.7257 H   0  0  0  0  0  0
  -27.0361  -23.4953   18.6689 H   0  0  0  0  0  0
  -28.1459  -22.8257   17.5175 H   0  0  0  0  0  0
  -30.2482  -24.5076   19.9438 H   0  0  0  0  0  0
  -29.2293  -24.7737   18.5581 H   0  0  0  0  0  0
  -28.5474  -25.1318   21.4800 H   0  0  0  0  0  0
  -27.2557  -24.8706   20.3733 H   0  0  0  0  0  0
  -30.7869  -18.6211   20.4683 H   0  0  0  0  0  0
  1 25  1  0  0  0
  1 30  2  0  0  0
  1 86  1  0  0  0
  2  3  1  0  0  0
  2 25  1  0  0  0
  2 89  1  0  0  0
  2 90  1  0  0  0
  3  4  1  0  0  0
  3 91  1  0  0  0
  3 92  1  0  0  0
  4  5  1  0  0  0
  4 93  1  0  0  0
  4 94  1  0  0  0
  5  6  1  0  0  0
  5 26  1  0  0  0
  5 95  1  0  0  0
  6 25  1  0  0  0
  6 96  1  0  0  0
  6 97  1  0  0  0
  7  8  2  0  0  0
  7 26  1  0  0  0
  7 29  1  0  0  0
  8  9  1  0  0  0
  8 22  1  0  0  0
  9 10  1  0  0  0
  9 27  2  0  0  0
 10 11  2  0  0  0
 10 15  1  0  0  0
 11 12  1  0  0  0
 11 98  1  0  0  0
 12 13  2  0  0  0
 12 99  1  0  0  0
 13 14  1  0  0  0
 13 31  1  0  0  0
 14 15  2  0  0  0
 14100  1  0  0  0
 15101  1  0  0  0
 16 17  2  0  0  0
 16 21  1  0  0  0
 16 31  1  0  0  0
 17 18  1  0  0  0
 17102  1  0  0  0
 18 19  2  0  0  0
 18103  1  0  0  0
 19 20  1  0  0  0
 19 24  1  0  0  0
 20 21  2  0  0  0
 20104  1  0  0  0
 21 23  1  0  0  0
 22 28  1  0  0  0
 22 32  2  0  0  0
 26 27  1  0  0  0
 28105  1  0  0  0
 28106  1  0  0  0
 29107  1  0  0  0
 29108  1  0  0  0
 33 34  1  0  0  0
 33 66  1  0  0  0
 33 70  2  0  0  0
 34 36  1  0  0  0
 34 59  1  0  0  0
 34109  1  0  0  0
 35 44  2  0  0  0
 35 45  1  0  0  0
 35 68  1  0  0  0
 36 56  1  0  0  0
 36110  1  0  0  0
 37 39  1  0  0  0
 37 47  1  0  0  0
 37 66  1  0  0  0
 37111  1  0  0  0
 38 43  2  0  0  0
 38 46  1  0  0  0
 38 47  1  0  0  0
 39 64  1  0  0  0
 39 67  2  0  0  0
 40 52  1  0  0  0
 40 53  2  0  0  0
 40 58  1  0  0  0
 41112  1  0  0  0
 41113  1  0  0  0
 41114  1  0  0  0
 41 48  1  0  0  0
 42 43  1  0  0  0
 42 66  1  0  0  0
 42115  1  0  0  0
 42116  1  0  0  0
 43 44  1  0  0  0
 44117  1  0  0  0
 45 46  2  0  0  0
 45118  1  0  0  0
 46119  1  0  0  0
 47120  1  0  0  0
 47121  1  0  0  0
 48 56  1  0  0  0
 48 65  1  0  0  0
 48122  1  0  0  0
 49 50  1  0  0  0
 49 53  1  0  0  0
 49 64  1  0  0  0
 49123  1  0  0  0
 50 51  1  0  0  0
 50124  1  0  0  0
 50125  1  0  0  0
 51 52  1  0  0  0
 51126  1  0  0  0
 51127  1  0  0  0
 52128  1  0  0  0
 52129  1  0  0  0
 53 54  1  0  0  0
 54 55  2  0  0  0
 54130  1  0  0  0
 55 57  1  0  0  0
 55131  1  0  0  0
 56 69  2  0  0  0
 57 58  2  0  0  0
 57132  1  0  0  0
 58133  1  0  0  0
 59 60  1  0  0  0
 59 61  1  0  0  0
 59 62  1  0  0  0
 60134  1  0  0  0
 60135  1  0  0  0
 60136  1  0  0  0
 61137  1  0  0  0
 61138  1  0  0  0
 61139  1  0  0  0
 62140  1  0  0  0
 62141  1  0  0  0
 62142  1  0  0  0
 63 65  1  0  0  0
 63143  1  0  0  0
 63144  1  0  0  0
 63145  1  0  0  0
 64146  1  0  0  0
 65147  1  0  0  0
 68 82  1  0  0  0
 71 83  2  0  0  0
 71 84  1  0  0  0
 71148  1  0  0  0
 72 73  2  0  0  0
 72 79  1  0  0  0
 72 83  1  0  0  0
 73 85  1  0  0  0
 73 87  1  0  0  0
 74 76  1  0  0  0
 74 86  1  0  0  0
 74149  1  0  0  0
 74150  1  0  0  0
 75 77  1  0  0  0
 75 86  1  0  0  0
 75151  1  0  0  0
 75152  1  0  0  0
 76 88  1  0  0  0
 76153  1  0  0  0
 76154  1  0  0  0
 77 88  1  0  0  0
 77155  1  0  0  0
 77156  1  0  0  0
 78 80  1  0  0  0
 78157  1  0  0  0
 78158  1  0  0  0
 78159  1  0  0  0
 79160  1  0  0  0
 79161  1  0  0  0
 79 88  1  0  0  0
 80 87  1  0  0  0
 80162  1  0  0  0
 80163  1  0  0  0
 81 82  1  0  0  0
 81 87  1  0  0  0
 81164  1  0  0  0
 81165  1  0  0  0
 82166  1  0  0  0
 82167  1  0  0  0
 84 85  2  0  0  0
 88168  1  0  0  0
M  CHG  1  88   1
M  ISO  4   1 100  68 101  82 101  86 100
M  END
> <chiral flag>
0

> <version>
0

> <s_m_source_file>
/data/baiqing/PycharmProjects/Reinvent-master-3.2/result/LINK_invent/BTK/process_docking_weight1_custom_sum_contain_oxygen_bond_distance_aromatic_linkinvent_7_9_3/rearranged_h_0198.sdf

> <i_m_source_file_index>
32

> <r_mmod_Potential_Energy-OPLS-2005>
47.2293968200684

> <r_mmod_Stretch_Energy-OPLS-2005>
53.5089111328125

> <r_mmod_Bend_Energy-OPLS-2005>
131.897613525391

> <r_mmod_Torsional_Energy-OPLS-2005>
414.886047363281

> <r_mmod_Improper_Torsional_Energy-OPLS-2005>
16.9080982208252

> <r_mmod_Van_der_Waal_Energy-OPLS-2005>
175.237243652344

> <r_mmod_Electrostatic_Energy-OPLS-2005>
-308.834289550781

> <r_mmod_Solvation_Energy-OPLS-2005>
-459.109100341797

> <b_mmod_Minimization_Converged-OPLS-2005>
0

> <r_mmod_RMS_Derivative-OPLS-2005>
2.17331004142761

$$$$
32
                    3D
 Structure written by MMmdl.
161171  0  0  1  0            999 V2000
  -30.5144  -15.1513   20.4274 C   0  0  0  0  0  0
  -30.4541  -12.7350   19.5207 C   0  0  0  0  0  0
  -29.5565  -12.6040   18.2646 C   0  0  0  0  0  0
  -28.0636  -12.4327   18.6287 C   0  0  0  0  0  0
  -27.6396  -13.2920   19.8567 C   0  0  2  0  0  0
  -28.6910  -13.3438   20.9931 C   0  0  0  0  0  0
  -25.2416  -13.8280   20.5691 C   0  0  0  0  0  0
  -24.1733  -13.0416   20.9179 C   0  0  0  0  0  0
  -24.6475  -11.6977   20.8759 C   0  0  0  0  0  0
  -23.9165  -10.4366   21.0428 C   0  0  0  0  0  0
  -24.3701   -9.4273   21.9211 C   0  0  0  0  0  0
  -23.6358   -8.2318   22.0801 C   0  0  0  0  0  0
  -22.4343   -8.0362   21.3594 C   0  0  0  0  0  0
  -22.0019   -9.0328   20.4694 C   0  0  0  0  0  0
  -22.7355  -10.2214   20.3085 C   0  0  0  0  0  0
  -21.6900   -6.0832   22.5256 C   0  0  0  0  0  0
  -21.4057   -6.5688   23.8209 C   0  0  0  0  0  0
  -21.3639   -5.6818   24.9144 C   0  0  0  0  0  0
  -21.5985   -4.3071   24.7152 C   0  0  0  0  0  0
  -21.8821   -3.8195   23.4271 C   0  0  0  0  0  0
  -21.9250   -4.7065   22.3357 C   0  0  0  0  0  0
  -22.7760  -13.5199   21.1709 C   0  0  0  0  0  0
  -22.1673   -4.2209   21.0959 F   0  0  0  0  0  0
  -21.5616   -3.4574   25.7702 F   0  0  0  0  0  0
  -29.9208  -13.8619   20.3759 N   0  0  0  0  0  0
  -26.2992  -12.9602   20.3343 N   0  0  0  0  0  0
  -25.9438  -11.6679   20.5698 N   0  0  0  0  0  0
  -22.0399  -12.8340   22.0424 N   0  0  0  0  0  0
  -25.3848  -15.1958   20.4000 N   0  0  0  0  0  0
  -31.7065  -15.1463   20.1133 O   0  0  0  0  0  0
  -21.6663   -6.8985   21.4256 O   0  0  0  0  0  0
  -22.3460  -14.5484   20.6516 O   0  0  0  0  0  0
  -24.6464  -31.8329   23.1898 C   0  0  0  0  0  0
  -25.9201  -32.4666   23.8260 C   0  0  1  0  0  0
  -27.2537  -27.0838   20.1816 C   0  0  0  0  0  0
  -25.5938  -33.8465   24.2180 N   0  0  0  0  0  0
  -23.4537  -30.4511   21.5293 C   0  0  2  0  0  0
  -24.9147  -28.8454   20.1353 C   0  0  0  0  0  0
  -22.7573  -29.4493   22.4864 C   0  0  0  0  0  0
  -18.0320  -28.1387   22.8435 C   0  0  0  0  0  0
  -24.1413  -36.7202   23.2656 C   0  0  0  0  0  0
  -26.0183  -30.6937   21.3880 C   0  0  0  0  0  0
  -26.0947  -29.2894   20.7508 C   0  0  0  0  0  0
  -27.2680  -28.4325   20.7395 C   0  0  0  0  0  0
  -26.0416  -26.7307   19.5580 C   0  0  0  0  0  0
  -24.9026  -27.5779   19.5286 C   0  0  0  0  0  0
  -23.6874  -29.7544   20.1578 C   0  0  0  0  0  0
  -25.4075  -36.2993   24.0327 C   0  0  1  0  0  0
  -20.5910  -28.3733   23.1267 C   0  0  2  0  0  0
  -20.6795  -26.9403   22.5389 C   0  0  0  0  0  0
  -19.5807  -26.6423   21.5141 C   0  0  0  0  0  0
  -18.1983  -26.7926   22.1529 C   0  0  0  0  0  0
  -19.1550  -28.8859   23.2875 C   0  0  0  0  0  0
  -18.9465  -30.1460   23.8941 C   0  0  0  0  0  0
  -17.6462  -30.6596   24.0635 C   0  0  0  0  0  0
  -25.9045  -34.9379   23.5075 C   0  0  0  0  0  0
  -16.5376  -29.9082   23.6389 C   0  0  0  0  0  0
  -16.7314  -28.6489   23.0336 C   0  0  0  0  0  0
  -26.4553  -31.6567   25.0744 C   0  0  0  0  0  0
  -25.3783  -31.3788   26.1499 C   0  0  0  0  0  0
  -27.0511  -30.2967   24.6455 C   0  0  0  0  0  0
  -27.6058  -32.4354   25.7562 C   0  0  0  0  0  0
  -27.5532  -37.1761   24.8496 C   0  0  0  0  0  0
  -21.4232  -29.3134   22.3676 N   0  0  0  0  0  0
  -26.4219  -37.3748   23.9433 N   0  0  0  0  0  0
  -24.7278  -31.0142   22.0956 N   0  0  0  0  0  0
  -23.4229  -28.8027   23.2934 O   0  0  0  0  0  0
  -28.3661  -26.1611   20.0439 O   0  0  0  0  0  0
  -26.5625  -34.8887   22.4652 O   0  0  0  0  0  0
  -23.5588  -32.1205   23.7146 O   0  0  0  0  0  0
  -28.4259  -20.7066   20.1274 C   0  0  0  0  0  0
  -26.5337  -21.8660   19.4484 C   0  0  0  0  0  0
  -28.2399  -23.1637   20.1428 C   0  0  0  0  0  0
  -28.5263  -16.7304   21.1677 C   0  0  0  0  0  0
  -27.5930  -17.6983   18.9846 C   0  0  0  0  0  0
  -30.0157  -18.1520   18.5722 C   0  0  0  0  0  0
  -28.9798  -19.1505   20.6434 C   0  0  2  0  0  0
  -27.9248  -18.0160   20.4976 C   0  0  2  0  0  0
  -30.1063  -17.9836   20.0979 C   0  0  1  0  0  0
  -25.0074  -21.8562   19.1715 C   0  0  0  0  0  0
  -28.6432  -24.7190   20.6483 C   0  0  0  0  0  0
  -27.1765  -20.6932   19.6158 N   0  0  0  0  0  0
  -28.9666  -21.9739   20.4300 N   0  0  0  0  0  0
  -27.0200  -23.0886   19.6233 N   0  0  0  0  0  0
  -29.8044  -16.4451   20.5019 N   0  0  0  0  0  0
  -28.7730  -17.5146   18.0854 N   0  3  0  0  0  0
  -31.4774  -12.9175   19.1949 H   0  0  0  0  0  0
  -30.5024  -11.7872   20.0623 H   0  0  0  0  0  0
  -29.8946  -11.8007   17.6131 H   0  0  0  0  0  0
  -29.6726  -13.5126   17.6772 H   0  0  0  0  0  0
  -27.8518  -11.3792   18.7864 H   0  0  0  0  0  0
  -27.4755  -12.7348   17.7601 H   0  0  0  0  0  0
  -27.5917  -14.3110   19.4700 H   0  0  0  0  0  0
  -28.8541  -12.3554   21.4223 H   0  0  0  0  0  0
  -28.3766  -13.9873   21.8158 H   0  0  0  0  0  0
  -25.2842   -9.5714   22.4772 H   0  0  0  0  0  0
  -24.0054   -7.4739   22.7559 H   0  0  0  0  0  0
  -21.0958   -8.8857   19.9000 H   0  0  0  0  0  0
  -22.3818  -10.9748   19.6153 H   0  0  0  0  0  0
  -21.2068   -7.6194   23.9710 H   0  0  0  0  0  0
  -21.1427   -6.0555   25.9059 H   0  0  0  0  0  0
  -22.0636   -2.7666   23.2721 H   0  0  0  0  0  0
  -22.3953  -11.9893   22.4588 H   0  0  0  0  0  0
  -21.0970  -13.1331   22.2514 H   0  0  0  0  0  0
  -24.6068  -15.8391   20.5081 H   0  0  0  0  0  0
  -26.2342  -15.6462   20.0864 H   0  0  0  0  0  0
  -26.7278  -32.5235   23.0977 H   0  0  0  0  0  0
  -25.0103  -33.9552   25.0351 H   0  0  0  0  0  0
  -22.7674  -31.2840   21.3626 H   0  0  0  0  0  0
  -23.3710  -35.9499   23.3306 H   0  0  0  0  0  0
  -24.3490  -36.8863   22.2080 H   0  0  0  0  0  0
  -23.7123  -37.6386   23.6697 H   0  0  0  0  0  0
  -26.1769  -31.4323   20.5995 H   0  0  0  0  0  0
  -26.8871  -30.7582   22.0295 H   0  0  0  0  0  0
  -28.1825  -28.8065   21.1837 H   0  0  0  0  0  0
  -25.9801  -25.7652   19.0783 H   0  0  0  0  0  0
  -24.0039  -27.2167   19.0548 H   0  0  0  0  0  0
  -23.8443  -30.5110   19.3959 H   0  0  0  0  0  0
  -22.8090  -29.1984   19.8271 H   0  0  0  0  0  0
  -25.1251  -36.1828   25.0831 H   0  0  0  0  0  0
  -20.9981  -28.3294   24.1389 H   0  0  0  0  0  0
  -20.5669  -26.2286   23.3586 H   0  0  0  0  0  0
  -21.6692  -26.7405   22.1199 H   0  0  0  0  0  0
  -19.6948  -25.6330   21.1177 H   0  0  0  0  0  0
  -19.6804  -27.3262   20.6685 H   0  0  0  0  0  0
  -17.4327  -26.6631   21.3927 H   0  0  0  0  0  0
  -18.0371  -26.0049   22.8909 H   0  0  0  0  0  0
  -19.7949  -30.7271   24.2336 H   0  0  0  0  0  0
  -17.5032  -31.6279   24.5274 H   0  0  0  0  0  0
  -15.5406  -30.2967   23.7805 H   0  0  0  0  0  0
  -15.8678  -28.0905   22.7003 H   0  0  0  0  0  0
  -24.5915  -30.7165   25.7879 H   0  0  0  0  0  0
  -24.9047  -32.3005   26.4901 H   0  0  0  0  0  0
  -25.8133  -30.9016   27.0284 H   0  0  0  0  0  0
  -26.3239  -29.6638   24.1391 H   0  0  0  0  0  0
  -27.4009  -29.7339   25.5110 H   0  0  0  0  0  0
  -27.9131  -30.4199   23.9907 H   0  0  0  0  0  0
  -27.2611  -33.3638   26.2108 H   0  0  0  0  0  0
  -28.3925  -32.6946   25.0463 H   0  0  0  0  0  0
  -28.0644  -31.8507   26.5553 H   0  0  0  0  0  0
  -28.2584  -38.0025   24.7518 H   0  0  0  0  0  0
  -28.0967  -36.2571   24.6304 H   0  0  0  0  0  0
  -27.2244  -37.1383   25.8898 H   0  0  0  0  0  0
  -20.9475  -29.8946   21.6924 H   0  0  0  0  0  0
  -26.0075  -38.2783   24.1549 H   0  0  0  0  0  0
  -28.7359  -16.8914   22.2272 H   0  0  0  0  0  0
  -27.8138  -15.9216   21.1275 H   0  0  0  0  0  0
  -26.9356  -18.4585   18.5624 H   0  0  0  0  0  0
  -27.0440  -16.7513   18.9421 H   0  0  0  0  0  0
  -30.8940  -17.7524   18.0610 H   0  0  0  0  0  0
  -29.9879  -19.2198   18.3437 H   0  0  0  0  0  0
  -29.1741  -19.3003   21.7058 H   0  0  0  0  0  0
  -27.0108  -18.3108   21.0170 H   0  0  0  0  0  0
  -31.1067  -18.2622   20.4369 H   0  0  0  0  0  0
  -24.6916  -22.5385   18.3702 H   0  0  0  0  0  0
  -24.4830  -22.2105   20.0586 H   0  0  0  0  0  0
  -24.5482  -20.8920   18.9528 H   0  0  0  0  0  0
  -29.7331  -24.6836   20.5567 H   0  0  0  0  0  0
  -28.4864  -24.7617   21.7273 H   0  0  0  0  0  0
  -28.5669  -17.8462   17.1504 H   0  0  0  0  0  0
  -28.9404  -16.5216   17.9849 H   0  0  0  0  0  0
  1 25  1  0  0  0
  1 30  2  0  0  0
  1 85  1  0  0  0
  2  3  1  0  0  0
  2 25  1  0  0  0
  2 87  1  0  0  0
  2 88  1  0  0  0
  3  4  1  0  0  0
  3 89  1  0  0  0
  3 90  1  0  0  0
  4  5  1  0  0  0
  4 91  1  0  0  0
  4 92  1  0  0  0
  5  6  1  0  0  0
  5 26  1  0  0  0
  5 93  1  0  0  0
  6 25  1  0  0  0
  6 94  1  0  0  0
  6 95  1  0  0  0
  7  8  2  0  0  0
  7 26  1  0  0  0
  7 29  1  0  0  0
  8  9  1  0  0  0
  8 22  1  0  0  0
  9 10  1  0  0  0
  9 27  2  0  0  0
 10 11  2  0  0  0
 10 15  1  0  0  0
 11 12  1  0  0  0
 11 96  1  0  0  0
 12 13  2  0  0  0
 12 97  1  0  0  0
 13 14  1  0  0  0
 13 31  1  0  0  0
 14 15  2  0  0  0
 14 98  1  0  0  0
 15 99  1  0  0  0
 16 17  2  0  0  0
 16 21  1  0  0  0
 16 31  1  0  0  0
 17 18  1  0  0  0
 17100  1  0  0  0
 18 19  2  0  0  0
 18101  1  0  0  0
 19 20  1  0  0  0
 19 24  1  0  0  0
 20 21  2  0  0  0
 20102  1  0  0  0
 21 23  1  0  0  0
 22 28  1  0  0  0
 22 32  2  0  0  0
 26 27  1  0  0  0
 28103  1  0  0  0
 28104  1  0  0  0
 29105  1  0  0  0
 29106  1  0  0  0
 33 34  1  0  0  0
 33 66  1  0  0  0
 33 70  2  0  0  0
 34 36  1  0  0  0
 34 59  1  0  0  0
 34107  1  0  0  0
 35 44  2  0  0  0
 35 45  1  0  0  0
 35 68  1  0  0  0
 36 56  1  0  0  0
 36108  1  0  0  0
 37 39  1  0  0  0
 37 47  1  0  0  0
 37 66  1  0  0  0
 37109  1  0  0  0
 38 43  2  0  0  0
 38 46  1  0  0  0
 38 47  1  0  0  0
 39 64  1  0  0  0
 39 67  2  0  0  0
 40 52  1  0  0  0
 40 53  2  0  0  0
 40 58  1  0  0  0
 41110  1  0  0  0
 41111  1  0  0  0
 41112  1  0  0  0
 41 48  1  0  0  0
 42 43  1  0  0  0
 42 66  1  0  0  0
 42113  1  0  0  0
 42114  1  0  0  0
 43 44  1  0  0  0
 44115  1  0  0  0
 45 46  2  0  0  0
 45116  1  0  0  0
 46117  1  0  0  0
 47118  1  0  0  0
 47119  1  0  0  0
 48 56  1  0  0  0
 48 65  1  0  0  0
 48120  1  0  0  0
 49 50  1  0  0  0
 49 53  1  0  0  0
 49 64  1  0  0  0
 49121  1  0  0  0
 50 51  1  0  0  0
 50122  1  0  0  0
 50123  1  0  0  0
 51 52  1  0  0  0
 51124  1  0  0  0
 51125  1  0  0  0
 52126  1  0  0  0
 52127  1  0  0  0
 53 54  1  0  0  0
 54 55  2  0  0  0
 54128  1  0  0  0
 55 57  1  0  0  0
 55129  1  0  0  0
 56 69  2  0  0  0
 57 58  2  0  0  0
 57130  1  0  0  0
 58131  1  0  0  0
 59 60  1  0  0  0
 59 61  1  0  0  0
 59 62  1  0  0  0
 60132  1  0  0  0
 60133  1  0  0  0
 60134  1  0  0  0
 61135  1  0  0  0
 61136  1  0  0  0
 61137  1  0  0  0
 62138  1  0  0  0
 62139  1  0  0  0
 62140  1  0  0  0
 63 65  1  0  0  0
 63141  1  0  0  0
 63142  1  0  0  0
 63143  1  0  0  0
 64144  1  0  0  0
 65145  1  0  0  0
 68 81  1  0  0  0
 71 82  1  0  0  0
 71 83  2  0  0  0
 71 77  1  0  0  0
 72 80  1  0  0  0
 72 82  2  0  0  0
 72 84  1  0  0  0
 73 81  1  0  0  0
 73 83  1  0  0  0
 73 84  2  0  0  0
 74 85  1  0  0  0
 74146  1  0  0  0
 74147  1  0  0  0
 74 78  1  0  0  0
 75 78  1  0  0  0
 75 86  1  0  0  0
 75148  1  0  0  0
 75149  1  0  0  0
 76 86  1  0  0  0
 76150  1  0  0  0
 76151  1  0  0  0
 76 79  1  0  0  0
 77 78  1  0  0  0
 77 79  1  0  0  0
 77152  1  0  0  0
 78153  1  0  0  0
 79 85  1  0  0  0
 79154  1  0  0  0
 80155  1  0  0  0
 80156  1  0  0  0
 80157  1  0  0  0
 81158  1  0  0  0
 81159  1  0  0  0
 86160  1  0  0  0
 86161  1  0  0  0
M  CHG  1  86   1
M  ISO  4   1 100  68 101  81 101  85 100
M  END
> <chiral flag>
0

> <version>
0

> <s_m_source_file>
/data/baiqing/PycharmProjects/Reinvent-master-3.2/result/LINK_invent/BTK/process_docking_weight1_custom_sum_contain_oxygen_bond_distance_aromatic_linkinvent_7_9_3/rearranged_h_0198.sdf

> <i_m_source_file_index>
33

> <r_mmod_Potential_Energy-OPLS-2005>
389.259857177734

> <r_mmod_Stretch_Energy-OPLS-2005>
399.807800292969

> <r_mmod_Bend_Energy-OPLS-2005>
492.437561035156

> <r_mmod_Torsional_Energy-OPLS-2005>
414.126159667969

> <r_mmod_Improper_Torsional_Energy-OPLS-2005>
12.8248624801636

> <r_mmod_Van_der_Waal_Energy-OPLS-2005>
147.236755371094

> <r_mmod_Electrostatic_Energy-OPLS-2005>
-866.317810058594

> <r_mmod_Solvation_Energy-OPLS-2005>
-490.994537353516

> <b_mmod_Minimization_Converged-OPLS-2005>
0

> <r_mmod_RMS_Derivative-OPLS-2005>
15.5170669555664

$$$$
33
                    3D
 Structure written by MMmdl.
166175  0  0  1  0            999 V2000
  -30.7036  -14.3802   20.6619 C   0  0  0  0  0  0
  -30.4241  -12.2951   19.3754 C   0  0  0  0  0  0
  -29.4780  -12.5291   18.1811 C   0  0  0  0  0  0
  -28.0003  -12.3858   18.6007 C   0  0  0  0  0  0
  -27.6607  -13.1932   19.8790 C   0  0  2  0  0  0
  -28.6984  -12.8991   20.9809 C   0  0  0  0  0  0
  -25.2578  -13.8117   20.5650 C   0  0  0  0  0  0
  -24.1819  -13.0414   20.9146 C   0  0  0  0  0  0
  -24.6367  -11.6876   20.8714 C   0  0  0  0  0  0
  -23.9027  -10.4274   21.0393 C   0  0  0  0  0  0
  -24.3587   -9.4202   21.9169 C   0  0  0  0  0  0
  -23.6275   -8.2236   22.0752 C   0  0  0  0  0  0
  -22.4256   -8.0272   21.3551 C   0  0  0  0  0  0
  -21.9881   -9.0235   20.4645 C   0  0  0  0  0  0
  -22.7201  -10.2115   20.3048 C   0  0  0  0  0  0
  -21.6845   -6.0714   22.5274 C   0  0  0  0  0  0
  -21.4016   -6.5630   23.8202 C   0  0  0  0  0  0
  -21.3661   -5.6792   24.9165 C   0  0  0  0  0  0
  -21.6047   -4.3057   24.7226 C   0  0  0  0  0  0
  -21.8818   -3.8137   23.4353 C   0  0  0  0  0  0
  -21.9187   -4.6940   22.3398 C   0  0  0  0  0  0
  -22.7848  -13.5244   21.1824 C   0  0  0  0  0  0
  -22.1656   -4.2128   21.0973 F   0  0  0  0  0  0
  -21.5630   -3.4540   25.7736 F   0  0  0  0  0  0
  -30.0317  -13.2269   20.4397 N   0  0  0  0  0  0
  -26.3008  -12.9268   20.3377 N   0  0  0  0  0  0
  -25.9291  -11.6443   20.5757 N   0  0  0  0  0  0
  -22.0496  -12.8243   22.0384 N   0  0  0  0  0  0
  -25.4308  -15.1840   20.4096 N   0  0  0  0  0  0
  -31.7897  -14.6571   20.1396 O   0  0  0  0  0  0
  -21.6641   -6.8858   21.4242 O   0  0  0  0  0  0
  -22.3540  -14.5545   20.6654 O   0  0  0  0  0  0
  -24.6122  -31.8657   23.2106 C   0  0  0  0  0  0
  -25.9006  -32.4823   23.8390 C   0  0  1  0  0  0
  -27.2411  -27.4428   20.0971 C   0  0  0  0  0  0
  -25.5844  -33.8627   24.2308 N   0  0  0  0  0  0
  -23.4035  -30.4909   21.5450 C   0  0  2  0  0  0
  -24.8522  -28.9563   20.1129 C   0  0  0  0  0  0
  -22.7429  -29.4629   22.4922 C   0  0  0  0  0  0
  -18.0299  -28.1417   22.8493 C   0  0  0  0  0  0
  -24.1482  -36.7317   23.2652 C   0  0  0  0  0  0
  -25.9331  -30.8366   21.3640 C   0  0  0  0  0  0
  -26.0111  -29.4720   20.7097 C   0  0  0  0  0  0
  -27.2067  -28.7224   20.6960 C   0  0  0  0  0  0
  -26.0594  -26.9391   19.5002 C   0  0  0  0  0  0
  -24.8697  -27.6891   19.5075 C   0  0  0  0  0  0
  -23.6179  -29.8280   20.1571 C   0  0  0  0  0  0
  -25.4105  -36.3103   24.0334 C   0  0  1  0  0  0
  -20.5891  -28.3683   23.1312 C   0  0  2  0  0  0
  -20.6806  -26.9432   22.5398 C   0  0  0  0  0  0
  -19.5784  -26.6421   21.5217 C   0  0  0  0  0  0
  -18.1955  -26.7976   22.1617 C   0  0  0  0  0  0
  -19.1549  -28.8859   23.2912 C   0  0  0  0  0  0
  -18.9483  -30.1484   23.8889 C   0  0  0  0  0  0
  -17.6483  -30.6609   24.0582 C   0  0  0  0  0  0
  -25.9031  -34.9484   23.5156 C   0  0  0  0  0  0
  -16.5382  -29.9111   23.6339 C   0  0  0  0  0  0
  -16.7281  -28.6541   23.0335 C   0  0  0  0  0  0
  -26.4448  -31.6631   25.0740 C   0  0  0  0  0  0
  -25.3758  -31.3738   26.1531 C   0  0  0  0  0  0
  -27.0323  -30.3094   24.6128 C   0  0  0  0  0  0
  -27.6004  -32.4360   25.7482 C   0  0  0  0  0  0
  -27.5582  -37.1824   24.8481 C   0  0  0  0  0  0
  -21.4153  -29.3027   22.3681 N   0  0  0  0  0  0
  -26.4300  -37.3809   23.9398 N   0  0  0  0  0  0
  -24.6665  -31.0802   22.0969 N   0  0  0  0  0  0
  -23.4198  -28.8157   23.2965 O   0  0  0  0  0  0
  -28.4262  -26.7362   20.1038 O   0  0  0  0  0  0
  -26.5663  -34.8952   22.4754 O   0  0  0  0  0  0
  -23.5294  -32.1381   23.7489 O   0  0  0  0  0  0
  -32.3106  -21.7161   25.2578 C   0  0  0  0  0  0
  -32.2479  -20.3121   25.4884 C   0  0  0  0  0  0
  -30.5864  -21.2826   23.5875 C   0  0  0  0  0  0
  -31.4363  -22.1936   24.2728 C   0  0  0  0  0  0
  -31.3399  -19.4888   24.7417 C   0  0  0  0  0  0
  -30.1263  -22.4662   22.8731 C   0  0  0  0  0  0
  -31.2950  -17.9881   24.9578 C   0  0  0  0  0  0
  -29.0928  -22.6445   21.7791 C   0  0  0  0  0  0
  -30.6328  -16.4444   22.0585 C   0  0  0  0  0  0
  -31.4561  -16.1220   23.3195 C   0  0  0  0  0  0
  -29.7135  -24.6791   20.4321 C   0  0  0  0  0  0
  -28.3281  -25.3130   20.1849 C   0  0  0  0  0  0
  -30.5050  -19.9630   23.7735 N   0  0  0  0  0  0
  -30.0776  -15.2251   21.4893 N   0  0  0  0  0  0
  -32.0591  -17.3419   23.8818 N   0  3  0  0  0  0
  -29.6614  -23.1969   20.5315 N   0  3  0  0  0  0
  -30.9894  -23.3463   23.5775 O   0  0  0  0  0  0
  -31.4634  -12.4277   19.0677 H   0  0  0  0  0  0
  -30.3488  -11.2670   19.7310 H   0  0  0  0  0  0
  -29.7083  -11.8345   17.3723 H   0  0  0  0  0  0
  -29.6425  -13.5299   17.7784 H   0  0  0  0  0  0
  -27.8011  -11.3271   18.7695 H   0  0  0  0  0  0
  -27.3497  -12.6902   17.7813 H   0  0  0  0  0  0
  -27.7264  -14.2500   19.6230 H   0  0  0  0  0  0
  -28.6746  -11.8409   21.2475 H   0  0  0  0  0  0
  -28.4526  -13.4244   21.9043 H   0  0  0  0  0  0
  -25.2729   -9.5681   22.4751 H   0  0  0  0  0  0
  -23.9971   -7.4635   22.7490 H   0  0  0  0  0  0
  -21.0798   -8.8747   19.8969 H   0  0  0  0  0  0
  -22.3641  -10.9649   19.6166 H   0  0  0  0  0  0
  -21.2016   -7.6138   23.9694 H   0  0  0  0  0  0
  -21.1489   -6.0523   25.9064 H   0  0  0  0  0  0
  -22.0595   -2.7599   23.2852 H   0  0  0  0  0  0
  -22.4102  -11.9904   22.4772 H   0  0  0  0  0  0
  -21.1146  -13.1296   22.2638 H   0  0  0  0  0  0
  -24.6574  -15.8353   20.5037 H   0  0  0  0  0  0
  -26.2885  -15.6301   20.1066 H   0  0  0  0  0  0
  -26.7072  -32.5524   23.1131 H   0  0  0  0  0  0
  -24.9870  -33.9797   25.0362 H   0  0  0  0  0  0
  -22.6895  -31.3049   21.4003 H   0  0  0  0  0  0
  -23.3762  -35.9646   23.3340 H   0  0  0  0  0  0
  -24.3578  -36.8917   22.2065 H   0  0  0  0  0  0
  -23.7253  -37.6532   23.6666 H   0  0  0  0  0  0
  -26.0576  -31.6065   20.6020 H   0  0  0  0  0  0
  -26.8163  -30.8780   21.9874 H   0  0  0  0  0  0
  -28.1039  -29.1149   21.1565 H   0  0  0  0  0  0
  -26.0331  -25.9740   19.0152 H   0  0  0  0  0  0
  -23.9796  -27.2917   19.0411 H   0  0  0  0  0  0
  -23.7433  -30.6089   19.4062 H   0  0  0  0  0  0
  -22.7363  -29.2575   19.8513 H   0  0  0  0  0  0
  -25.1302  -36.1954   25.0841 H   0  0  0  0  0  0
  -21.0012  -28.3254   24.1423 H   0  0  0  0  0  0
  -20.5804  -26.2261   23.3561 H   0  0  0  0  0  0
  -21.6663  -26.7536   22.1150 H   0  0  0  0  0  0
  -19.6983  -25.6337   21.1237 H   0  0  0  0  0  0
  -19.6763  -27.3218   20.6748 H   0  0  0  0  0  0
  -17.4251  -26.6716   21.4004 H   0  0  0  0  0  0
  -18.0341  -26.0145   22.9017 H   0  0  0  0  0  0
  -19.7960  -30.7340   24.2195 H   0  0  0  0  0  0
  -17.5051  -31.6276   24.5218 H   0  0  0  0  0  0
  -15.5384  -30.3022   23.7704 H   0  0  0  0  0  0
  -15.8689  -28.0903   22.6986 H   0  0  0  0  0  0
  -24.5904  -30.7092   25.7935 H   0  0  0  0  0  0
  -24.8993  -32.2893   26.5034 H   0  0  0  0  0  0
  -25.8183  -30.8910   27.0258 H   0  0  0  0  0  0
  -26.2892  -29.6773   24.1270 H   0  0  0  0  0  0
  -27.4218  -29.7386   25.4558 H   0  0  0  0  0  0
  -27.8639  -30.4436   23.9214 H   0  0  0  0  0  0
  -27.2608  -33.3642   26.2080 H   0  0  0  0  0  0
  -28.3794  -32.6964   25.0304 H   0  0  0  0  0  0
  -28.0735  -31.8525   26.5388 H   0  0  0  0  0  0
  -28.2622  -38.0101   24.7525 H   0  0  0  0  0  0
  -28.1059  -36.2650   24.6306 H   0  0  0  0  0  0
  -27.2317  -37.1465   25.8896 H   0  0  0  0  0  0
  -20.9290  -29.8732   21.6909 H   0  0  0  0  0  0
  -26.0184  -38.2884   24.1444 H   0  0  0  0  0  0
  -32.9829  -22.3618   25.8022 H   0  0  0  0  0  0
  -32.9029  -19.8667   26.2244 H   0  0  0  0  0  0
  -30.2493  -17.6701   24.9619 H   0  0  0  0  0  0
  -31.7129  -17.7085   25.9255 H   0  0  0  0  0  0
  -28.2566  -23.2300   22.1530 H   0  0  0  0  0  0
  -28.6950  -21.6537   21.5596 H   0  0  0  0  0  0
  -31.2464  -16.9602   21.3176 H   0  0  0  0  0  0
  -29.8067  -17.1144   22.3025 H   0  0  0  0  0  0
  -32.2692  -15.4419   23.0646 H   0  0  0  0  0  0
  -30.8497  -15.6039   24.0669 H   0  0  0  0  0  0
  -30.1863  -25.0955   21.3195 H   0  0  0  0  0  0
  -30.3595  -24.9337   19.5921 H   0  0  0  0  0  0
  -27.6476  -25.0500   20.9987 H   0  0  0  0  0  0
  -27.9142  -24.9062   19.2616 H   0  0  0  0  0  0
  -29.8520  -19.3811   23.2656 H   0  0  0  0  0  0
  -29.1568  -14.9446   21.7981 H   0  0  0  0  0  0
  -32.9783  -17.1258   24.2292 H   0  0  0  0  0  0
  -32.1588  -18.0265   23.1505 H   0  0  0  0  0  0
  -30.5906  -22.8185   20.4383 H   0  0  0  0  0  0
  -29.1219  -22.8362   19.7597 H   0  0  0  0  0  0
  1 25  1  0  0  0
  1 30  2  0  0  0
  1 84  1  0  0  0
  2  3  1  0  0  0
  2 25  1  0  0  0
  2 88  1  0  0  0
  2 89  1  0  0  0
  3  4  1  0  0  0
  3 90  1  0  0  0
  3 91  1  0  0  0
  4  5  1  0  0  0
  4 92  1  0  0  0
  4 93  1  0  0  0
  5  6  1  0  0  0
  5 26  1  0  0  0
  5 94  1  0  0  0
  6 25  1  0  0  0
  6 95  1  0  0  0
  6 96  1  0  0  0
  7  8  2  0  0  0
  7 26  1  0  0  0
  7 29  1  0  0  0
  8  9  1  0  0  0
  8 22  1  0  0  0
  9 10  1  0  0  0
  9 27  2  0  0  0
 10 11  2  0  0  0
 10 15  1  0  0  0
 11 12  1  0  0  0
 11 97  1  0  0  0
 12 13  2  0  0  0
 12 98  1  0  0  0
 13 14  1  0  0  0
 13 31  1  0  0  0
 14 15  2  0  0  0
 14 99  1  0  0  0
 15100  1  0  0  0
 16 17  2  0  0  0
 16 21  1  0  0  0
 16 31  1  0  0  0
 17 18  1  0  0  0
 17101  1  0  0  0
 18 19  2  0  0  0
 18102  1  0  0  0
 19 20  1  0  0  0
 19 24  1  0  0  0
 20 21  2  0  0  0
 20103  1  0  0  0
 21 23  1  0  0  0
 22 28  1  0  0  0
 22 32  2  0  0  0
 26 27  1  0  0  0
 28104  1  0  0  0
 28105  1  0  0  0
 29106  1  0  0  0
 29107  1  0  0  0
 33 34  1  0  0  0
 33 66  1  0  0  0
 33 70  2  0  0  0
 34 36  1  0  0  0
 34 59  1  0  0  0
 34108  1  0  0  0
 35 44  2  0  0  0
 35 45  1  0  0  0
 35 68  1  0  0  0
 36 56  1  0  0  0
 36109  1  0  0  0
 37 39  1  0  0  0
 37 47  1  0  0  0
 37 66  1  0  0  0
 37110  1  0  0  0
 38 43  2  0  0  0
 38 46  1  0  0  0
 38 47  1  0  0  0
 39 64  1  0  0  0
 39 67  2  0  0  0
 40 52  1  0  0  0
 40 53  2  0  0  0
 40 58  1  0  0  0
 41111  1  0  0  0
 41112  1  0  0  0
 41113  1  0  0  0
 41 48  1  0  0  0
 42 43  1  0  0  0
 42 66  1  0  0  0
 42114  1  0  0  0
 42115  1  0  0  0
 43 44  1  0  0  0
 44116  1  0  0  0
 45 46  2  0  0  0
 45117  1  0  0  0
 46118  1  0  0  0
 47119  1  0  0  0
 47120  1  0  0  0
 48 56  1  0  0  0
 48 65  1  0  0  0
 48121  1  0  0  0
 49 50  1  0  0  0
 49 53  1  0  0  0
 49 64  1  0  0  0
 49122  1  0  0  0
 50 51  1  0  0  0
 50123  1  0  0  0
 50124  1  0  0  0
 51 52  1  0  0  0
 51125  1  0  0  0
 51126  1  0  0  0
 52127  1  0  0  0
 52128  1  0  0  0
 53 54  1  0  0  0
 54 55  2  0  0  0
 54129  1  0  0  0
 55 57  1  0  0  0
 55130  1  0  0  0
 56 69  2  0  0  0
 57 58  2  0  0  0
 57131  1  0  0  0
 58132  1  0  0  0
 59 60  1  0  0  0
 59 61  1  0  0  0
 59 62  1  0  0  0
 60133  1  0  0  0
 60134  1  0  0  0
 60135  1  0  0  0
 61136  1  0  0  0
 61137  1  0  0  0
 61138  1  0  0  0
 62139  1  0  0  0
 62140  1  0  0  0
 62141  1  0  0  0
 63 65  1  0  0  0
 63142  1  0  0  0
 63143  1  0  0  0
 63144  1  0  0  0
 64145  1  0  0  0
 65146  1  0  0  0
 68 82  1  0  0  0
 71 72  1  0  0  0
 71 74  2  0  0  0
 71147  1  0  0  0
 72 75  2  0  0  0
 72148  1  0  0  0
 73 74  1  0  0  0
 73 76  2  0  0  0
 73 83  1  0  0  0
 74 87  1  0  0  0
 75 77  1  0  0  0
 75 83  1  0  0  0
 76 78  1  0  0  0
 76 87  1  0  0  0
 77 85  1  0  0  0
 77149  1  0  0  0
 77150  1  0  0  0
 78 86  1  0  0  0
 78151  1  0  0  0
 78152  1  0  0  0
 79 80  1  0  0  0
 79 84  1  0  0  0
 79153  1  0  0  0
 79154  1  0  0  0
 80 85  1  0  0  0
 80155  1  0  0  0
 80156  1  0  0  0
 81 82  1  0  0  0
 81 86  1  0  0  0
 81157  1  0  0  0
 81158  1  0  0  0
 82159  1  0  0  0
 82160  1  0  0  0
 83161  1  0  0  0
 84162  1  0  0  0
 85163  1  0  0  0
 85164  1  0  0  0
 86165  1  0  0  0
 86166  1  0  0  0
M  CHG  2  85   1  86   1
M  ISO  4   1 100  68 101  82 101  84 100
M  END
> <chiral flag>
0

> <version>
0

> <s_m_source_file>
/data/baiqing/PycharmProjects/Reinvent-master-3.2/result/LINK_invent/BTK/process_docking_weight1_custom_sum_contain_oxygen_bond_distance_aromatic_linkinvent_7_9_3/rearranged_h_0198.sdf

> <i_m_source_file_index>
34

> <r_mmod_Potential_Energy-OPLS-2005>
-88.965950012207

> <r_mmod_Stretch_Energy-OPLS-2005>
54.8896865844727

> <r_mmod_Bend_Energy-OPLS-2005>
535.248779296875

> <r_mmod_Torsional_Energy-OPLS-2005>
207.505813598633

> <r_mmod_Improper_Torsional_Energy-OPLS-2005>
1.86149656772614

> <r_mmod_Van_der_Waal_Energy-OPLS-2005>
154.933822631836

> <r_mmod_Electrostatic_Energy-OPLS-2005>
-123.240478515625

> <r_mmod_Solvation_Energy-OPLS-2005>
-929.830810546875

> <b_mmod_Minimization_Converged-OPLS-2005>
0

> <r_mmod_RMS_Derivative-OPLS-2005>
5.08629417419434

$$$$
34
                    3D
 Structure written by MMmdl.
164174  0  0  1  0            999 V2000
  -30.6620  -14.5894   20.4775 C   0  0  0  0  0  0
  -30.4231  -12.3561   19.4467 C   0  0  0  0  0  0
  -29.5010  -12.4934   18.2173 C   0  0  0  0  0  0
  -28.0234  -12.3457   18.6300 C   0  0  0  0  0  0
  -27.6511  -13.2192   19.8591 C   0  0  2  0  0  0
  -28.6974  -13.0897   20.9878 C   0  0  0  0  0  0
  -25.2589  -13.8136   20.5719 C   0  0  0  0  0  0
  -24.1834  -13.0419   20.9181 C   0  0  0  0  0  0
  -24.6400  -11.6890   20.8725 C   0  0  0  0  0  0
  -23.9061  -10.4281   21.0397 C   0  0  0  0  0  0
  -24.3609   -9.4196   21.9179 C   0  0  0  0  0  0
  -23.6288   -8.2229   22.0750 C   0  0  0  0  0  0
  -22.4273   -8.0266   21.3539 C   0  0  0  0  0  0
  -21.9905   -9.0240   20.4643 C   0  0  0  0  0  0
  -22.7231  -10.2124   20.3051 C   0  0  0  0  0  0
  -21.6846   -6.0731   22.5282 C   0  0  0  0  0  0
  -21.4003   -6.5636   23.8214 C   0  0  0  0  0  0
  -21.3663   -5.6790   24.9179 C   0  0  0  0  0  0
  -21.6050   -4.3053   24.7228 C   0  0  0  0  0  0
  -21.8821   -3.8144   23.4347 C   0  0  0  0  0  0
  -21.9190   -4.6959   22.3406 C   0  0  0  0  0  0
  -22.7865  -13.5229   21.1850 C   0  0  0  0  0  0
  -22.1662   -4.2146   21.0984 F   0  0  0  0  0  0
  -21.5635   -3.4539   25.7739 F   0  0  0  0  0  0
  -30.0108  -13.3922   20.4079 N   0  0  0  0  0  0
  -26.3002  -12.9336   20.3330 N   0  0  0  0  0  0
  -25.9332  -11.6484   20.5748 N   0  0  0  0  0  0
  -22.0493  -12.8230   22.0406 N   0  0  0  0  0  0
  -25.4341  -15.1830   20.4240 N   0  0  0  0  0  0
  -31.8557  -14.6890   20.1796 O   0  0  0  0  0  0
  -21.6635   -6.8867   21.4240 O   0  0  0  0  0  0
  -22.3558  -14.5540   20.6705 O   0  0  0  0  0  0
  -24.6237  -31.8633   23.2080 C   0  0  0  0  0  0
  -25.9102  -32.4795   23.8387 C   0  0  1  0  0  0
  -27.2122  -27.3449   20.1005 C   0  0  0  0  0  0
  -25.5930  -33.8596   24.2310 N   0  0  0  0  0  0
  -23.4144  -30.4923   21.5510 C   0  0  2  0  0  0
  -24.8577  -28.9623   20.1072 C   0  0  0  0  0  0
  -22.7464  -29.4641   22.4949 C   0  0  0  0  0  0
  -18.0282  -28.1378   22.8488 C   0  0  0  0  0  0
  -24.1489  -36.7301   23.2639 C   0  0  0  0  0  0
  -25.9562  -30.8014   21.3783 C   0  0  0  0  0  0
  -26.0278  -29.4341   20.7156 C   0  0  0  0  0  0
  -27.2082  -28.6358   20.7085 C   0  0  0  0  0  0
  -26.0194  -26.9371   19.4506 C   0  0  0  0  0  0
  -24.8544  -27.7178   19.4667 C   0  0  0  0  0  0
  -23.6257  -29.8383   20.1622 C   0  0  0  0  0  0
  -25.4112  -36.3093   24.0332 C   0  0  1  0  0  0
  -20.5882  -28.3676   23.1288 C   0  0  2  0  0  0
  -20.6770  -26.9401   22.5407 C   0  0  0  0  0  0
  -19.5746  -26.6377   21.5211 C   0  0  0  0  0  0
  -18.1927  -26.7921   22.1624 C   0  0  0  0  0  0
  -19.1534  -28.8845   23.2883 C   0  0  0  0  0  0
  -18.9459  -30.1450   23.8896 C   0  0  0  0  0  0
  -17.6458  -30.6580   24.0561 C   0  0  0  0  0  0
  -25.9047  -34.9460   23.5118 C   0  0  0  0  0  0
  -16.5349  -29.9079   23.6329 C   0  0  0  0  0  0
  -16.7268  -28.6497   23.0348 C   0  0  0  0  0  0
  -26.4494  -31.6592   25.0741 C   0  0  0  0  0  0
  -25.3738  -31.3712   26.1474 C   0  0  0  0  0  0
  -27.0329  -30.3016   24.6179 C   0  0  0  0  0  0
  -27.6054  -32.4320   25.7513 C   0  0  0  0  0  0
  -27.5578  -37.1808   24.8465 C   0  0  0  0  0  0
  -21.4180  -29.3040   22.3694 N   0  0  0  0  0  0
  -26.4293  -37.3782   23.9408 N   0  0  0  0  0  0
  -24.6836  -31.0674   22.1027 N   0  0  0  0  0  0
  -23.4211  -28.8161   23.2995 O   0  0  0  0  0  0
  -28.3189  -26.4848   20.1647 O   0  0  0  0  0  0
  -26.5606  -34.8917   22.4677 O   0  0  0  0  0  0
  -23.5409  -32.1421   23.7426 O   0  0  0  0  0  0
  -26.8388  -20.1352   19.9173 C   0  0  0  0  0  0
  -26.3574  -18.8072   19.8264 C   0  0  0  0  0  0
  -28.1676  -20.0374   20.2513 C   0  0  0  0  0  0
  -23.7757  -19.2713   19.6214 C   0  0  0  0  0  0
  -23.9442  -18.1132   20.5768 C   0  0  0  0  0  0
  -30.1487  -16.8581   19.5624 C   0  0  0  0  0  0
  -29.6258  -16.6236   21.5808 C   0  0  0  0  0  0
  -24.9651  -18.3479   19.4884 C   0  0  0  0  0  0
  -29.6290  -17.8433   20.6223 C   0  0  0  0  0  0
  -29.1013  -21.2444   20.4601 C   0  0  0  0  0  0
  -29.0133  -23.8962   20.3757 C   0  0  0  0  0  0
  -28.0392  -25.0563   19.9287 C   0  0  0  0  0  0
  -27.3015  -17.9280   20.0958 N   0  0  0  0  0  0
  -28.4273  -18.6415   20.3549 N   0  0  0  0  0  0
  -29.8664  -15.7028   20.4497 N   0  0  0  0  0  0
  -28.4227  -22.5350   20.0696 N   0  3  0  0  0  0
  -31.4688  -12.4549   19.1496 H   0  0  0  0  0  0
  -30.3294  -11.3659   19.8947 H   0  0  0  0  0  0
  -29.7569  -11.7445   17.4672 H   0  0  0  0  0  0
  -29.6549  -13.4652   17.7453 H   0  0  0  0  0  0
  -27.8497  -11.2932   18.8573 H   0  0  0  0  0  0
  -27.3717  -12.5839   17.7887 H   0  0  0  0  0  0
  -27.6638  -14.2543   19.5154 H   0  0  0  0  0  0
  -28.6952  -12.0835   21.4086 H   0  0  0  0  0  0
  -28.4651  -13.7705   21.8082 H   0  0  0  0  0  0
  -25.2747   -9.5674   22.4762 H   0  0  0  0  0  0
  -23.9995   -7.4619   22.7471 H   0  0  0  0  0  0
  -21.0831   -8.8753   19.8955 H   0  0  0  0  0  0
  -22.3675  -10.9661   19.6165 H   0  0  0  0  0  0
  -21.1983   -7.6141   23.9718 H   0  0  0  0  0  0
  -21.1492   -6.0520   25.9085 H   0  0  0  0  0  0
  -22.0598   -2.7604   23.2850 H   0  0  0  0  0  0
  -22.4083  -11.9880   22.4791 H   0  0  0  0  0  0
  -21.1119  -13.1274   22.2605 H   0  0  0  0  0  0
  -24.6801  -15.8395   20.5834 H   0  0  0  0  0  0
  -26.3107  -15.6463   20.2035 H   0  0  0  0  0  0
  -26.7170  -32.5468   23.1136 H   0  0  0  0  0  0
  -25.0088  -33.9752   25.0460 H   0  0  0  0  0  0
  -22.7068  -31.3128   21.4151 H   0  0  0  0  0  0
  -23.3747  -35.9637   23.3304 H   0  0  0  0  0  0
  -24.3582  -36.8917   22.2052 H   0  0  0  0  0  0
  -23.7246  -37.6508   23.6656 H   0  0  0  0  0  0
  -26.0892  -31.5687   20.6143 H   0  0  0  0  0  0
  -26.8372  -30.8433   22.0071 H   0  0  0  0  0  0
  -28.1022  -28.9901   21.2021 H   0  0  0  0  0  0
  -25.9389  -25.9986   18.9238 H   0  0  0  0  0  0
  -23.9607  -27.3575   18.9748 H   0  0  0  0  0  0
  -23.7421  -30.6200   19.4104 H   0  0  0  0  0  0
  -22.7458  -29.2681   19.8585 H   0  0  0  0  0  0
  -25.1289  -36.1950   25.0825 H   0  0  0  0  0  0
  -20.9974  -28.3239   24.1407 H   0  0  0  0  0  0
  -20.5670  -26.2282   23.3603 H   0  0  0  0  0  0
  -21.6639  -26.7434   22.1195 H   0  0  0  0  0  0
  -19.6906  -25.6289   21.1237 H   0  0  0  0  0  0
  -19.6685  -27.3190   20.6744 H   0  0  0  0  0  0
  -17.4197  -26.6670   21.4026 H   0  0  0  0  0  0
  -18.0326  -26.0060   22.9017 H   0  0  0  0  0  0
  -19.7936  -30.7265   24.2262 H   0  0  0  0  0  0
  -17.5013  -31.6260   24.5159 H   0  0  0  0  0  0
  -15.5348  -30.2982   23.7652 H   0  0  0  0  0  0
  -15.8667  -28.0817   22.7064 H   0  0  0  0  0  0
  -24.5918  -30.7054   25.7809 H   0  0  0  0  0  0
  -24.8925  -32.2870   26.4914 H   0  0  0  0  0  0
  -25.8077  -30.8887   27.0241 H   0  0  0  0  0  0
  -26.2895  -29.6774   24.1206 H   0  0  0  0  0  0
  -27.4036  -29.7262   25.4672 H   0  0  0  0  0  0
  -27.8765  -30.4306   23.9392 H   0  0  0  0  0  0
  -27.2662  -33.3617   26.2094 H   0  0  0  0  0  0
  -28.3865  -32.6884   25.0343 H   0  0  0  0  0  0
  -28.0719  -31.8442   26.5429 H   0  0  0  0  0  0
  -28.2595  -38.0106   24.7506 H   0  0  0  0  0  0
  -28.1074  -36.2635   24.6296 H   0  0  0  0  0  0
  -27.2294  -37.1461   25.8868 H   0  0  0  0  0  0
  -20.9346  -29.8790   21.6935 H   0  0  0  0  0  0
  -26.0174  -38.2858   24.1405 H   0  0  0  0  0  0
  -26.2565  -21.0290   19.7470 H   0  0  0  0  0  0
  -23.9398  -20.2720   20.0161 H   0  0  0  0  0  0
  -22.9986  -19.1923   18.8645 H   0  0  0  0  0  0
  -23.2652  -17.2705   20.4639 H   0  0  0  0  0  0
  -24.2424  -18.3392   21.5985 H   0  0  0  0  0  0
  -31.2040  -17.0153   19.3303 H   0  0  0  0  0  0
  -29.5563  -16.8613   18.6467 H   0  0  0  0  0  0
  -28.6690  -16.4669   22.0794 H   0  0  0  0  0  0
  -30.4382  -16.6514   22.3093 H   0  0  0  0  0  0
  -24.9648  -17.6606   18.6440 H   0  0  0  0  0  0
  -30.4088  -18.5514   20.9057 H   0  0  0  0  0  0
  -30.0151  -21.1204   19.8789 H   0  0  0  0  0  0
  -29.3957  -21.2957   21.5083 H   0  0  0  0  0  0
  -29.2007  -23.9717   21.4473 H   0  0  0  0  0  0
  -29.9752  -24.0012   19.8734 H   0  0  0  0  0  0
  -27.0964  -24.8198   20.4258 H   0  0  0  0  0  0
  -27.8710  -24.9364   18.8572 H   0  0  0  0  0  0
  -27.5216  -22.4894   20.5184 H   0  0  0  0  0  0
  -28.2571  -22.4727   19.0770 H   0  0  0  0  0  0
  1 25  1  0  0  0
  1 30  2  0  0  0
  1 85  1  0  0  0
  2  3  1  0  0  0
  2 25  1  0  0  0
  2 87  1  0  0  0
  2 88  1  0  0  0
  3  4  1  0  0  0
  3 89  1  0  0  0
  3 90  1  0  0  0
  4  5  1  0  0  0
  4 91  1  0  0  0
  4 92  1  0  0  0
  5  6  1  0  0  0
  5 26  1  0  0  0
  5 93  1  0  0  0
  6 25  1  0  0  0
  6 94  1  0  0  0
  6 95  1  0  0  0
  7  8  2  0  0  0
  7 26  1  0  0  0
  7 29  1  0  0  0
  8  9  1  0  0  0
  8 22  1  0  0  0
  9 10  1  0  0  0
  9 27  2  0  0  0
 10 11  2  0  0  0
 10 15  1  0  0  0
 11 12  1  0  0  0
 11 96  1  0  0  0
 12 13  2  0  0  0
 12 97  1  0  0  0
 13 14  1  0  0  0
 13 31  1  0  0  0
 14 15  2  0  0  0
 14 98  1  0  0  0
 15 99  1  0  0  0
 16 17  2  0  0  0
 16 21  1  0  0  0
 16 31  1  0  0  0
 17 18  1  0  0  0
 17100  1  0  0  0
 18 19  2  0  0  0
 18101  1  0  0  0
 19 20  1  0  0  0
 19 24  1  0  0  0
 20 21  2  0  0  0
 20102  1  0  0  0
 21 23  1  0  0  0
 22 28  1  0  0  0
 22 32  2  0  0  0
 26 27  1  0  0  0
 28103  1  0  0  0
 28104  1  0  0  0
 29105  1  0  0  0
 29106  1  0  0  0
 33 34  1  0  0  0
 33 66  1  0  0  0
 33 70  2  0  0  0
 34 36  1  0  0  0
 34 59  1  0  0  0
 34107  1  0  0  0
 35 44  2  0  0  0
 35 45  1  0  0  0
 35 68  1  0  0  0
 36 56  1  0  0  0
 36108  1  0  0  0
 37 39  1  0  0  0
 37 47  1  0  0  0
 37 66  1  0  0  0
 37109  1  0  0  0
 38 43  2  0  0  0
 38 46  1  0  0  0
 38 47  1  0  0  0
 39 64  1  0  0  0
 39 67  2  0  0  0
 40 52  1  0  0  0
 40 53  2  0  0  0
 40 58  1  0  0  0
 41110  1  0  0  0
 41111  1  0  0  0
 41112  1  0  0  0
 41 48  1  0  0  0
 42 43  1  0  0  0
 42 66  1  0  0  0
 42113  1  0  0  0
 42114  1  0  0  0
 43 44  1  0  0  0
 44115  1  0  0  0
 45 46  2  0  0  0
 45116  1  0  0  0
 46117  1  0  0  0
 47118  1  0  0  0
 47119  1  0  0  0
 48 56  1  0  0  0
 48 65  1  0  0  0
 48120  1  0  0  0
 49 50  1  0  0  0
 49 53  1  0  0  0
 49 64  1  0  0  0
 49121  1  0  0  0
 50 51  1  0  0  0
 50122  1  0  0  0
 50123  1  0  0  0
 51 52  1  0  0  0
 51124  1  0  0  0
 51125  1  0  0  0
 52126  1  0  0  0
 52127  1  0  0  0
 53 54  1  0  0  0
 54 55  2  0  0  0
 54128  1  0  0  0
 55 57  1  0  0  0
 55129  1  0  0  0
 56 69  2  0  0  0
 57 58  2  0  0  0
 57130  1  0  0  0
 58131  1  0  0  0
 59 60  1  0  0  0
 59 61  1  0  0  0
 59 62  1  0  0  0
 60132  1  0  0  0
 60133  1  0  0  0
 60134  1  0  0  0
 61135  1  0  0  0
 61136  1  0  0  0
 61137  1  0  0  0
 62138  1  0  0  0
 62139  1  0  0  0
 62140  1  0  0  0
 63 65  1  0  0  0
 63141  1  0  0  0
 63142  1  0  0  0
 63143  1  0  0  0
 64144  1  0  0  0
 65145  1  0  0  0
 68 82  1  0  0  0
 71 72  1  0  0  0
 71 73  2  0  0  0
 71146  1  0  0  0
 72 83  2  0  0  0
 72 78  1  0  0  0
 73 80  1  0  0  0
 73 84  1  0  0  0
 74 75  1  0  0  0
 74 78  1  0  0  0
 74147  1  0  0  0
 74148  1  0  0  0
 75 78  1  0  0  0
 75149  1  0  0  0
 75150  1  0  0  0
 76 79  1  0  0  0
 76 85  1  0  0  0
 76151  1  0  0  0
 76152  1  0  0  0
 77 79  1  0  0  0
 77 85  1  0  0  0
 77153  1  0  0  0
 77154  1  0  0  0
 78155  1  0  0  0
 79 84  1  0  0  0
 79156  1  0  0  0
 80 86  1  0  0  0
 80157  1  0  0  0
 80158  1  0  0  0
 81 82  1  0  0  0
 81 86  1  0  0  0
 81159  1  0  0  0
 81160  1  0  0  0
 82161  1  0  0  0
 82162  1  0  0  0
 83 84  1  0  0  0
 86163  1  0  0  0
 86164  1  0  0  0
M  CHG  1  86   1
M  ISO  4   1 100  68 101  82 101  85 100
M  END
> <chiral flag>
0

> <version>
0

> <s_m_source_file>
/data/baiqing/PycharmProjects/Reinvent-master-3.2/result/LINK_invent/BTK/process_docking_weight1_custom_sum_contain_oxygen_bond_distance_aromatic_linkinvent_7_9_3/rearranged_h_0198.sdf

> <i_m_source_file_index>
35

> <r_mmod_Potential_Energy-OPLS-2005>
-74.0993804931641

> <r_mmod_Stretch_Energy-OPLS-2005>
63.7281951904297

> <r_mmod_Bend_Energy-OPLS-2005>
140.168914794922

> <r_mmod_Torsional_Energy-OPLS-2005>
304.104522705078

> <r_mmod_Improper_Torsional_Energy-OPLS-2005>
19.2076015472412

> <r_mmod_Van_der_Waal_Energy-OPLS-2005>
117.310134887695

> <r_mmod_Electrostatic_Energy-OPLS-2005>
-289.188171386719

> <r_mmod_Solvation_Energy-OPLS-2005>
-471.950347900391

> <b_mmod_Minimization_Converged-OPLS-2005>
0

> <r_mmod_RMS_Derivative-OPLS-2005>
0.887313783168793

$$$$
35
                    3D
 Structure written by MMmdl.
162171  0  0  1  0            999 V2000
  -30.6891  -14.6020   20.4763 C   0  0  0  0  0  0
  -30.4171  -12.3685   19.4489 C   0  0  0  0  0  0
  -29.4955  -12.4839   18.2177 C   0  0  0  0  0  0
  -28.0194  -12.3373   18.6351 C   0  0  0  0  0  0
  -27.6439  -13.2214   19.8556 C   0  0  2  0  0  0
  -28.6938  -13.1242   20.9843 C   0  0  0  0  0  0
  -25.2527  -13.8176   20.5715 C   0  0  0  0  0  0
  -24.1801  -13.0434   20.9204 C   0  0  0  0  0  0
  -24.6382  -11.6908   20.8757 C   0  0  0  0  0  0
  -23.9060  -10.4288   21.0411 C   0  0  0  0  0  0
  -24.3613   -9.4203   21.9186 C   0  0  0  0  0  0
  -23.6289   -8.2237   22.0754 C   0  0  0  0  0  0
  -22.4272   -8.0277   21.3544 C   0  0  0  0  0  0
  -21.9907   -9.0250   20.4648 C   0  0  0  0  0  0
  -22.7233  -10.2129   20.3060 C   0  0  0  0  0  0
  -21.6852   -6.0734   22.5279 C   0  0  0  0  0  0
  -21.4013   -6.5638   23.8212 C   0  0  0  0  0  0
  -21.3658   -5.6791   24.9175 C   0  0  0  0  0  0
  -21.6044   -4.3054   24.7226 C   0  0  0  0  0  0
  -21.8819   -3.8147   23.4347 C   0  0  0  0  0  0
  -21.9192   -4.6963   22.3403 C   0  0  0  0  0  0
  -22.7825  -13.5227   21.1859 C   0  0  0  0  0  0
  -22.1662   -4.2149   21.0980 F   0  0  0  0  0  0
  -21.5629   -3.4539   25.7738 F   0  0  0  0  0  0
  -30.0052  -13.4206   20.3964 N   0  0  0  0  0  0
  -26.2951  -12.9365   20.3337 N   0  0  0  0  0  0
  -25.9313  -11.6516   20.5786 N   0  0  0  0  0  0
  -22.0466  -12.8221   22.0414 N   0  0  0  0  0  0
  -25.4248  -15.1898   20.4149 N   0  0  0  0  0  0
  -31.8873  -14.6661   20.1886 O   0  0  0  0  0  0
  -21.6638   -6.8874   21.4239 O   0  0  0  0  0  0
  -22.3518  -14.5539   20.6710 O   0  0  0  0  0  0
  -24.6244  -31.8627   23.2071 C   0  0  0  0  0  0
  -25.9105  -32.4794   23.8383 C   0  0  1  0  0  0
  -27.2148  -27.3403   20.1074 C   0  0  0  0  0  0
  -25.5931  -33.8596   24.2307 N   0  0  0  0  0  0
  -23.4156  -30.4902   21.5498 C   0  0  2  0  0  0
  -24.8590  -28.9556   20.1092 C   0  0  0  0  0  0
  -22.7460  -29.4643   22.4951 C   0  0  0  0  0  0
  -18.0282  -28.1382   22.8487 C   0  0  0  0  0  0
  -24.1488  -36.7298   23.2637 C   0  0  0  0  0  0
  -25.9567  -30.7997   21.3767 C   0  0  0  0  0  0
  -26.0288  -29.4313   20.7150 C   0  0  0  0  0  0
  -27.2103  -28.6344   20.7078 C   0  0  0  0  0  0
  -26.0221  -26.9233   19.4672 C   0  0  0  0  0  0
  -24.8567  -27.7058   19.4772 C   0  0  0  0  0  0
  -23.6272  -29.8326   20.1624 C   0  0  0  0  0  0
  -25.4112  -36.3095   24.0332 C   0  0  1  0  0  0
  -20.5881  -28.3683   23.1289 C   0  0  2  0  0  0
  -20.6772  -26.9408   22.5412 C   0  0  0  0  0  0
  -19.5749  -26.6384   21.5211 C   0  0  0  0  0  0
  -18.1926  -26.7929   22.1618 C   0  0  0  0  0  0
  -19.1535  -28.8850   23.2884 C   0  0  0  0  0  0
  -18.9459  -30.1453   23.8900 C   0  0  0  0  0  0
  -17.6458  -30.6585   24.0565 C   0  0  0  0  0  0
  -25.9049  -34.9460   23.5117 C   0  0  0  0  0  0
  -16.5350  -29.9083   23.6333 C   0  0  0  0  0  0
  -16.7270  -28.6501   23.0353 C   0  0  0  0  0  0
  -26.4495  -31.6594   25.0742 C   0  0  0  0  0  0
  -25.3736  -31.3721   26.1472 C   0  0  0  0  0  0
  -27.0334  -30.3021   24.6184 C   0  0  0  0  0  0
  -27.6059  -32.4324   25.7507 C   0  0  0  0  0  0
  -27.5586  -37.1801   24.8459 C   0  0  0  0  0  0
  -21.4178  -29.3045   22.3690 N   0  0  0  0  0  0
  -26.4291  -37.3789   23.9414 N   0  0  0  0  0  0
  -24.6844  -31.0663   22.1013 N   0  0  0  0  0  0
  -23.4196  -28.8172   23.3012 O   0  0  0  0  0  0
  -28.3256  -26.4863   20.1710 O   0  0  0  0  0  0
  -26.5609  -34.8920   22.4678 O   0  0  0  0  0  0
  -23.5414  -32.1416   23.7415 O   0  0  0  0  0  0
  -28.3166  -20.6310   18.8371 C   0  0  0  0  0  0
  -28.3415  -22.1712   18.8786 C   0  0  0  0  0  0
  -29.6733  -16.4253   19.2850 C   0  0  0  0  0  0
  -30.4487  -16.8013   21.5409 C   0  0  0  0  0  0
  -29.4288  -21.4080   20.7778 C   0  0  0  0  0  0
  -28.8477  -17.7432   19.3588 C   0  0  0  0  0  0
  -29.6702  -18.1690   21.5716 C   0  0  0  0  0  0
  -28.7128  -20.1211   20.2361 C   0  0  2  0  0  0
  -29.1077  -23.9486   20.4235 C   0  0  0  0  0  0
  -28.0625  -25.0494   19.9741 C   0  0  0  0  0  0
  -29.9680  -15.7702   20.5807 N   0  0  0  0  0  0
  -28.6145  -22.5421   20.2653 N   0  0  0  0  0  0
  -29.4639  -18.7896   20.2297 N   0  3  0  0  0  0
  -31.4619  -12.4592   19.1464 H   0  0  0  0  0  0
  -30.3238  -11.3850   19.9117 H   0  0  0  0  0  0
  -29.7517  -11.7202   17.4821 H   0  0  0  0  0  0
  -29.6484  -13.4449   17.7247 H   0  0  0  0  0  0
  -27.8524  -11.2869   18.8758 H   0  0  0  0  0  0
  -27.3647  -12.5611   17.7921 H   0  0  0  0  0  0
  -27.6427  -14.2487   19.4965 H   0  0  0  0  0  0
  -28.6967  -12.1281   21.4295 H   0  0  0  0  0  0
  -28.4591  -13.8237   21.7886 H   0  0  0  0  0  0
  -25.2756   -9.5680   22.4764 H   0  0  0  0  0  0
  -23.9999   -7.4629   22.7473 H   0  0  0  0  0  0
  -21.0839   -8.8767   19.8953 H   0  0  0  0  0  0
  -22.3689  -10.9670   19.6175 H   0  0  0  0  0  0
  -21.2005   -7.6146   23.9717 H   0  0  0  0  0  0
  -21.1479   -6.0522   25.9077 H   0  0  0  0  0  0
  -22.0601   -2.7608   23.2850 H   0  0  0  0  0  0
  -22.4074  -11.9878   22.4798 H   0  0  0  0  0  0
  -21.1087  -13.1254   22.2623 H   0  0  0  0  0  0
  -24.6612  -15.8474   20.5287 H   0  0  0  0  0  0
  -26.2849  -15.6256   20.1124 H   0  0  0  0  0  0
  -26.7173  -32.5468   23.1133 H   0  0  0  0  0  0
  -25.0090  -33.9750   25.0459 H   0  0  0  0  0  0
  -22.7082  -31.3106   21.4124 H   0  0  0  0  0  0
  -23.3757  -35.9623   23.3286 H   0  0  0  0  0  0
  -24.3586  -36.8931   22.2054 H   0  0  0  0  0  0
  -23.7225  -37.6491   23.6664 H   0  0  0  0  0  0
  -26.0888  -31.5663   20.6119 H   0  0  0  0  0  0
  -26.8374  -30.8435   22.0059 H   0  0  0  0  0  0
  -28.1056  -28.9923   21.1967 H   0  0  0  0  0  0
  -25.9499  -25.9742   18.9583 H   0  0  0  0  0  0
  -23.9616  -27.3379   18.9946 H   0  0  0  0  0  0
  -23.7442  -30.6127   19.4094 H   0  0  0  0  0  0
  -22.7472  -29.2625   19.8591 H   0  0  0  0  0  0
  -25.1289  -36.1952   25.0824 H   0  0  0  0  0  0
  -20.9973  -28.3255   24.1409 H   0  0  0  0  0  0
  -20.5670  -26.2293   23.3609 H   0  0  0  0  0  0
  -21.6644  -26.7439   22.1207 H   0  0  0  0  0  0
  -19.6910  -25.6294   21.1241 H   0  0  0  0  0  0
  -19.6691  -27.3197   20.6743 H   0  0  0  0  0  0
  -17.4199  -26.6684   21.4015 H   0  0  0  0  0  0
  -18.0320  -26.0066   22.9008 H   0  0  0  0  0  0
  -19.7934  -30.7272   24.2268 H   0  0  0  0  0  0
  -17.5010  -31.6265   24.5165 H   0  0  0  0  0  0
  -15.5350  -30.2986   23.7655 H   0  0  0  0  0  0
  -15.8669  -28.0821   22.7068 H   0  0  0  0  0  0
  -24.5924  -30.7049   25.7809 H   0  0  0  0  0  0
  -24.8910  -32.2879   26.4895 H   0  0  0  0  0  0
  -25.8072  -30.8911   27.0249 H   0  0  0  0  0  0
  -26.2905  -29.6775   24.1209 H   0  0  0  0  0  0
  -27.4036  -29.7271   25.4683 H   0  0  0  0  0  0
  -27.8775  -30.4312   23.9405 H   0  0  0  0  0  0
  -27.2673  -33.3619   26.2097 H   0  0  0  0  0  0
  -28.3861  -32.6892   25.0330 H   0  0  0  0  0  0
  -28.0736  -31.8442   26.5413 H   0  0  0  0  0  0
  -28.2587  -38.0117   24.7540 H   0  0  0  0  0  0
  -28.1101  -36.2651   24.6241 H   0  0  0  0  0  0
  -27.2310  -37.1397   25.8863 H   0  0  0  0  0  0
  -20.9346  -29.8784   21.6921 H   0  0  0  0  0  0
  -26.0173  -38.2860   24.1437 H   0  0  0  0  0  0
  -29.0276  -20.3103   18.0750 H   0  0  0  0  0  0
  -27.3350  -20.2559   18.5445 H   0  0  0  0  0  0
  -27.4011  -22.6002   18.5288 H   0  0  0  0  0  0
  -29.1354  -22.5400   18.2253 H   0  0  0  0  0  0
  -30.6152  -16.6357   18.7732 H   0  0  0  0  0  0
  -29.1458  -15.7264   18.6349 H   0  0  0  0  0  0
  -30.4353  -16.3714   22.5440 H   0  0  0  0  0  0
  -31.4986  -17.0143   21.3290 H   0  0  0  0  0  0
  -30.4449  -21.4754   20.3839 H   0  0  0  0  0  0
  -29.4906  -21.4174   21.8671 H   0  0  0  0  0  0
  -27.8410  -17.5253   19.7191 H   0  0  0  0  0  0
  -28.7287  -18.1068   18.3392 H   0  0  0  0  0  0
  -30.1986  -18.8718   22.2170 H   0  0  0  0  0  0
  -28.6956  -18.0095   22.0361 H   0  0  0  0  0  0
  -27.7957  -19.9822   20.8119 H   0  0  0  0  0  0
  -29.3471  -24.1090   21.4758 H   0  0  0  0  0  0
  -30.0413  -24.0790   19.8735 H   0  0  0  0  0  0
  -27.1375  -24.7982   20.4962 H   0  0  0  0  0  0
  -27.8748  -24.9074   18.9095 H   0  0  0  0  0  0
  -30.3782  -18.9820   19.8480 H   0  0  0  0  0  0
  1 25  1  0  0  0
  1 30  2  0  0  0
  1 81  1  0  0  0
  2  3  1  0  0  0
  2 25  1  0  0  0
  2 84  1  0  0  0
  2 85  1  0  0  0
  3  4  1  0  0  0
  3 86  1  0  0  0
  3 87  1  0  0  0
  4  5  1  0  0  0
  4 88  1  0  0  0
  4 89  1  0  0  0
  5  6  1  0  0  0
  5 26  1  0  0  0
  5 90  1  0  0  0
  6 25  1  0  0  0
  6 91  1  0  0  0
  6 92  1  0  0  0
  7  8  2  0  0  0
  7 26  1  0  0  0
  7 29  1  0  0  0
  8  9  1  0  0  0
  8 22  1  0  0  0
  9 10  1  0  0  0
  9 27  2  0  0  0
 10 11  2  0  0  0
 10 15  1  0  0  0
 11 12  1  0  0  0
 11 93  1  0  0  0
 12 13  2  0  0  0
 12 94  1  0  0  0
 13 14  1  0  0  0
 13 31  1  0  0  0
 14 15  2  0  0  0
 14 95  1  0  0  0
 15 96  1  0  0  0
 16 17  2  0  0  0
 16 21  1  0  0  0
 16 31  1  0  0  0
 17 18  1  0  0  0
 17 97  1  0  0  0
 18 19  2  0  0  0
 18 98  1  0  0  0
 19 20  1  0  0  0
 19 24  1  0  0  0
 20 21  2  0  0  0
 20 99  1  0  0  0
 21 23  1  0  0  0
 22 28  1  0  0  0
 22 32  2  0  0  0
 26 27  1  0  0  0
 28100  1  0  0  0
 28101  1  0  0  0
 29102  1  0  0  0
 29103  1  0  0  0
 33 34  1  0  0  0
 33 66  1  0  0  0
 33 70  2  0  0  0
 34 36  1  0  0  0
 34 59  1  0  0  0
 34104  1  0  0  0
 35 44  2  0  0  0
 35 45  1  0  0  0
 35 68  1  0  0  0
 36 56  1  0  0  0
 36105  1  0  0  0
 37 39  1  0  0  0
 37 47  1  0  0  0
 37 66  1  0  0  0
 37106  1  0  0  0
 38 43  2  0  0  0
 38 46  1  0  0  0
 38 47  1  0  0  0
 39 64  1  0  0  0
 39 67  2  0  0  0
 40 52  1  0  0  0
 40 53  2  0  0  0
 40 58  1  0  0  0
 41107  1  0  0  0
 41108  1  0  0  0
 41109  1  0  0  0
 41 48  1  0  0  0
 42 43  1  0  0  0
 42 66  1  0  0  0
 42110  1  0  0  0
 42111  1  0  0  0
 43 44  1  0  0  0
 44112  1  0  0  0
 45 46  2  0  0  0
 45113  1  0  0  0
 46114  1  0  0  0
 47115  1  0  0  0
 47116  1  0  0  0
 48 56  1  0  0  0
 48 65  1  0  0  0
 48117  1  0  0  0
 49 50  1  0  0  0
 49 53  1  0  0  0
 49 64  1  0  0  0
 49118  1  0  0  0
 50 51  1  0  0  0
 50119  1  0  0  0
 50120  1  0  0  0
 51 52  1  0  0  0
 51121  1  0  0  0
 51122  1  0  0  0
 52123  1  0  0  0
 52124  1  0  0  0
 53 54  1  0  0  0
 54 55  2  0  0  0
 54125  1  0  0  0
 55 57  1  0  0  0
 55126  1  0  0  0
 56 69  2  0  0  0
 57 58  2  0  0  0
 57127  1  0  0  0
 58128  1  0  0  0
 59 60  1  0  0  0
 59 61  1  0  0  0
 59 62  1  0  0  0
 60129  1  0  0  0
 60130  1  0  0  0
 60131  1  0  0  0
 61132  1  0  0  0
 61133  1  0  0  0
 61134  1  0  0  0
 62135  1  0  0  0
 62136  1  0  0  0
 62137  1  0  0  0
 63 65  1  0  0  0
 63138  1  0  0  0
 63139  1  0  0  0
 63140  1  0  0  0
 64141  1  0  0  0
 65142  1  0  0  0
 68 80  1  0  0  0
 71 72  1  0  0  0
 71143  1  0  0  0
 71144  1  0  0  0
 71 78  1  0  0  0
 72 82  1  0  0  0
 72145  1  0  0  0
 72146  1  0  0  0
 73 76  1  0  0  0
 73 81  1  0  0  0
 73147  1  0  0  0
 73148  1  0  0  0
 74 77  1  0  0  0
 74 81  1  0  0  0
 74149  1  0  0  0
 74150  1  0  0  0
 75 78  1  0  0  0
 75 82  1  0  0  0
 75151  1  0  0  0
 75152  1  0  0  0
 76153  1  0  0  0
 76154  1  0  0  0
 76 83  1  0  0  0
 77 83  1  0  0  0
 77155  1  0  0  0
 77156  1  0  0  0
 78 83  1  0  0  0
 78157  1  0  0  0
 79 80  1  0  0  0
 79 82  1  0  0  0
 79158  1  0  0  0
 79159  1  0  0  0
 80160  1  0  0  0
 80161  1  0  0  0
 83162  1  0  0  0
M  CHG  1  83   1
M  ISO  4   1 100  68 101  80 101  81 100
M  END
> <chiral flag>
0

> <version>
0

> <s_m_source_file>
/data/baiqing/PycharmProjects/Reinvent-master-3.2/result/LINK_invent/BTK/process_docking_weight1_custom_sum_contain_oxygen_bond_distance_aromatic_linkinvent_7_9_3/rearranged_h_0198.sdf

> <i_m_source_file_index>
36

> <r_mmod_Potential_Energy-OPLS-2005>
267.01025390625

> <r_mmod_Stretch_Energy-OPLS-2005>
70.1121215820312

> <r_mmod_Bend_Energy-OPLS-2005>
168.465698242188

> <r_mmod_Torsional_Energy-OPLS-2005>
441.396301269531

> <r_mmod_Improper_Torsional_Energy-OPLS-2005>
12.0192155838013

> <r_mmod_Van_der_Waal_Energy-OPLS-2005>
137.83137512207

> <r_mmod_Electrostatic_Energy-OPLS-2005>
-160.328155517578

> <r_mmod_Solvation_Energy-OPLS-2005>
-448.807067871094

> <b_mmod_Minimization_Converged-OPLS-2005>
0

> <r_mmod_RMS_Derivative-OPLS-2005>
0.401837140321732

$$$$
36
                    3D
 Structure written by MMmdl.
174185  0  0  1  0            999 V2000
  -30.7012  -14.4001   20.5439 C   0  0  0  0  0  0
  -30.4138  -12.2459   19.4212 C   0  0  0  0  0  0
  -29.4957  -12.4931   18.2059 C   0  0  0  0  0  0
  -28.0115  -12.3753   18.6073 C   0  0  0  0  0  0
  -27.6661  -13.1931   19.8816 C   0  0  2  0  0  0
  -28.7029  -12.9419   21.0025 C   0  0  0  0  0  0
  -25.2628  -13.8150   20.5670 C   0  0  0  0  0  0
  -24.1857  -13.0453   20.9171 C   0  0  0  0  0  0
  -24.6377  -11.6909   20.8722 C   0  0  0  0  0  0
  -23.9051  -10.4300   21.0400 C   0  0  0  0  0  0
  -24.3614   -9.4219   21.9185 C   0  0  0  0  0  0
  -23.6295   -8.2248   22.0762 C   0  0  0  0  0  0
  -22.4271   -8.0284   21.3556 C   0  0  0  0  0  0
  -21.9902   -9.0251   20.4655 C   0  0  0  0  0  0
  -22.7219  -10.2144   20.3049 C   0  0  0  0  0  0
  -21.6861   -6.0726   22.5276 C   0  0  0  0  0  0
  -21.4005   -6.5632   23.8210 C   0  0  0  0  0  0
  -21.3669   -5.6789   24.9169 C   0  0  0  0  0  0
  -21.6054   -4.3049   24.7224 C   0  0  0  0  0  0
  -21.8822   -3.8147   23.4336 C   0  0  0  0  0  0
  -21.9193   -4.6954   22.3395 C   0  0  0  0  0  0
  -22.7883  -13.5270   21.1824 C   0  0  0  0  0  0
  -22.1670   -4.2145   21.0966 F   0  0  0  0  0  0
  -21.5644   -3.4531   25.7732 F   0  0  0  0  0  0
  -30.0453  -13.2166   20.4603 N   0  0  0  0  0  0
  -26.3042  -12.9285   20.3379 N   0  0  0  0  0  0
  -25.9299  -11.6466   20.5752 N   0  0  0  0  0  0
  -22.0510  -12.8261   22.0373 N   0  0  0  0  0  0
  -25.4414  -15.1862   20.4061 N   0  0  0  0  0  0
  -31.8329  -14.5781   20.0914 O   0  0  0  0  0  0
  -21.6660   -6.8864   21.4239 O   0  0  0  0  0  0
  -22.3569  -14.5569   20.6658 O   0  0  0  0  0  0
  -24.6087  -31.8711   23.2107 C   0  0  0  0  0  0
  -25.9001  -32.4831   23.8392 C   0  0  1  0  0  0
  -27.2352  -27.4693   20.0836 C   0  0  0  0  0  0
  -25.5863  -33.8626   24.2304 N   0  0  0  0  0  0
  -23.3938  -30.4960   21.5506 C   0  0  2  0  0  0
  -24.8383  -28.9636   20.1147 C   0  0  0  0  0  0
  -22.7379  -29.4681   22.4992 C   0  0  0  0  0  0
  -18.0275  -28.1386   22.8498 C   0  0  0  0  0  0
  -24.1466  -36.7334   23.2644 C   0  0  0  0  0  0
  -25.9193  -30.8450   21.3607 C   0  0  0  0  0  0
  -25.9950  -29.4823   20.7084 C   0  0  0  0  0  0
  -27.1943  -28.7423   20.6904 C   0  0  0  0  0  0
  -26.0601  -26.9585   19.4828 C   0  0  0  0  0  0
  -24.8641  -27.6991   19.5033 C   0  0  0  0  0  0
  -23.5996  -29.8269   20.1648 C   0  0  0  0  0  0
  -25.4085  -36.3117   24.0342 C   0  0  1  0  0  0
  -20.5865  -28.3668   23.1340 C   0  0  2  0  0  0
  -20.6757  -26.9404   22.5435 C   0  0  0  0  0  0
  -19.5742  -26.6388   21.5224 C   0  0  0  0  0  0
  -18.1925  -26.7930   22.1634 C   0  0  0  0  0  0
  -19.1522  -28.8835   23.2926 C   0  0  0  0  0  0
  -18.9456  -30.1443   23.8934 C   0  0  0  0  0  0
  -17.6463  -30.6594   24.0569 C   0  0  0  0  0  0
  -25.9023  -34.9485   23.5117 C   0  0  0  0  0  0
  -16.5352  -29.9109   23.6309 C   0  0  0  0  0  0
  -16.7262  -28.6534   23.0326 C   0  0  0  0  0  0
  -26.4417  -31.6611   25.0733 C   0  0  0  0  0  0
  -25.3673  -31.3786   26.1486 C   0  0  0  0  0  0
  -27.0227  -30.3043   24.6129 C   0  0  0  0  0  0
  -27.5961  -32.4349   25.7530 C   0  0  0  0  0  0
  -27.5569  -37.1811   24.8458 C   0  0  0  0  0  0
  -21.4107  -29.3045   22.3739 N   0  0  0  0  0  0
  -26.4265  -37.3802   23.9414 N   0  0  0  0  0  0
  -24.6582  -31.0849   22.0990 N   0  0  0  0  0  0
  -23.4169  -28.8225   23.3017 O   0  0  0  0  0  0
  -28.4346  -26.7967   20.0906 O   0  0  0  0  0  0
  -26.5609  -34.8937   22.4698 O   0  0  0  0  0  0
  -23.5293  -32.1456   23.7523 O   0  0  0  0  0  0
  -32.6764  -21.8813   20.5202 C   0  0  0  0  0  0
  -32.5416  -19.8500   19.4124 C   0  0  0  0  0  0
  -31.3459  -21.7147   20.9683 C   0  0  0  0  0  0
  -31.2160  -19.6277   19.9075 C   0  0  0  0  0  0
  -33.2409  -24.4443   20.3782 C   0  0  0  0  0  0
  -34.4273  -23.7122   19.8196 C   0  0  0  0  0  0
  -33.9422  -19.4698   17.2358 C   0  0  0  0  0  0
  -32.7902  -18.5105   17.1367 C   0  0  0  0  0  0
  -31.0370  -17.2129   19.4636 C   0  0  0  0  0  0
  -29.6862  -17.9541   20.8425 C   0  0  0  0  0  0
  -33.5559  -23.0471   20.8678 C   0  0  0  0  0  0
  -33.3079  -18.9259   18.5017 C   0  0  0  0  0  0
  -29.7638  -16.6294   20.0836 C   0  0  0  0  0  0
  -30.6017  -22.7638   21.7801 C   0  0  0  0  0  0
  -29.5182  -24.8434   20.9210 C   0  0  0  0  0  0
  -28.4134  -25.3760   20.0015 C   0  0  0  0  0  0
  -33.2648  -20.9420   19.7521 N   0  0  0  0  0  0
  -30.6374  -20.6046   20.6544 N   0  0  0  0  0  0
  -30.3846  -18.4978   19.6717 N   0  0  0  0  0  0
  -29.9180  -15.4243   20.9049 N   0  0  0  0  0  0
  -29.5378  -23.3620   20.9542 N   0  3  0  0  0  0
  -31.4633  -12.3193   19.1251 H   0  0  0  0  0  0
  -30.2829  -11.2291   19.7937 H   0  0  0  0  0  0
  -29.7234  -11.7799   17.4117 H   0  0  0  0  0  0
  -29.6892  -13.4839   17.7898 H   0  0  0  0  0  0
  -27.7926  -11.3192   18.7711 H   0  0  0  0  0  0
  -27.3760  -12.6898   17.7784 H   0  0  0  0  0  0
  -27.7186  -14.2442   19.6030 H   0  0  0  0  0  0
  -28.6516  -11.9042   21.3345 H   0  0  0  0  0  0
  -28.4769  -13.5388   21.8867 H   0  0  0  0  0  0
  -25.2763   -9.5721   22.4757 H   0  0  0  0  0  0
  -24.0035   -7.4641   22.7464 H   0  0  0  0  0  0
  -21.0847   -8.8742   19.8946 H   0  0  0  0  0  0
  -22.3665  -10.9675   19.6161 H   0  0  0  0  0  0
  -21.1979   -7.6140   23.9704 H   0  0  0  0  0  0
  -21.1508   -6.0521   25.9080 H   0  0  0  0  0  0
  -22.0591   -2.7599   23.2840 H   0  0  0  0  0  0
  -22.4106  -11.9934   22.4788 H   0  0  0  0  0  0
  -21.1109  -13.1294   22.2525 H   0  0  0  0  0  0
  -24.6829  -15.8481   20.5192 H   0  0  0  0  0  0
  -26.2928  -15.6195   20.0748 H   0  0  0  0  0  0
  -26.7089  -32.5560   23.1175 H   0  0  0  0  0  0
  -24.9889  -33.9779   25.0361 H   0  0  0  0  0  0
  -22.6809  -31.3107   21.4107 H   0  0  0  0  0  0
  -23.3709  -35.9692   23.3310 H   0  0  0  0  0  0
  -24.3554  -36.8951   22.2059 H   0  0  0  0  0  0
  -23.7234  -37.6550   23.6653 H   0  0  0  0  0  0
  -26.0265  -31.6114   20.5912 H   0  0  0  0  0  0
  -26.8090  -30.8976   21.9783 H   0  0  0  0  0  0
  -28.0884  -29.1418   21.1488 H   0  0  0  0  0  0
  -26.0479  -26.0011   18.9825 H   0  0  0  0  0  0
  -23.9735  -27.2940   19.0409 H   0  0  0  0  0  0
  -23.7016  -30.5991   19.4010 H   0  0  0  0  0  0
  -22.7243  -29.2445   19.8712 H   0  0  0  0  0  0
  -25.1252  -36.1980   25.0834 H   0  0  0  0  0  0
  -20.9951  -28.3218   24.1458 H   0  0  0  0  0  0
  -20.5650  -26.2274   23.3628 H   0  0  0  0  0  0
  -21.6634  -26.7436   22.1238 H   0  0  0  0  0  0
  -19.6902  -25.6299   21.1252 H   0  0  0  0  0  0
  -19.6689  -27.3201   20.6765 H   0  0  0  0  0  0
  -17.4190  -26.6691   21.4042 H   0  0  0  0  0  0
  -18.0324  -26.0071   22.9036 H   0  0  0  0  0  0
  -19.7937  -30.7251   24.2316 H   0  0  0  0  0  0
  -17.5024  -31.6272   24.5173 H   0  0  0  0  0  0
  -15.5360  -30.3029   23.7600 H   0  0  0  0  0  0
  -15.8673  -28.0866   22.6993 H   0  0  0  0  0  0
  -24.5793  -30.7194   25.7826 H   0  0  0  0  0  0
  -24.8955  -32.2993   26.4914 H   0  0  0  0  0  0
  -25.7991  -30.8931   27.0247 H   0  0  0  0  0  0
  -26.2799  -29.6874   24.1073 H   0  0  0  0  0  0
  -27.3843  -29.7223   25.4615 H   0  0  0  0  0  0
  -27.8694  -30.4341   23.9376 H   0  0  0  0  0  0
  -27.2502  -33.3590   26.2164 H   0  0  0  0  0  0
  -28.3750  -32.7016   25.0379 H   0  0  0  0  0  0
  -28.0635  -31.8449   26.5419 H   0  0  0  0  0  0
  -28.2567  -38.0118   24.7460 H   0  0  0  0  0  0
  -28.1067  -36.2639   24.6288 H   0  0  0  0  0  0
  -27.2305  -37.1475   25.8868 H   0  0  0  0  0  0
  -20.9246  -29.8798   21.7010 H   0  0  0  0  0  0
  -26.0157  -38.2878   24.1421 H   0  0  0  0  0  0
  -32.4096  -24.5830   19.6907 H   0  0  0  0  0  0
  -33.4468  -25.2788   21.0467 H   0  0  0  0  0  0
  -35.4099  -24.0653   20.1245 H   0  0  0  0  0  0
  -34.3508  -23.3623   18.7918 H   0  0  0  0  0  0
  -33.7465  -20.5053   16.9643 H   0  0  0  0  0  0
  -34.9299  -19.0952   16.9748 H   0  0  0  0  0  0
  -33.0224  -17.5065   16.7847 H   0  0  0  0  0  0
  -31.8262  -18.9048   16.8206 H   0  0  0  0  0  0
  -31.1834  -16.9194   18.4242 H   0  0  0  0  0  0
  -31.9351  -17.0891   20.0736 H   0  0  0  0  0  0
  -30.2839  -17.9758   21.7565 H   0  0  0  0  0  0
  -28.6766  -18.3423   20.9874 H   0  0  0  0  0  0
  -33.9648  -22.9357   21.8708 H   0  0  0  0  0  0
  -33.8963  -18.2136   19.0768 H   0  0  0  0  0  0
  -28.9599  -16.5286   19.3481 H   0  0  0  0  0  0
  -31.2842  -23.5180   22.1682 H   0  0  0  0  0  0
  -30.1450  -22.2964   22.6530 H   0  0  0  0  0  0
  -29.3712  -25.2276   21.9306 H   0  0  0  0  0  0
  -30.4783  -25.2262   20.5812 H   0  0  0  0  0  0
  -27.4632  -24.9489   20.3254 H   0  0  0  0  0  0
  -28.5811  -25.0779   18.9653 H   0  0  0  0  0  0
  -29.0764  -15.1384   21.3805 H   0  0  0  0  0  0
  -28.6592  -23.0099   21.3025 H   0  0  0  0  0  0
  -29.6514  -22.9924   20.0230 H   0  0  0  0  0  0
  1 25  1  0  0  0
  1 30  2  0  0  0
  1 90  1  0  0  0
  2  3  1  0  0  0
  2 25  1  0  0  0
  2 92  1  0  0  0
  2 93  1  0  0  0
  3  4  1  0  0  0
  3 94  1  0  0  0
  3 95  1  0  0  0
  4  5  1  0  0  0
  4 96  1  0  0  0
  4 97  1  0  0  0
  5  6  1  0  0  0
  5 26  1  0  0  0
  5 98  1  0  0  0
  6 25  1  0  0  0
  6 99  1  0  0  0
  6100  1  0  0  0
  7  8  2  0  0  0
  7 26  1  0  0  0
  7 29  1  0  0  0
  8  9  1  0  0  0
  8 22  1  0  0  0
  9 10  1  0  0  0
  9 27  2  0  0  0
 10 11  2  0  0  0
 10 15  1  0  0  0
 11 12  1  0  0  0
 11101  1  0  0  0
 12 13  2  0  0  0
 12102  1  0  0  0
 13 14  1  0  0  0
 13 31  1  0  0  0
 14 15  2  0  0  0
 14103  1  0  0  0
 15104  1  0  0  0
 16 17  2  0  0  0
 16 21  1  0  0  0
 16 31  1  0  0  0
 17 18  1  0  0  0
 17105  1  0  0  0
 18 19  2  0  0  0
 18106  1  0  0  0
 19 20  1  0  0  0
 19 24  1  0  0  0
 20 21  2  0  0  0
 20107  1  0  0  0
 21 23  1  0  0  0
 22 28  1  0  0  0
 22 32  2  0  0  0
 26 27  1  0  0  0
 28108  1  0  0  0
 28109  1  0  0  0
 29110  1  0  0  0
 29111  1  0  0  0
 33 34  1  0  0  0
 33 66  1  0  0  0
 33 70  2  0  0  0
 34 36  1  0  0  0
 34 59  1  0  0  0
 34112  1  0  0  0
 35 44  2  0  0  0
 35 45  1  0  0  0
 35 68  1  0  0  0
 36 56  1  0  0  0
 36113  1  0  0  0
 37 39  1  0  0  0
 37 47  1  0  0  0
 37 66  1  0  0  0
 37114  1  0  0  0
 38 43  2  0  0  0
 38 46  1  0  0  0
 38 47  1  0  0  0
 39 64  1  0  0  0
 39 67  2  0  0  0
 40 52  1  0  0  0
 40 53  2  0  0  0
 40 58  1  0  0  0
 41115  1  0  0  0
 41116  1  0  0  0
 41117  1  0  0  0
 41 48  1  0  0  0
 42 43  1  0  0  0
 42 66  1  0  0  0
 42118  1  0  0  0
 42119  1  0  0  0
 43 44  1  0  0  0
 44120  1  0  0  0
 45 46  2  0  0  0
 45121  1  0  0  0
 46122  1  0  0  0
 47123  1  0  0  0
 47124  1  0  0  0
 48 56  1  0  0  0
 48 65  1  0  0  0
 48125  1  0  0  0
 49 50  1  0  0  0
 49 53  1  0  0  0
 49 64  1  0  0  0
 49126  1  0  0  0
 50 51  1  0  0  0
 50127  1  0  0  0
 50128  1  0  0  0
 51 52  1  0  0  0
 51129  1  0  0  0
 51130  1  0  0  0
 52131  1  0  0  0
 52132  1  0  0  0
 53 54  1  0  0  0
 54 55  2  0  0  0
 54133  1  0  0  0
 55 57  1  0  0  0
 55134  1  0  0  0
 56 69  2  0  0  0
 57 58  2  0  0  0
 57135  1  0  0  0
 58136  1  0  0  0
 59 60  1  0  0  0
 59 61  1  0  0  0
 59 62  1  0  0  0
 60137  1  0  0  0
 60138  1  0  0  0
 60139  1  0  0  0
 61140  1  0  0  0
 61141  1  0  0  0
 61142  1  0  0  0
 62143  1  0  0  0
 62144  1  0  0  0
 62145  1  0  0  0
 63 65  1  0  0  0
 63146  1  0  0  0
 63147  1  0  0  0
 63148  1  0  0  0
 64149  1  0  0  0
 65150  1  0  0  0
 68 86  1  0  0  0
 71 73  1  0  0  0
 71 87  2  0  0  0
 71 81  1  0  0  0
 72 74  2  0  0  0
 72 87  1  0  0  0
 72 82  1  0  0  0
 73 84  1  0  0  0
 73 88  2  0  0  0
 74 88  1  0  0  0
 74 89  1  0  0  0
 75 76  1  0  0  0
 75 81  1  0  0  0
 75151  1  0  0  0
 75152  1  0  0  0
 76 81  1  0  0  0
 76153  1  0  0  0
 76154  1  0  0  0
 77 78  1  0  0  0
 77 82  1  0  0  0
 77155  1  0  0  0
 77156  1  0  0  0
 78 82  1  0  0  0
 78157  1  0  0  0
 78158  1  0  0  0
 79 83  1  0  0  0
 79 89  1  0  0  0
 79159  1  0  0  0
 79160  1  0  0  0
 80 83  1  0  0  0
 80 89  1  0  0  0
 80161  1  0  0  0
 80162  1  0  0  0
 81163  1  0  0  0
 82164  1  0  0  0
 83 90  1  0  0  0
 83165  1  0  0  0
 84 91  1  0  0  0
 84166  1  0  0  0
 84167  1  0  0  0
 85 86  1  0  0  0
 85 91  1  0  0  0
 85168  1  0  0  0
 85169  1  0  0  0
 86170  1  0  0  0
 86171  1  0  0  0
 90172  1  0  0  0
 91173  1  0  0  0
 91174  1  0  0  0
M  CHG  1  91   1
M  ISO  4   1 100  68 101  86 101  90 100
M  END
> <chiral flag>
0

> <version>
0

> <s_m_source_file>
/data/baiqing/PycharmProjects/Reinvent-master-3.2/result/LINK_invent/BTK/process_docking_weight1_custom_sum_contain_oxygen_bond_distance_aromatic_linkinvent_7_9_3/rearranged_h_0198.sdf

> <i_m_source_file_index>
37

> <r_mmod_Potential_Energy-OPLS-2005>
-127.541778564453

> <r_mmod_Stretch_Energy-OPLS-2005>
35.5178070068359

> <r_mmod_Bend_Energy-OPLS-2005>
141.338516235352

> <r_mmod_Torsional_Energy-OPLS-2005>
315.403991699219

> <r_mmod_Improper_Torsional_Energy-OPLS-2005>
17.6595439910889

> <r_mmod_Van_der_Waal_Energy-OPLS-2005>
169.865829467773

> <r_mmod_Electrostatic_Energy-OPLS-2005>
-346.456390380859

> <r_mmod_Solvation_Energy-OPLS-2005>
-472.046020507812

> <b_mmod_Minimization_Converged-OPLS-2005>
0

> <r_mmod_RMS_Derivative-OPLS-2005>
2.75003027915955

$$$$
37
                    3D
 Structure written by MMmdl.
162171  0  0  1  0            999 V2000
  -30.6777  -14.6742   20.4832 C   0  0  0  0  0  0
  -30.4119  -12.4123   19.4766 C   0  0  0  0  0  0
  -29.5082  -12.4997   18.2308 C   0  0  0  0  0  0
  -28.0307  -12.3351   18.6377 C   0  0  0  0  0  0
  -27.6396  -13.2297   19.8466 C   0  0  2  0  0  0
  -28.6804  -13.1449   20.9811 C   0  0  0  0  0  0
  -25.2501  -13.8196   20.5676 C   0  0  0  0  0  0
  -24.1795  -13.0435   20.9210 C   0  0  0  0  0  0
  -24.6382  -11.6916   20.8762 C   0  0  0  0  0  0
  -23.9075  -10.4294   21.0428 C   0  0  0  0  0  0
  -24.3635   -9.4207   21.9199 C   0  0  0  0  0  0
  -23.6302   -8.2238   22.0749 C   0  0  0  0  0  0
  -22.4286   -8.0282   21.3540 C   0  0  0  0  0  0
  -21.9927   -9.0247   20.4631 C   0  0  0  0  0  0
  -22.7257  -10.2120   20.3059 C   0  0  0  0  0  0
  -21.6853   -6.0747   22.5288 C   0  0  0  0  0  0
  -21.4007   -6.5646   23.8221 C   0  0  0  0  0  0
  -21.3671   -5.6793   24.9182 C   0  0  0  0  0  0
  -21.6050   -4.3054   24.7238 C   0  0  0  0  0  0
  -21.8809   -3.8153   23.4355 C   0  0  0  0  0  0
  -21.9185   -4.6972   22.3409 C   0  0  0  0  0  0
  -22.7821  -13.5203   21.1870 C   0  0  0  0  0  0
  -22.1639   -4.2162   21.0985 F   0  0  0  0  0  0
  -21.5655   -3.4529   25.7749 F   0  0  0  0  0  0
  -29.9840  -13.4888   20.3990 N   0  0  0  0  0  0
  -26.2912  -12.9392   20.3248 N   0  0  0  0  0  0
  -25.9308  -11.6543   20.5736 N   0  0  0  0  0  0
  -22.0465  -12.8186   22.0433 N   0  0  0  0  0  0
  -25.4212  -15.1915   20.4084 N   0  0  0  0  0  0
  -31.8692  -14.6902   20.1563 O   0  0  0  0  0  0
  -21.6642   -6.8879   21.4245 O   0  0  0  0  0  0
  -22.3505  -14.5514   20.6723 O   0  0  0  0  0  0
  -24.6279  -31.8603   23.2018 C   0  0  0  0  0  0
  -25.9112  -32.4791   23.8359 C   0  0  1  0  0  0
  -27.2136  -27.3116   20.1278 C   0  0  0  0  0  0
  -25.5924  -33.8588   24.2285 N   0  0  0  0  0  0
  -23.4214  -30.4847   21.5461 C   0  0  2  0  0  0
  -24.8662  -28.9370   20.1147 C   0  0  0  0  0  0
  -22.7476  -29.4634   22.4943 C   0  0  0  0  0  0
  -18.0291  -28.1399   22.8498 C   0  0  0  0  0  0
  -24.1492  -36.7293   23.2639 C   0  0  0  0  0  0
  -25.9639  -30.7923   21.3709 C   0  0  0  0  0  0
  -26.0377  -29.4170   20.7157 C   0  0  0  0  0  0
  -27.2199  -28.6184   20.7069 C   0  0  0  0  0  0
  -26.0243  -26.8833   19.5039 C   0  0  0  0  0  0
  -24.8604  -27.6739   19.5016 C   0  0  0  0  0  0
  -23.6364  -29.8200   20.1619 C   0  0  0  0  0  0
  -25.4121  -36.3092   24.0330 C   0  0  1  0  0  0
  -20.5894  -28.3704   23.1286 C   0  0  2  0  0  0
  -20.6790  -26.9423   22.5421 C   0  0  0  0  0  0
  -19.5756  -26.6385   21.5237 C   0  0  0  0  0  0
  -18.1931  -26.7944   22.1632 C   0  0  0  0  0  0
  -19.1543  -28.8871   23.2893 C   0  0  0  0  0  0
  -18.9460  -30.1479   23.8902 C   0  0  0  0  0  0
  -17.6454  -30.6596   24.0571 C   0  0  0  0  0  0
  -25.9055  -34.9460   23.5108 C   0  0  0  0  0  0
  -16.5349  -29.9094   23.6335 C   0  0  0  0  0  0
  -16.7274  -28.6518   23.0349 C   0  0  0  0  0  0
  -26.4475  -31.6603   25.0738 C   0  0  0  0  0  0
  -25.3696  -31.3752   26.1455 C   0  0  0  0  0  0
  -27.0301  -30.3023   24.6183 C   0  0  0  0  0  0
  -27.6023  -32.4344   25.7520 C   0  0  0  0  0  0
  -27.5590  -37.1808   24.8461 C   0  0  0  0  0  0
  -21.4195  -29.3051   22.3679 N   0  0  0  0  0  0
  -26.4300  -37.3786   23.9402 N   0  0  0  0  0  0
  -24.6904  -31.0608   22.0968 N   0  0  0  0  0  0
  -23.4197  -28.8168   23.3020 O   0  0  0  0  0  0
  -28.3107  -26.4404   20.1452 O   0  0  0  0  0  0
  -26.5609  -34.8924   22.4667 O   0  0  0  0  0  0
  -23.5438  -32.1396   23.7345 O   0  0  0  0  0  0
  -28.7115  -21.5407   23.0395 C   0  0  0  0  0  0
  -28.7969  -22.4515   21.0038 C   0  0  0  0  0  0
  -28.9755  -20.1834   21.2988 C   0  0  0  0  0  0
  -29.7116  -18.3622   19.6132 C   0  0  0  0  0  0
  -28.5510  -17.6806   21.6138 C   0  0  0  0  0  0
  -30.5532  -17.0278   19.7196 C   0  0  0  0  0  0
  -29.5162  -16.4637   21.7963 C   0  0  0  0  0  0
  -27.0782  -21.5336   24.9814 C   0  0  0  0  0  0
  -28.5375  -21.7024   24.5375 C   0  0  0  0  0  0
  -28.8815  -23.7952   20.1741 C   0  0  0  0  0  0
  -28.0837  -25.0813   20.7127 C   0  0  0  0  0  0
  -28.6752  -22.6456   22.3118 N   0  0  0  0  0  0
  -28.8341  -20.2994   22.6051 N   0  0  0  0  0  0
  -28.9823  -21.2245   20.4300 N   0  0  0  0  0  0
  -29.1539  -18.8217   20.8878 N   0  0  0  0  0  0
  -29.9952  -15.8864   20.5223 N   0  0  0  0  0  0
  -31.4612  -12.4894   19.1892 H   0  0  0  0  0  0
  -30.3107  -11.4366   19.9569 H   0  0  0  0  0  0
  -29.7880  -11.7366   17.5024 H   0  0  0  0  0  0
  -29.6543  -13.4622   17.7412 H   0  0  0  0  0  0
  -27.8798  -11.2849   18.8896 H   0  0  0  0  0  0
  -27.3807  -12.5387   17.7866 H   0  0  0  0  0  0
  -27.6386  -14.2565   19.4792 H   0  0  0  0  0  0
  -28.7059  -12.1413   21.4077 H   0  0  0  0  0  0
  -28.4022  -13.8021   21.7997 H   0  0  0  0  0  0
  -25.2774   -9.5674   22.4777 H   0  0  0  0  0  0
  -24.0012   -7.4636   22.7471 H   0  0  0  0  0  0
  -21.0855   -8.8767   19.8927 H   0  0  0  0  0  0
  -22.3734  -10.9664   19.6163 H   0  0  0  0  0  0
  -21.1983   -7.6149   23.9730 H   0  0  0  0  0  0
  -21.1508   -6.0529   25.9091 H   0  0  0  0  0  0
  -22.0581   -2.7620   23.2858 H   0  0  0  0  0  0
  -22.4053  -11.9814   22.4792 H   0  0  0  0  0  0
  -21.1076  -13.1194   22.2616 H   0  0  0  0  0  0
  -24.6548  -15.8459   20.5176 H   0  0  0  0  0  0
  -26.2659  -15.6270   20.0622 H   0  0  0  0  0  0
  -26.7191  -32.5454   23.1117 H   0  0  0  0  0  0
  -25.0083  -33.9732   25.0438 H   0  0  0  0  0  0
  -22.7163  -31.3065   21.4025 H   0  0  0  0  0  0
  -23.3770  -35.9612   23.3293 H   0  0  0  0  0  0
  -24.3587  -36.8920   22.2057 H   0  0  0  0  0  0
  -23.7225  -37.6483   23.6665 H   0  0  0  0  0  0
  -26.0920  -31.5536   20.6002 H   0  0  0  0  0  0
  -26.8470  -30.8452   21.9967 H   0  0  0  0  0  0
  -28.1235  -28.9844   21.1754 H   0  0  0  0  0  0
  -25.9844  -25.9146   19.0275 H   0  0  0  0  0  0
  -23.9601  -27.2963   19.0356 H   0  0  0  0  0  0
  -23.7602  -30.5981   19.4079 H   0  0  0  0  0  0
  -22.7550  -29.2544   19.8558 H   0  0  0  0  0  0
  -25.1313  -36.1955   25.0826 H   0  0  0  0  0  0
  -21.0000  -28.3287   24.1396 H   0  0  0  0  0  0
  -20.5730  -26.2302   23.3624 H   0  0  0  0  0  0
  -21.6649  -26.7467   22.1179 H   0  0  0  0  0  0
  -19.6908  -25.6289   21.1276 H   0  0  0  0  0  0
  -19.6704  -27.3193   20.6768 H   0  0  0  0  0  0
  -17.4210  -26.6725   21.4018 H   0  0  0  0  0  0
  -18.0295  -26.0086   22.9027 H   0  0  0  0  0  0
  -19.7929  -30.7315   24.2254 H   0  0  0  0  0  0
  -17.4994  -31.6268   24.5178 H   0  0  0  0  0  0
  -15.5347  -30.2991   23.7652 H   0  0  0  0  0  0
  -15.8679  -28.0845   22.7045 H   0  0  0  0  0  0
  -24.5841  -30.7141   25.7772 H   0  0  0  0  0  0
  -24.8923  -32.2932   26.4900 H   0  0  0  0  0  0
  -25.7993  -30.8891   27.0224 H   0  0  0  0  0  0
  -26.2868  -29.6796   24.1186 H   0  0  0  0  0  0
  -27.3975  -29.7254   25.4681 H   0  0  0  0  0  0
  -27.8753  -30.4312   23.9416 H   0  0  0  0  0  0
  -27.2618  -33.3640   26.2098 H   0  0  0  0  0  0
  -28.3837  -32.6919   25.0357 H   0  0  0  0  0  0
  -28.0686  -31.8475   26.5444 H   0  0  0  0  0  0
  -28.2597  -38.0118   24.7524 H   0  0  0  0  0  0
  -28.1101  -36.2642   24.6283 H   0  0  0  0  0  0
  -27.2299  -37.1455   25.8863 H   0  0  0  0  0  0
  -20.9372  -29.8757   21.6880 H   0  0  0  0  0  0
  -26.0187  -38.2864   24.1407 H   0  0  0  0  0  0
  -28.8919  -18.2267   18.9073 H   0  0  0  0  0  0
  -30.3376  -19.1534   19.1970 H   0  0  0  0  0  0
  -28.1855  -17.9755   22.5969 H   0  0  0  0  0  0
  -27.6597  -17.3637   21.0700 H   0  0  0  0  0  0
  -31.5216  -17.2917   20.1520 H   0  0  0  0  0  0
  -30.7761  -16.6844   18.7076 H   0  0  0  0  0  0
  -29.0190  -15.7140   22.4065 H   0  0  0  0  0  0
  -30.3821  -16.7760   22.3833 H   0  0  0  0  0  0
  -26.9781  -21.7213   26.0500 H   0  0  0  0  0  0
  -26.7240  -20.5213   24.7859 H   0  0  0  0  0  0
  -26.4250  -22.2279   24.4528 H   0  0  0  0  0  0
  -28.9066  -22.6819   24.8413 H   0  0  0  0  0  0
  -29.1668  -20.9736   25.0501 H   0  0  0  0  0  0
  -28.5559  -23.5864   19.1550 H   0  0  0  0  0  0
  -29.9383  -24.0506   20.0983 H   0  0  0  0  0  0
  -28.3346  -25.2036   21.7667 H   0  0  0  0  0  0
  -27.0254  -24.8220   20.7188 H   0  0  0  0  0  0
  1 25  1  0  0  0
  1 30  2  0  0  0
  1 86  1  0  0  0
  2  3  1  0  0  0
  2 25  1  0  0  0
  2 87  1  0  0  0
  2 88  1  0  0  0
  3  4  1  0  0  0
  3 89  1  0  0  0
  3 90  1  0  0  0
  4  5  1  0  0  0
  4 91  1  0  0  0
  4 92  1  0  0  0
  5  6  1  0  0  0
  5 26  1  0  0  0
  5 93  1  0  0  0
  6 25  1  0  0  0
  6 94  1  0  0  0
  6 95  1  0  0  0
  7  8  2  0  0  0
  7 26  1  0  0  0
  7 29  1  0  0  0
  8  9  1  0  0  0
  8 22  1  0  0  0
  9 10  1  0  0  0
  9 27  2  0  0  0
 10 11  2  0  0  0
 10 15  1  0  0  0
 11 12  1  0  0  0
 11 96  1  0  0  0
 12 13  2  0  0  0
 12 97  1  0  0  0
 13 14  1  0  0  0
 13 31  1  0  0  0
 14 15  2  0  0  0
 14 98  1  0  0  0
 15 99  1  0  0  0
 16 17  2  0  0  0
 16 21  1  0  0  0
 16 31  1  0  0  0
 17 18  1  0  0  0
 17100  1  0  0  0
 18 19  2  0  0  0
 18101  1  0  0  0
 19 20  1  0  0  0
 19 24  1  0  0  0
 20 21  2  0  0  0
 20102  1  0  0  0
 21 23  1  0  0  0
 22 28  1  0  0  0
 22 32  2  0  0  0
 26 27  1  0  0  0
 28103  1  0  0  0
 28104  1  0  0  0
 29105  1  0  0  0
 29106  1  0  0  0
 33 34  1  0  0  0
 33 66  1  0  0  0
 33 70  2  0  0  0
 34 36  1  0  0  0
 34 59  1  0  0  0
 34107  1  0  0  0
 35 44  2  0  0  0
 35 45  1  0  0  0
 35 68  1  0  0  0
 36 56  1  0  0  0
 36108  1  0  0  0
 37 39  1  0  0  0
 37 47  1  0  0  0
 37 66  1  0  0  0
 37109  1  0  0  0
 38 43  2  0  0  0
 38 46  1  0  0  0
 38 47  1  0  0  0
 39 64  1  0  0  0
 39 67  2  0  0  0
 40 52  1  0  0  0
 40 53  2  0  0  0
 40 58  1  0  0  0
 41110  1  0  0  0
 41111  1  0  0  0
 41112  1  0  0  0
 41 48  1  0  0  0
 42 43  1  0  0  0
 42 66  1  0  0  0
 42113  1  0  0  0
 42114  1  0  0  0
 43 44  1  0  0  0
 44115  1  0  0  0
 45 46  2  0  0  0
 45116  1  0  0  0
 46117  1  0  0  0
 47118  1  0  0  0
 47119  1  0  0  0
 48 56  1  0  0  0
 48 65  1  0  0  0
 48120  1  0  0  0
 49 50  1  0  0  0
 49 53  1  0  0  0
 49 64  1  0  0  0
 49121  1  0  0  0
 50 51  1  0  0  0
 50122  1  0  0  0
 50123  1  0  0  0
 51 52  1  0  0  0
 51124  1  0  0  0
 51125  1  0  0  0
 52126  1  0  0  0
 52127  1  0  0  0
 53 54  1  0  0  0
 54 55  2  0  0  0
 54128  1  0  0  0
 55 57  1  0  0  0
 55129  1  0  0  0
 56 69  2  0  0  0
 57 58  2  0  0  0
 57130  1  0  0  0
 58131  1  0  0  0
 59 60  1  0  0  0
 59 61  1  0  0  0
 59 62  1  0  0  0
 60132  1  0  0  0
 60133  1  0  0  0
 60134  1  0  0  0
 61135  1  0  0  0
 61136  1  0  0  0
 61137  1  0  0  0
 62138  1  0  0  0
 62139  1  0  0  0
 62140  1  0  0  0
 63 65  1  0  0  0
 63141  1  0  0  0
 63142  1  0  0  0
 63143  1  0  0  0
 64144  1  0  0  0
 65145  1  0  0  0
 68 81  1  0  0  0
 71 79  1  0  0  0
 71 82  2  0  0  0
 71 83  1  0  0  0
 72 80  1  0  0  0
 72 82  1  0  0  0
 72 84  2  0  0  0
 73 83  2  0  0  0
 73 84  1  0  0  0
 73 85  1  0  0  0
 74 76  1  0  0  0
 74 85  1  0  0  0
 74146  1  0  0  0
 74147  1  0  0  0
 75 77  1  0  0  0
 75 85  1  0  0  0
 75148  1  0  0  0
 75149  1  0  0  0
 76 86  1  0  0  0
 76150  1  0  0  0
 76151  1  0  0  0
 77 86  1  0  0  0
 77152  1  0  0  0
 77153  1  0  0  0
 78 79  1  0  0  0
 78154  1  0  0  0
 78155  1  0  0  0
 78156  1  0  0  0
 79157  1  0  0  0
 79158  1  0  0  0
 80 81  1  0  0  0
 80159  1  0  0  0
 80160  1  0  0  0
 81161  1  0  0  0
 81162  1  0  0  0
M  ISO  4   1 100  68 101  81 101  86 100
M  END
> <chiral flag>
0

> <version>
0

> <s_m_source_file>
/data/baiqing/PycharmProjects/Reinvent-master-3.2/result/LINK_invent/BTK/process_docking_weight1_custom_sum_contain_oxygen_bond_distance_aromatic_linkinvent_7_9_3/rearranged_h_0198.sdf

> <i_m_source_file_index>
38

> <r_mmod_Potential_Energy-OPLS-2005>
-463.68896484375

> <r_mmod_Stretch_Energy-OPLS-2005>
90.476188659668

> <r_mmod_Bend_Energy-OPLS-2005>
166.643569946289

> <r_mmod_Torsional_Energy-OPLS-2005>
329.235321044922

> <r_mmod_Improper_Torsional_Energy-OPLS-2005>
16.8338203430176

> <r_mmod_Van_der_Waal_Energy-OPLS-2005>
177.067398071289

> <r_mmod_Electrostatic_Energy-OPLS-2005>
-1071.92333984375

> <r_mmod_Solvation_Energy-OPLS-2005>
-232.037460327148

> <b_mmod_Minimization_Converged-OPLS-2005>
0

> <r_mmod_RMS_Derivative-OPLS-2005>
2.29037714004517

$$$$
38
                    3D
 Structure written by MMmdl.
151160  0  0  1  0            999 V2000
  -30.4108  -15.4668   20.3442 C   0  0  0  0  0  0
  -30.4147  -12.9610   19.5292 C   0  0  0  0  0  0
  -29.5326  -12.6062   18.3052 C   0  0  0  0  0  0
  -28.0979  -12.2906   18.7515 C   0  0  0  0  0  0
  -27.5951  -13.2985   19.8133 C   0  0  2  0  0  0
  -28.6191  -13.5900   20.9335 C   0  0  0  0  0  0
  -25.2324  -13.8298   20.5827 C   0  0  0  0  0  0
  -24.1702  -13.0445   20.9297 C   0  0  0  0  0  0
  -24.6388  -11.6951   20.8774 C   0  0  0  0  0  0
  -23.9102  -10.4294   21.0405 C   0  0  0  0  0  0
  -24.3643   -9.4205   21.9186 C   0  0  0  0  0  0
  -23.6311   -8.2240   22.0753 C   0  0  0  0  0  0
  -22.4290   -8.0285   21.3543 C   0  0  0  0  0  0
  -21.9928   -9.0265   20.4646 C   0  0  0  0  0  0
  -22.7271  -10.2137   20.3057 C   0  0  0  0  0  0
  -21.6857   -6.0739   22.5282 C   0  0  0  0  0  0
  -21.4026   -6.5639   23.8216 C   0  0  0  0  0  0
  -21.3667   -5.6793   24.9179 C   0  0  0  0  0  0
  -21.6041   -4.3052   24.7228 C   0  0  0  0  0  0
  -21.8814   -3.8146   23.4350 C   0  0  0  0  0  0
  -21.9186   -4.6961   22.3402 C   0  0  0  0  0  0
  -22.7714  -13.5170   21.1933 C   0  0  0  0  0  0
  -22.1647   -4.2144   21.0981 F   0  0  0  0  0  0
  -21.5626   -3.4539   25.7745 F   0  0  0  0  0  0
  -29.8125  -14.1517   20.2707 N   0  0  0  0  0  0
  -26.2753  -12.9610   20.3254 N   0  0  0  0  0  0
  -25.9328  -11.6687   20.5724 N   0  0  0  0  0  0
  -22.0373  -12.8149   22.0484 N   0  0  0  0  0  0
  -25.3932  -15.2045   20.4289 N   0  0  0  0  0  0
  -31.6366  -15.3567   20.1686 O   0  0  0  0  0  0
  -21.6643   -6.8885   21.4242 O   0  0  0  0  0  0
  -22.3389  -14.5467   20.6770 O   0  0  0  0  0  0
  -24.6748  -31.8093   23.1590 C   0  0  0  0  0  0
  -25.9371  -32.4516   23.8107 C   0  0  1  0  0  0
  -27.2189  -26.7956   20.1975 C   0  0  0  0  0  0
  -25.5981  -33.8336   24.2000 N   0  0  0  0  0  0
  -23.4970  -30.4152   21.5102 C   0  0  2  0  0  0
  -24.9522  -28.7757   20.1122 C   0  0  0  0  0  0
  -22.7732  -29.4359   22.4731 C   0  0  0  0  0  0
  -18.0332  -28.1413   22.8454 C   0  0  0  0  0  0
  -24.1497  -36.7181   23.2652 C   0  0  0  0  0  0
  -26.0725  -30.5716   21.4104 C   0  0  0  0  0  0
  -26.1374  -29.1470   20.7576 C   0  0  0  0  0  0
  -27.2584  -28.1805   20.7730 C   0  0  0  0  0  0
  -26.0058  -26.6110   19.4927 C   0  0  0  0  0  0
  -24.9195  -27.5320   19.4575 C   0  0  0  0  0  0
  -23.7457  -29.7207   20.1412 C   0  0  0  0  0  0
  -25.4141  -36.2926   24.0291 C   0  0  1  0  0  0
  -20.5963  -28.3767   23.1157 C   0  0  2  0  0  0
  -20.6801  -26.9434   22.5401 C   0  0  0  0  0  0
  -19.5776  -26.6370   21.5211 C   0  0  0  0  0  0
  -18.1959  -26.7940   22.1618 C   0  0  0  0  0  0
  -19.1596  -28.8912   23.2787 C   0  0  0  0  0  0
  -18.9505  -30.1498   23.8831 C   0  0  0  0  0  0
  -17.6495  -30.6595   24.0553 C   0  0  0  0  0  0
  -25.9112  -34.9311   23.4977 C   0  0  0  0  0  0
  -16.5385  -29.9085   23.6342 C   0  0  0  0  0  0
  -16.7311  -28.6506   23.0357 C   0  0  0  0  0  0
  -26.4571  -31.6518   25.0696 C   0  0  0  0  0  0
  -25.3658  -31.3809   26.1325 C   0  0  0  0  0  0
  -27.0494  -30.2871   24.6535 C   0  0  0  0  0  0
  -27.6035  -32.4358   25.7509 C   0  0  0  0  0  0
  -27.5567  -37.1747   24.8463 C   0  0  0  0  0  0
  -21.4386  -29.3035   22.3490 N   0  0  0  0  0  0
  -26.4272  -37.3678   23.9407 N   0  0  0  0  0  0
  -24.7708  -30.9628   22.0797 N   0  0  0  0  0  0
  -23.4218  -28.7941   23.3030 O   0  0  0  0  0  0
  -28.1952  -25.6263   20.3036 O   0  0  0  0  0  0
  -26.5740  -34.8869   22.4587 O   0  0  0  0  0  0
  -23.5785  -32.1124   23.6600 O   0  0  0  0  0  0
  -29.9751  -18.9306   18.5150 C   0  0  0  0  0  0
  -28.5500  -17.7287   20.6877 C   0  0  0  0  0  0
  -29.5238  -20.4495   18.7167 C   0  0  0  0  0  0
  -30.3086  -18.3438   19.8979 C   0  0  1  0  0  0
  -29.3003  -19.2196   20.7614 C   0  0  1  0  0  0
  -28.8576  -22.3216   20.5537 C   0  0  0  0  0  0
  -28.0581  -23.9380   20.0042 C   0  0  0  0  0  0
  -29.7999  -16.8794   20.2974 N   0  0  0  0  0  0
  -28.8234  -20.6695   20.0302 N   0  3  1  0  0  0
  -31.4241  -13.1730   19.1757 H   0  0  0  0  0  0
  -30.5233  -12.1013   20.1923 H   0  0  0  0  0  0
  -29.9531  -11.7577   17.7628 H   0  0  0  0  0  0
  -29.5247  -13.4445   17.6074 H   0  0  0  0  0  0
  -28.1003  -11.2870   19.1783 H   0  0  0  0  0  0
  -27.4249  -12.2585   17.8938 H   0  0  0  0  0  0
  -27.4725  -14.2327   19.2625 H   0  0  0  0  0  0
  -28.8436  -12.6992   21.5227 H   0  0  0  0  0  0
  -28.2186  -14.3308   21.6274 H   0  0  0  0  0  0
  -25.2781   -9.5680   22.4780 H   0  0  0  0  0  0
  -24.0007   -7.4632   22.7479 H   0  0  0  0  0  0
  -21.0856   -8.8805   19.8962 H   0  0  0  0  0  0
  -22.3731  -10.9689   19.6177 H   0  0  0  0  0  0
  -21.2033   -7.6150   23.9726 H   0  0  0  0  0  0
  -21.1492   -6.0518   25.9083 H   0  0  0  0  0  0
  -22.0582   -2.7604   23.2852 H   0  0  0  0  0  0
  -22.4010  -11.9832   22.4896 H   0  0  0  0  0  0
  -21.0984  -13.1162   22.2690 H   0  0  0  0  0  0
  -24.6232  -15.8532   20.5565 H   0  0  0  0  0  0
  -26.2404  -15.6513   20.1051 H   0  0  0  0  0  0
  -26.7450  -32.5011   23.0822 H   0  0  0  0  0  0
  -25.0054  -33.9388   25.0101 H   0  0  0  0  0  0
  -22.8176  -31.2504   21.3281 H   0  0  0  0  0  0
  -23.3774  -35.9495   23.3262 H   0  0  0  0  0  0
  -24.3577  -36.8890   22.2078 H   0  0  0  0  0  0
  -23.7242  -37.6344   23.6754 H   0  0  0  0  0  0
  -26.2674  -31.3028   20.6247 H   0  0  0  0  0  0
  -26.9271  -30.6341   22.0721 H   0  0  0  0  0  0
  -28.1499  -28.4643   21.3149 H   0  0  0  0  0  0
  -25.8565  -25.6660   18.9908 H   0  0  0  0  0  0
  -24.0228  -27.2425   18.9267 H   0  0  0  0  0  0
  -23.9188  -30.4846   19.3825 H   0  0  0  0  0  0
  -22.8521  -29.1857   19.8152 H   0  0  0  0  0  0
  -25.1345  -36.1706   25.0781 H   0  0  0  0  0  0
  -21.0041  -28.3389   24.1285 H   0  0  0  0  0  0
  -20.5667  -26.2391   23.3658 H   0  0  0  0  0  0
  -21.6666  -26.7389   22.1221 H   0  0  0  0  0  0
  -19.6936  -25.6264   21.1285 H   0  0  0  0  0  0
  -19.6716  -27.3144   20.6711 H   0  0  0  0  0  0
  -17.4226  -26.6673   21.4025 H   0  0  0  0  0  0
  -18.0355  -26.0101   22.9034 H   0  0  0  0  0  0
  -19.7981  -30.7328   24.2177 H   0  0  0  0  0  0
  -17.5046  -31.6266   24.5176 H   0  0  0  0  0  0
  -15.5382  -30.2966   23.7700 H   0  0  0  0  0  0
  -15.8713  -28.0806   22.7104 H   0  0  0  0  0  0
  -24.5851  -30.7151   25.7626 H   0  0  0  0  0  0
  -24.8831  -32.3021   26.4598 H   0  0  0  0  0  0
  -25.7848  -30.9069   27.0210 H   0  0  0  0  0  0
  -26.3185  -29.6497   24.1544 H   0  0  0  0  0  0
  -27.3974  -29.7303   25.5247 H   0  0  0  0  0  0
  -27.9147  -30.4025   24.0007 H   0  0  0  0  0  0
  -27.2584  -33.3712   26.1929 H   0  0  0  0  0  0
  -28.3926  -32.6837   25.0396 H   0  0  0  0  0  0
  -28.0617  -31.8594   26.5557 H   0  0  0  0  0  0
  -28.2551  -38.0072   24.7515 H   0  0  0  0  0  0
  -28.1092  -36.2596   24.6279 H   0  0  0  0  0  0
  -27.2280  -37.1375   25.8862 H   0  0  0  0  0  0
  -20.9672  -29.8722   21.6594 H   0  0  0  0  0  0
  -26.0109  -38.2729   24.1418 H   0  0  0  0  0  0
  -30.8258  -18.8665   17.8365 H   0  0  0  0  0  0
  -29.1661  -18.3735   18.0421 H   0  0  0  0  0  0
  -27.7656  -17.6899   19.9301 H   0  0  0  0  0  0
  -28.1166  -17.4423   21.6462 H   0  0  0  0  0  0
  -28.9013  -20.7916   17.8894 H   0  0  0  0  0  0
  -30.4204  -21.0697   18.7094 H   0  0  0  0  0  0
  -31.3379  -18.5393   20.2038 H   0  0  0  0  0  0
  -29.7026  -19.4015   21.7576 H   0  0  0  0  0  0
  -28.5756  -22.2431   21.6030 H   0  0  0  0  0  0
  -29.9226  -22.5482   20.5909 H   0  0  0  0  0  0
  -26.9923  -23.7588   20.1465 H   0  0  0  0  0  0
  -28.1757  -23.9111   18.9211 H   0  0  0  0  0  0
  -27.8426  -20.5140   19.8481 H   0  0  0  0  0  0
  1 25  1  0  0  0
  1 30  2  0  0  0
  1 78  1  0  0  0
  2  3  1  0  0  0
  2 25  1  0  0  0
  2 80  1  0  0  0
  2 81  1  0  0  0
  3  4  1  0  0  0
  3 82  1  0  0  0
  3 83  1  0  0  0
  4  5  1  0  0  0
  4 84  1  0  0  0
  4 85  1  0  0  0
  5  6  1  0  0  0
  5 26  1  0  0  0
  5 86  1  0  0  0
  6 25  1  0  0  0
  6 87  1  0  0  0
  6 88  1  0  0  0
  7  8  2  0  0  0
  7 26  1  0  0  0
  7 29  1  0  0  0
  8  9  1  0  0  0
  8 22  1  0  0  0
  9 10  1  0  0  0
  9 27  2  0  0  0
 10 11  2  0  0  0
 10 15  1  0  0  0
 11 12  1  0  0  0
 11 89  1  0  0  0
 12 13  2  0  0  0
 12 90  1  0  0  0
 13 14  1  0  0  0
 13 31  1  0  0  0
 14 15  2  0  0  0
 14 91  1  0  0  0
 15 92  1  0  0  0
 16 17  2  0  0  0
 16 21  1  0  0  0
 16 31  1  0  0  0
 17 18  1  0  0  0
 17 93  1  0  0  0
 18 19  2  0  0  0
 18 94  1  0  0  0
 19 20  1  0  0  0
 19 24  1  0  0  0
 20 21  2  0  0  0
 20 95  1  0  0  0
 21 23  1  0  0  0
 22 28  1  0  0  0
 22 32  2  0  0  0
 26 27  1  0  0  0
 28 96  1  0  0  0
 28 97  1  0  0  0
 29 98  1  0  0  0
 29 99  1  0  0  0
 33 34  1  0  0  0
 33 66  1  0  0  0
 33 70  2  0  0  0
 34 36  1  0  0  0
 34 59  1  0  0  0
 34100  1  0  0  0
 35 44  2  0  0  0
 35 45  1  0  0  0
 35 68  1  0  0  0
 36 56  1  0  0  0
 36101  1  0  0  0
 37 39  1  0  0  0
 37 47  1  0  0  0
 37 66  1  0  0  0
 37102  1  0  0  0
 38 43  2  0  0  0
 38 46  1  0  0  0
 38 47  1  0  0  0
 39 64  1  0  0  0
 39 67  2  0  0  0
 40 52  1  0  0  0
 40 53  2  0  0  0
 40 58  1  0  0  0
 41103  1  0  0  0
 41104  1  0  0  0
 41105  1  0  0  0
 41 48  1  0  0  0
 42 43  1  0  0  0
 42 66  1  0  0  0
 42106  1  0  0  0
 42107  1  0  0  0
 43 44  1  0  0  0
 44108  1  0  0  0
 45 46  2  0  0  0
 45109  1  0  0  0
 46110  1  0  0  0
 47111  1  0  0  0
 47112  1  0  0  0
 48 56  1  0  0  0
 48 65  1  0  0  0
 48113  1  0  0  0
 49 50  1  0  0  0
 49 53  1  0  0  0
 49 64  1  0  0  0
 49114  1  0  0  0
 50 51  1  0  0  0
 50115  1  0  0  0
 50116  1  0  0  0
 51 52  1  0  0  0
 51117  1  0  0  0
 51118  1  0  0  0
 52119  1  0  0  0
 52120  1  0  0  0
 53 54  1  0  0  0
 54 55  2  0  0  0
 54121  1  0  0  0
 55 57  1  0  0  0
 55122  1  0  0  0
 56 69  2  0  0  0
 57 58  2  0  0  0
 57123  1  0  0  0
 58124  1  0  0  0
 59 60  1  0  0  0
 59 61  1  0  0  0
 59 62  1  0  0  0
 60125  1  0  0  0
 60126  1  0  0  0
 60127  1  0  0  0
 61128  1  0  0  0
 61129  1  0  0  0
 61130  1  0  0  0
 62131  1  0  0  0
 62132  1  0  0  0
 62133  1  0  0  0
 63 65  1  0  0  0
 63134  1  0  0  0
 63135  1  0  0  0
 63136  1  0  0  0
 64137  1  0  0  0
 65138  1  0  0  0
 68 77  1  0  0  0
 71 73  1  0  0  0
 71139  1  0  0  0
 71140  1  0  0  0
 71 74  1  0  0  0
 72 78  1  0  0  0
 72141  1  0  0  0
 72142  1  0  0  0
 72 75  1  0  0  0
 73 79  1  0  0  0
 73143  1  0  0  0
 73144  1  0  0  0
 74 75  1  0  0  0
 74 78  1  0  0  0
 74145  1  0  0  0
 75 79  1  0  0  0
 75146  1  0  0  0
 76 77  1  0  0  0
 76147  1  0  0  0
 76148  1  0  0  0
 76 79  1  0  0  0
 77149  1  0  0  0
 77150  1  0  0  0
 79151  1  0  0  0
M  CHG  1  79   1
M  ISO  4   1 100  68 101  77 101  78 100
M  END
> <chiral flag>
0

> <version>
0

> <s_m_source_file>
/data/baiqing/PycharmProjects/Reinvent-master-3.2/result/LINK_invent/BTK/process_docking_weight1_custom_sum_contain_oxygen_bond_distance_aromatic_linkinvent_7_9_3/rearranged_h_0198.sdf

> <i_m_source_file_index>
39

> <r_mmod_Potential_Energy-OPLS-2005>
1912.98376464844

> <r_mmod_Stretch_Energy-OPLS-2005>
780.109313964844

> <r_mmod_Bend_Energy-OPLS-2005>
644.383605957031

> <r_mmod_Torsional_Energy-OPLS-2005>
358.101379394531

> <r_mmod_Improper_Torsional_Energy-OPLS-2005>
8.07961177825928

> <r_mmod_Van_der_Waal_Energy-OPLS-2005>
107.500305175781

> <r_mmod_Electrostatic_Energy-OPLS-2005>
-204.343688964844

> <r_mmod_Solvation_Energy-OPLS-2005>
-466.349914550781

> <b_mmod_Minimization_Converged-OPLS-2005>
0

> <r_mmod_RMS_Derivative-OPLS-2005>
1.30615317821503

$$$$
39
                    3D
 Structure written by MMmdl.
161170  0  0  1  0            999 V2000
  -30.7346  -14.5724   20.4962 C   0  0  0  0  0  0
  -30.4194  -12.3584   19.4359 C   0  0  0  0  0  0
  -29.4870  -12.4651   18.2124 C   0  0  0  0  0  0
  -28.0178  -12.2757   18.6361 C   0  0  0  0  0  0
  -27.6349  -13.1679   19.8404 C   0  0  2  0  0  0
  -28.6975  -13.1086   20.9705 C   0  0  0  0  0  0
  -25.2535  -13.8016   20.5662 C   0  0  0  0  0  0
  -24.1784  -13.0345   20.9221 C   0  0  0  0  0  0
  -24.6317  -11.6814   20.8798 C   0  0  0  0  0  0
  -23.8989  -10.4234   21.0453 C   0  0  0  0  0  0
  -24.3569   -9.4161   21.9218 C   0  0  0  0  0  0
  -23.6262   -8.2192   22.0761 C   0  0  0  0  0  0
  -22.4249   -8.0240   21.3537 C   0  0  0  0  0  0
  -21.9866   -9.0212   20.4646 C   0  0  0  0  0  0
  -22.7181  -10.2094   20.3080 C   0  0  0  0  0  0
  -21.6838   -6.0711   22.5274 C   0  0  0  0  0  0
  -21.4010   -6.5626   23.8206 C   0  0  0  0  0  0
  -21.3657   -5.6785   24.9172 C   0  0  0  0  0  0
  -21.6051   -4.3049   24.7227 C   0  0  0  0  0  0
  -21.8823   -3.8131   23.4351 C   0  0  0  0  0  0
  -21.9188   -4.6942   22.3403 C   0  0  0  0  0  0
  -22.7827  -13.5201   21.1868 C   0  0  0  0  0  0
  -22.1657   -4.2134   21.0978 F   0  0  0  0  0  0
  -21.5630   -3.4533   25.7737 F   0  0  0  0  0  0
  -30.0163  -13.4091   20.3881 N   0  0  0  0  0  0
  -26.2899  -12.9087   20.3296 N   0  0  0  0  0  0
  -25.9223  -11.6313   20.5828 N   0  0  0  0  0  0
  -22.0450  -12.8220   22.0429 N   0  0  0  0  0  0
  -25.4200  -15.1734   20.3989 N   0  0  0  0  0  0
  -31.9265  -14.6176   20.1859 O   0  0  0  0  0  0
  -21.6615   -6.8843   21.4231 O   0  0  0  0  0  0
  -22.3551  -14.5519   20.6706 O   0  0  0  0  0  0
  -24.6155  -31.8680   23.2102 C   0  0  0  0  0  0
  -25.9045  -32.4827   23.8395 C   0  0  1  0  0  0
  -27.2324  -27.4199   20.1064 C   0  0  0  0  0  0
  -25.5899  -33.8623   24.2326 N   0  0  0  0  0  0
  -23.4044  -30.4919   21.5496 C   0  0  2  0  0  0
  -24.8527  -28.9598   20.1126 C   0  0  0  0  0  0
  -22.7413  -29.4661   22.4976 C   0  0  0  0  0  0
  -18.0273  -28.1379   22.8497 C   0  0  0  0  0  0
  -24.1486  -36.7311   23.2637 C   0  0  0  0  0  0
  -25.9347  -30.8301   21.3662 C   0  0  0  0  0  0
  -26.0134  -29.4640   20.7128 C   0  0  0  0  0  0
  -27.2076  -28.7026   20.7066 C   0  0  0  0  0  0
  -26.0583  -26.9466   19.4773 C   0  0  0  0  0  0
  -24.8709  -27.7012   19.4896 C   0  0  0  0  0  0
  -23.6146  -29.8265   20.1637 C   0  0  0  0  0  0
  -25.4108  -36.3112   24.0338 C   0  0  1  0  0  0
  -20.5863  -28.3667   23.1317 C   0  0  2  0  0  0
  -20.6764  -26.9403   22.5417 C   0  0  0  0  0  0
  -19.5744  -26.6389   21.5212 C   0  0  0  0  0  0
  -18.1923  -26.7927   22.1626 C   0  0  0  0  0  0
  -19.1523  -28.8838   23.2907 C   0  0  0  0  0  0
  -18.9452  -30.1442   23.8920 C   0  0  0  0  0  0
  -17.6455  -30.6587   24.0567 C   0  0  0  0  0  0
  -25.9036  -34.9479   23.5130 C   0  0  0  0  0  0
  -16.5345  -29.9091   23.6324 C   0  0  0  0  0  0
  -16.7263  -28.6502   23.0355 C   0  0  0  0  0  0
  -26.4469  -31.6604   25.0720 C   0  0  0  0  0  0
  -25.3739  -31.3714   26.1471 C   0  0  0  0  0  0
  -27.0294  -30.3045   24.6095 C   0  0  0  0  0  0
  -27.6045  -32.4322   25.7484 C   0  0  0  0  0  0
  -27.5581  -37.1813   24.8466 C   0  0  0  0  0  0
  -21.4139  -29.3039   22.3721 N   0  0  0  0  0  0
  -26.4295  -37.3795   23.9407 N   0  0  0  0  0  0
  -24.6695  -31.0773   22.1005 N   0  0  0  0  0  0
  -23.4184  -28.8196   23.3018 O   0  0  0  0  0  0
  -28.3767  -26.6422   20.1285 O   0  0  0  0  0  0
  -26.5591  -34.8932   22.4688 O   0  0  0  0  0  0
  -23.5346  -32.1434   23.7490 O   0  0  0  0  0  0
  -28.8879  -17.6834   20.0217 C   0  0  0  0  0  0
  -28.2637  -20.7412   20.3311 C   0  0  0  0  0  0
  -28.8799  -16.1667   20.1280 C   0  0  0  0  0  0
  -30.7818  -16.9724   21.2596 C   0  0  0  0  0  0
  -27.9025  -22.2339   20.3686 C   0  0  0  0  0  0
  -30.1719  -21.9671   21.0102 C   0  0  0  0  0  0
  -29.7704  -18.1459   21.1655 C   0  0  2  0  0  0
  -29.5050  -20.5872   21.2167 C   0  0  2  0  0  0
  -29.3314  -24.3084   20.4174 C   0  0  0  0  0  0
  -28.1994  -25.3346   20.7216 C   0  0  0  0  0  0
  -30.0872  -15.7319   20.8300 N   0  0  0  0  0  0
  -29.0485  -22.9464   20.9832 N   0  3  1  0  0  0
  -30.3429  -19.4457   20.9050 O   0  0  0  0  0  0
  -31.4607  -12.4485   19.1205 H   0  0  0  0  0  0
  -30.3344  -11.3761   19.9034 H   0  0  0  0  0  0
  -29.7558  -11.7121   17.4708 H   0  0  0  0  0  0
  -29.6121  -13.4342   17.7272 H   0  0  0  0  0  0
  -27.8771  -11.2249   18.8927 H   0  0  0  0  0  0
  -27.3532  -12.4741   17.7935 H   0  0  0  0  0  0
  -27.5843  -14.1515   19.4044 H   0  0  0  0  0  0
  -28.7138  -12.1187   21.4291 H   0  0  0  0  0  0
  -28.4505  -13.8041   21.7733 H   0  0  0  0  0  0
  -25.2715   -9.5651   22.4789 H   0  0  0  0  0  0
  -23.9975   -7.4586   22.7480 H   0  0  0  0  0  0
  -21.0797   -8.8739   19.8954 H   0  0  0  0  0  0
  -22.3655  -10.9645   19.6199 H   0  0  0  0  0  0
  -21.2004   -7.6135   23.9709 H   0  0  0  0  0  0
  -21.1477   -6.0512   25.9078 H   0  0  0  0  0  0
  -22.0607   -2.7593   23.2851 H   0  0  0  0  0  0
  -22.4039  -11.9881   22.4842 H   0  0  0  0  0  0
  -21.1082  -13.1290   22.2623 H   0  0  0  0  0  0
  -24.6480  -15.8222   20.5087 H   0  0  0  0  0  0
  -26.2599  -15.6157   20.0511 H   0  0  0  0  0  0
  -26.7114  -32.5536   23.1158 H   0  0  0  0  0  0
  -25.0064  -33.9787   25.0480 H   0  0  0  0  0  0
  -22.6939  -31.3094   21.4112 H   0  0  0  0  0  0
  -23.3745  -35.9649   23.3318 H   0  0  0  0  0  0
  -24.3578  -36.8908   22.2049 H   0  0  0  0  0  0
  -23.7254  -37.6528   23.6636 H   0  0  0  0  0  0
  -26.0488  -31.5975   20.5992 H   0  0  0  0  0  0
  -26.8214  -30.8827   21.9857 H   0  0  0  0  0  0
  -28.0998  -29.0855   21.1817 H   0  0  0  0  0  0
  -26.0501  -25.9937   18.9676 H   0  0  0  0  0  0
  -23.9816  -27.3137   19.0120 H   0  0  0  0  0  0
  -23.7234  -30.6022   19.4052 H   0  0  0  0  0  0
  -22.7390  -29.2467   19.8663 H   0  0  0  0  0  0
  -25.1295  -36.1975   25.0832 H   0  0  0  0  0  0
  -20.9959  -28.3231   24.1438 H   0  0  0  0  0  0
  -20.5668  -26.2273   23.3604 H   0  0  0  0  0  0
  -21.6637  -26.7453   22.1212 H   0  0  0  0  0  0
  -19.6908  -25.6306   21.1233 H   0  0  0  0  0  0
  -19.6685  -27.3205   20.6747 H   0  0  0  0  0  0
  -17.4195  -26.6674   21.4026 H   0  0  0  0  0  0
  -18.0329  -26.0065   22.9019 H   0  0  0  0  0  0
  -19.7928  -30.7247   24.2308 H   0  0  0  0  0  0
  -17.5014  -31.6275   24.5157 H   0  0  0  0  0  0
  -15.5349  -30.3005   23.7635 H   0  0  0  0  0  0
  -15.8661  -28.0827   22.7072 H   0  0  0  0  0  0
  -24.5903  -30.7070   25.7810 H   0  0  0  0  0  0
  -24.8936  -32.2872   26.4928 H   0  0  0  0  0  0
  -25.8098  -30.8877   27.0222 H   0  0  0  0  0  0
  -26.2835  -29.6819   24.1138 H   0  0  0  0  0  0
  -27.4053  -29.7273   25.4553 H   0  0  0  0  0  0
  -27.8679  -30.4363   23.9252 H   0  0  0  0  0  0
  -27.2657  -33.3604   26.2099 H   0  0  0  0  0  0
  -28.3835  -32.6916   25.0302 H   0  0  0  0  0  0
  -28.0731  -31.8423   26.5372 H   0  0  0  0  0  0
  -28.2613  -38.0094   24.7508 H   0  0  0  0  0  0
  -28.1066  -36.2633   24.6305 H   0  0  0  0  0  0
  -27.2297  -37.1484   25.8867 H   0  0  0  0  0  0
  -20.9290  -29.8767   21.6953 H   0  0  0  0  0  0
  -26.0186  -38.2877   24.1399 H   0  0  0  0  0  0
  -29.3281  -17.9809   19.0687 H   0  0  0  0  0  0
  -27.8736  -18.0759   20.0598 H   0  0  0  0  0  0
  -28.4990  -20.4582   19.3041 H   0  0  0  0  0  0
  -27.4294  -20.1301   20.6715 H   0  0  0  0  0  0
  -28.8361  -15.7611   19.1161 H   0  0  0  0  0  0
  -28.0134  -15.8547   20.7067 H   0  0  0  0  0  0
  -31.6244  -17.1639   20.5922 H   0  0  0  0  0  0
  -31.1809  -16.8702   22.2694 H   0  0  0  0  0  0
  -27.0017  -22.4080   20.9590 H   0  0  0  0  0  0
  -27.7022  -22.5864   19.3554 H   0  0  0  0  0  0
  -30.6963  -21.9871   20.0533 H   0  0  0  0  0  0
  -30.8910  -22.2012   21.7956 H   0  0  0  0  0  0
  -29.1939  -18.1655   22.0928 H   0  0  0  0  0  0
  -29.1936  -20.5191   22.2606 H   0  0  0  0  0  0
  -29.4845  -24.2307   19.3405 H   0  0  0  0  0  0
  -30.2653  -24.6836   20.8365 H   0  0  0  0  0  0
  -28.1211  -25.4714   21.8011 H   0  0  0  0  0  0
  -27.2546  -24.8894   20.4144 H   0  0  0  0  0  0
  -28.7955  -23.0834   21.9530 H   0  0  0  0  0  0
  1 25  1  0  0  0
  1 30  2  0  0  0
  1 81  1  0  0  0
  2  3  1  0  0  0
  2 25  1  0  0  0
  2 84  1  0  0  0
  2 85  1  0  0  0
  3  4  1  0  0  0
  3 86  1  0  0  0
  3 87  1  0  0  0
  4  5  1  0  0  0
  4 88  1  0  0  0
  4 89  1  0  0  0
  5  6  1  0  0  0
  5 26  1  0  0  0
  5 90  1  0  0  0
  6 25  1  0  0  0
  6 91  1  0  0  0
  6 92  1  0  0  0
  7  8  2  0  0  0
  7 26  1  0  0  0
  7 29  1  0  0  0
  8  9  1  0  0  0
  8 22  1  0  0  0
  9 10  1  0  0  0
  9 27  2  0  0  0
 10 11  2  0  0  0
 10 15  1  0  0  0
 11 12  1  0  0  0
 11 93  1  0  0  0
 12 13  2  0  0  0
 12 94  1  0  0  0
 13 14  1  0  0  0
 13 31  1  0  0  0
 14 15  2  0  0  0
 14 95  1  0  0  0
 15 96  1  0  0  0
 16 17  2  0  0  0
 16 21  1  0  0  0
 16 31  1  0  0  0
 17 18  1  0  0  0
 17 97  1  0  0  0
 18 19  2  0  0  0
 18 98  1  0  0  0
 19 20  1  0  0  0
 19 24  1  0  0  0
 20 21  2  0  0  0
 20 99  1  0  0  0
 21 23  1  0  0  0
 22 28  1  0  0  0
 22 32  2  0  0  0
 26 27  1  0  0  0
 28100  1  0  0  0
 28101  1  0  0  0
 29102  1  0  0  0
 29103  1  0  0  0
 33 34  1  0  0  0
 33 66  1  0  0  0
 33 70  2  0  0  0
 34 36  1  0  0  0
 34 59  1  0  0  0
 34104  1  0  0  0
 35 44  2  0  0  0
 35 45  1  0  0  0
 35 68  1  0  0  0
 36 56  1  0  0  0
 36105  1  0  0  0
 37 39  1  0  0  0
 37 47  1  0  0  0
 37 66  1  0  0  0
 37106  1  0  0  0
 38 43  2  0  0  0
 38 46  1  0  0  0
 38 47  1  0  0  0
 39 64  1  0  0  0
 39 67  2  0  0  0
 40 52  1  0  0  0
 40 53  2  0  0  0
 40 58  1  0  0  0
 41107  1  0  0  0
 41108  1  0  0  0
 41109  1  0  0  0
 41 48  1  0  0  0
 42 43  1  0  0  0
 42 66  1  0  0  0
 42110  1  0  0  0
 42111  1  0  0  0
 43 44  1  0  0  0
 44112  1  0  0  0
 45 46  2  0  0  0
 45113  1  0  0  0
 46114  1  0  0  0
 47115  1  0  0  0
 47116  1  0  0  0
 48 56  1  0  0  0
 48 65  1  0  0  0
 48117  1  0  0  0
 49 50  1  0  0  0
 49 53  1  0  0  0
 49 64  1  0  0  0
 49118  1  0  0  0
 50 51  1  0  0  0
 50119  1  0  0  0
 50120  1  0  0  0
 51 52  1  0  0  0
 51121  1  0  0  0
 51122  1  0  0  0
 52123  1  0  0  0
 52124  1  0  0  0
 53 54  1  0  0  0
 54 55  2  0  0  0
 54125  1  0  0  0
 55 57  1  0  0  0
 55126  1  0  0  0
 56 69  2  0  0  0
 57 58  2  0  0  0
 57127  1  0  0  0
 58128  1  0  0  0
 59 60  1  0  0  0
 59 61  1  0  0  0
 59 62  1  0  0  0
 60129  1  0  0  0
 60130  1  0  0  0
 60131  1  0  0  0
 61132  1  0  0  0
 61133  1  0  0  0
 61134  1  0  0  0
 62135  1  0  0  0
 62136  1  0  0  0
 62137  1  0  0  0
 63 65  1  0  0  0
 63138  1  0  0  0
 63139  1  0  0  0
 63140  1  0  0  0
 64141  1  0  0  0
 65142  1  0  0  0
 68 80  1  0  0  0
 71 73  1  0  0  0
 71 77  1  0  0  0
 71143  1  0  0  0
 71144  1  0  0  0
 72 75  1  0  0  0
 72 78  1  0  0  0
 72145  1  0  0  0
 72146  1  0  0  0
 73 81  1  0  0  0
 73147  1  0  0  0
 73148  1  0  0  0
 74 77  1  0  0  0
 74 81  1  0  0  0
 74149  1  0  0  0
 74150  1  0  0  0
 75 82  1  0  0  0
 75151  1  0  0  0
 75152  1  0  0  0
 76 78  1  0  0  0
 76 82  1  0  0  0
 76153  1  0  0  0
 76154  1  0  0  0
 77 83  1  0  0  0
 77155  1  0  0  0
 78 83  1  0  0  0
 78156  1  0  0  0
 79 80  1  0  0  0
 79157  1  0  0  0
 79158  1  0  0  0
 79 82  1  0  0  0
 80159  1  0  0  0
 80160  1  0  0  0
 82161  1  0  0  0
M  CHG  1  82   1
M  ISO  4   1 100  68 101  80 101  81 100
M  END
> <chiral flag>
0

> <version>
0

> <s_m_source_file>
/data/baiqing/PycharmProjects/Reinvent-master-3.2/result/LINK_invent/BTK/process_docking_weight1_custom_sum_contain_oxygen_bond_distance_aromatic_linkinvent_7_9_3/rearranged_h_0198.sdf

> <i_m_source_file_index>
40

> <r_mmod_Potential_Energy-OPLS-2005>
171.677108764648

> <r_mmod_Stretch_Energy-OPLS-2005>
45.7953910827637

> <r_mmod_Bend_Energy-OPLS-2005>
158.561416625977

> <r_mmod_Torsional_Energy-OPLS-2005>
397.893676757812

> <r_mmod_Improper_Torsional_Energy-OPLS-2005>
5.59798431396484

> <r_mmod_Van_der_Waal_Energy-OPLS-2005>
137.097183227539

> <r_mmod_Electrostatic_Energy-OPLS-2005>
-178.274963378906

> <r_mmod_Solvation_Energy-OPLS-2005>
-427.826812744141

> <b_mmod_Minimization_Converged-OPLS-2005>
0

> <r_mmod_RMS_Derivative-OPLS-2005>
1.2275767326355

$$$$
40
                    3D
 Structure written by MMmdl.
176186  0  0  1  0            999 V2000
  -30.7032  -14.4345   20.4355 C   0  0  0  0  0  0
  -30.4091  -12.2279   19.4100 C   0  0  0  0  0  0
  -29.4822  -12.4261   18.1902 C   0  0  0  0  0  0
  -27.9970  -12.3323   18.6033 C   0  0  0  0  0  0
  -27.6544  -13.1800   19.8570 C   0  0  2  0  0  0
  -28.7114  -12.9790   20.9719 C   0  0  0  0  0  0
  -25.2585  -13.8084   20.5655 C   0  0  0  0  0  0
  -24.1835  -13.0399   20.9208 C   0  0  0  0  0  0
  -24.6382  -11.6870   20.8795 C   0  0  0  0  0  0
  -23.9062  -10.4268   21.0445 C   0  0  0  0  0  0
  -24.3614   -9.4161   21.9206 C   0  0  0  0  0  0
  -23.6287   -8.2198   22.0763 C   0  0  0  0  0  0
  -22.4255   -8.0272   21.3569 C   0  0  0  0  0  0
  -21.9911   -9.0256   20.4646 C   0  0  0  0  0  0
  -22.7249  -10.2130   20.3073 C   0  0  0  0  0  0
  -21.6826   -6.0730   22.5304 C   0  0  0  0  0  0
  -21.3991   -6.5658   23.8231 C   0  0  0  0  0  0
  -21.3656   -5.6827   24.9212 C   0  0  0  0  0  0
  -21.6041   -4.3089   24.7259 C   0  0  0  0  0  0
  -21.8817   -3.8160   23.4390 C   0  0  0  0  0  0
  -21.9169   -4.6963   22.3431 C   0  0  0  0  0  0
  -22.7851  -13.5180   21.1901 C   0  0  0  0  0  0
  -22.1642   -4.2145   21.1013 F   0  0  0  0  0  0
  -21.5637   -3.4577   25.7775 F   0  0  0  0  0  0
  -30.0399  -13.2488   20.3970 N   0  0  0  0  0  0
  -26.2990  -12.9212   20.3320 N   0  0  0  0  0  0
  -25.9275  -11.6411   20.5786 N   0  0  0  0  0  0
  -22.0523  -12.8146   22.0452 N   0  0  0  0  0  0
  -25.4268  -15.1790   20.3948 N   0  0  0  0  0  0
  -31.8983  -14.5481   20.1517 O   0  0  0  0  0  0
  -21.6619   -6.8874   21.4256 O   0  0  0  0  0  0
  -22.3503  -14.5492   20.6744 O   0  0  0  0  0  0
  -24.6081  -31.8705   23.2089 C   0  0  0  0  0  0
  -25.8993  -32.4843   23.8374 C   0  0  1  0  0  0
  -27.2562  -27.4758   20.0989 C   0  0  0  0  0  0
  -25.5858  -33.8632   24.2309 N   0  0  0  0  0  0
  -23.3948  -30.4904   21.5495 C   0  0  2  0  0  0
  -24.8448  -28.9545   20.1210 C   0  0  0  0  0  0
  -22.7373  -29.4670   22.5015 C   0  0  0  0  0  0
  -18.0258  -28.1379   22.8505 C   0  0  0  0  0  0
  -24.1482  -36.7300   23.2648 C   0  0  0  0  0  0
  -25.9167  -30.8530   21.3508 C   0  0  0  0  0  0
  -25.9999  -29.4874   20.7034 C   0  0  0  0  0  0
  -27.2044  -28.7582   20.6840 C   0  0  0  0  0  0
  -26.0777  -26.9371   19.5304 C   0  0  0  0  0  0
  -24.8769  -27.6759   19.5339 C   0  0  0  0  0  0
  -23.6012  -29.8122   20.1680 C   0  0  0  0  0  0
  -25.4112  -36.3114   24.0341 C   0  0  1  0  0  0
  -20.5844  -28.3652   23.1346 C   0  0  2  0  0  0
  -20.6745  -26.9384   22.5451 C   0  0  0  0  0  0
  -19.5738  -26.6382   21.5228 C   0  0  0  0  0  0
  -18.1902  -26.7934   22.1612 C   0  0  0  0  0  0
  -19.1507  -28.8830   23.2921 C   0  0  0  0  0  0
  -18.9435  -30.1442   23.8921 C   0  0  0  0  0  0
  -17.6440  -30.6586   24.0567 C   0  0  0  0  0  0
  -25.9037  -34.9486   23.5137 C   0  0  0  0  0  0
  -16.5333  -29.9089   23.6330 C   0  0  0  0  0  0
  -16.7249  -28.6501   23.0360 C   0  0  0  0  0  0
  -26.4447  -31.6610   25.0677 C   0  0  0  0  0  0
  -25.3721  -31.3689   26.1423 C   0  0  0  0  0  0
  -27.0294  -30.3071   24.6026 C   0  0  0  0  0  0
  -27.6037  -32.4329   25.7417 C   0  0  0  0  0  0
  -27.5586  -37.1795   24.8464 C   0  0  0  0  0  0
  -21.4106  -29.3012   22.3740 N   0  0  0  0  0  0
  -26.4299  -37.3797   23.9408 N   0  0  0  0  0  0
  -24.6583  -31.0848   22.0963 N   0  0  0  0  0  0
  -23.4163  -28.8228   23.3057 O   0  0  0  0  0  0
  -28.4771  -26.8392   20.1019 O   0  0  0  0  0  0
  -26.5621  -34.8938   22.4709 O   0  0  0  0  0  0
  -23.5292  -32.1426   23.7523 O   0  0  0  0  0  0
  -27.3944  -20.1627   16.4185 C   0  0  0  0  0  0
  -26.9863  -19.3109   17.6200 C   0  0  0  0  0  0
  -29.1132  -17.6806   21.1047 C   0  0  0  0  0  0
  -29.8696  -17.5634   18.7378 C   0  0  0  0  0  0
  -29.9029  -24.9735   20.5253 C   0  0  0  0  0  0
  -29.0842  -16.1427   21.2016 C   0  0  0  0  0  0
  -29.8531  -16.0324   18.7910 C   0  0  0  0  0  0
  -30.7623  -24.7538   19.2815 C   0  0  0  0  0  0
  -28.5581  -25.0062   18.4904 C   0  0  0  0  0  0
  -28.5839  -20.7174   17.2258 C   0  0  2  0  0  0
  -27.8543  -20.2334   18.5031 C   0  0  2  0  0  0
  -28.7981  -18.1463   19.6732 C   0  0  0  0  0  0
  -28.5450  -25.4243   19.9748 C   0  0  2  0  0  0
  -28.9318  -22.2033   17.0503 C   0  0  0  0  0  0
  -29.6815  -22.7930   18.2636 C   0  0  0  0  0  0
  -29.8936  -15.4821   20.1649 N   0  0  0  0  0  0
  -29.8267  -24.2726   18.2433 N   0  3  2  0  0  0
  -28.7165  -19.6240   19.5677 N   0  3  0  0  0  0
  -31.4569  -12.2823   19.1107 H   0  0  0  0  0  0
  -30.2654  -11.2287   19.8291 H   0  0  0  0  0  0
  -29.6951  -11.6654   17.4357 H   0  0  0  0  0  0
  -29.6783  -13.3836   17.7090 H   0  0  0  0  0  0
  -27.7742  -11.2826   18.7930 H   0  0  0  0  0  0
  -27.3565  -12.6265   17.7689 H   0  0  0  0  0  0
  -27.6755  -14.2133   19.5259 H   0  0  0  0  0  0
  -28.6718  -11.9548   21.3443 H   0  0  0  0  0  0
  -28.5113  -13.6102   21.8376 H   0  0  0  0  0  0
  -25.2768   -9.5629   22.4774 H   0  0  0  0  0  0
  -24.0011   -7.4578   22.7455 H   0  0  0  0  0  0
  -21.0858   -8.8795   19.8915 H   0  0  0  0  0  0
  -22.3737  -10.9702   19.6203 H   0  0  0  0  0  0
  -21.1992   -7.6179   23.9743 H   0  0  0  0  0  0
  -21.1467   -6.0569   25.9118 H   0  0  0  0  0  0
  -22.0581   -2.7620   23.2914 H   0  0  0  0  0  0
  -22.4154  -11.9765   22.4780 H   0  0  0  0  0  0
  -21.1139  -13.1128   22.2731 H   0  0  0  0  0  0
  -24.6472  -15.8220   20.4667 H   0  0  0  0  0  0
  -26.2522  -15.5991   19.9941 H   0  0  0  0  0  0
  -26.7056  -32.5592   23.1144 H   0  0  0  0  0  0
  -24.9952  -33.9792   25.0411 H   0  0  0  0  0  0
  -22.6804  -31.3038   21.4076 H   0  0  0  0  0  0
  -23.3765  -35.9614   23.3331 H   0  0  0  0  0  0
  -24.3554  -36.8899   22.2055 H   0  0  0  0  0  0
  -23.7218  -37.6499   23.6660 H   0  0  0  0  0  0
  -26.0150  -31.6212   20.5818 H   0  0  0  0  0  0
  -26.8090  -30.9152   21.9616 H   0  0  0  0  0  0
  -28.1000  -29.1772   21.1208 H   0  0  0  0  0  0
  -26.0664  -25.9584   19.0760 H   0  0  0  0  0  0
  -23.9851  -27.2531   19.0927 H   0  0  0  0  0  0
  -23.6966  -30.5801   19.3993 H   0  0  0  0  0  0
  -22.7300  -29.2199   19.8838 H   0  0  0  0  0  0
  -25.1299  -36.1983   25.0837 H   0  0  0  0  0  0
  -20.9940  -28.3230   24.1467 H   0  0  0  0  0  0
  -20.5620  -26.2259   23.3637 H   0  0  0  0  0  0
  -21.6624  -26.7418   22.1270 H   0  0  0  0  0  0
  -19.6898  -25.6302   21.1241 H   0  0  0  0  0  0
  -19.6700  -27.3205   20.6770 H   0  0  0  0  0  0
  -17.4195  -26.6721   21.3989 H   0  0  0  0  0  0
  -18.0258  -26.0059   22.8978 H   0  0  0  0  0  0
  -19.7915  -30.7251   24.2304 H   0  0  0  0  0  0
  -17.4999  -31.6272   24.5160 H   0  0  0  0  0  0
  -15.5337  -30.2997   23.7645 H   0  0  0  0  0  0
  -15.8644  -28.0821   22.7079 H   0  0  0  0  0  0
  -24.5902  -30.7038   25.7734 H   0  0  0  0  0  0
  -24.8888  -32.2835   26.4874 H   0  0  0  0  0  0
  -25.8065  -30.8840   27.0172 H   0  0  0  0  0  0
  -26.2822  -29.6791   24.1163 H   0  0  0  0  0  0
  -27.4185  -29.7347   25.4456 H   0  0  0  0  0  0
  -27.8590  -30.4415   23.9078 H   0  0  0  0  0  0
  -27.2671  -33.3619   26.2034 H   0  0  0  0  0  0
  -28.3799  -32.6919   25.0200 H   0  0  0  0  0  0
  -28.0765  -31.8436   26.5281 H   0  0  0  0  0  0
  -28.2634  -38.0067   24.7525 H   0  0  0  0  0  0
  -28.1061  -36.2612   24.6298 H   0  0  0  0  0  0
  -27.2301  -37.1451   25.8865 H   0  0  0  0  0  0
  -20.9259  -29.8686   21.6930 H   0  0  0  0  0  0
  -26.0206  -38.2881   24.1429 H   0  0  0  0  0  0
  -26.6448  -20.9151   16.1640 H   0  0  0  0  0  0
  -27.6785  -19.5703   15.5469 H   0  0  0  0  0  0
  -27.3231  -18.2874   17.4661 H   0  0  0  0  0  0
  -25.9216  -19.3469   17.8514 H   0  0  0  0  0  0
  -30.0873  -18.0516   21.4282 H   0  0  0  0  0  0
  -28.3799  -18.0831   21.8055 H   0  0  0  0  0  0
  -29.7053  -17.8789   17.7067 H   0  0  0  0  0  0
  -30.8595  -17.9247   19.0191 H   0  0  0  0  0  0
  -30.3452  -25.6868   21.2203 H   0  0  0  0  0  0
  -29.7896  -24.0308   21.0636 H   0  0  0  0  0  0
  -28.0526  -15.8050   21.1071 H   0  0  0  0  0  0
  -29.4176  -15.8367   22.1938 H   0  0  0  0  0  0
  -30.6675  -15.6517   18.1705 H   0  0  0  0  0  0
  -28.9412  -15.6752   18.3119 H   0  0  0  0  0  0
  -31.6009  -24.0802   19.4597 H   0  0  0  0  0  0
  -31.1831  -25.7069   18.9572 H   0  0  0  0  0  0
  -28.5479  -25.8964   17.8584 H   0  0  0  0  0  0
  -27.6674  -24.4311   18.2363 H   0  0  0  0  0  0
  -29.4552  -20.0872   17.0393 H   0  0  0  0  0  0
  -27.2510  -21.0382   18.9279 H   0  0  0  0  0  0
  -27.8253  -17.7178   19.4470 H   0  0  0  0  0  0
  -27.7428  -24.9393   20.5370 H   0  0  0  0  0  0
  -28.0158  -22.7608   16.8618 H   0  0  0  0  0  0
  -29.5360  -22.3404   16.1512 H   0  0  0  0  0  0
  -30.6674  -22.3292   18.3100 H   0  0  0  0  0  0
  -29.1696  -22.5216   19.1855 H   0  0  0  0  0  0
  -30.1995  -24.5331   17.3407 H   0  0  0  0  0  0
  -28.3398  -19.9356   20.4486 H   0  0  0  0  0  0
  -29.6513  -19.9977   19.5214 H   0  0  0  0  0  0
  1 25  1  0  0  0
  1 30  2  0  0  0
  1 86  1  0  0  0
  2  3  1  0  0  0
  2 25  1  0  0  0
  2 89  1  0  0  0
  2 90  1  0  0  0
  3  4  1  0  0  0
  3 91  1  0  0  0
  3 92  1  0  0  0
  4  5  1  0  0  0
  4 93  1  0  0  0
  4 94  1  0  0  0
  5  6  1  0  0  0
  5 26  1  0  0  0
  5 95  1  0  0  0
  6 25  1  0  0  0
  6 96  1  0  0  0
  6 97  1  0  0  0
  7  8  2  0  0  0
  7 26  1  0  0  0
  7 29  1  0  0  0
  8  9  1  0  0  0
  8 22  1  0  0  0
  9 10  1  0  0  0
  9 27  2  0  0  0
 10 11  2  0  0  0
 10 15  1  0  0  0
 11 12  1  0  0  0
 11 98  1  0  0  0
 12 13  2  0  0  0
 12 99  1  0  0  0
 13 14  1  0  0  0
 13 31  1  0  0  0
 14 15  2  0  0  0
 14100  1  0  0  0
 15101  1  0  0  0
 16 17  2  0  0  0
 16 21  1  0  0  0
 16 31  1  0  0  0
 17 18  1  0  0  0
 17102  1  0  0  0
 18 19  2  0  0  0
 18103  1  0  0  0
 19 20  1  0  0  0
 19 24  1  0  0  0
 20 21  2  0  0  0
 20104  1  0  0  0
 21 23  1  0  0  0
 22 28  1  0  0  0
 22 32  2  0  0  0
 26 27  1  0  0  0
 28105  1  0  0  0
 28106  1  0  0  0
 29107  1  0  0  0
 29108  1  0  0  0
 33 34  1  0  0  0
 33 66  1  0  0  0
 33 70  2  0  0  0
 34 36  1  0  0  0
 34 59  1  0  0  0
 34109  1  0  0  0
 35 44  2  0  0  0
 35 45  1  0  0  0
 35 68  1  0  0  0
 36 56  1  0  0  0
 36110  1  0  0  0
 37 39  1  0  0  0
 37 47  1  0  0  0
 37 66  1  0  0  0
 37111  1  0  0  0
 38 43  2  0  0  0
 38 46  1  0  0  0
 38 47  1  0  0  0
 39 64  1  0  0  0
 39 67  2  0  0  0
 40 52  1  0  0  0
 40 53  2  0  0  0
 40 58  1  0  0  0
 41112  1  0  0  0
 41113  1  0  0  0
 41114  1  0  0  0
 41 48  1  0  0  0
 42 43  1  0  0  0
 42 66  1  0  0  0
 42115  1  0  0  0
 42116  1  0  0  0
 43 44  1  0  0  0
 44117  1  0  0  0
 45 46  2  0  0  0
 45118  1  0  0  0
 46119  1  0  0  0
 47120  1  0  0  0
 47121  1  0  0  0
 48 56  1  0  0  0
 48 65  1  0  0  0
 48122  1  0  0  0
 49 50  1  0  0  0
 49 53  1  0  0  0
 49 64  1  0  0  0
 49123  1  0  0  0
 50 51  1  0  0  0
 50124  1  0  0  0
 50125  1  0  0  0
 51 52  1  0  0  0
 51126  1  0  0  0
 51127  1  0  0  0
 52128  1  0  0  0
 52129  1  0  0  0
 53 54  1  0  0  0
 54 55  2  0  0  0
 54130  1  0  0  0
 55 57  1  0  0  0
 55131  1  0  0  0
 56 69  2  0  0  0
 57 58  2  0  0  0
 57132  1  0  0  0
 58133  1  0  0  0
 59 60  1  0  0  0
 59 61  1  0  0  0
 59 62  1  0  0  0
 60134  1  0  0  0
 60135  1  0  0  0
 60136  1  0  0  0
 61137  1  0  0  0
 61138  1  0  0  0
 61139  1  0  0  0
 62140  1  0  0  0
 62141  1  0  0  0
 62142  1  0  0  0
 63 65  1  0  0  0
 63143  1  0  0  0
 63144  1  0  0  0
 63145  1  0  0  0
 64146  1  0  0  0
 65147  1  0  0  0
 68 83  1  0  0  0
 71 72  1  0  0  0
 71 80  1  0  0  0
 71148  1  0  0  0
 71149  1  0  0  0
 72 81  1  0  0  0
 72150  1  0  0  0
 72151  1  0  0  0
 73 76  1  0  0  0
 73 82  1  0  0  0
 73152  1  0  0  0
 73153  1  0  0  0
 74 77  1  0  0  0
 74 82  1  0  0  0
 74154  1  0  0  0
 74155  1  0  0  0
 75 78  1  0  0  0
 75 83  1  0  0  0
 75156  1  0  0  0
 75157  1  0  0  0
 76 86  1  0  0  0
 76158  1  0  0  0
 76159  1  0  0  0
 77 86  1  0  0  0
 77160  1  0  0  0
 77161  1  0  0  0
 78 87  1  0  0  0
 78162  1  0  0  0
 78163  1  0  0  0
 79 83  1  0  0  0
 79 87  1  0  0  0
 79164  1  0  0  0
 79165  1  0  0  0
 80 81  1  0  0  0
 80 84  1  0  0  0
 80166  1  0  0  0
 81 88  1  0  0  0
 81167  1  0  0  0
 82 88  1  0  0  0
 82168  1  0  0  0
 83169  1  0  0  0
 84 85  1  0  0  0
 84170  1  0  0  0
 84171  1  0  0  0
 85172  1  0  0  0
 85173  1  0  0  0
 85 87  1  0  0  0
 87174  1  0  0  0
 88175  1  0  0  0
 88176  1  0  0  0
M  CHG  2  87   1  88   1
M  ISO  4   1 100  68 101  83 101  86 100
M  END
> <chiral flag>
0

> <version>
0

> <s_m_source_file>
/data/baiqing/PycharmProjects/Reinvent-master-3.2/result/LINK_invent/BTK/process_docking_weight1_custom_sum_contain_oxygen_bond_distance_aromatic_linkinvent_7_9_3/rearranged_h_0198.sdf

> <i_m_source_file_index>
41

> <r_mmod_Potential_Energy-OPLS-2005>
123.086799621582

> <r_mmod_Stretch_Energy-OPLS-2005>
35.9421844482422

> <r_mmod_Bend_Energy-OPLS-2005>
149.073623657227

> <r_mmod_Torsional_Energy-OPLS-2005>
466.283813476562

> <r_mmod_Improper_Torsional_Energy-OPLS-2005>
22.4899349212646

> <r_mmod_Van_der_Waal_Energy-OPLS-2005>
135.518676757812

> <r_mmod_Electrostatic_Energy-OPLS-2005>
230.906188964844

> <r_mmod_Solvation_Energy-OPLS-2005>
-938.086242675781

> <b_mmod_Minimization_Converged-OPLS-2005>
0

> <r_mmod_RMS_Derivative-OPLS-2005>
3.74552178382874

$$$$
41
                    3D
 Structure written by MMmdl.
172181  0  0  1  0            999 V2000
  -30.7330  -14.4121   20.6121 C   0  0  0  0  0  0
  -30.4093  -12.2897   19.4028 C   0  0  0  0  0  0
  -29.4848  -12.5387   18.1964 C   0  0  0  0  0  0
  -28.0003  -12.4229   18.5967 C   0  0  0  0  0  0
  -27.6628  -13.2137   19.8895 C   0  0  2  0  0  0
  -28.7091  -12.9481   20.9941 C   0  0  0  0  0  0
  -25.2512  -13.8102   20.5702 C   0  0  0  0  0  0
  -24.1811  -13.0379   20.9196 C   0  0  0  0  0  0
  -24.6391  -11.6864   20.8728 C   0  0  0  0  0  0
  -23.9063  -10.4247   21.0382 C   0  0  0  0  0  0
  -24.3623   -9.4179   21.9164 C   0  0  0  0  0  0
  -23.6300   -8.2215   22.0761 C   0  0  0  0  0  0
  -22.4273   -8.0244   21.3543 C   0  0  0  0  0  0
  -21.9899   -9.0213   20.4632 C   0  0  0  0  0  0
  -22.7234  -10.2089   20.3048 C   0  0  0  0  0  0
  -21.6844   -6.0721   22.5287 C   0  0  0  0  0  0
  -21.4005   -6.5646   23.8201 C   0  0  0  0  0  0
  -21.3671   -5.6806   24.9178 C   0  0  0  0  0  0
  -21.6027   -4.3068   24.7240 C   0  0  0  0  0  0
  -21.8812   -3.8150   23.4362 C   0  0  0  0  0  0
  -21.9184   -4.6957   22.3408 C   0  0  0  0  0  0
  -22.7821  -13.5209   21.1797 C   0  0  0  0  0  0
  -22.1665   -4.2140   21.0987 F   0  0  0  0  0  0
  -21.5609   -3.4541   25.7748 F   0  0  0  0  0  0
  -30.0450  -13.2521   20.4484 N   0  0  0  0  0  0
  -26.3031  -12.9340   20.3463 N   0  0  0  0  0  0
  -25.9333  -11.6488   20.5779 N   0  0  0  0  0  0
  -22.0458  -12.8223   22.0350 N   0  0  0  0  0  0
  -25.4076  -15.1803   20.4040 N   0  0  0  0  0  0
  -31.8256  -14.6351   20.0859 O   0  0  0  0  0  0
  -21.6645   -6.8849   21.4228 O   0  0  0  0  0  0
  -22.3564  -14.5566   20.6702 O   0  0  0  0  0  0
  -24.6150  -31.8677   23.2107 C   0  0  0  0  0  0
  -25.9046  -32.4815   23.8406 C   0  0  1  0  0  0
  -27.2454  -27.4557   20.0517 C   0  0  0  0  0  0
  -25.5907  -33.8615   24.2329 N   0  0  0  0  0  0
  -23.4020  -30.4908   21.5524 C   0  0  2  0  0  0
  -24.8491  -28.9530   20.1195 C   0  0  0  0  0  0
  -22.7397  -29.4654   22.5012 C   0  0  0  0  0  0
  -18.0263  -28.1370   22.8489 C   0  0  0  0  0  0
  -24.1488  -36.7318   23.2639 C   0  0  0  0  0  0
  -25.9317  -30.8265   21.3708 C   0  0  0  0  0  0
  -26.0089  -29.4624   20.7176 C   0  0  0  0  0  0
  -27.2079  -28.7128   20.6969 C   0  0  0  0  0  0
  -26.0577  -26.9415   19.4846 C   0  0  0  0  0  0
  -24.8656  -27.6862   19.5132 C   0  0  0  0  0  0
  -23.6115  -29.8199   20.1696 C   0  0  0  0  0  0
  -25.4110  -36.3105   24.0336 C   0  0  1  0  0  0
  -20.5851  -28.3647   23.1331 C   0  0  2  0  0  0
  -20.6753  -26.9386   22.5435 C   0  0  0  0  0  0
  -19.5743  -26.6370   21.5218 C   0  0  0  0  0  0
  -18.1907  -26.7925   22.1605 C   0  0  0  0  0  0
  -19.1518  -28.8831   23.2904 C   0  0  0  0  0  0
  -18.9449  -30.1439   23.8909 C   0  0  0  0  0  0
  -17.6455  -30.6581   24.0563 C   0  0  0  0  0  0
  -25.9036  -34.9469   23.5118 C   0  0  0  0  0  0
  -16.5341  -29.9079   23.6330 C   0  0  0  0  0  0
  -16.7256  -28.6495   23.0350 C   0  0  0  0  0  0
  -26.4480  -31.6600   25.0735 C   0  0  0  0  0  0
  -25.3745  -31.3726   26.1487 C   0  0  0  0  0  0
  -27.0308  -30.3030   24.6129 C   0  0  0  0  0  0
  -27.6062  -32.4327   25.7480 C   0  0  0  0  0  0
  -27.5588  -37.1808   24.8459 C   0  0  0  0  0  0
  -21.4136  -29.3023   22.3742 N   0  0  0  0  0  0
  -26.4298  -37.3790   23.9407 N   0  0  0  0  0  0
  -24.6670  -31.0777   22.1017 N   0  0  0  0  0  0
  -23.4182  -28.8185   23.3038 O   0  0  0  0  0  0
  -28.4193  -26.7357   19.9994 O   0  0  0  0  0  0
  -26.5596  -34.8923   22.4677 O   0  0  0  0  0  0
  -23.5358  -32.1430   23.7510 O   0  0  0  0  0  0
  -28.0774  -18.2395   17.3478 C   0  0  0  0  0  0
  -29.9843  -18.6465   19.0726 C   0  0  0  0  0  0
  -27.6372  -18.3795   19.9051 C   0  0  0  0  0  0
  -29.2263  -19.1474   17.8287 C   0  0  2  0  0  0
  -28.0945  -20.1769   18.0594 C   0  0  1  0  0  0
  -27.2890  -18.9196   18.4898 C   0  0  1  0  0  0
  -25.7693  -19.0084   18.3365 C   0  0  0  0  0  0
  -28.2263  -21.3980   18.9940 C   0  0  0  0  0  0
  -30.6003  -16.6990   21.6196 C   0  0  0  0  0  0
  -29.5493  -17.8141   21.4029 C   0  0  0  0  0  0
  -28.9751  -22.6038   18.3725 C   0  0  0  0  0  0
  -29.6460  -25.0025   18.7306 C   0  0  0  0  0  0
  -28.8371  -26.3161   18.6910 C   0  0  0  0  0  0
  -30.0907  -15.3564   21.3102 N   0  0  0  0  0  0
  -29.0604  -17.9253   20.0003 N   0  3  2  0  0  0
  -28.8361  -23.8412   19.1847 N   0  3  0  0  0  0
  -31.4565  -12.3638   19.1062 H   0  0  0  0  0  0
  -30.2794  -11.2729   19.7734 H   0  0  0  0  0  0
  -29.7113  -11.8367   17.3943 H   0  0  0  0  0  0
  -29.6730  -13.5338   17.7924 H   0  0  0  0  0  0
  -27.7623  -11.3672   18.7305 H   0  0  0  0  0  0
  -27.3739  -12.7688   17.7747 H   0  0  0  0  0  0
  -27.7173  -14.2745   19.6435 H   0  0  0  0  0  0
  -28.6704  -11.9013   21.2977 H   0  0  0  0  0  0
  -28.4754  -13.5156   21.8956 H   0  0  0  0  0  0
  -25.2752   -9.5698   22.4753 H   0  0  0  0  0  0
  -23.9986   -7.4614   22.7531 H   0  0  0  0  0  0
  -21.0826   -8.8763   19.8937 H   0  0  0  0  0  0
  -22.3689  -10.9660   19.6186 H   0  0  0  0  0  0
  -21.2007   -7.6144   23.9711 H   0  0  0  0  0  0
  -21.1514   -6.0548   25.9079 H   0  0  0  0  0  0
  -22.0587   -2.7618   23.2886 H   0  0  0  0  0  0
  -22.4118  -11.9932   22.4783 H   0  0  0  0  0  0
  -21.1068  -13.1240   22.2515 H   0  0  0  0  0  0
  -24.5853  -15.7771   20.4153 H   0  0  0  0  0  0
  -26.1624  -15.5561   19.8521 H   0  0  0  0  0  0
  -26.7097  -32.5523   23.1166 H   0  0  0  0  0  0
  -25.0076  -33.9777   25.0485 H   0  0  0  0  0  0
  -22.6900  -31.3067   21.4119 H   0  0  0  0  0  0
  -23.3745  -35.9659   23.3308 H   0  0  0  0  0  0
  -24.3579  -36.8932   22.2053 H   0  0  0  0  0  0
  -23.7248  -37.6527   23.6651 H   0  0  0  0  0  0
  -26.0511  -31.5910   20.6038 H   0  0  0  0  0  0
  -26.8176  -30.8771   21.9907 H   0  0  0  0  0  0
  -28.1060  -29.1049   21.1540 H   0  0  0  0  0  0
  -26.0420  -25.9669   19.0173 H   0  0  0  0  0  0
  -23.9693  -27.2793   19.0668 H   0  0  0  0  0  0
  -23.7228  -30.5924   19.4095 H   0  0  0  0  0  0
  -22.7363  -29.2401   19.8717 H   0  0  0  0  0  0
  -25.1290  -36.1970   25.0832 H   0  0  0  0  0  0
  -20.9932  -28.3214   24.1459 H   0  0  0  0  0  0
  -20.5627  -26.2266   23.3622 H   0  0  0  0  0  0
  -21.6628  -26.7407   22.1254 H   0  0  0  0  0  0
  -19.6903  -25.6279   21.1244 H   0  0  0  0  0  0
  -19.6703  -27.3187   20.6752 H   0  0  0  0  0  0
  -17.4197  -26.6712   21.3977 H   0  0  0  0  0  0
  -18.0272  -26.0045   22.8969 H   0  0  0  0  0  0
  -19.7924  -30.7249   24.2282 H   0  0  0  0  0  0
  -17.5007  -31.6266   24.5156 H   0  0  0  0  0  0
  -15.5342  -30.2988   23.7645 H   0  0  0  0  0  0
  -15.8657  -28.0817   22.7066 H   0  0  0  0  0  0
  -24.5953  -30.7014   25.7857 H   0  0  0  0  0  0
  -24.8900  -32.2885   26.4875 H   0  0  0  0  0  0
  -25.8125  -30.8970   27.0268 H   0  0  0  0  0  0
  -26.2851  -29.6781   24.1195 H   0  0  0  0  0  0
  -27.4071  -29.7285   25.4604 H   0  0  0  0  0  0
  -27.8696  -30.4334   23.9287 H   0  0  0  0  0  0
  -27.2675  -33.3607   26.2095 H   0  0  0  0  0  0
  -28.3845  -32.6912   25.0288 H   0  0  0  0  0  0
  -28.0751  -31.8426   26.5361 H   0  0  0  0  0  0
  -28.2618  -38.0091   24.7493 H   0  0  0  0  0  0
  -28.1070  -36.2627   24.6290 H   0  0  0  0  0  0
  -27.2310  -37.1478   25.8863 H   0  0  0  0  0  0
  -20.9292  -29.8773   21.6986 H   0  0  0  0  0  0
  -26.0189  -38.2871   24.1404 H   0  0  0  0  0  0
  -28.2360  -17.1667   17.4715 H   0  0  0  0  0  0
  -27.7049  -18.4598   16.3421 H   0  0  0  0  0  0
  -30.4620  -19.4871   19.5775 H   0  0  0  0  0  0
  -30.7850  -17.9657   18.7802 H   0  0  0  0  0  0
  -26.9958  -17.5380   20.1696 H   0  0  0  0  0  0
  -27.4444  -19.1481   20.6537 H   0  0  0  0  0  0
  -29.8866  -19.4480   17.0142 H   0  0  0  0  0  0
  -27.7146  -20.5421   17.0987 H   0  0  0  0  0  0
  -25.2557  -18.1071   18.6786 H   0  0  0  0  0  0
  -25.4828  -19.1582   17.2951 H   0  0  0  0  0  0
  -25.3600  -19.8485   18.8970 H   0  0  0  0  0  0
  -28.7070  -21.1250   19.9337 H   0  0  0  0  0  0
  -27.2202  -21.7203   19.2652 H   0  0  0  0  0  0
  -31.5094  -16.9278   21.0587 H   0  0  0  0  0  0
  -30.8968  -16.6941   22.6700 H   0  0  0  0  0  0
  -29.9448  -18.7769   21.7311 H   0  0  0  0  0  0
  -28.7025  -17.6082   22.0609 H   0  0  0  0  0  0
  -28.5857  -22.8059   17.3731 H   0  0  0  0  0  0
  -30.0306  -22.3570   18.2466 H   0  0  0  0  0  0
  -30.5163  -25.1113   19.3801 H   0  0  0  0  0  0
  -30.0368  -24.8150   17.7271 H   0  0  0  0  0  0
  -28.0192  -26.2065   17.9806 H   0  0  0  0  0  0
  -29.4688  -27.1055   18.2802 H   0  0  0  0  0  0
  -29.2123  -15.0763   21.7230 H   0  0  0  0  0  0
  -29.0409  -16.9790   19.6551 H   0  0  0  0  0  0
  -29.0936  -23.6446   20.1399 H   0  0  0  0  0  0
  -27.8655  -24.1121   19.1911 H   0  0  0  0  0  0
  1 25  1  0  0  0
  1 30  2  0  0  0
  1 84  1  0  0  0
  2  3  1  0  0  0
  2 25  1  0  0  0
  2 87  1  0  0  0
  2 88  1  0  0  0
  3  4  1  0  0  0
  3 89  1  0  0  0
  3 90  1  0  0  0
  4  5  1  0  0  0
  4 91  1  0  0  0
  4 92  1  0  0  0
  5  6  1  0  0  0
  5 26  1  0  0  0
  5 93  1  0  0  0
  6 25  1  0  0  0
  6 94  1  0  0  0
  6 95  1  0  0  0
  7  8  2  0  0  0
  7 26  1  0  0  0
  7 29  1  0  0  0
  8  9  1  0  0  0
  8 22  1  0  0  0
  9 10  1  0  0  0
  9 27  2  0  0  0
 10 11  2  0  0  0
 10 15  1  0  0  0
 11 12  1  0  0  0
 11 96  1  0  0  0
 12 13  2  0  0  0
 12 97  1  0  0  0
 13 14  1  0  0  0
 13 31  1  0  0  0
 14 15  2  0  0  0
 14 98  1  0  0  0
 15 99  1  0  0  0
 16 17  2  0  0  0
 16 21  1  0  0  0
 16 31  1  0  0  0
 17 18  1  0  0  0
 17100  1  0  0  0
 18 19  2  0  0  0
 18101  1  0  0  0
 19 20  1  0  0  0
 19 24  1  0  0  0
 20 21  2  0  0  0
 20102  1  0  0  0
 21 23  1  0  0  0
 22 28  1  0  0  0
 22 32  2  0  0  0
 26 27  1  0  0  0
 28103  1  0  0  0
 28104  1  0  0  0
 29105  1  0  0  0
 29106  1  0  0  0
 33 34  1  0  0  0
 33 66  1  0  0  0
 33 70  2  0  0  0
 34 36  1  0  0  0
 34 59  1  0  0  0
 34107  1  0  0  0
 35 44  2  0  0  0
 35 45  1  0  0  0
 35 68  1  0  0  0
 36 56  1  0  0  0
 36108  1  0  0  0
 37 39  1  0  0  0
 37 47  1  0  0  0
 37 66  1  0  0  0
 37109  1  0  0  0
 38 43  2  0  0  0
 38 46  1  0  0  0
 38 47  1  0  0  0
 39 64  1  0  0  0
 39 67  2  0  0  0
 40 52  1  0  0  0
 40 53  2  0  0  0
 40 58  1  0  0  0
 41110  1  0  0  0
 41111  1  0  0  0
 41112  1  0  0  0
 41 48  1  0  0  0
 42 43  1  0  0  0
 42 66  1  0  0  0
 42113  1  0  0  0
 42114  1  0  0  0
 43 44  1  0  0  0
 44115  1  0  0  0
 45 46  2  0  0  0
 45116  1  0  0  0
 46117  1  0  0  0
 47118  1  0  0  0
 47119  1  0  0  0
 48 56  1  0  0  0
 48 65  1  0  0  0
 48120  1  0  0  0
 49 50  1  0  0  0
 49 53  1  0  0  0
 49 64  1  0  0  0
 49121  1  0  0  0
 50 51  1  0  0  0
 50122  1  0  0  0
 50123  1  0  0  0
 51 52  1  0  0  0
 51124  1  0  0  0
 51125  1  0  0  0
 52126  1  0  0  0
 52127  1  0  0  0
 53 54  1  0  0  0
 54 55  2  0  0  0
 54128  1  0  0  0
 55 57  1  0  0  0
 55129  1  0  0  0
 56 69  2  0  0  0
 57 58  2  0  0  0
 57130  1  0  0  0
 58131  1  0  0  0
 59 60  1  0  0  0
 59 61  1  0  0  0
 59 62  1  0  0  0
 60132  1  0  0  0
 60133  1  0  0  0
 60134  1  0  0  0
 61135  1  0  0  0
 61136  1  0  0  0
 61137  1  0  0  0
 62138  1  0  0  0
 62139  1  0  0  0
 62140  1  0  0  0
 63 65  1  0  0  0
 63141  1  0  0  0
 63142  1  0  0  0
 63143  1  0  0  0
 64144  1  0  0  0
 65145  1  0  0  0
 68 83  1  0  0  0
 71 74  1  0  0  0
 71 76  1  0  0  0
 71146  1  0  0  0
 71147  1  0  0  0
 72 85  1  0  0  0
 72148  1  0  0  0
 72149  1  0  0  0
 72 74  1  0  0  0
 73 76  1  0  0  0
 73 85  1  0  0  0
 73150  1  0  0  0
 73151  1  0  0  0
 74 75  1  0  0  0
 74152  1  0  0  0
 75 76  1  0  0  0
 75 78  1  0  0  0
 75153  1  0  0  0
 76 77  1  0  0  0
 77154  1  0  0  0
 77155  1  0  0  0
 77156  1  0  0  0
 78 81  1  0  0  0
 78157  1  0  0  0
 78158  1  0  0  0
 79 80  1  0  0  0
 79 84  1  0  0  0
 79159  1  0  0  0
 79160  1  0  0  0
 80161  1  0  0  0
 80162  1  0  0  0
 80 85  1  0  0  0
 81 86  1  0  0  0
 81163  1  0  0  0
 81164  1  0  0  0
 82 83  1  0  0  0
 82 86  1  0  0  0
 82165  1  0  0  0
 82166  1  0  0  0
 83167  1  0  0  0
 83168  1  0  0  0
 84169  1  0  0  0
 85170  1  0  0  0
 86171  1  0  0  0
 86172  1  0  0  0
M  CHG  2  85   1  86   1
M  ISO  4   1 100  68 101  83 101  84 100
M  END
> <chiral flag>
0

> <version>
0

> <s_m_source_file>
/data/baiqing/PycharmProjects/Reinvent-master-3.2/result/LINK_invent/BTK/process_docking_weight1_custom_sum_contain_oxygen_bond_distance_aromatic_linkinvent_7_9_3/rearranged_h_0198.sdf

> <i_m_source_file_index>
42

> <r_mmod_Potential_Energy-OPLS-2005>
-172.970443725586

> <r_mmod_Stretch_Energy-OPLS-2005>
39.0367622375488

> <r_mmod_Bend_Energy-OPLS-2005>
130.033172607422

> <r_mmod_Torsional_Energy-OPLS-2005>
342.523223876953

> <r_mmod_Improper_Torsional_Energy-OPLS-2005>
4.80489778518677

> <r_mmod_Van_der_Waal_Energy-OPLS-2005>
143.58447265625

> <r_mmod_Electrostatic_Energy-OPLS-2005>
43.9548377990723

> <r_mmod_Solvation_Energy-OPLS-2005>
-885.730346679688

> <b_mmod_Minimization_Converged-OPLS-2005>
0

> <r_mmod_RMS_Derivative-OPLS-2005>
3.80564618110657

$$$$
42
                    3D
 Structure written by MMmdl.
165175  0  0  1  0            999 V2000
  -30.6343  -14.5849   20.4213 C   0  0  0  0  0  0
  -30.4447  -12.3293   19.4467 C   0  0  0  0  0  0
  -29.5103  -12.4375   18.2208 C   0  0  0  0  0  0
  -28.0262  -12.3177   18.6353 C   0  0  0  0  0  0
  -27.6515  -13.1902   19.8641 C   0  0  2  0  0  0
  -28.7098  -13.0639   20.9860 C   0  0  0  0  0  0
  -25.2573  -13.8067   20.5722 C   0  0  0  0  0  0
  -24.1814  -13.0377   20.9208 C   0  0  0  0  0  0
  -24.6358  -11.6843   20.8771 C   0  0  0  0  0  0
  -23.9025  -10.4253   21.0422 C   0  0  0  0  0  0
  -24.3584   -9.4178   21.9198 C   0  0  0  0  0  0
  -23.6268   -8.2212   22.0758 C   0  0  0  0  0  0
  -22.4254   -8.0257   21.3543 C   0  0  0  0  0  0
  -21.9884   -9.0228   20.4646 C   0  0  0  0  0  0
  -22.7204  -10.2109   20.3061 C   0  0  0  0  0  0
  -21.6839   -6.0720   22.5279 C   0  0  0  0  0  0
  -21.3997   -6.5628   23.8211 C   0  0  0  0  0  0
  -21.3661   -5.6788   24.9177 C   0  0  0  0  0  0
  -21.6048   -4.3050   24.7226 C   0  0  0  0  0  0
  -21.8825   -3.8137   23.4350 C   0  0  0  0  0  0
  -21.9186   -4.6950   22.3404 C   0  0  0  0  0  0
  -22.7849  -13.5209   21.1857 C   0  0  0  0  0  0
  -22.1661   -4.2133   21.0982 F   0  0  0  0  0  0
  -21.5635   -3.4540   25.7747 F   0  0  0  0  0  0
  -30.0303  -13.3619   20.4056 N   0  0  0  0  0  0
  -26.2988  -12.9195   20.3388 N   0  0  0  0  0  0
  -25.9283  -11.6383   20.5822 N   0  0  0  0  0  0
  -22.0471  -12.8220   22.0407 N   0  0  0  0  0  0
  -25.4287  -15.1781   20.4152 N   0  0  0  0  0  0
  -31.8391  -14.7497   20.2180 O   0  0  0  0  0  0
  -21.6619   -6.8857   21.4240 O   0  0  0  0  0  0
  -22.3559  -14.5524   20.6704 O   0  0  0  0  0  0
  -24.6183  -31.8662   23.2083 C   0  0  0  0  0  0
  -25.9065  -32.4812   23.8384 C   0  0  1  0  0  0
  -27.2396  -27.3996   20.0858 C   0  0  0  0  0  0
  -25.5911  -33.8612   24.2317 N   0  0  0  0  0  0
  -23.4073  -30.4908   21.5498 C   0  0  2  0  0  0
  -24.8527  -28.9553   20.1131 C   0  0  0  0  0  0
  -22.7433  -29.4654   22.4976 C   0  0  0  0  0  0
  -18.0280  -28.1378   22.8491 C   0  0  0  0  0  0
  -24.1486  -36.7307   23.2636 C   0  0  0  0  0  0
  -25.9413  -30.8192   21.3676 C   0  0  0  0  0  0
  -26.0159  -29.4525   20.7106 C   0  0  0  0  0  0
  -27.2060  -28.6814   20.6969 C   0  0  0  0  0  0
  -26.0403  -26.9217   19.5007 C   0  0  0  0  0  0
  -24.8616  -27.6889   19.5089 C   0  0  0  0  0  0
  -23.6165  -29.8254   20.1640 C   0  0  0  0  0  0
  -25.4108  -36.3107   24.0336 C   0  0  1  0  0  0
  -20.5873  -28.3673   23.1307 C   0  0  2  0  0  0
  -20.6769  -26.9406   22.5414 C   0  0  0  0  0  0
  -19.5747  -26.6385   21.5212 C   0  0  0  0  0  0
  -18.1925  -26.7926   22.1621 C   0  0  0  0  0  0
  -19.1528  -28.8844   23.2894 C   0  0  0  0  0  0
  -18.9454  -30.1448   23.8906 C   0  0  0  0  0  0
  -17.6455  -30.6584   24.0566 C   0  0  0  0  0  0
  -25.9040  -34.9472   23.5123 C   0  0  0  0  0  0
  -16.5347  -29.9085   23.6327 C   0  0  0  0  0  0
  -16.7266  -28.6499   23.0352 C   0  0  0  0  0  0
  -26.4479  -31.6601   25.0726 C   0  0  0  0  0  0
  -25.3736  -31.3716   26.1469 C   0  0  0  0  0  0
  -27.0311  -30.3039   24.6123 C   0  0  0  0  0  0
  -27.6053  -32.4322   25.7489 C   0  0  0  0  0  0
  -27.5584  -37.1804   24.8462 C   0  0  0  0  0  0
  -21.4159  -29.3037   22.3713 N   0  0  0  0  0  0
  -26.4291  -37.3797   23.9414 N   0  0  0  0  0  0
  -24.6741  -31.0735   22.0999 N   0  0  0  0  0  0
  -23.4193  -28.8191   23.3024 O   0  0  0  0  0  0
  -28.4144  -26.6546   20.1387 O   0  0  0  0  0  0
  -26.5603  -34.8926   22.4685 O   0  0  0  0  0  0
  -23.5367  -32.1427   23.7463 O   0  0  0  0  0  0
  -30.6104  -24.3311   20.3965 C   0  0  0  0  0  0
  -31.2535  -23.1153   20.7421 C   0  0  0  0  0  0
  -29.3104  -24.2842   19.8555 C   0  0  0  0  0  0
  -30.5291  -21.9061   20.5449 C   0  0  0  0  0  0
  -33.6899  -24.1175   20.7407 C   0  0  0  0  0  0
  -33.8182  -22.6474   20.4226 C   0  0  0  0  0  0
  -28.5925  -17.1255   19.4974 C   0  0  0  0  0  0
  -29.4701  -16.0776   18.8353 C   0  0  0  0  0  0
  -32.6619  -23.1368   21.2657 C   0  0  0  0  0  0
  -29.5292  -16.9962   20.6955 C   0  0  2  0  0  0
  -31.1710  -20.5154   20.7887 C   0  0  0  0  0  0
  -28.6408  -25.5352   19.2436 C   0  0  0  0  0  0
  -30.7165  -17.9991   20.7561 C   0  0  0  0  0  0
  -28.6648  -23.0918   19.7185 N   0  0  0  0  0  0
  -29.2560  -21.9317   20.0600 N   0  0  0  0  0  0
  -29.7527  -15.5986   20.1977 N   0  0  0  0  0  0
  -30.2022  -19.3969   20.9483 N   0  3  0  0  0  0
  -31.4869  -12.4478   19.1438 H   0  0  0  0  0  0
  -30.3706  -11.3415   19.9041 H   0  0  0  0  0  0
  -29.7527  -11.6526   17.5030 H   0  0  0  0  0  0
  -29.6842  -13.3763   17.6975 H   0  0  0  0  0  0
  -27.8411  -11.2680   18.8663 H   0  0  0  0  0  0
  -27.3783  -12.5585   17.7920 H   0  0  0  0  0  0
  -27.6408  -14.2167   19.5167 H   0  0  0  0  0  0
  -28.7060  -12.0595   21.4119 H   0  0  0  0  0  0
  -28.4833  -13.7477   21.8059 H   0  0  0  0  0  0
  -25.2728   -9.5654   22.4775 H   0  0  0  0  0  0
  -23.9979   -7.4598   22.7472 H   0  0  0  0  0  0
  -21.0814   -8.8739   19.8955 H   0  0  0  0  0  0
  -22.3663  -10.9648   19.6168 H   0  0  0  0  0  0
  -21.1978   -7.6137   23.9705 H   0  0  0  0  0  0
  -21.1484   -6.0519   25.9078 H   0  0  0  0  0  0
  -22.0603   -2.7600   23.2852 H   0  0  0  0  0  0
  -22.4064  -11.9869   22.4792 H   0  0  0  0  0  0
  -21.1103  -13.1281   22.2618 H   0  0  0  0  0  0
  -24.6699  -15.8413   20.5298 H   0  0  0  0  0  0
  -26.2952  -15.6092   20.1238 H   0  0  0  0  0  0
  -26.7135  -32.5506   23.1141 H   0  0  0  0  0  0
  -25.0078  -33.9773   25.0472 H   0  0  0  0  0  0
  -22.6972  -31.3089   21.4113 H   0  0  0  0  0  0
  -23.3754  -35.9633   23.3298 H   0  0  0  0  0  0
  -24.3582  -36.8924   22.2050 H   0  0  0  0  0  0
  -23.7228  -37.6507   23.6651 H   0  0  0  0  0  0
  -26.0611  -31.5856   20.6006 H   0  0  0  0  0  0
  -26.8268  -30.8684   21.9899 H   0  0  0  0  0  0
  -28.1016  -29.0644   21.1660 H   0  0  0  0  0  0
  -25.9542  -25.9431   19.0581 H   0  0  0  0  0  0
  -23.9618  -27.2925   19.0587 H   0  0  0  0  0  0
  -23.7274  -30.6017   19.4061 H   0  0  0  0  0  0
  -22.7390  -29.2484   19.8664 H   0  0  0  0  0  0
  -25.1282  -36.1968   25.0829 H   0  0  0  0  0  0
  -20.9963  -28.3236   24.1429 H   0  0  0  0  0  0
  -20.5675  -26.2281   23.3603 H   0  0  0  0  0  0
  -21.6638  -26.7450   22.1202 H   0  0  0  0  0  0
  -19.6911  -25.6299   21.1234 H   0  0  0  0  0  0
  -19.6688  -27.3201   20.6747 H   0  0  0  0  0  0
  -17.4200  -26.6682   21.4017 H   0  0  0  0  0  0
  -18.0323  -26.0059   22.9009 H   0  0  0  0  0  0
  -19.7933  -30.7261   24.2273 H   0  0  0  0  0  0
  -17.5015  -31.6265   24.5167 H   0  0  0  0  0  0
  -15.5349  -30.2989   23.7651 H   0  0  0  0  0  0
  -15.8666  -28.0823   22.7061 H   0  0  0  0  0  0
  -24.5904  -30.7073   25.7802 H   0  0  0  0  0  0
  -24.8934  -32.2876   26.4923 H   0  0  0  0  0  0
  -25.8080  -30.8876   27.0226 H   0  0  0  0  0  0
  -26.2862  -29.6800   24.1172 H   0  0  0  0  0  0
  -27.4067  -29.7277   25.4590 H   0  0  0  0  0  0
  -27.8706  -30.4350   23.9291 H   0  0  0  0  0  0
  -27.2676  -33.3619   26.2082 H   0  0  0  0  0  0
  -28.3855  -32.6889   25.0310 H   0  0  0  0  0  0
  -28.0732  -31.8437   26.5391 H   0  0  0  0  0  0
  -28.2592  -38.0113   24.7535 H   0  0  0  0  0  0
  -28.1091  -36.2647   24.6254 H   0  0  0  0  0  0
  -27.2310  -37.1413   25.8866 H   0  0  0  0  0  0
  -20.9322  -29.8763   21.6937 H   0  0  0  0  0  0
  -26.0179  -38.2873   24.1428 H   0  0  0  0  0  0
  -31.1180  -25.2804   20.4889 H   0  0  0  0  0  0
  -33.4162  -24.7759   19.9182 H   0  0  0  0  0  0
  -34.4058  -24.5305   21.4491 H   0  0  0  0  0  0
  -34.6215  -22.1071   20.9198 H   0  0  0  0  0  0
  -33.6174  -22.3458   19.3961 H   0  0  0  0  0  0
  -27.5781  -16.7815   19.6992 H   0  0  0  0  0  0
  -28.5889  -18.0913   18.9910 H   0  0  0  0  0  0
  -30.3387  -16.4783   18.3071 H   0  0  0  0  0  0
  -28.9086  -15.4051   18.1893 H   0  0  0  0  0  0
  -32.6828  -22.9242   22.3337 H   0  0  0  0  0  0
  -28.9536  -17.0005   21.6230 H   0  0  0  0  0  0
  -31.8144  -20.5481   21.6682 H   0  0  0  0  0  0
  -31.8173  -20.3112   19.9350 H   0  0  0  0  0  0
  -27.7734  -25.2011   18.6848 H   0  0  0  0  0  0
  -29.3218  -25.9012   18.4750 H   0  0  0  0  0  0
  -31.3068  -17.9616   19.8396 H   0  0  0  0  0  0
  -31.3964  -17.7466   21.5709 H   0  0  0  0  0  0
  -29.4876  -19.5833   20.2628 H   0  0  0  0  0  0
  -29.7687  -19.4852   21.8526 H   0  0  0  0  0  0
  1 25  1  0  0  0
  1 30  2  0  0  0
  1 86  1  0  0  0
  2  3  1  0  0  0
  2 25  1  0  0  0
  2 88  1  0  0  0
  2 89  1  0  0  0
  3  4  1  0  0  0
  3 90  1  0  0  0
  3 91  1  0  0  0
  4  5  1  0  0  0
  4 92  1  0  0  0
  4 93  1  0  0  0
  5  6  1  0  0  0
  5 26  1  0  0  0
  5 94  1  0  0  0
  6 25  1  0  0  0
  6 95  1  0  0  0
  6 96  1  0  0  0
  7  8  2  0  0  0
  7 26  1  0  0  0
  7 29  1  0  0  0
  8  9  1  0  0  0
  8 22  1  0  0  0
  9 10  1  0  0  0
  9 27  2  0  0  0
 10 11  2  0  0  0
 10 15  1  0  0  0
 11 12  1  0  0  0
 11 97  1  0  0  0
 12 13  2  0  0  0
 12 98  1  0  0  0
 13 14  1  0  0  0
 13 31  1  0  0  0
 14 15  2  0  0  0
 14 99  1  0  0  0
 15100  1  0  0  0
 16 17  2  0  0  0
 16 21  1  0  0  0
 16 31  1  0  0  0
 17 18  1  0  0  0
 17101  1  0  0  0
 18 19  2  0  0  0
 18102  1  0  0  0
 19 20  1  0  0  0
 19 24  1  0  0  0
 20 21  2  0  0  0
 20103  1  0  0  0
 21 23  1  0  0  0
 22 28  1  0  0  0
 22 32  2  0  0  0
 26 27  1  0  0  0
 28104  1  0  0  0
 28105  1  0  0  0
 29106  1  0  0  0
 29107  1  0  0  0
 33 34  1  0  0  0
 33 66  1  0  0  0
 33 70  2  0  0  0
 34 36  1  0  0  0
 34 59  1  0  0  0
 34108  1  0  0  0
 35 44  2  0  0  0
 35 45  1  0  0  0
 35 68  1  0  0  0
 36 56  1  0  0  0
 36109  1  0  0  0
 37 39  1  0  0  0
 37 47  1  0  0  0
 37 66  1  0  0  0
 37110  1  0  0  0
 38 43  2  0  0  0
 38 46  1  0  0  0
 38 47  1  0  0  0
 39 64  1  0  0  0
 39 67  2  0  0  0
 40 52  1  0  0  0
 40 53  2  0  0  0
 40 58  1  0  0  0
 41111  1  0  0  0
 41112  1  0  0  0
 41113  1  0  0  0
 41 48  1  0  0  0
 42 43  1  0  0  0
 42 66  1  0  0  0
 42114  1  0  0  0
 42115  1  0  0  0
 43 44  1  0  0  0
 44116  1  0  0  0
 45 46  2  0  0  0
 45117  1  0  0  0
 46118  1  0  0  0
 47119  1  0  0  0
 47120  1  0  0  0
 48 56  1  0  0  0
 48 65  1  0  0  0
 48121  1  0  0  0
 49 50  1  0  0  0
 49 53  1  0  0  0
 49 64  1  0  0  0
 49122  1  0  0  0
 50 51  1  0  0  0
 50123  1  0  0  0
 50124  1  0  0  0
 51 52  1  0  0  0
 51125  1  0  0  0
 51126  1  0  0  0
 52127  1  0  0  0
 52128  1  0  0  0
 53 54  1  0  0  0
 54 55  2  0  0  0
 54129  1  0  0  0
 55 57  1  0  0  0
 55130  1  0  0  0
 56 69  2  0  0  0
 57 58  2  0  0  0
 57131  1  0  0  0
 58132  1  0  0  0
 59 60  1  0  0  0
 59 61  1  0  0  0
 59 62  1  0  0  0
 60133  1  0  0  0
 60134  1  0  0  0
 60135  1  0  0  0
 61136  1  0  0  0
 61137  1  0  0  0
 61138  1  0  0  0
 62139  1  0  0  0
 62140  1  0  0  0
 62141  1  0  0  0
 63 65  1  0  0  0
 63142  1  0  0  0
 63143  1  0  0  0
 63144  1  0  0  0
 64145  1  0  0  0
 65146  1  0  0  0
 68 82  1  0  0  0
 71 72  2  0  0  0
 71 73  1  0  0  0
 71147  1  0  0  0
 72 74  1  0  0  0
 72 79  1  0  0  0
 73 82  1  0  0  0
 73 84  2  0  0  0
 74 81  1  0  0  0
 74 85  2  0  0  0
 75 76  1  0  0  0
 75 79  1  0  0  0
 75148  1  0  0  0
 75149  1  0  0  0
 76 79  1  0  0  0
 76150  1  0  0  0
 76151  1  0  0  0
 77 78  1  0  0  0
 77 80  1  0  0  0
 77152  1  0  0  0
 77153  1  0  0  0
 78 86  1  0  0  0
 78154  1  0  0  0
 78155  1  0  0  0
 79156  1  0  0  0
 80 83  1  0  0  0
 80 86  1  0  0  0
 80157  1  0  0  0
 81 87  1  0  0  0
 81158  1  0  0  0
 81159  1  0  0  0
 82160  1  0  0  0
 82161  1  0  0  0
 83 87  1  0  0  0
 83162  1  0  0  0
 83163  1  0  0  0
 84 85  1  0  0  0
 87164  1  0  0  0
 87165  1  0  0  0
M  CHG  1  87   1
M  ISO  4   1 100  68 101  82 101  86 100
M  END
> <chiral flag>
0

> <version>
0

> <s_m_source_file>
/data/baiqing/PycharmProjects/Reinvent-master-3.2/result/LINK_invent/BTK/process_docking_weight1_custom_sum_contain_oxygen_bond_distance_aromatic_linkinvent_7_9_3/rearranged_h_0198.sdf

> <i_m_source_file_index>
43

> <r_mmod_Potential_Energy-OPLS-2005>
-29.2041053771973

> <r_mmod_Stretch_Energy-OPLS-2005>
53.5999221801758

> <r_mmod_Bend_Energy-OPLS-2005>
144.418731689453

> <r_mmod_Torsional_Energy-OPLS-2005>
343.277099609375

> <r_mmod_Improper_Torsional_Energy-OPLS-2005>
19.9473114013672

> <r_mmod_Van_der_Waal_Energy-OPLS-2005>
147.123550415039

> <r_mmod_Electrostatic_Energy-OPLS-2005>
-301.578857421875

> <r_mmod_Solvation_Energy-OPLS-2005>
-470.604125976562

> <b_mmod_Minimization_Converged-OPLS-2005>
0

> <r_mmod_RMS_Derivative-OPLS-2005>
0.955321729183197

$$$$
43
                    3D
 Structure written by MMmdl.
164173  0  0  1  0            999 V2000
  -30.7180  -14.3887   20.6420 C   0  0  0  0  0  0
  -30.4238  -12.2810   19.3966 C   0  0  0  0  0  0
  -29.4921  -12.5308   18.1932 C   0  0  0  0  0  0
  -28.0118  -12.3862   18.6007 C   0  0  0  0  0  0
  -27.6671  -13.1915   19.8806 C   0  0  2  0  0  0
  -28.7016  -12.9029   20.9884 C   0  0  0  0  0  0
  -25.2627  -13.8131   20.5650 C   0  0  0  0  0  0
  -24.1858  -13.0439   20.9154 C   0  0  0  0  0  0
  -24.6380  -11.6895   20.8710 C   0  0  0  0  0  0
  -23.9031  -10.4298   21.0398 C   0  0  0  0  0  0
  -24.3593   -9.4217   21.9176 C   0  0  0  0  0  0
  -23.6307   -8.2233   22.0712 C   0  0  0  0  0  0
  -22.4274   -8.0289   21.3522 C   0  0  0  0  0  0
  -21.9882   -9.0258   20.4629 C   0  0  0  0  0  0
  -22.7195  -10.2142   20.3053 C   0  0  0  0  0  0
  -21.6842   -6.0763   22.5281 C   0  0  0  0  0  0
  -21.4012   -6.5656   23.8219 C   0  0  0  0  0  0
  -21.3637   -5.6790   24.9183 C   0  0  0  0  0  0
  -21.6023   -4.3053   24.7233 C   0  0  0  0  0  0
  -21.8817   -3.8158   23.4353 C   0  0  0  0  0  0
  -21.9179   -4.6987   22.3410 C   0  0  0  0  0  0
  -22.7882  -13.5255   21.1810 C   0  0  0  0  0  0
  -22.1652   -4.2169   21.0984 F   0  0  0  0  0  0
  -21.5608   -3.4522   25.7738 F   0  0  0  0  0  0
  -30.0434  -13.2216   20.4602 N   0  0  0  0  0  0
  -26.3048  -12.9266   20.3370 N   0  0  0  0  0  0
  -25.9307  -11.6440   20.5737 N   0  0  0  0  0  0
  -22.0523  -12.8250   22.0373 N   0  0  0  0  0  0
  -25.4369  -15.1841   20.4058 N   0  0  0  0  0  0
  -31.7959  -14.6418   20.0907 O   0  0  0  0  0  0
  -21.6626   -6.8894   21.4238 O   0  0  0  0  0  0
  -22.3577  -14.5571   20.6646 O   0  0  0  0  0  0
  -24.6107  -31.8709   23.2137 C   0  0  0  0  0  0
  -25.9017  -32.4843   23.8417 C   0  0  1  0  0  0
  -27.2356  -27.4741   20.0806 C   0  0  0  0  0  0
  -25.5899  -33.8639   24.2355 N   0  0  0  0  0  0
  -23.3960  -30.4945   21.5538 C   0  0  2  0  0  0
  -24.8411  -28.9597   20.1218 C   0  0  0  0  0  0
  -22.7388  -29.4665   22.5017 C   0  0  0  0  0  0
  -18.0273  -28.1378   22.8496 C   0  0  0  0  0  0
  -24.1486  -36.7317   23.2634 C   0  0  0  0  0  0
  -25.9198  -30.8463   21.3598 C   0  0  0  0  0  0
  -25.9981  -29.4792   20.7162 C   0  0  0  0  0  0
  -27.1984  -28.7400   20.6998 C   0  0  0  0  0  0
  -26.0632  -26.9596   19.4819 C   0  0  0  0  0  0
  -24.8638  -27.6945   19.5084 C   0  0  0  0  0  0
  -23.6021  -29.8245   20.1689 C   0  0  0  0  0  0
  -25.4104  -36.3121   24.0348 C   0  0  1  0  0  0
  -20.5855  -28.3650   23.1343 C   0  0  2  0  0  0
  -20.6757  -26.9395   22.5418 C   0  0  0  0  0  0
  -19.5736  -26.6391   21.5212 C   0  0  0  0  0  0
  -18.1918  -26.7930   22.1625 C   0  0  0  0  0  0
  -19.1518  -28.8832   23.2917 C   0  0  0  0  0  0
  -18.9446  -30.1444   23.8918 C   0  0  0  0  0  0
  -17.6446  -30.6583   24.0570 C   0  0  0  0  0  0
  -25.9025  -34.9486   23.5146 C   0  0  0  0  0  0
  -16.5339  -29.9085   23.6326 C   0  0  0  0  0  0
  -16.7261  -28.6503   23.0344 C   0  0  0  0  0  0
  -26.4469  -31.6599   25.0716 C   0  0  0  0  0  0
  -25.3757  -31.3685   26.1478 C   0  0  0  0  0  0
  -27.0286  -30.3057   24.6033 C   0  0  0  0  0  0
  -27.6064  -32.4295   25.7470 C   0  0  0  0  0  0
  -27.5588  -37.1803   24.8463 C   0  0  0  0  0  0
  -21.4118  -29.3028   22.3757 N   0  0  0  0  0  0
  -26.4288  -37.3807   23.9426 N   0  0  0  0  0  0
  -24.6605  -31.0837   22.1022 N   0  0  0  0  0  0
  -23.4179  -28.8205   23.3042 O   0  0  0  0  0  0
  -28.4264  -26.7914   19.9990 O   0  0  0  0  0  0
  -26.5567  -34.8934   22.4695 O   0  0  0  0  0  0
  -23.5313  -32.1435   23.7562 O   0  0  0  0  0  0
  -28.1193  -23.9890   22.0674 C   0  0  0  0  0  0
  -28.4844  -22.9489   21.1943 C   0  0  0  0  0  0
  -28.8380  -23.3330   19.8843 C   0  0  0  0  0  0
  -28.4142  -25.5115   20.4107 C   0  0  0  0  0  0
  -28.8758  -16.6870   22.8184 C   0  0  0  0  0  0
  -29.8968  -15.5618   22.6675 C   0  0  0  0  0  0
  -29.6587  -16.6053   20.5327 C   0  0  0  0  0  0
  -29.1375  -17.5764   21.6014 C   0  0  1  0  0  0
  -29.2816  -22.3449   18.8220 C   0  0  0  0  0  0
  -28.5642  -21.5084   21.7013 C   0  0  0  0  0  0
  -27.9286  -18.4005   21.1156 C   0  0  0  0  0  0
  -27.3632  -19.3923   22.1581 C   0  0  0  0  0  0
  -28.0793  -25.2720   21.6720 N   0  0  0  0  0  0
  -28.8042  -24.6228   19.5062 N   0  0  0  0  0  0
  -29.9947  -15.3637   21.2247 N   0  0  0  0  0  0
  -27.2762  -20.7761   21.6440 N   0  3  0  0  0  0
  -31.4668  -12.3908   19.0947 H   0  0  0  0  0  0
  -30.3221  -11.2546   19.7505 H   0  0  0  0  0  0
  -29.7261  -11.8420   17.3794 H   0  0  0  0  0  0
  -29.6648  -13.5358   17.8039 H   0  0  0  0  0  0
  -27.8133  -11.3262   18.7622 H   0  0  0  0  0  0
  -27.3609  -12.6914   17.7794 H   0  0  0  0  0  0
  -27.7306  -14.2495   19.6265 H   0  0  0  0  0  0
  -28.6678  -11.8507   21.2731 H   0  0  0  0  0  0
  -28.4379  -13.4449   21.8927 H   0  0  0  0  0  0
  -25.2734   -9.5703   22.4753 H   0  0  0  0  0  0
  -24.0062   -7.4604   22.7384 H   0  0  0  0  0  0
  -21.0815   -8.8771   19.8940 H   0  0  0  0  0  0
  -22.3654  -10.9693   19.6182 H   0  0  0  0  0  0
  -21.2037   -7.6163   23.9761 H   0  0  0  0  0  0
  -21.1441   -6.0501   25.9085 H   0  0  0  0  0  0
  -22.0618   -2.7631   23.2845 H   0  0  0  0  0  0
  -22.4174  -11.9962   22.4813 H   0  0  0  0  0  0
  -21.1119  -13.1219   22.2566 H   0  0  0  0  0  0
  -24.6757  -15.8420   20.5288 H   0  0  0  0  0  0
  -26.2984  -15.6210   20.1047 H   0  0  0  0  0  0
  -26.7085  -32.5571   23.1187 H   0  0  0  0  0  0
  -25.0107  -33.9810   25.0536 H   0  0  0  0  0  0
  -22.6832  -31.3097   21.4166 H   0  0  0  0  0  0
  -23.3746  -35.9646   23.3295 H   0  0  0  0  0  0
  -24.3593  -36.8918   22.2044 H   0  0  0  0  0  0
  -23.7230  -37.6530   23.6631 H   0  0  0  0  0  0
  -26.0177  -31.6084   20.5855 H   0  0  0  0  0  0
  -26.8137  -30.9097   21.9680 H   0  0  0  0  0  0
  -28.0971  -29.1423   21.1450 H   0  0  0  0  0  0
  -26.0775  -26.0001   18.9838 H   0  0  0  0  0  0
  -23.9743  -27.2911   19.0435 H   0  0  0  0  0  0
  -23.7090  -30.5974   19.4070 H   0  0  0  0  0  0
  -22.7273  -29.2412   19.8746 H   0  0  0  0  0  0
  -25.1271  -36.1988   25.0836 H   0  0  0  0  0  0
  -20.9949  -28.3195   24.1462 H   0  0  0  0  0  0
  -20.5674  -26.2246   23.3589 H   0  0  0  0  0  0
  -21.6629  -26.7452   22.1205 H   0  0  0  0  0  0
  -19.6898  -25.6309   21.1224 H   0  0  0  0  0  0
  -19.6686  -27.3216   20.6754 H   0  0  0  0  0  0
  -17.4193  -26.6687   21.4022 H   0  0  0  0  0  0
  -18.0318  -26.0069   22.9015 H   0  0  0  0  0  0
  -19.7920  -30.7262   24.2287 H   0  0  0  0  0  0
  -17.5001  -31.6270   24.5164 H   0  0  0  0  0  0
  -15.5339  -30.2991   23.7650 H   0  0  0  0  0  0
  -15.8659  -28.0838   22.7035 H   0  0  0  0  0  0
  -24.5952  -30.7003   25.7832 H   0  0  0  0  0  0
  -24.8917  -32.2820   26.4930 H   0  0  0  0  0  0
  -25.8131  -30.8874   27.0228 H   0  0  0  0  0  0
  -26.2802  -29.6830   24.1123 H   0  0  0  0  0  0
  -27.4129  -29.7284   25.4448 H   0  0  0  0  0  0
  -27.8601  -30.4412   23.9117 H   0  0  0  0  0  0
  -27.2715  -33.3590   26.2083 H   0  0  0  0  0  0
  -28.3857  -32.6850   25.0279 H   0  0  0  0  0  0
  -28.0746  -31.8385   26.5350 H   0  0  0  0  0  0
  -28.2588  -38.0121   24.7554 H   0  0  0  0  0  0
  -28.1104  -36.2656   24.6225 H   0  0  0  0  0  0
  -27.2318  -37.1373   25.8869 H   0  0  0  0  0  0
  -20.9264  -29.8749   21.6991 H   0  0  0  0  0  0
  -26.0179  -38.2881   24.1456 H   0  0  0  0  0  0
  -27.8532  -23.7930   23.0955 H   0  0  0  0  0  0
  -28.9817  -17.2164   23.7657 H   0  0  0  0  0  0
  -27.8690  -16.2687   22.7777 H   0  0  0  0  0  0
  -29.6088  -14.6672   23.2177 H   0  0  0  0  0  0
  -30.8714  -15.8734   23.0475 H   0  0  0  0  0  0
  -30.5174  -17.0218   20.0012 H   0  0  0  0  0  0
  -28.8924  -16.3800   19.7895 H   0  0  0  0  0  0
  -29.9528  -18.2579   21.8531 H   0  0  0  0  0  0
  -28.5779  -21.5170   18.7372 H   0  0  0  0  0  0
  -30.2652  -21.9419   19.0667 H   0  0  0  0  0  0
  -29.3500  -22.8196   17.8412 H   0  0  0  0  0  0
  -28.9136  -21.5285   22.7356 H   0  0  0  0  0  0
  -29.3259  -20.9569   21.1488 H   0  0  0  0  0  0
  -27.1276  -17.7236   20.8153 H   0  0  0  0  0  0
  -28.2157  -18.9222   20.2013 H   0  0  0  0  0  0
  -27.9443  -19.3758   23.0801 H   0  0  0  0  0  0
  -26.3567  -19.0774   22.4388 H   0  0  0  0  0  0
  -26.9123  -20.7458   20.7056 H   0  0  0  0  0  0
  -26.5956  -21.2550   22.2117 H   0  0  0  0  0  0
  1 25  1  0  0  0
  1 30  2  0  0  0
  1 85  1  0  0  0
  2  3  1  0  0  0
  2 25  1  0  0  0
  2 87  1  0  0  0
  2 88  1  0  0  0
  3  4  1  0  0  0
  3 89  1  0  0  0
  3 90  1  0  0  0
  4  5  1  0  0  0
  4 91  1  0  0  0
  4 92  1  0  0  0
  5  6  1  0  0  0
  5 26  1  0  0  0
  5 93  1  0  0  0
  6 25  1  0  0  0
  6 94  1  0  0  0
  6 95  1  0  0  0
  7  8  2  0  0  0
  7 26  1  0  0  0
  7 29  1  0  0  0
  8  9  1  0  0  0
  8 22  1  0  0  0
  9 10  1  0  0  0
  9 27  2  0  0  0
 10 11  2  0  0  0
 10 15  1  0  0  0
 11 12  1  0  0  0
 11 96  1  0  0  0
 12 13  2  0  0  0
 12 97  1  0  0  0
 13 14  1  0  0  0
 13 31  1  0  0  0
 14 15  2  0  0  0
 14 98  1  0  0  0
 15 99  1  0  0  0
 16 17  2  0  0  0
 16 21  1  0  0  0
 16 31  1  0  0  0
 17 18  1  0  0  0
 17100  1  0  0  0
 18 19  2  0  0  0
 18101  1  0  0  0
 19 20  1  0  0  0
 19 24  1  0  0  0
 20 21  2  0  0  0
 20102  1  0  0  0
 21 23  1  0  0  0
 22 28  1  0  0  0
 22 32  2  0  0  0
 26 27  1  0  0  0
 28103  1  0  0  0
 28104  1  0  0  0
 29105  1  0  0  0
 29106  1  0  0  0
 33 34  1  0  0  0
 33 66  1  0  0  0
 33 70  2  0  0  0
 34 36  1  0  0  0
 34 59  1  0  0  0
 34107  1  0  0  0
 35 44  2  0  0  0
 35 45  1  0  0  0
 35 68  1  0  0  0
 36 56  1  0  0  0
 36108  1  0  0  0
 37 39  1  0  0  0
 37 47  1  0  0  0
 37 66  1  0  0  0
 37109  1  0  0  0
 38 43  2  0  0  0
 38 46  1  0  0  0
 38 47  1  0  0  0
 39 64  1  0  0  0
 39 67  2  0  0  0
 40 52  1  0  0  0
 40 53  2  0  0  0
 40 58  1  0  0  0
 41110  1  0  0  0
 41111  1  0  0  0
 41112  1  0  0  0
 41 48  1  0  0  0
 42 43  1  0  0  0
 42 66  1  0  0  0
 42113  1  0  0  0
 42114  1  0  0  0
 43 44  1  0  0  0
 44115  1  0  0  0
 45 46  2  0  0  0
 45116  1  0  0  0
 46117  1  0  0  0
 47118  1  0  0  0
 47119  1  0  0  0
 48 56  1  0  0  0
 48 65  1  0  0  0
 48120  1  0  0  0
 49 50  1  0  0  0
 49 53  1  0  0  0
 49 64  1  0  0  0
 49121  1  0  0  0
 50 51  1  0  0  0
 50122  1  0  0  0
 50123  1  0  0  0
 51 52  1  0  0  0
 51124  1  0  0  0
 51125  1  0  0  0
 52126  1  0  0  0
 52127  1  0  0  0
 53 54  1  0  0  0
 54 55  2  0  0  0
 54128  1  0  0  0
 55 57  1  0  0  0
 55129  1  0  0  0
 56 69  2  0  0  0
 57 58  2  0  0  0
 57130  1  0  0  0
 58131  1  0  0  0
 59 60  1  0  0  0
 59 61  1  0  0  0
 59 62  1  0  0  0
 60132  1  0  0  0
 60133  1  0  0  0
 60134  1  0  0  0
 61135  1  0  0  0
 61136  1  0  0  0
 61137  1  0  0  0
 62138  1  0  0  0
 62139  1  0  0  0
 62140  1  0  0  0
 63 65  1  0  0  0
 63141  1  0  0  0
 63142  1  0  0  0
 63143  1  0  0  0
 64144  1  0  0  0
 65145  1  0  0  0
 68 74  1  0  0  0
 71 72  2  0  0  0
 71 83  1  0  0  0
 71146  1  0  0  0
 72 73  1  0  0  0
 72 80  1  0  0  0
 73 79  1  0  0  0
 73 84  2  0  0  0
 74 83  2  0  0  0
 74 84  1  0  0  0
 75 76  1  0  0  0
 75 78  1  0  0  0
 75147  1  0  0  0
 75148  1  0  0  0
 76 85  1  0  0  0
 76149  1  0  0  0
 76150  1  0  0  0
 77 78  1  0  0  0
 77 85  1  0  0  0
 77151  1  0  0  0
 77152  1  0  0  0
 78 81  1  0  0  0
 78153  1  0  0  0
 79154  1  0  0  0
 79155  1  0  0  0
 79156  1  0  0  0
 80 86  1  0  0  0
 80157  1  0  0  0
 80158  1  0  0  0
 81 82  1  0  0  0
 81159  1  0  0  0
 81160  1  0  0  0
 82 86  1  0  0  0
 82161  1  0  0  0
 82162  1  0  0  0
 86163  1  0  0  0
 86164  1  0  0  0
M  CHG  1  86   1
M  ISO  4   1 100  68 101  74 101  85 100
M  END
> <chiral flag>
0

> <version>
0

> <s_m_source_file>
/data/baiqing/PycharmProjects/Reinvent-master-3.2/result/LINK_invent/BTK/process_docking_weight1_custom_sum_contain_oxygen_bond_distance_aromatic_linkinvent_7_9_3/rearranged_h_0198.sdf

> <i_m_source_file_index>
44

> <r_mmod_Potential_Energy-OPLS-2005>
-301.116241455078

> <r_mmod_Stretch_Energy-OPLS-2005>
31.2919139862061

> <r_mmod_Bend_Energy-OPLS-2005>
115.268974304199

> <r_mmod_Torsional_Energy-OPLS-2005>
363.731475830078

> <r_mmod_Improper_Torsional_Energy-OPLS-2005>
8.60300827026367

> <r_mmod_Van_der_Waal_Energy-OPLS-2005>
151.791244506836

> <r_mmod_Electrostatic_Energy-OPLS-2005>
-488.951599121094

> <r_mmod_Solvation_Energy-OPLS-2005>
-490.272430419922

> <b_mmod_Minimization_Converged-OPLS-2005>
0

> <r_mmod_RMS_Derivative-OPLS-2005>
2.34439063072205

$$$$
44
                    3D
 Structure written by MMmdl.
163172  0  0  1  0            999 V2000
  -30.6933  -14.4903   20.5350 C   0  0  0  0  0  0
  -30.4276  -12.3089   19.4212 C   0  0  0  0  0  0
  -29.4941  -12.4868   18.2051 C   0  0  0  0  0  0
  -28.0167  -12.3448   18.6231 C   0  0  0  0  0  0
  -27.6596  -13.1978   19.8692 C   0  0  2  0  0  0
  -28.7062  -13.0047   20.9903 C   0  0  0  0  0  0
  -25.2588  -13.8147   20.5679 C   0  0  0  0  0  0
  -24.1825  -13.0436   20.9164 C   0  0  0  0  0  0
  -24.6367  -11.6902   20.8722 C   0  0  0  0  0  0
  -23.9037  -10.4293   21.0406 C   0  0  0  0  0  0
  -24.3602   -9.4207   21.9177 C   0  0  0  0  0  0
  -23.6283   -8.2237   22.0747 C   0  0  0  0  0  0
  -22.4257   -8.0279   21.3551 C   0  0  0  0  0  0
  -21.9884   -9.0252   20.4652 C   0  0  0  0  0  0
  -22.7207  -10.2135   20.3058 C   0  0  0  0  0  0
  -21.6849   -6.0718   22.5273 C   0  0  0  0  0  0
  -21.4019   -6.5623   23.8206 C   0  0  0  0  0  0
  -21.3664   -5.6780   24.9170 C   0  0  0  0  0  0
  -21.6043   -4.3042   24.7221 C   0  0  0  0  0  0
  -21.8828   -3.8132   23.4345 C   0  0  0  0  0  0
  -21.9192   -4.6946   22.3398 C   0  0  0  0  0  0
  -22.7855  -13.5254   21.1830 C   0  0  0  0  0  0
  -22.1661   -4.2131   21.0974 F   0  0  0  0  0  0
  -21.5626   -3.4531   25.7739 F   0  0  0  0  0  0
  -30.0333  -13.3044   20.4282 N   0  0  0  0  0  0
  -26.3016  -12.9293   20.3354 N   0  0  0  0  0  0
  -25.9291  -11.6469   20.5756 N   0  0  0  0  0  0
  -22.0489  -12.8275   22.0404 N   0  0  0  0  0  0
  -25.4325  -15.1869   20.4104 N   0  0  0  0  0  0
  -31.8434  -14.6583   20.1194 O   0  0  0  0  0  0
  -21.6633   -6.8869   21.4241 O   0  0  0  0  0  0
  -22.3547  -14.5553   20.6655 O   0  0  0  0  0  0
  -24.6141  -31.8672   23.2085 C   0  0  0  0  0  0
  -25.9027  -32.4818   23.8382 C   0  0  1  0  0  0
  -27.2401  -27.4274   20.1079 C   0  0  0  0  0  0
  -25.5876  -33.8615   24.2308 N   0  0  0  0  0  0
  -23.4036  -30.4885   21.5495 C   0  0  2  0  0  0
  -24.8539  -28.9505   20.1188 C   0  0  0  0  0  0
  -22.7408  -29.4653   22.5002 C   0  0  0  0  0  0
  -18.0270  -28.1382   22.8493 C   0  0  0  0  0  0
  -24.1480  -36.7319   23.2647 C   0  0  0  0  0  0
  -25.9325  -30.8323   21.3609 C   0  0  0  0  0  0
  -26.0141  -29.4653   20.7109 C   0  0  0  0  0  0
  -27.2132  -28.7135   20.6955 C   0  0  0  0  0  0
  -26.0647  -26.9302   19.5046 C   0  0  0  0  0  0
  -24.8746  -27.6836   19.5098 C   0  0  0  0  0  0
  -23.6138  -29.8159   20.1667 C   0  0  0  0  0  0
  -25.4106  -36.3108   24.0339 C   0  0  1  0  0  0
  -20.5854  -28.3665   23.1332 C   0  0  2  0  0  0
  -20.6756  -26.9401   22.5435 C   0  0  0  0  0  0
  -19.5741  -26.6390   21.5219 C   0  0  0  0  0  0
  -18.1914  -26.7935   22.1619 C   0  0  0  0  0  0
  -19.1518  -28.8844   23.2909 C   0  0  0  0  0  0
  -18.9447  -30.1446   23.8917 C   0  0  0  0  0  0
  -17.6451  -30.6588   24.0574 C   0  0  0  0  0  0
  -25.9029  -34.9476   23.5130 C   0  0  0  0  0  0
  -16.5341  -29.9094   23.6329 C   0  0  0  0  0  0
  -16.7260  -28.6514   23.0351 C   0  0  0  0  0  0
  -26.4473  -31.6611   25.0708 C   0  0  0  0  0  0
  -25.3748  -31.3723   26.1471 C   0  0  0  0  0  0
  -27.0322  -30.3055   24.6098 C   0  0  0  0  0  0
  -27.6054  -32.4353   25.7440 C   0  0  0  0  0  0
  -27.5585  -37.1811   24.8465 C   0  0  0  0  0  0
  -21.4134  -29.3029   22.3733 N   0  0  0  0  0  0
  -26.4296  -37.3790   23.9412 N   0  0  0  0  0  0
  -24.6683  -31.0775   22.0976 N   0  0  0  0  0  0
  -23.4187  -28.8190   23.3034 O   0  0  0  0  0  0
  -28.3996  -26.6778   20.1060 O   0  0  0  0  0  0
  -26.5612  -34.8926   22.4699 O   0  0  0  0  0  0
  -23.5329  -32.1422   23.7478 O   0  0  0  0  0  0
  -29.6676  -16.1341   22.0693 C   0  0  0  0  0  0
  -29.5811  -16.4791   19.6199 C   0  0  0  0  0  0
  -30.2528  -17.5634   22.2194 C   0  0  0  0  0  0
  -30.1731  -17.8968   19.7994 C   0  0  0  0  0  0
  -29.3771  -22.3860   21.5591 C   0  0  0  0  0  0
  -29.1479  -21.7198   19.6511 C   0  0  0  0  0  0
  -29.2229  -20.9628   20.9914 C   0  0  1  0  0  0
  -30.2974  -19.8894   21.3004 C   0  0  0  0  0  0
  -28.9461  -24.2406   19.8790 C   0  0  0  0  0  0
  -28.3062  -25.3740   20.7236 C   0  0  0  0  0  0
  -29.8900  -15.5635   20.7341 N   0  0  0  0  0  0
  -29.8275  -18.4767   21.1218 N   0  3  0  0  0  0
  -28.6260  -22.8745   20.3987 N   0  3  2  0  0  0
  -31.4702  -12.4111   19.1142 H   0  0  0  0  0  0
  -30.3354  -11.3043   19.8361 H   0  0  0  0  0  0
  -29.7361  -11.7487   17.4385 H   0  0  0  0  0  0
  -29.6517  -13.4653   17.7497 H   0  0  0  0  0  0
  -27.8357  -11.2918   18.8378 H   0  0  0  0  0  0
  -27.3618  -12.5994   17.7888 H   0  0  0  0  0  0
  -27.6935  -14.2383   19.5498 H   0  0  0  0  0  0
  -28.6881  -11.9786   21.3615 H   0  0  0  0  0  0
  -28.4693  -13.6328   21.8491 H   0  0  0  0  0  0
  -25.2760   -9.5675   22.4738 H   0  0  0  0  0  0
  -23.9991   -7.4627   22.7466 H   0  0  0  0  0  0
  -21.0803   -8.8779   19.8968 H   0  0  0  0  0  0
  -22.3671  -10.9671   19.6162 H   0  0  0  0  0  0
  -21.2020   -7.6133   23.9709 H   0  0  0  0  0  0
  -21.1474   -6.0503   25.9072 H   0  0  0  0  0  0
  -22.0601   -2.7592   23.2844 H   0  0  0  0  0  0
  -22.4093  -11.9950   22.4835 H   0  0  0  0  0  0
  -21.1116  -13.1320   22.2609 H   0  0  0  0  0  0
  -24.6652  -15.8418   20.5122 H   0  0  0  0  0  0
  -26.2875  -15.6238   20.0925 H   0  0  0  0  0  0
  -26.7095  -32.5543   23.1149 H   0  0  0  0  0  0
  -25.0000  -33.9765   25.0435 H   0  0  0  0  0  0
  -22.6921  -31.3049   21.4076 H   0  0  0  0  0  0
  -23.3730  -35.9664   23.3322 H   0  0  0  0  0  0
  -24.3558  -36.8919   22.2054 H   0  0  0  0  0  0
  -23.7241  -37.6530   23.6659 H   0  0  0  0  0  0
  -26.0441  -31.5975   20.5909 H   0  0  0  0  0  0
  -26.8195  -30.8870   21.9812 H   0  0  0  0  0  0
  -28.1115  -29.1082   21.1483 H   0  0  0  0  0  0
  -26.0654  -25.9601   19.0287 H   0  0  0  0  0  0
  -23.9830  -27.2831   19.0479 H   0  0  0  0  0  0
  -23.7185  -30.5860   19.4018 H   0  0  0  0  0  0
  -22.7395  -29.2310   19.8760 H   0  0  0  0  0  0
  -25.1282  -36.1967   25.0831 H   0  0  0  0  0  0
  -20.9954  -28.3239   24.1452 H   0  0  0  0  0  0
  -20.5647  -26.2271   23.3622 H   0  0  0  0  0  0
  -21.6631  -26.7442   22.1237 H   0  0  0  0  0  0
  -19.6894  -25.6304   21.1243 H   0  0  0  0  0  0
  -19.6684  -27.3207   20.6755 H   0  0  0  0  0  0
  -17.4191  -26.6698   21.4011 H   0  0  0  0  0  0
  -18.0297  -26.0066   22.9001 H   0  0  0  0  0  0
  -19.7925  -30.7258   24.2293 H   0  0  0  0  0  0
  -17.5010  -31.6269   24.5181 H   0  0  0  0  0  0
  -15.5344  -30.3010   23.7642 H   0  0  0  0  0  0
  -15.8658  -28.0845   22.7056 H   0  0  0  0  0  0
  -24.5875  -30.7126   25.7806 H   0  0  0  0  0  0
  -24.8999  -32.2888   26.4987 H   0  0  0  0  0  0
  -25.8102  -30.8827   27.0191 H   0  0  0  0  0  0
  -26.2863  -29.6767   24.1228 H   0  0  0  0  0  0
  -27.4169  -29.7338   25.4553 H   0  0  0  0  0  0
  -27.8656  -30.4365   23.9192 H   0  0  0  0  0  0
  -27.2668  -33.3623   26.2082 H   0  0  0  0  0  0
  -28.3807  -32.6985   25.0231 H   0  0  0  0  0  0
  -28.0811  -31.8467   26.5294 H   0  0  0  0  0  0
  -28.2622  -38.0090   24.7504 H   0  0  0  0  0  0
  -28.1056  -36.2627   24.6292 H   0  0  0  0  0  0
  -27.2311  -37.1472   25.8870 H   0  0  0  0  0  0
  -20.9294  -29.8742   21.6948 H   0  0  0  0  0  0
  -26.0184  -38.2868   24.1404 H   0  0  0  0  0  0
  -28.5926  -16.1517   22.2520 H   0  0  0  0  0  0
  -30.0925  -15.4878   22.8413 H   0  0  0  0  0  0
  -29.9237  -16.0636   18.6698 H   0  0  0  0  0  0
  -28.4970  -16.5473   19.5292 H   0  0  0  0  0  0
  -31.3431  -17.5129   22.2472 H   0  0  0  0  0  0
  -29.9387  -17.9698   23.1817 H   0  0  0  0  0  0
  -29.8112  -18.5510   19.0035 H   0  0  0  0  0  0
  -31.2582  -17.8509   19.6922 H   0  0  0  0  0  0
  -30.4118  -22.7357   21.5799 H   0  0  0  0  0  0
  -28.8819  -22.5527   22.5165 H   0  0  0  0  0  0
  -28.4417  -21.3051   18.9306 H   0  0  0  0  0  0
  -30.1227  -21.9063   19.1934 H   0  0  0  0  0  0
  -28.2309  -20.5960   21.2668 H   0  0  0  0  0  0
  -30.6063  -20.0188   22.3389 H   0  0  0  0  0  0
  -31.2065  -20.0617   20.7231 H   0  0  0  0  0  0
  -30.0246  -24.3817   19.8085 H   0  0  0  0  0  0
  -28.5586  -24.3077   18.8634 H   0  0  0  0  0  0
  -28.8173  -25.4325   21.6851 H   0  0  0  0  0  0
  -27.2736  -25.1130   20.9595 H   0  0  0  0  0  0
  -28.8203  -18.5073   21.1744 H   0  0  0  0  0  0
  -27.6326  -22.7554   20.5436 H   0  0  0  0  0  0
  1 25  1  0  0  0
  1 30  2  0  0  0
  1 81  1  0  0  0
  2  3  1  0  0  0
  2 25  1  0  0  0
  2 84  1  0  0  0
  2 85  1  0  0  0
  3  4  1  0  0  0
  3 86  1  0  0  0
  3 87  1  0  0  0
  4  5  1  0  0  0
  4 88  1  0  0  0
  4 89  1  0  0  0
  5  6  1  0  0  0
  5 26  1  0  0  0
  5 90  1  0  0  0
  6 25  1  0  0  0
  6 91  1  0  0  0
  6 92  1  0  0  0
  7  8  2  0  0  0
  7 26  1  0  0  0
  7 29  1  0  0  0
  8  9  1  0  0  0
  8 22  1  0  0  0
  9 10  1  0  0  0
  9 27  2  0  0  0
 10 11  2  0  0  0
 10 15  1  0  0  0
 11 12  1  0  0  0
 11 93  1  0  0  0
 12 13  2  0  0  0
 12 94  1  0  0  0
 13 14  1  0  0  0
 13 31  1  0  0  0
 14 15  2  0  0  0
 14 95  1  0  0  0
 15 96  1  0  0  0
 16 17  2  0  0  0
 16 21  1  0  0  0
 16 31  1  0  0  0
 17 18  1  0  0  0
 17 97  1  0  0  0
 18 19  2  0  0  0
 18 98  1  0  0  0
 19 20  1  0  0  0
 19 24  1  0  0  0
 20 21  2  0  0  0
 20 99  1  0  0  0
 21 23  1  0  0  0
 22 28  1  0  0  0
 22 32  2  0  0  0
 26 27  1  0  0  0
 28100  1  0  0  0
 28101  1  0  0  0
 29102  1  0  0  0
 29103  1  0  0  0
 33 34  1  0  0  0
 33 66  1  0  0  0
 33 70  2  0  0  0
 34 36  1  0  0  0
 34 59  1  0  0  0
 34104  1  0  0  0
 35 44  2  0  0  0
 35 45  1  0  0  0
 35 68  1  0  0  0
 36 56  1  0  0  0
 36105  1  0  0  0
 37 39  1  0  0  0
 37 47  1  0  0  0
 37 66  1  0  0  0
 37106  1  0  0  0
 38 43  2  0  0  0
 38 46  1  0  0  0
 38 47  1  0  0  0
 39 64  1  0  0  0
 39 67  2  0  0  0
 40 52  1  0  0  0
 40 53  2  0  0  0
 40 58  1  0  0  0
 41107  1  0  0  0
 41108  1  0  0  0
 41109  1  0  0  0
 41 48  1  0  0  0
 42 43  1  0  0  0
 42 66  1  0  0  0
 42110  1  0  0  0
 42111  1  0  0  0
 43 44  1  0  0  0
 44112  1  0  0  0
 45 46  2  0  0  0
 45113  1  0  0  0
 46114  1  0  0  0
 47115  1  0  0  0
 47116  1  0  0  0
 48 56  1  0  0  0
 48 65  1  0  0  0
 48117  1  0  0  0
 49 50  1  0  0  0
 49 53  1  0  0  0
 49 64  1  0  0  0
 49118  1  0  0  0
 50 51  1  0  0  0
 50119  1  0  0  0
 50120  1  0  0  0
 51 52  1  0  0  0
 51121  1  0  0  0
 51122  1  0  0  0
 52123  1  0  0  0
 52124  1  0  0  0
 53 54  1  0  0  0
 54 55  2  0  0  0
 54125  1  0  0  0
 55 57  1  0  0  0
 55126  1  0  0  0
 56 69  2  0  0  0
 57 58  2  0  0  0
 57127  1  0  0  0
 58128  1  0  0  0
 59 60  1  0  0  0
 59 61  1  0  0  0
 59 62  1  0  0  0
 60129  1  0  0  0
 60130  1  0  0  0
 60131  1  0  0  0
 61132  1  0  0  0
 61133  1  0  0  0
 61134  1  0  0  0
 62135  1  0  0  0
 62136  1  0  0  0
 62137  1  0  0  0
 63 65  1  0  0  0
 63138  1  0  0  0
 63139  1  0  0  0
 63140  1  0  0  0
 64141  1  0  0  0
 65142  1  0  0  0
 68 80  1  0  0  0
 71 73  1  0  0  0
 71 81  1  0  0  0
 71143  1  0  0  0
 71144  1  0  0  0
 72 74  1  0  0  0
 72 81  1  0  0  0
 72145  1  0  0  0
 72146  1  0  0  0
 73 82  1  0  0  0
 73147  1  0  0  0
 73148  1  0  0  0
 74 82  1  0  0  0
 74149  1  0  0  0
 74150  1  0  0  0
 75 77  1  0  0  0
 75 83  1  0  0  0
 75151  1  0  0  0
 75152  1  0  0  0
 76 77  1  0  0  0
 76 83  1  0  0  0
 76153  1  0  0  0
 76154  1  0  0  0
 77 78  1  0  0  0
 77155  1  0  0  0
 78156  1  0  0  0
 78157  1  0  0  0
 78 82  1  0  0  0
 79 80  1  0  0  0
 79158  1  0  0  0
 79159  1  0  0  0
 79 83  1  0  0  0
 80160  1  0  0  0
 80161  1  0  0  0
 82162  1  0  0  0
 83163  1  0  0  0
M  CHG  2  82   1  83   1
M  ISO  4   1 100  68 101  80 101  81 100
M  END
> <chiral flag>
0

> <version>
0

> <s_m_source_file>
/data/baiqing/PycharmProjects/Reinvent-master-3.2/result/LINK_invent/BTK/process_docking_weight1_custom_sum_contain_oxygen_bond_distance_aromatic_linkinvent_7_9_3/rearranged_h_0198.sdf

> <i_m_source_file_index>
45

> <r_mmod_Potential_Energy-OPLS-2005>
-51.7092590332031

> <r_mmod_Stretch_Energy-OPLS-2005>
40.9114227294922

> <r_mmod_Bend_Energy-OPLS-2005>
111.270660400391

> <r_mmod_Torsional_Energy-OPLS-2005>
436.893890380859

> <r_mmod_Improper_Torsional_Energy-OPLS-2005>
12.3357028961182

> <r_mmod_Van_der_Waal_Energy-OPLS-2005>
129.956893920898

> <r_mmod_Electrostatic_Energy-OPLS-2005>
143.586288452148

> <r_mmod_Solvation_Energy-OPLS-2005>
-942.086303710938

> <b_mmod_Minimization_Converged-OPLS-2005>
0

> <r_mmod_RMS_Derivative-OPLS-2005>
2.0306384563446

$$$$
45
                    3D
 Structure written by MMmdl.
157166  0  0  1  0            999 V2000
  -30.6371  -14.6821   20.4737 C   0  0  0  0  0  0
  -30.4277  -12.4174   19.4614 C   0  0  0  0  0  0
  -29.5048  -12.5034   18.2268 C   0  0  0  0  0  0
  -28.0294  -12.3376   18.6402 C   0  0  0  0  0  0
  -27.6446  -13.2269   19.8529 C   0  0  2  0  0  0
  -28.6900  -13.1351   20.9861 C   0  0  0  0  0  0
  -25.2527  -13.8189   20.5692 C   0  0  0  0  0  0
  -24.1809  -13.0442   20.9204 C   0  0  0  0  0  0
  -24.6393  -11.6918   20.8748 C   0  0  0  0  0  0
  -23.9072  -10.4295   21.0410 C   0  0  0  0  0  0
  -24.3624   -9.4210   21.9184 C   0  0  0  0  0  0
  -23.6299   -8.2245   22.0753 C   0  0  0  0  0  0
  -22.4280   -8.0281   21.3546 C   0  0  0  0  0  0
  -21.9915   -9.0254   20.4646 C   0  0  0  0  0  0
  -22.7244  -10.2135   20.3056 C   0  0  0  0  0  0
  -21.6855   -6.0738   22.5281 C   0  0  0  0  0  0
  -21.4010   -6.5643   23.8212 C   0  0  0  0  0  0
  -21.3658   -5.6795   24.9173 C   0  0  0  0  0  0
  -21.6044   -4.3058   24.7224 C   0  0  0  0  0  0
  -21.8818   -3.8149   23.4346 C   0  0  0  0  0  0
  -21.9195   -4.6966   22.3403 C   0  0  0  0  0  0
  -22.7833  -13.5230   21.1864 C   0  0  0  0  0  0
  -22.1664   -4.2153   21.0980 F   0  0  0  0  0  0
  -21.5631   -3.4543   25.7737 F   0  0  0  0  0  0
  -29.9971  -13.4694   20.4069 N   0  0  0  0  0  0
  -26.2951  -12.9389   20.3291 N   0  0  0  0  0  0
  -25.9323  -11.6536   20.5753 N   0  0  0  0  0  0
  -22.0478  -12.8211   22.0417 N   0  0  0  0  0  0
  -25.4219  -15.1913   20.4096 N   0  0  0  0  0  0
  -31.8214  -14.7819   20.1437 O   0  0  0  0  0  0
  -21.6643   -6.8879   21.4242 O   0  0  0  0  0  0
  -22.3518  -14.5539   20.6719 O   0  0  0  0  0  0
  -24.6296  -31.8570   23.2000 C   0  0  0  0  0  0
  -25.9140  -32.4755   23.8335 C   0  0  1  0  0  0
  -27.2218  -27.2891   20.1078 C   0  0  0  0  0  0
  -25.5951  -33.8556   24.2268 N   0  0  0  0  0  0
  -23.4234  -30.4815   21.5434 C   0  0  2  0  0  0
  -24.8674  -28.9329   20.1076 C   0  0  0  0  0  0
  -22.7490  -29.4614   22.4922 C   0  0  0  0  0  0
  -18.0289  -28.1390   22.8485 C   0  0  0  0  0  0
  -24.1489  -36.7272   23.2636 C   0  0  0  0  0  0
  -25.9672  -30.7774   21.3749 C   0  0  0  0  0  0
  -26.0380  -29.4032   20.7145 C   0  0  0  0  0  0
  -27.2134  -28.5913   20.7080 C   0  0  0  0  0  0
  -26.0166  -26.8703   19.4970 C   0  0  0  0  0  0
  -24.8603  -27.6730   19.4924 C   0  0  0  0  0  0
  -23.6378  -29.8174   20.1582 C   0  0  0  0  0  0
  -25.4112  -36.3063   24.0333 C   0  0  1  0  0  0
  -20.5891  -28.3692   23.1278 C   0  0  2  0  0  0
  -20.6777  -26.9413   22.5410 C   0  0  0  0  0  0
  -19.5756  -26.6385   21.5211 C   0  0  0  0  0  0
  -18.1933  -26.7936   22.1616 C   0  0  0  0  0  0
  -19.1544  -28.8857   23.2877 C   0  0  0  0  0  0
  -18.9465  -30.1459   23.8895 C   0  0  0  0  0  0
  -17.6463  -30.6588   24.0564 C   0  0  0  0  0  0
  -25.9059  -34.9439   23.5099 C   0  0  0  0  0  0
  -16.5354  -29.9084   23.6336 C   0  0  0  0  0  0
  -16.7275  -28.6504   23.0355 C   0  0  0  0  0  0
  -26.4509  -31.6572   25.0715 C   0  0  0  0  0  0
  -25.3740  -31.3739   26.1446 C   0  0  0  0  0  0
  -27.0324  -30.2979   24.6187 C   0  0  0  0  0  0
  -27.6082  -32.4296   25.7476 C   0  0  0  0  0  0
  -27.5586  -37.1780   24.8455 C   0  0  0  0  0  0
  -21.4200  -29.3042   22.3668 N   0  0  0  0  0  0
  -26.4276  -37.3772   23.9430 N   0  0  0  0  0  0
  -24.6924  -31.0564   22.0957 N   0  0  0  0  0  0
  -23.4205  -28.8151   23.3009 O   0  0  0  0  0  0
  -28.3461  -26.4410   20.1877 O   0  0  0  0  0  0
  -26.5620  -34.8918   22.4661 O   0  0  0  0  0  0
  -23.5456  -32.1379   23.7320 O   0  0  0  0  0  0
  -30.0512  -22.1323   21.3327 C   0  0  0  0  0  0
  -29.7331  -23.4927   21.0240 C   0  0  0  0  0  0
  -28.7461  -23.7575   20.0384 C   0  0  0  0  0  0
  -29.4047  -21.0561   20.6594 C   0  0  0  0  0  0
  -30.8021  -17.7856   22.0072 C   0  0  0  0  0  0
  -30.7674  -19.3248   21.9001 C   0  0  0  0  0  0
  -29.3135  -18.4155   20.2364 C   0  0  0  0  0  0
  -30.3332  -17.2603   20.6443 C   0  0  2  0  0  0
  -28.4798  -25.1879   19.3911 C   0  0  0  0  0  0
  -30.4862  -24.6297   21.6929 C   0  0  0  0  0  0
  -28.1401  -22.6756   19.4437 N   0  0  0  0  0  0
  -28.4495  -21.3824   19.7402 N   0  0  0  0  0  0
  -29.7346  -19.6699   20.9266 N   0  0  0  0  0  0
  -29.8817  -15.8113   20.7061 N   0  0  0  0  0  0
  -31.4088  -25.1106   20.8605 F   0  0  0  0  0  0
  -31.0810  -24.2307   22.8181 F   0  0  0  0  0  0
  -31.4706  -12.5300   19.1603 H   0  0  0  0  0  0
  -30.3571  -11.4340   19.9292 H   0  0  0  0  0  0
  -29.7772  -11.7401   17.4965 H   0  0  0  0  0  0
  -29.6400  -13.4653   17.7295 H   0  0  0  0  0  0
  -27.8746  -11.2869   18.8879 H   0  0  0  0  0  0
  -27.3734  -12.5481   17.7944 H   0  0  0  0  0  0
  -27.6470  -14.2534   19.4859 H   0  0  0  0  0  0
  -28.7102  -12.1325   21.4151 H   0  0  0  0  0  0
  -28.4361  -13.8107   21.8042 H   0  0  0  0  0  0
  -25.2770   -9.5690   22.4760 H   0  0  0  0  0  0
  -24.0012   -7.4638   22.7469 H   0  0  0  0  0  0
  -21.0848   -8.8772   19.8950 H   0  0  0  0  0  0
  -22.3702  -10.9675   19.6165 H   0  0  0  0  0  0
  -21.1993   -7.6147   23.9716 H   0  0  0  0  0  0
  -21.1482   -6.0524   25.9076 H   0  0  0  0  0  0
  -22.0597   -2.7612   23.2845 H   0  0  0  0  0  0
  -22.4100  -11.9870   22.4794 H   0  0  0  0  0  0
  -21.1092  -13.1224   22.2620 H   0  0  0  0  0  0
  -24.6516  -15.8427   20.5139 H   0  0  0  0  0  0
  -26.2640  -15.6291   20.0597 H   0  0  0  0  0  0
  -26.7201  -32.5404   23.1073 H   0  0  0  0  0  0
  -25.0125  -33.9695   25.0433 H   0  0  0  0  0  0
  -22.7187  -31.3031   21.4005 H   0  0  0  0  0  0
  -23.3773  -35.9577   23.3244 H   0  0  0  0  0  0
  -24.3595  -36.8941   22.2061 H   0  0  0  0  0  0
  -23.7208  -37.6445   23.6688 H   0  0  0  0  0  0
  -26.1049  -31.5402   20.6071 H   0  0  0  0  0  0
  -26.8461  -30.8232   22.0063 H   0  0  0  0  0  0
  -28.1105  -28.9480   21.1944 H   0  0  0  0  0  0
  -25.9061  -25.8957   19.0503 H   0  0  0  0  0  0
  -23.9579  -27.3007   19.0263 H   0  0  0  0  0  0
  -23.7584  -30.5944   19.4024 H   0  0  0  0  0  0
  -22.7562  -29.2495   19.8552 H   0  0  0  0  0  0
  -25.1288  -36.1894   25.0822 H   0  0  0  0  0  0
  -20.9986  -28.3266   24.1399 H   0  0  0  0  0  0
  -20.5670  -26.2306   23.3613 H   0  0  0  0  0  0
  -21.6646  -26.7436   22.1205 H   0  0  0  0  0  0
  -19.6917  -25.6294   21.1246 H   0  0  0  0  0  0
  -19.6704  -27.3192   20.6741 H   0  0  0  0  0  0
  -17.4210  -26.6700   21.4007 H   0  0  0  0  0  0
  -18.0317  -26.0071   22.8999 H   0  0  0  0  0  0
  -19.7939  -30.7279   24.2267 H   0  0  0  0  0  0
  -17.5015  -31.6271   24.5156 H   0  0  0  0  0  0
  -15.5355  -30.2984   23.7666 H   0  0  0  0  0  0
  -15.8672  -28.0817   22.7078 H   0  0  0  0  0  0
  -24.5911  -30.7085   25.7787 H   0  0  0  0  0  0
  -24.8941  -32.2915   26.4860 H   0  0  0  0  0  0
  -25.8061  -30.8925   27.0227 H   0  0  0  0  0  0
  -26.2881  -29.6740   24.1222 H   0  0  0  0  0  0
  -27.4005  -29.7233   25.4698 H   0  0  0  0  0  0
  -27.8771  -30.4232   23.9409 H   0  0  0  0  0  0
  -27.2723  -33.3630   26.2004 H   0  0  0  0  0  0
  -28.3920  -32.6787   25.0310 H   0  0  0  0  0  0
  -28.0709  -31.8436   26.5426 H   0  0  0  0  0  0
  -28.2559  -38.0123   24.7560 H   0  0  0  0  0  0
  -28.1126  -36.2659   24.6186 H   0  0  0  0  0  0
  -27.2323  -37.1307   25.8860 H   0  0  0  0  0  0
  -20.9385  -29.8762   21.6871 H   0  0  0  0  0  0
  -26.0146  -38.2831   24.1476 H   0  0  0  0  0  0
  -30.8166  -21.9325   22.0657 H   0  0  0  0  0  0
  -30.1059  -17.4665   22.7841 H   0  0  0  0  0  0
  -31.7898  -17.4156   22.2854 H   0  0  0  0  0  0
  -31.7300  -19.6991   21.5475 H   0  0  0  0  0  0
  -30.5706  -19.7753   22.8743 H   0  0  0  0  0  0
  -28.3016  -18.1666   20.5585 H   0  0  0  0  0  0
  -29.2864  -18.5561   19.1546 H   0  0  0  0  0  0
  -31.1786  -17.3248   19.9556 H   0  0  0  0  0  0
  -27.7110  -25.0790   18.6321 H   0  0  0  0  0  0
  -29.3708  -25.3670   18.7894 H   0  0  0  0  0  0
  -29.8192  -25.4484   21.9671 H   0  0  0  0  0  0
  -28.9068  -15.6535   20.9113 H   0  0  0  0  0  0
  1 25  1  0  0  0
  1 30  2  0  0  0
  1 84  1  0  0  0
  2  3  1  0  0  0
  2 25  1  0  0  0
  2 87  1  0  0  0
  2 88  1  0  0  0
  3  4  1  0  0  0
  3 89  1  0  0  0
  3 90  1  0  0  0
  4  5  1  0  0  0
  4 91  1  0  0  0
  4 92  1  0  0  0
  5  6  1  0  0  0
  5 26  1  0  0  0
  5 93  1  0  0  0
  6 25  1  0  0  0
  6 94  1  0  0  0
  6 95  1  0  0  0
  7  8  2  0  0  0
  7 26  1  0  0  0
  7 29  1  0  0  0
  8  9  1  0  0  0
  8 22  1  0  0  0
  9 10  1  0  0  0
  9 27  2  0  0  0
 10 11  2  0  0  0
 10 15  1  0  0  0
 11 12  1  0  0  0
 11 96  1  0  0  0
 12 13  2  0  0  0
 12 97  1  0  0  0
 13 14  1  0  0  0
 13 31  1  0  0  0
 14 15  2  0  0  0
 14 98  1  0  0  0
 15 99  1  0  0  0
 16 17  2  0  0  0
 16 21  1  0  0  0
 16 31  1  0  0  0
 17 18  1  0  0  0
 17100  1  0  0  0
 18 19  2  0  0  0
 18101  1  0  0  0
 19 20  1  0  0  0
 19 24  1  0  0  0
 20 21  2  0  0  0
 20102  1  0  0  0
 21 23  1  0  0  0
 22 28  1  0  0  0
 22 32  2  0  0  0
 26 27  1  0  0  0
 28103  1  0  0  0
 28104  1  0  0  0
 29105  1  0  0  0
 29106  1  0  0  0
 33 34  1  0  0  0
 33 66  1  0  0  0
 33 70  2  0  0  0
 34 36  1  0  0  0
 34 59  1  0  0  0
 34107  1  0  0  0
 35 44  2  0  0  0
 35 45  1  0  0  0
 35 68  1  0  0  0
 36 56  1  0  0  0
 36108  1  0  0  0
 37 39  1  0  0  0
 37 47  1  0  0  0
 37 66  1  0  0  0
 37109  1  0  0  0
 38 43  2  0  0  0
 38 46  1  0  0  0
 38 47  1  0  0  0
 39 64  1  0  0  0
 39 67  2  0  0  0
 40 52  1  0  0  0
 40 53  2  0  0  0
 40 58  1  0  0  0
 41110  1  0  0  0
 41111  1  0  0  0
 41112  1  0  0  0
 41 48  1  0  0  0
 42 43  1  0  0  0
 42 66  1  0  0  0
 42113  1  0  0  0
 42114  1  0  0  0
 43 44  1  0  0  0
 44115  1  0  0  0
 45 46  2  0  0  0
 45116  1  0  0  0
 46117  1  0  0  0
 47118  1  0  0  0
 47119  1  0  0  0
 48 56  1  0  0  0
 48 65  1  0  0  0
 48120  1  0  0  0
 49 50  1  0  0  0
 49 53  1  0  0  0
 49 64  1  0  0  0
 49121  1  0  0  0
 50 51  1  0  0  0
 50122  1  0  0  0
 50123  1  0  0  0
 51 52  1  0  0  0
 51124  1  0  0  0
 51125  1  0  0  0
 52126  1  0  0  0
 52127  1  0  0  0
 53 54  1  0  0  0
 54 55  2  0  0  0
 54128  1  0  0  0
 55 57  1  0  0  0
 55129  1  0  0  0
 56 69  2  0  0  0
 57 58  2  0  0  0
 57130  1  0  0  0
 58131  1  0  0  0
 59 60  1  0  0  0
 59 61  1  0  0  0
 59 62  1  0  0  0
 60132  1  0  0  0
 60133  1  0  0  0
 60134  1  0  0  0
 61135  1  0  0  0
 61136  1  0  0  0
 61137  1  0  0  0
 62138  1  0  0  0
 62139  1  0  0  0
 62140  1  0  0  0
 63 65  1  0  0  0
 63141  1  0  0  0
 63142  1  0  0  0
 63143  1  0  0  0
 64144  1  0  0  0
 65145  1  0  0  0
 68 79  1  0  0  0
 71 72  2  0  0  0
 71 74  1  0  0  0
 71146  1  0  0  0
 72 73  1  0  0  0
 72 80  1  0  0  0
 73 79  1  0  0  0
 73 81  2  0  0  0
 74 82  2  0  0  0
 74 83  1  0  0  0
 75 76  1  0  0  0
 75 78  1  0  0  0
 75147  1  0  0  0
 75148  1  0  0  0
 76 83  1  0  0  0
 76149  1  0  0  0
 76150  1  0  0  0
 77 78  1  0  0  0
 77 83  1  0  0  0
 77151  1  0  0  0
 77152  1  0  0  0
 78 84  1  0  0  0
 78153  1  0  0  0
 79154  1  0  0  0
 79155  1  0  0  0
 80 85  1  0  0  0
 80 86  1  0  0  0
 80156  1  0  0  0
 81 82  1  0  0  0
 84157  1  0  0  0
M  ISO  4   1 100  68 101  79 101  84 100
M  END
> <chiral flag>
0

> <version>
0

> <s_m_source_file>
/data/baiqing/PycharmProjects/Reinvent-master-3.2/result/LINK_invent/BTK/process_docking_weight1_custom_sum_contain_oxygen_bond_distance_aromatic_linkinvent_7_9_3/rearranged_h_0198.sdf

> <i_m_source_file_index>
46

> <r_mmod_Potential_Energy-OPLS-2005>
129.355102539062

> <r_mmod_Stretch_Energy-OPLS-2005>
94.9451522827148

> <r_mmod_Bend_Energy-OPLS-2005>
209.379547119141

> <r_mmod_Torsional_Energy-OPLS-2005>
247.261184692383

> <r_mmod_Improper_Torsional_Energy-OPLS-2005>
6.23502588272095

> <r_mmod_Van_der_Waal_Energy-OPLS-2005>
143.774185180664

> <r_mmod_Electrostatic_Energy-OPLS-2005>
-391.831665039062

> <r_mmod_Solvation_Energy-OPLS-2005>
-244.261245727539

> <b_mmod_Minimization_Converged-OPLS-2005>
0

> <r_mmod_RMS_Derivative-OPLS-2005>
0.708426237106323

$$$$
46
                    3D
 Structure written by MMmdl.
160170  0  0  1  0            999 V2000
  -30.6964  -14.5501   20.4130 C   0  0  0  0  0  0
  -30.4247  -12.3075   19.4558 C   0  0  0  0  0  0
  -29.5039  -12.4135   18.2221 C   0  0  0  0  0  0
  -28.0222  -12.3074   18.6297 C   0  0  0  0  0  0
  -27.6485  -13.1987   19.8464 C   0  0  2  0  0  0
  -28.7008  -13.1133   20.9762 C   0  0  0  0  0  0
  -25.2598  -13.8153   20.5733 C   0  0  0  0  0  0
  -24.1825  -13.0425   20.9192 C   0  0  0  0  0  0
  -24.6374  -11.6900   20.8741 C   0  0  0  0  0  0
  -23.9046  -10.4292   21.0396 C   0  0  0  0  0  0
  -24.3601   -9.4219   21.9182 C   0  0  0  0  0  0
  -23.6286   -8.2251   22.0765 C   0  0  0  0  0  0
  -22.4270   -8.0274   21.3548 C   0  0  0  0  0  0
  -21.9889   -9.0257   20.4656 C   0  0  0  0  0  0
  -22.7208  -10.2146   20.3048 C   0  0  0  0  0  0
  -21.6855   -6.0730   22.5270 C   0  0  0  0  0  0
  -21.4027   -6.5633   23.8206 C   0  0  0  0  0  0
  -21.3654   -5.6785   24.9167 C   0  0  0  0  0  0
  -21.6037   -4.3047   24.7219 C   0  0  0  0  0  0
  -21.8816   -3.8143   23.4339 C   0  0  0  0  0  0
  -21.9209   -4.6964   22.3399 C   0  0  0  0  0  0
  -22.7847  -13.5271   21.1826 C   0  0  0  0  0  0
  -22.1652   -4.2138   21.0977 F   0  0  0  0  0  0
  -21.5639   -3.4530   25.7739 F   0  0  0  0  0  0
  -30.0201  -13.3703   20.3845 N   0  0  0  0  0  0
  -26.2972  -12.9276   20.3289 N   0  0  0  0  0  0
  -25.9286  -11.6461   20.5760 N   0  0  0  0  0  0
  -22.0445  -12.8301   22.0379 N   0  0  0  0  0  0
  -25.4372  -15.1859   20.4255 N   0  0  0  0  0  0
  -31.9181  -14.6010   20.2554 O   0  0  0  0  0  0
  -21.6629   -6.8866   21.4231 O   0  0  0  0  0  0
  -22.3552  -14.5570   20.6638 O   0  0  0  0  0  0
  -24.6119  -31.8671   23.2122 C   0  0  0  0  0  0
  -25.9033  -32.4800   23.8389 C   0  0  1  0  0  0
  -27.2274  -27.4327   20.1124 C   0  0  0  0  0  0
  -25.5917  -33.8604   24.2336 N   0  0  0  0  0  0
  -23.3987  -30.4899   21.5532 C   0  0  2  0  0  0
  -24.8444  -28.9574   20.1187 C   0  0  0  0  0  0
  -22.7379  -29.4642   22.5009 C   0  0  0  0  0  0
  -18.0254  -28.1346   22.8479 C   0  0  0  0  0  0
  -24.1496  -36.7297   23.2636 C   0  0  0  0  0  0
  -25.9264  -30.8352   21.3643 C   0  0  0  0  0  0
  -26.0050  -29.4693   20.7134 C   0  0  0  0  0  0
  -27.2040  -28.7182   20.7003 C   0  0  0  0  0  0
  -26.0504  -26.9358   19.5099 C   0  0  0  0  0  0
  -24.8630  -27.6902   19.5125 C   0  0  0  0  0  0
  -23.6049  -29.8233   20.1658 C   0  0  0  0  0  0
  -25.4116  -36.3098   24.0337 C   0  0  1  0  0  0
  -20.5849  -28.3641   23.1313 C   0  0  2  0  0  0
  -20.6735  -26.9381   22.5399 C   0  0  0  0  0  0
  -19.5723  -26.6385   21.5181 C   0  0  0  0  0  0
  -18.1903  -26.7900   22.1602 C   0  0  0  0  0  0
  -19.1501  -28.8818   23.2886 C   0  0  0  0  0  0
  -18.9441  -30.1434   23.8896 C   0  0  0  0  0  0
  -17.6443  -30.6568   24.0565 C   0  0  0  0  0  0
  -25.9044  -34.9457   23.5122 C   0  0  0  0  0  0
  -16.5325  -29.9071   23.6330 C   0  0  0  0  0  0
  -16.7245  -28.6477   23.0357 C   0  0  0  0  0  0
  -26.4474  -31.6572   25.0697 C   0  0  0  0  0  0
  -25.3777  -31.3658   26.1474 C   0  0  0  0  0  0
  -27.0276  -30.3016   24.6057 C   0  0  0  0  0  0
  -27.6040  -32.4290   25.7451 C   0  0  0  0  0  0
  -27.5581  -37.1802   24.8470 C   0  0  0  0  0  0
  -21.4110  -29.3011   22.3731 N   0  0  0  0  0  0
  -26.4303  -37.3792   23.9416 N   0  0  0  0  0  0
  -24.6634  -31.0798   22.1005 N   0  0  0  0  0  0
  -23.4146  -28.8178   23.3053 O   0  0  0  0  0  0
  -28.3944  -26.7022   20.0726 O   0  0  0  0  0  0
  -26.5579  -34.8886   22.4673 O   0  0  0  0  0  0
  -23.5328  -32.1420   23.7546 O   0  0  0  0  0  0
  -28.0171  -18.9553   20.5876 C   0  0  0  0  0  0
  -28.0519  -20.3579   20.4464 C   0  0  0  0  0  0
  -30.3752  -18.9222   20.1290 C   0  0  0  0  0  0
  -29.1826  -18.1885   20.3564 C   0  0  0  0  0  0
  -29.2610  -20.9824   20.0863 C   0  0  0  0  0  0
  -28.9034  -16.6822   18.6655 C   0  0  0  0  0  0
  -30.2978  -16.1256   18.5248 C   0  0  0  0  0  0
  -29.7108  -24.7024   20.6175 C   0  0  0  0  0  0
  -27.7118  -24.2561   20.3304 C   0  0  0  0  0  0
  -29.0307  -16.6339   20.2344 C   0  0  2  0  0  0
  -28.4285  -25.5028   20.8661 C   0  0  2  0  0  0
  -29.2994  -22.4398   19.6017 C   0  0  0  0  0  0
  -30.4114  -20.2719   19.9902 N   0  0  0  0  0  0
  -30.0006  -15.5565   19.8222 N   0  0  0  0  0  0
  -28.9173  -23.4639   20.6161 N   0  3  1  0  0  0
  -31.4695  -12.3950   19.1503 H   0  0  0  0  0  0
  -30.3318  -11.3315   19.9338 H   0  0  0  0  0  0
  -29.7535  -11.6227   17.5121 H   0  0  0  0  0  0
  -29.6752  -13.3494   17.6956 H   0  0  0  0  0  0
  -27.8308  -11.2614   18.8711 H   0  0  0  0  0  0
  -27.3865  -12.5390   17.7756 H   0  0  0  0  0  0
  -27.6453  -14.2183   19.4787 H   0  0  0  0  0  0
  -28.6828  -12.1338   21.4550 H   0  0  0  0  0  0
  -28.4768  -13.8472   21.7534 H   0  0  0  0  0  0
  -25.2736   -9.5722   22.4744 H   0  0  0  0  0  0
  -24.0000   -7.4664   22.7496 H   0  0  0  0  0  0
  -21.0807   -8.8766   19.8972 H   0  0  0  0  0  0
  -22.3645  -10.9681   19.6158 H   0  0  0  0  0  0
  -21.1994   -7.6137   23.9707 H   0  0  0  0  0  0
  -21.1476   -6.0511   25.9076 H   0  0  0  0  0  0
  -22.0605   -2.7601   23.2837 H   0  0  0  0  0  0
  -22.4016  -11.9996   22.4848 H   0  0  0  0  0  0
  -21.1067  -13.1379   22.2501 H   0  0  0  0  0  0
  -24.6905  -15.8537   20.5849 H   0  0  0  0  0  0
  -26.3115  -15.6214   20.1639 H   0  0  0  0  0  0
  -26.7083  -32.5529   23.1128 H   0  0  0  0  0  0
  -25.0096  -33.9784   25.0497 H   0  0  0  0  0  0
  -22.6877  -31.3075   21.4151 H   0  0  0  0  0  0
  -23.3743  -35.9653   23.3329 H   0  0  0  0  0  0
  -24.3596  -36.8888   22.2052 H   0  0  0  0  0  0
  -23.7242  -37.6503   23.6620 H   0  0  0  0  0  0
  -26.0387  -31.6012   20.5966 H   0  0  0  0  0  0
  -26.8115  -30.8868   21.9843 H   0  0  0  0  0  0
  -28.1040  -29.1162   21.1499 H   0  0  0  0  0  0
  -26.0375  -25.9740   19.0209 H   0  0  0  0  0  0
  -23.9747  -27.2964   19.0402 H   0  0  0  0  0  0
  -23.7035  -30.5966   19.4011 H   0  0  0  0  0  0
  -22.7307  -29.2361   19.8750 H   0  0  0  0  0  0
  -25.1287  -36.1964   25.0829 H   0  0  0  0  0  0
  -20.9928  -28.3177   24.1444 H   0  0  0  0  0  0
  -20.5622  -26.2226   23.3563 H   0  0  0  0  0  0
  -21.6612  -26.7406   22.1228 H   0  0  0  0  0  0
  -19.6886  -25.6310   21.1195 H   0  0  0  0  0  0
  -19.6701  -27.3186   20.6718 H   0  0  0  0  0  0
  -17.4182  -26.6651   21.3999 H   0  0  0  0  0  0
  -18.0348  -26.0014   22.8988 H   0  0  0  0  0  0
  -19.7904  -30.7242   24.2271 H   0  0  0  0  0  0
  -17.4988  -31.6255   24.5137 H   0  0  0  0  0  0
  -15.5319  -30.2975   23.7662 H   0  0  0  0  0  0
  -15.8635  -28.0792   22.7108 H   0  0  0  0  0  0
  -24.5974  -30.6959   25.7848 H   0  0  0  0  0  0
  -24.8922  -32.2793   26.4926 H   0  0  0  0  0  0
  -25.8192  -30.8853   27.0227 H   0  0  0  0  0  0
  -26.2780  -29.6788   24.1160 H   0  0  0  0  0  0
  -27.4087  -29.7247   25.4502 H   0  0  0  0  0  0
  -27.8622  -30.4319   23.9156 H   0  0  0  0  0  0
  -27.2659  -33.3605   26.2023 H   0  0  0  0  0  0
  -28.3855  -32.6857   25.0271 H   0  0  0  0  0  0
  -28.0702  -31.8412   26.5381 H   0  0  0  0  0  0
  -28.2607  -38.0084   24.7511 H   0  0  0  0  0  0
  -28.1058  -36.2622   24.6317 H   0  0  0  0  0  0
  -27.2296  -37.1487   25.8868 H   0  0  0  0  0  0
  -20.9250  -29.8739   21.6963 H   0  0  0  0  0  0
  -26.0179  -38.2865   24.1432 H   0  0  0  0  0  0
  -27.0756  -18.4670   20.7885 H   0  0  0  0  0  0
  -27.1371  -20.9251   20.5267 H   0  0  0  0  0  0
  -31.3197  -18.4232   19.9744 H   0  0  0  0  0  0
  -28.1467  -15.9960   18.2816 H   0  0  0  0  0  0
  -28.7646  -17.6358   18.1478 H   0  0  0  0  0  0
  -31.1129  -16.8478   18.5139 H   0  0  0  0  0  0
  -30.4059  -15.4068   17.7149 H   0  0  0  0  0  0
  -30.1628  -24.9315   19.6497 H   0  0  0  0  0  0
  -30.4474  -24.7561   21.4202 H   0  0  0  0  0  0
  -27.4840  -24.3242   19.2656 H   0  0  0  0  0  0
  -26.8402  -23.9447   20.9140 H   0  0  0  0  0  0
  -29.7314  -16.8306   21.0505 H   0  0  0  0  0  0
  -28.2441  -25.6791   21.9269 H   0  0  0  0  0  0
  -28.6501  -22.5099   18.7285 H   0  0  0  0  0  0
  -30.3006  -22.6549   19.2292 H   0  0  0  0  0  0
  -28.8883  -23.0579   21.5382 H   0  0  0  0  0  0
  1 25  1  0  0  0
  1 30  2  0  0  0
  1 84  1  0  0  0
  2  3  1  0  0  0
  2 25  1  0  0  0
  2 86  1  0  0  0
  2 87  1  0  0  0
  3  4  1  0  0  0
  3 88  1  0  0  0
  3 89  1  0  0  0
  4  5  1  0  0  0
  4 90  1  0  0  0
  4 91  1  0  0  0
  5  6  1  0  0  0
  5 26  1  0  0  0
  5 92  1  0  0  0
  6 25  1  0  0  0
  6 93  1  0  0  0
  6 94  1  0  0  0
  7  8  2  0  0  0
  7 26  1  0  0  0
  7 29  1  0  0  0
  8  9  1  0  0  0
  8 22  1  0  0  0
  9 10  1  0  0  0
  9 27  2  0  0  0
 10 11  2  0  0  0
 10 15  1  0  0  0
 11 12  1  0  0  0
 11 95  1  0  0  0
 12 13  2  0  0  0
 12 96  1  0  0  0
 13 14  1  0  0  0
 13 31  1  0  0  0
 14 15  2  0  0  0
 14 97  1  0  0  0
 15 98  1  0  0  0
 16 17  2  0  0  0
 16 21  1  0  0  0
 16 31  1  0  0  0
 17 18  1  0  0  0
 17 99  1  0  0  0
 18 19  2  0  0  0
 18100  1  0  0  0
 19 20  1  0  0  0
 19 24  1  0  0  0
 20 21  2  0  0  0
 20101  1  0  0  0
 21 23  1  0  0  0
 22 28  1  0  0  0
 22 32  2  0  0  0
 26 27  1  0  0  0
 28102  1  0  0  0
 28103  1  0  0  0
 29104  1  0  0  0
 29105  1  0  0  0
 33 34  1  0  0  0
 33 66  1  0  0  0
 33 70  2  0  0  0
 34 36  1  0  0  0
 34 59  1  0  0  0
 34106  1  0  0  0
 35 44  2  0  0  0
 35 45  1  0  0  0
 35 68  1  0  0  0
 36 56  1  0  0  0
 36107  1  0  0  0
 37 39  1  0  0  0
 37 47  1  0  0  0
 37 66  1  0  0  0
 37108  1  0  0  0
 38 43  2  0  0  0
 38 46  1  0  0  0
 38 47  1  0  0  0
 39 64  1  0  0  0
 39 67  2  0  0  0
 40 52  1  0  0  0
 40 53  2  0  0  0
 40 58  1  0  0  0
 41109  1  0  0  0
 41110  1  0  0  0
 41111  1  0  0  0
 41 48  1  0  0  0
 42 43  1  0  0  0
 42 66  1  0  0  0
 42112  1  0  0  0
 42113  1  0  0  0
 43 44  1  0  0  0
 44114  1  0  0  0
 45 46  2  0  0  0
 45115  1  0  0  0
 46116  1  0  0  0
 47117  1  0  0  0
 47118  1  0  0  0
 48 56  1  0  0  0
 48 65  1  0  0  0
 48119  1  0  0  0
 49 50  1  0  0  0
 49 53  1  0  0  0
 49 64  1  0  0  0
 49120  1  0  0  0
 50 51  1  0  0  0
 50121  1  0  0  0
 50122  1  0  0  0
 51 52  1  0  0  0
 51123  1  0  0  0
 51124  1  0  0  0
 52125  1  0  0  0
 52126  1  0  0  0
 53 54  1  0  0  0
 54 55  2  0  0  0
 54127  1  0  0  0
 55 57  1  0  0  0
 55128  1  0  0  0
 56 69  2  0  0  0
 57 58  2  0  0  0
 57129  1  0  0  0
 58130  1  0  0  0
 59 60  1  0  0  0
 59 61  1  0  0  0
 59 62  1  0  0  0
 60131  1  0  0  0
 60132  1  0  0  0
 60133  1  0  0  0
 61134  1  0  0  0
 61135  1  0  0  0
 61136  1  0  0  0
 62137  1  0  0  0
 62138  1  0  0  0
 62139  1  0  0  0
 63 65  1  0  0  0
 63140  1  0  0  0
 63141  1  0  0  0
 63142  1  0  0  0
 64143  1  0  0  0
 65144  1  0  0  0
 68 81  1  0  0  0
 71 72  2  0  0  0
 71 74  1  0  0  0
 71145  1  0  0  0
 72 75  1  0  0  0
 72146  1  0  0  0
 73 74  2  0  0  0
 73 83  1  0  0  0
 73147  1  0  0  0
 74 80  1  0  0  0
 75 82  1  0  0  0
 75 83  2  0  0  0
 76 77  1  0  0  0
 76 80  1  0  0  0
 76148  1  0  0  0
 76149  1  0  0  0
 77 84  1  0  0  0
 77150  1  0  0  0
 77151  1  0  0  0
 78 81  1  0  0  0
 78 85  1  0  0  0
 78152  1  0  0  0
 78153  1  0  0  0
 79 81  1  0  0  0
 79 85  1  0  0  0
 79154  1  0  0  0
 79155  1  0  0  0
 80 84  1  0  0  0
 80156  1  0  0  0
 81157  1  0  0  0
 82158  1  0  0  0
 82159  1  0  0  0
 82 85  1  0  0  0
 85160  1  0  0  0
M  CHG  1  85   1
M  ISO  4   1 100  68 101  81 101  84 100
M  END
> <chiral flag>
0

> <version>
0

> <s_m_source_file>
/data/baiqing/PycharmProjects/Reinvent-master-3.2/result/LINK_invent/BTK/process_docking_weight1_custom_sum_contain_oxygen_bond_distance_aromatic_linkinvent_7_9_3/rearranged_h_0198.sdf

> <i_m_source_file_index>
47

> <r_mmod_Potential_Energy-OPLS-2005>
119.687652587891

> <r_mmod_Stretch_Energy-OPLS-2005>
48.7923774719238

> <r_mmod_Bend_Energy-OPLS-2005>
387.727935791016

> <r_mmod_Torsional_Energy-OPLS-2005>
343.383697509766

> <r_mmod_Improper_Torsional_Energy-OPLS-2005>
33.1296539306641

> <r_mmod_Van_der_Waal_Energy-OPLS-2005>
157.882339477539

> <r_mmod_Electrostatic_Energy-OPLS-2005>
-409.727691650391

> <r_mmod_Solvation_Energy-OPLS-2005>
-474.977996826172

> <b_mmod_Minimization_Converged-OPLS-2005>
0

> <r_mmod_RMS_Derivative-OPLS-2005>
4.14137268066406

$$$$
47
                    3D
 Structure written by MMmdl.
162171  0  0  1  0            999 V2000
  -30.6619  -14.6187   20.4526 C   0  0  0  0  0  0
  -30.4141  -12.3658   19.4604 C   0  0  0  0  0  0
  -29.4997  -12.4871   18.2234 C   0  0  0  0  0  0
  -28.0202  -12.3464   18.6331 C   0  0  0  0  0  0
  -27.6409  -13.2279   19.8555 C   0  0  2  0  0  0
  -28.6867  -13.1268   20.9870 C   0  0  0  0  0  0
  -25.2490  -13.8187   20.5712 C   0  0  0  0  0  0
  -24.1786  -13.0431   20.9177 C   0  0  0  0  0  0
  -24.6374  -11.6907   20.8750 C   0  0  0  0  0  0
  -23.9072  -10.4286   21.0417 C   0  0  0  0  0  0
  -24.3606   -9.4205   21.9195 C   0  0  0  0  0  0
  -23.6255   -8.2259   22.0773 C   0  0  0  0  0  0
  -22.4254   -8.0278   21.3554 C   0  0  0  0  0  0
  -21.9908   -9.0265   20.4665 C   0  0  0  0  0  0
  -22.7244  -10.2128   20.3065 C   0  0  0  0  0  0
  -21.6854   -6.0721   22.5285 C   0  0  0  0  0  0
  -21.4012   -6.5644   23.8214 C   0  0  0  0  0  0
  -21.3643   -5.6806   24.9176 C   0  0  0  0  0  0
  -21.6032   -4.3063   24.7244 C   0  0  0  0  0  0
  -21.8808   -3.8137   23.4374 C   0  0  0  0  0  0
  -21.9198   -4.6946   22.3415 C   0  0  0  0  0  0
  -22.7809  -13.5199   21.1856 C   0  0  0  0  0  0
  -22.1666   -4.2125   21.0984 F   0  0  0  0  0  0
  -21.5612   -3.4563   25.7771 F   0  0  0  0  0  0
  -29.9965  -13.4247   20.3979 N   0  0  0  0  0  0
  -26.2922  -12.9413   20.3297 N   0  0  0  0  0  0
  -25.9309  -11.6561   20.5765 N   0  0  0  0  0  0
  -22.0448  -12.8219   22.0402 N   0  0  0  0  0  0
  -25.4167  -15.1933   20.4207 N   0  0  0  0  0  0
  -31.8674  -14.6861   20.1940 O   0  0  0  0  0  0
  -21.6632   -6.8862   21.4245 O   0  0  0  0  0  0
  -22.3522  -14.5526   20.6710 O   0  0  0  0  0  0
  -24.6254  -31.8607   23.2049 C   0  0  0  0  0  0
  -25.9108  -32.4774   23.8374 C   0  0  1  0  0  0
  -27.2197  -27.3524   20.1266 C   0  0  0  0  0  0
  -25.5953  -33.8583   24.2303 N   0  0  0  0  0  0
  -23.4150  -30.4880   21.5464 C   0  0  2  0  0  0
  -24.8590  -28.9467   20.1083 C   0  0  0  0  0  0
  -22.7468  -29.4651   22.4946 C   0  0  0  0  0  0
  -18.0284  -28.1390   22.8524 C   0  0  0  0  0  0
  -24.1473  -36.7283   23.2652 C   0  0  0  0  0  0
  -25.9507  -30.8070   21.3663 C   0  0  0  0  0  0
  -26.0255  -29.4376   20.7104 C   0  0  0  0  0  0
  -27.2120  -28.6538   20.7055 C   0  0  0  0  0  0
  -26.0357  -26.9028   19.5015 C   0  0  0  0  0  0
  -24.8648  -27.6837   19.4941 C   0  0  0  0  0  0
  -23.6233  -29.8225   20.1611 C   0  0  0  0  0  0
  -25.4106  -36.3084   24.0326 C   0  0  1  0  0  0
  -20.5891  -28.3703   23.1298 C   0  0  2  0  0  0
  -20.6774  -26.9432   22.5421 C   0  0  0  0  0  0
  -19.5728  -26.6396   21.5249 C   0  0  0  0  0  0
  -18.1904  -26.7945   22.1642 C   0  0  0  0  0  0
  -19.1540  -28.8867   23.2901 C   0  0  0  0  0  0
  -18.9456  -30.1479   23.8904 C   0  0  0  0  0  0
  -17.6451  -30.6600   24.0597 C   0  0  0  0  0  0
  -25.9039  -34.9457   23.5102 C   0  0  0  0  0  0
  -16.5341  -29.9093   23.6361 C   0  0  0  0  0  0
  -16.7270  -28.6511   23.0396 C   0  0  0  0  0  0
  -26.4507  -31.6586   25.0742 C   0  0  0  0  0  0
  -25.3715  -31.3633   26.1438 C   0  0  0  0  0  0
  -27.0449  -30.3060   24.6179 C   0  0  0  0  0  0
  -27.6073  -32.4352   25.7516 C   0  0  0  0  0  0
  -27.5564  -37.1783   24.8485 C   0  0  0  0  0  0
  -21.4186  -29.3048   22.3687 N   0  0  0  0  0  0
  -26.4290  -37.3775   23.9406 N   0  0  0  0  0  0
  -24.6829  -31.0678   22.0961 N   0  0  0  0  0  0
  -23.4220  -28.8204   23.3013 O   0  0  0  0  0  0
  -28.3448  -26.5302   20.1495 O   0  0  0  0  0  0
  -26.5598  -34.8934   22.4659 O   0  0  0  0  0  0
  -23.5423  -32.1403   23.7387 O   0  0  0  0  0  0
  -27.0235  -19.9222   19.0589 C   0  0  0  0  0  0
  -27.0182  -21.4447   19.0226 C   0  0  0  0  0  0
  -30.1391  -16.8065   21.4712 C   0  0  0  0  0  0
  -29.8915  -16.4903   19.1364 C   0  0  0  0  0  0
  -29.2097  -18.0729   21.3778 C   0  0  0  0  0  0
  -28.9424  -17.7292   19.0697 C   0  0  0  0  0  0
  -28.2365  -19.9506   20.0361 C   0  0  2  0  0  0
  -28.4855  -21.4372   19.4972 C   0  0  2  0  0  0
  -28.7948  -23.9796   19.8339 C   0  0  0  0  0  0
  -28.1725  -25.1649   20.6761 C   0  0  0  0  0  0
  -29.9065  -15.7731   20.4337 N   0  0  0  0  0  0
  -29.2269  -18.7768   20.0750 N   0  0  0  0  0  0
  -28.7247  -22.5898   20.4531 N   0  3  0  0  0  0
  -31.4622  -12.4514   19.1673 H   0  0  0  0  0  0
  -30.3097  -11.3825   19.9218 H   0  0  0  0  0  0
  -29.7575  -11.7334   17.4789 H   0  0  0  0  0  0
  -29.6573  -13.4506   17.7384 H   0  0  0  0  0  0
  -27.8400  -11.2971   18.8619 H   0  0  0  0  0  0
  -27.3749  -12.5834   17.7879 H   0  0  0  0  0  0
  -27.6476  -14.2579   19.4999 H   0  0  0  0  0  0
  -28.6839  -12.1330   21.4387 H   0  0  0  0  0  0
  -28.4580  -13.8355   21.7844 H   0  0  0  0  0  0
  -25.2741   -9.5687   22.4780 H   0  0  0  0  0  0
  -23.9948   -7.4671   22.7524 H   0  0  0  0  0  0
  -21.0837   -8.8782   19.8997 H   0  0  0  0  0  0
  -22.3683  -10.9664   19.6182 H   0  0  0  0  0  0
  -21.2005   -7.6154   23.9699 H   0  0  0  0  0  0
  -21.1466   -6.0547   25.9070 H   0  0  0  0  0  0
  -22.0596   -2.7603   23.2897 H   0  0  0  0  0  0
  -22.4078  -11.9865   22.4761 H   0  0  0  0  0  0
  -21.1081  -13.1274   22.2643 H   0  0  0  0  0  0
  -24.6452  -15.8383   20.5450 H   0  0  0  0  0  0
  -26.2776  -15.6513   20.1539 H   0  0  0  0  0  0
  -26.7195  -32.5472   23.1159 H   0  0  0  0  0  0
  -25.0202  -33.9718   25.0524 H   0  0  0  0  0  0
  -22.7067  -31.3078   21.4086 H   0  0  0  0  0  0
  -23.3750  -35.9600   23.3333 H   0  0  0  0  0  0
  -24.3550  -36.8909   22.2068 H   0  0  0  0  0  0
  -23.7228  -37.6472   23.6691 H   0  0  0  0  0  0
  -26.0686  -31.5682   20.5942 H   0  0  0  0  0  0
  -26.8361  -30.8614   21.9856 H   0  0  0  0  0  0
  -28.1102  -29.0275   21.1770 H   0  0  0  0  0  0
  -26.0111  -25.9366   19.0174 H   0  0  0  0  0  0
  -23.9723  -27.3033   19.0183 H   0  0  0  0  0  0
  -23.7296  -30.5978   19.4014 H   0  0  0  0  0  0
  -22.7428  -29.2458   19.8714 H   0  0  0  0  0  0
  -25.1293  -36.1933   25.0820 H   0  0  0  0  0  0
  -20.9984  -28.3279   24.1416 H   0  0  0  0  0  0
  -20.5727  -26.2310   23.3609 H   0  0  0  0  0  0
  -21.6627  -26.7478   22.1182 H   0  0  0  0  0  0
  -19.6879  -25.6316   21.1260 H   0  0  0  0  0  0
  -19.6664  -27.3219   20.6784 H   0  0  0  0  0  0
  -17.4203  -26.6792   21.4004 H   0  0  0  0  0  0
  -18.0226  -26.0072   22.8992 H   0  0  0  0  0  0
  -19.7933  -30.7319   24.2254 H   0  0  0  0  0  0
  -17.5009  -31.6275   24.5207 H   0  0  0  0  0  0
  -15.5343  -30.3003   23.7682 H   0  0  0  0  0  0
  -15.8678  -28.0830   22.7107 H   0  0  0  0  0  0
  -24.6002  -30.6883   25.7722 H   0  0  0  0  0  0
  -24.8750  -32.2725   26.4821 H   0  0  0  0  0  0
  -25.8030  -30.8865   27.0245 H   0  0  0  0  0  0
  -26.3026  -29.6655   24.1407 H   0  0  0  0  0  0
  -27.4442  -29.7482   25.4654 H   0  0  0  0  0  0
  -27.8737  -30.4447   23.9241 H   0  0  0  0  0  0
  -27.2751  -33.3748   26.1955 H   0  0  0  0  0  0
  -28.3951  -32.6736   25.0352 H   0  0  0  0  0  0
  -28.0665  -31.8551   26.5528 H   0  0  0  0  0  0
  -28.2590  -38.0081   24.7570 H   0  0  0  0  0  0
  -28.1068  -36.2603   24.6315 H   0  0  0  0  0  0
  -27.2266  -37.1465   25.8891 H   0  0  0  0  0  0
  -20.9345  -29.8793   21.6924 H   0  0  0  0  0  0
  -26.0166  -38.2841   24.1439 H   0  0  0  0  0  0
  -27.2169  -19.5293   18.0597 H   0  0  0  0  0  0
  -26.1063  -19.4917   19.4667 H   0  0  0  0  0  0
  -26.3122  -21.8584   19.7474 H   0  0  0  0  0  0
  -26.8528  -21.8755   18.0331 H   0  0  0  0  0  0
  -29.9972  -16.3493   22.4532 H   0  0  0  0  0  0
  -31.1885  -17.1148   21.4464 H   0  0  0  0  0  0
  -30.9068  -16.7984   18.8742 H   0  0  0  0  0  0
  -29.5828  -15.7914   18.3562 H   0  0  0  0  0  0
  -29.5181  -18.7777   22.1534 H   0  0  0  0  0  0
  -28.1873  -17.7802   21.6237 H   0  0  0  0  0  0
  -27.9102  -17.3833   19.1621 H   0  0  0  0  0  0
  -29.0347  -18.1684   18.0734 H   0  0  0  0  0  0
  -27.8315  -20.0375   21.0467 H   0  0  0  0  0  0
  -29.1825  -21.4503   18.6552 H   0  0  0  0  0  0
  -29.8456  -24.1995   19.6396 H   0  0  0  0  0  0
  -28.3066  -23.9651   18.8612 H   0  0  0  0  0  0
  -28.6182  -25.1660   21.6720 H   0  0  0  0  0  0
  -27.1196  -24.9403   20.8541 H   0  0  0  0  0  0
  -29.5882  -22.4291   20.9525 H   0  0  0  0  0  0
  -27.9975  -22.5814   21.1511 H   0  0  0  0  0  0
  1 25  1  0  0  0
  1 30  2  0  0  0
  1 81  1  0  0  0
  2  3  1  0  0  0
  2 25  1  0  0  0
  2 84  1  0  0  0
  2 85  1  0  0  0
  3  4  1  0  0  0
  3 86  1  0  0  0
  3 87  1  0  0  0
  4  5  1  0  0  0
  4 88  1  0  0  0
  4 89  1  0  0  0
  5  6  1  0  0  0
  5 26  1  0  0  0
  5 90  1  0  0  0
  6 25  1  0  0  0
  6 91  1  0  0  0
  6 92  1  0  0  0
  7  8  2  0  0  0
  7 26  1  0  0  0
  7 29  1  0  0  0
  8  9  1  0  0  0
  8 22  1  0  0  0
  9 10  1  0  0  0
  9 27  2  0  0  0
 10 11  2  0  0  0
 10 15  1  0  0  0
 11 12  1  0  0  0
 11 93  1  0  0  0
 12 13  2  0  0  0
 12 94  1  0  0  0
 13 14  1  0  0  0
 13 31  1  0  0  0
 14 15  2  0  0  0
 14 95  1  0  0  0
 15 96  1  0  0  0
 16 17  2  0  0  0
 16 21  1  0  0  0
 16 31  1  0  0  0
 17 18  1  0  0  0
 17 97  1  0  0  0
 18 19  2  0  0  0
 18 98  1  0  0  0
 19 20  1  0  0  0
 19 24  1  0  0  0
 20 21  2  0  0  0
 20 99  1  0  0  0
 21 23  1  0  0  0
 22 28  1  0  0  0
 22 32  2  0  0  0
 26 27  1  0  0  0
 28100  1  0  0  0
 28101  1  0  0  0
 29102  1  0  0  0
 29103  1  0  0  0
 33 34  1  0  0  0
 33 66  1  0  0  0
 33 70  2  0  0  0
 34 36  1  0  0  0
 34 59  1  0  0  0
 34104  1  0  0  0
 35 44  2  0  0  0
 35 45  1  0  0  0
 35 68  1  0  0  0
 36 56  1  0  0  0
 36105  1  0  0  0
 37 39  1  0  0  0
 37 47  1  0  0  0
 37 66  1  0  0  0
 37106  1  0  0  0
 38 43  2  0  0  0
 38 46  1  0  0  0
 38 47  1  0  0  0
 39 64  1  0  0  0
 39 67  2  0  0  0
 40 52  1  0  0  0
 40 53  2  0  0  0
 40 58  1  0  0  0
 41107  1  0  0  0
 41108  1  0  0  0
 41109  1  0  0  0
 41 48  1  0  0  0
 42 43  1  0  0  0
 42 66  1  0  0  0
 42110  1  0  0  0
 42111  1  0  0  0
 43 44  1  0  0  0
 44112  1  0  0  0
 45 46  2  0  0  0
 45113  1  0  0  0
 46114  1  0  0  0
 47115  1  0  0  0
 47116  1  0  0  0
 48 56  1  0  0  0
 48 65  1  0  0  0
 48117  1  0  0  0
 49 50  1  0  0  0
 49 53  1  0  0  0
 49 64  1  0  0  0
 49118  1  0  0  0
 50 51  1  0  0  0
 50119  1  0  0  0
 50120  1  0  0  0
 51 52  1  0  0  0
 51121  1  0  0  0
 51122  1  0  0  0
 52123  1  0  0  0
 52124  1  0  0  0
 53 54  1  0  0  0
 54 55  2  0  0  0
 54125  1  0  0  0
 55 57  1  0  0  0
 55126  1  0  0  0
 56 69  2  0  0  0
 57 58  2  0  0  0
 57127  1  0  0  0
 58128  1  0  0  0
 59 60  1  0  0  0
 59 61  1  0  0  0
 59 62  1  0  0  0
 60129  1  0  0  0
 60130  1  0  0  0
 60131  1  0  0  0
 61132  1  0  0  0
 61133  1  0  0  0
 61134  1  0  0  0
 62135  1  0  0  0
 62136  1  0  0  0
 62137  1  0  0  0
 63 65  1  0  0  0
 63138  1  0  0  0
 63139  1  0  0  0
 63140  1  0  0  0
 64141  1  0  0  0
 65142  1  0  0  0
 68 80  1  0  0  0
 71 72  1  0  0  0
 71 77  1  0  0  0
 71143  1  0  0  0
 71144  1  0  0  0
 72 78  1  0  0  0
 72145  1  0  0  0
 72146  1  0  0  0
 73 75  1  0  0  0
 73 81  1  0  0  0
 73147  1  0  0  0
 73148  1  0  0  0
 74 76  1  0  0  0
 74 81  1  0  0  0
 74149  1  0  0  0
 74150  1  0  0  0
 75151  1  0  0  0
 75152  1  0  0  0
 75 82  1  0  0  0
 76 82  1  0  0  0
 76153  1  0  0  0
 76154  1  0  0  0
 77 78  1  0  0  0
 77 82  1  0  0  0
 77155  1  0  0  0
 78 83  1  0  0  0
 78156  1  0  0  0
 79 80  1  0  0  0
 79 83  1  0  0  0
 79157  1  0  0  0
 79158  1  0  0  0
 80159  1  0  0  0
 80160  1  0  0  0
 83161  1  0  0  0
 83162  1  0  0  0
M  CHG  1  83   1
M  ISO  4   1 100  68 101  80 101  81 100
M  END
> <chiral flag>
0

> <version>
0

> <s_m_source_file>
/data/baiqing/PycharmProjects/Reinvent-master-3.2/result/LINK_invent/BTK/process_docking_weight1_custom_sum_contain_oxygen_bond_distance_aromatic_linkinvent_7_9_3/rearranged_h_0198.sdf

> <i_m_source_file_index>
48

> <r_mmod_Potential_Energy-OPLS-2005>
147.066909790039

> <r_mmod_Stretch_Energy-OPLS-2005>
78.7931289672852

> <r_mmod_Bend_Energy-OPLS-2005>
154.774047851562

> <r_mmod_Torsional_Energy-OPLS-2005>
408.989044189453

> <r_mmod_Improper_Torsional_Energy-OPLS-2005>
14.6006984710693

> <r_mmod_Van_der_Waal_Energy-OPLS-2005>
131.321594238281

> <r_mmod_Electrostatic_Energy-OPLS-2005>
-239.251770019531

> <r_mmod_Solvation_Energy-OPLS-2005>
-446.402191162109

> <b_mmod_Minimization_Converged-OPLS-2005>
0

> <r_mmod_RMS_Derivative-OPLS-2005>
4.48331117630005

$$$$
48
                    3D
 Structure written by MMmdl.
166176  0  0  1  0            999 V2000
  -30.7322  -14.4275   20.6463 C   0  0  0  0  0  0
  -30.4232  -12.3064   19.4201 C   0  0  0  0  0  0
  -29.4953  -12.5219   18.2078 C   0  0  0  0  0  0
  -28.0179  -12.3721   18.6213 C   0  0  0  0  0  0
  -27.6659  -13.2016   19.8838 C   0  0  2  0  0  0
  -28.7047  -12.9692   21.0049 C   0  0  0  0  0  0
  -25.2606  -13.8142   20.5689 C   0  0  0  0  0  0
  -24.1848  -13.0415   20.9181 C   0  0  0  0  0  0
  -24.6398  -11.6888   20.8733 C   0  0  0  0  0  0
  -23.9071  -10.4273   21.0414 C   0  0  0  0  0  0
  -24.3618   -9.4192   21.9190 C   0  0  0  0  0  0
  -23.6280   -8.2237   22.0761 C   0  0  0  0  0  0
  -22.4272   -8.0272   21.3551 C   0  0  0  0  0  0
  -21.9914   -9.0254   20.4659 C   0  0  0  0  0  0
  -22.7246  -10.2123   20.3063 C   0  0  0  0  0  0
  -21.6849   -6.0732   22.5275 C   0  0  0  0  0  0
  -21.4016   -6.5642   23.8210 C   0  0  0  0  0  0
  -21.3657   -5.6798   24.9167 C   0  0  0  0  0  0
  -21.6047   -4.3054   24.7223 C   0  0  0  0  0  0
  -21.8817   -3.8149   23.4349 C   0  0  0  0  0  0
  -21.9193   -4.6964   22.3403 C   0  0  0  0  0  0
  -22.7882  -13.5225   21.1839 C   0  0  0  0  0  0
  -22.1660   -4.2146   21.0978 F   0  0  0  0  0  0
  -21.5631   -3.4543   25.7736 F   0  0  0  0  0  0
  -30.0421  -13.2694   20.4640 N   0  0  0  0  0  0
  -26.3047  -12.9306   20.3409 N   0  0  0  0  0  0
  -25.9330  -11.6470   20.5783 N   0  0  0  0  0  0
  -22.0511  -12.8215   22.0389 N   0  0  0  0  0  0
  -25.4320  -15.1848   20.4072 N   0  0  0  0  0  0
  -31.8201  -14.6520   20.1053 O   0  0  0  0  0  0
  -21.6636   -6.8873   21.4236 O   0  0  0  0  0  0
  -22.3576  -14.5543   20.6695 O   0  0  0  0  0  0
  -24.6120  -31.8698   23.2092 C   0  0  0  0  0  0
  -25.9018  -32.4835   23.8404 C   0  0  1  0  0  0
  -27.2309  -27.4493   20.1086 C   0  0  0  0  0  0
  -25.5898  -33.8634   24.2340 N   0  0  0  0  0  0
  -23.3972  -30.4902   21.5518 C   0  0  2  0  0  0
  -24.8427  -28.9579   20.1111 C   0  0  0  0  0  0
  -22.7400  -29.4653   22.5029 C   0  0  0  0  0  0
  -18.0258  -28.1375   22.8468 C   0  0  0  0  0  0
  -24.1474  -36.7328   23.2645 C   0  0  0  0  0  0
  -25.9219  -30.8415   21.3563 C   0  0  0  0  0  0
  -25.9984  -29.4756   20.7076 C   0  0  0  0  0  0
  -27.1948  -28.7301   20.7000 C   0  0  0  0  0  0
  -26.0647  -26.9478   19.4863 C   0  0  0  0  0  0
  -24.8713  -27.6939   19.4959 C   0  0  0  0  0  0
  -23.5993  -29.8158   20.1667 C   0  0  0  0  0  0
  -25.4092  -36.3114   24.0339 C   0  0  1  0  0  0
  -20.5840  -28.3655   23.1339 C   0  0  2  0  0  0
  -20.6748  -26.9400   22.5426 C   0  0  0  0  0  0
  -19.5740  -26.6382   21.5206 C   0  0  0  0  0  0
  -18.1909  -26.7918   22.1600 C   0  0  0  0  0  0
  -19.1507  -28.8826   23.2883 C   0  0  0  0  0  0
  -18.9443  -30.1437   23.8879 C   0  0  0  0  0  0
  -17.6451  -30.6574   24.0570 C   0  0  0  0  0  0
  -25.9024  -34.9486   23.5129 C   0  0  0  0  0  0
  -16.5332  -29.9071   23.6353 C   0  0  0  0  0  0
  -16.7246  -28.6508   23.0336 C   0  0  0  0  0  0
  -26.4468  -31.6614   25.0726 C   0  0  0  0  0  0
  -25.3743  -31.3686   26.1482 C   0  0  0  0  0  0
  -27.0341  -30.3077   24.6088 C   0  0  0  0  0  0
  -27.6033  -32.4350   25.7482 C   0  0  0  0  0  0
  -27.5574  -37.1812   24.8463 C   0  0  0  0  0  0
  -21.4131  -29.3019   22.3767 N   0  0  0  0  0  0
  -26.4286  -37.3791   23.9411 N   0  0  0  0  0  0
  -24.6624  -31.0816   22.0977 N   0  0  0  0  0  0
  -23.4196  -28.8157   23.3025 O   0  0  0  0  0  0
  -28.4062  -26.7382   20.1667 O   0  0  0  0  0  0
  -26.5586  -34.8917   22.4689 O   0  0  0  0  0  0
  -23.5319  -32.1459   23.7495 O   0  0  0  0  0  0
  -28.0915  -21.2784   23.1630 C   0  0  0  0  0  0
  -30.2386  -21.9698   22.3112 C   0  0  0  0  0  0
  -27.6107  -22.5714   22.8704 C   0  0  0  0  0  0
  -29.4253  -20.9525   22.8463 C   0  0  0  0  0  0
  -28.4738  -23.4994   22.2408 C   0  0  0  0  0  0
  -26.1826  -22.9497   23.2526 C   0  0  0  0  0  0
  -29.4255  -16.4752   20.7540 C   0  0  0  0  0  0
  -30.8834  -16.3742   22.1902 C   0  0  0  0  0  0
  -26.4917  -25.1209   22.1876 C   0  0  0  0  0  0
  -28.0105  -24.9330   21.9090 C   0  0  2  0  0  0
  -29.6483  -17.2528   22.0397 C   0  0  0  0  0  0
  -29.9601  -19.5359   23.0828 C   0  0  0  0  0  0
  -28.3506  -25.3262   20.4330 C   0  0  0  0  0  0
  -29.7780  -23.2068   22.0158 N   0  0  0  0  0  0
  -30.1282  -15.3591   21.4167 N   0  0  0  0  0  0
  -26.0286  -24.4085   23.3939 N   0  3  0  0  0  0
  -29.8379  -18.7148   21.8564 N   0  3  0  0  0  0
  -31.4677  -12.4089   19.1213 H   0  0  0  0  0  0
  -30.3218  -11.2898   19.8039 H   0  0  0  0  0  0
  -29.7365  -11.8095   17.4172 H   0  0  0  0  0  0
  -29.6608  -13.5150   17.7874 H   0  0  0  0  0  0
  -27.8302  -11.3137   18.8076 H   0  0  0  0  0  0
  -27.3664  -12.6566   17.7937 H   0  0  0  0  0  0
  -27.7139  -14.2504   19.5952 H   0  0  0  0  0  0
  -28.6774  -11.9327   21.3444 H   0  0  0  0  0  0
  -28.4581  -13.5639   21.8852 H   0  0  0  0  0  0
  -25.2761   -9.5657   22.4777 H   0  0  0  0  0  0
  -23.9984   -7.4628   22.7488 H   0  0  0  0  0  0
  -21.0849   -8.8786   19.8961 H   0  0  0  0  0  0
  -22.3722  -10.9671   19.6182 H   0  0  0  0  0  0
  -21.2011   -7.6149   23.9706 H   0  0  0  0  0  0
  -21.1485   -6.0528   25.9068 H   0  0  0  0  0  0
  -22.0601   -2.7610   23.2849 H   0  0  0  0  0  0
  -22.4136  -11.9860   22.4744 H   0  0  0  0  0  0
  -21.1135  -13.1251   22.2598 H   0  0  0  0  0  0
  -24.6618  -15.8375   20.5073 H   0  0  0  0  0  0
  -26.2793  -15.6202   20.0660 H   0  0  0  0  0  0
  -26.7085  -32.5554   23.1178 H   0  0  0  0  0  0
  -25.0075  -33.9817   25.0491 H   0  0  0  0  0  0
  -22.6832  -31.3043   21.4114 H   0  0  0  0  0  0
  -23.3729  -35.9667   23.3297 H   0  0  0  0  0  0
  -24.3577  -36.8955   22.2065 H   0  0  0  0  0  0
  -23.7250  -37.6539   23.6671 H   0  0  0  0  0  0
  -26.0264  -31.6014   20.5810 H   0  0  0  0  0  0
  -26.8135  -30.9017   21.9685 H   0  0  0  0  0  0
  -28.0838  -29.1228   21.1731 H   0  0  0  0  0  0
  -26.0644  -25.9875   18.9912 H   0  0  0  0  0  0
  -23.9853  -27.2949   19.0223 H   0  0  0  0  0  0
  -23.6890  -30.5877   19.4022 H   0  0  0  0  0  0
  -22.7265  -29.2228   19.8870 H   0  0  0  0  0  0
  -25.1264  -36.2006   25.0835 H   0  0  0  0  0  0
  -20.9895  -28.3214   24.1476 H   0  0  0  0  0  0
  -20.5657  -26.2255   23.3593 H   0  0  0  0  0  0
  -21.6620  -26.7454   22.1215 H   0  0  0  0  0  0
  -19.6914  -25.6297   21.1225 H   0  0  0  0  0  0
  -19.6704  -27.3201   20.6739 H   0  0  0  0  0  0
  -17.4194  -26.6663   21.3994 H   0  0  0  0  0  0
  -18.0295  -26.0076   22.9010 H   0  0  0  0  0  0
  -19.7924  -30.7260   24.2240 H   0  0  0  0  0  0
  -17.5008  -31.6252   24.5182 H   0  0  0  0  0  0
  -15.5333  -30.2961   23.7703 H   0  0  0  0  0  0
  -15.8643  -28.0836   22.7024 H   0  0  0  0  0  0
  -24.5882  -30.7083   25.7810 H   0  0  0  0  0  0
  -24.8963  -32.2818   26.5025 H   0  0  0  0  0  0
  -25.8099  -30.8795   27.0203 H   0  0  0  0  0  0
  -26.2905  -29.6776   24.1209 H   0  0  0  0  0  0
  -27.4228  -29.7387   25.4549 H   0  0  0  0  0  0
  -27.8652  -30.4429   23.9165 H   0  0  0  0  0  0
  -27.2653  -33.3640   26.2088 H   0  0  0  0  0  0
  -28.3817  -32.6944   25.0293 H   0  0  0  0  0  0
  -28.0732  -31.8482   26.5393 H   0  0  0  0  0  0
  -28.2587  -38.0112   24.7526 H   0  0  0  0  0  0
  -28.1077  -36.2662   24.6255 H   0  0  0  0  0  0
  -27.2308  -37.1402   25.8866 H   0  0  0  0  0  0
  -20.9297  -29.8781   21.7023 H   0  0  0  0  0  0
  -26.0188  -38.2874   24.1395 H   0  0  0  0  0  0
  -27.4401  -20.5451   23.6178 H   0  0  0  0  0  0
  -31.2794  -21.7846   22.0860 H   0  0  0  0  0  0
  -25.9000  -22.4707   24.1918 H   0  0  0  0  0  0
  -25.4967  -22.5741   22.4894 H   0  0  0  0  0  0
  -29.9412  -16.8770   19.8764 H   0  0  0  0  0  0
  -28.3713  -16.2989   20.5402 H   0  0  0  0  0  0
  -31.0921  -16.0965   23.2255 H   0  0  0  0  0  0
  -31.7811  -16.7562   21.6968 H   0  0  0  0  0  0
  -25.9067  -24.7445   21.3474 H   0  0  0  0  0  0
  -26.2492  -26.1780   22.2904 H   0  0  0  0  0  0
  -28.5664  -25.5885   22.5800 H   0  0  0  0  0  0
  -28.8760  -17.0257   22.7792 H   0  0  0  0  0  0
  -29.3933  -19.0870   23.9002 H   0  0  0  0  0  0
  -31.0016  -19.5587   23.4067 H   0  0  0  0  0  0
  -27.7280  -24.7918   19.7169 H   0  0  0  0  0  0
  -29.3629  -24.9892   20.2147 H   0  0  0  0  0  0
  -26.5244  -24.7289   24.2111 H   0  0  0  0  0  0
  -25.0505  -24.6099   23.5402 H   0  0  0  0  0  0
  -29.0252  -19.0510   21.3661 H   0  0  0  0  0  0
  -30.6334  -18.8864   21.2618 H   0  0  0  0  0  0
  1 25  1  0  0  0
  1 30  2  0  0  0
  1 85  1  0  0  0
  2  3  1  0  0  0
  2 25  1  0  0  0
  2 88  1  0  0  0
  2 89  1  0  0  0
  3  4  1  0  0  0
  3 90  1  0  0  0
  3 91  1  0  0  0
  4  5  1  0  0  0
  4 92  1  0  0  0
  4 93  1  0  0  0
  5  6  1  0  0  0
  5 26  1  0  0  0
  5 94  1  0  0  0
  6 25  1  0  0  0
  6 95  1  0  0  0
  6 96  1  0  0  0
  7  8  2  0  0  0
  7 26  1  0  0  0
  7 29  1  0  0  0
  8  9  1  0  0  0
  8 22  1  0  0  0
  9 10  1  0  0  0
  9 27  2  0  0  0
 10 11  2  0  0  0
 10 15  1  0  0  0
 11 12  1  0  0  0
 11 97  1  0  0  0
 12 13  2  0  0  0
 12 98  1  0  0  0
 13 14  1  0  0  0
 13 31  1  0  0  0
 14 15  2  0  0  0
 14 99  1  0  0  0
 15100  1  0  0  0
 16 17  2  0  0  0
 16 21  1  0  0  0
 16 31  1  0  0  0
 17 18  1  0  0  0
 17101  1  0  0  0
 18 19  2  0  0  0
 18102  1  0  0  0
 19 20  1  0  0  0
 19 24  1  0  0  0
 20 21  2  0  0  0
 20103  1  0  0  0
 21 23  1  0  0  0
 22 28  1  0  0  0
 22 32  2  0  0  0
 26 27  1  0  0  0
 28104  1  0  0  0
 28105  1  0  0  0
 29106  1  0  0  0
 29107  1  0  0  0
 33 34  1  0  0  0
 33 66  1  0  0  0
 33 70  2  0  0  0
 34 36  1  0  0  0
 34 59  1  0  0  0
 34108  1  0  0  0
 35 44  2  0  0  0
 35 45  1  0  0  0
 35 68  1  0  0  0
 36 56  1  0  0  0
 36109  1  0  0  0
 37 39  1  0  0  0
 37 47  1  0  0  0
 37 66  1  0  0  0
 37110  1  0  0  0
 38 43  2  0  0  0
 38 46  1  0  0  0
 38 47  1  0  0  0
 39 64  1  0  0  0
 39 67  2  0  0  0
 40 52  1  0  0  0
 40 53  2  0  0  0
 40 58  1  0  0  0
 41111  1  0  0  0
 41112  1  0  0  0
 41113  1  0  0  0
 41 48  1  0  0  0
 42 43  1  0  0  0
 42 66  1  0  0  0
 42114  1  0  0  0
 42115  1  0  0  0
 43 44  1  0  0  0
 44116  1  0  0  0
 45 46  2  0  0  0
 45117  1  0  0  0
 46118  1  0  0  0
 47119  1  0  0  0
 47120  1  0  0  0
 48 56  1  0  0  0
 48 65  1  0  0  0
 48121  1  0  0  0
 49 50  1  0  0  0
 49 53  1  0  0  0
 49 64  1  0  0  0
 49122  1  0  0  0
 50 51  1  0  0  0
 50123  1  0  0  0
 50124  1  0  0  0
 51 52  1  0  0  0
 51125  1  0  0  0
 51126  1  0  0  0
 52127  1  0  0  0
 52128  1  0  0  0
 53 54  1  0  0  0
 54 55  2  0  0  0
 54129  1  0  0  0
 55 57  1  0  0  0
 55130  1  0  0  0
 56 69  2  0  0  0
 57 58  2  0  0  0
 57131  1  0  0  0
 58132  1  0  0  0
 59 60  1  0  0  0
 59 61  1  0  0  0
 59 62  1  0  0  0
 60133  1  0  0  0
 60134  1  0  0  0
 60135  1  0  0  0
 61136  1  0  0  0
 61137  1  0  0  0
 61138  1  0  0  0
 62139  1  0  0  0
 62140  1  0  0  0
 62141  1  0  0  0
 63 65  1  0  0  0
 63142  1  0  0  0
 63143  1  0  0  0
 63144  1  0  0  0
 64145  1  0  0  0
 65146  1  0  0  0
 68 83  1  0  0  0
 71 73  2  0  0  0
 71 74  1  0  0  0
 71147  1  0  0  0
 72 74  2  0  0  0
 72 84  1  0  0  0
 72148  1  0  0  0
 73 75  1  0  0  0
 73 76  1  0  0  0
 74 82  1  0  0  0
 75 80  1  0  0  0
 75 84  2  0  0  0
 76 86  1  0  0  0
 76149  1  0  0  0
 76150  1  0  0  0
 77 81  1  0  0  0
 77 85  1  0  0  0
 77151  1  0  0  0
 77152  1  0  0  0
 78 81  1  0  0  0
 78 85  1  0  0  0
 78153  1  0  0  0
 78154  1  0  0  0
 79 80  1  0  0  0
 79 86  1  0  0  0
 79155  1  0  0  0
 79156  1  0  0  0
 80 83  1  0  0  0
 80157  1  0  0  0
 81 87  1  0  0  0
 81158  1  0  0  0
 82 87  1  0  0  0
 82159  1  0  0  0
 82160  1  0  0  0
 83161  1  0  0  0
 83162  1  0  0  0
 86163  1  0  0  0
 86164  1  0  0  0
 87165  1  0  0  0
 87166  1  0  0  0
M  CHG  2  86   1  87   1
M  ISO  4   1 100  68 101  83 101  85 100
M  END
> <chiral flag>
0

> <version>
0

> <s_m_source_file>
/data/baiqing/PycharmProjects/Reinvent-master-3.2/result/LINK_invent/BTK/process_docking_weight1_custom_sum_contain_oxygen_bond_distance_aromatic_linkinvent_7_9_3/rearranged_h_0198.sdf

> <i_m_source_file_index>
49

> <r_mmod_Potential_Energy-OPLS-2005>
-448.953277587891

> <r_mmod_Stretch_Energy-OPLS-2005>
40.3148574829102

> <r_mmod_Bend_Energy-OPLS-2005>
114.78035736084

> <r_mmod_Torsional_Energy-OPLS-2005>
295.646759033203

> <r_mmod_Improper_Torsional_Energy-OPLS-2005>
10.1027183532715

> <r_mmod_Van_der_Waal_Energy-OPLS-2005>
156.752410888672

> <r_mmod_Electrostatic_Energy-OPLS-2005>
-123.481689453125

> <r_mmod_Solvation_Energy-OPLS-2005>
-953.661315917969

> <b_mmod_Minimization_Converged-OPLS-2005>
0

> <r_mmod_RMS_Derivative-OPLS-2005>
2.95490860939026

$$$$
49
                    3D
 Structure written by MMmdl.
162172  0  0  1  0            999 V2000
  -30.6703  -14.5028   20.5687 C   0  0  0  0  0  0
  -30.4289  -12.3250   19.4300 C   0  0  0  0  0  0
  -29.4981  -12.5038   18.2112 C   0  0  0  0  0  0
  -28.0189  -12.3579   18.6227 C   0  0  0  0  0  0
  -27.6590  -13.2041   19.8729 C   0  0  2  0  0  0
  -28.6993  -12.9914   20.9967 C   0  0  0  0  0  0
  -25.2584  -13.8157   20.5700 C   0  0  0  0  0  0
  -24.1835  -13.0439   20.9198 C   0  0  0  0  0  0
  -24.6377  -11.6905   20.8738 C   0  0  0  0  0  0
  -23.9045  -10.4289   21.0401 C   0  0  0  0  0  0
  -24.3602   -9.4207   21.9178 C   0  0  0  0  0  0
  -23.6287   -8.2238   22.0751 C   0  0  0  0  0  0
  -22.4268   -8.0277   21.3541 C   0  0  0  0  0  0
  -21.9898   -9.0243   20.4642 C   0  0  0  0  0  0
  -22.7219  -10.2126   20.3048 C   0  0  0  0  0  0
  -21.6853   -6.0738   22.5280 C   0  0  0  0  0  0
  -21.4008   -6.5639   23.8214 C   0  0  0  0  0  0
  -21.3657   -5.6790   24.9175 C   0  0  0  0  0  0
  -21.6051   -4.3056   24.7225 C   0  0  0  0  0  0
  -21.8817   -3.8147   23.4347 C   0  0  0  0  0  0
  -21.9186   -4.6964   22.3405 C   0  0  0  0  0  0
  -22.7856  -13.5240   21.1856 C   0  0  0  0  0  0
  -22.1664   -4.2150   21.0983 F   0  0  0  0  0  0
  -21.5628   -3.4540   25.7736 F   0  0  0  0  0  0
  -30.0281  -13.3085   20.4479 N   0  0  0  0  0  0
  -26.3005  -12.9315   20.3349 N   0  0  0  0  0  0
  -25.9298  -11.6481   20.5762 N   0  0  0  0  0  0
  -22.0494  -12.8230   22.0415 N   0  0  0  0  0  0
  -25.4318  -15.1882   20.4119 N   0  0  0  0  0  0
  -31.8025  -14.7040   20.1226 O   0  0  0  0  0  0
  -21.6639   -6.8876   21.4239 O   0  0  0  0  0  0
  -22.3544  -14.5544   20.6708 O   0  0  0  0  0  0
  -24.6168  -31.8656   23.2089 C   0  0  0  0  0  0
  -25.9056  -32.4816   23.8380 C   0  0  1  0  0  0
  -27.2315  -27.4234   20.1088 C   0  0  0  0  0  0
  -25.5921  -33.8615   24.2324 N   0  0  0  0  0  0
  -23.4044  -30.4881   21.5491 C   0  0  2  0  0  0
  -24.8513  -28.9456   20.1189 C   0  0  0  0  0  0
  -22.7411  -29.4651   22.4986 C   0  0  0  0  0  0
  -18.0261  -28.1369   22.8496 C   0  0  0  0  0  0
  -24.1475  -36.7318   23.2636 C   0  0  0  0  0  0
  -25.9315  -30.8300   21.3591 C   0  0  0  0  0  0
  -26.0094  -29.4593   20.7160 C   0  0  0  0  0  0
  -27.2055  -28.7054   20.7065 C   0  0  0  0  0  0
  -26.0629  -26.9227   19.5033 C   0  0  0  0  0  0
  -24.8724  -27.6767   19.5087 C   0  0  0  0  0  0
  -23.6141  -29.8154   20.1652 C   0  0  0  0  0  0
  -25.4106  -36.3119   24.0331 C   0  0  1  0  0  0
  -20.5859  -28.3662   23.1313 C   0  0  2  0  0  0
  -20.6771  -26.9395   22.5419 C   0  0  0  0  0  0
  -19.5747  -26.6380   21.5216 C   0  0  0  0  0  0
  -18.1919  -26.7917   22.1623 C   0  0  0  0  0  0
  -19.1514  -28.8831   23.2901 C   0  0  0  0  0  0
  -18.9449  -30.1442   23.8903 C   0  0  0  0  0  0
  -17.6452  -30.6580   24.0563 C   0  0  0  0  0  0
  -25.9038  -34.9479   23.5123 C   0  0  0  0  0  0
  -16.5340  -29.9087   23.6318 C   0  0  0  0  0  0
  -16.7253  -28.6501   23.0343 C   0  0  0  0  0  0
  -26.4487  -31.6588   25.0703 C   0  0  0  0  0  0
  -25.3765  -31.3686   26.1458 C   0  0  0  0  0  0
  -27.0299  -30.3027   24.6064 C   0  0  0  0  0  0
  -27.6067  -32.4295   25.7467 C   0  0  0  0  0  0
  -27.5578  -37.1820   24.8464 C   0  0  0  0  0  0
  -21.4136  -29.3032   22.3726 N   0  0  0  0  0  0
  -26.4288  -37.3810   23.9410 N   0  0  0  0  0  0
  -24.6696  -31.0747   22.0989 N   0  0  0  0  0  0
  -23.4179  -28.8189   23.3031 O   0  0  0  0  0  0
  -28.3920  -26.6857   20.0502 O   0  0  0  0  0  0
  -26.5583  -34.8933   22.4674 O   0  0  0  0  0  0
  -23.5356  -32.1397   23.7489 O   0  0  0  0  0  0
  -28.0257  -22.2438   22.1344 C   0  0  0  0  0  0
  -28.1507  -23.6473   22.1026 C   0  0  0  0  0  0
  -28.4632  -24.2780   20.9042 C   0  0  0  0  0  0
  -28.2329  -21.5660   20.9073 C   0  0  0  0  0  0
  -28.0305  -24.6324   23.2384 C   0  0  0  0  0  0
  -28.0698  -26.0132   22.5315 C   0  0  0  0  0  0
  -30.4882  -17.5875   19.6718 C   0  0  0  0  0  0
  -30.1389  -19.0853   19.8298 C   0  0  0  0  0  0
  -29.0028  -17.8295   21.5021 C   0  0  0  0  0  0
  -28.6972  -25.7704   21.1271 C   0  0  2  0  0  0
  -30.2006  -16.9648   21.0438 C   0  0  1  0  0  0
  -28.0309  -20.0421   20.8111 C   0  0  0  0  0  0
  -28.6679  -23.5946   19.7491 N   0  0  0  0  0  0
  -28.5407  -22.2489   19.7600 N   0  0  0  0  0  0
  -29.9096  -15.5113   21.0466 N   0  0  0  0  0  0
  -29.2584  -19.2146   21.0183 N   0  3  2  0  0  0
  -31.4719  -12.4392   19.1300 H   0  0  0  0  0  0
  -30.3439  -11.3145   19.8329 H   0  0  0  0  0  0
  -29.7453  -11.7732   17.4399 H   0  0  0  0  0  0
  -29.6601  -13.4862   17.7641 H   0  0  0  0  0  0
  -27.8363  -11.3022   18.8282 H   0  0  0  0  0  0
  -27.3660  -12.6204   17.7891 H   0  0  0  0  0  0
  -27.7007  -14.2499   19.5683 H   0  0  0  0  0  0
  -28.6819  -11.9556   21.3403 H   0  0  0  0  0  0
  -28.4576  -13.5895   21.8757 H   0  0  0  0  0  0
  -25.2748   -9.5695   22.4745 H   0  0  0  0  0  0
  -24.0004   -7.4631   22.7467 H   0  0  0  0  0  0
  -21.0831   -8.8746   19.8950 H   0  0  0  0  0  0
  -22.3671  -10.9656   19.6153 H   0  0  0  0  0  0
  -21.2005   -7.6147   23.9717 H   0  0  0  0  0  0
  -21.1486   -6.0523   25.9078 H   0  0  0  0  0  0
  -22.0599   -2.7610   23.2844 H   0  0  0  0  0  0
  -22.4091  -11.9889   22.4809 H   0  0  0  0  0  0
  -21.1108  -13.1244   22.2610 H   0  0  0  0  0  0
  -24.6597  -15.8382   20.5103 H   0  0  0  0  0  0
  -26.2687  -15.6223   20.0466 H   0  0  0  0  0  0
  -26.7134  -32.5530   23.1151 H   0  0  0  0  0  0
  -25.0124  -33.9765   25.0510 H   0  0  0  0  0  0
  -22.6942  -31.3050   21.4068 H   0  0  0  0  0  0
  -23.3735  -35.9652   23.3312 H   0  0  0  0  0  0
  -24.3562  -36.8915   22.2047 H   0  0  0  0  0  0
  -23.7221  -37.6533   23.6624 H   0  0  0  0  0  0
  -26.0339  -31.5893   20.5820 H   0  0  0  0  0  0
  -26.8246  -30.8950   21.9690 H   0  0  0  0  0  0
  -28.1045  -29.1046   21.1540 H   0  0  0  0  0  0
  -26.0779  -25.9532   19.0243 H   0  0  0  0  0  0
  -23.9837  -27.2794   19.0388 H   0  0  0  0  0  0
  -23.7244  -30.5865   19.4019 H   0  0  0  0  0  0
  -22.7373  -29.2360   19.8718 H   0  0  0  0  0  0
  -25.1283  -36.1988   25.0822 H   0  0  0  0  0  0
  -20.9945  -28.3228   24.1432 H   0  0  0  0  0  0
  -20.5677  -26.2268   23.3609 H   0  0  0  0  0  0
  -21.6647  -26.7442   22.1211 H   0  0  0  0  0  0
  -19.6909  -25.6294   21.1234 H   0  0  0  0  0  0
  -19.6684  -27.3200   20.6755 H   0  0  0  0  0  0
  -17.4201  -26.6656   21.4013 H   0  0  0  0  0  0
  -18.0309  -26.0045   22.9007 H   0  0  0  0  0  0
  -19.7927  -30.7259   24.2271 H   0  0  0  0  0  0
  -17.5006  -31.6255   24.5174 H   0  0  0  0  0  0
  -15.5346  -30.3003   23.7631 H   0  0  0  0  0  0
  -15.8646  -28.0830   22.7054 H   0  0  0  0  0  0
  -24.5938  -30.7025   25.7808 H   0  0  0  0  0  0
  -24.8962  -32.2839   26.4926 H   0  0  0  0  0  0
  -25.8143  -30.8854   27.0200 H   0  0  0  0  0  0
  -26.2830  -29.6806   24.1117 H   0  0  0  0  0  0
  -27.4074  -29.7243   25.4509 H   0  0  0  0  0  0
  -27.8661  -30.4345   23.9188 H   0  0  0  0  0  0
  -27.2691  -33.3583   26.2071 H   0  0  0  0  0  0
  -28.3867  -32.6873   25.0290 H   0  0  0  0  0  0
  -28.0738  -31.8396   26.5360 H   0  0  0  0  0  0
  -28.2618  -38.0104   24.7530 H   0  0  0  0  0  0
  -28.1052  -36.2644   24.6266 H   0  0  0  0  0  0
  -27.2288  -37.1449   25.8865 H   0  0  0  0  0  0
  -20.9285  -29.8763   21.6965 H   0  0  0  0  0  0
  -26.0176  -38.2880   24.1441 H   0  0  0  0  0  0
  -27.7731  -21.7167   23.0437 H   0  0  0  0  0  0
  -28.8818  -24.5121   23.9093 H   0  0  0  0  0  0
  -27.1149  -24.4847   23.8106 H   0  0  0  0  0  0
  -28.5796  -26.7873   23.1055 H   0  0  0  0  0  0
  -27.0317  -26.3271   22.4260 H   0  0  0  0  0  0
  -31.5195  -17.4416   19.3482 H   0  0  0  0  0  0
  -29.8419  -17.1428   18.9144 H   0  0  0  0  0  0
  -29.6755  -19.4712   18.9199 H   0  0  0  0  0  0
  -31.0406  -19.6747   20.0011 H   0  0  0  0  0  0
  -28.8666  -17.8096   22.5841 H   0  0  0  0  0  0
  -28.0823  -17.4538   21.0517 H   0  0  0  0  0  0
  -29.7781  -25.8529   21.2505 H   0  0  0  0  0  0
  -31.0488  -17.1550   21.7044 H   0  0  0  0  0  0
  -27.5588  -19.7915   19.8600 H   0  0  0  0  0  0
  -27.2991  -19.7732   21.5735 H   0  0  0  0  0  0
  -29.0071  -15.2305   21.4016 H   0  0  0  0  0  0
  -29.7970  -19.6778   21.7346 H   0  0  0  0  0  0
  1 25  1  0  0  0
  1 30  2  0  0  0
  1 85  1  0  0  0
  2  3  1  0  0  0
  2 25  1  0  0  0
  2 87  1  0  0  0
  2 88  1  0  0  0
  3  4  1  0  0  0
  3 89  1  0  0  0
  3 90  1  0  0  0
  4  5  1  0  0  0
  4 91  1  0  0  0
  4 92  1  0  0  0
  5  6  1  0  0  0
  5 26  1  0  0  0
  5 93  1  0  0  0
  6 25  1  0  0  0
  6 94  1  0  0  0
  6 95  1  0  0  0
  7  8  2  0  0  0
  7 26  1  0  0  0
  7 29  1  0  0  0
  8  9  1  0  0  0
  8 22  1  0  0  0
  9 10  1  0  0  0
  9 27  2  0  0  0
 10 11  2  0  0  0
 10 15  1  0  0  0
 11 12  1  0  0  0
 11 96  1  0  0  0
 12 13  2  0  0  0
 12 97  1  0  0  0
 13 14  1  0  0  0
 13 31  1  0  0  0
 14 15  2  0  0  0
 14 98  1  0  0  0
 15 99  1  0  0  0
 16 17  2  0  0  0
 16 21  1  0  0  0
 16 31  1  0  0  0
 17 18  1  0  0  0
 17100  1  0  0  0
 18 19  2  0  0  0
 18101  1  0  0  0
 19 20  1  0  0  0
 19 24  1  0  0  0
 20 21  2  0  0  0
 20102  1  0  0  0
 21 23  1  0  0  0
 22 28  1  0  0  0
 22 32  2  0  0  0
 26 27  1  0  0  0
 28103  1  0  0  0
 28104  1  0  0  0
 29105  1  0  0  0
 29106  1  0  0  0
 33 34  1  0  0  0
 33 66  1  0  0  0
 33 70  2  0  0  0
 34 36  1  0  0  0
 34 59  1  0  0  0
 34107  1  0  0  0
 35 44  2  0  0  0
 35 45  1  0  0  0
 35 68  1  0  0  0
 36 56  1  0  0  0
 36108  1  0  0  0
 37 39  1  0  0  0
 37 47  1  0  0  0
 37 66  1  0  0  0
 37109  1  0  0  0
 38 43  2  0  0  0
 38 46  1  0  0  0
 38 47  1  0  0  0
 39 64  1  0  0  0
 39 67  2  0  0  0
 40 52  1  0  0  0
 40 53  2  0  0  0
 40 58  1  0  0  0
 41110  1  0  0  0
 41111  1  0  0  0
 41112  1  0  0  0
 41 48  1  0  0  0
 42 43  1  0  0  0
 42 66  1  0  0  0
 42113  1  0  0  0
 42114  1  0  0  0
 43 44  1  0  0  0
 44115  1  0  0  0
 45 46  2  0  0  0
 45116  1  0  0  0
 46117  1  0  0  0
 47118  1  0  0  0
 47119  1  0  0  0
 48 56  1  0  0  0
 48 65  1  0  0  0
 48120  1  0  0  0
 49 50  1  0  0  0
 49 53  1  0  0  0
 49 64  1  0  0  0
 49121  1  0  0  0
 50 51  1  0  0  0
 50122  1  0  0  0
 50123  1  0  0  0
 51 52  1  0  0  0
 51124  1  0  0  0
 51125  1  0  0  0
 52126  1  0  0  0
 52127  1  0  0  0
 53 54  1  0  0  0
 54 55  2  0  0  0
 54128  1  0  0  0
 55 57  1  0  0  0
 55129  1  0  0  0
 56 69  2  0  0  0
 57 58  2  0  0  0
 57130  1  0  0  0
 58131  1  0  0  0
 59 60  1  0  0  0
 59 61  1  0  0  0
 59 62  1  0  0  0
 60132  1  0  0  0
 60133  1  0  0  0
 60134  1  0  0  0
 61135  1  0  0  0
 61136  1  0  0  0
 61137  1  0  0  0
 62138  1  0  0  0
 62139  1  0  0  0
 62140  1  0  0  0
 63 65  1  0  0  0
 63141  1  0  0  0
 63142  1  0  0  0
 63143  1  0  0  0
 64144  1  0  0  0
 65145  1  0  0  0
 68 80  1  0  0  0
 71 72  2  0  0  0
 71 74  1  0  0  0
 71146  1  0  0  0
 72 73  1  0  0  0
 72 75  1  0  0  0
 73 80  1  0  0  0
 73 83  2  0  0  0
 74 82  1  0  0  0
 74 84  2  0  0  0
 75 76  1  0  0  0
 75147  1  0  0  0
 75148  1  0  0  0
 76 80  1  0  0  0
 76149  1  0  0  0
 76150  1  0  0  0
 77 78  1  0  0  0
 77 81  1  0  0  0
 77151  1  0  0  0
 77152  1  0  0  0
 78 86  1  0  0  0
 78153  1  0  0  0
 78154  1  0  0  0
 79 81  1  0  0  0
 79 86  1  0  0  0
 79155  1  0  0  0
 79156  1  0  0  0
 80157  1  0  0  0
 81 85  1  0  0  0
 81158  1  0  0  0
 82159  1  0  0  0
 82160  1  0  0  0
 82 86  1  0  0  0
 83 84  1  0  0  0
 85161  1  0  0  0
 86162  1  0  0  0
M  CHG  1  86   1
M  ISO  4   1 100  68 101  80 101  85 100
M  END
> <chiral flag>
0

> <version>
0

> <s_m_source_file>
/data/baiqing/PycharmProjects/Reinvent-master-3.2/result/LINK_invent/BTK/process_docking_weight1_custom_sum_contain_oxygen_bond_distance_aromatic_linkinvent_7_9_3/rearranged_h_0198.sdf

> <i_m_source_file_index>
50

> <r_mmod_Potential_Energy-OPLS-2005>
-71.9019241333008

> <r_mmod_Stretch_Energy-OPLS-2005>
44.6332206726074

> <r_mmod_Bend_Energy-OPLS-2005>
187.564559936523

> <r_mmod_Torsional_Energy-OPLS-2005>
293.702606201172

> <r_mmod_Improper_Torsional_Energy-OPLS-2005>
5.11764240264893

> <r_mmod_Van_der_Waal_Energy-OPLS-2005>
135.338592529297

> <r_mmod_Electrostatic_Energy-OPLS-2005>
-254.236343383789

> <r_mmod_Solvation_Energy-OPLS-2005>
-498.422790527344

> <b_mmod_Minimization_Converged-OPLS-2005>
0

> <r_mmod_RMS_Derivative-OPLS-2005>
1.66631245613098

$$$$
50
                    3D
 Structure written by MMmdl.
151160  0  0  1  0            999 V2000
  -30.1523  -16.0562   20.2968 C   0  0  0  0  0  0
  -30.3843  -13.4107   19.5201 C   0  0  0  0  0  0
  -29.5583  -12.7659   18.3572 C   0  0  0  0  0  0
  -28.1740  -12.3125   18.8345 C   0  0  0  0  0  0
  -27.5812  -13.3509   19.8054 C   0  0  2  0  0  0
  -28.5716  -13.8700   20.8860 C   0  0  0  0  0  0
  -25.2267  -13.8348   20.5883 C   0  0  0  0  0  0
  -24.1693  -13.0438   20.9318 C   0  0  0  0  0  0
  -24.6454  -11.6969   20.8761 C   0  0  0  0  0  0
  -23.9165  -10.4298   21.0385 C   0  0  0  0  0  0
  -24.3680   -9.4207   21.9173 C   0  0  0  0  0  0
  -23.6327   -8.2255   22.0752 C   0  0  0  0  0  0
  -22.4307   -8.0298   21.3544 C   0  0  0  0  0  0
  -21.9965   -9.0278   20.4647 C   0  0  0  0  0  0
  -22.7321  -10.2142   20.3047 C   0  0  0  0  0  0
  -21.6865   -6.0751   22.5280 C   0  0  0  0  0  0
  -21.4022   -6.5649   23.8214 C   0  0  0  0  0  0
  -21.3660   -5.6799   24.9173 C   0  0  0  0  0  0
  -21.6040   -4.3061   24.7222 C   0  0  0  0  0  0
  -21.8817   -3.8155   23.4343 C   0  0  0  0  0  0
  -21.9194   -4.6976   22.3401 C   0  0  0  0  0  0
  -22.7692  -13.5134   21.1930 C   0  0  0  0  0  0
  -22.1663   -4.2163   21.0979 F   0  0  0  0  0  0
  -21.5624   -3.4540   25.7731 F   0  0  0  0  0  0
  -29.6599  -14.6276   20.1825 N   0  0  0  0  0  0
  -26.2766  -12.9761   20.3323 N   0  0  0  0  0  0
  -25.9418  -11.6781   20.5688 N   0  0  0  0  0  0
  -22.0372  -12.8102   22.0486 N   0  0  0  0  0  0
  -25.3795  -15.2105   20.4355 N   0  0  0  0  0  0
  -31.3998  -15.8906   20.2895 O   0  0  0  0  0  0
  -21.6655   -6.8903   21.4247 O   0  0  0  0  0  0
  -22.3357  -14.5427   20.6761 O   0  0  0  0  0  0
  -24.7121  -31.7661   23.1274 C   0  0  0  0  0  0
  -25.9558  -32.4301   23.7932 C   0  0  1  0  0  0
  -27.2346  -26.4044   20.2478 C   0  0  0  0  0  0
  -25.6015  -33.8142   24.1788 N   0  0  0  0  0  0
  -23.5513  -30.3550   21.4896 C   0  0  2  0  0  0
  -25.0090  -28.6313   20.1339 C   0  0  0  0  0  0
  -22.7890  -29.4138   22.4644 C   0  0  0  0  0  0
  -18.0354  -28.1434   22.8439 C   0  0  0  0  0  0
  -24.1499  -36.7081   23.2661 C   0  0  0  0  0  0
  -26.1441  -30.4011   21.4354 C   0  0  0  0  0  0
  -26.2056  -28.9315   20.7946 C   0  0  0  0  0  0
  -27.2915  -27.8586   20.8043 C   0  0  0  0  0  0
  -25.9991  -26.3893   19.5279 C   0  0  0  0  0  0
  -24.9626  -27.3888   19.4744 C   0  0  0  0  0  0
  -23.8214  -29.6245   20.1391 C   0  0  0  0  0  0
  -25.4160  -36.2798   24.0260 C   0  0  1  0  0  0
  -20.6002  -28.3809   23.1091 C   0  0  2  0  0  0
  -20.6807  -26.9443   22.5406 C   0  0  0  0  0  0
  -19.5790  -26.6361   21.5217 C   0  0  0  0  0  0
  -18.1973  -26.7955   22.1613 C   0  0  0  0  0  0
  -19.1627  -28.8953   23.2736 C   0  0  0  0  0  0
  -18.9527  -30.1527   23.8795 C   0  0  0  0  0  0
  -17.6514  -30.6610   24.0544 C   0  0  0  0  0  0
  -25.9157  -34.9197   23.4883 C   0  0  0  0  0  0
  -16.5402  -29.9086   23.6355 C   0  0  0  0  0  0
  -16.7333  -28.6509   23.0372 C   0  0  0  0  0  0
  -26.4643  -31.6458   25.0673 C   0  0  0  0  0  0
  -25.3633  -31.3852   26.1232 C   0  0  0  0  0  0
  -27.0619  -30.2766   24.6776 C   0  0  0  0  0  0
  -27.6035  -32.4386   25.7510 C   0  0  0  0  0  0
  -27.5555  -37.1698   24.8469 C   0  0  0  0  0  0
  -21.4512  -29.3001   22.3384 N   0  0  0  0  0  0
  -26.4263  -37.3589   23.9404 N   0  0  0  0  0  0
  -24.8299  -30.8813   22.0693 N   0  0  0  0  0  0
  -23.4196  -28.7786   23.3124 O   0  0  0  0  0  0
  -28.1790  -25.0633   20.2457 O   0  0  0  0  0  0
  -26.5837  -34.8831   22.4532 O   0  0  0  0  0  0
  -23.6077  -32.0871   23.6040 O   0  0  0  0  0  0
  -28.2866  -19.6861   16.9685 C   0  0  0  0  0  0
  -29.2438  -18.0262   18.7795 C   0  0  0  0  0  0
  -29.4319  -19.3421   20.7172 C   0  0  0  0  0  0
  -29.0351  -20.8636   17.6097 C   0  0  0  0  0  0
  -28.1367  -19.1373   18.3943 C   0  0  1  0  0  0
  -28.6253  -21.1065   20.1091 C   0  0  1  0  0  0
  -28.0940  -23.1577   20.4459 C   0  0  0  0  0  0
  -29.4513  -17.5660   20.1846 N   0  0  0  0  0  0
  -28.1888  -20.6231   18.7645 N   0  3  1  0  0  0
  -31.3334  -13.7427   19.0974 H   0  0  0  0  0  0
  -30.6643  -12.6590   20.2604 H   0  0  0  0  0  0
  -30.1002  -11.9274   17.9176 H   0  0  0  0  0  0
  -29.4380  -13.5034   17.5625 H   0  0  0  0  0  0
  -28.2890  -11.3595   19.3527 H   0  0  0  0  0  0
  -27.5073  -12.1317   17.9907 H   0  0  0  0  0  0
  -27.3814  -14.2084   19.1601 H   0  0  0  0  0  0
  -28.9391  -13.0669   21.5273 H   0  0  0  0  0  0
  -28.0595  -14.5678   21.5499 H   0  0  0  0  0  0
  -25.2821   -9.5670   22.4760 H   0  0  0  0  0  0
  -24.0019   -7.4648   22.7482 H   0  0  0  0  0  0
  -21.0889   -8.8813   19.8960 H   0  0  0  0  0  0
  -22.3779  -10.9681   19.6158 H   0  0  0  0  0  0
  -21.2024   -7.6159   23.9721 H   0  0  0  0  0  0
  -21.1480   -6.0529   25.9076 H   0  0  0  0  0  0
  -22.0593   -2.7619   23.2839 H   0  0  0  0  0  0
  -22.4031  -11.9786   22.4881 H   0  0  0  0  0  0
  -21.0973  -13.1077   22.2690 H   0  0  0  0  0  0
  -24.6057  -15.8537   20.5633 H   0  0  0  0  0  0
  -26.2295  -15.6673   20.1319 H   0  0  0  0  0  0
  -26.7671  -32.4704   23.0662 H   0  0  0  0  0  0
  -25.0022  -33.9132   24.9847 H   0  0  0  0  0  0
  -22.8937  -31.1996   21.2741 H   0  0  0  0  0  0
  -23.3784  -35.9386   23.3256 H   0  0  0  0  0  0
  -24.3555  -36.8828   22.2090 H   0  0  0  0  0  0
  -23.7242  -37.6223   23.6807 H   0  0  0  0  0  0
  -26.3745  -31.1043   20.6338 H   0  0  0  0  0  0
  -26.9852  -30.4825   22.1108 H   0  0  0  0  0  0
  -28.1940  -28.1146   21.3408 H   0  0  0  0  0  0
  -25.7821  -25.4738   18.9961 H   0  0  0  0  0  0
  -24.0695  -27.1448   18.9155 H   0  0  0  0  0  0
  -24.0250  -30.3712   19.3709 H   0  0  0  0  0  0
  -22.9196  -29.1082   19.8061 H   0  0  0  0  0  0
  -25.1386  -36.1522   25.0749 H   0  0  0  0  0  0
  -21.0067  -28.3452   24.1225 H   0  0  0  0  0  0
  -20.5644  -26.2441   23.3693 H   0  0  0  0  0  0
  -21.6668  -26.7342   22.1244 H   0  0  0  0  0  0
  -19.6943  -25.6246   21.1313 H   0  0  0  0  0  0
  -19.6739  -27.3116   20.6706 H   0  0  0  0  0  0
  -17.4240  -26.6691   21.4017 H   0  0  0  0  0  0
  -18.0355  -26.0121   22.9032 H   0  0  0  0  0  0
  -19.8004  -30.7366   24.2124 H   0  0  0  0  0  0
  -17.5065  -31.6280   24.5167 H   0  0  0  0  0  0
  -15.5399  -30.2961   23.7739 H   0  0  0  0  0  0
  -15.8730  -28.0797   22.7148 H   0  0  0  0  0  0
  -24.5861  -30.7163   25.7519 H   0  0  0  0  0  0
  -24.8778  -32.3095   26.4373 H   0  0  0  0  0  0
  -25.7741  -30.9196   27.0200 H   0  0  0  0  0  0
  -26.3389  -29.6294   24.1804 H   0  0  0  0  0  0
  -27.3970  -29.7326   25.5619 H   0  0  0  0  0  0
  -27.9398  -30.3831   24.0402 H   0  0  0  0  0  0
  -27.2539  -33.3792   26.1781 H   0  0  0  0  0  0
  -28.4001  -32.6779   25.0451 H   0  0  0  0  0  0
  -28.0534  -31.8725   26.5676 H   0  0  0  0  0  0
  -28.2531  -38.0029   24.7503 H   0  0  0  0  0  0
  -28.1090  -36.2545   24.6316 H   0  0  0  0  0  0
  -27.2263  -37.1350   25.8869 H   0  0  0  0  0  0
  -20.9887  -29.8614   21.6367 H   0  0  0  0  0  0
  -26.0065  -38.2626   24.1414 H   0  0  0  0  0  0
  -28.8928  -19.0775   16.2958 H   0  0  0  0  0  0
  -27.3401  -19.9708   16.5025 H   0  0  0  0  0  0
  -30.2225  -18.3363   18.4094 H   0  0  0  0  0  0
  -29.0161  -17.1323   18.1965 H   0  0  0  0  0  0
  -29.1317  -19.2647   21.7626 H   0  0  0  0  0  0
  -30.4969  -19.5651   20.7879 H   0  0  0  0  0  0
  -28.8752  -21.8296   17.1305 H   0  0  0  0  0  0
  -30.0921  -20.6723   17.8044 H   0  0  0  0  0  0
  -27.1262  -18.7641   18.5674 H   0  0  0  0  0  0
  -27.7192  -20.8403   20.6537 H   0  0  0  0  0  0
  -28.1173  -23.1504   21.5356 H   0  0  0  0  0  0
  -27.0313  -23.0775   20.2180 H   0  0  0  0  0  0
  -27.2833  -21.0228   18.5630 H   0  0  0  0  0  0
  1 25  1  0  0  0
  1 30  2  0  0  0
  1 78  1  0  0  0
  2  3  1  0  0  0
  2 25  1  0  0  0
  2 80  1  0  0  0
  2 81  1  0  0  0
  3  4  1  0  0  0
  3 82  1  0  0  0
  3 83  1  0  0  0
  4  5  1  0  0  0
  4 84  1  0  0  0
  4 85  1  0  0  0
  5  6  1  0  0  0
  5 26  1  0  0  0
  5 86  1  0  0  0
  6 25  1  0  0  0
  6 87  1  0  0  0
  6 88  1  0  0  0
  7  8  2  0  0  0
  7 26  1  0  0  0
  7 29  1  0  0  0
  8  9  1  0  0  0
  8 22  1  0  0  0
  9 10  1  0  0  0
  9 27  2  0  0  0
 10 11  2  0  0  0
 10 15  1  0  0  0
 11 12  1  0  0  0
 11 89  1  0  0  0
 12 13  2  0  0  0
 12 90  1  0  0  0
 13 14  1  0  0  0
 13 31  1  0  0  0
 14 15  2  0  0  0
 14 91  1  0  0  0
 15 92  1  0  0  0
 16 17  2  0  0  0
 16 21  1  0  0  0
 16 31  1  0  0  0
 17 18  1  0  0  0
 17 93  1  0  0  0
 18 19  2  0  0  0
 18 94  1  0  0  0
 19 20  1  0  0  0
 19 24  1  0  0  0
 20 21  2  0  0  0
 20 95  1  0  0  0
 21 23  1  0  0  0
 22 28  1  0  0  0
 22 32  2  0  0  0
 26 27  1  0  0  0
 28 96  1  0  0  0
 28 97  1  0  0  0
 29 98  1  0  0  0
 29 99  1  0  0  0
 33 34  1  0  0  0
 33 66  1  0  0  0
 33 70  2  0  0  0
 34 36  1  0  0  0
 34 59  1  0  0  0
 34100  1  0  0  0
 35 44  2  0  0  0
 35 45  1  0  0  0
 35 68  1  0  0  0
 36 56  1  0  0  0
 36101  1  0  0  0
 37 39  1  0  0  0
 37 47  1  0  0  0
 37 66  1  0  0  0
 37102  1  0  0  0
 38 43  2  0  0  0
 38 46  1  0  0  0
 38 47  1  0  0  0
 39 64  1  0  0  0
 39 67  2  0  0  0
 40 52  1  0  0  0
 40 53  2  0  0  0
 40 58  1  0  0  0
 41103  1  0  0  0
 41104  1  0  0  0
 41105  1  0  0  0
 41 48  1  0  0  0
 42 43  1  0  0  0
 42 66  1  0  0  0
 42106  1  0  0  0
 42107  1  0  0  0
 43 44  1  0  0  0
 44108  1  0  0  0
 45 46  2  0  0  0
 45109  1  0  0  0
 46110  1  0  0  0
 47111  1  0  0  0
 47112  1  0  0  0
 48 56  1  0  0  0
 48 65  1  0  0  0
 48113  1  0  0  0
 49 50  1  0  0  0
 49 53  1  0  0  0
 49 64  1  0  0  0
 49114  1  0  0  0
 50 51  1  0  0  0
 50115  1  0  0  0
 50116  1  0  0  0
 51 52  1  0  0  0
 51117  1  0  0  0
 51118  1  0  0  0
 52119  1  0  0  0
 52120  1  0  0  0
 53 54  1  0  0  0
 54 55  2  0  0  0
 54121  1  0  0  0
 55 57  1  0  0  0
 55122  1  0  0  0
 56 69  2  0  0  0
 57 58  2  0  0  0
 57123  1  0  0  0
 58124  1  0  0  0
 59 60  1  0  0  0
 59 61  1  0  0  0
 59 62  1  0  0  0
 60125  1  0  0  0
 60126  1  0  0  0
 60127  1  0  0  0
 61128  1  0  0  0
 61129  1  0  0  0
 61130  1  0  0  0
 62131  1  0  0  0
 62132  1  0  0  0
 62133  1  0  0  0
 63 65  1  0  0  0
 63134  1  0  0  0
 63135  1  0  0  0
 63136  1  0  0  0
 64137  1  0  0  0
 65138  1  0  0  0
 68 77  1  0  0  0
 71 74  1  0  0  0
 71139  1  0  0  0
 71140  1  0  0  0
 71 75  1  0  0  0
 72 75  1  0  0  0
 72 78  1  0  0  0
 72141  1  0  0  0
 72142  1  0  0  0
 73 76  1  0  0  0
 73 78  1  0  0  0
 73143  1  0  0  0
 73144  1  0  0  0
 74145  1  0  0  0
 74146  1  0  0  0
 74 79  1  0  0  0
 75 79  1  0  0  0
 75147  1  0  0  0
 76 77  1  0  0  0
 76 79  1  0  0  0
 76148  1  0  0  0
 77149  1  0  0  0
 77150  1  0  0  0
 79151  1  0  0  0
M  CHG  1  79   1
M  ISO  4   1 100  68 101  77 101  78 100
M  END
> <chiral flag>
0

> <version>
0

> <s_m_source_file>
/data/baiqing/PycharmProjects/Reinvent-master-3.2/result/LINK_invent/BTK/process_docking_weight1_custom_sum_contain_oxygen_bond_distance_aromatic_linkinvent_7_9_3/rearranged_h_0198.sdf

> <i_m_source_file_index>
51

> <r_mmod_Potential_Energy-OPLS-2005>
4529.28271484375

> <r_mmod_Stretch_Energy-OPLS-2005>
1915.75268554688

> <r_mmod_Bend_Energy-OPLS-2005>
1041.00659179688

> <r_mmod_Torsional_Energy-OPLS-2005>
437.181945800781

> <r_mmod_Improper_Torsional_Energy-OPLS-2005>
11.3095703125

> <r_mmod_Van_der_Waal_Energy-OPLS-2005>
120.771903991699

> <r_mmod_Electrostatic_Energy-OPLS-2005>
-172.987518310547

> <r_mmod_Solvation_Energy-OPLS-2005>
-460.635833740234

> <b_mmod_Minimization_Converged-OPLS-2005>
0

> <r_mmod_RMS_Derivative-OPLS-2005>
0.780203521251678

$$$$
51
                    3D
 Structure written by MMmdl.
164172  0  0  1  0            999 V2000
  -30.7062  -14.6384   20.4693 C   0  0  0  0  0  0
  -30.4201  -12.3959   19.4433 C   0  0  0  0  0  0
  -29.4905  -12.4672   18.2161 C   0  0  0  0  0  0
  -28.0214  -12.2823   18.6435 C   0  0  0  0  0  0
  -27.6290  -13.1859   19.8393 C   0  0  2  0  0  0
  -28.6904  -13.1578   20.9651 C   0  0  0  0  0  0
  -25.2504  -13.8052   20.5702 C   0  0  0  0  0  0
  -24.1761  -13.0366   20.9217 C   0  0  0  0  0  0
  -24.6305  -11.6831   20.8768 C   0  0  0  0  0  0
  -23.8973  -10.4247   21.0431 C   0  0  0  0  0  0
  -24.3549   -9.4171   21.9192 C   0  0  0  0  0  0
  -23.6250   -8.2195   22.0752 C   0  0  0  0  0  0
  -22.4239   -8.0229   21.3537 C   0  0  0  0  0  0
  -21.9856   -9.0206   20.4652 C   0  0  0  0  0  0
  -22.7159  -10.2095   20.3072 C   0  0  0  0  0  0
  -21.6837   -6.0697   22.5278 C   0  0  0  0  0  0
  -21.4000   -6.5613   23.8205 C   0  0  0  0  0  0
  -21.3656   -5.6767   24.9172 C   0  0  0  0  0  0
  -21.6054   -4.3032   24.7224 C   0  0  0  0  0  0
  -21.8829   -3.8122   23.4347 C   0  0  0  0  0  0
  -21.9198   -4.6932   22.3404 C   0  0  0  0  0  0
  -22.7806  -13.5215   21.1868 C   0  0  0  0  0  0
  -22.1669   -4.2116   21.0978 F   0  0  0  0  0  0
  -21.5634   -3.4522   25.7739 F   0  0  0  0  0  0
  -29.9999  -13.4652   20.3698 N   0  0  0  0  0  0
  -26.2873  -12.9157   20.3305 N   0  0  0  0  0  0
  -25.9214  -11.6350   20.5797 N   0  0  0  0  0  0
  -22.0424  -12.8256   22.0439 N   0  0  0  0  0  0
  -25.4211  -15.1769   20.4090 N   0  0  0  0  0  0
  -31.9092  -14.6739   20.2040 O   0  0  0  0  0  0
  -21.6610   -6.8827   21.4237 O   0  0  0  0  0  0
  -22.3524  -14.5518   20.6690 O   0  0  0  0  0  0
  -24.6219  -31.8619   23.2057 C   0  0  0  0  0  0
  -25.9096  -32.4786   23.8361 C   0  0  1  0  0  0
  -27.2289  -27.3555   20.1133 C   0  0  0  0  0  0
  -25.5937  -33.8592   24.2298 N   0  0  0  0  0  0
  -23.4134  -30.4878   21.5467 C   0  0  2  0  0  0
  -24.8606  -28.9511   20.1073 C   0  0  0  0  0  0
  -22.7459  -29.4633   22.4945 C   0  0  0  0  0  0
  -18.0272  -28.1389   22.8471 C   0  0  0  0  0  0
  -24.1489  -36.7289   23.2638 C   0  0  0  0  0  0
  -25.9504  -30.8052   21.3715 C   0  0  0  0  0  0
  -26.0252  -29.4359   20.7146 C   0  0  0  0  0  0
  -27.2091  -28.6484   20.7135 C   0  0  0  0  0  0
  -26.0456  -26.9253   19.4650 C   0  0  0  0  0  0
  -24.8713  -27.6999   19.4730 C   0  0  0  0  0  0
  -23.6262  -29.8252   20.1598 C   0  0  0  0  0  0
  -25.4109  -36.3090   24.0339 C   0  0  1  0  0  0
  -20.5868  -28.3685   23.1295 C   0  0  2  0  0  0
  -20.6760  -26.9418   22.5418 C   0  0  0  0  0  0
  -19.5756  -26.6390   21.5199 C   0  0  0  0  0  0
  -18.1918  -26.7937   22.1592 C   0  0  0  0  0  0
  -19.1526  -28.8853   23.2875 C   0  0  0  0  0  0
  -18.9454  -30.1449   23.8894 C   0  0  0  0  0  0
  -17.6457  -30.6589   24.0559 C   0  0  0  0  0  0
  -25.9047  -34.9461   23.5109 C   0  0  0  0  0  0
  -16.5341  -29.9093   23.6337 C   0  0  0  0  0  0
  -16.7263  -28.6510   23.0348 C   0  0  0  0  0  0
  -26.4491  -31.6586   25.0719 C   0  0  0  0  0  0
  -25.3743  -31.3756   26.1469 C   0  0  0  0  0  0
  -27.0288  -30.3002   24.6160 C   0  0  0  0  0  0
  -27.6071  -32.4307   25.7471 C   0  0  0  0  0  0
  -27.5582  -37.1791   24.8459 C   0  0  0  0  0  0
  -21.4178  -29.3038   22.3697 N   0  0  0  0  0  0
  -26.4284  -37.3788   23.9421 N   0  0  0  0  0  0
  -24.6797  -31.0682   22.0975 N   0  0  0  0  0  0
  -23.4207  -28.8186   23.3016 O   0  0  0  0  0  0
  -28.3628  -26.5379   20.1899 O   0  0  0  0  0  0
  -26.5608  -34.8927   22.4670 O   0  0  0  0  0  0
  -23.5397  -32.1398   23.7419 O   0  0  0  0  0  0
  -30.7763  -18.3079   20.9873 C   0  0  0  0  0  0
  -29.0874  -17.7550   19.3251 C   0  0  0  0  0  0
  -30.5951  -16.8818   21.6254 C   0  0  0  0  0  0
  -28.9369  -16.3229   19.9123 C   0  0  0  0  0  0
  -29.5118  -18.8985   20.2949 C   0  0  0  0  0  0
  -31.1949  -21.8485   20.8979 C   0  0  0  0  0  0
  -28.8649  -20.4403   18.3877 C   0  0  0  0  0  0
  -29.2171  -24.0741   20.5196 C   0  0  0  0  0  0
  -28.2218  -25.1131   19.8715 C   0  0  0  0  0  0
  -29.7449  -21.5176   20.4896 C   0  0  1  0  0  0
  -30.0423  -15.8179   20.7474 N   0  0  0  0  0  0
  -29.1479  -22.7428   19.8567 N   0  0  0  0  0  0
  -29.7132  -20.2629   19.6083 N   0  3  1  0  0  0
  -31.4612  -12.4933   19.1309 H   0  0  0  0  0  0
  -30.3445  -11.4232   19.9301 H   0  0  0  0  0  0
  -29.7656  -11.6969   17.4949 H   0  0  0  0  0  0
  -29.6147  -13.4238   17.7063 H   0  0  0  0  0  0
  -27.8867  -11.2348   18.9153 H   0  0  0  0  0  0
  -27.3557  -12.4622   17.7979 H   0  0  0  0  0  0
  -27.5715  -14.1752   19.4145 H   0  0  0  0  0  0
  -28.7186  -12.1790   21.4459 H   0  0  0  0  0  0
  -28.4342  -13.8768   21.7455 H   0  0  0  0  0  0
  -25.2701   -9.5660   22.4742 H   0  0  0  0  0  0
  -23.9980   -7.4587   22.7460 H   0  0  0  0  0  0
  -21.0782   -8.8707   19.8958 H   0  0  0  0  0  0
  -22.3608  -10.9622   19.6170 H   0  0  0  0  0  0
  -21.1971   -7.6116   23.9696 H   0  0  0  0  0  0
  -21.1472   -6.0491   25.9067 H   0  0  0  0  0  0
  -22.0614   -2.7582   23.2848 H   0  0  0  0  0  0
  -22.4020  -11.9932   22.4866 H   0  0  0  0  0  0
  -21.1046  -13.1322   22.2615 H   0  0  0  0  0  0
  -24.6563  -15.8336   20.5206 H   0  0  0  0  0  0
  -26.2730  -15.6128   20.0843 H   0  0  0  0  0  0
  -26.7163  -32.5483   23.1109 H   0  0  0  0  0  0
  -25.0139  -33.9757   25.0477 H   0  0  0  0  0  0
  -22.7029  -31.3054   21.4081 H   0  0  0  0  0  0
  -23.3760  -35.9611   23.3286 H   0  0  0  0  0  0
  -24.3592  -36.8916   22.2056 H   0  0  0  0  0  0
  -23.7228  -37.6485   23.6655 H   0  0  0  0  0  0
  -26.0797  -31.5723   20.6064 H   0  0  0  0  0  0
  -26.8309  -30.8511   22.0004 H   0  0  0  0  0  0
  -28.0998  -29.0177   21.2030 H   0  0  0  0  0  0
  -25.9940  -25.9800   18.9460 H   0  0  0  0  0  0
  -23.9845  -27.3268   18.9802 H   0  0  0  0  0  0
  -23.7422  -30.6016   19.4030 H   0  0  0  0  0  0
  -22.7474  -29.2518   19.8601 H   0  0  0  0  0  0
  -25.1288  -36.1925   25.0832 H   0  0  0  0  0  0
  -20.9948  -28.3252   24.1419 H   0  0  0  0  0  0
  -20.5621  -26.2311   23.3621 H   0  0  0  0  0  0
  -21.6641  -26.7437   22.1246 H   0  0  0  0  0  0
  -19.6928  -25.6291   21.1254 H   0  0  0  0  0  0
  -19.6720  -27.3175   20.6708 H   0  0  0  0  0  0
  -17.4215  -26.6680   21.3973 H   0  0  0  0  0  0
  -18.0315  -26.0074   22.8985 H   0  0  0  0  0  0
  -19.7934  -30.7247   24.2274 H   0  0  0  0  0  0
  -17.5024  -31.6270   24.5164 H   0  0  0  0  0  0
  -15.5344  -30.2991   23.7674 H   0  0  0  0  0  0
  -15.8661  -28.0837   22.7062 H   0  0  0  0  0  0
  -24.5938  -30.7056   25.7841 H   0  0  0  0  0  0
  -24.8906  -32.2930   26.4832 H   0  0  0  0  0  0
  -25.8094  -30.9014   27.0277 H   0  0  0  0  0  0
  -26.2823  -29.6784   24.1198 H   0  0  0  0  0  0
  -27.3983  -29.7244   25.4656 H   0  0  0  0  0  0
  -27.8720  -30.4270   23.9363 H   0  0  0  0  0  0
  -27.2700  -33.3619   26.2041 H   0  0  0  0  0  0
  -28.3874  -32.6835   25.0276 H   0  0  0  0  0  0
  -28.0743  -31.8430   26.5388 H   0  0  0  0  0  0
  -28.2594  -38.0093   24.7508 H   0  0  0  0  0  0
  -28.1074  -36.2623   24.6248 H   0  0  0  0  0  0
  -27.2326  -37.1413   25.8872 H   0  0  0  0  0  0
  -20.9347  -29.8780   21.6930 H   0  0  0  0  0  0
  -26.0161  -38.2864   24.1426 H   0  0  0  0  0  0
  -31.5947  -18.2634   20.2676 H   0  0  0  0  0  0
  -31.1070  -18.9751   21.7806 H   0  0  0  0  0  0
  -28.1264  -17.9911   18.8661 H   0  0  0  0  0  0
  -29.8146  -17.6984   18.5131 H   0  0  0  0  0  0
  -29.9226  -16.9632   22.4811 H   0  0  0  0  0  0
  -31.5504  -16.5605   22.0448 H   0  0  0  0  0  0
  -28.8444  -15.6915   19.0312 H   0  0  0  0  0  0
  -28.0146  -16.2499   20.4875 H   0  0  0  0  0  0
  -28.7205  -19.0160   21.0368 H   0  0  0  0  0  0
  -31.2327  -22.6538   21.6303 H   0  0  0  0  0  0
  -31.8003  -22.1506   20.0426 H   0  0  0  0  0  0
  -31.6982  -21.0065   21.3664 H   0  0  0  0  0  0
  -28.9890  -19.6454   17.6562 H   0  0  0  0  0  0
  -29.1344  -21.3325   17.8234 H   0  0  0  0  0  0
  -27.8095  -20.5088   18.6556 H   0  0  0  0  0  0
  -28.9934  -23.9734   21.5833 H   0  0  0  0  0  0
  -30.2364  -24.4572   20.4453 H   0  0  0  0  0  0
  -27.2362  -24.7574   20.1693 H   0  0  0  0  0  0
  -28.2744  -25.0285   18.7853 H   0  0  0  0  0  0
  -29.1647  -21.3101   21.3913 H   0  0  0  0  0  0
  -29.5351  -22.8701   18.9266 H   0  0  0  0  0  0
  -30.6435  -20.2022   19.2216 H   0  0  0  0  0  0
  1 25  1  0  0  0
  1 30  2  0  0  0
  1 81  1  0  0  0
  2  3  1  0  0  0
  2 25  1  0  0  0
  2 84  1  0  0  0
  2 85  1  0  0  0
  3  4  1  0  0  0
  3 86  1  0  0  0
  3 87  1  0  0  0
  4  5  1  0  0  0
  4 88  1  0  0  0
  4 89  1  0  0  0
  5  6  1  0  0  0
  5 26  1  0  0  0
  5 90  1  0  0  0
  6 25  1  0  0  0
  6 91  1  0  0  0
  6 92  1  0  0  0
  7  8  2  0  0  0
  7 26  1  0  0  0
  7 29  1  0  0  0
  8  9  1  0  0  0
  8 22  1  0  0  0
  9 10  1  0  0  0
  9 27  2  0  0  0
 10 11  2  0  0  0
 10 15  1  0  0  0
 11 12  1  0  0  0
 11 93  1  0  0  0
 12 13  2  0  0  0
 12 94  1  0  0  0
 13 14  1  0  0  0
 13 31  1  0  0  0
 14 15  2  0  0  0
 14 95  1  0  0  0
 15 96  1  0  0  0
 16 17  2  0  0  0
 16 21  1  0  0  0
 16 31  1  0  0  0
 17 18  1  0  0  0
 17 97  1  0  0  0
 18 19  2  0  0  0
 18 98  1  0  0  0
 19 20  1  0  0  0
 19 24  1  0  0  0
 20 21  2  0  0  0
 20 99  1  0  0  0
 21 23  1  0  0  0
 22 28  1  0  0  0
 22 32  2  0  0  0
 26 27  1  0  0  0
 28100  1  0  0  0
 28101  1  0  0  0
 29102  1  0  0  0
 29103  1  0  0  0
 33 34  1  0  0  0
 33 66  1  0  0  0
 33 70  2  0  0  0
 34 36  1  0  0  0
 34 59  1  0  0  0
 34104  1  0  0  0
 35 44  2  0  0  0
 35 45  1  0  0  0
 35 68  1  0  0  0
 36 56  1  0  0  0
 36105  1  0  0  0
 37 39  1  0  0  0
 37 47  1  0  0  0
 37 66  1  0  0  0
 37106  1  0  0  0
 38 43  2  0  0  0
 38 46  1  0  0  0
 38 47  1  0  0  0
 39 64  1  0  0  0
 39 67  2  0  0  0
 40 52  1  0  0  0
 40 53  2  0  0  0
 40 58  1  0  0  0
 41107  1  0  0  0
 41108  1  0  0  0
 41109  1  0  0  0
 41 48  1  0  0  0
 42 43  1  0  0  0
 42 66  1  0  0  0
 42110  1  0  0  0
 42111  1  0  0  0
 43 44  1  0  0  0
 44112  1  0  0  0
 45 46  2  0  0  0
 45113  1  0  0  0
 46114  1  0  0  0
 47115  1  0  0  0
 47116  1  0  0  0
 48 56  1  0  0  0
 48 65  1  0  0  0
 48117  1  0  0  0
 49 50  1  0  0  0
 49 53  1  0  0  0
 49 64  1  0  0  0
 49118  1  0  0  0
 50 51  1  0  0  0
 50119  1  0  0  0
 50120  1  0  0  0
 51 52  1  0  0  0
 51121  1  0  0  0
 51122  1  0  0  0
 52123  1  0  0  0
 52124  1  0  0  0
 53 54  1  0  0  0
 54 55  2  0  0  0
 54125  1  0  0  0
 55 57  1  0  0  0
 55126  1  0  0  0
 56 69  2  0  0  0
 57 58  2  0  0  0
 57127  1  0  0  0
 58128  1  0  0  0
 59 60  1  0  0  0
 59 61  1  0  0  0
 59 62  1  0  0  0
 60129  1  0  0  0
 60130  1  0  0  0
 60131  1  0  0  0
 61132  1  0  0  0
 61133  1  0  0  0
 61134  1  0  0  0
 62135  1  0  0  0
 62136  1  0  0  0
 62137  1  0  0  0
 63 65  1  0  0  0
 63138  1  0  0  0
 63139  1  0  0  0
 63140  1  0  0  0
 64141  1  0  0  0
 65142  1  0  0  0
 68 79  1  0  0  0
 71 73  1  0  0  0
 71143  1  0  0  0
 71144  1  0  0  0
 71 75  1  0  0  0
 72 74  1  0  0  0
 72 75  1  0  0  0
 72145  1  0  0  0
 72146  1  0  0  0
 73 81  1  0  0  0
 73147  1  0  0  0
 73148  1  0  0  0
 74 81  1  0  0  0
 74149  1  0  0  0
 74150  1  0  0  0
 75 83  1  0  0  0
 75151  1  0  0  0
 76152  1  0  0  0
 76153  1  0  0  0
 76154  1  0  0  0
 76 80  1  0  0  0
 77155  1  0  0  0
 77156  1  0  0  0
 77157  1  0  0  0
 77 83  1  0  0  0
 78 79  1  0  0  0
 78 82  1  0  0  0
 78158  1  0  0  0
 78159  1  0  0  0
 79160  1  0  0  0
 79161  1  0  0  0
 80 82  1  0  0  0
 80 83  1  0  0  0
 80162  1  0  0  0
 82163  1  0  0  0
 83164  1  0  0  0
M  CHG  1  83   1
M  ISO  4   1 100  68 101  79 101  81 100
M  END
> <chiral flag>
0

> <version>
0

> <s_m_source_file>
/data/baiqing/PycharmProjects/Reinvent-master-3.2/result/LINK_invent/BTK/process_docking_weight1_custom_sum_contain_oxygen_bond_distance_aromatic_linkinvent_7_9_3/rearranged_h_0198.sdf

> <i_m_source_file_index>
52

> <r_mmod_Potential_Energy-OPLS-2005>
264.890930175781

> <r_mmod_Stretch_Energy-OPLS-2005>
76.4801483154297

> <r_mmod_Bend_Energy-OPLS-2005>
160.791290283203

> <r_mmod_Torsional_Energy-OPLS-2005>
344.0078125

> <r_mmod_Improper_Torsional_Energy-OPLS-2005>
3.27598190307617

> <r_mmod_Van_der_Waal_Energy-OPLS-2005>
158.739059448242

> <r_mmod_Electrostatic_Energy-OPLS-2005>
-100.655059814453

> <r_mmod_Solvation_Energy-OPLS-2005>
-429.738311767578

> <b_mmod_Minimization_Converged-OPLS-2005>
0

> <r_mmod_RMS_Derivative-OPLS-2005>
2.20682764053345

$$$$
52
                    3D
 Structure written by MMmdl.
164174  0  0  1  0            999 V2000
  -30.6485  -14.7043   20.4628 C   0  0  0  0  0  0
  -30.4209  -12.4298   19.4576 C   0  0  0  0  0  0
  -29.5012  -12.5148   18.2199 C   0  0  0  0  0  0
  -28.0286  -12.3401   18.6397 C   0  0  0  0  0  0
  -27.6444  -13.2326   19.8505 C   0  0  2  0  0  0
  -28.6929  -13.1737   20.9848 C   0  0  0  0  0  0
  -25.2543  -13.8224   20.5718 C   0  0  0  0  0  0
  -24.1809  -13.0473   20.9165 C   0  0  0  0  0  0
  -24.6396  -11.6937   20.8710 C   0  0  0  0  0  0
  -23.9072  -10.4318   21.0398 C   0  0  0  0  0  0
  -24.3616   -9.4227   21.9178 C   0  0  0  0  0  0
  -23.6291   -8.2260   22.0749 C   0  0  0  0  0  0
  -22.4277   -8.0276   21.3530 C   0  0  0  0  0  0
  -21.9922   -9.0265   20.4655 C   0  0  0  0  0  0
  -22.7237  -10.2150   20.3046 C   0  0  0  0  0  0
  -21.6873   -6.0727   22.5267 C   0  0  0  0  0  0
  -21.4031   -6.5623   23.8199 C   0  0  0  0  0  0
  -21.3666   -5.6764   24.9150 C   0  0  0  0  0  0
  -21.6035   -4.3030   24.7199 C   0  0  0  0  0  0
  -21.8823   -3.8137   23.4315 C   0  0  0  0  0  0
  -21.9209   -4.6962   22.3383 C   0  0  0  0  0  0
  -22.7831  -13.5269   21.1837 C   0  0  0  0  0  0
  -22.1668   -4.2153   21.0958 F   0  0  0  0  0  0
  -21.5641   -3.4507   25.7716 F   0  0  0  0  0  0
  -29.9978  -13.4929   20.3961 N   0  0  0  0  0  0
  -26.2965  -12.9417   20.3301 N   0  0  0  0  0  0
  -25.9329  -11.6557   20.5727 N   0  0  0  0  0  0
  -22.0471  -12.8257   22.0382 N   0  0  0  0  0  0
  -25.4291  -15.1947   20.4202 N   0  0  0  0  0  0
  -31.8303  -14.7936   20.1221 O   0  0  0  0  0  0
  -21.6624   -6.8876   21.4234 O   0  0  0  0  0  0
  -22.3525  -14.5587   20.6705 O   0  0  0  0  0  0
  -24.6310  -31.8562   23.2006 C   0  0  0  0  0  0
  -25.9150  -32.4761   23.8341 C   0  0  1  0  0  0
  -27.2307  -27.2938   20.1186 C   0  0  0  0  0  0
  -25.5958  -33.8562   24.2276 N   0  0  0  0  0  0
  -23.4256  -30.4824   21.5408 C   0  0  2  0  0  0
  -24.8703  -28.9278   20.1103 C   0  0  0  0  0  0
  -22.7500  -29.4630   22.4891 C   0  0  0  0  0  0
  -18.0299  -28.1403   22.8473 C   0  0  0  0  0  0
  -24.1495  -36.7287   23.2637 C   0  0  0  0  0  0
  -25.9684  -30.7807   21.3716 C   0  0  0  0  0  0
  -26.0411  -29.4058   20.7129 C   0  0  0  0  0  0
  -27.2184  -28.5990   20.7074 C   0  0  0  0  0  0
  -26.0247  -26.8580   19.5206 C   0  0  0  0  0  0
  -24.8636  -27.6578   19.5120 C   0  0  0  0  0  0
  -23.6439  -29.8174   20.1556 C   0  0  0  0  0  0
  -25.4119  -36.3075   24.0332 C   0  0  1  0  0  0
  -20.5901  -28.3722   23.1258 C   0  0  2  0  0  0
  -20.6791  -26.9436   22.5405 C   0  0  0  0  0  0
  -19.5771  -26.6394   21.5209 C   0  0  0  0  0  0
  -18.1947  -26.7955   22.1607 C   0  0  0  0  0  0
  -19.1553  -28.8880   23.2869 C   0  0  0  0  0  0
  -18.9472  -30.1471   23.8900 C   0  0  0  0  0  0
  -17.6473  -30.6600   24.0570 C   0  0  0  0  0  0
  -25.9056  -34.9443   23.5097 C   0  0  0  0  0  0
  -16.5363  -29.9097   23.6324 C   0  0  0  0  0  0
  -16.7291  -28.6516   23.0345 C   0  0  0  0  0  0
  -26.4525  -31.6597   25.0733 C   0  0  0  0  0  0
  -25.3760  -31.3754   26.1474 C   0  0  0  0  0  0
  -27.0362  -30.3015   24.6207 C   0  0  0  0  0  0
  -27.6080  -32.4350   25.7494 C   0  0  0  0  0  0
  -27.5586  -37.1797   24.8466 C   0  0  0  0  0  0
  -21.4212  -29.3069   22.3634 N   0  0  0  0  0  0
  -26.4295  -37.3775   23.9415 N   0  0  0  0  0  0
  -24.6943  -31.0578   22.0938 N   0  0  0  0  0  0
  -23.4210  -28.8158   23.2974 O   0  0  0  0  0  0
  -28.3537  -26.4477   20.2224 O   0  0  0  0  0  0
  -26.5607  -34.8915   22.4650 O   0  0  0  0  0  0
  -23.5472  -32.1358   23.7321 O   0  0  0  0  0  0
  -27.8365  -21.8737   20.0300 C   0  0  0  0  0  0
  -29.2098  -21.7383   20.3957 C   0  0  0  0  0  0
  -29.6122  -23.0824   20.3711 C   0  0  0  0  0  0
  -31.9385  -24.1398   19.7329 C   0  0  0  0  0  0
  -32.2681  -23.0416   20.7163 C   0  0  0  0  0  0
  -29.6380  -16.5976   21.8082 C   0  0  0  0  0  0
  -29.5823  -16.7096   19.3592 C   0  0  0  0  0  0
  -30.0017  -18.1370   21.8316 C   0  0  0  0  0  0
  -29.9149  -18.2566   19.4243 C   0  0  0  0  0  0
  -30.9170  -23.7245   20.7625 C   0  0  0  0  0  0
  -30.0467  -20.4372   20.7635 C   0  0  0  0  0  0
  -28.5548  -25.3244   19.3222 C   0  0  0  0  0  0
  -27.4712  -23.1263   19.7316 N   0  0  0  0  0  0
  -28.5638  -23.9126   19.8999 N   0  0  0  0  0  0
  -29.8782  -15.8578   20.5480 N   0  0  0  0  0  0
  -29.5311  -18.9821   20.6795 N   0  3  0  0  0  0
  -31.4668  -12.5294   19.1622 H   0  0  0  0  0  0
  -30.3308  -11.4516   19.9306 H   0  0  0  0  0  0
  -29.7734  -11.7559   17.4829 H   0  0  0  0  0  0
  -29.6310  -13.4795   17.7245 H   0  0  0  0  0  0
  -27.8805  -11.2905   18.8928 H   0  0  0  0  0  0
  -27.3698  -12.5437   17.7936 H   0  0  0  0  0  0
  -27.6391  -14.2544   19.4684 H   0  0  0  0  0  0
  -28.7156  -12.1934   21.4616 H   0  0  0  0  0  0
  -28.4414  -13.8905   21.7678 H   0  0  0  0  0  0
  -25.2782   -9.5723   22.4720 H   0  0  0  0  0  0
  -24.0015   -7.4678   22.7462 H   0  0  0  0  0  0
  -21.0858   -8.8781   19.8977 H   0  0  0  0  0  0
  -22.3698  -10.9663   19.6137 H   0  0  0  0  0  0
  -21.2011   -7.6141   23.9704 H   0  0  0  0  0  0
  -21.1488   -6.0486   25.9050 H   0  0  0  0  0  0
  -22.0613   -2.7608   23.2790 H   0  0  0  0  0  0
  -22.4069  -11.9901   22.4767 H   0  0  0  0  0  0
  -21.1114  -13.1326   22.2598 H   0  0  0  0  0  0
  -24.6770  -15.8615   20.5485 H   0  0  0  0  0  0
  -26.2970  -15.6296   20.1365 H   0  0  0  0  0  0
  -26.7215  -32.5418   23.1080 H   0  0  0  0  0  0
  -25.0183  -33.9703   25.0477 H   0  0  0  0  0  0
  -22.7229  -31.3052   21.3958 H   0  0  0  0  0  0
  -23.3758  -35.9620   23.3307 H   0  0  0  0  0  0
  -24.3584  -36.8893   22.2049 H   0  0  0  0  0  0
  -23.7251  -37.6495   23.6645 H   0  0  0  0  0  0
  -26.1067  -31.5433   20.6043 H   0  0  0  0  0  0
  -26.8473  -30.8276   22.0029 H   0  0  0  0  0  0
  -28.1166  -28.9625   21.1869 H   0  0  0  0  0  0
  -25.9351  -25.8641   19.1084 H   0  0  0  0  0  0
  -23.9564  -27.2707   19.0683 H   0  0  0  0  0  0
  -23.7825  -30.5966   19.4048 H   0  0  0  0  0  0
  -22.7603  -29.2600   19.8394 H   0  0  0  0  0  0
  -25.1296  -36.1915   25.0826 H   0  0  0  0  0  0
  -21.0012  -28.3321   24.1377 H   0  0  0  0  0  0
  -20.5693  -26.2344   23.3620 H   0  0  0  0  0  0
  -21.6661  -26.7466   22.1205 H   0  0  0  0  0  0
  -19.6931  -25.6297   21.1266 H   0  0  0  0  0  0
  -19.6718  -27.3182   20.6723 H   0  0  0  0  0  0
  -17.4224  -26.6717   21.3998 H   0  0  0  0  0  0
  -18.0334  -26.0098   22.9000 H   0  0  0  0  0  0
  -19.7948  -30.7284   24.2284 H   0  0  0  0  0  0
  -17.5027  -31.6278   24.5181 H   0  0  0  0  0  0
  -15.5361  -30.3001   23.7657 H   0  0  0  0  0  0
  -15.8691  -28.0838   22.7058 H   0  0  0  0  0  0
  -24.5912  -30.7127   25.7814 H   0  0  0  0  0  0
  -24.8990  -32.2934   26.4920 H   0  0  0  0  0  0
  -25.8102  -30.8917   27.0235 H   0  0  0  0  0  0
  -26.2923  -29.6758   24.1266 H   0  0  0  0  0  0
  -27.4084  -29.7298   25.4719 H   0  0  0  0  0  0
  -27.8793  -30.4299   23.9414 H   0  0  0  0  0  0
  -27.2685  -33.3651   26.2068 H   0  0  0  0  0  0
  -28.3884  -32.6919   25.0316 H   0  0  0  0  0  0
  -28.0767  -31.8491   26.5411 H   0  0  0  0  0  0
  -28.2604  -38.0093   24.7507 H   0  0  0  0  0  0
  -28.1077  -36.2620   24.6288 H   0  0  0  0  0  0
  -27.2310  -37.1458   25.8872 H   0  0  0  0  0  0
  -20.9396  -29.8796   21.6842 H   0  0  0  0  0  0
  -26.0172  -38.2848   24.1415 H   0  0  0  0  0  0
  -27.0901  -21.0970   19.9483 H   0  0  0  0  0  0
  -31.7699  -23.8496   18.6983 H   0  0  0  0  0  0
  -32.4259  -25.1040   19.8698 H   0  0  0  0  0  0
  -32.9732  -23.2791   21.5133 H   0  0  0  0  0  0
  -32.3794  -22.0498   20.2907 H   0  0  0  0  0  0
  -28.5828  -16.4803   22.0547 H   0  0  0  0  0  0
  -30.1791  -16.1094   22.6216 H   0  0  0  0  0  0
  -30.0803  -16.2891   18.4837 H   0  0  0  0  0  0
  -28.5184  -16.5977   19.1479 H   0  0  0  0  0  0
  -31.0873  -18.2306   21.8954 H   0  0  0  0  0  0
  -29.6193  -18.5621   22.7604 H   0  0  0  0  0  0
  -29.4561  -18.7638   18.5739 H   0  0  0  0  0  0
  -30.9899  -18.3661   19.2776 H   0  0  0  0  0  0
  -30.7609  -24.3992   21.6018 H   0  0  0  0  0  0
  -30.4130  -20.5795   21.7799 H   0  0  0  0  0  0
  -30.9589  -20.4382   20.1713 H   0  0  0  0  0  0
  -27.8775  -25.3463   18.4681 H   0  0  0  0  0  0
  -29.5400  -25.4803   18.8825 H   0  0  0  0  0  0
  -28.5240  -19.0108   20.7347 H   0  0  0  0  0  0
  1 25  1  0  0  0
  1 30  2  0  0  0
  1 85  1  0  0  0
  2  3  1  0  0  0
  2 25  1  0  0  0
  2 87  1  0  0  0
  2 88  1  0  0  0
  3  4  1  0  0  0
  3 89  1  0  0  0
  3 90  1  0  0  0
  4  5  1  0  0  0
  4 91  1  0  0  0
  4 92  1  0  0  0
  5  6  1  0  0  0
  5 26  1  0  0  0
  5 93  1  0  0  0
  6 25  1  0  0  0
  6 94  1  0  0  0
  6 95  1  0  0  0
  7  8  2  0  0  0
  7 26  1  0  0  0
  7 29  1  0  0  0
  8  9  1  0  0  0
  8 22  1  0  0  0
  9 10  1  0  0  0
  9 27  2  0  0  0
 10 11  2  0  0  0
 10 15  1  0  0  0
 11 12  1  0  0  0
 11 96  1  0  0  0
 12 13  2  0  0  0
 12 97  1  0  0  0
 13 14  1  0  0  0
 13 31  1  0  0  0
 14 15  2  0  0  0
 14 98  1  0  0  0
 15 99  1  0  0  0
 16 17  2  0  0  0
 16 21  1  0  0  0
 16 31  1  0  0  0
 17 18  1  0  0  0
 17100  1  0  0  0
 18 19  2  0  0  0
 18101  1  0  0  0
 19 20  1  0  0  0
 19 24  1  0  0  0
 20 21  2  0  0  0
 20102  1  0  0  0
 21 23  1  0  0  0
 22 28  1  0  0  0
 22 32  2  0  0  0
 26 27  1  0  0  0
 28103  1  0  0  0
 28104  1  0  0  0
 29105  1  0  0  0
 29106  1  0  0  0
 33 34  1  0  0  0
 33 66  1  0  0  0
 33 70  2  0  0  0
 34 36  1  0  0  0
 34 59  1  0  0  0
 34107  1  0  0  0
 35 44  2  0  0  0
 35 45  1  0  0  0
 35 68  1  0  0  0
 36 56  1  0  0  0
 36108  1  0  0  0
 37 39  1  0  0  0
 37 47  1  0  0  0
 37 66  1  0  0  0
 37109  1  0  0  0
 38 43  2  0  0  0
 38 46  1  0  0  0
 38 47  1  0  0  0
 39 64  1  0  0  0
 39 67  2  0  0  0
 40 52  1  0  0  0
 40 53  2  0  0  0
 40 58  1  0  0  0
 41110  1  0  0  0
 41111  1  0  0  0
 41112  1  0  0  0
 41 48  1  0  0  0
 42 43  1  0  0  0
 42 66  1  0  0  0
 42113  1  0  0  0
 42114  1  0  0  0
 43 44  1  0  0  0
 44115  1  0  0  0
 45 46  2  0  0  0
 45116  1  0  0  0
 46117  1  0  0  0
 47118  1  0  0  0
 47119  1  0  0  0
 48 56  1  0  0  0
 48 65  1  0  0  0
 48120  1  0  0  0
 49 50  1  0  0  0
 49 53  1  0  0  0
 49 64  1  0  0  0
 49121  1  0  0  0
 50 51  1  0  0  0
 50122  1  0  0  0
 50123  1  0  0  0
 51 52  1  0  0  0
 51124  1  0  0  0
 51125  1  0  0  0
 52126  1  0  0  0
 52127  1  0  0  0
 53 54  1  0  0  0
 54 55  2  0  0  0
 54128  1  0  0  0
 55 57  1  0  0  0
 55129  1  0  0  0
 56 69  2  0  0  0
 57 58  2  0  0  0
 57130  1  0  0  0
 58131  1  0  0  0
 59 60  1  0  0  0
 59 61  1  0  0  0
 59 62  1  0  0  0
 60132  1  0  0  0
 60133  1  0  0  0
 60134  1  0  0  0
 61135  1  0  0  0
 61136  1  0  0  0
 61137  1  0  0  0
 62138  1  0  0  0
 62139  1  0  0  0
 62140  1  0  0  0
 63 65  1  0  0  0
 63141  1  0  0  0
 63142  1  0  0  0
 63143  1  0  0  0
 64144  1  0  0  0
 65145  1  0  0  0
 68 82  1  0  0  0
 71 72  1  0  0  0
 71 83  2  0  0  0
 71146  1  0  0  0
 72 73  2  0  0  0
 72 81  1  0  0  0
 73 84  1  0  0  0
 73 80  1  0  0  0
 74 75  1  0  0  0
 74 80  1  0  0  0
 74147  1  0  0  0
 74148  1  0  0  0
 75 80  1  0  0  0
 75149  1  0  0  0
 75150  1  0  0  0
 76 78  1  0  0  0
 76 85  1  0  0  0
 76151  1  0  0  0
 76152  1  0  0  0
 77 79  1  0  0  0
 77 85  1  0  0  0
 77153  1  0  0  0
 77154  1  0  0  0
 78 86  1  0  0  0
 78155  1  0  0  0
 78156  1  0  0  0
 79 86  1  0  0  0
 79157  1  0  0  0
 79158  1  0  0  0
 80159  1  0  0  0
 81160  1  0  0  0
 81161  1  0  0  0
 81 86  1  0  0  0
 82 84  1  0  0  0
 82162  1  0  0  0
 82163  1  0  0  0
 83 84  1  0  0  0
 86164  1  0  0  0
M  CHG  1  86   1
M  ISO  4   1 100  68 101  82 101  85 100
M  END
> <chiral flag>
0

> <version>
0

> <s_m_source_file>
/data/baiqing/PycharmProjects/Reinvent-master-3.2/result/LINK_invent/BTK/process_docking_weight1_custom_sum_contain_oxygen_bond_distance_aromatic_linkinvent_7_9_3/rearranged_h_0198.sdf

> <i_m_source_file_index>
53

> <r_mmod_Potential_Energy-OPLS-2005>
241.426727294922

> <r_mmod_Stretch_Energy-OPLS-2005>
101.416282653809

> <r_mmod_Bend_Energy-OPLS-2005>
182.945510864258

> <r_mmod_Torsional_Energy-OPLS-2005>
435.817321777344

> <r_mmod_Improper_Torsional_Energy-OPLS-2005>
12.5089511871338

> <r_mmod_Van_der_Waal_Energy-OPLS-2005>
112.683654785156

> <r_mmod_Electrostatic_Energy-OPLS-2005>
-210.340362548828

> <r_mmod_Solvation_Energy-OPLS-2005>
-462.989074707031

> <b_mmod_Minimization_Converged-OPLS-2005>
0

> <r_mmod_RMS_Derivative-OPLS-2005>
3.53362512588501

$$$$
53
                    3D
 Structure written by MMmdl.
162171  0  0  1  0            999 V2000
  -30.7265  -14.4623   20.5371 C   0  0  0  0  0  0
  -30.4098  -12.2839   19.4438 C   0  0  0  0  0  0
  -29.4948  -12.4794   18.2190 C   0  0  0  0  0  0
  -28.0158  -12.3538   18.6304 C   0  0  0  0  0  0
  -27.6587  -13.2118   19.8736 C   0  0  2  0  0  0
  -28.7003  -13.0317   21.0020 C   0  0  0  0  0  0
  -25.2584  -13.8162   20.5671 C   0  0  0  0  0  0
  -24.1828  -13.0467   20.9192 C   0  0  0  0  0  0
  -24.6365  -11.6926   20.8762 C   0  0  0  0  0  0
  -23.9032  -10.4313   21.0409 C   0  0  0  0  0  0
  -24.3584   -9.4223   21.9180 C   0  0  0  0  0  0
  -23.6269   -8.2260   22.0754 C   0  0  0  0  0  0
  -22.4261   -8.0294   21.3541 C   0  0  0  0  0  0
  -21.9891   -9.0268   20.4643 C   0  0  0  0  0  0
  -22.7216  -10.2146   20.3052 C   0  0  0  0  0  0
  -21.6859   -6.0717   22.5269 C   0  0  0  0  0  0
  -21.4013   -6.5610   23.8206 C   0  0  0  0  0  0
  -21.3666   -5.6771   24.9173 C   0  0  0  0  0  0
  -21.6047   -4.3037   24.7225 C   0  0  0  0  0  0
  -21.8822   -3.8124   23.4346 C   0  0  0  0  0  0
  -21.9196   -4.6938   22.3402 C   0  0  0  0  0  0
  -22.7853  -13.5292   21.1862 C   0  0  0  0  0  0
  -22.1672   -4.2125   21.0982 F   0  0  0  0  0  0
  -21.5635   -3.4516   25.7733 F   0  0  0  0  0  0
  -30.0298  -13.3006   20.4382 N   0  0  0  0  0  0
  -26.3009  -12.9334   20.3371 N   0  0  0  0  0  0
  -25.9302  -11.6501   20.5800 N   0  0  0  0  0  0
  -22.0451  -12.8306   22.0378 N   0  0  0  0  0  0
  -25.4398  -15.1857   20.4001 N   0  0  0  0  0  0
  -31.8841  -14.5728   20.1225 O   0  0  0  0  0  0
  -21.6652   -6.8869   21.4233 O   0  0  0  0  0  0
  -22.3572  -14.5628   20.6738 O   0  0  0  0  0  0
  -24.6110  -31.8702   23.2120 C   0  0  0  0  0  0
  -25.9012  -32.4834   23.8401 C   0  0  1  0  0  0
  -27.2311  -27.4437   20.0893 C   0  0  0  0  0  0
  -25.5882  -33.8636   24.2336 N   0  0  0  0  0  0
  -23.3964  -30.4939   21.5531 C   0  0  2  0  0  0
  -24.8400  -28.9610   20.1129 C   0  0  0  0  0  0
  -22.7385  -29.4662   22.5006 C   0  0  0  0  0  0
  -18.0264  -28.1374   22.8486 C   0  0  0  0  0  0
  -24.1485  -36.7322   23.2641 C   0  0  0  0  0  0
  -25.9222  -30.8381   21.3617 C   0  0  0  0  0  0
  -25.9972  -29.4717   20.7109 C   0  0  0  0  0  0
  -27.1904  -28.7173   20.7013 C   0  0  0  0  0  0
  -26.0540  -26.9487   19.4801 C   0  0  0  0  0  0
  -24.8631  -27.6990   19.4959 C   0  0  0  0  0  0
  -23.6014  -29.8269   20.1662 C   0  0  0  0  0  0
  -25.4107  -36.3127   24.0341 C   0  0  1  0  0  0
  -20.5844  -28.3655   23.1329 C   0  0  2  0  0  0
  -20.6753  -26.9395   22.5419 C   0  0  0  0  0  0
  -19.5738  -26.6386   21.5209 C   0  0  0  0  0  0
  -18.1916  -26.7921   22.1616 C   0  0  0  0  0  0
  -19.1508  -28.8830   23.2904 C   0  0  0  0  0  0
  -18.9444  -30.1435   23.8913 C   0  0  0  0  0  0
  -17.6444  -30.6582   24.0565 C   0  0  0  0  0  0
  -25.9029  -34.9490   23.5139 C   0  0  0  0  0  0
  -16.5336  -29.9084   23.6320 C   0  0  0  0  0  0
  -16.7251  -28.6499   23.0345 C   0  0  0  0  0  0
  -26.4457  -31.6605   25.0714 C   0  0  0  0  0  0
  -25.3736  -31.3694   26.1473 C   0  0  0  0  0  0
  -27.0277  -30.3055   24.6049 C   0  0  0  0  0  0
  -27.6044  -32.4322   25.7471 C   0  0  0  0  0  0
  -27.5580  -37.1819   24.8467 C   0  0  0  0  0  0
  -21.4118  -29.3028   22.3743 N   0  0  0  0  0  0
  -26.4296  -37.3806   23.9407 N   0  0  0  0  0  0
  -24.6614  -31.0814   22.1008 N   0  0  0  0  0  0
  -23.4175  -28.8206   23.3033 O   0  0  0  0  0  0
  -28.4270  -26.7563   20.1177 O   0  0  0  0  0  0
  -26.5590  -34.8936   22.4701 O   0  0  0  0  0  0
  -23.5312  -32.1448   23.7535 O   0  0  0  0  0  0
  -26.8697  -21.7490   21.9181 C   0  0  0  0  0  0
  -30.0560  -17.7070   19.5866 C   0  0  0  0  0  0
  -26.9847  -20.2576   22.2458 C   0  0  0  0  0  0
  -28.0197  -20.4902   20.2084 C   0  0  0  0  0  0
  -29.8693  -18.2166   20.9914 C   0  0  2  0  0  0
  -30.5871  -16.8874   20.7411 C   0  0  2  0  0  0
  -27.3932  -21.8765   20.4792 C   0  0  2  0  0  0
  -28.4630  -18.4468   21.5231 C   0  0  0  0  0  0
  -27.8743  -24.3614   20.5666 C   0  0  0  0  0  0
  -28.5200  -25.4129   19.6279 C   0  0  0  0  0  0
  -28.2024  -19.8942   21.5343 N   0  0  0  0  0  0
  -30.0336  -15.5639   20.8904 N   0  0  0  0  0  0
  -28.3694  -22.9815   20.2984 N   0  3  0  0  0  0
  -31.4597  -12.3456   19.1499 H   0  0  0  0  0  0
  -30.2835  -11.2859   19.8653 H   0  0  0  0  0  0
  -29.7308  -11.7425   17.4507 H   0  0  0  0  0  0
  -29.6786  -13.4563   17.7691 H   0  0  0  0  0  0
  -27.8190  -11.3016   18.8390 H   0  0  0  0  0  0
  -27.3715  -12.6200   17.7936 H   0  0  0  0  0  0
  -27.6944  -14.2532   19.5525 H   0  0  0  0  0  0
  -28.6691  -12.0170   21.3981 H   0  0  0  0  0  0
  -28.4782  -13.6832   21.8493 H   0  0  0  0  0  0
  -25.2716   -9.5697   22.4772 H   0  0  0  0  0  0
  -23.9953   -7.4646   22.7479 H   0  0  0  0  0  0
  -21.0824   -8.8803   19.8941 H   0  0  0  0  0  0
  -22.3683  -10.9691   19.6173 H   0  0  0  0  0  0
  -21.2007   -7.6120   23.9705 H   0  0  0  0  0  0
  -21.1495   -6.0497   25.9077 H   0  0  0  0  0  0
  -22.0600   -2.7577   23.2862 H   0  0  0  0  0  0
  -22.4003  -11.9943   22.4774 H   0  0  0  0  0  0
  -21.1082  -13.1384   22.2590 H   0  0  0  0  0  0
  -24.6775  -15.8495   20.4770 H   0  0  0  0  0  0
  -26.2940  -15.5958   20.0454 H   0  0  0  0  0  0
  -26.7075  -32.5560   23.1161 H   0  0  0  0  0  0
  -25.0046  -33.9805   25.0488 H   0  0  0  0  0  0
  -22.6835  -31.3106   21.4183 H   0  0  0  0  0  0
  -23.3744  -35.9657   23.3319 H   0  0  0  0  0  0
  -24.3573  -36.8918   22.2050 H   0  0  0  0  0  0
  -23.7237  -37.6535   23.6636 H   0  0  0  0  0  0
  -26.0290  -31.6028   20.5921 H   0  0  0  0  0  0
  -26.8130  -30.8953   21.9754 H   0  0  0  0  0  0
  -28.0828  -29.1121   21.1669 H   0  0  0  0  0  0
  -26.0297  -25.9920   18.9823 H   0  0  0  0  0  0
  -23.9738  -27.3046   19.0247 H   0  0  0  0  0  0
  -23.7072  -30.6038   19.4078 H   0  0  0  0  0  0
  -22.7238  -29.2470   19.8725 H   0  0  0  0  0  0
  -25.1285  -36.2003   25.0832 H   0  0  0  0  0  0
  -20.9929  -28.3214   24.1453 H   0  0  0  0  0  0
  -20.5651  -26.2263   23.3598 H   0  0  0  0  0  0
  -21.6630  -26.7440   22.1219 H   0  0  0  0  0  0
  -19.6902  -25.6305   21.1226 H   0  0  0  0  0  0
  -19.6681  -27.3209   20.6747 H   0  0  0  0  0  0
  -17.4188  -26.6669   21.4013 H   0  0  0  0  0  0
  -18.0320  -26.0058   22.9009 H   0  0  0  0  0  0
  -19.7928  -30.7242   24.2290 H   0  0  0  0  0  0
  -17.5011  -31.6268   24.5168 H   0  0  0  0  0  0
  -15.5342  -30.3002   23.7639 H   0  0  0  0  0  0
  -15.8647  -28.0837   22.7050 H   0  0  0  0  0  0
  -24.5905  -30.7041   25.7811 H   0  0  0  0  0  0
  -24.8926  -32.2841   26.4950 H   0  0  0  0  0  0
  -25.8106  -30.8846   27.0212 H   0  0  0  0  0  0
  -26.2792  -29.6832   24.1121 H   0  0  0  0  0  0
  -27.4087  -29.7279   25.4484 H   0  0  0  0  0  0
  -27.8618  -30.4399   23.9154 H   0  0  0  0  0  0
  -27.2659  -33.3610   26.2083 H   0  0  0  0  0  0
  -28.3826  -32.6905   25.0272 H   0  0  0  0  0  0
  -28.0732  -31.8419   26.5356 H   0  0  0  0  0  0
  -28.2622  -38.0099   24.7507 H   0  0  0  0  0  0
  -28.1058  -36.2632   24.6305 H   0  0  0  0  0  0
  -27.2293  -37.1487   25.8872 H   0  0  0  0  0  0
  -20.9265  -29.8763   21.6986 H   0  0  0  0  0  0
  -26.0193  -38.2890   24.1403 H   0  0  0  0  0  0
  -27.4839  -22.3187   22.6155 H   0  0  0  0  0  0
  -25.8443  -22.1077   22.0174 H   0  0  0  0  0  0
  -30.7781  -18.2194   18.9562 H   0  0  0  0  0  0
  -29.1770  -17.3315   19.0649 H   0  0  0  0  0  0
  -26.1251  -19.7026   21.8622 H   0  0  0  0  0  0
  -27.0602  -20.0696   23.3185 H   0  0  0  0  0  0
  -28.9585  -20.5456   19.6546 H   0  0  0  0  0  0
  -27.3284  -19.8842   19.6172 H   0  0  0  0  0  0
  -30.5567  -19.0018   21.3057 H   0  0  0  0  0  0
  -31.6609  -16.9580   20.9177 H   0  0  0  0  0  0
  -26.5638  -22.0312   19.7862 H   0  0  0  0  0  0
  -28.4187  -18.0657   22.5455 H   0  0  0  0  0  0
  -27.7264  -17.8930   20.9381 H   0  0  0  0  0  0
  -26.7894  -24.3994   20.4754 H   0  0  0  0  0  0
  -28.1052  -24.6048   21.6040 H   0  0  0  0  0  0
  -28.1432  -25.3394   18.6073 H   0  0  0  0  0  0
  -29.5891  -25.2124   19.5565 H   0  0  0  0  0  0
  -29.0727  -15.4593   21.1786 H   0  0  0  0  0  0
  -28.6826  -22.9363   19.3415 H   0  0  0  0  0  0
  -29.1760  -22.7960   20.8752 H   0  0  0  0  0  0
  1 25  1  0  0  0
  1 30  2  0  0  0
  1 82  1  0  0  0
  2  3  1  0  0  0
  2 25  1  0  0  0
  2 84  1  0  0  0
  2 85  1  0  0  0
  3  4  1  0  0  0
  3 86  1  0  0  0
  3 87  1  0  0  0
  4  5  1  0  0  0
  4 88  1  0  0  0
  4 89  1  0  0  0
  5  6  1  0  0  0
  5 26  1  0  0  0
  5 90  1  0  0  0
  6 25  1  0  0  0
  6 91  1  0  0  0
  6 92  1  0  0  0
  7  8  2  0  0  0
  7 26  1  0  0  0
  7 29  1  0  0  0
  8  9  1  0  0  0
  8 22  1  0  0  0
  9 10  1  0  0  0
  9 27  2  0  0  0
 10 11  2  0  0  0
 10 15  1  0  0  0
 11 12  1  0  0  0
 11 93  1  0  0  0
 12 13  2  0  0  0
 12 94  1  0  0  0
 13 14  1  0  0  0
 13 31  1  0  0  0
 14 15  2  0  0  0
 14 95  1  0  0  0
 15 96  1  0  0  0
 16 17  2  0  0  0
 16 21  1  0  0  0
 16 31  1  0  0  0
 17 18  1  0  0  0
 17 97  1  0  0  0
 18 19  2  0  0  0
 18 98  1  0  0  0
 19 20  1  0  0  0
 19 24  1  0  0  0
 20 21  2  0  0  0
 20 99  1  0  0  0
 21 23  1  0  0  0
 22 28  1  0  0  0
 22 32  2  0  0  0
 26 27  1  0  0  0
 28100  1  0  0  0
 28101  1  0  0  0
 29102  1  0  0  0
 29103  1  0  0  0
 33 34  1  0  0  0
 33 66  1  0  0  0
 33 70  2  0  0  0
 34 36  1  0  0  0
 34 59  1  0  0  0
 34104  1  0  0  0
 35 44  2  0  0  0
 35 45  1  0  0  0
 35 68  1  0  0  0
 36 56  1  0  0  0
 36105  1  0  0  0
 37 39  1  0  0  0
 37 47  1  0  0  0
 37 66  1  0  0  0
 37106  1  0  0  0
 38 43  2  0  0  0
 38 46  1  0  0  0
 38 47  1  0  0  0
 39 64  1  0  0  0
 39 67  2  0  0  0
 40 52  1  0  0  0
 40 53  2  0  0  0
 40 58  1  0  0  0
 41107  1  0  0  0
 41108  1  0  0  0
 41109  1  0  0  0
 41 48  1  0  0  0
 42 43  1  0  0  0
 42 66  1  0  0  0
 42110  1  0  0  0
 42111  1  0  0  0
 43 44  1  0  0  0
 44112  1  0  0  0
 45 46  2  0  0  0
 45113  1  0  0  0
 46114  1  0  0  0
 47115  1  0  0  0
 47116  1  0  0  0
 48 56  1  0  0  0
 48 65  1  0  0  0
 48117  1  0  0  0
 49 50  1  0  0  0
 49 53  1  0  0  0
 49 64  1  0  0  0
 49118  1  0  0  0
 50 51  1  0  0  0
 50119  1  0  0  0
 50120  1  0  0  0
 51 52  1  0  0  0
 51121  1  0  0  0
 51122  1  0  0  0
 52123  1  0  0  0
 52124  1  0  0  0
 53 54  1  0  0  0
 54 55  2  0  0  0
 54125  1  0  0  0
 55 57  1  0  0  0
 55126  1  0  0  0
 56 69  2  0  0  0
 57 58  2  0  0  0
 57127  1  0  0  0
 58128  1  0  0  0
 59 60  1  0  0  0
 59 61  1  0  0  0
 59 62  1  0  0  0
 60129  1  0  0  0
 60130  1  0  0  0
 60131  1  0  0  0
 61132  1  0  0  0
 61133  1  0  0  0
 61134  1  0  0  0
 62135  1  0  0  0
 62136  1  0  0  0
 62137  1  0  0  0
 63 65  1  0  0  0
 63138  1  0  0  0
 63139  1  0  0  0
 63140  1  0  0  0
 64141  1  0  0  0
 65142  1  0  0  0
 68 80  1  0  0  0
 71 73  1  0  0  0
 71 77  1  0  0  0
 71143  1  0  0  0
 71144  1  0  0  0
 72 75  1  0  0  0
 72 76  1  0  0  0
 72145  1  0  0  0
 72146  1  0  0  0
 73 81  1  0  0  0
 73147  1  0  0  0
 73148  1  0  0  0
 74 77  1  0  0  0
 74 81  1  0  0  0
 74149  1  0  0  0
 74150  1  0  0  0
 75 76  1  0  0  0
 75 78  1  0  0  0
 75151  1  0  0  0
 76 82  1  0  0  0
 76152  1  0  0  0
 77 83  1  0  0  0
 77153  1  0  0  0
 78 81  1  0  0  0
 78154  1  0  0  0
 78155  1  0  0  0
 79 80  1  0  0  0
 79 83  1  0  0  0
 79156  1  0  0  0
 79157  1  0  0  0
 80158  1  0  0  0
 80159  1  0  0  0
 82160  1  0  0  0
 83161  1  0  0  0
 83162  1  0  0  0
M  CHG  1  83   1
M  ISO  4   1 100  68 101  80 101  82 100
M  END
> <chiral flag>
0

> <version>
0

> <s_m_source_file>
/data/baiqing/PycharmProjects/Reinvent-master-3.2/result/LINK_invent/BTK/process_docking_weight1_custom_sum_contain_oxygen_bond_distance_aromatic_linkinvent_7_9_3/rearranged_h_0198.sdf

> <i_m_source_file_index>
54

> <r_mmod_Potential_Energy-OPLS-2005>
-50.321102142334

> <r_mmod_Stretch_Energy-OPLS-2005>
34.5705299377441

> <r_mmod_Bend_Energy-OPLS-2005>
138.228408813477

> <r_mmod_Torsional_Energy-OPLS-2005>
323.816497802734

> <r_mmod_Improper_Torsional_Energy-OPLS-2005>
5.36013269424438

> <r_mmod_Van_der_Waal_Energy-OPLS-2005>
130.986099243164

> <r_mmod_Electrostatic_Energy-OPLS-2005>
-244.096130371094

> <r_mmod_Solvation_Energy-OPLS-2005>
-455.146026611328

> <b_mmod_Minimization_Converged-OPLS-2005>
0

> <r_mmod_RMS_Derivative-OPLS-2005>
2.32489967346191

$$$$
54
                    3D
 Structure written by MMmdl.
169179  0  0  1  0            999 V2000
  -30.7239  -14.4469   20.5981 C   0  0  0  0  0  0
  -30.4356  -12.2771   19.4602 C   0  0  0  0  0  0
  -29.5223  -12.4560   18.2306 C   0  0  0  0  0  0
  -28.0367  -12.3483   18.6260 C   0  0  0  0  0  0
  -27.6736  -13.1962   19.8771 C   0  0  2  0  0  0
  -28.7053  -12.9875   21.0074 C   0  0  0  0  0  0
  -25.2697  -13.8133   20.5662 C   0  0  0  0  0  0
  -24.1944  -13.0441   20.9210 C   0  0  0  0  0  0
  -24.6459  -11.6904   20.8763 C   0  0  0  0  0  0
  -23.9095  -10.4305   21.0414 C   0  0  0  0  0  0
  -24.3647   -9.4220   21.9199 C   0  0  0  0  0  0
  -23.6300   -8.2260   22.0756 C   0  0  0  0  0  0
  -22.4297   -8.0326   21.3532 C   0  0  0  0  0  0
  -21.9920   -9.0304   20.4635 C   0  0  0  0  0  0
  -22.7263  -10.2183   20.3061 C   0  0  0  0  0  0
  -21.6822   -6.0802   22.5304 C   0  0  0  0  0  0
  -21.4003   -6.5668   23.8253 C   0  0  0  0  0  0
  -21.3672   -5.6802   24.9190 C   0  0  0  0  0  0
  -21.6045   -4.3069   24.7220 C   0  0  0  0  0  0
  -21.8794   -3.8197   23.4329 C   0  0  0  0  0  0
  -21.9199   -4.7024   22.3402 C   0  0  0  0  0  0
  -22.7962  -13.5254   21.1844 C   0  0  0  0  0  0
  -22.1661   -4.2211   21.0978 F   0  0  0  0  0  0
  -21.5648   -3.4567   25.7736 F   0  0  0  0  0  0
  -30.0409  -13.2770   20.4624 N   0  0  0  0  0  0
  -26.3098  -12.9270   20.3335 N   0  0  0  0  0  0
  -25.9374  -11.6450   20.5763 N   0  0  0  0  0  0
  -22.0566  -12.8302   22.0397 N   0  0  0  0  0  0
  -25.4463  -15.1845   20.3960 N   0  0  0  0  0  0
  -31.8318  -14.6339   20.0847 O   0  0  0  0  0  0
  -21.6631   -6.8930   21.4252 O   0  0  0  0  0  0
  -22.3700  -14.5541   20.6622 O   0  0  0  0  0  0
  -24.6168  -31.8687   23.2112 C   0  0  0  0  0  0
  -25.9070  -32.4813   23.8383 C   0  0  1  0  0  0
  -27.2129  -27.4234   20.0633 C   0  0  0  0  0  0
  -25.5917  -33.8612   24.2300 N   0  0  0  0  0  0
  -23.3991  -30.4968   21.5583 C   0  0  2  0  0  0
  -24.8325  -28.9616   20.1184 C   0  0  0  0  0  0
  -22.7413  -29.4673   22.5032 C   0  0  0  0  0  0
  -18.0263  -28.1400   22.8488 C   0  0  0  0  0  0
  -24.1480  -36.7313   23.2632 C   0  0  0  0  0  0
  -25.9322  -30.8255   21.3643 C   0  0  0  0  0  0
  -26.0008  -29.4623   20.7041 C   0  0  0  0  0  0
  -27.1937  -28.7034   20.6692 C   0  0  0  0  0  0
  -26.0130  -26.9308   19.4927 C   0  0  0  0  0  0
  -24.8329  -27.6948   19.5151 C   0  0  0  0  0  0
  -23.6013  -29.8370   20.1703 C   0  0  0  0  0  0
  -25.4103  -36.3095   24.0325 C   0  0  1  0  0  0
  -20.5858  -28.3680   23.1331 C   0  0  2  0  0  0
  -20.6769  -26.9421   22.5429 C   0  0  0  0  0  0
  -19.5745  -26.6397   21.5229 C   0  0  0  0  0  0
  -18.1917  -26.7941   22.1631 C   0  0  0  0  0  0
  -19.1514  -28.8853   23.2899 C   0  0  0  0  0  0
  -18.9454  -30.1467   23.8896 C   0  0  0  0  0  0
  -17.6460  -30.6601   24.0575 C   0  0  0  0  0  0
  -25.9051  -34.9467   23.5101 C   0  0  0  0  0  0
  -16.5347  -29.9112   23.6333 C   0  0  0  0  0  0
  -16.7256  -28.6538   23.0331 C   0  0  0  0  0  0
  -26.4486  -31.6603   25.0722 C   0  0  0  0  0  0
  -25.3768  -31.3740   26.1493 C   0  0  0  0  0  0
  -27.0290  -30.3034   24.6111 C   0  0  0  0  0  0
  -27.6056  -32.4338   25.7481 C   0  0  0  0  0  0
  -27.5584  -37.1786   24.8446 C   0  0  0  0  0  0
  -21.4153  -29.3028   22.3741 N   0  0  0  0  0  0
  -26.4268  -37.3808   23.9431 N   0  0  0  0  0  0
  -24.6687  -31.0785   22.1018 N   0  0  0  0  0  0
  -23.4189  -28.8210   23.3061 O   0  0  0  0  0  0
  -28.3967  -26.7078   20.0315 O   0  0  0  0  0  0
  -26.5625  -34.8937   22.4674 O   0  0  0  0  0  0
  -23.5362  -32.1449   23.7517 O   0  0  0  0  0  0
  -30.1565  -20.3902   24.4480 C   0  0  0  0  0  0
  -30.9844  -20.9783   21.9494 C   0  0  0  0  0  0
  -31.1837  -21.8667   23.0375 C   0  0  0  0  0  0
  -30.4143  -19.7242   22.2833 C   0  0  0  0  0  0
  -33.2917  -23.4164   22.6141 C   0  0  0  0  0  0
  -32.8513  -23.6116   24.0408 C   0  0  0  0  0  0
  -29.4301  -16.5274   20.5580 C   0  0  0  0  0  0
  -30.8672  -16.4403   22.0423 C   0  0  0  0  0  0
  -31.8356  -23.2209   22.9864 C   0  0  0  0  0  0
  -29.7607  -17.4421   21.7284 C   0  0  0  0  0  0
  -31.4186  -21.2648   20.4999 C   0  0  0  0  0  0
  -31.2138  -22.6927   19.9292 C   0  0  0  0  0  0
  -29.7514  -24.6950   19.8348 C   0  0  0  0  0  0
  -28.3245  -25.2823   19.8494 C   0  0  0  0  0  0
  -30.7283  -21.5684   24.2617 N   0  0  0  0  0  0
  -30.0015  -19.4479   23.5314 N   0  0  0  0  0  0
  -30.1036  -15.4322   21.2825 N   0  0  0  0  0  0
  -29.8256  -23.2128   20.0135 N   0  3  0  0  0  0
  -30.2488  -18.7355   21.3255 O   0  0  0  0  0  0
  -31.4865  -12.3565   19.1787 H   0  0  0  0  0  0
  -30.3361  -11.2780   19.8833 H   0  0  0  0  0  0
  -29.7555  -11.6867   17.4952 H   0  0  0  0  0  0
  -29.7300  -13.4148   17.7491 H   0  0  0  0  0  0
  -27.8205  -11.2937   18.8176 H   0  0  0  0  0  0
  -27.4118  -12.6438   17.7832 H   0  0  0  0  0  0
  -27.7175  -14.2400   19.5729 H   0  0  0  0  0  0
  -28.6667  -11.9631   21.3829 H   0  0  0  0  0  0
  -28.4647  -13.6151   21.8617 H   0  0  0  0  0  0
  -25.2785   -9.5697   22.4790 H   0  0  0  0  0  0
  -24.0032   -7.4630   22.7434 H   0  0  0  0  0  0
  -21.0891   -8.8819   19.8912 H   0  0  0  0  0  0
  -22.3738  -10.9748   19.6184 H   0  0  0  0  0  0
  -21.1959   -7.6173   23.9787 H   0  0  0  0  0  0
  -21.1533   -6.0516   25.9095 H   0  0  0  0  0  0
  -22.0570   -2.7664   23.2797 H   0  0  0  0  0  0
  -22.4064  -11.9922   22.4805 H   0  0  0  0  0  0
  -21.1192  -13.1403   22.2536 H   0  0  0  0  0  0
  -24.6708  -15.8337   20.4577 H   0  0  0  0  0  0
  -26.2854  -15.6149   20.0282 H   0  0  0  0  0  0
  -26.7126  -32.5498   23.1122 H   0  0  0  0  0  0
  -25.0030  -33.9776   25.0415 H   0  0  0  0  0  0
  -22.6847  -31.3125   21.4273 H   0  0  0  0  0  0
  -23.3748  -35.9633   23.3251 H   0  0  0  0  0  0
  -24.3572  -36.8991   22.2054 H   0  0  0  0  0  0
  -23.7217  -37.6493   23.6695 H   0  0  0  0  0  0
  -26.0496  -31.5932   20.5980 H   0  0  0  0  0  0
  -26.8180  -30.8708   21.9860 H   0  0  0  0  0  0
  -28.1024  -29.0931   21.1066 H   0  0  0  0  0  0
  -25.9461  -25.9685   19.0076 H   0  0  0  0  0  0
  -23.9305  -27.3033   19.0666 H   0  0  0  0  0  0
  -23.7169  -30.6163   19.4161 H   0  0  0  0  0  0
  -22.7191  -29.2695   19.8693 H   0  0  0  0  0  0
  -25.1268  -36.1924   25.0813 H   0  0  0  0  0  0
  -20.9923  -28.3251   24.1466 H   0  0  0  0  0  0
  -20.5718  -26.2286   23.3619 H   0  0  0  0  0  0
  -21.6640  -26.7500   22.1198 H   0  0  0  0  0  0
  -19.6915  -25.6310   21.1255 H   0  0  0  0  0  0
  -19.6683  -27.3219   20.6770 H   0  0  0  0  0  0
  -17.4194  -26.6679   21.4028 H   0  0  0  0  0  0
  -18.0314  -26.0093   22.9040 H   0  0  0  0  0  0
  -19.7933  -30.7281   24.2265 H   0  0  0  0  0  0
  -17.5021  -31.6282   24.5188 H   0  0  0  0  0  0
  -15.5353  -30.3024   23.7661 H   0  0  0  0  0  0
  -15.8656  -28.0878   22.7026 H   0  0  0  0  0  0
  -24.5848  -30.7201   25.7833 H   0  0  0  0  0  0
  -24.9094  -32.2929   26.5048 H   0  0  0  0  0  0
  -25.8127  -30.8797   27.0186 H   0  0  0  0  0  0
  -26.2814  -29.6809   24.1188 H   0  0  0  0  0  0
  -27.4052  -29.7267   25.4568 H   0  0  0  0  0  0
  -27.8665  -30.4312   23.9251 H   0  0  0  0  0  0
  -27.2646  -33.3617   26.2090 H   0  0  0  0  0  0
  -28.3849  -32.6948   25.0306 H   0  0  0  0  0  0
  -28.0747  -31.8459   26.5379 H   0  0  0  0  0  0
  -28.2542  -38.0148   24.7594 H   0  0  0  0  0  0
  -28.1141  -36.2684   24.6124 H   0  0  0  0  0  0
  -27.2329  -37.1264   25.8855 H   0  0  0  0  0  0
  -20.9331  -29.8725   21.6933 H   0  0  0  0  0  0
  -26.0133  -38.2857   24.1535 H   0  0  0  0  0  0
  -29.7749  -20.1922   25.4377 H   0  0  0  0  0  0
  -33.8663  -22.5258   22.3658 H   0  0  0  0  0  0
  -33.5641  -24.3191   22.0697 H   0  0  0  0  0  0
  -32.8026  -24.6271   24.4249 H   0  0  0  0  0  0
  -33.1606  -22.8542   24.7572 H   0  0  0  0  0  0
  -29.9226  -16.8184   19.6294 H   0  0  0  0  0  0
  -28.3614  -16.3818   20.4023 H   0  0  0  0  0  0
  -31.8243  -16.7192   21.5960 H   0  0  0  0  0  0
  -30.9848  -16.2137   23.1015 H   0  0  0  0  0  0
  -31.1206  -23.9851   22.6891 H   0  0  0  0  0  0
  -28.9407  -17.4512   22.4503 H   0  0  0  0  0  0
  -30.9226  -20.5634   19.8285 H   0  0  0  0  0  0
  -32.4794  -21.0232   20.4311 H   0  0  0  0  0  0
  -31.5103  -22.7009   18.8777 H   0  0  0  0  0  0
  -31.8965  -23.3911   20.4018 H   0  0  0  0  0  0
  -30.3277  -25.1768   20.6257 H   0  0  0  0  0  0
  -30.2250  -24.9656   18.8917 H   0  0  0  0  0  0
  -27.7410  -24.8532   20.6661 H   0  0  0  0  0  0
  -27.8405  -25.0088   18.9099 H   0  0  0  0  0  0
  -29.4373  -22.9590   20.9082 H   0  0  0  0  0  0
  -29.2756  -22.7502   19.3037 H   0  0  0  0  0  0
  1 25  1  0  0  0
  1 30  2  0  0  0
  1 87  1  0  0  0
  2  3  1  0  0  0
  2 25  1  0  0  0
  2 90  1  0  0  0
  2 91  1  0  0  0
  3  4  1  0  0  0
  3 92  1  0  0  0
  3 93  1  0  0  0
  4  5  1  0  0  0
  4 94  1  0  0  0
  4 95  1  0  0  0
  5  6  1  0  0  0
  5 26  1  0  0  0
  5 96  1  0  0  0
  6 25  1  0  0  0
  6 97  1  0  0  0
  6 98  1  0  0  0
  7  8  2  0  0  0
  7 26  1  0  0  0
  7 29  1  0  0  0
  8  9  1  0  0  0
  8 22  1  0  0  0
  9 10  1  0  0  0
  9 27  2  0  0  0
 10 11  2  0  0  0
 10 15  1  0  0  0
 11 12  1  0  0  0
 11 99  1  0  0  0
 12 13  2  0  0  0
 12100  1  0  0  0
 13 14  1  0  0  0
 13 31  1  0  0  0
 14 15  2  0  0  0
 14101  1  0  0  0
 15102  1  0  0  0
 16 17  2  0  0  0
 16 21  1  0  0  0
 16 31  1  0  0  0
 17 18  1  0  0  0
 17103  1  0  0  0
 18 19  2  0  0  0
 18104  1  0  0  0
 19 20  1  0  0  0
 19 24  1  0  0  0
 20 21  2  0  0  0
 20105  1  0  0  0
 21 23  1  0  0  0
 22 28  1  0  0  0
 22 32  2  0  0  0
 26 27  1  0  0  0
 28106  1  0  0  0
 28107  1  0  0  0
 29108  1  0  0  0
 29109  1  0  0  0
 33 34  1  0  0  0
 33 66  1  0  0  0
 33 70  2  0  0  0
 34 36  1  0  0  0
 34 59  1  0  0  0
 34110  1  0  0  0
 35 44  2  0  0  0
 35 45  1  0  0  0
 35 68  1  0  0  0
 36 56  1  0  0  0
 36111  1  0  0  0
 37 39  1  0  0  0
 37 47  1  0  0  0
 37 66  1  0  0  0
 37112  1  0  0  0
 38 43  2  0  0  0
 38 46  1  0  0  0
 38 47  1  0  0  0
 39 64  1  0  0  0
 39 67  2  0  0  0
 40 52  1  0  0  0
 40 53  2  0  0  0
 40 58  1  0  0  0
 41113  1  0  0  0
 41114  1  0  0  0
 41115  1  0  0  0
 41 48  1  0  0  0
 42 43  1  0  0  0
 42 66  1  0  0  0
 42116  1  0  0  0
 42117  1  0  0  0
 43 44  1  0  0  0
 44118  1  0  0  0
 45 46  2  0  0  0
 45119  1  0  0  0
 46120  1  0  0  0
 47121  1  0  0  0
 47122  1  0  0  0
 48 56  1  0  0  0
 48 65  1  0  0  0
 48123  1  0  0  0
 49 50  1  0  0  0
 49 53  1  0  0  0
 49 64  1  0  0  0
 49124  1  0  0  0
 50 51  1  0  0  0
 50125  1  0  0  0
 50126  1  0  0  0
 51 52  1  0  0  0
 51127  1  0  0  0
 51128  1  0  0  0
 52129  1  0  0  0
 52130  1  0  0  0
 53 54  1  0  0  0
 54 55  2  0  0  0
 54131  1  0  0  0
 55 57  1  0  0  0
 55132  1  0  0  0
 56 69  2  0  0  0
 57 58  2  0  0  0
 57133  1  0  0  0
 58134  1  0  0  0
 59 60  1  0  0  0
 59 61  1  0  0  0
 59 62  1  0  0  0
 60135  1  0  0  0
 60136  1  0  0  0
 60137  1  0  0  0
 61138  1  0  0  0
 61139  1  0  0  0
 61140  1  0  0  0
 62141  1  0  0  0
 62142  1  0  0  0
 62143  1  0  0  0
 63 65  1  0  0  0
 63144  1  0  0  0
 63145  1  0  0  0
 63146  1  0  0  0
 64147  1  0  0  0
 65148  1  0  0  0
 68 84  1  0  0  0
 71 85  2  0  0  0
 71 86  1  0  0  0
 71149  1  0  0  0
 72 73  2  0  0  0
 72 74  1  0  0  0
 72 81  1  0  0  0
 73 85  1  0  0  0
 73 79  1  0  0  0
 74 86  2  0  0  0
 74 89  1  0  0  0
 75 76  1  0  0  0
 75 79  1  0  0  0
 75150  1  0  0  0
 75151  1  0  0  0
 76 79  1  0  0  0
 76152  1  0  0  0
 76153  1  0  0  0
 77 80  1  0  0  0
 77 87  1  0  0  0
 77154  1  0  0  0
 77155  1  0  0  0
 78 80  1  0  0  0
 78 87  1  0  0  0
 78156  1  0  0  0
 78157  1  0  0  0
 79158  1  0  0  0
 80 89  1  0  0  0
 80159  1  0  0  0
 81 82  1  0  0  0
 81160  1  0  0  0
 81161  1  0  0  0
 82 88  1  0  0  0
 82162  1  0  0  0
 82163  1  0  0  0
 83 84  1  0  0  0
 83 88  1  0  0  0
 83164  1  0  0  0
 83165  1  0  0  0
 84166  1  0  0  0
 84167  1  0  0  0
 88168  1  0  0  0
 88169  1  0  0  0
M  CHG  1  88   1
M  ISO  4   1 100  68 101  84 101  87 100
M  END
> <chiral flag>
0

> <version>
0

> <s_m_source_file>
/data/baiqing/PycharmProjects/Reinvent-master-3.2/result/LINK_invent/BTK/process_docking_weight1_custom_sum_contain_oxygen_bond_distance_aromatic_linkinvent_7_9_3/rearranged_h_0198.sdf

> <i_m_source_file_index>
55

> <r_mmod_Potential_Energy-OPLS-2005>
-569.661987304688

> <r_mmod_Stretch_Energy-OPLS-2005>
40.8440132141113

> <r_mmod_Bend_Energy-OPLS-2005>
124.110496520996

> <r_mmod_Torsional_Energy-OPLS-2005>
280.484039306641

> <r_mmod_Improper_Torsional_Energy-OPLS-2005>
9.99734878540039

> <r_mmod_Van_der_Waal_Energy-OPLS-2005>
168.664733886719

> <r_mmod_Electrostatic_Energy-OPLS-2005>
-744.991760253906

> <r_mmod_Solvation_Energy-OPLS-2005>
-462.561401367188

> <b_mmod_Minimization_Converged-OPLS-2005>
0

> <r_mmod_RMS_Derivative-OPLS-2005>
5.49173641204834

$$$$
55
                    3D
 Structure written by MMmdl.
169179  0  0  1  0            999 V2000
  -30.6934  -14.4972   20.5076 C   0  0  0  0  0  0
  -30.4118  -12.3016   19.4349 C   0  0  0  0  0  0
  -29.4953  -12.4803   18.2075 C   0  0  0  0  0  0
  -28.0138  -12.3579   18.6160 C   0  0  0  0  0  0
  -27.6551  -13.2037   19.8680 C   0  0  2  0  0  0
  -28.6979  -13.0174   20.9937 C   0  0  0  0  0  0
  -25.2578  -13.8141   20.5650 C   0  0  0  0  0  0
  -24.1843  -13.0438   20.9161 C   0  0  0  0  0  0
  -24.6377  -11.6891   20.8724 C   0  0  0  0  0  0
  -23.9034  -10.4302   21.0391 C   0  0  0  0  0  0
  -24.3596   -9.4237   21.9173 C   0  0  0  0  0  0
  -23.6290   -8.2275   22.0767 C   0  0  0  0  0  0
  -22.4271   -8.0302   21.3566 C   0  0  0  0  0  0
  -21.9889   -9.0264   20.4670 C   0  0  0  0  0  0
  -22.7198  -10.2144   20.3066 C   0  0  0  0  0  0
  -21.6864   -6.0752   22.5268 C   0  0  0  0  0  0
  -21.4033   -6.5651   23.8204 C   0  0  0  0  0  0
  -21.3659   -5.6797   24.9157 C   0  0  0  0  0  0
  -21.6037   -4.3059   24.7203 C   0  0  0  0  0  0
  -21.8815   -3.8157   23.4323 C   0  0  0  0  0  0
  -21.9203   -4.6982   22.3389 C   0  0  0  0  0  0
  -22.7885  -13.5272   21.1827 C   0  0  0  0  0  0
  -22.1669   -4.2165   21.0969 F   0  0  0  0  0  0
  -21.5620   -3.4549   25.7721 F   0  0  0  0  0  0
  -30.0194  -13.3166   20.4231 N   0  0  0  0  0  0
  -26.2995  -12.9298   20.3319 N   0  0  0  0  0  0
  -25.9305  -11.6456   20.5736 N   0  0  0  0  0  0
  -22.0512  -12.8316   22.0378 N   0  0  0  0  0  0
  -25.4295  -15.1850   20.4035 N   0  0  0  0  0  0
  -31.8820  -14.5899   20.1872 O   0  0  0  0  0  0
  -21.6660   -6.8888   21.4232 O   0  0  0  0  0  0
  -22.3610  -14.5592   20.6665 O   0  0  0  0  0  0
  -24.6172  -31.8687   23.2110 C   0  0  0  0  0  0
  -25.9066  -32.4813   23.8401 C   0  0  1  0  0  0
  -27.2196  -27.4179   20.0957 C   0  0  0  0  0  0
  -25.5919  -33.8608   24.2341 N   0  0  0  0  0  0
  -23.4038  -30.4947   21.5524 C   0  0  2  0  0  0
  -24.8457  -28.9660   20.1151 C   0  0  0  0  0  0
  -22.7414  -29.4658   22.4974 C   0  0  0  0  0  0
  -18.0262  -28.1387   22.8496 C   0  0  0  0  0  0
  -24.1476  -36.7294   23.2636 C   0  0  0  0  0  0
  -25.9330  -30.8327   21.3635 C   0  0  0  0  0  0
  -26.0095  -29.4653   20.7123 C   0  0  0  0  0  0
  -27.2017  -28.7001   20.6978 C   0  0  0  0  0  0
  -26.0287  -26.9416   19.4957 C   0  0  0  0  0  0
  -24.8496  -27.7033   19.5052 C   0  0  0  0  0  0
  -23.6121  -29.8370   20.1643 C   0  0  0  0  0  0
  -25.4097  -36.3118   24.0340 C   0  0  1  0  0  0
  -20.5866  -28.3674   23.1304 C   0  0  2  0  0  0
  -20.6746  -26.9391   22.5419 C   0  0  0  0  0  0
  -19.5739  -26.6386   21.5203 C   0  0  0  0  0  0
  -18.1916  -26.7930   22.1624 C   0  0  0  0  0  0
  -19.1512  -28.8842   23.2907 C   0  0  0  0  0  0
  -18.9448  -30.1448   23.8933 C   0  0  0  0  0  0
  -17.6450  -30.6592   24.0565 C   0  0  0  0  0  0
  -25.9021  -34.9472   23.5134 C   0  0  0  0  0  0
  -16.5341  -29.9099   23.6326 C   0  0  0  0  0  0
  -16.7248  -28.6514   23.0346 C   0  0  0  0  0  0
  -26.4493  -31.6586   25.0724 C   0  0  0  0  0  0
  -25.3753  -31.3674   26.1468 C   0  0  0  0  0  0
  -27.0301  -30.3039   24.6059 C   0  0  0  0  0  0
  -27.6088  -32.4262   25.7492 C   0  0  0  0  0  0
  -27.5566  -37.1794   24.8471 C   0  0  0  0  0  0
  -21.4138  -29.3039   22.3715 N   0  0  0  0  0  0
  -26.4289  -37.3793   23.9408 N   0  0  0  0  0  0
  -24.6699  -31.0782   22.1023 N   0  0  0  0  0  0
  -23.4167  -28.8178   23.3005 O   0  0  0  0  0  0
  -28.3934  -26.6822   20.0988 O   0  0  0  0  0  0
  -26.5564  -34.8938   22.4688 O   0  0  0  0  0  0
  -23.5357  -32.1444   23.7494 O   0  0  0  0  0  0
  -30.3915  -19.8411   21.0325 C   0  0  0  0  0  0
  -28.8183  -19.6304   22.8489 C   0  0  0  0  0  0
  -30.2150  -18.4562   20.8015 C   0  0  0  0  0  0
  -29.6825  -20.4509   22.0941 C   0  0  0  0  0  0
  -29.3584  -17.7179   21.6455 C   0  0  0  0  0  0
  -30.9247  -17.7504   19.6585 C   0  0  0  0  0  0
  -29.1558  -16.2050   21.4754 C   0  0  0  0  0  0
  -29.7027  -24.6150   19.7580 C   0  0  0  0  0  0
  -30.1427  -16.4975   19.2248 C   0  0  0  0  0  0
  -28.0909  -24.3913   21.1385 C   0  0  1  0  0  0
  -29.1868  -23.4271   20.5971 C   0  0  2  0  0  0
  -28.3241  -25.2591   19.8719 C   0  0  1  0  0  0
  -26.4121  -23.2597   22.7459 C   0  0  0  0  0  0
  -29.8969  -21.9069   22.5527 C   0  0  0  0  0  0
  -26.6611  -23.8972   21.3737 C   0  0  0  0  0  0
  -28.6606  -18.3034   22.6392 N   0  0  0  0  0  0
  -29.9071  -15.5931   20.3645 N   0  0  0  0  0  0
  -30.2295  -22.9506   21.5483 N   0  3  0  0  0  0
  -31.4607  -12.3777   19.1404 H   0  0  0  0  0  0
  -30.2923  -11.3044   19.8581 H   0  0  0  0  0  0
  -29.7374  -11.7327   17.4513 H   0  0  0  0  0  0
  -29.6778  -13.4500   17.7394 H   0  0  0  0  0  0
  -27.8175  -11.3029   18.8108 H   0  0  0  0  0  0
  -27.3706  -12.6343   17.7801 H   0  0  0  0  0  0
  -27.6863  -14.2456   19.5543 H   0  0  0  0  0  0
  -28.6777  -11.9955   21.3736 H   0  0  0  0  0  0
  -28.4667  -13.6523   21.8480 H   0  0  0  0  0  0
  -25.2726   -9.5751   22.4754 H   0  0  0  0  0  0
  -24.0006   -7.4678   22.7497 H   0  0  0  0  0  0
  -21.0828   -8.8770   19.8990 H   0  0  0  0  0  0
  -22.3617  -10.9696   19.6207 H   0  0  0  0  0  0
  -21.2037   -7.6161   23.9711 H   0  0  0  0  0  0
  -21.1477   -6.0528   25.9057 H   0  0  0  0  0  0
  -22.0593   -2.7628   23.2812 H   0  0  0  0  0  0
  -22.4119  -11.9985   22.4797 H   0  0  0  0  0  0
  -21.1145  -13.1403   22.2565 H   0  0  0  0  0  0
  -24.6490  -15.8273   20.4867 H   0  0  0  0  0  0
  -26.2629  -15.6228   20.0320 H   0  0  0  0  0  0
  -26.7137  -32.5536   23.1162 H   0  0  0  0  0  0
  -25.0134  -33.9771   25.0535 H   0  0  0  0  0  0
  -22.6962  -31.3144   21.4196 H   0  0  0  0  0  0
  -23.3754  -35.9610   23.3329 H   0  0  0  0  0  0
  -24.3584  -36.8870   22.2046 H   0  0  0  0  0  0
  -23.7204  -37.6494   23.6636 H   0  0  0  0  0  0
  -26.0354  -31.5956   20.5912 H   0  0  0  0  0  0
  -26.8257  -30.8958   21.9728 H   0  0  0  0  0  0
  -28.1008  -29.0834   21.1633 H   0  0  0  0  0  0
  -25.9697  -25.9831   19.0072 H   0  0  0  0  0  0
  -23.9541  -27.3129   19.0407 H   0  0  0  0  0  0
  -23.7245  -30.6208   19.4127 H   0  0  0  0  0  0
  -22.7353  -29.2618   19.8638 H   0  0  0  0  0  0
  -25.1265  -36.1986   25.0824 H   0  0  0  0  0  0
  -20.9963  -28.3232   24.1423 H   0  0  0  0  0  0
  -20.5632  -26.2255   23.3604 H   0  0  0  0  0  0
  -21.6614  -26.7405   22.1224 H   0  0  0  0  0  0
  -19.6894  -25.6303   21.1217 H   0  0  0  0  0  0
  -19.6702  -27.3217   20.6756 H   0  0  0  0  0  0
  -17.4166  -26.6672   21.4041 H   0  0  0  0  0  0
  -18.0341  -26.0077   22.9040 H   0  0  0  0  0  0
  -19.7924  -30.7244   24.2331 H   0  0  0  0  0  0
  -17.5007  -31.6289   24.5146 H   0  0  0  0  0  0
  -15.5349  -30.3008   23.7641 H   0  0  0  0  0  0
  -15.8649  -28.0850   22.7034 H   0  0  0  0  0  0
  -24.5985  -30.6950   25.7817 H   0  0  0  0  0  0
  -24.8879  -32.2815   26.4879 H   0  0  0  0  0  0
  -25.8125  -30.8903   27.0251 H   0  0  0  0  0  0
  -26.2831  -29.6814   24.1123 H   0  0  0  0  0  0
  -27.4116  -29.7260   25.4487 H   0  0  0  0  0  0
  -27.8658  -30.4393   23.9180 H   0  0  0  0  0  0
  -27.2767  -33.3579   26.2093 H   0  0  0  0  0  0
  -28.3922  -32.6755   25.0317 H   0  0  0  0  0  0
  -28.0740  -31.8338   26.5391 H   0  0  0  0  0  0
  -28.2589  -38.0080   24.7504 H   0  0  0  0  0  0
  -28.1051  -36.2608   24.6328 H   0  0  0  0  0  0
  -27.2287  -37.1479   25.8877 H   0  0  0  0  0  0
  -20.9277  -29.8789   21.6986 H   0  0  0  0  0  0
  -26.0186  -38.2860   24.1460 H   0  0  0  0  0  0
  -31.0735  -20.4093   20.4156 H   0  0  0  0  0  0
  -28.2669  -20.0379   23.6828 H   0  0  0  0  0  0
  -31.9330  -17.4773   19.9766 H   0  0  0  0  0  0
  -31.0419  -18.4334   18.8173 H   0  0  0  0  0  0
  -28.0938  -16.0146   21.3231 H   0  0  0  0  0  0
  -29.4272  -15.7256   22.4177 H   0  0  0  0  0  0
  -30.4723  -25.2045   20.2599 H   0  0  0  0  0  0
  -29.9962  -24.3657   18.7388 H   0  0  0  0  0  0
  -30.6653  -15.9882   18.4116 H   0  0  0  0  0  0
  -29.1756  -16.7830   18.8081 H   0  0  0  0  0  0
  -28.4662  -24.9424   22.0033 H   0  0  0  0  0  0
  -28.7836  -22.6240   19.9744 H   0  0  0  0  0  0
  -27.7321  -24.9472   19.0099 H   0  0  0  0  0  0
  -26.9187  -22.3043   22.8450 H   0  0  0  0  0  0
  -25.3490  -23.0652   22.8876 H   0  0  0  0  0  0
  -26.7321  -23.9138   23.5592 H   0  0  0  0  0  0
  -30.7295  -21.8853   23.2565 H   0  0  0  0  0  0
  -29.0494  -22.2477   23.1435 H   0  0  0  0  0  0
  -26.3764  -23.1924   20.5900 H   0  0  0  0  0  0
  -25.9763  -24.7377   21.2777 H   0  0  0  0  0  0
  -30.5359  -23.7502   22.0815 H   0  0  0  0  0  0
  -31.0352  -22.6440   21.0281 H   0  0  0  0  0  0
  1 25  1  0  0  0
  1 30  2  0  0  0
  1 87  1  0  0  0
  2  3  1  0  0  0
  2 25  1  0  0  0
  2 89  1  0  0  0
  2 90  1  0  0  0
  3  4  1  0  0  0
  3 91  1  0  0  0
  3 92  1  0  0  0
  4  5  1  0  0  0
  4 93  1  0  0  0
  4 94  1  0  0  0
  5  6  1  0  0  0
  5 26  1  0  0  0
  5 95  1  0  0  0
  6 25  1  0  0  0
  6 96  1  0  0  0
  6 97  1  0  0  0
  7  8  2  0  0  0
  7 26  1  0  0  0
  7 29  1  0  0  0
  8  9  1  0  0  0
  8 22  1  0  0  0
  9 10  1  0  0  0
  9 27  2  0  0  0
 10 11  2  0  0  0
 10 15  1  0  0  0
 11 12  1  0  0  0
 11 98  1  0  0  0
 12 13  2  0  0  0
 12 99  1  0  0  0
 13 14  1  0  0  0
 13 31  1  0  0  0
 14 15  2  0  0  0
 14100  1  0  0  0
 15101  1  0  0  0
 16 17  2  0  0  0
 16 21  1  0  0  0
 16 31  1  0  0  0
 17 18  1  0  0  0
 17102  1  0  0  0
 18 19  2  0  0  0
 18103  1  0  0  0
 19 20  1  0  0  0
 19 24  1  0  0  0
 20 21  2  0  0  0
 20104  1  0  0  0
 21 23  1  0  0  0
 22 28  1  0  0  0
 22 32  2  0  0  0
 26 27  1  0  0  0
 28105  1  0  0  0
 28106  1  0  0  0
 29107  1  0  0  0
 29108  1  0  0  0
 33 34  1  0  0  0
 33 66  1  0  0  0
 33 70  2  0  0  0
 34 36  1  0  0  0
 34 59  1  0  0  0
 34109  1  0  0  0
 35 44  2  0  0  0
 35 45  1  0  0  0
 35 68  1  0  0  0
 36 56  1  0  0  0
 36110  1  0  0  0
 37 39  1  0  0  0
 37 47  1  0  0  0
 37 66  1  0  0  0
 37111  1  0  0  0
 38 43  2  0  0  0
 38 46  1  0  0  0
 38 47  1  0  0  0
 39 64  1  0  0  0
 39 67  2  0  0  0
 40 52  1  0  0  0
 40 53  2  0  0  0
 40 58  1  0  0  0
 41112  1  0  0  0
 41113  1  0  0  0
 41114  1  0  0  0
 41 48  1  0  0  0
 42 43  1  0  0  0
 42 66  1  0  0  0
 42115  1  0  0  0
 42116  1  0  0  0
 43 44  1  0  0  0
 44117  1  0  0  0
 45 46  2  0  0  0
 45118  1  0  0  0
 46119  1  0  0  0
 47120  1  0  0  0
 47121  1  0  0  0
 48 56  1  0  0  0
 48 65  1  0  0  0
 48122  1  0  0  0
 49 50  1  0  0  0
 49 53  1  0  0  0
 49 64  1  0  0  0
 49123  1  0  0  0
 50 51  1  0  0  0
 50124  1  0  0  0
 50125  1  0  0  0
 51 52  1  0  0  0
 51126  1  0  0  0
 51127  1  0  0  0
 52128  1  0  0  0
 52129  1  0  0  0
 53 54  1  0  0  0
 54 55  2  0  0  0
 54130  1  0  0  0
 55 57  1  0  0  0
 55131  1  0  0  0
 56 69  2  0  0  0
 57 58  2  0  0  0
 57132  1  0  0  0
 58133  1  0  0  0
 59 60  1  0  0  0
 59 61  1  0  0  0
 59 62  1  0  0  0
 60134  1  0  0  0
 60135  1  0  0  0
 60136  1  0  0  0
 61137  1  0  0  0
 61138  1  0  0  0
 61139  1  0  0  0
 62140  1  0  0  0
 62141  1  0  0  0
 62142  1  0  0  0
 63 65  1  0  0  0
 63143  1  0  0  0
 63144  1  0  0  0
 63145  1  0  0  0
 64146  1  0  0  0
 65147  1  0  0  0
 68 82  1  0  0  0
 71 73  2  0  0  0
 71 74  1  0  0  0
 71148  1  0  0  0
 72 74  2  0  0  0
 72 86  1  0  0  0
 72149  1  0  0  0
 73 75  1  0  0  0
 73 76  1  0  0  0
 74 84  1  0  0  0
 75 77  1  0  0  0
 75 86  2  0  0  0
 76 79  1  0  0  0
 76150  1  0  0  0
 76151  1  0  0  0
 77 87  1  0  0  0
 77152  1  0  0  0
 77153  1  0  0  0
 78 81  1  0  0  0
 78 82  1  0  0  0
 78154  1  0  0  0
 78155  1  0  0  0
 79 87  1  0  0  0
 79156  1  0  0  0
 79157  1  0  0  0
 80 81  1  0  0  0
 80 82  1  0  0  0
 80 85  1  0  0  0
 80158  1  0  0  0
 81 88  1  0  0  0
 81159  1  0  0  0
 82160  1  0  0  0
 83 85  1  0  0  0
 83161  1  0  0  0
 83162  1  0  0  0
 83163  1  0  0  0
 84 88  1  0  0  0
 84164  1  0  0  0
 84165  1  0  0  0
 85166  1  0  0  0
 85167  1  0  0  0
 88168  1  0  0  0
 88169  1  0  0  0
M  CHG  1  88   1
M  ISO  4   1 100  68 101  82 101  87 100
M  END
> <chiral flag>
0

> <version>
0

> <s_m_source_file>
/data/baiqing/PycharmProjects/Reinvent-master-3.2/result/LINK_invent/BTK/process_docking_weight1_custom_sum_contain_oxygen_bond_distance_aromatic_linkinvent_7_9_3/rearranged_h_0198.sdf

> <i_m_source_file_index>
56

> <r_mmod_Potential_Energy-OPLS-2005>
-202.908050537109

> <r_mmod_Stretch_Energy-OPLS-2005>
41.3060684204102

> <r_mmod_Bend_Energy-OPLS-2005>
130.59992980957

> <r_mmod_Torsional_Energy-OPLS-2005>
318.388793945312

> <r_mmod_Improper_Torsional_Energy-OPLS-2005>
22.0995960235596

> <r_mmod_Van_der_Waal_Energy-OPLS-2005>
150.125152587891

> <r_mmod_Electrostatic_Energy-OPLS-2005>
-416.447631835938

> <r_mmod_Solvation_Energy-OPLS-2005>
-469.087493896484

> <b_mmod_Minimization_Converged-OPLS-2005>
0

> <r_mmod_RMS_Derivative-OPLS-2005>
3.54465889930725

$$$$
56
                    3D
 Structure written by MMmdl.
172181  0  0  1  0            999 V2000
  -30.7086  -14.4831   20.4605 C   0  0  0  0  0  0
  -30.4105  -12.2889   19.4255 C   0  0  0  0  0  0
  -29.4880  -12.4713   18.2031 C   0  0  0  0  0  0
  -28.0094  -12.3382   18.6204 C   0  0  0  0  0  0
  -27.6482  -13.2044   19.8574 C   0  0  2  0  0  0
  -28.6993  -13.0532   20.9814 C   0  0  0  0  0  0
  -25.2556  -13.8052   20.5797 C   0  0  0  0  0  0
  -24.1777  -13.0346   20.9143 C   0  0  0  0  0  0
  -24.6355  -11.6831   20.8695 C   0  0  0  0  0  0
  -23.9035  -10.4241   21.0377 C   0  0  0  0  0  0
  -24.3600   -9.4182   21.9170 C   0  0  0  0  0  0
  -23.6285   -8.2220   22.0751 C   0  0  0  0  0  0
  -22.4262   -8.0260   21.3546 C   0  0  0  0  0  0
  -21.9881   -9.0223   20.4644 C   0  0  0  0  0  0
  -22.7204  -10.2096   20.3038 C   0  0  0  0  0  0
  -21.6847   -6.0727   22.5290 C   0  0  0  0  0  0
  -21.4003   -6.5640   23.8218 C   0  0  0  0  0  0
  -21.3656   -5.6795   24.9182 C   0  0  0  0  0  0
  -21.6043   -4.3058   24.7232 C   0  0  0  0  0  0
  -21.8824   -3.8144   23.4359 C   0  0  0  0  0  0
  -21.9189   -4.6956   22.3413 C   0  0  0  0  0  0
  -22.7822  -13.5180   21.1835 C   0  0  0  0  0  0
  -22.1663   -4.2146   21.0988 F   0  0  0  0  0  0
  -21.5630   -3.4538   25.7746 F   0  0  0  0  0  0
  -30.0240  -13.3139   20.4033 N   0  0  0  0  0  0
  -26.2970  -12.9252   20.3355 N   0  0  0  0  0  0
  -25.9288  -11.6418   20.5740 N   0  0  0  0  0  0
  -22.0455  -12.8185   22.0392 N   0  0  0  0  0  0
  -25.4366  -15.1761   20.4600 N   0  0  0  0  0  0
  -31.9138  -14.5491   20.2271 O   0  0  0  0  0  0
  -21.6629   -6.8860   21.4249 O   0  0  0  0  0  0
  -22.3554  -14.5524   20.6732 O   0  0  0  0  0  0
  -24.6110  -31.8702   23.2123 C   0  0  0  0  0  0
  -25.9022  -32.4835   23.8400 C   0  0  1  0  0  0
  -27.2395  -27.4670   20.0750 C   0  0  0  0  0  0
  -25.5898  -33.8634   24.2334 N   0  0  0  0  0  0
  -23.3976  -30.4940   21.5516 C   0  0  2  0  0  0
  -24.8441  -28.9613   20.1160 C   0  0  0  0  0  0
  -22.7388  -29.4668   22.4996 C   0  0  0  0  0  0
  -18.0268  -28.1380   22.8489 C   0  0  0  0  0  0
  -24.1488  -36.7320   23.2638 C   0  0  0  0  0  0
  -25.9239  -30.8402   21.3644 C   0  0  0  0  0  0
  -26.0003  -29.4755   20.7150 C   0  0  0  0  0  0
  -27.1966  -28.7274   20.7076 C   0  0  0  0  0  0
  -26.0609  -26.9504   19.4907 C   0  0  0  0  0  0
  -24.8656  -27.6932   19.5093 C   0  0  0  0  0  0
  -23.6055  -29.8263   20.1654 C   0  0  0  0  0  0
  -25.4106  -36.3121   24.0341 C   0  0  1  0  0  0
  -20.5853  -28.3658   23.1342 C   0  0  2  0  0  0
  -20.6756  -26.9392   22.5444 C   0  0  0  0  0  0
  -19.5752  -26.6387   21.5218 C   0  0  0  0  0  0
  -18.1917  -26.7938   22.1600 C   0  0  0  0  0  0
  -19.1515  -28.8832   23.2914 C   0  0  0  0  0  0
  -18.9446  -30.1438   23.8922 C   0  0  0  0  0  0
  -17.6452  -30.6584   24.0568 C   0  0  0  0  0  0
  -25.9034  -34.9486   23.5133 C   0  0  0  0  0  0
  -16.5342  -29.9091   23.6325 C   0  0  0  0  0  0
  -16.7259  -28.6511   23.0340 C   0  0  0  0  0  0
  -26.4462  -31.6611   25.0722 C   0  0  0  0  0  0
  -25.3744  -31.3737   26.1489 C   0  0  0  0  0  0
  -27.0272  -30.3049   24.6089 C   0  0  0  0  0  0
  -27.6050  -32.4327   25.7471 C   0  0  0  0  0  0
  -27.5593  -37.1803   24.8452 C   0  0  0  0  0  0
  -21.4119  -29.3028   22.3742 N   0  0  0  0  0  0
  -26.4290  -37.3808   23.9420 N   0  0  0  0  0  0
  -24.6620  -31.0821   22.1016 N   0  0  0  0  0  0
  -23.4179  -28.8214   23.3026 O   0  0  0  0  0  0
  -28.4144  -26.7541   20.0816 O   0  0  0  0  0  0
  -26.5586  -34.8936   22.4689 O   0  0  0  0  0  0
  -23.5312  -32.1444   23.7537 O   0  0  0  0  0  0
  -27.3401  -18.3145   20.1216 C   0  0  0  0  0  0
  -31.5960  -17.1490   19.3185 C   0  0  0  0  0  0
  -26.3379  -17.8779   19.0254 C   0  0  0  0  0  0
  -30.9695  -18.4143   18.7915 C   0  0  0  0  0  0
  -27.3796  -19.3856   17.3893 C   0  0  0  0  0  0
  -28.3665  -19.9494   18.4451 C   0  0  2  0  0  0
  -28.6698  -18.8994   19.5774 C   0  0  2  0  0  0
  -30.3386  -17.0106   20.1995 C   0  0  2  0  0  0
  -27.8811  -21.3371   18.9687 C   0  0  0  0  0  0
  -29.0022  -22.3930   19.1210 C   0  0  0  0  0  0
  -29.4856  -24.8342   19.0529 C   0  0  0  0  0  0
  -28.8603  -26.2226   18.8346 C   0  0  0  0  0  0
  -29.9381  -15.5959   20.4649 N   0  0  0  0  0  0
  -26.1215  -18.9265   18.0095 N   0  3  0  0  0  0
  -29.6650  -17.8490   19.1626 N   0  3  2  0  0  0
  -28.4662  -23.7707   19.2347 N   0  3  0  0  0  0
  -31.4571  -12.3652   19.1244 H   0  0  0  0  0  0
  -30.2934  -11.2930   19.8563 H   0  0  0  0  0  0
  -29.7271  -11.7318   17.4382 H   0  0  0  0  0  0
  -29.6583  -13.4477   17.7475 H   0  0  0  0  0  0
  -27.8259  -11.2856   18.8395 H   0  0  0  0  0  0
  -27.3573  -12.5877   17.7823 H   0  0  0  0  0  0
  -27.6626  -14.2377   19.5131 H   0  0  0  0  0  0
  -28.6732  -12.0448   21.3982 H   0  0  0  0  0  0
  -28.4845  -13.7292   21.8109 H   0  0  0  0  0  0
  -25.2752   -9.5677   22.4726 H   0  0  0  0  0  0
  -24.0011   -7.4611   22.7462 H   0  0  0  0  0  0
  -21.0806   -8.8729   19.8956 H   0  0  0  0  0  0
  -22.3664  -10.9626   19.6137 H   0  0  0  0  0  0
  -21.1989   -7.6147   23.9717 H   0  0  0  0  0  0
  -21.1475   -6.0526   25.9083 H   0  0  0  0  0  0
  -22.0602   -2.7607   23.2857 H   0  0  0  0  0  0
  -22.4033  -11.9820   22.4752 H   0  0  0  0  0  0
  -21.1090  -13.1249   22.2616 H   0  0  0  0  0  0
  -24.6821  -15.7560   20.8105 H   0  0  0  0  0  0
  -26.3442  -15.5375   20.7082 H   0  0  0  0  0  0
  -26.7091  -32.5557   23.1166 H   0  0  0  0  0  0
  -25.0068  -33.9800   25.0492 H   0  0  0  0  0  0
  -22.6855  -31.3104   21.4139 H   0  0  0  0  0  0
  -23.3759  -35.9640   23.3281 H   0  0  0  0  0  0
  -24.3592  -36.8951   22.2055 H   0  0  0  0  0  0
  -23.7219  -37.6515   23.6658 H   0  0  0  0  0  0
  -26.0338  -31.6054   20.5944 H   0  0  0  0  0  0
  -26.8134  -30.8939   21.9805 H   0  0  0  0  0  0
  -28.0898  -29.1208   21.1728 H   0  0  0  0  0  0
  -26.0501  -25.9736   19.0306 H   0  0  0  0  0  0
  -23.9717  -27.2865   19.0567 H   0  0  0  0  0  0
  -23.7148  -30.6021   19.4064 H   0  0  0  0  0  0
  -22.7301  -29.2458   19.8687 H   0  0  0  0  0  0
  -25.1278  -36.1983   25.0833 H   0  0  0  0  0  0
  -20.9944  -28.3221   24.1463 H   0  0  0  0  0  0
  -20.5637  -26.2263   23.3627 H   0  0  0  0  0  0
  -21.6631  -26.7433   22.1255 H   0  0  0  0  0  0
  -19.6912  -25.6301   21.1239 H   0  0  0  0  0  0
  -19.6722  -27.3203   20.6757 H   0  0  0  0  0  0
  -17.4212  -26.6723   21.3969 H   0  0  0  0  0  0
  -18.0279  -26.0061   22.8968 H   0  0  0  0  0  0
  -19.7923  -30.7240   24.2306 H   0  0  0  0  0  0
  -17.5014  -31.6266   24.5166 H   0  0  0  0  0  0
  -15.5345  -30.2998   23.7647 H   0  0  0  0  0  0
  -15.8658  -28.0846   22.7030 H   0  0  0  0  0  0
  -24.5946  -30.7025   25.7875 H   0  0  0  0  0  0
  -24.8898  -32.2897   26.4880 H   0  0  0  0  0  0
  -25.8127  -30.8993   27.0280 H   0  0  0  0  0  0
  -26.2799  -29.6828   24.1149 H   0  0  0  0  0  0
  -27.4041  -29.7268   25.4536 H   0  0  0  0  0  0
  -27.8641  -30.4352   23.9223 H   0  0  0  0  0  0
  -27.2667  -33.3604   26.2096 H   0  0  0  0  0  0
  -28.3830  -32.6924   25.0281 H   0  0  0  0  0  0
  -28.0755  -31.8429   26.5348 H   0  0  0  0  0  0
  -28.2598  -38.0115   24.7530 H   0  0  0  0  0  0
  -28.1100  -36.2654   24.6218 H   0  0  0  0  0  0
  -27.2333  -37.1387   25.8860 H   0  0  0  0  0  0
  -20.9264  -29.8762   21.6986 H   0  0  0  0  0  0
  -26.0184  -38.2883   24.1446 H   0  0  0  0  0  0
  -27.5332  -17.4889   20.8067 H   0  0  0  0  0  0
  -26.8551  -19.0746   20.7352 H   0  0  0  0  0  0
  -32.5323  -17.2921   19.8603 H   0  0  0  0  0  0
  -31.6964  -16.4024   18.5269 H   0  0  0  0  0  0
  -25.3722  -17.6417   19.4730 H   0  0  0  0  0  0
  -26.6828  -16.9680   18.5313 H   0  0  0  0  0  0
  -31.1060  -18.5715   17.7205 H   0  0  0  0  0  0
  -31.2553  -19.2961   19.3693 H   0  0  0  0  0  0
  -27.8330  -18.5508   16.8525 H   0  0  0  0  0  0
  -27.1572  -20.1324   16.6246 H   0  0  0  0  0  0
  -29.2825  -20.1513   17.8913 H   0  0  0  0  0  0
  -29.1407  -19.4365   20.4028 H   0  0  0  0  0  0
  -30.4604  -17.5756   21.1269 H   0  0  0  0  0  0
  -27.3347  -21.2353   19.9070 H   0  0  0  0  0  0
  -27.1570  -21.7426   18.2602 H   0  0  0  0  0  0
  -29.6482  -22.3541   18.2425 H   0  0  0  0  0  0
  -29.6335  -22.1670   19.9817 H   0  0  0  0  0  0
  -30.1723  -24.8509   19.9002 H   0  0  0  0  0  0
  -30.0823  -24.6012   18.1700 H   0  0  0  0  0  0
  -28.0970  -26.1871   18.0568 H   0  0  0  0  0  0
  -29.6281  -26.9001   18.4597 H   0  0  0  0  0  0
  -28.9648  -15.4264   20.6607 H   0  0  0  0  0  0
  -25.6261  -19.7042   18.4166 H   0  0  0  0  0  0
  -25.5206  -18.5554   17.2878 H   0  0  0  0  0  0
  -29.3429  -17.2714   18.4007 H   0  0  0  0  0  0
  -28.0129  -23.8893   20.1291 H   0  0  0  0  0  0
  -27.7649  -23.8886   18.5203 H   0  0  0  0  0  0
  1 25  1  0  0  0
  1 30  2  0  0  0
  1 83  1  0  0  0
  2  3  1  0  0  0
  2 25  1  0  0  0
  2 87  1  0  0  0
  2 88  1  0  0  0
  3  4  1  0  0  0
  3 89  1  0  0  0
  3 90  1  0  0  0
  4  5  1  0  0  0
  4 91  1  0  0  0
  4 92  1  0  0  0
  5  6  1  0  0  0
  5 26  1  0  0  0
  5 93  1  0  0  0
  6 25  1  0  0  0
  6 94  1  0  0  0
  6 95  1  0  0  0
  7  8  2  0  0  0
  7 26  1  0  0  0
  7 29  1  0  0  0
  8  9  1  0  0  0
  8 22  1  0  0  0
  9 10  1  0  0  0
  9 27  2  0  0  0
 10 11  2  0  0  0
 10 15  1  0  0  0
 11 12  1  0  0  0
 11 96  1  0  0  0
 12 13  2  0  0  0
 12 97  1  0  0  0
 13 14  1  0  0  0
 13 31  1  0  0  0
 14 15  2  0  0  0
 14 98  1  0  0  0
 15 99  1  0  0  0
 16 17  2  0  0  0
 16 21  1  0  0  0
 16 31  1  0  0  0
 17 18  1  0  0  0
 17100  1  0  0  0
 18 19  2  0  0  0
 18101  1  0  0  0
 19 20  1  0  0  0
 19 24  1  0  0  0
 20 21  2  0  0  0
 20102  1  0  0  0
 21 23  1  0  0  0
 22 28  1  0  0  0
 22 32  2  0  0  0
 26 27  1  0  0  0
 28103  1  0  0  0
 28104  1  0  0  0
 29105  1  0  0  0
 29106  1  0  0  0
 33 34  1  0  0  0
 33 66  1  0  0  0
 33 70  2  0  0  0
 34 36  1  0  0  0
 34 59  1  0  0  0
 34107  1  0  0  0
 35 44  2  0  0  0
 35 45  1  0  0  0
 35 68  1  0  0  0
 36 56  1  0  0  0
 36108  1  0  0  0
 37 39  1  0  0  0
 37 47  1  0  0  0
 37 66  1  0  0  0
 37109  1  0  0  0
 38 43  2  0  0  0
 38 46  1  0  0  0
 38 47  1  0  0  0
 39 64  1  0  0  0
 39 67  2  0  0  0
 40 52  1  0  0  0
 40 53  2  0  0  0
 40 58  1  0  0  0
 41110  1  0  0  0
 41111  1  0  0  0
 41112  1  0  0  0
 41 48  1  0  0  0
 42 43  1  0  0  0
 42 66  1  0  0  0
 42113  1  0  0  0
 42114  1  0  0  0
 43 44  1  0  0  0
 44115  1  0  0  0
 45 46  2  0  0  0
 45116  1  0  0  0
 46117  1  0  0  0
 47118  1  0  0  0
 47119  1  0  0  0
 48 56  1  0  0  0
 48 65  1  0  0  0
 48120  1  0  0  0
 49 50  1  0  0  0
 49 53  1  0  0  0
 49 64  1  0  0  0
 49121  1  0  0  0
 50 51  1  0  0  0
 50122  1  0  0  0
 50123  1  0  0  0
 51 52  1  0  0  0
 51124  1  0  0  0
 51125  1  0  0  0
 52126  1  0  0  0
 52127  1  0  0  0
 53 54  1  0  0  0
 54 55  2  0  0  0
 54128  1  0  0  0
 55 57  1  0  0  0
 55129  1  0  0  0
 56 69  2  0  0  0
 57 58  2  0  0  0
 57130  1  0  0  0
 58131  1  0  0  0
 59 60  1  0  0  0
 59 61  1  0  0  0
 59 62  1  0  0  0
 60132  1  0  0  0
 60133  1  0  0  0
 60134  1  0  0  0
 61135  1  0  0  0
 61136  1  0  0  0
 61137  1  0  0  0
 62138  1  0  0  0
 62139  1  0  0  0
 62140  1  0  0  0
 63 65  1  0  0  0
 63141  1  0  0  0
 63142  1  0  0  0
 63143  1  0  0  0
 64144  1  0  0  0
 65145  1  0  0  0
 68 82  1  0  0  0
 71 73  1  0  0  0
 71146  1  0  0  0
 71147  1  0  0  0
 71 77  1  0  0  0
 72 74  1  0  0  0
 72 78  1  0  0  0
 72148  1  0  0  0
 72149  1  0  0  0
 73 84  1  0  0  0
 73150  1  0  0  0
 73151  1  0  0  0
 74152  1  0  0  0
 74153  1  0  0  0
 74 85  1  0  0  0
 75 76  1  0  0  0
 75 84  1  0  0  0
 75154  1  0  0  0
 75155  1  0  0  0
 76 77  1  0  0  0
 76 79  1  0  0  0
 76156  1  0  0  0
 77 85  1  0  0  0
 77157  1  0  0  0
 78 83  1  0  0  0
 78 85  1  0  0  0
 78158  1  0  0  0
 79 80  1  0  0  0
 79159  1  0  0  0
 79160  1  0  0  0
 80 86  1  0  0  0
 80161  1  0  0  0
 80162  1  0  0  0
 81 82  1  0  0  0
 81 86  1  0  0  0
 81163  1  0  0  0
 81164  1  0  0  0
 82165  1  0  0  0
 82166  1  0  0  0
 83167  1  0  0  0
 84168  1  0  0  0
 84169  1  0  0  0
 85170  1  0  0  0
 86171  1  0  0  0
 86172  1  0  0  0
M  CHG  3  84   1  85   1  86   1
M  ISO  4   1 100  68 101  82 101  83 100
M  END
> <chiral flag>
0

> <version>
0

> <s_m_source_file>
/data/baiqing/PycharmProjects/Reinvent-master-3.2/result/LINK_invent/BTK/process_docking_weight1_custom_sum_contain_oxygen_bond_distance_aromatic_linkinvent_7_9_3/rearranged_h_0198.sdf

> <i_m_source_file_index>
57

> <r_mmod_Potential_Energy-OPLS-2005>
-385.307189941406

> <r_mmod_Stretch_Energy-OPLS-2005>
43.3837699890137

> <r_mmod_Bend_Energy-OPLS-2005>
116.549713134766

> <r_mmod_Torsional_Energy-OPLS-2005>
329.502258300781

> <r_mmod_Improper_Torsional_Energy-OPLS-2005>
11.8715753555298

> <r_mmod_Van_der_Waal_Energy-OPLS-2005>
139.131439208984

> <r_mmod_Electrostatic_Energy-OPLS-2005>
693.109069824219

> <r_mmod_Solvation_Energy-OPLS-2005>
-1741.90466308594

> <b_mmod_Minimization_Converged-OPLS-2005>
0

> <r_mmod_RMS_Derivative-OPLS-2005>
1.014981508255

$$$$
57
                    3D
 Structure written by MMmdl.
171181  0  0  1  0            999 V2000
  -30.2187  -14.9268   20.4435 C   0  0  0  0  0  0
  -30.4329  -12.5803   19.5042 C   0  0  0  0  0  0
  -29.5154  -12.5310   18.2548 C   0  0  0  0  0  0
  -28.0393  -12.2956   18.6473 C   0  0  0  0  0  0
  -27.6040  -13.1905   19.8345 C   0  0  2  0  0  0
  -28.6135  -13.1007   20.9909 C   0  0  0  0  0  0
  -25.2368  -13.8069   20.5600 C   0  0  0  0  0  0
  -24.1682  -13.0378   20.9248 C   0  0  0  0  0  0
  -24.6224  -11.6840   20.8765 C   0  0  0  0  0  0
  -23.8935  -10.4246   21.0439 C   0  0  0  0  0  0
  -24.3537   -9.4179   21.9202 C   0  0  0  0  0  0
  -23.6244   -8.2202   22.0757 C   0  0  0  0  0  0
  -22.4232   -8.0234   21.3540 C   0  0  0  0  0  0
  -21.9834   -9.0198   20.4651 C   0  0  0  0  0  0
  -22.7129  -10.2089   20.3070 C   0  0  0  0  0  0
  -21.6835   -6.0706   22.5278 C   0  0  0  0  0  0
  -21.4006   -6.5624   23.8207 C   0  0  0  0  0  0
  -21.3650   -5.6786   24.9174 C   0  0  0  0  0  0
  -21.6043   -4.3047   24.7232 C   0  0  0  0  0  0
  -21.8823   -3.8129   23.4356 C   0  0  0  0  0  0
  -21.9190   -4.6939   22.3407 C   0  0  0  0  0  0
  -22.7740  -13.5217   21.1924 C   0  0  0  0  0  0
  -22.1660   -4.2125   21.0986 F   0  0  0  0  0  0
  -21.5629   -3.4537   25.7748 F   0  0  0  0  0  0
  -29.8699  -13.5900   20.4423 N   0  0  0  0  0  0
  -26.2629  -12.9148   20.3022 N   0  0  0  0  0  0
  -25.9083  -11.6357   20.5629 N   0  0  0  0  0  0
  -22.0372  -12.8220   22.0477 N   0  0  0  0  0  0
  -25.4151  -15.1775   20.3902 N   0  0  0  0  0  0
  -31.3910  -15.2008   20.1273 O   0  0  0  0  0  0
  -21.6611   -6.8830   21.4232 O   0  0  0  0  0  0
  -22.3476  -14.5536   20.6754 O   0  0  0  0  0  0
  -24.6655  -31.9591   23.2195 C   0  0  0  0  0  0
  -25.9550  -32.5198   23.8621 C   0  0  1  0  0  0
  -26.7258  -27.3229   20.2435 C   0  0  0  0  0  0
  -25.6439  -33.8932   24.2659 N   0  0  0  0  0  0
  -23.4588  -30.6171   21.5881 C   0  0  2  0  0  0
  -24.8128  -29.1819   19.9367 C   0  0  0  0  0  0
  -22.9769  -29.6111   22.6388 C   0  0  0  0  0  0
  -18.3587  -28.1704   22.1479 C   0  0  0  0  0  0
  -24.1513  -36.7377   23.2604 C   0  0  0  0  0  0
  -25.9708  -30.8700   21.3860 C   0  0  0  0  0  0
  -25.9526  -29.5357   20.6755 C   0  0  0  0  0  0
  -26.9929  -28.5980   20.7934 C   0  0  0  0  0  0
  -25.9693  -27.2204   19.0936 C   0  0  0  0  0  0
  -24.8442  -28.0579   19.0779 C   0  0  0  0  0  0
  -23.5773  -30.0165   20.1489 C   0  0  0  0  0  0
  -25.4140  -36.3274   24.0344 C   0  0  1  0  0  0
  -21.1493  -28.3171   23.5305 C   0  0  2  0  0  0
  -21.5623  -26.1073   23.4325 C   0  0  0  0  0  0
  -19.9740  -25.0760   22.2662 C   0  0  0  0  0  0
  -18.4579  -26.3616   21.6000 C   0  0  0  0  0  0
  -19.5064  -28.9817   22.9420 C   0  0  0  0  0  0
  -19.0927  -30.1163   23.7084 C   0  0  0  0  0  0
  -17.7513  -30.5088   23.8865 C   0  0  0  0  0  0
  -25.9159  -34.9686   23.5195 C   0  0  0  0  0  0
  -16.7253  -29.7426   23.3228 C   0  0  0  0  0  0
  -17.0262  -28.6174   22.5072 C   0  0  0  0  0  0
  -26.4627  -31.6690   25.0879 C   0  0  0  0  0  0
  -25.3744  -31.3767   26.1465 C   0  0  0  0  0  0
  -27.0356  -30.3108   24.6199 C   0  0  0  0  0  0
  -27.6217  -32.4214   25.7810 C   0  0  0  0  0  0
  -27.5612  -37.1911   24.8467 C   0  0  0  0  0  0
  -21.7226  -29.3158   22.6369 N   0  0  0  0  0  0
  -26.4307  -37.3963   23.9442 N   0  0  0  0  0  0
  -24.7181  -31.1980   22.0914 N   0  0  0  0  0  0
  -23.6994  -29.0641   23.4650 O   0  0  0  0  0  0
  -25.9645  -26.4749   21.0175 O   0  0  0  0  0  0
  -26.5480  -34.9067   22.4617 O   0  0  0  0  0  0
  -23.5841  -32.2398   23.7624 O   0  0  0  0  0  0
  -22.6916  -22.8015   19.9079 C   0  0  0  0  0  0
  -23.5093  -21.5956   19.9090 C   0  0  0  0  0  0
  -23.1085  -24.0073   20.5573 C   0  0  0  0  0  0
  -24.8021  -21.5094   20.5422 C   0  0  0  0  0  0
  -28.1740  -17.7387   18.9744 C   0  0  0  0  0  0
  -27.2424  -19.0325   19.0421 C   0  0  0  0  0  0
  -20.9042  -26.2532   20.2222 C   0  0  0  0  0  0
  -27.5205  -18.1468   21.1807 C   0  0  0  0  0  0
  -22.3208  -25.4964   20.4848 C   0  0  1  0  0  0
  -28.7395  -17.3840   20.3773 C   0  0  1  0  0  0
  -22.6206  -26.8804   21.0786 C   0  0  1  0  0  0
  -19.4474  -26.7480   23.6792 C   0  0  0  0  0  0
  -25.5671  -20.0499   20.8561 C   0  0  0  0  0  0
  -24.4173  -26.7834   21.5884 C   0  0  0  0  0  0
  -24.3610  -23.8557   21.1408 N   0  0  0  0  0  0
  -25.1391  -22.7039   21.1592 N   0  0  0  0  0  0
  -29.1385  -15.8591   20.6285 N   0  0  0  0  0  0
  -26.9871  -19.4238   20.4603 N   0  3  2  0  0  0
  -20.7719  -27.1210   21.5707 N   0  3  2  0  0  0
  -31.4533  -12.8354   19.2117 H   0  0  0  0  0  0
  -30.4932  -11.6015   19.9834 H   0  0  0  0  0  0
  -29.8502  -11.7567   17.5629 H   0  0  0  0  0  0
  -29.5936  -13.4757   17.7144 H   0  0  0  0  0  0
  -27.9257  -11.2453   18.9188 H   0  0  0  0  0  0
  -27.3884  -12.4596   17.7871 H   0  0  0  0  0  0
  -27.5874  -14.2016   19.4332 H   0  0  0  0  0  0
  -28.7086  -12.0749   21.3492 H   0  0  0  0  0  0
  -28.2918  -13.6933   21.8492 H   0  0  0  0  0  0
  -25.2681   -9.5673   22.4770 H   0  0  0  0  0  0
  -23.9964   -7.4591   22.7464 H   0  0  0  0  0  0
  -21.0764   -8.8690   19.8965 H   0  0  0  0  0  0
  -22.3571  -10.9624   19.6182 H   0  0  0  0  0  0
  -21.2001   -7.6134   23.9698 H   0  0  0  0  0  0
  -21.1465   -6.0522   25.9073 H   0  0  0  0  0  0
  -22.0613   -2.7591   23.2865 H   0  0  0  0  0  0
  -22.3956  -11.9867   22.4857 H   0  0  0  0  0  0
  -21.1004  -13.1274   22.2695 H   0  0  0  0  0  0
  -24.5857  -15.7617   20.3898 H   0  0  0  0  0  0
  -26.1242  -15.5102   19.7522 H   0  0  0  0  0  0
  -26.7647  -32.5789   23.1391 H   0  0  0  0  0  0
  -25.0793  -34.0121   25.0946 H   0  0  0  0  0  0
  -22.7068  -31.4086   21.5359 H   0  0  0  0  0  0
  -23.3838  -35.9647   23.3257 H   0  0  0  0  0  0
  -24.3623  -36.8989   22.2020 H   0  0  0  0  0  0
  -23.7179  -37.6556   23.6588 H   0  0  0  0  0  0
  -26.1497  -31.6415   20.6366 H   0  0  0  0  0  0
  -26.8410  -30.8429   22.0324 H   0  0  0  0  0  0
  -27.7999  -28.7569   21.4987 H   0  0  0  0  0  0
  -25.8949  -26.2879   18.5497 H   0  0  0  0  0  0
  -24.0091  -27.8185   18.4348 H   0  0  0  0  0  0
  -23.6028  -30.8362   19.4280 H   0  0  0  0  0  0
  -22.6848  -29.4443   19.8990 H   0  0  0  0  0  0
  -25.1292  -36.2145   25.0829 H   0  0  0  0  0  0
  -21.3381  -28.6522   24.5568 H   0  0  0  0  0  0
  -21.5460  -25.7469   24.4685 H   0  0  0  0  0  0
  -22.5678  -25.7257   23.2720 H   0  0  0  0  0  0
  -19.4918  -24.3425   22.9179 H   0  0  0  0  0  0
  -20.3212  -24.3221   21.5573 H   0  0  0  0  0  0
  -18.3292  -26.3506   20.5176 H   0  0  0  0  0  0
  -17.5121  -25.8985   21.8935 H   0  0  0  0  0  0
  -19.8364  -30.6496   24.2841 H   0  0  0  0  0  0
  -17.5107  -31.3532   24.5194 H   0  0  0  0  0  0
  -15.6938  -30.0116   23.5114 H   0  0  0  0  0  0
  -16.1836  -28.0434   22.1467 H   0  0  0  0  0  0
  -24.5903  -30.7239   25.7610 H   0  0  0  0  0  0
  -24.8982  -32.2918   26.4990 H   0  0  0  0  0  0
  -25.7955  -30.8758   27.0190 H   0  0  0  0  0  0
  -26.2907  -29.7043   24.1042 H   0  0  0  0  0  0
  -27.3868  -29.7171   25.4648 H   0  0  0  0  0  0
  -27.8904  -30.4394   23.9561 H   0  0  0  0  0  0
  -27.2913  -33.3491   26.2497 H   0  0  0  0  0  0
  -28.4116  -32.6771   25.0735 H   0  0  0  0  0  0
  -28.0755  -31.8173   26.5673 H   0  0  0  0  0  0
  -28.2605  -38.0240   24.7621 H   0  0  0  0  0  0
  -28.1138  -36.2789   24.6163 H   0  0  0  0  0  0
  -27.2346  -37.1415   25.8870 H   0  0  0  0  0  0
  -21.0883  -29.9248   22.1341 H   0  0  0  0  0  0
  -26.0196  -38.3031   24.1509 H   0  0  0  0  0  0
  -21.7333  -22.7900   19.4087 H   0  0  0  0  0  0
  -23.0960  -20.7042   19.4618 H   0  0  0  0  0  0
  -28.9773  -17.8692   18.2483 H   0  0  0  0  0  0
  -27.5756  -16.9037   18.6123 H   0  0  0  0  0  0
  -26.3019  -18.8360   18.5253 H   0  0  0  0  0  0
  -27.7139  -19.8680   18.5230 H   0  0  0  0  0  0
  -20.9898  -26.9611   19.3928 H   0  0  0  0  0  0
  -20.1287  -25.5756   19.8706 H   0  0  0  0  0  0
  -27.8217  -18.3933   22.1984 H   0  0  0  0  0  0
  -26.6812  -17.4574   21.2740 H   0  0  0  0  0  0
  -22.7303  -25.6158   19.4802 H   0  0  0  0  0  0
  -29.6462  -17.9693   20.5328 H   0  0  0  0  0  0
  -22.7050  -27.2574   22.0316 H   0  0  0  0  0  0
  -18.3587  -26.6341   23.7978 H   0  0  0  0  0  0
  -19.5086  -27.3439   24.6042 H   0  0  0  0  0  0
  -19.5164  -25.8517   24.3181 H   0  0  0  0  0  0
  -24.8408  -19.2938   20.5616 H   0  0  0  0  0  0
  -25.5562  -20.0034   21.9439 H   0  0  0  0  0  0
  -24.7067  -27.6954   22.0660 H   0  0  0  0  0  0
  -24.4467  -26.0938   22.4263 H   0  0  0  0  0  0
  -28.3351  -15.3409   20.9523 H   0  0  0  0  0  0
  -27.6565  -20.1496   20.6660 H   0  0  0  0  0  0
  -20.4899  -28.0507   21.2902 H   0  0  0  0  0  0
  1 25  1  0  0  0
  1 30  2  0  0  0
  1 87  1  0  0  0
  2  3  1  0  0  0
  2 25  1  0  0  0
  2 90  1  0  0  0
  2 91  1  0  0  0
  3  4  1  0  0  0
  3 92  1  0  0  0
  3 93  1  0  0  0
  4  5  1  0  0  0
  4 94  1  0  0  0
  4 95  1  0  0  0
  5  6  1  0  0  0
  5 26  1  0  0  0
  5 96  1  0  0  0
  6 25  1  0  0  0
  6 97  1  0  0  0
  6 98  1  0  0  0
  7  8  2  0  0  0
  7 26  1  0  0  0
  7 29  1  0  0  0
  8  9  1  0  0  0
  8 22  1  0  0  0
  9 10  1  0  0  0
  9 27  2  0  0  0
 10 11  2  0  0  0
 10 15  1  0  0  0
 11 12  1  0  0  0
 11 99  1  0  0  0
 12 13  2  0  0  0
 12100  1  0  0  0
 13 14  1  0  0  0
 13 31  1  0  0  0
 14 15  2  0  0  0
 14101  1  0  0  0
 15102  1  0  0  0
 16 17  2  0  0  0
 16 21  1  0  0  0
 16 31  1  0  0  0
 17 18  1  0  0  0
 17103  1  0  0  0
 18 19  2  0  0  0
 18104  1  0  0  0
 19 20  1  0  0  0
 19 24  1  0  0  0
 20 21  2  0  0  0
 20105  1  0  0  0
 21 23  1  0  0  0
 22 28  1  0  0  0
 22 32  2  0  0  0
 26 27  1  0  0  0
 28106  1  0  0  0
 28107  1  0  0  0
 29108  1  0  0  0
 29109  1  0  0  0
 33 34  1  0  0  0
 33 66  1  0  0  0
 33 70  2  0  0  0
 34 36  1  0  0  0
 34 59  1  0  0  0
 34110  1  0  0  0
 35 44  2  0  0  0
 35 45  1  0  0  0
 35 68  1  0  0  0
 36 56  1  0  0  0
 36111  1  0  0  0
 37 39  1  0  0  0
 37 47  1  0  0  0
 37 66  1  0  0  0
 37112  1  0  0  0
 38 43  2  0  0  0
 38 46  1  0  0  0
 38 47  1  0  0  0
 39 64  1  0  0  0
 39 67  2  0  0  0
 40 52  1  0  0  0
 40 53  2  0  0  0
 40 58  1  0  0  0
 41113  1  0  0  0
 41114  1  0  0  0
 41115  1  0  0  0
 41 48  1  0  0  0
 42 43  1  0  0  0
 42 66  1  0  0  0
 42116  1  0  0  0
 42117  1  0  0  0
 43 44  1  0  0  0
 44118  1  0  0  0
 45 46  2  0  0  0
 45119  1  0  0  0
 46120  1  0  0  0
 47121  1  0  0  0
 47122  1  0  0  0
 48 56  1  0  0  0
 48 65  1  0  0  0
 48123  1  0  0  0
 49 50  1  0  0  0
 49 53  1  0  0  0
 49 64  1  0  0  0
 49124  1  0  0  0
 50 51  1  0  0  0
 50125  1  0  0  0
 50126  1  0  0  0
 51 52  1  0  0  0
 51127  1  0  0  0
 51128  1  0  0  0
 52129  1  0  0  0
 52130  1  0  0  0
 53 54  1  0  0  0
 54 55  2  0  0  0
 54131  1  0  0  0
 55 57  1  0  0  0
 55132  1  0  0  0
 56 69  2  0  0  0
 57 58  2  0  0  0
 57133  1  0  0  0
 58134  1  0  0  0
 59 60  1  0  0  0
 59 61  1  0  0  0
 59 62  1  0  0  0
 60135  1  0  0  0
 60136  1  0  0  0
 60137  1  0  0  0
 61138  1  0  0  0
 61139  1  0  0  0
 61140  1  0  0  0
 62141  1  0  0  0
 62142  1  0  0  0
 62143  1  0  0  0
 63 65  1  0  0  0
 63144  1  0  0  0
 63145  1  0  0  0
 63146  1  0  0  0
 64147  1  0  0  0
 65148  1  0  0  0
 68 84  1  0  0  0
 71 72  2  0  0  0
 71 73  1  0  0  0
 71149  1  0  0  0
 72 74  1  0  0  0
 72150  1  0  0  0
 73 85  2  0  0  0
 73 79  1  0  0  0
 74 83  1  0  0  0
 74 86  2  0  0  0
 75 76  1  0  0  0
 75 80  1  0  0  0
 75151  1  0  0  0
 75152  1  0  0  0
 76 88  1  0  0  0
 76153  1  0  0  0
 76154  1  0  0  0
 77 79  1  0  0  0
 77 89  1  0  0  0
 77155  1  0  0  0
 77156  1  0  0  0
 78 80  1  0  0  0
 78 88  1  0  0  0
 78157  1  0  0  0
 78158  1  0  0  0
 79 81  1  0  0  0
 79159  1  0  0  0
 80 87  1  0  0  0
 80160  1  0  0  0
 81 84  1  0  0  0
 81 89  1  0  0  0
 81161  1  0  0  0
 82162  1  0  0  0
 82163  1  0  0  0
 82164  1  0  0  0
 82 89  1  0  0  0
 83165  1  0  0  0
 83166  1  0  0  0
 83 88  1  0  0  0
 84167  1  0  0  0
 84168  1  0  0  0
 85 86  1  0  0  0
 87169  1  0  0  0
 88170  1  0  0  0
 89171  1  0  0  0
M  CHG  2  88   1  89   1
M  ISO  4   1 100  68 101  84 101  87 100
M  END
> <chiral flag>
0

> <version>
0

> <s_m_source_file>
/data/baiqing/PycharmProjects/Reinvent-master-3.2/result/LINK_invent/BTK/process_docking_weight1_custom_sum_contain_oxygen_bond_distance_aromatic_linkinvent_7_9_3/rearranged_h_0198.sdf

> <i_m_source_file_index>
58

> <r_mmod_Potential_Energy-OPLS-2005>
9267.150390625

> <r_mmod_Stretch_Energy-OPLS-2005>
4469.27099609375

> <r_mmod_Bend_Energy-OPLS-2005>
1315.64611816406

> <r_mmod_Torsional_Energy-OPLS-2005>
577.259704589844

> <r_mmod_Improper_Torsional_Energy-OPLS-2005>
48.7495651245117

> <r_mmod_Van_der_Waal_Energy-OPLS-2005>
2089.48046875

> <r_mmod_Electrostatic_Energy-OPLS-2005>
-209.154754638672

> <r_mmod_Solvation_Energy-OPLS-2005>
-853.860412597656

> <b_mmod_Minimization_Converged-OPLS-2005>
0

> <r_mmod_RMS_Derivative-OPLS-2005>
3.97776770591736

$$$$
58
                    3D
 Structure written by MMmdl.
180190  0  0  1  0            999 V2000
  -30.7436  -14.4055   20.5160 C   0  0  0  0  0  0
  -30.3970  -12.2420   19.4286 C   0  0  0  0  0  0
  -29.4963  -12.4834   18.2025 C   0  0  0  0  0  0
  -28.0120  -12.3821   18.6009 C   0  0  0  0  0  0
  -27.6590  -13.2124   19.8658 C   0  0  2  0  0  0
  -28.6989  -12.9999   20.9901 C   0  0  0  0  0  0
  -25.2595  -13.8175   20.5693 C   0  0  0  0  0  0
  -24.1867  -13.0438   20.9207 C   0  0  0  0  0  0
  -24.6399  -11.6915   20.8692 C   0  0  0  0  0  0
  -23.9052  -10.4297   21.0341 C   0  0  0  0  0  0
  -24.3616   -9.4214   21.9132 C   0  0  0  0  0  0
  -23.6303   -8.2245   22.0729 C   0  0  0  0  0  0
  -22.4284   -8.0263   21.3531 C   0  0  0  0  0  0
  -21.9899   -9.0227   20.4636 C   0  0  0  0  0  0
  -22.7210  -10.2104   20.3005 C   0  0  0  0  0  0
  -21.6860   -6.0706   22.5277 C   0  0  0  0  0  0
  -21.4014   -6.5618   23.8204 C   0  0  0  0  0  0
  -21.3680   -5.6776   24.9174 C   0  0  0  0  0  0
  -21.6042   -4.3037   24.7226 C   0  0  0  0  0  0
  -21.8820   -3.8128   23.4348 C   0  0  0  0  0  0
  -21.9203   -4.6935   22.3401 C   0  0  0  0  0  0
  -22.7880  -13.5217   21.1864 C   0  0  0  0  0  0
  -22.1672   -4.2126   21.0972 F   0  0  0  0  0  0
  -21.5642   -3.4520   25.7734 F   0  0  0  0  0  0
  -30.0362  -13.2489   20.4357 N   0  0  0  0  0  0
  -26.3009  -12.9343   20.3307 N   0  0  0  0  0  0
  -25.9314  -11.6489   20.5688 N   0  0  0  0  0  0
  -22.0531  -12.8218   22.0421 N   0  0  0  0  0  0
  -25.4300  -15.1890   20.4117 N   0  0  0  0  0  0
  -31.9234  -14.4895   20.1639 O   0  0  0  0  0  0
  -21.6654   -6.8845   21.4237 O   0  0  0  0  0  0
  -22.3569  -14.5531   20.6698 O   0  0  0  0  0  0
  -24.6099  -31.8715   23.2116 C   0  0  0  0  0  0
  -25.9021  -32.4834   23.8382 C   0  0  1  0  0  0
  -27.2347  -27.4682   20.0802 C   0  0  0  0  0  0
  -25.5890  -33.8643   24.2320 N   0  0  0  0  0  0
  -23.3978  -30.4960   21.5494 C   0  0  2  0  0  0
  -24.8413  -28.9644   20.1081 C   0  0  0  0  0  0
  -22.7378  -29.4668   22.4968 C   0  0  0  0  0  0
  -18.0271  -28.1374   22.8501 C   0  0  0  0  0  0
  -24.1496  -36.7325   23.2632 C   0  0  0  0  0  0
  -25.9245  -30.8395   21.3666 C   0  0  0  0  0  0
  -25.9974  -29.4790   20.7076 C   0  0  0  0  0  0
  -27.1949  -28.7364   20.6939 C   0  0  0  0  0  0
  -26.0624  -26.9649   19.4652 C   0  0  0  0  0  0
  -24.8661  -27.7032   19.4860 C   0  0  0  0  0  0
  -23.6051  -29.8298   20.1610 C   0  0  0  0  0  0
  -25.4120  -36.3123   24.0326 C   0  0  1  0  0  0
  -20.5858  -28.3650   23.1300 C   0  0  2  0  0  0
  -20.6768  -26.9394   22.5401 C   0  0  0  0  0  0
  -19.5747  -26.6387   21.5200 C   0  0  0  0  0  0
  -18.1923  -26.7919   22.1609 C   0  0  0  0  0  0
  -19.1520  -28.8824   23.2898 C   0  0  0  0  0  0
  -18.9459  -30.1439   23.8902 C   0  0  0  0  0  0
  -17.6460  -30.6570   24.0579 C   0  0  0  0  0  0
  -25.9046  -34.9481   23.5119 C   0  0  0  0  0  0
  -16.5356  -29.9086   23.6345 C   0  0  0  0  0  0
  -16.7258  -28.6505   23.0345 C   0  0  0  0  0  0
  -26.4454  -31.6617   25.0718 C   0  0  0  0  0  0
  -25.3758  -31.3764   26.1507 C   0  0  0  0  0  0
  -27.0277  -30.3053   24.6094 C   0  0  0  0  0  0
  -27.5984  -32.4352   25.7494 C   0  0  0  0  0  0
  -27.5590  -37.1816   24.8451 C   0  0  0  0  0  0
  -21.4104  -29.3042   22.3703 N   0  0  0  0  0  0
  -26.4313  -37.3798   23.9384 N   0  0  0  0  0  0
  -24.6606  -31.0817   22.0993 N   0  0  0  0  0  0
  -23.4158  -28.8218   23.2986 O   0  0  0  0  0  0
  -28.4205  -26.7691   20.1121 O   0  0  0  0  0  0
  -26.5588  -34.8925   22.4681 O   0  0  0  0  0  0
  -23.5304  -32.1420   23.7553 O   0  0  0  0  0  0
  -30.9573  -17.7004   21.1978 C   0  0  0  0  0  0
  -31.0631  -18.1048   18.5056 C   0  0  0  0  0  0
  -31.5690  -18.8860   20.7327 C   0  0  0  0  0  0
  -31.7399  -19.0316   19.3259 C   0  0  0  0  0  0
  -30.4421  -16.7630   20.2933 C   0  0  0  0  0  0
  -33.4143  -19.7210   17.3949 C   0  0  0  0  0  0
  -34.1298  -19.9149   18.7072 C   0  0  0  0  0  0
  -32.5066  -21.2858   21.4340 C   0  0  0  0  0  0
  -31.5696  -21.3158   23.6102 C   0  0  0  0  0  0
  -32.6193  -20.0532   18.6473 C   0  0  0  0  0  0
  -31.9938  -19.8957   21.8144 C   0  0  1  0  0  0
  -28.7080  -20.0622   23.7969 C   0  0  0  0  0  0
  -29.0667  -21.4131   21.6087 C   0  0  0  0  0  0
  -28.7638  -22.7913   22.2403 C   0  0  0  0  0  0
  -27.6087  -24.8830   21.4645 C   0  0  0  0  0  0
  -28.3530  -25.3435   20.1884 C   0  0  0  0  0  0
  -29.5646  -20.2694   22.5333 C   0  0  1  0  0  0
  -30.4126  -17.0210   18.9685 N   0  0  0  0  0  0
  -31.0031  -20.1760   22.8707 N   0  0  0  0  0  0
  -30.0402  -15.5082   20.8028 N   0  0  0  0  0  0
  -32.5030  -22.0148   22.7038 N   0  3  0  0  0  0
  -27.5818  -23.4097   21.5995 N   0  3  0  0  0  0
  -31.4480  -12.2803   19.1413 H   0  0  0  0  0  0
  -30.2387  -11.2378   19.8227 H   0  0  0  0  0  0
  -29.7239  -11.7519   17.4274 H   0  0  0  0  0  0
  -29.7069  -13.4621   17.7703 H   0  0  0  0  0  0
  -27.7931  -11.3284   18.7781 H   0  0  0  0  0  0
  -27.3840  -12.6921   17.7623 H   0  0  0  0  0  0
  -27.6982  -14.2613   19.5732 H   0  0  0  0  0  0
  -28.6457  -11.9766   21.3719 H   0  0  0  0  0  0
  -28.4896  -13.6426   21.8475 H   0  0  0  0  0  0
  -25.2739   -9.5718   22.4710 H   0  0  0  0  0  0
  -24.0040   -7.4623   22.7414 H   0  0  0  0  0  0
  -21.0850   -8.8698   19.8932 H   0  0  0  0  0  0
  -22.3638  -10.9631   19.6119 H   0  0  0  0  0  0
  -21.1990   -7.6123   23.9711 H   0  0  0  0  0  0
  -21.1519   -6.0499   25.9082 H   0  0  0  0  0  0
  -22.0588   -2.7593   23.2841 H   0  0  0  0  0  0
  -22.4157  -11.9904   22.4853 H   0  0  0  0  0  0
  -21.1100  -13.1160   22.2508 H   0  0  0  0  0  0
  -24.6595  -15.8399   20.5233 H   0  0  0  0  0  0
  -26.2707  -15.6310   20.0605 H   0  0  0  0  0  0
  -26.7096  -32.5538   23.1136 H   0  0  0  0  0  0
  -25.0117  -33.9822   25.0507 H   0  0  0  0  0  0
  -22.6842  -31.3102   21.4125 H   0  0  0  0  0  0
  -23.3752  -35.9665   23.3309 H   0  0  0  0  0  0
  -24.3606  -36.8931   22.2049 H   0  0  0  0  0  0
  -23.7259  -37.6532   23.6650 H   0  0  0  0  0  0
  -26.0542  -31.6084   20.6046 H   0  0  0  0  0  0
  -26.8043  -30.8733   21.9984 H   0  0  0  0  0  0
  -28.0817  -29.1291   21.1717 H   0  0  0  0  0  0
  -26.0516  -26.0088   18.9641 H   0  0  0  0  0  0
  -23.9780  -27.3044   19.0121 H   0  0  0  0  0  0
  -23.7157  -30.6040   19.4018 H   0  0  0  0  0  0
  -22.7289  -29.2491   19.8691 H   0  0  0  0  0  0
  -25.1315  -36.1983   25.0824 H   0  0  0  0  0  0
  -20.9971  -28.3237   24.1408 H   0  0  0  0  0  0
  -20.5670  -26.2283   23.3597 H   0  0  0  0  0  0
  -21.6647  -26.7453   22.1198 H   0  0  0  0  0  0
  -19.6915  -25.6303   21.1205 H   0  0  0  0  0  0
  -19.6676  -27.3223   20.6752 H   0  0  0  0  0  0
  -17.4205  -26.6675   21.3997 H   0  0  0  0  0  0
  -18.0316  -26.0041   22.8992 H   0  0  0  0  0  0
  -19.7948  -30.7256   24.2235 H   0  0  0  0  0  0
  -17.5040  -31.6243   24.5202 H   0  0  0  0  0  0
  -15.5362  -30.2992   23.7667 H   0  0  0  0  0  0
  -15.8666  -28.0844   22.7025 H   0  0  0  0  0  0
  -24.5828  -30.7210   25.7884 H   0  0  0  0  0  0
  -24.9097  -32.2976   26.5007 H   0  0  0  0  0  0
  -25.8142  -30.8874   27.0221 H   0  0  0  0  0  0
  -26.2830  -29.6816   24.1150 H   0  0  0  0  0  0
  -27.4041  -29.7275   25.4548 H   0  0  0  0  0  0
  -27.8661  -30.4359   23.9257 H   0  0  0  0  0  0
  -27.2512  -33.3591   26.2129 H   0  0  0  0  0  0
  -28.3760  -32.7032   25.0330 H   0  0  0  0  0  0
  -28.0692  -31.8484   26.5384 H   0  0  0  0  0  0
  -28.2603  -38.0120   24.7529 H   0  0  0  0  0  0
  -28.1086  -36.2655   24.6246 H   0  0  0  0  0  0
  -27.2313  -37.1435   25.8854 H   0  0  0  0  0  0
  -20.9229  -29.8813   21.6994 H   0  0  0  0  0  0
  -26.0193  -38.2875   24.1366 H   0  0  0  0  0  0
  -30.9154  -17.5074   22.2632 H   0  0  0  0  0  0
  -31.0910  -18.2036   17.4302 H   0  0  0  0  0  0
  -33.3946  -18.7066   17.0015 H   0  0  0  0  0  0
  -33.5454  -20.5047   16.6503 H   0  0  0  0  0  0
  -34.7446  -20.8085   18.7975 H   0  0  0  0  0  0
  -34.5395  -19.0210   19.1781 H   0  0  0  0  0  0
  -31.8469  -21.7951   20.7361 H   0  0  0  0  0  0
  -33.5059  -21.2671   21.0023 H   0  0  0  0  0  0
  -32.1341  -20.9375   24.4659 H   0  0  0  0  0  0
  -30.8114  -21.9897   24.0103 H   0  0  0  0  0  0
  -32.1644  -21.0401   18.6490 H   0  0  0  0  0  0
  -32.8199  -19.4002   22.3267 H   0  0  0  0  0  0
  -27.6438  -20.1352   23.5661 H   0  0  0  0  0  0
  -28.9220  -20.7871   24.5794 H   0  0  0  0  0  0
  -28.8714  -19.0707   24.2202 H   0  0  0  0  0  0
  -29.7023  -21.5291   20.7336 H   0  0  0  0  0  0
  -28.1311  -21.0370   21.1885 H   0  0  0  0  0  0
  -29.6405  -23.4368   22.1582 H   0  0  0  0  0  0
  -28.5504  -22.7110   23.3050 H   0  0  0  0  0  0
  -26.5659  -25.2008   21.4258 H   0  0  0  0  0  0
  -28.0332  -25.3496   22.3548 H   0  0  0  0  0  0
  -27.9117  -24.9166   19.2871 H   0  0  0  0  0  0
  -29.3812  -24.9801   20.2154 H   0  0  0  0  0  0
  -29.3362  -19.3824   21.9495 H   0  0  0  0  0  0
  -29.0819  -15.3937   21.0863 H   0  0  0  0  0  0
  -32.2435  -22.9768   22.5623 H   0  0  0  0  0  0
  -33.4244  -22.0092   23.1122 H   0  0  0  0  0  0
  -26.7788  -23.1538   22.1568 H   0  0  0  0  0  0
  -27.4372  -23.0007   20.6895 H   0  0  0  0  0  0
  1 25  1  0  0  0
  1 30  2  0  0  0
  1 90  1  0  0  0
  2  3  1  0  0  0
  2 25  1  0  0  0
  2 93  1  0  0  0
  2 94  1  0  0  0
  3  4  1  0  0  0
  3 95  1  0  0  0
  3 96  1  0  0  0
  4  5  1  0  0  0
  4 97  1  0  0  0
  4 98  1  0  0  0
  5  6  1  0  0  0
  5 26  1  0  0  0
  5 99  1  0  0  0
  6 25  1  0  0  0
  6100  1  0  0  0
  6101  1  0  0  0
  7  8  2  0  0  0
  7 26  1  0  0  0
  7 29  1  0  0  0
  8  9  1  0  0  0
  8 22  1  0  0  0
  9 10  1  0  0  0
  9 27  2  0  0  0
 10 11  2  0  0  0
 10 15  1  0  0  0
 11 12  1  0  0  0
 11102  1  0  0  0
 12 13  2  0  0  0
 12103  1  0  0  0
 13 14  1  0  0  0
 13 31  1  0  0  0
 14 15  2  0  0  0
 14104  1  0  0  0
 15105  1  0  0  0
 16 17  2  0  0  0
 16 21  1  0  0  0
 16 31  1  0  0  0
 17 18  1  0  0  0
 17106  1  0  0  0
 18 19  2  0  0  0
 18107  1  0  0  0
 19 20  1  0  0  0
 19 24  1  0  0  0
 20 21  2  0  0  0
 20108  1  0  0  0
 21 23  1  0  0  0
 22 28  1  0  0  0
 22 32  2  0  0  0
 26 27  1  0  0  0
 28109  1  0  0  0
 28110  1  0  0  0
 29111  1  0  0  0
 29112  1  0  0  0
 33 34  1  0  0  0
 33 66  1  0  0  0
 33 70  2  0  0  0
 34 36  1  0  0  0
 34 59  1  0  0  0
 34113  1  0  0  0
 35 44  2  0  0  0
 35 45  1  0  0  0
 35 68  1  0  0  0
 36 56  1  0  0  0
 36114  1  0  0  0
 37 39  1  0  0  0
 37 47  1  0  0  0
 37 66  1  0  0  0
 37115  1  0  0  0
 38 43  2  0  0  0
 38 46  1  0  0  0
 38 47  1  0  0  0
 39 64  1  0  0  0
 39 67  2  0  0  0
 40 52  1  0  0  0
 40 53  2  0  0  0
 40 58  1  0  0  0
 41116  1  0  0  0
 41117  1  0  0  0
 41118  1  0  0  0
 41 48  1  0  0  0
 42 43  1  0  0  0
 42 66  1  0  0  0
 42119  1  0  0  0
 42120  1  0  0  0
 43 44  1  0  0  0
 44121  1  0  0  0
 45 46  2  0  0  0
 45122  1  0  0  0
 46123  1  0  0  0
 47124  1  0  0  0
 47125  1  0  0  0
 48 56  1  0  0  0
 48 65  1  0  0  0
 48126  1  0  0  0
 49 50  1  0  0  0
 49 53  1  0  0  0
 49 64  1  0  0  0
 49127  1  0  0  0
 50 51  1  0  0  0
 50128  1  0  0  0
 50129  1  0  0  0
 51 52  1  0  0  0
 51130  1  0  0  0
 51131  1  0  0  0
 52132  1  0  0  0
 52133  1  0  0  0
 53 54  1  0  0  0
 54 55  2  0  0  0
 54134  1  0  0  0
 55 57  1  0  0  0
 55135  1  0  0  0
 56 69  2  0  0  0
 57 58  2  0  0  0
 57136  1  0  0  0
 58137  1  0  0  0
 59 60  1  0  0  0
 59 61  1  0  0  0
 59 62  1  0  0  0
 60138  1  0  0  0
 60139  1  0  0  0
 60140  1  0  0  0
 61141  1  0  0  0
 61142  1  0  0  0
 61143  1  0  0  0
 62144  1  0  0  0
 62145  1  0  0  0
 62146  1  0  0  0
 63 65  1  0  0  0
 63147  1  0  0  0
 63148  1  0  0  0
 63149  1  0  0  0
 64150  1  0  0  0
 65151  1  0  0  0
 68 86  1  0  0  0
 71 73  2  0  0  0
 71 75  1  0  0  0
 71152  1  0  0  0
 72 74  2  0  0  0
 72 88  1  0  0  0
 72153  1  0  0  0
 73 74  1  0  0  0
 73 81  1  0  0  0
 74 80  1  0  0  0
 75 88  2  0  0  0
 75 90  1  0  0  0
 76 77  1  0  0  0
 76 80  1  0  0  0
 76154  1  0  0  0
 76155  1  0  0  0
 77 80  1  0  0  0
 77156  1  0  0  0
 77157  1  0  0  0
 78 81  1  0  0  0
 78 91  1  0  0  0
 78158  1  0  0  0
 78159  1  0  0  0
 79 89  1  0  0  0
 79 91  1  0  0  0
 79160  1  0  0  0
 79161  1  0  0  0
 80162  1  0  0  0
 81 89  1  0  0  0
 81163  1  0  0  0
 82164  1  0  0  0
 82165  1  0  0  0
 82166  1  0  0  0
 82 87  1  0  0  0
 83 84  1  0  0  0
 83 87  1  0  0  0
 83167  1  0  0  0
 83168  1  0  0  0
 84 92  1  0  0  0
 84169  1  0  0  0
 84170  1  0  0  0
 85 86  1  0  0  0
 85 92  1  0  0  0
 85171  1  0  0  0
 85172  1  0  0  0
 86173  1  0  0  0
 86174  1  0  0  0
 87 89  1  0  0  0
 87175  1  0  0  0
 90176  1  0  0  0
 91177  1  0  0  0
 91178  1  0  0  0
 92179  1  0  0  0
 92180  1  0  0  0
M  CHG  2  91   1  92   1
M  ISO  4   1 100  68 101  86 101  90 100
M  END
> <chiral flag>
0

> <version>
0

> <s_m_source_file>
/data/baiqing/PycharmProjects/Reinvent-master-3.2/result/LINK_invent/BTK/process_docking_weight1_custom_sum_contain_oxygen_bond_distance_aromatic_linkinvent_7_9_3/rearranged_h_0198.sdf

> <i_m_source_file_index>
59

> <r_mmod_Potential_Energy-OPLS-2005>
-273.886535644531

> <r_mmod_Stretch_Energy-OPLS-2005>
38.8357772827148

> <r_mmod_Bend_Energy-OPLS-2005>
162.901031494141

> <r_mmod_Torsional_Energy-OPLS-2005>
378.029602050781

> <r_mmod_Improper_Torsional_Energy-OPLS-2005>
6.09880304336548

> <r_mmod_Van_der_Waal_Energy-OPLS-2005>
161.07453918457

> <r_mmod_Electrostatic_Energy-OPLS-2005>
-45.5534210205078

> <r_mmod_Solvation_Energy-OPLS-2005>
-992.972717285156

> <b_mmod_Minimization_Converged-OPLS-2005>
0

> <r_mmod_RMS_Derivative-OPLS-2005>
4.81868648529053

$$$$
59
                    3D
 Structure written by MMmdl.
154163  0  0  1  0            999 V2000
  -30.5491  -14.8597   20.4156 C   0  0  0  0  0  0
  -30.4357  -12.5240   19.4744 C   0  0  0  0  0  0
  -29.5130  -12.5164   18.2350 C   0  0  0  0  0  0
  -28.0416  -12.3244   18.6541 C   0  0  0  0  0  0
  -27.6359  -13.2362   19.8439 C   0  0  2  0  0  0
  -28.6805  -13.2108   20.9767 C   0  0  0  0  0  0
  -25.2519  -13.8197   20.5701 C   0  0  0  0  0  0
  -24.1806  -13.0428   20.9202 C   0  0  0  0  0  0
  -24.6407  -11.6913   20.8739 C   0  0  0  0  0  0
  -23.9079  -10.4290   21.0390 C   0  0  0  0  0  0
  -24.3622   -9.4208   21.9165 C   0  0  0  0  0  0
  -23.6304   -8.2244   22.0748 C   0  0  0  0  0  0
  -22.4277   -8.0282   21.3549 C   0  0  0  0  0  0
  -21.9909   -9.0255   20.4649 C   0  0  0  0  0  0
  -22.7245  -10.2135   20.3045 C   0  0  0  0  0  0
  -21.6855   -6.0732   22.5267 C   0  0  0  0  0  0
  -21.4011   -6.5630   23.8202 C   0  0  0  0  0  0
  -21.3666   -5.6786   24.9163 C   0  0  0  0  0  0
  -21.6068   -4.3058   24.7219 C   0  0  0  0  0  0
  -21.8822   -3.8138   23.4338 C   0  0  0  0  0  0
  -21.9193   -4.6955   22.3388 C   0  0  0  0  0  0
  -22.7844  -13.5224   21.1866 C   0  0  0  0  0  0
  -22.1667   -4.2126   21.0973 F   0  0  0  0  0  0
  -21.5629   -3.4558   25.7743 F   0  0  0  0  0  0
  -29.9576  -13.6059   20.3749 N   0  0  0  0  0  0
  -26.2922  -12.9388   20.3259 N   0  0  0  0  0  0
  -25.9331  -11.6526   20.5736 N   0  0  0  0  0  0
  -22.0480  -12.8229   22.0434 N   0  0  0  0  0  0
  -25.4269  -15.1908   20.4181 N   0  0  0  0  0  0
  -31.7539  -14.9377   20.1534 O   0  0  0  0  0  0
  -21.6628   -6.8885   21.4245 O   0  0  0  0  0  0
  -22.3529  -14.5528   20.6726 O   0  0  0  0  0  0
  -24.6408  -31.8456   23.1898 C   0  0  0  0  0  0
  -25.9195  -32.4695   23.8287 C   0  0  1  0  0  0
  -27.2075  -27.1576   20.1406 C   0  0  0  0  0  0
  -25.5941  -33.8504   24.2200 N   0  0  0  0  0  0
  -23.4436  -30.4674   21.5328 C   0  0  2  0  0  0
  -24.8941  -28.9014   20.1048 C   0  0  0  0  0  0
  -22.7555  -29.4556   22.4830 C   0  0  0  0  0  0
  -18.0309  -28.1394   22.8482 C   0  0  0  0  0  0
  -24.1494  -36.7262   23.2641 C   0  0  0  0  0  0
  -26.0013  -30.7236   21.3912 C   0  0  0  0  0  0
  -26.0691  -29.3391   20.7295 C   0  0  0  0  0  0
  -27.2296  -28.4799   20.7349 C   0  0  0  0  0  0
  -26.0169  -26.8295   19.4581 C   0  0  0  0  0  0
  -24.8792  -27.6601   19.4544 C   0  0  0  0  0  0
  -23.6716  -29.8006   20.1499 C   0  0  0  0  0  0
  -25.4127  -36.3027   24.0312 C   0  0  1  0  0  0
  -20.5925  -28.3721   23.1233 C   0  0  2  0  0  0
  -20.6786  -26.9421   22.5402 C   0  0  0  0  0  0
  -19.5756  -26.6382   21.5211 C   0  0  0  0  0  0
  -18.1943  -26.7931   22.1630 C   0  0  0  0  0  0
  -19.1566  -28.8881   23.2852 C   0  0  0  0  0  0
  -18.9481  -30.1475   23.8878 C   0  0  0  0  0  0
  -17.6473  -30.6586   24.0567 C   0  0  0  0  0  0
  -25.9084  -34.9401   23.5078 C   0  0  0  0  0  0
  -16.5366  -29.9085   23.6323 C   0  0  0  0  0  0
  -16.7296  -28.6505   23.0350 C   0  0  0  0  0  0
  -26.4518  -31.6558   25.0724 C   0  0  0  0  0  0
  -25.3708  -31.3762   26.1424 C   0  0  0  0  0  0
  -27.0374  -30.2944   24.6309 C   0  0  0  0  0  0
  -27.6055  -32.4323   25.7499 C   0  0  0  0  0  0
  -27.5576  -37.1787   24.8464 C   0  0  0  0  0  0
  -21.4254  -29.3041   22.3594 N   0  0  0  0  0  0
  -26.4289  -37.3736   23.9399 N   0  0  0  0  0  0
  -24.7146  -31.0339   22.0917 N   0  0  0  0  0  0
  -23.4216  -28.8086   23.2951 O   0  0  0  0  0  0
  -28.2515  -26.1721   20.2055 O   0  0  0  0  0  0
  -26.5651  -34.8894   22.4643 O   0  0  0  0  0  0
  -23.5532  -32.1328   23.7125 O   0  0  0  0  0  0
  -28.4904  -23.6502   21.3277 C   0  0  0  0  0  0
  -28.4983  -23.5608   19.2204 C   0  0  0  0  0  0
  -29.9579  -17.2046   21.4044 C   0  0  0  0  0  0
  -29.7271  -17.0990   19.4106 C   0  0  0  0  0  0
  -29.2737  -18.2303   20.4177 C   0  0  0  0  0  0
  -29.0768  -22.5624   20.3207 C   0  0  2  0  0  0
  -27.9306  -24.6509   20.2328 C   0  0  2  0  0  0
  -29.6728  -19.8533   20.2958 C   0  0  0  0  0  0
  -29.7475  -16.0284   20.4785 N   0  0  0  0  0  0
  -28.6442  -21.0396   20.4063 N   0  3  0  0  0  0
  -31.4721  -12.6702   19.1674 H   0  0  0  0  0  0
  -30.4086  -11.5568   19.9793 H   0  0  0  0  0  0
  -29.8164  -11.7240   17.5492 H   0  0  0  0  0  0
  -29.6227  -13.4547   17.6888 H   0  0  0  0  0  0
  -27.9206  -11.2779   18.9366 H   0  0  0  0  0  0
  -27.3788  -12.4896   17.8044 H   0  0  0  0  0  0
  -27.6200  -14.2533   19.4514 H   0  0  0  0  0  0
  -28.7467  -12.2214   21.4312 H   0  0  0  0  0  0
  -28.4036  -13.8991   21.7761 H   0  0  0  0  0  0
  -25.2759   -9.5683   22.4750 H   0  0  0  0  0  0
  -24.0020   -7.4628   22.7464 H   0  0  0  0  0  0
  -21.0831   -8.8766   19.8970 H   0  0  0  0  0  0
  -22.3683  -10.9666   19.6163 H   0  0  0  0  0  0
  -21.1993   -7.6134   23.9716 H   0  0  0  0  0  0
  -21.1496   -6.0496   25.9076 H   0  0  0  0  0  0
  -22.0602   -2.7592   23.2822 H   0  0  0  0  0  0
  -22.4092  -11.9896   22.4820 H   0  0  0  0  0  0
  -21.1111  -13.1281   22.2653 H   0  0  0  0  0  0
  -24.6762  -15.8583   20.5561 H   0  0  0  0  0  0
  -26.3029  -15.6256   20.1537 H   0  0  0  0  0  0
  -26.7253  -32.5310   23.1011 H   0  0  0  0  0  0
  -25.0039  -33.9616   25.0314 H   0  0  0  0  0  0
  -22.7462  -31.2932   21.3760 H   0  0  0  0  0  0
  -23.3736  -35.9614   23.3317 H   0  0  0  0  0  0
  -24.3591  -36.8878   22.2055 H   0  0  0  0  0  0
  -23.7272  -37.6476   23.6674 H   0  0  0  0  0  0
  -26.1639  -31.4801   20.6227 H   0  0  0  0  0  0
  -26.8700  -30.7694   22.0364 H   0  0  0  0  0  0
  -28.1261  -28.8027   21.2478 H   0  0  0  0  0  0
  -25.9422  -25.8958   18.9220 H   0  0  0  0  0  0
  -23.9874  -27.3283   18.9401 H   0  0  0  0  0  0
  -23.8134  -30.5750   19.3951 H   0  0  0  0  0  0
  -22.7888  -29.2414   19.8345 H   0  0  0  0  0  0
  -25.1312  -36.1857   25.0801 H   0  0  0  0  0  0
  -21.0045  -28.3312   24.1343 H   0  0  0  0  0  0
  -20.5673  -26.2334   23.3623 H   0  0  0  0  0  0
  -21.6652  -26.7408   22.1202 H   0  0  0  0  0  0
  -19.6911  -25.6289   21.1248 H   0  0  0  0  0  0
  -19.6690  -27.3184   20.6736 H   0  0  0  0  0  0
  -17.4209  -26.6679   21.4039 H   0  0  0  0  0  0
  -18.0342  -26.0082   22.9039 H   0  0  0  0  0  0
  -19.7966  -30.7292   24.2239 H   0  0  0  0  0  0
  -17.5034  -31.6262   24.5171 H   0  0  0  0  0  0
  -15.5369  -30.2982   23.7662 H   0  0  0  0  0  0
  -15.8698  -28.0824   22.7058 H   0  0  0  0  0  0
  -24.5857  -30.7141   25.7748 H   0  0  0  0  0  0
  -24.8929  -32.2955   26.4818 H   0  0  0  0  0  0
  -25.7987  -30.8943   27.0222 H   0  0  0  0  0  0
  -26.2987  -29.6661   24.1309 H   0  0  0  0  0  0
  -27.3964  -29.7245   25.4889 H   0  0  0  0  0  0
  -27.8913  -30.4159   23.9641 H   0  0  0  0  0  0
  -27.2635  -33.3615   26.2062 H   0  0  0  0  0  0
  -28.3863  -32.6895   25.0335 H   0  0  0  0  0  0
  -28.0720  -31.8463   26.5422 H   0  0  0  0  0  0
  -28.2588  -38.0084   24.7479 H   0  0  0  0  0  0
  -28.1070  -36.2609   24.6321 H   0  0  0  0  0  0
  -27.2296  -37.1464   25.8868 H   0  0  0  0  0  0
  -20.9458  -29.8791   21.6811 H   0  0  0  0  0  0
  -26.0155  -38.2808   24.1382 H   0  0  0  0  0  0
  -29.2615  -24.1068   21.9505 H   0  0  0  0  0  0
  -27.6921  -23.2603   21.9622 H   0  0  0  0  0  0
  -27.7146  -23.1144   18.6059 H   0  0  0  0  0  0
  -29.2839  -23.9585   18.5753 H   0  0  0  0  0  0
  -29.4137  -17.1193   22.3447 H   0  0  0  0  0  0
  -31.0087  -17.4254   21.6055 H   0  0  0  0  0  0
  -30.7025  -17.2825   18.9538 H   0  0  0  0  0  0
  -28.9960  -16.9163   18.6194 H   0  0  0  0  0  0
  -28.1949  -18.1355   20.5427 H   0  0  0  0  0  0
  -30.1665  -22.6138   20.3337 H   0  0  0  0  0  0
  -26.8506  -24.5266   20.2811 H   0  0  0  0  0  0
  -30.1950  -20.0028   19.3505 H   0  0  0  0  0  0
  -30.4286  -20.0587   21.0542 H   0  0  0  0  0  0
  -27.9233  -20.8699   19.7256 H   0  0  0  0  0  0
  -28.2039  -20.9103   21.3018 H   0  0  0  0  0  0
  1 25  1  0  0  0
  1 30  2  0  0  0
  1 79  1  0  0  0
  2  3  1  0  0  0
  2 25  1  0  0  0
  2 81  1  0  0  0
  2 82  1  0  0  0
  3  4  1  0  0  0
  3 83  1  0  0  0
  3 84  1  0  0  0
  4  5  1  0  0  0
  4 85  1  0  0  0
  4 86  1  0  0  0
  5  6  1  0  0  0
  5 26  1  0  0  0
  5 87  1  0  0  0
  6 25  1  0  0  0
  6 88  1  0  0  0
  6 89  1  0  0  0
  7  8  2  0  0  0
  7 26  1  0  0  0
  7 29  1  0  0  0
  8  9  1  0  0  0
  8 22  1  0  0  0
  9 10  1  0  0  0
  9 27  2  0  0  0
 10 11  2  0  0  0
 10 15  1  0  0  0
 11 12  1  0  0  0
 11 90  1  0  0  0
 12 13  2  0  0  0
 12 91  1  0  0  0
 13 14  1  0  0  0
 13 31  1  0  0  0
 14 15  2  0  0  0
 14 92  1  0  0  0
 15 93  1  0  0  0
 16 17  2  0  0  0
 16 21  1  0  0  0
 16 31  1  0  0  0
 17 18  1  0  0  0
 17 94  1  0  0  0
 18 19  2  0  0  0
 18 95  1  0  0  0
 19 20  1  0  0  0
 19 24  1  0  0  0
 20 21  2  0  0  0
 20 96  1  0  0  0
 21 23  1  0  0  0
 22 28  1  0  0  0
 22 32  2  0  0  0
 26 27  1  0  0  0
 28 97  1  0  0  0
 28 98  1  0  0  0
 29 99  1  0  0  0
 29100  1  0  0  0
 33 34  1  0  0  0
 33 66  1  0  0  0
 33 70  2  0  0  0
 34 36  1  0  0  0
 34 59  1  0  0  0
 34101  1  0  0  0
 35 44  2  0  0  0
 35 45  1  0  0  0
 35 68  1  0  0  0
 36 56  1  0  0  0
 36102  1  0  0  0
 37 39  1  0  0  0
 37 47  1  0  0  0
 37 66  1  0  0  0
 37103  1  0  0  0
 38 43  2  0  0  0
 38 46  1  0  0  0
 38 47  1  0  0  0
 39 64  1  0  0  0
 39 67  2  0  0  0
 40 52  1  0  0  0
 40 53  2  0  0  0
 40 58  1  0  0  0
 41104  1  0  0  0
 41105  1  0  0  0
 41106  1  0  0  0
 41 48  1  0  0  0
 42 43  1  0  0  0
 42 66  1  0  0  0
 42107  1  0  0  0
 42108  1  0  0  0
 43 44  1  0  0  0
 44109  1  0  0  0
 45 46  2  0  0  0
 45110  1  0  0  0
 46111  1  0  0  0
 47112  1  0  0  0
 47113  1  0  0  0
 48 56  1  0  0  0
 48 65  1  0  0  0
 48114  1  0  0  0
 49 50  1  0  0  0
 49 53  1  0  0  0
 49 64  1  0  0  0
 49115  1  0  0  0
 50 51  1  0  0  0
 50116  1  0  0  0
 50117  1  0  0  0
 51 52  1  0  0  0
 51118  1  0  0  0
 51119  1  0  0  0
 52120  1  0  0  0
 52121  1  0  0  0
 53 54  1  0  0  0
 54 55  2  0  0  0
 54122  1  0  0  0
 55 57  1  0  0  0
 55123  1  0  0  0
 56 69  2  0  0  0
 57 58  2  0  0  0
 57124  1  0  0  0
 58125  1  0  0  0
 59 60  1  0  0  0
 59 61  1  0  0  0
 59 62  1  0  0  0
 60126  1  0  0  0
 60127  1  0  0  0
 60128  1  0  0  0
 61129  1  0  0  0
 61130  1  0  0  0
 61131  1  0  0  0
 62132  1  0  0  0
 62133  1  0  0  0
 62134  1  0  0  0
 63 65  1  0  0  0
 63135  1  0  0  0
 63136  1  0  0  0
 63137  1  0  0  0
 64138  1  0  0  0
 65139  1  0  0  0
 68 77  1  0  0  0
 71 76  1  0  0  0
 71 77  1  0  0  0
 71140  1  0  0  0
 71141  1  0  0  0
 72 76  1  0  0  0
 72 77  1  0  0  0
 72142  1  0  0  0
 72143  1  0  0  0
 73 75  1  0  0  0
 73 79  1  0  0  0
 73144  1  0  0  0
 73145  1  0  0  0
 74 75  1  0  0  0
 74 79  1  0  0  0
 74146  1  0  0  0
 74147  1  0  0  0
 75 78  1  0  0  0
 75148  1  0  0  0
 76 80  1  0  0  0
 76149  1  0  0  0
 77150  1  0  0  0
 78 80  1  0  0  0
 78151  1  0  0  0
 78152  1  0  0  0
 80153  1  0  0  0
 80154  1  0  0  0
M  CHG  1  80   1
M  ISO  4   1 100  68 101  77 101  79 100
M  END
> <chiral flag>
0

> <version>
0

> <s_m_source_file>
/data/baiqing/PycharmProjects/Reinvent-master-3.2/result/LINK_invent/BTK/process_docking_weight1_custom_sum_contain_oxygen_bond_distance_aromatic_linkinvent_7_9_3/rearranged_h_0198.sdf

> <i_m_source_file_index>
60

> <r_mmod_Potential_Energy-OPLS-2005>
361.248718261719

> <r_mmod_Stretch_Energy-OPLS-2005>
196.218002319336

> <r_mmod_Bend_Energy-OPLS-2005>
255.066619873047

> <r_mmod_Torsional_Energy-OPLS-2005>
336.838348388672

> <r_mmod_Improper_Torsional_Energy-OPLS-2005>
13.5906095504761

> <r_mmod_Van_der_Waal_Energy-OPLS-2005>
113.95581817627

> <r_mmod_Electrostatic_Energy-OPLS-2005>
-213.661437988281

> <r_mmod_Solvation_Energy-OPLS-2005>
-496.083587646484

> <b_mmod_Minimization_Converged-OPLS-2005>
0

> <r_mmod_RMS_Derivative-OPLS-2005>
3.72477245330811

$$$$
60
                    3D
 Structure written by MMmdl.
162171  0  0  1  0            999 V2000
  -30.6303  -14.7015   20.5771 C   0  0  0  0  0  0
  -30.4427  -12.4590   19.4846 C   0  0  0  0  0  0
  -29.5153  -12.5229   18.2490 C   0  0  0  0  0  0
  -28.0399  -12.3451   18.6512 C   0  0  0  0  0  0
  -27.6478  -13.2267   19.8682 C   0  0  2  0  0  0
  -28.6834  -13.1038   21.0053 C   0  0  0  0  0  0
  -25.2524  -13.8210   20.5727 C   0  0  0  0  0  0
  -24.1779  -13.0442   20.9187 C   0  0  0  0  0  0
  -24.6349  -11.6921   20.8722 C   0  0  0  0  0  0
  -23.9025  -10.4299   21.0399 C   0  0  0  0  0  0
  -24.3603   -9.4225   21.9174 C   0  0  0  0  0  0
  -23.6294   -8.2249   22.0756 C   0  0  0  0  0  0
  -22.4270   -8.0289   21.3551 C   0  0  0  0  0  0
  -21.9890   -9.0257   20.4652 C   0  0  0  0  0  0
  -22.7200  -10.2139   20.3061 C   0  0  0  0  0  0
  -21.6846   -6.0755   22.5299 C   0  0  0  0  0  0
  -21.4009   -6.5659   23.8242 C   0  0  0  0  0  0
  -21.3652   -5.6807   24.9190 C   0  0  0  0  0  0
  -21.6043   -4.3076   24.7230 C   0  0  0  0  0  0
  -21.8813   -3.8175   23.4345 C   0  0  0  0  0  0
  -21.9187   -4.6988   22.3406 C   0  0  0  0  0  0
  -22.7812  -13.5260   21.1843 C   0  0  0  0  0  0
  -22.1651   -4.2183   21.0975 F   0  0  0  0  0  0
  -21.5618   -3.4545   25.7734 F   0  0  0  0  0  0
  -29.9860  -13.4889   20.4515 N   0  0  0  0  0  0
  -26.2943  -12.9392   20.3339 N   0  0  0  0  0  0
  -25.9289  -11.6537   20.5749 N   0  0  0  0  0  0
  -22.0421  -12.8295   22.0418 N   0  0  0  0  0  0
  -25.4216  -15.1932   20.4197 N   0  0  0  0  0  0
  -31.7876  -14.8029   20.1513 O   0  0  0  0  0  0
  -21.6618   -6.8889   21.4257 O   0  0  0  0  0  0
  -22.3497  -14.5541   20.6671 O   0  0  0  0  0  0
  -24.6335  -31.8534   23.1974 C   0  0  0  0  0  0
  -25.9169  -32.4737   23.8300 C   0  0  1  0  0  0
  -27.2239  -27.2580   20.1406 C   0  0  0  0  0  0
  -25.5955  -33.8534   24.2235 N   0  0  0  0  0  0
  -23.4290  -30.4751   21.5402 C   0  0  2  0  0  0
  -24.8798  -28.9238   20.1073 C   0  0  0  0  0  0
  -22.7499  -29.4600   22.4906 C   0  0  0  0  0  0
  -18.0297  -28.1408   22.8492 C   0  0  0  0  0  0
  -24.1488  -36.7260   23.2634 C   0  0  0  0  0  0
  -25.9745  -30.7660   21.3760 C   0  0  0  0  0  0
  -26.0492  -29.3898   20.7218 C   0  0  0  0  0  0
  -27.2218  -28.5680   20.7306 C   0  0  0  0  0  0
  -26.0370  -26.8748   19.4720 C   0  0  0  0  0  0
  -24.8790  -27.6757   19.4695 C   0  0  0  0  0  0
  -23.6488  -29.8090   20.1553 C   0  0  0  0  0  0
  -25.4112  -36.3036   24.0319 C   0  0  1  0  0  0
  -20.5903  -28.3717   23.1273 C   0  0  2  0  0  0
  -20.6773  -26.9427   22.5422 C   0  0  0  0  0  0
  -19.5742  -26.6400   21.5229 C   0  0  0  0  0  0
  -18.1937  -26.7945   22.1645 C   0  0  0  0  0  0
  -19.1547  -28.8875   23.2867 C   0  0  0  0  0  0
  -18.9466  -30.1482   23.8878 C   0  0  0  0  0  0
  -17.6463  -30.6592   24.0578 C   0  0  0  0  0  0
  -25.9056  -34.9423   23.5069 C   0  0  0  0  0  0
  -16.5357  -29.9100   23.6345 C   0  0  0  0  0  0
  -16.7283  -28.6526   23.0347 C   0  0  0  0  0  0
  -26.4536  -31.6563   25.0686 C   0  0  0  0  0  0
  -25.3759  -31.3734   26.1399 C   0  0  0  0  0  0
  -27.0384  -30.2968   24.6193 C   0  0  0  0  0  0
  -27.6070  -32.4316   25.7488 C   0  0  0  0  0  0
  -27.5567  -37.1780   24.8464 C   0  0  0  0  0  0
  -21.4210  -29.3037   22.3650 N   0  0  0  0  0  0
  -26.4278  -37.3744   23.9414 N   0  0  0  0  0  0
  -24.6975  -31.0511   22.0945 N   0  0  0  0  0  0
  -23.4182  -28.8132   23.3002 O   0  0  0  0  0  0
  -28.3101  -26.3523   20.2500 O   0  0  0  0  0  0
  -26.5627  -34.8915   22.4635 O   0  0  0  0  0  0
  -23.5490  -32.1360   23.7289 O   0  0  0  0  0  0
  -29.2929  -17.8155   22.2214 C   0  0  0  0  0  0
  -29.2612  -16.2541   22.0968 C   0  0  0  0  0  0
  -30.1657  -17.1792   20.1478 C   0  0  0  0  0  0
  -29.0824  -22.2523   19.8416 C   0  0  0  0  0  0
  -29.4400  -21.7674   22.0549 C   0  0  0  0  0  0
  -29.3231  -18.3566   20.7854 C   0  0  1  0  0  0
  -29.0145  -23.6725   20.5747 C   0  0  1  0  0  0
  -28.7956  -23.1814   22.0250 C   0  0  1  0  0  0
  -29.8355  -19.8639   20.4902 C   0  0  0  0  0  0
  -28.1071  -24.8820   19.9657 C   0  0  0  0  0  0
  -29.8935  -15.8645   20.8207 N   0  0  0  0  0  0
  -29.0201  -21.1045   20.8139 N   0  0  0  0  0  0
  -27.3779  -23.0505   22.4028 N   0  3  0  0  0  0
  -31.4750  -12.6149   19.1656 H   0  0  0  0  0  0
  -30.4284  -11.4700   19.9453 H   0  0  0  0  0  0
  -29.8019  -11.7621   17.5220 H   0  0  0  0  0  0
  -29.6446  -13.4870   17.7542 H   0  0  0  0  0  0
  -27.8852  -11.2927   18.8902 H   0  0  0  0  0  0
  -27.3908  -12.5639   17.8024 H   0  0  0  0  0  0
  -27.6628  -14.2573   19.5101 H   0  0  0  0  0  0
  -28.7157  -12.0752   21.3726 H   0  0  0  0  0  0
  -28.4120  -13.7135   21.8635 H   0  0  0  0  0  0
  -25.2742   -9.5716   22.4755 H   0  0  0  0  0  0
  -24.0020   -7.4627   22.7477 H   0  0  0  0  0  0
  -21.0816   -8.8776   19.8955 H   0  0  0  0  0  0
  -22.3650  -10.9687   19.6193 H   0  0  0  0  0  0
  -21.2001   -7.6172   23.9770 H   0  0  0  0  0  0
  -21.1470   -6.0515   25.9101 H   0  0  0  0  0  0
  -22.0586   -2.7634   23.2832 H   0  0  0  0  0  0
  -22.3987  -11.9997   22.4910 H   0  0  0  0  0  0
  -21.1042  -13.1389   22.2547 H   0  0  0  0  0  0
  -24.6556  -15.8500   20.5287 H   0  0  0  0  0  0
  -26.2882  -15.6381   20.1447 H   0  0  0  0  0  0
  -26.7236  -32.5402   23.1032 H   0  0  0  0  0  0
  -25.0080  -33.9655   25.0370 H   0  0  0  0  0  0
  -22.7244  -31.2969   21.3921 H   0  0  0  0  0  0
  -23.3740  -35.9601   23.3295 H   0  0  0  0  0  0
  -24.3551  -36.8882   22.2040 H   0  0  0  0  0  0
  -23.7278  -37.6476   23.6665 H   0  0  0  0  0  0
  -26.1154  -31.5240   20.6040 H   0  0  0  0  0  0
  -26.8500  -30.8137   22.0127 H   0  0  0  0  0  0
  -28.1137  -28.9125   21.2348 H   0  0  0  0  0  0
  -25.9699  -25.9279   18.9592 H   0  0  0  0  0  0
  -23.9868  -27.3200   18.9729 H   0  0  0  0  0  0
  -23.7719  -30.5813   19.3952 H   0  0  0  0  0  0
  -22.7676  -29.2379   19.8579 H   0  0  0  0  0  0
  -25.1313  -36.1836   25.0815 H   0  0  0  0  0  0
  -21.0013  -28.3305   24.1382 H   0  0  0  0  0  0
  -20.5677  -26.2333   23.3629 H   0  0  0  0  0  0
  -21.6649  -26.7441   22.1212 H   0  0  0  0  0  0
  -19.6891  -25.6315   21.1252 H   0  0  0  0  0  0
  -19.6679  -27.3218   20.6756 H   0  0  0  0  0  0
  -17.4206  -26.6710   21.4045 H   0  0  0  0  0  0
  -18.0311  -26.0100   22.9040 H   0  0  0  0  0  0
  -19.7930  -30.7325   24.2231 H   0  0  0  0  0  0
  -17.5005  -31.6274   24.5183 H   0  0  0  0  0  0
  -15.5351  -30.2986   23.7684 H   0  0  0  0  0  0
  -15.8686  -28.0853   22.7042 H   0  0  0  0  0  0
  -24.5922  -30.7099   25.7731 H   0  0  0  0  0  0
  -24.8982  -32.2923   26.4809 H   0  0  0  0  0  0
  -25.8065  -30.8913   27.0183 H   0  0  0  0  0  0
  -26.2975  -29.6694   24.1217 H   0  0  0  0  0  0
  -27.4045  -29.7255   25.4737 H   0  0  0  0  0  0
  -27.8865  -30.4216   23.9452 H   0  0  0  0  0  0
  -27.2636  -33.3595   26.2073 H   0  0  0  0  0  0
  -28.3887  -32.6903   25.0334 H   0  0  0  0  0  0
  -28.0722  -31.8431   26.5406 H   0  0  0  0  0  0
  -28.2591  -38.0072   24.7494 H   0  0  0  0  0  0
  -28.1058  -36.2601   24.6307 H   0  0  0  0  0  0
  -27.2276  -37.1453   25.8865 H   0  0  0  0  0  0
  -20.9412  -29.8746   21.6838 H   0  0  0  0  0  0
  -26.0129  -38.2812   24.1417 H   0  0  0  0  0  0
  -30.1926  -18.1305   22.7537 H   0  0  0  0  0  0
  -28.4448  -18.1935   22.7969 H   0  0  0  0  0  0
  -28.2247  -15.9172   22.0910 H   0  0  0  0  0  0
  -29.7535  -15.7790   22.9483 H   0  0  0  0  0  0
  -31.2315  -17.3952   20.2527 H   0  0  0  0  0  0
  -29.9640  -17.0898   19.0816 H   0  0  0  0  0  0
  -30.0225  -22.1976   19.2909 H   0  0  0  0  0  0
  -28.2827  -22.1462   19.1057 H   0  0  0  0  0  0
  -29.1537  -21.1892   22.9341 H   0  0  0  0  0  0
  -30.5272  -21.8730   22.0747 H   0  0  0  0  0  0
  -28.3085  -18.2808   20.3936 H   0  0  0  0  0  0
  -30.0391  -24.0497   20.5385 H   0  0  0  0  0  0
  -29.2945  -23.8426   22.7365 H   0  0  0  0  0  0
  -29.9811  -19.8948   19.4092 H   0  0  0  0  0  0
  -30.8426  -19.9755   20.8949 H   0  0  0  0  0  0
  -27.0811  -24.6009   20.1880 H   0  0  0  0  0  0
  -28.1909  -24.8017   18.8817 H   0  0  0  0  0  0
  -26.9370  -22.3814   21.7969 H   0  0  0  0  0  0
  -26.8961  -23.9308   22.3757 H   0  0  0  0  0  0
  -27.3151  -22.6969   23.3393 H   0  0  0  0  0  0
  1 25  1  0  0  0
  1 30  2  0  0  0
  1 81  1  0  0  0
  2  3  1  0  0  0
  2 25  1  0  0  0
  2 84  1  0  0  0
  2 85  1  0  0  0
  3  4  1  0  0  0
  3 86  1  0  0  0
  3 87  1  0  0  0
  4  5  1  0  0  0
  4 88  1  0  0  0
  4 89  1  0  0  0
  5  6  1  0  0  0
  5 26  1  0  0  0
  5 90  1  0  0  0
  6 25  1  0  0  0
  6 91  1  0  0  0
  6 92  1  0  0  0
  7  8  2  0  0  0
  7 26  1  0  0  0
  7 29  1  0  0  0
  8  9  1  0  0  0
  8 22  1  0  0  0
  9 10  1  0  0  0
  9 27  2  0  0  0
 10 11  2  0  0  0
 10 15  1  0  0  0
 11 12  1  0  0  0
 11 93  1  0  0  0
 12 13  2  0  0  0
 12 94  1  0  0  0
 13 14  1  0  0  0
 13 31  1  0  0  0
 14 15  2  0  0  0
 14 95  1  0  0  0
 15 96  1  0  0  0
 16 17  2  0  0  0
 16 21  1  0  0  0
 16 31  1  0  0  0
 17 18  1  0  0  0
 17 97  1  0  0  0
 18 19  2  0  0  0
 18 98  1  0  0  0
 19 20  1  0  0  0
 19 24  1  0  0  0
 20 21  2  0  0  0
 20 99  1  0  0  0
 21 23  1  0  0  0
 22 28  1  0  0  0
 22 32  2  0  0  0
 26 27  1  0  0  0
 28100  1  0  0  0
 28101  1  0  0  0
 29102  1  0  0  0
 29103  1  0  0  0
 33 34  1  0  0  0
 33 66  1  0  0  0
 33 70  2  0  0  0
 34 36  1  0  0  0
 34 59  1  0  0  0
 34104  1  0  0  0
 35 44  2  0  0  0
 35 45  1  0  0  0
 35 68  1  0  0  0
 36 56  1  0  0  0
 36105  1  0  0  0
 37 39  1  0  0  0
 37 47  1  0  0  0
 37 66  1  0  0  0
 37106  1  0  0  0
 38 43  2  0  0  0
 38 46  1  0  0  0
 38 47  1  0  0  0
 39 64  1  0  0  0
 39 67  2  0  0  0
 40 52  1  0  0  0
 40 53  2  0  0  0
 40 58  1  0  0  0
 41107  1  0  0  0
 41108  1  0  0  0
 41109  1  0  0  0
 41 48  1  0  0  0
 42 43  1  0  0  0
 42 66  1  0  0  0
 42110  1  0  0  0
 42111  1  0  0  0
 43 44  1  0  0  0
 44112  1  0  0  0
 45 46  2  0  0  0
 45113  1  0  0  0
 46114  1  0  0  0
 47115  1  0  0  0
 47116  1  0  0  0
 48 56  1  0  0  0
 48 65  1  0  0  0
 48117  1  0  0  0
 49 50  1  0  0  0
 49 53  1  0  0  0
 49 64  1  0  0  0
 49118  1  0  0  0
 50 51  1  0  0  0
 50119  1  0  0  0
 50120  1  0  0  0
 51 52  1  0  0  0
 51121  1  0  0  0
 51122  1  0  0  0
 52123  1  0  0  0
 52124  1  0  0  0
 53 54  1  0  0  0
 54 55  2  0  0  0
 54125  1  0  0  0
 55 57  1  0  0  0
 55126  1  0  0  0
 56 69  2  0  0  0
 57 58  2  0  0  0
 57127  1  0  0  0
 58128  1  0  0  0
 59 60  1  0  0  0
 59 61  1  0  0  0
 59 62  1  0  0  0
 60129  1  0  0  0
 60130  1  0  0  0
 60131  1  0  0  0
 61132  1  0  0  0
 61133  1  0  0  0
 61134  1  0  0  0
 62135  1  0  0  0
 62136  1  0  0  0
 62137  1  0  0  0
 63 65  1  0  0  0
 63138  1  0  0  0
 63139  1  0  0  0
 63140  1  0  0  0
 64141  1  0  0  0
 65142  1  0  0  0
 68 80  1  0  0  0
 71 72  1  0  0  0
 71 76  1  0  0  0
 71143  1  0  0  0
 71144  1  0  0  0
 72 81  1  0  0  0
 72145  1  0  0  0
 72146  1  0  0  0
 73 76  1  0  0  0
 73 81  1  0  0  0
 73147  1  0  0  0
 73148  1  0  0  0
 74 77  1  0  0  0
 74 82  1  0  0  0
 74149  1  0  0  0
 74150  1  0  0  0
 75 78  1  0  0  0
 75 82  1  0  0  0
 75151  1  0  0  0
 75152  1  0  0  0
 76 79  1  0  0  0
 76153  1  0  0  0
 77 78  1  0  0  0
 77 80  1  0  0  0
 77154  1  0  0  0
 78 83  1  0  0  0
 78155  1  0  0  0
 79 82  1  0  0  0
 79156  1  0  0  0
 79157  1  0  0  0
 80158  1  0  0  0
 80159  1  0  0  0
 83160  1  0  0  0
 83161  1  0  0  0
 83162  1  0  0  0
M  CHG  1  83   1
M  ISO  4   1 100  68 101  80 101  81 100
M  END
> <chiral flag>
0

> <version>
0

> <s_m_source_file>
/data/baiqing/PycharmProjects/Reinvent-master-3.2/result/LINK_invent/BTK/process_docking_weight1_custom_sum_contain_oxygen_bond_distance_aromatic_linkinvent_7_9_3/rearranged_h_0198.sdf

> <i_m_source_file_index>
61

> <r_mmod_Potential_Energy-OPLS-2005>
224.802749633789

> <r_mmod_Stretch_Energy-OPLS-2005>
117.339447021484

> <r_mmod_Bend_Energy-OPLS-2005>
233.248031616211

> <r_mmod_Torsional_Energy-OPLS-2005>
394.890930175781

> <r_mmod_Improper_Torsional_Energy-OPLS-2005>
12.1678276062012

> <r_mmod_Van_der_Waal_Energy-OPLS-2005>
120.090835571289

> <r_mmod_Electrostatic_Energy-OPLS-2005>
-264.855316162109

> <r_mmod_Solvation_Energy-OPLS-2005>
-465.583679199219

> <b_mmod_Minimization_Converged-OPLS-2005>
0

> <r_mmod_RMS_Derivative-OPLS-2005>
4.38304233551025

$$$$
61
                    3D
 Structure written by MMmdl.
166174  0  0  1  0            999 V2000
  -30.7197  -14.4553   20.4948 C   0  0  0  0  0  0
  -30.4095  -12.2735   19.4191 C   0  0  0  0  0  0
  -29.4823  -12.4497   18.1998 C   0  0  0  0  0  0
  -28.0019  -12.3470   18.6174 C   0  0  0  0  0  0
  -27.6542  -13.2000   19.8691 C   0  0  2  0  0  0
  -28.7049  -13.0126   20.9855 C   0  0  0  0  0  0
  -25.2579  -13.8152   20.5705 C   0  0  0  0  0  0
  -24.1828  -13.0435   20.9207 C   0  0  0  0  0  0
  -24.6368  -11.6901   20.8764 C   0  0  0  0  0  0
  -23.9038  -10.4291   21.0418 C   0  0  0  0  0  0
  -24.3602   -9.4205   21.9188 C   0  0  0  0  0  0
  -23.6289   -8.2240   22.0752 C   0  0  0  0  0  0
  -22.4272   -8.0275   21.3543 C   0  0  0  0  0  0
  -21.9904   -9.0244   20.4643 C   0  0  0  0  0  0
  -22.7222  -10.2130   20.3056 C   0  0  0  0  0  0
  -21.6847   -6.0736   22.5281 C   0  0  0  0  0  0
  -21.4010   -6.5639   23.8216 C   0  0  0  0  0  0
  -21.3660   -5.6794   24.9176 C   0  0  0  0  0  0
  -21.6043   -4.3054   24.7229 C   0  0  0  0  0  0
  -21.8819   -3.8147   23.4349 C   0  0  0  0  0  0
  -21.9195   -4.6966   22.3404 C   0  0  0  0  0  0
  -22.7849  -13.5239   21.1853 C   0  0  0  0  0  0
  -22.1663   -4.2152   21.0982 F   0  0  0  0  0  0
  -21.5633   -3.4539   25.7742 F   0  0  0  0  0  0
  -30.0256  -13.2916   20.4056 N   0  0  0  0  0  0
  -26.2996  -12.9300   20.3394 N   0  0  0  0  0  0
  -25.9295  -11.6474   20.5814 N   0  0  0  0  0  0
  -22.0482  -12.8231   22.0403 N   0  0  0  0  0  0
  -25.4309  -15.1867   20.4073 N   0  0  0  0  0  0
  -31.9088  -14.5346   20.1776 O   0  0  0  0  0  0
  -21.6634   -6.8875   21.4240 O   0  0  0  0  0  0
  -22.3548  -14.5555   20.6708 O   0  0  0  0  0  0
  -24.6096  -31.8705   23.2118 C   0  0  0  0  0  0
  -25.9008  -32.4840   23.8401 C   0  0  1  0  0  0
  -27.2352  -27.4733   20.0867 C   0  0  0  0  0  0
  -25.5890  -33.8637   24.2331 N   0  0  0  0  0  0
  -23.3977  -30.4917   21.5512 C   0  0  2  0  0  0
  -24.8468  -28.9620   20.1134 C   0  0  0  0  0  0
  -22.7400  -29.4656   22.5004 C   0  0  0  0  0  0
  -18.0265  -28.1370   22.8474 C   0  0  0  0  0  0
  -24.1499  -36.7318   23.2639 C   0  0  0  0  0  0
  -25.9210  -30.8477   21.3588 C   0  0  0  0  0  0
  -26.0029  -29.4836   20.7083 C   0  0  0  0  0  0
  -27.2042  -28.7438   20.6964 C   0  0  0  0  0  0
  -26.0702  -26.9552   19.4877 C   0  0  0  0  0  0
  -24.8721  -27.6953   19.5022 C   0  0  0  0  0  0
  -23.6048  -29.8228   20.1647 C   0  0  0  0  0  0
  -25.4121  -36.3124   24.0335 C   0  0  1  0  0  0
  -20.5853  -28.3652   23.1326 C   0  0  2  0  0  0
  -20.6766  -26.9394   22.5419 C   0  0  0  0  0  0
  -19.5752  -26.6385   21.5207 C   0  0  0  0  0  0
  -18.1920  -26.7919   22.1611 C   0  0  0  0  0  0
  -19.1510  -28.8828   23.2890 C   0  0  0  0  0  0
  -18.9453  -30.1433   23.8902 C   0  0  0  0  0  0
  -17.6457  -30.6578   24.0561 C   0  0  0  0  0  0
  -25.9036  -34.9484   23.5134 C   0  0  0  0  0  0
  -16.5346  -29.9086   23.6318 C   0  0  0  0  0  0
  -16.7256  -28.6504   23.0330 C   0  0  0  0  0  0
  -26.4458  -31.6610   25.0711 C   0  0  0  0  0  0
  -25.3738  -31.3697   26.1470 C   0  0  0  0  0  0
  -27.0293  -30.3070   24.6040 C   0  0  0  0  0  0
  -27.6037  -32.4332   25.7466 C   0  0  0  0  0  0
  -27.5590  -37.1813   24.8467 C   0  0  0  0  0  0
  -21.4132  -29.3019   22.3742 N   0  0  0  0  0  0
  -26.4314  -37.3799   23.9398 N   0  0  0  0  0  0
  -24.6603  -31.0836   22.0998 N   0  0  0  0  0  0
  -23.4190  -28.8200   23.3027 O   0  0  0  0  0  0
  -28.3832  -26.7271   20.0849 O   0  0  0  0  0  0
  -26.5605  -34.8931   22.4699 O   0  0  0  0  0  0
  -23.5300  -32.1444   23.7529 O   0  0  0  0  0  0
  -29.7325  -17.9490   20.0211 C   0  0  0  0  0  0
  -29.3815  -16.2182   21.6196 C   0  0  0  0  0  0
  -29.8296  -17.6854   21.5128 C   0  0  2  0  0  0
  -30.3027  -16.6484   19.4622 C   0  0  2  0  0  0
  -29.9115  -16.3497   18.0019 C   0  0  0  0  0  0
  -29.1084  -21.1821   22.8394 C   0  0  0  0  0  0
  -29.9161  -19.8802   22.6327 C   0  0  0  0  0  0
  -29.0342  -22.0807   21.5814 C   0  0  0  0  0  0
  -28.6129  -24.3990   20.7564 C   0  0  0  0  0  0
  -28.4860  -25.8615   21.2160 C   0  0  0  0  0  0
  -29.9548  -15.5729   20.4249 N   0  0  0  0  0  0
  -29.0983  -18.6760   22.3356 N   0  3  0  0  0  0
  -28.6081  -23.4614   21.9077 N   0  3  0  0  0  0
  -28.5187  -16.1294   17.8802 O   0  0  0  0  0  0
  -31.4541  -12.3494   19.1127 H   0  0  0  0  0  0
  -30.2961  -11.2755   19.8455 H   0  0  0  0  0  0
  -29.7057  -11.6914   17.4480 H   0  0  0  0  0  0
  -29.6664  -13.4071   17.7179 H   0  0  0  0  0  0
  -27.7960  -11.2956   18.8209 H   0  0  0  0  0  0
  -27.3542  -12.6207   17.7831 H   0  0  0  0  0  0
  -27.6835  -14.2426   19.5626 H   0  0  0  0  0  0
  -28.6780  -11.9911   21.3673 H   0  0  0  0  0  0
  -28.4905  -13.6560   21.8385 H   0  0  0  0  0  0
  -25.2746   -9.5688   22.4762 H   0  0  0  0  0  0
  -24.0004   -7.4628   22.7463 H   0  0  0  0  0  0
  -21.0845   -8.8756   19.8938 H   0  0  0  0  0  0
  -22.3679  -10.9671   19.6167 H   0  0  0  0  0  0
  -21.1990   -7.6147   23.9721 H   0  0  0  0  0  0
  -21.1482   -6.0521   25.9083 H   0  0  0  0  0  0
  -22.0597   -2.7610   23.2847 H   0  0  0  0  0  0
  -22.4093  -11.9886   22.4791 H   0  0  0  0  0  0
  -21.1086  -13.1239   22.2583 H   0  0  0  0  0  0
  -24.6552  -15.8345   20.4921 H   0  0  0  0  0  0
  -26.2705  -15.6211   20.0457 H   0  0  0  0  0  0
  -26.7082  -32.5582   23.1172 H   0  0  0  0  0  0
  -25.0037  -33.9810   25.0475 H   0  0  0  0  0  0
  -22.6836  -31.3059   21.4116 H   0  0  0  0  0  0
  -23.3763  -35.9652   23.3323 H   0  0  0  0  0  0
  -24.3586  -36.8918   22.2050 H   0  0  0  0  0  0
  -23.7257  -37.6528   23.6644 H   0  0  0  0  0  0
  -26.0246  -31.6145   20.5902 H   0  0  0  0  0  0
  -26.8114  -30.9055   21.9724 H   0  0  0  0  0  0
  -28.0991  -29.1396   21.1564 H   0  0  0  0  0  0
  -26.0907  -25.9833   19.0140 H   0  0  0  0  0  0
  -23.9827  -27.2887   19.0410 H   0  0  0  0  0  0
  -23.7083  -30.5980   19.4035 H   0  0  0  0  0  0
  -22.7308  -29.2373   19.8728 H   0  0  0  0  0  0
  -25.1297  -36.1992   25.0829 H   0  0  0  0  0  0
  -20.9919  -28.3222   24.1459 H   0  0  0  0  0  0
  -20.5704  -26.2254   23.3593 H   0  0  0  0  0  0
  -21.6635  -26.7474   22.1193 H   0  0  0  0  0  0
  -19.6937  -25.6309   21.1215 H   0  0  0  0  0  0
  -19.6704  -27.3219   20.6752 H   0  0  0  0  0  0
  -17.4201  -26.6654   21.4005 H   0  0  0  0  0  0
  -18.0318  -26.0060   22.9009 H   0  0  0  0  0  0
  -19.7935  -30.7222   24.2296 H   0  0  0  0  0  0
  -17.5023  -31.6263   24.5165 H   0  0  0  0  0  0
  -15.5351  -30.2993   23.7647 H   0  0  0  0  0  0
  -15.8649  -28.0836   22.7034 H   0  0  0  0  0  0
  -24.5893  -30.7066   25.7799 H   0  0  0  0  0  0
  -24.8940  -32.2849   26.4953 H   0  0  0  0  0  0
  -25.8089  -30.8832   27.0208 H   0  0  0  0  0  0
  -26.2815  -29.6825   24.1134 H   0  0  0  0  0  0
  -27.4152  -29.7302   25.4453 H   0  0  0  0  0  0
  -27.8609  -30.4422   23.9115 H   0  0  0  0  0  0
  -27.2653  -33.3617   26.2075 H   0  0  0  0  0  0
  -28.3818  -32.6930   25.0274 H   0  0  0  0  0  0
  -28.0739  -31.8448   26.5354 H   0  0  0  0  0  0
  -28.2610  -38.0107   24.7514 H   0  0  0  0  0  0
  -28.1081  -36.2640   24.6298 H   0  0  0  0  0  0
  -27.2295  -37.1466   25.8866 H   0  0  0  0  0  0
  -20.9299  -29.8740   21.6960 H   0  0  0  0  0  0
  -26.0212  -38.2884   24.1390 H   0  0  0  0  0  0
  -30.2966  -18.8243   19.6970 H   0  0  0  0  0  0
  -28.6931  -18.0794   19.7161 H   0  0  0  0  0  0
  -28.2951  -16.1286   21.5817 H   0  0  0  0  0  0
  -29.7272  -15.7637   22.5508 H   0  0  0  0  0  0
  -30.8816  -17.7091   21.8103 H   0  0  0  0  0  0
  -31.3866  -16.7894   19.4669 H   0  0  0  0  0  0
  -30.4673  -15.4977   17.6100 H   0  0  0  0  0  0
  -30.1818  -17.1988   17.3719 H   0  0  0  0  0  0
  -29.6230  -21.7448   23.6191 H   0  0  0  0  0  0
  -28.1143  -20.9757   23.2383 H   0  0  0  0  0  0
  -30.4840  -19.6601   23.5376 H   0  0  0  0  0  0
  -30.6661  -20.0433   21.8561 H   0  0  0  0  0  0
  -28.3579  -21.6483   20.8425 H   0  0  0  0  0  0
  -30.0157  -22.1356   21.1079 H   0  0  0  0  0  0
  -29.5366  -24.2892   20.1859 H   0  0  0  0  0  0
  -27.7923  -24.1444   20.0845 H   0  0  0  0  0  0
  -29.3646  -26.1554   21.7913 H   0  0  0  0  0  0
  -27.6302  -25.9630   21.8877 H   0  0  0  0  0  0
  -28.8410  -18.2556   23.2155 H   0  0  0  0  0  0
  -28.2464  -18.9310   21.8643 H   0  0  0  0  0  0
  -29.2355  -23.8213   22.6104 H   0  0  0  0  0  0
  -27.6834  -23.4380   22.3122 H   0  0  0  0  0  0
  -28.3473  -15.2126   18.0601 H   0  0  0  0  0  0
  1 25  1  0  0  0
  1 30  2  0  0  0
  1 81  1  0  0  0
  2  3  1  0  0  0
  2 25  1  0  0  0
  2 85  1  0  0  0
  2 86  1  0  0  0
  3  4  1  0  0  0
  3 87  1  0  0  0
  3 88  1  0  0  0
  4  5  1  0  0  0
  4 89  1  0  0  0
  4 90  1  0  0  0
  5  6  1  0  0  0
  5 26  1  0  0  0
  5 91  1  0  0  0
  6 25  1  0  0  0
  6 92  1  0  0  0
  6 93  1  0  0  0
  7  8  2  0  0  0
  7 26  1  0  0  0
  7 29  1  0  0  0
  8  9  1  0  0  0
  8 22  1  0  0  0
  9 10  1  0  0  0
  9 27  2  0  0  0
 10 11  2  0  0  0
 10 15  1  0  0  0
 11 12  1  0  0  0
 11 94  1  0  0  0
 12 13  2  0  0  0
 12 95  1  0  0  0
 13 14  1  0  0  0
 13 31  1  0  0  0
 14 15  2  0  0  0
 14 96  1  0  0  0
 15 97  1  0  0  0
 16 17  2  0  0  0
 16 21  1  0  0  0
 16 31  1  0  0  0
 17 18  1  0  0  0
 17 98  1  0  0  0
 18 19  2  0  0  0
 18 99  1  0  0  0
 19 20  1  0  0  0
 19 24  1  0  0  0
 20 21  2  0  0  0
 20100  1  0  0  0
 21 23  1  0  0  0
 22 28  1  0  0  0
 22 32  2  0  0  0
 26 27  1  0  0  0
 28101  1  0  0  0
 28102  1  0  0  0
 29103  1  0  0  0
 29104  1  0  0  0
 33 34  1  0  0  0
 33 66  1  0  0  0
 33 70  2  0  0  0
 34 36  1  0  0  0
 34 59  1  0  0  0
 34105  1  0  0  0
 35 44  2  0  0  0
 35 45  1  0  0  0
 35 68  1  0  0  0
 36 56  1  0  0  0
 36106  1  0  0  0
 37 39  1  0  0  0
 37 47  1  0  0  0
 37 66  1  0  0  0
 37107  1  0  0  0
 38 43  2  0  0  0
 38 46  1  0  0  0
 38 47  1  0  0  0
 39 64  1  0  0  0
 39 67  2  0  0  0
 40 52  1  0  0  0
 40 53  2  0  0  0
 40 58  1  0  0  0
 41108  1  0  0  0
 41109  1  0  0  0
 41110  1  0  0  0
 41 48  1  0  0  0
 42 43  1  0  0  0
 42 66  1  0  0  0
 42111  1  0  0  0
 42112  1  0  0  0
 43 44  1  0  0  0
 44113  1  0  0  0
 45 46  2  0  0  0
 45114  1  0  0  0
 46115  1  0  0  0
 47116  1  0  0  0
 47117  1  0  0  0
 48 56  1  0  0  0
 48 65  1  0  0  0
 48118  1  0  0  0
 49 50  1  0  0  0
 49 53  1  0  0  0
 49 64  1  0  0  0
 49119  1  0  0  0
 50 51  1  0  0  0
 50120  1  0  0  0
 50121  1  0  0  0
 51 52  1  0  0  0
 51122  1  0  0  0
 51123  1  0  0  0
 52124  1  0  0  0
 52125  1  0  0  0
 53 54  1  0  0  0
 54 55  2  0  0  0
 54126  1  0  0  0
 55 57  1  0  0  0
 55127  1  0  0  0
 56 69  2  0  0  0
 57 58  2  0  0  0
 57128  1  0  0  0
 58129  1  0  0  0
 59 60  1  0  0  0
 59 61  1  0  0  0
 59 62  1  0  0  0
 60130  1  0  0  0
 60131  1  0  0  0
 60132  1  0  0  0
 61133  1  0  0  0
 61134  1  0  0  0
 61135  1  0  0  0
 62136  1  0  0  0
 62137  1  0  0  0
 62138  1  0  0  0
 63 65  1  0  0  0
 63139  1  0  0  0
 63140  1  0  0  0
 63141  1  0  0  0
 64142  1  0  0  0
 65143  1  0  0  0
 68 80  1  0  0  0
 71 73  1  0  0  0
 71 74  1  0  0  0
 71144  1  0  0  0
 71145  1  0  0  0
 72 73  1  0  0  0
 72 81  1  0  0  0
 72146  1  0  0  0
 72147  1  0  0  0
 73 82  1  0  0  0
 73148  1  0  0  0
 74 75  1  0  0  0
 74 81  1  0  0  0
 74149  1  0  0  0
 75 84  1  0  0  0
 75150  1  0  0  0
 75151  1  0  0  0
 76 77  1  0  0  0
 76 78  1  0  0  0
 76152  1  0  0  0
 76153  1  0  0  0
 77 82  1  0  0  0
 77154  1  0  0  0
 77155  1  0  0  0
 78 83  1  0  0  0
 78156  1  0  0  0
 78157  1  0  0  0
 79 80  1  0  0  0
 79 83  1  0  0  0
 79158  1  0  0  0
 79159  1  0  0  0
 80160  1  0  0  0
 80161  1  0  0  0
 82162  1  0  0  0
 82163  1  0  0  0
 83164  1  0  0  0
 83165  1  0  0  0
 84166  1  0  0  0
M  CHG  2  82   1  83   1
M  ISO  4   1 100  68 101  80 101  81 100
M  END
> <chiral flag>
0

> <version>
0

> <s_m_source_file>
/data/baiqing/PycharmProjects/Reinvent-master-3.2/result/LINK_invent/BTK/process_docking_weight1_custom_sum_contain_oxygen_bond_distance_aromatic_linkinvent_7_9_3/rearranged_h_0198.sdf

> <i_m_source_file_index>
62

> <r_mmod_Potential_Energy-OPLS-2005>
-146.18635559082

> <r_mmod_Stretch_Energy-OPLS-2005>
33.8681831359863

> <r_mmod_Bend_Energy-OPLS-2005>
125.331611633301

> <r_mmod_Torsional_Energy-OPLS-2005>
392.008850097656

> <r_mmod_Improper_Torsional_Energy-OPLS-2005>
20.121603012085

> <r_mmod_Van_der_Waal_Energy-OPLS-2005>
121.844390869141

> <r_mmod_Electrostatic_Energy-OPLS-2005>
117.818519592285

> <r_mmod_Solvation_Energy-OPLS-2005>
-975.03125

> <b_mmod_Minimization_Converged-OPLS-2005>
0

> <r_mmod_RMS_Derivative-OPLS-2005>
1.3175413608551

$$$$
62
                    3D
 Structure written by MMmdl.
156166  0  0  1  0            999 V2000
  -30.6671  -14.5982   20.4881 C   0  0  0  0  0  0
  -30.4237  -12.3622   19.4606 C   0  0  0  0  0  0
  -29.5046  -12.4909   18.2271 C   0  0  0  0  0  0
  -28.0270  -12.3412   18.6376 C   0  0  0  0  0  0
  -27.6514  -13.2208   19.8608 C   0  0  2  0  0  0
  -28.6939  -13.0939   20.9952 C   0  0  0  0  0  0
  -25.2546  -13.8189   20.5683 C   0  0  0  0  0  0
  -24.1821  -13.0449   20.9196 C   0  0  0  0  0  0
  -24.6397  -11.6923   20.8748 C   0  0  0  0  0  0
  -23.9071  -10.4301   21.0413 C   0  0  0  0  0  0
  -24.3622   -9.4212   21.9188 C   0  0  0  0  0  0
  -23.6296   -8.2247   22.0754 C   0  0  0  0  0  0
  -22.4278   -8.0288   21.3545 C   0  0  0  0  0  0
  -21.9917   -9.0263   20.4648 C   0  0  0  0  0  0
  -22.7246  -10.2143   20.3059 C   0  0  0  0  0  0
  -21.6858   -6.0742   22.5279 C   0  0  0  0  0  0
  -21.4019   -6.5642   23.8213 C   0  0  0  0  0  0
  -21.3657   -5.6792   24.9173 C   0  0  0  0  0  0
  -21.6041   -4.3054   24.7223 C   0  0  0  0  0  0
  -21.8818   -3.8151   23.4344 C   0  0  0  0  0  0
  -21.9192   -4.6969   22.3403 C   0  0  0  0  0  0
  -22.7841  -13.5239   21.1850 C   0  0  0  0  0  0
  -22.1660   -4.2156   21.0980 F   0  0  0  0  0  0
  -21.5625   -3.4536   25.7735 F   0  0  0  0  0  0
  -30.0132  -13.3996   20.4267 N   0  0  0  0  0  0
  -26.2979  -12.9381   20.3312 N   0  0  0  0  0  0
  -25.9326  -11.6535   20.5766 N   0  0  0  0  0  0
  -22.0475  -12.8238   22.0405 N   0  0  0  0  0  0
  -25.4235  -15.1912   20.4083 N   0  0  0  0  0  0
  -31.8407  -14.7075   20.1232 O   0  0  0  0  0  0
  -21.6640   -6.8888   21.4243 O   0  0  0  0  0  0
  -22.3529  -14.5544   20.6688 O   0  0  0  0  0  0
  -24.6229  -31.8631   23.2058 C   0  0  0  0  0  0
  -25.9094  -32.4797   23.8369 C   0  0  1  0  0  0
  -27.2194  -27.3463   20.1054 C   0  0  0  0  0  0
  -25.5924  -33.8597   24.2300 N   0  0  0  0  0  0
  -23.4144  -30.4887   21.5475 C   0  0  2  0  0  0
  -24.8586  -28.9517   20.1066 C   0  0  0  0  0  0
  -22.7455  -29.4644   22.4943 C   0  0  0  0  0  0
  -18.0285  -28.1387   22.8490 C   0  0  0  0  0  0
  -24.1489  -36.7300   23.2638 C   0  0  0  0  0  0
  -25.9532  -30.8013   21.3740 C   0  0  0  0  0  0
  -26.0251  -29.4322   20.7130 C   0  0  0  0  0  0
  -27.2060  -28.6383   20.7081 C   0  0  0  0  0  0
  -26.0294  -26.9159   19.4711 C   0  0  0  0  0  0
  -24.8607  -27.6974   19.4795 C   0  0  0  0  0  0
  -23.6262  -29.8281   20.1602 C   0  0  0  0  0  0
  -25.4115  -36.3094   24.0330 C   0  0  1  0  0  0
  -20.5881  -28.3689   23.1290 C   0  0  2  0  0  0
  -20.6773  -26.9417   22.5407 C   0  0  0  0  0  0
  -19.5747  -26.6390   21.5210 C   0  0  0  0  0  0
  -18.1930  -26.7932   22.1626 C   0  0  0  0  0  0
  -19.1535  -28.8854   23.2889 C   0  0  0  0  0  0
  -18.9460  -30.1457   23.8906 C   0  0  0  0  0  0
  -17.6460  -30.6591   24.0566 C   0  0  0  0  0  0
  -25.9048  -34.9464   23.5113 C   0  0  0  0  0  0
  -16.5351  -29.9091   23.6329 C   0  0  0  0  0  0
  -16.7272  -28.6507   23.0353 C   0  0  0  0  0  0
  -26.4491  -31.6597   25.0727 C   0  0  0  0  0  0
  -25.3733  -31.3722   26.1458 C   0  0  0  0  0  0
  -27.0330  -30.3024   24.6163 C   0  0  0  0  0  0
  -27.6057  -32.4325   25.7496 C   0  0  0  0  0  0
  -27.5581  -37.1810   24.8469 C   0  0  0  0  0  0
  -21.4174  -29.3047   22.3686 N   0  0  0  0  0  0
  -26.4297  -37.3785   23.9406 N   0  0  0  0  0  0
  -24.6822  -31.0669   22.0996 N   0  0  0  0  0  0
  -23.4195  -28.8179   23.3009 O   0  0  0  0  0  0
  -28.3516  -26.5180   20.1922 O   0  0  0  0  0  0
  -26.5610  -34.8923   22.4675 O   0  0  0  0  0  0
  -23.5400  -32.1421   23.7404 O   0  0  0  0  0  0
  -28.8764  -22.4312   20.5513 C   0  0  0  0  0  0
  -29.6716  -20.4716   20.6994 C   0  0  0  0  0  0
  -27.6271  -24.6982   21.0405 C   0  0  0  0  0  0
  -30.5924  -18.1540   21.3845 C   0  0  0  0  0  0
  -29.1813  -18.0868   19.8718 C   0  0  0  0  0  0
  -27.9779  -23.6267   20.1511 C   0  0  1  0  0  0
  -30.3083  -17.0962   20.2884 C   0  0  0  0  0  0
  -28.3414  -25.1145   19.7089 C   0  0  2  0  0  0
  -31.2279  -20.9250   22.6742 C   0  0  0  0  0  0
  -28.8173  -21.1815   19.9485 N   0  0  0  0  0  0
  -29.7193  -22.4900   21.5850 N   0  0  0  0  0  0
  -30.2262  -21.2242   21.6684 N   0  0  0  0  0  0
  -30.0946  -19.1142   20.3862 N   0  0  0  0  0  0
  -29.9153  -15.7132   20.7162 N   0  0  0  0  0  0
  -31.4696  -12.4553   19.1631 H   0  0  0  0  0  0
  -30.3317  -11.3721   19.9103 H   0  0  0  0  0  0
  -29.7643  -11.7344   17.4849 H   0  0  0  0  0  0
  -29.6586  -13.4584   17.7466 H   0  0  0  0  0  0
  -27.8598  -11.2896   18.8751 H   0  0  0  0  0  0
  -27.3743  -12.5680   17.7934 H   0  0  0  0  0  0
  -27.6673  -14.2528   19.5091 H   0  0  0  0  0  0
  -28.6909  -12.0855   21.4121 H   0  0  0  0  0  0
  -28.4520  -13.7635   21.8219 H   0  0  0  0  0  0
  -25.2767   -9.5688   22.4759 H   0  0  0  0  0  0
  -24.0004   -7.4644   22.7476 H   0  0  0  0  0  0
  -21.0845   -8.8789   19.8958 H   0  0  0  0  0  0
  -22.3707  -10.9683   19.6166 H   0  0  0  0  0  0
  -21.2016   -7.6151   23.9722 H   0  0  0  0  0  0
  -21.1476   -6.0520   25.9076 H   0  0  0  0  0  0
  -22.0598   -2.7615   23.2840 H   0  0  0  0  0  0
  -22.4089  -11.9912   22.4816 H   0  0  0  0  0  0
  -21.1089  -13.1265   22.2594 H   0  0  0  0  0  0
  -24.6508  -15.8403   20.5109 H   0  0  0  0  0  0
  -26.2618  -15.6294   20.0497 H   0  0  0  0  0  0
  -26.7157  -32.5475   23.1116 H   0  0  0  0  0  0
  -25.0077  -33.9750   25.0445 H   0  0  0  0  0  0
  -22.7067  -31.3087   21.4083 H   0  0  0  0  0  0
  -23.3749  -35.9636   23.3314 H   0  0  0  0  0  0
  -24.3573  -36.8904   22.2049 H   0  0  0  0  0  0
  -23.7245  -37.6509   23.6648 H   0  0  0  0  0  0
  -26.0825  -31.5677   20.6086 H   0  0  0  0  0  0
  -26.8348  -30.8469   22.0022 H   0  0  0  0  0  0
  -28.0990  -28.9984   21.1996 H   0  0  0  0  0  0
  -25.9580  -25.9526   18.9907 H   0  0  0  0  0  0
  -23.9638  -27.3226   19.0056 H   0  0  0  0  0  0
  -23.7435  -30.6069   19.4058 H   0  0  0  0  0  0
  -22.7467  -29.2569   19.8581 H   0  0  0  0  0  0
  -25.1294  -36.1954   25.0823 H   0  0  0  0  0  0
  -20.9977  -28.3260   24.1409 H   0  0  0  0  0  0
  -20.5676  -26.2299   23.3603 H   0  0  0  0  0  0
  -21.6643  -26.7452   22.1202 H   0  0  0  0  0  0
  -19.6910  -25.6303   21.1240 H   0  0  0  0  0  0
  -19.6685  -27.3198   20.6737 H   0  0  0  0  0  0
  -17.4198  -26.6681   21.4029 H   0  0  0  0  0  0
  -18.0338  -26.0070   22.9020 H   0  0  0  0  0  0
  -19.7935  -30.7271   24.2280 H   0  0  0  0  0  0
  -17.5016  -31.6269   24.5168 H   0  0  0  0  0  0
  -15.5354  -30.2997   23.7648 H   0  0  0  0  0  0
  -15.8672  -28.0828   22.7068 H   0  0  0  0  0  0
  -24.5915  -30.7064   25.7787 H   0  0  0  0  0  0
  -24.8913  -32.2880   26.4888 H   0  0  0  0  0  0
  -25.8065  -30.8900   27.0229 H   0  0  0  0  0  0
  -26.2894  -29.6781   24.1197 H   0  0  0  0  0  0
  -27.4043  -29.7277   25.4658 H   0  0  0  0  0  0
  -27.8758  -30.4316   23.9369 H   0  0  0  0  0  0
  -27.2676  -33.3627   26.2076 H   0  0  0  0  0  0
  -28.3868  -32.6884   25.0324 H   0  0  0  0  0  0
  -28.0724  -31.8447   26.5410 H   0  0  0  0  0  0
  -28.2612  -38.0095   24.7501 H   0  0  0  0  0  0
  -28.1063  -36.2626   24.6315 H   0  0  0  0  0  0
  -27.2293  -37.1483   25.8871 H   0  0  0  0  0  0
  -20.9345  -29.8776   21.6907 H   0  0  0  0  0  0
  -26.0183  -38.2864   24.1396 H   0  0  0  0  0  0
  -28.2016  -24.7893   21.9599 H   0  0  0  0  0  0
  -26.5623  -24.8814   21.1654 H   0  0  0  0  0  0
  -31.6480  -18.2628   21.6357 H   0  0  0  0  0  0
  -29.9549  -18.0765   22.2677 H   0  0  0  0  0  0
  -28.2590  -18.0073   20.4519 H   0  0  0  0  0  0
  -28.9980  -18.1477   18.7982 H   0  0  0  0  0  0
  -27.1373  -23.2029   19.6040 H   0  0  0  0  0  0
  -31.1013  -17.0869   19.5334 H   0  0  0  0  0  0
  -27.9163  -25.1943   18.7115 H   0  0  0  0  0  0
  -31.4563  -21.8120   23.2657 H   0  0  0  0  0  0
  -32.1425  -20.5807   22.1922 H   0  0  0  0  0  0
  -30.8576  -20.1496   23.3443 H   0  0  0  0  0  0
  -28.9589  -15.5689   21.0018 H   0  0  0  0  0  0
  1 25  1  0  0  0
  1 30  2  0  0  0
  1 84  1  0  0  0
  2  3  1  0  0  0
  2 25  1  0  0  0
  2 85  1  0  0  0
  2 86  1  0  0  0
  3  4  1  0  0  0
  3 87  1  0  0  0
  3 88  1  0  0  0
  4  5  1  0  0  0
  4 89  1  0  0  0
  4 90  1  0  0  0
  5  6  1  0  0  0
  5 26  1  0  0  0
  5 91  1  0  0  0
  6 25  1  0  0  0
  6 92  1  0  0  0
  6 93  1  0  0  0
  7  8  2  0  0  0
  7 26  1  0  0  0
  7 29  1  0  0  0
  8  9  1  0  0  0
  8 22  1  0  0  0
  9 10  1  0  0  0
  9 27  2  0  0  0
 10 11  2  0  0  0
 10 15  1  0  0  0
 11 12  1  0  0  0
 11 94  1  0  0  0
 12 13  2  0  0  0
 12 95  1  0  0  0
 13 14  1  0  0  0
 13 31  1  0  0  0
 14 15  2  0  0  0
 14 96  1  0  0  0
 15 97  1  0  0  0
 16 17  2  0  0  0
 16 21  1  0  0  0
 16 31  1  0  0  0
 17 18  1  0  0  0
 17 98  1  0  0  0
 18 19  2  0  0  0
 18 99  1  0  0  0
 19 20  1  0  0  0
 19 24  1  0  0  0
 20 21  2  0  0  0
 20100  1  0  0  0
 21 23  1  0  0  0
 22 28  1  0  0  0
 22 32  2  0  0  0
 26 27  1  0  0  0
 28101  1  0  0  0
 28102  1  0  0  0
 29103  1  0  0  0
 29104  1  0  0  0
 33 34  1  0  0  0
 33 66  1  0  0  0
 33 70  2  0  0  0
 34 36  1  0  0  0
 34 59  1  0  0  0
 34105  1  0  0  0
 35 44  2  0  0  0
 35 45  1  0  0  0
 35 68  1  0  0  0
 36 56  1  0  0  0
 36106  1  0  0  0
 37 39  1  0  0  0
 37 47  1  0  0  0
 37 66  1  0  0  0
 37107  1  0  0  0
 38 43  2  0  0  0
 38 46  1  0  0  0
 38 47  1  0  0  0
 39 64  1  0  0  0
 39 67  2  0  0  0
 40 52  1  0  0  0
 40 53  2  0  0  0
 40 58  1  0  0  0
 41108  1  0  0  0
 41109  1  0  0  0
 41110  1  0  0  0
 41 48  1  0  0  0
 42 43  1  0  0  0
 42 66  1  0  0  0
 42111  1  0  0  0
 42112  1  0  0  0
 43 44  1  0  0  0
 44113  1  0  0  0
 45 46  2  0  0  0
 45114  1  0  0  0
 46115  1  0  0  0
 47116  1  0  0  0
 47117  1  0  0  0
 48 56  1  0  0  0
 48 65  1  0  0  0
 48118  1  0  0  0
 49 50  1  0  0  0
 49 53  1  0  0  0
 49 64  1  0  0  0
 49119  1  0  0  0
 50 51  1  0  0  0
 50120  1  0  0  0
 50121  1  0  0  0
 51 52  1  0  0  0
 51122  1  0  0  0
 51123  1  0  0  0
 52124  1  0  0  0
 52125  1  0  0  0
 53 54  1  0  0  0
 54 55  2  0  0  0
 54126  1  0  0  0
 55 57  1  0  0  0
 55127  1  0  0  0
 56 69  2  0  0  0
 57 58  2  0  0  0
 57128  1  0  0  0
 58129  1  0  0  0
 59 60  1  0  0  0
 59 61  1  0  0  0
 59 62  1  0  0  0
 60130  1  0  0  0
 60131  1  0  0  0
 60132  1  0  0  0
 61133  1  0  0  0
 61134  1  0  0  0
 61135  1  0  0  0
 62136  1  0  0  0
 62137  1  0  0  0
 62138  1  0  0  0
 63 65  1  0  0  0
 63139  1  0  0  0
 63140  1  0  0  0
 63141  1  0  0  0
 64142  1  0  0  0
 65143  1  0  0  0
 68 78  1  0  0  0
 71 80  1  0  0  0
 71 81  2  0  0  0
 71 76  1  0  0  0
 72 80  2  0  0  0
 72 82  1  0  0  0
 72 83  1  0  0  0
 73 76  1  0  0  0
 73 78  1  0  0  0
 73144  1  0  0  0
 73145  1  0  0  0
 74 77  1  0  0  0
 74 83  1  0  0  0
 74146  1  0  0  0
 74147  1  0  0  0
 75 77  1  0  0  0
 75 83  1  0  0  0
 75148  1  0  0  0
 75149  1  0  0  0
 76 78  1  0  0  0
 76150  1  0  0  0
 77 84  1  0  0  0
 77151  1  0  0  0
 78152  1  0  0  0
 79 82  1  0  0  0
 79153  1  0  0  0
 79154  1  0  0  0
 79155  1  0  0  0
 81 82  1  0  0  0
 84156  1  0  0  0
M  ISO  4   1 100  68 101  78 101  84 100
M  END
> <chiral flag>
0

> <version>
0

> <s_m_source_file>
/data/baiqing/PycharmProjects/Reinvent-master-3.2/result/LINK_invent/BTK/process_docking_weight1_custom_sum_contain_oxygen_bond_distance_aromatic_linkinvent_7_9_3/rearranged_h_0198.sdf

> <i_m_source_file_index>
63

> <r_mmod_Potential_Energy-OPLS-2005>
93.5879898071289

> <r_mmod_Stretch_Energy-OPLS-2005>
78.9008560180664

> <r_mmod_Bend_Energy-OPLS-2005>
301.413909912109

> <r_mmod_Torsional_Energy-OPLS-2005>
224.127639770508

> <r_mmod_Improper_Torsional_Energy-OPLS-2005>
14.5622930526733

> <r_mmod_Van_der_Waal_Energy-OPLS-2005>
137.695053100586

> <r_mmod_Electrostatic_Energy-OPLS-2005>
-447.745910644531

> <r_mmod_Solvation_Energy-OPLS-2005>
-255.629638671875

> <b_mmod_Minimization_Converged-OPLS-2005>
0

> <r_mmod_RMS_Derivative-OPLS-2005>
0.869163274765015

$$$$
63
                    3D
 Structure written by MMmdl.
166176  0  0  1  0            999 V2000
  -30.6947  -14.4832   20.5552 C   0  0  0  0  0  0
  -30.4242  -12.3106   19.4253 C   0  0  0  0  0  0
  -29.4953  -12.5004   18.2077 C   0  0  0  0  0  0
  -28.0158  -12.3643   18.6217 C   0  0  0  0  0  0
  -27.6610  -13.2086   19.8756 C   0  0  2  0  0  0
  -28.7040  -13.0036   20.9972 C   0  0  0  0  0  0
  -25.2590  -13.8160   20.5692 C   0  0  0  0  0  0
  -24.1835  -13.0436   20.9161 C   0  0  0  0  0  0
  -24.6394  -11.6897   20.8723 C   0  0  0  0  0  0
  -23.9053  -10.4286   21.0392 C   0  0  0  0  0  0
  -24.3608   -9.4206   21.9172 C   0  0  0  0  0  0
  -23.6278   -8.2246   22.0752 C   0  0  0  0  0  0
  -22.4263   -8.0281   21.3543 C   0  0  0  0  0  0
  -21.9897   -9.0255   20.4648 C   0  0  0  0  0  0
  -22.7225  -10.2133   20.3047 C   0  0  0  0  0  0
  -21.6856   -6.0724   22.5266 C   0  0  0  0  0  0
  -21.4021   -6.5630   23.8199 C   0  0  0  0  0  0
  -21.3657   -5.6788   24.9164 C   0  0  0  0  0  0
  -21.6047   -4.3052   24.7220 C   0  0  0  0  0  0
  -21.8816   -3.8136   23.4345 C   0  0  0  0  0  0
  -21.9190   -4.6950   22.3396 C   0  0  0  0  0  0
  -22.7859  -13.5241   21.1824 C   0  0  0  0  0  0
  -22.1654   -4.2133   21.0975 F   0  0  0  0  0  0
  -21.5627   -3.4536   25.7731 F   0  0  0  0  0  0
  -30.0298  -13.3039   20.4339 N   0  0  0  0  0  0
  -26.3031  -12.9333   20.3392 N   0  0  0  0  0  0
  -25.9328  -11.6491   20.5770 N   0  0  0  0  0  0
  -22.0510  -12.8235   22.0393 N   0  0  0  0  0  0
  -25.4328  -15.1878   20.4122 N   0  0  0  0  0  0
  -31.8424  -14.6517   20.1309 O   0  0  0  0  0  0
  -21.6637   -6.8872   21.4231 O   0  0  0  0  0  0
  -22.3535  -14.5543   20.6675 O   0  0  0  0  0  0
  -24.6136  -31.8689   23.2106 C   0  0  0  0  0  0
  -25.9033  -32.4803   23.8410 C   0  0  1  0  0  0
  -27.2468  -27.4394   20.1104 C   0  0  0  0  0  0
  -25.5904  -33.8606   24.2358 N   0  0  0  0  0  0
  -23.4023  -30.4896   21.5494 C   0  0  2  0  0  0
  -24.8541  -28.9508   20.1211 C   0  0  0  0  0  0
  -22.7402  -29.4659   22.4996 C   0  0  0  0  0  0
  -18.0264  -28.1365   22.8491 C   0  0  0  0  0  0
  -24.1491  -36.7320   23.2646 C   0  0  0  0  0  0
  -25.9301  -30.8333   21.3657 C   0  0  0  0  0  0
  -26.0100  -29.4637   20.7248 C   0  0  0  0  0  0
  -27.2085  -28.7152   20.7243 C   0  0  0  0  0  0
  -26.0809  -26.9460   19.4933 C   0  0  0  0  0  0
  -24.8834  -27.6879   19.5043 C   0  0  0  0  0  0
  -23.6138  -29.8163   20.1666 C   0  0  0  0  0  0
  -25.4100  -36.3104   24.0353 C   0  0  1  0  0  0
  -20.5858  -28.3660   23.1319 C   0  0  2  0  0  0
  -20.6761  -26.9393   22.5424 C   0  0  0  0  0  0
  -19.5746  -26.6389   21.5211 C   0  0  0  0  0  0
  -18.1921  -26.7917   22.1621 C   0  0  0  0  0  0
  -19.1515  -28.8830   23.2906 C   0  0  0  0  0  0
  -18.9447  -30.1434   23.8909 C   0  0  0  0  0  0
  -17.6452  -30.6580   24.0563 C   0  0  0  0  0  0
  -25.9030  -34.9461   23.5151 C   0  0  0  0  0  0
  -16.5339  -29.9076   23.6326 C   0  0  0  0  0  0
  -16.7255  -28.6492   23.0351 C   0  0  0  0  0  0
  -26.4475  -31.6535   25.0714 C   0  0  0  0  0  0
  -25.3751  -31.3609   26.1458 C   0  0  0  0  0  0
  -27.0253  -30.2965   24.6054 C   0  0  0  0  0  0
  -27.6068  -32.4214   25.7490 C   0  0  0  0  0  0
  -27.5581  -37.1803   24.8474 C   0  0  0  0  0  0
  -21.4139  -29.3027   22.3730 N   0  0  0  0  0  0
  -26.4297  -37.3781   23.9411 N   0  0  0  0  0  0
  -24.6662  -31.0790   22.0996 N   0  0  0  0  0  0
  -23.4170  -28.8216   23.3055 O   0  0  0  0  0  0
  -28.3850  -26.6680   20.0190 O   0  0  0  0  0  0
  -26.5590  -34.8914   22.4713 O   0  0  0  0  0  0
  -23.5329  -32.1444   23.7494 O   0  0  0  0  0  0
  -28.4645  -25.9918   24.3398 C   0  0  0  0  0  0
  -28.2275  -24.5057   24.4142 C   0  0  0  0  0  0
  -29.9693  -22.0231   22.7793 C   0  0  0  0  0  0
  -30.3511  -16.3749   22.0950 C   0  0  0  0  0  0
  -29.8883  -16.7704   20.1381 C   0  0  0  0  0  0
  -29.1414  -25.0697   23.3476 C   0  0  0  0  0  0
  -29.6575  -17.5635   21.4235 C   0  0  0  0  0  0
  -29.0441  -22.6134   21.7294 C   0  0  2  0  0  0
  -29.9688  -21.4457   21.3832 C   0  0  2  0  0  0
  -30.2479  -18.9834   21.6068 C   0  0  0  0  0  0
  -29.1295  -26.4117   21.2123 C   0  0  0  0  0  0
  -28.7287  -25.0631   21.8787 C   0  0  1  0  0  0
  -29.9415  -15.5381   20.9549 N   0  0  0  0  0  0
  -29.3678  -23.9352   21.1780 N   0  0  0  0  0  0
  -29.3298  -20.1052   21.2657 N   0  3  0  0  0  0
  -31.4681  -12.4122   19.1229 H   0  0  0  0  0  0
  -30.3272  -11.3031   19.8336 H   0  0  0  0  0  0
  -29.7381  -11.7699   17.4337 H   0  0  0  0  0  0
  -29.6629  -13.4826   17.7636 H   0  0  0  0  0  0
  -27.8261  -11.3093   18.8237 H   0  0  0  0  0  0
  -27.3650  -12.6372   17.7901 H   0  0  0  0  0  0
  -27.7026  -14.2555   19.5743 H   0  0  0  0  0  0
  -28.6841  -11.9759   21.3634 H   0  0  0  0  0  0
  -28.4747  -13.6303   21.8607 H   0  0  0  0  0  0
  -25.2759   -9.5672   22.4752 H   0  0  0  0  0  0
  -23.9975   -7.4640   22.7481 H   0  0  0  0  0  0
  -21.0818   -8.8788   19.8960 H   0  0  0  0  0  0
  -22.3686  -10.9677   19.6160 H   0  0  0  0  0  0
  -21.2028   -7.6143   23.9699 H   0  0  0  0  0  0
  -21.1478   -6.0521   25.9070 H   0  0  0  0  0  0
  -22.0600   -2.7596   23.2849 H   0  0  0  0  0  0
  -22.4130  -11.9889   22.4773 H   0  0  0  0  0  0
  -21.1144  -13.1275   22.2624 H   0  0  0  0  0  0
  -24.6734  -15.8494   20.5318 H   0  0  0  0  0  0
  -26.2993  -15.6248   20.1247 H   0  0  0  0  0  0
  -26.7107  -32.5533   23.1182 H   0  0  0  0  0  0
  -25.0055  -33.9763   25.0501 H   0  0  0  0  0  0
  -22.6903  -31.3052   21.4073 H   0  0  0  0  0  0
  -23.3729  -35.9681   23.3329 H   0  0  0  0  0  0
  -24.3605  -36.8910   22.2062 H   0  0  0  0  0  0
  -23.7271  -37.6544   23.6642 H   0  0  0  0  0  0
  -26.0402  -31.5924   20.5897 H   0  0  0  0  0  0
  -26.8186  -30.8944   21.9820 H   0  0  0  0  0  0
  -28.0997  -29.1284   21.1746 H   0  0  0  0  0  0
  -26.1035  -25.9806   19.0060 H   0  0  0  0  0  0
  -23.9979  -27.2859   19.0304 H   0  0  0  0  0  0
  -23.7192  -30.5879   19.4039 H   0  0  0  0  0  0
  -22.7399  -29.2323   19.8734 H   0  0  0  0  0  0
  -25.1268  -36.1979   25.0847 H   0  0  0  0  0  0
  -20.9946  -28.3227   24.1440 H   0  0  0  0  0  0
  -20.5670  -26.2267   23.3612 H   0  0  0  0  0  0
  -21.6638  -26.7448   22.1212 H   0  0  0  0  0  0
  -19.6924  -25.6311   21.1213 H   0  0  0  0  0  0
  -19.6683  -27.3222   20.6756 H   0  0  0  0  0  0
  -17.4199  -26.6660   21.4013 H   0  0  0  0  0  0
  -18.0315  -26.0040   22.8999 H   0  0  0  0  0  0
  -19.7922  -30.7247   24.2285 H   0  0  0  0  0  0
  -17.5003  -31.6252   24.5172 H   0  0  0  0  0  0
  -15.5343  -30.2988   23.7647 H   0  0  0  0  0  0
  -15.8648  -28.0820   22.7067 H   0  0  0  0  0  0
  -24.5947  -30.6938   25.7784 H   0  0  0  0  0  0
  -24.8929  -32.2744   26.4936 H   0  0  0  0  0  0
  -25.8112  -30.8755   27.0199 H   0  0  0  0  0  0
  -26.2811  -29.6819   24.0979 H   0  0  0  0  0  0
  -27.3879  -29.7102   25.4514 H   0  0  0  0  0  0
  -27.8716  -30.4264   23.9305 H   0  0  0  0  0  0
  -27.2681  -33.3447   26.2191 H   0  0  0  0  0  0
  -28.3835  -32.6881   25.0308 H   0  0  0  0  0  0
  -28.0793  -31.8234   26.5300 H   0  0  0  0  0  0
  -28.2616  -38.0082   24.7491 H   0  0  0  0  0  0
  -28.1060  -36.2612   24.6330 H   0  0  0  0  0  0
  -27.2303  -37.1488   25.8882 H   0  0  0  0  0  0
  -20.9299  -29.8728   21.6928 H   0  0  0  0  0  0
  -26.0197  -38.2872   24.1381 H   0  0  0  0  0  0
  -29.0857  -26.4405   25.1122 H   0  0  0  0  0  0
  -27.6524  -26.6184   23.9748 H   0  0  0  0  0  0
  -27.2495  -24.1403   24.1074 H   0  0  0  0  0  0
  -28.6913  -23.9582   25.2319 H   0  0  0  0  0  0
  -29.5026  -21.4568   23.5844 H   0  0  0  0  0  0
  -30.8506  -22.5903   23.0742 H   0  0  0  0  0  0
  -29.9005  -16.0928   23.0469 H   0  0  0  0  0  0
  -31.4324  -16.4978   22.1957 H   0  0  0  0  0  0
  -30.8245  -17.0244   19.6344 H   0  0  0  0  0  0
  -29.0521  -16.8174   19.4396 H   0  0  0  0  0  0
  -30.2129  -24.9545   23.5070 H   0  0  0  0  0  0
  -28.5985  -17.5355   21.6922 H   0  0  0  0  0  0
  -27.9906  -22.3595   21.8479 H   0  0  0  0  0  0
  -30.8332  -21.5991   20.7385 H   0  0  0  0  0  0
  -31.1545  -19.0847   21.0087 H   0  0  0  0  0  0
  -30.5626  -19.1128   22.6430 H   0  0  0  0  0  0
  -30.1914  -26.4063   20.9636 H   0  0  0  0  0  0
  -29.0113  -27.2272   21.9246 H   0  0  0  0  0  0
  -27.6432  -24.9545   21.8313 H   0  0  0  0  0  0
  -30.3734  -24.0799   21.1623 H   0  0  0  0  0  0
  -29.0170  -19.9918   20.3151 H   0  0  0  0  0  0
  -28.5178  -20.0628   21.8581 H   0  0  0  0  0  0
  1 25  1  0  0  0
  1 30  2  0  0  0
  1 83  1  0  0  0
  2  3  1  0  0  0
  2 25  1  0  0  0
  2 86  1  0  0  0
  2 87  1  0  0  0
  3  4  1  0  0  0
  3 88  1  0  0  0
  3 89  1  0  0  0
  4  5  1  0  0  0
  4 90  1  0  0  0
  4 91  1  0  0  0
  5  6  1  0  0  0
  5 26  1  0  0  0
  5 92  1  0  0  0
  6 25  1  0  0  0
  6 93  1  0  0  0
  6 94  1  0  0  0
  7  8  2  0  0  0
  7 26  1  0  0  0
  7 29  1  0  0  0
  8  9  1  0  0  0
  8 22  1  0  0  0
  9 10  1  0  0  0
  9 27  2  0  0  0
 10 11  2  0  0  0
 10 15  1  0  0  0
 11 12  1  0  0  0
 11 95  1  0  0  0
 12 13  2  0  0  0
 12 96  1  0  0  0
 13 14  1  0  0  0
 13 31  1  0  0  0
 14 15  2  0  0  0
 14 97  1  0  0  0
 15 98  1  0  0  0
 16 17  2  0  0  0
 16 21  1  0  0  0
 16 31  1  0  0  0
 17 18  1  0  0  0
 17 99  1  0  0  0
 18 19  2  0  0  0
 18100  1  0  0  0
 19 20  1  0  0  0
 19 24  1  0  0  0
 20 21  2  0  0  0
 20101  1  0  0  0
 21 23  1  0  0  0
 22 28  1  0  0  0
 22 32  2  0  0  0
 26 27  1  0  0  0
 28102  1  0  0  0
 28103  1  0  0  0
 29104  1  0  0  0
 29105  1  0  0  0
 33 34  1  0  0  0
 33 66  1  0  0  0
 33 70  2  0  0  0
 34 36  1  0  0  0
 34 59  1  0  0  0
 34106  1  0  0  0
 35 44  2  0  0  0
 35 45  1  0  0  0
 35 68  1  0  0  0
 36 56  1  0  0  0
 36107  1  0  0  0
 37 39  1  0  0  0
 37 47  1  0  0  0
 37 66  1  0  0  0
 37108  1  0  0  0
 38 43  2  0  0  0
 38 46  1  0  0  0
 38 47  1  0  0  0
 39 64  1  0  0  0
 39 67  2  0  0  0
 40 52  1  0  0  0
 40 53  2  0  0  0
 40 58  1  0  0  0
 41109  1  0  0  0
 41110  1  0  0  0
 41111  1  0  0  0
 41 48  1  0  0  0
 42 43  1  0  0  0
 42 66  1  0  0  0
 42112  1  0  0  0
 42113  1  0  0  0
 43 44  1  0  0  0
 44114  1  0  0  0
 45 46  2  0  0  0
 45115  1  0  0  0
 46116  1  0  0  0
 47117  1  0  0  0
 47118  1  0  0  0
 48 56  1  0  0  0
 48 65  1  0  0  0
 48119  1  0  0  0
 49 50  1  0  0  0
 49 53  1  0  0  0
 49 64  1  0  0  0
 49120  1  0  0  0
 50 51  1  0  0  0
 50121  1  0  0  0
 50122  1  0  0  0
 51 52  1  0  0  0
 51123  1  0  0  0
 51124  1  0  0  0
 52125  1  0  0  0
 52126  1  0  0  0
 53 54  1  0  0  0
 54 55  2  0  0  0
 54127  1  0  0  0
 55 57  1  0  0  0
 55128  1  0  0  0
 56 69  2  0  0  0
 57 58  2  0  0  0
 57129  1  0  0  0
 58130  1  0  0  0
 59 60  1  0  0  0
 59 61  1  0  0  0
 59 62  1  0  0  0
 60131  1  0  0  0
 60132  1  0  0  0
 60133  1  0  0  0
 61134  1  0  0  0
 61135  1  0  0  0
 61136  1  0  0  0
 62137  1  0  0  0
 62138  1  0  0  0
 62139  1  0  0  0
 63 65  1  0  0  0
 63140  1  0  0  0
 63141  1  0  0  0
 63142  1  0  0  0
 64143  1  0  0  0
 65144  1  0  0  0
 68 81  1  0  0  0
 71 72  1  0  0  0
 71145  1  0  0  0
 71146  1  0  0  0
 71 76  1  0  0  0
 72 76  1  0  0  0
 72147  1  0  0  0
 72148  1  0  0  0
 73 78  1  0  0  0
 73 79  1  0  0  0
 73149  1  0  0  0
 73150  1  0  0  0
 74 77  1  0  0  0
 74 83  1  0  0  0
 74151  1  0  0  0
 74152  1  0  0  0
 75 77  1  0  0  0
 75 83  1  0  0  0
 75153  1  0  0  0
 75154  1  0  0  0
 76 82  1  0  0  0
 76155  1  0  0  0
 77 80  1  0  0  0
 77156  1  0  0  0
 78 79  1  0  0  0
 78 84  1  0  0  0
 78157  1  0  0  0
 79 85  1  0  0  0
 79158  1  0  0  0
 80 85  1  0  0  0
 80159  1  0  0  0
 80160  1  0  0  0
 81161  1  0  0  0
 81162  1  0  0  0
 81 82  1  0  0  0
 82 84  1  0  0  0
 82163  1  0  0  0
 84164  1  0  0  0
 85165  1  0  0  0
 85166  1  0  0  0
M  CHG  1  85   1
M  ISO  4   1 100  68 101  81 101  83 100
M  END
> <chiral flag>
0

> <version>
0

> <s_m_source_file>
/data/baiqing/PycharmProjects/Reinvent-master-3.2/result/LINK_invent/BTK/process_docking_weight1_custom_sum_contain_oxygen_bond_distance_aromatic_linkinvent_7_9_3/rearranged_h_0198.sdf

> <i_m_source_file_index>
64

> <r_mmod_Potential_Energy-OPLS-2005>
-25.8044853210449

> <r_mmod_Stretch_Energy-OPLS-2005>
38.6158561706543

> <r_mmod_Bend_Energy-OPLS-2005>
109.315391540527

> <r_mmod_Torsional_Energy-OPLS-2005>
385.915069580078

> <r_mmod_Improper_Torsional_Energy-OPLS-2005>
12.7153749465942

> <r_mmod_Van_der_Waal_Energy-OPLS-2005>
122.097160339355

> <r_mmod_Electrostatic_Energy-OPLS-2005>
-230.229263305664

> <r_mmod_Solvation_Energy-OPLS-2005>
-477.203125

> <b_mmod_Minimization_Converged-OPLS-2005>
0

> <r_mmod_RMS_Derivative-OPLS-2005>
2.09962916374207

$$$$
64
                    3D
 Structure written by MMmdl.
163173  0  0  1  0            999 V2000
  -30.6277  -14.5449   20.5857 C   0  0  0  0  0  0
  -30.4408  -12.3691   19.4096 C   0  0  0  0  0  0
  -29.4948  -12.5223   18.1978 C   0  0  0  0  0  0
  -28.0094  -12.3985   18.6062 C   0  0  0  0  0  0
  -27.6579  -13.2100   19.8813 C   0  0  2  0  0  0
  -28.7055  -12.9723   20.9912 C   0  0  0  0  0  0
  -25.2594  -13.8146   20.5660 C   0  0  0  0  0  0
  -24.1856  -13.0429   20.9164 C   0  0  0  0  0  0
  -24.6411  -11.6892   20.8703 C   0  0  0  0  0  0
  -23.9074  -10.4288   21.0386 C   0  0  0  0  0  0
  -24.3614   -9.4209   21.9165 C   0  0  0  0  0  0
  -23.6289   -8.2239   22.0759 C   0  0  0  0  0  0
  -22.4257   -8.0281   21.3558 C   0  0  0  0  0  0
  -21.9895   -9.0258   20.4654 C   0  0  0  0  0  0
  -22.7241  -10.2132   20.3060 C   0  0  0  0  0  0
  -21.6875   -6.0714   22.5263 C   0  0  0  0  0  0
  -21.4015   -6.5617   23.8191 C   0  0  0  0  0  0
  -21.3657   -5.6775   24.9152 C   0  0  0  0  0  0
  -21.6043   -4.3048   24.7203 C   0  0  0  0  0  0
  -21.8832   -3.8137   23.4341 C   0  0  0  0  0  0
  -21.9198   -4.6941   22.3399 C   0  0  0  0  0  0
  -22.7896  -13.5237   21.1812 C   0  0  0  0  0  0
  -22.1678   -4.2136   21.0985 F   0  0  0  0  0  0
  -21.5626   -3.4536   25.7723 F   0  0  0  0  0  0
  -30.0149  -13.3361   20.4333 N   0  0  0  0  0  0
  -26.3023  -12.9297   20.3396 N   0  0  0  0  0  0
  -25.9341  -11.6462   20.5751 N   0  0  0  0  0  0
  -22.0531  -12.8237   22.0362 N   0  0  0  0  0  0
  -25.4337  -15.1877   20.4068 N   0  0  0  0  0  0
  -31.7751  -14.7510   20.1786 O   0  0  0  0  0  0
  -21.6648   -6.8860   21.4234 O   0  0  0  0  0  0
  -22.3597  -14.5537   20.6639 O   0  0  0  0  0  0
  -24.6099  -31.8719   23.2113 C   0  0  0  0  0  0
  -25.8974  -32.4881   23.8412 C   0  0  1  0  0  0
  -27.2188  -27.4284   20.1157 C   0  0  0  0  0  0
  -25.5844  -33.8674   24.2335 N   0  0  0  0  0  0
  -23.3985  -30.4914   21.5570 C   0  0  2  0  0  0
  -24.8422  -28.9582   20.1138 C   0  0  0  0  0  0
  -22.7399  -29.4640   22.5052 C   0  0  0  0  0  0
  -18.0283  -28.1379   22.8483 C   0  0  0  0  0  0
  -24.1478  -36.7347   23.2635 C   0  0  0  0  0  0
  -25.9244  -30.8407   21.3558 C   0  0  0  0  0  0
  -26.0039  -29.4719   20.7076 C   0  0  0  0  0  0
  -27.1970  -28.7109   20.7042 C   0  0  0  0  0  0
  -26.0497  -26.9370   19.5002 C   0  0  0  0  0  0
  -24.8596  -27.6901   19.5089 C   0  0  0  0  0  0
  -23.6029  -29.8229   20.1720 C   0  0  0  0  0  0
  -25.4108  -36.3143   24.0333 C   0  0  1  0  0  0
  -20.5872  -28.3638   23.1372 C   0  0  2  0  0  0
  -20.6779  -26.9387   22.5451 C   0  0  0  0  0  0
  -19.5758  -26.6371   21.5243 C   0  0  0  0  0  0
  -18.1920  -26.7915   22.1627 C   0  0  0  0  0  0
  -19.1529  -28.8822   23.2903 C   0  0  0  0  0  0
  -18.9465  -30.1426   23.8914 C   0  0  0  0  0  0
  -17.6473  -30.6578   24.0551 C   0  0  0  0  0  0
  -25.9050  -34.9506   23.5134 C   0  0  0  0  0  0
  -16.5366  -29.9075   23.6359 C   0  0  0  0  0  0
  -16.7267  -28.6507   23.0348 C   0  0  0  0  0  0
  -26.4401  -31.6657   25.0725 C   0  0  0  0  0  0
  -25.3674  -31.3778   26.1494 C   0  0  0  0  0  0
  -27.0223  -30.3127   24.6035 C   0  0  0  0  0  0
  -27.6021  -32.4358   25.7458 C   0  0  0  0  0  0
  -27.5591  -37.1784   24.8441 C   0  0  0  0  0  0
  -21.4126  -29.2993   22.3770 N   0  0  0  0  0  0
  -26.4296  -37.3823   23.9406 N   0  0  0  0  0  0
  -24.6651  -31.0799   22.1034 N   0  0  0  0  0  0
  -23.4159  -28.8173   23.3078 O   0  0  0  0  0  0
  -28.3555  -26.6520   20.1354 O   0  0  0  0  0  0
  -26.5634  -34.8922   22.4721 O   0  0  0  0  0  0
  -23.5298  -32.1502   23.7520 O   0  0  0  0  0  0
  -29.2508  -17.8995   21.2204 C   0  0  0  0  0  0
  -30.1234  -16.8653   21.4423 C   0  0  0  0  0  0
  -29.5630  -19.2538   21.7029 C   0  0  0  0  0  0
  -31.3448  -17.1090   22.2349 C   0  0  0  0  0  0
  -33.8231  -19.7067   22.3128 C   0  0  0  0  0  0
  -33.1317  -20.2584   23.5323 C   0  0  0  0  0  0
  -27.9781  -20.9849   20.4181 C   0  0  0  0  0  0
  -28.6432  -20.4794   21.6836 C   0  0  2  0  0  0
  -32.8659  -18.8225   23.0910 C   0  0  0  0  0  0
  -29.0777  -21.8127   21.0480 C   0  0  2  0  0  0
  -28.6624  -24.2343   20.6242 C   0  0  0  0  0  0
  -28.3825  -25.6559   21.1837 C   0  0  0  0  0  0
  -30.7180  -19.4589   22.2448 N   0  0  0  0  0  0
  -31.6251  -18.4292   22.4579 N   0  0  0  0  0  0
  -29.8060  -15.5323   21.0502 N   0  0  0  0  0  0
  -28.5707  -23.1088   21.6083 N   0  3  0  0  0  0
  -32.0490  -16.2071   22.7038 O   0  0  0  0  0  0
  -31.4724  -12.5340   19.0903 H   0  0  0  0  0  0
  -30.4124  -11.3542   19.8124 H   0  0  0  0  0  0
  -29.7352  -11.7791   17.4325 H   0  0  0  0  0  0
  -29.6581  -13.4971   17.7327 H   0  0  0  0  0  0
  -27.7830  -11.3429   18.7574 H   0  0  0  0  0  0
  -27.3722  -12.7273   17.7811 H   0  0  0  0  0  0
  -27.6937  -14.2623   19.5975 H   0  0  0  0  0  0
  -28.7125  -11.9244   21.2876 H   0  0  0  0  0  0
  -28.4693  -13.5262   21.9028 H   0  0  0  0  0  0
  -25.2752   -9.5697   22.4748 H   0  0  0  0  0  0
  -24.0006   -7.4640   22.7491 H   0  0  0  0  0  0
  -21.0818   -8.8799   19.8961 H   0  0  0  0  0  0
  -22.3698  -10.9687   19.6186 H   0  0  0  0  0  0
  -21.2017   -7.6125   23.9685 H   0  0  0  0  0  0
  -21.1462   -6.0509   25.9056 H   0  0  0  0  0  0
  -22.0615   -2.7600   23.2841 H   0  0  0  0  0  0
  -22.4134  -11.9896   22.4769 H   0  0  0  0  0  0
  -21.1169  -13.1331   22.2529 H   0  0  0  0  0  0
  -24.6679  -15.8447   20.5039 H   0  0  0  0  0  0
  -26.2798  -15.6230   20.0626 H   0  0  0  0  0  0
  -26.7034  -32.5593   23.1170 H   0  0  0  0  0  0
  -24.9897  -33.9886   25.0402 H   0  0  0  0  0  0
  -22.6868  -31.3082   21.4163 H   0  0  0  0  0  0
  -23.3748  -35.9660   23.3316 H   0  0  0  0  0  0
  -24.3577  -36.8987   22.2049 H   0  0  0  0  0  0
  -23.7203  -37.6526   23.6682 H   0  0  0  0  0  0
  -26.0147  -31.5975   20.5760 H   0  0  0  0  0  0
  -26.8230  -30.9156   21.9573 H   0  0  0  0  0  0
  -28.0962  -29.0933   21.1680 H   0  0  0  0  0  0
  -26.0530  -25.9665   19.0280 H   0  0  0  0  0  0
  -23.9627  -27.2924   19.0497 H   0  0  0  0  0  0
  -23.6905  -30.5996   19.4108 H   0  0  0  0  0  0
  -22.7255  -29.2382   19.8864 H   0  0  0  0  0  0
  -25.1253  -36.2040   25.0827 H   0  0  0  0  0  0
  -20.9969  -28.3211   24.1482 H   0  0  0  0  0  0
  -20.5770  -26.2218   23.3619 H   0  0  0  0  0  0
  -21.6641  -26.7476   22.1177 H   0  0  0  0  0  0
  -19.6965  -25.6292   21.1248 H   0  0  0  0  0  0
  -19.6739  -27.3209   20.6810 H   0  0  0  0  0  0
  -17.4218  -26.6722   21.3995 H   0  0  0  0  0  0
  -18.0251  -26.0032   22.9003 H   0  0  0  0  0  0
  -19.7948  -30.7203   24.2300 H   0  0  0  0  0  0
  -17.5042  -31.6259   24.5115 H   0  0  0  0  0  0
  -15.5369  -30.2959   23.7673 H   0  0  0  0  0  0
  -15.8678  -28.0816   22.7073 H   0  0  0  0  0  0
  -24.5777  -30.7234   25.7818 H   0  0  0  0  0  0
  -24.8916  -32.2936   26.5014 H   0  0  0  0  0  0
  -25.7966  -30.8854   27.0226 H   0  0  0  0  0  0
  -26.2748  -29.6919   24.1083 H   0  0  0  0  0  0
  -27.4064  -29.7333   25.4439 H   0  0  0  0  0  0
  -27.8528  -30.4510   23.9103 H   0  0  0  0  0  0
  -27.2707  -33.3682   26.2032 H   0  0  0  0  0  0
  -28.3779  -32.6926   25.0231 H   0  0  0  0  0  0
  -28.0709  -31.8476   26.5344 H   0  0  0  0  0  0
  -28.2548  -38.0133   24.7562 H   0  0  0  0  0  0
  -28.1136  -36.2670   24.6166 H   0  0  0  0  0  0
  -27.2313  -37.1315   25.8837 H   0  0  0  0  0  0
  -20.9317  -29.8634   21.6919 H   0  0  0  0  0  0
  -26.0212  -38.2896   24.1479 H   0  0  0  0  0  0
  -28.3180  -17.7488   20.6993 H   0  0  0  0  0  0
  -34.8871  -19.4927   22.3905 H   0  0  0  0  0  0
  -33.5030  -20.0952   21.3486 H   0  0  0  0  0  0
  -32.3923  -21.0343   23.3579 H   0  0  0  0  0  0
  -33.7311  -20.3990   24.4305 H   0  0  0  0  0  0
  -26.9455  -21.3244   20.5043 H   0  0  0  0  0  0
  -28.2168  -20.5027   19.4744 H   0  0  0  0  0  0
  -28.0532  -20.5185   22.5967 H   0  0  0  0  0  0
  -33.3360  -18.0775   23.7313 H   0  0  0  0  0  0
  -30.0595  -21.8727   20.5755 H   0  0  0  0  0  0
  -29.6629  -24.2379   20.1910 H   0  0  0  0  0  0
  -27.9642  -24.0303   19.8136 H   0  0  0  0  0  0
  -29.1819  -25.9422   21.8680 H   0  0  0  0  0  0
  -27.4662  -25.6632   21.7799 H   0  0  0  0  0  0
  -28.8422  -15.2635   21.1659 H   0  0  0  0  0  0
  -29.1139  -23.3400   22.4275 H   0  0  0  0  0  0
  -27.6158  -23.0157   21.9181 H   0  0  0  0  0  0
  1 25  1  0  0  0
  1 30  2  0  0  0
  1 85  1  0  0  0
  2  3  1  0  0  0
  2 25  1  0  0  0
  2 88  1  0  0  0
  2 89  1  0  0  0
  3  4  1  0  0  0
  3 90  1  0  0  0
  3 91  1  0  0  0
  4  5  1  0  0  0
  4 92  1  0  0  0
  4 93  1  0  0  0
  5  6  1  0  0  0
  5 26  1  0  0  0
  5 94  1  0  0  0
  6 25  1  0  0  0
  6 95  1  0  0  0
  6 96  1  0  0  0
  7  8  2  0  0  0
  7 26  1  0  0  0
  7 29  1  0  0  0
  8  9  1  0  0  0
  8 22  1  0  0  0
  9 10  1  0  0  0
  9 27  2  0  0  0
 10 11  2  0  0  0
 10 15  1  0  0  0
 11 12  1  0  0  0
 11 97  1  0  0  0
 12 13  2  0  0  0
 12 98  1  0  0  0
 13 14  1  0  0  0
 13 31  1  0  0  0
 14 15  2  0  0  0
 14 99  1  0  0  0
 15100  1  0  0  0
 16 17  2  0  0  0
 16 21  1  0  0  0
 16 31  1  0  0  0
 17 18  1  0  0  0
 17101  1  0  0  0
 18 19  2  0  0  0
 18102  1  0  0  0
 19 20  1  0  0  0
 19 24  1  0  0  0
 20 21  2  0  0  0
 20103  1  0  0  0
 21 23  1  0  0  0
 22 28  1  0  0  0
 22 32  2  0  0  0
 26 27  1  0  0  0
 28104  1  0  0  0
 28105  1  0  0  0
 29106  1  0  0  0
 29107  1  0  0  0
 33 34  1  0  0  0
 33 66  1  0  0  0
 33 70  2  0  0  0
 34 36  1  0  0  0
 34 59  1  0  0  0
 34108  1  0  0  0
 35 44  2  0  0  0
 35 45  1  0  0  0
 35 68  1  0  0  0
 36 56  1  0  0  0
 36109  1  0  0  0
 37 39  1  0  0  0
 37 47  1  0  0  0
 37 66  1  0  0  0
 37110  1  0  0  0
 38 43  2  0  0  0
 38 46  1  0  0  0
 38 47  1  0  0  0
 39 64  1  0  0  0
 39 67  2  0  0  0
 40 52  1  0  0  0
 40 53  2  0  0  0
 40 58  1  0  0  0
 41111  1  0  0  0
 41112  1  0  0  0
 41113  1  0  0  0
 41 48  1  0  0  0
 42 43  1  0  0  0
 42 66  1  0  0  0
 42114  1  0  0  0
 42115  1  0  0  0
 43 44  1  0  0  0
 44116  1  0  0  0
 45 46  2  0  0  0
 45117  1  0  0  0
 46118  1  0  0  0
 47119  1  0  0  0
 47120  1  0  0  0
 48 56  1  0  0  0
 48 65  1  0  0  0
 48121  1  0  0  0
 49 50  1  0  0  0
 49 53  1  0  0  0
 49 64  1  0  0  0
 49122  1  0  0  0
 50 51  1  0  0  0
 50123  1  0  0  0
 50124  1  0  0  0
 51 52  1  0  0  0
 51125  1  0  0  0
 51126  1  0  0  0
 52127  1  0  0  0
 52128  1  0  0  0
 53 54  1  0  0  0
 54 55  2  0  0  0
 54129  1  0  0  0
 55 57  1  0  0  0
 55130  1  0  0  0
 56 69  2  0  0  0
 57 58  2  0  0  0
 57131  1  0  0  0
 58132  1  0  0  0
 59 60  1  0  0  0
 59 61  1  0  0  0
 59 62  1  0  0  0
 60133  1  0  0  0
 60134  1  0  0  0
 60135  1  0  0  0
 61136  1  0  0  0
 61137  1  0  0  0
 61138  1  0  0  0
 62139  1  0  0  0
 62140  1  0  0  0
 62141  1  0  0  0
 63 65  1  0  0  0
 63142  1  0  0  0
 63143  1  0  0  0
 63144  1  0  0  0
 64145  1  0  0  0
 65146  1  0  0  0
 68 82  1  0  0  0
 71 72  2  0  0  0
 71 73  1  0  0  0
 71147  1  0  0  0
 72 74  1  0  0  0
 72 85  1  0  0  0
 73 83  2  0  0  0
 73 78  1  0  0  0
 74 84  1  0  0  0
 74 87  2  0  0  0
 75 76  1  0  0  0
 75 79  1  0  0  0
 75148  1  0  0  0
 75149  1  0  0  0
 76 79  1  0  0  0
 76150  1  0  0  0
 76151  1  0  0  0
 77 78  1  0  0  0
 77 80  1  0  0  0
 77152  1  0  0  0
 77153  1  0  0  0
 78 80  1  0  0  0
 78154  1  0  0  0
 79 84  1  0  0  0
 79155  1  0  0  0
 80 86  1  0  0  0
 80156  1  0  0  0
 81 82  1  0  0  0
 81 86  1  0  0  0
 81157  1  0  0  0
 81158  1  0  0  0
 82159  1  0  0  0
 82160  1  0  0  0
 83 84  1  0  0  0
 85161  1  0  0  0
 86162  1  0  0  0
 86163  1  0  0  0
M  CHG  1  86   1
M  ISO  4   1 100  68 101  82 101  85 100
M  END
> <chiral flag>
0

> <version>
0

> <s_m_source_file>
/data/baiqing/PycharmProjects/Reinvent-master-3.2/result/LINK_invent/BTK/process_docking_weight1_custom_sum_contain_oxygen_bond_distance_aromatic_linkinvent_7_9_3/rearranged_h_0198.sdf

> <i_m_source_file_index>
65

> <r_mmod_Potential_Energy-OPLS-2005>
-38.5256996154785

> <r_mmod_Stretch_Energy-OPLS-2005>
54.4683227539062

> <r_mmod_Bend_Energy-OPLS-2005>
119.169418334961

> <r_mmod_Torsional_Energy-OPLS-2005>
354.105926513672

> <r_mmod_Improper_Torsional_Energy-OPLS-2005>
4.49825477600098

> <r_mmod_Van_der_Waal_Energy-OPLS-2005>
170.389038085938

> <r_mmod_Electrostatic_Energy-OPLS-2005>
-252.829452514648

> <r_mmod_Solvation_Energy-OPLS-2005>
-509.355773925781

> <b_mmod_Minimization_Converged-OPLS-2005>
0

> <r_mmod_RMS_Derivative-OPLS-2005>
5.91630697250366

$$$$
65
                    3D
 Structure written by MMmdl.
165174  0  0  1  0            999 V2000
  -30.7128  -14.5616   20.5189 C   0  0  0  0  0  0
  -30.4097  -12.3620   19.4380 C   0  0  0  0  0  0
  -29.4895  -12.5003   18.2089 C   0  0  0  0  0  0
  -28.0147  -12.3395   18.6252 C   0  0  0  0  0  0
  -27.6436  -13.2121   19.8519 C   0  0  2  0  0  0
  -28.6909  -13.0859   20.9821 C   0  0  0  0  0  0
  -25.2510  -13.8131   20.5643 C   0  0  0  0  0  0
  -24.1803  -13.0410   20.9231 C   0  0  0  0  0  0
  -24.6383  -11.6893   20.8768 C   0  0  0  0  0  0
  -23.9065  -10.4273   21.0404 C   0  0  0  0  0  0
  -24.3625   -9.4188   21.9186 C   0  0  0  0  0  0
  -23.6308   -8.2222   22.0742 C   0  0  0  0  0  0
  -22.4292   -8.0266   21.3526 C   0  0  0  0  0  0
  -21.9929   -9.0232   20.4636 C   0  0  0  0  0  0
  -22.7256  -10.2117   20.3043 C   0  0  0  0  0  0
  -21.6855   -6.0737   22.5276 C   0  0  0  0  0  0
  -21.3995   -6.5642   23.8203 C   0  0  0  0  0  0
  -21.3665   -5.6792   24.9173 C   0  0  0  0  0  0
  -21.6042   -4.3063   24.7222 C   0  0  0  0  0  0
  -21.8826   -3.8145   23.4338 C   0  0  0  0  0  0
  -21.9192   -4.6956   22.3393 C   0  0  0  0  0  0
  -22.7833  -13.5219   21.1869 C   0  0  0  0  0  0
  -22.1671   -4.2145   21.0974 F   0  0  0  0  0  0
  -21.5646   -3.4537   25.7734 F   0  0  0  0  0  0
  -29.9998  -13.4001   20.4031 N   0  0  0  0  0  0
  -26.2937  -12.9326   20.3262 N   0  0  0  0  0  0
  -25.9298  -11.6490   20.5749 N   0  0  0  0  0  0
  -22.0470  -12.8192   22.0414 N   0  0  0  0  0  0
  -25.4101  -15.1844   20.3920 N   0  0  0  0  0  0
  -31.8961  -14.6116   20.1787 O   0  0  0  0  0  0
  -21.6642   -6.8868   21.4235 O   0  0  0  0  0  0
  -22.3519  -14.5531   20.6735 O   0  0  0  0  0  0
  -24.6163  -31.8666   23.2111 C   0  0  0  0  0  0
  -25.9059  -32.4806   23.8407 C   0  0  1  0  0  0
  -27.2235  -27.4157   20.0987 C   0  0  0  0  0  0
  -25.5924  -33.8604   24.2337 N   0  0  0  0  0  0
  -23.4048  -30.4919   21.5495 C   0  0  2  0  0  0
  -24.8504  -28.9518   20.1183 C   0  0  0  0  0  0
  -22.7420  -29.4656   22.4975 C   0  0  0  0  0  0
  -18.0274  -28.1389   22.8477 C   0  0  0  0  0  0
  -24.1480  -36.7301   23.2637 C   0  0  0  0  0  0
  -25.9364  -30.8226   21.3688 C   0  0  0  0  0  0
  -26.0112  -29.4518   20.7240 C   0  0  0  0  0  0
  -27.2041  -28.6894   20.7166 C   0  0  0  0  0  0
  -26.0543  -26.9418   19.4730 C   0  0  0  0  0  0
  -24.8665  -27.6958   19.4899 C   0  0  0  0  0  0
  -23.6152  -29.8243   20.1643 C   0  0  0  0  0  0
  -25.4100  -36.3096   24.0342 C   0  0  1  0  0  0
  -20.5859  -28.3674   23.1313 C   0  0  2  0  0  0
  -20.6768  -26.9414   22.5411 C   0  0  0  0  0  0
  -19.5751  -26.6384   21.5213 C   0  0  0  0  0  0
  -18.1928  -26.7944   22.1610 C   0  0  0  0  0  0
  -19.1522  -28.8848   23.2894 C   0  0  0  0  0  0
  -18.9449  -30.1454   23.8906 C   0  0  0  0  0  0
  -17.6456  -30.6588   24.0572 C   0  0  0  0  0  0
  -25.9029  -34.9461   23.5123 C   0  0  0  0  0  0
  -16.5349  -29.9091   23.6334 C   0  0  0  0  0  0
  -16.7261  -28.6515   23.0338 C   0  0  0  0  0  0
  -26.4496  -31.6580   25.0730 C   0  0  0  0  0  0
  -25.3785  -31.3683   26.1494 C   0  0  0  0  0  0
  -27.0314  -30.3014   24.6102 C   0  0  0  0  0  0
  -27.6055  -32.4311   25.7518 C   0  0  0  0  0  0
  -27.5574  -37.1806   24.8471 C   0  0  0  0  0  0
  -21.4144  -29.3036   22.3719 N   0  0  0  0  0  0
  -26.4280  -37.3787   23.9423 N   0  0  0  0  0  0
  -24.6710  -31.0759   22.1012 N   0  0  0  0  0  0
  -23.4188  -28.8197   23.3017 O   0  0  0  0  0  0
  -28.3762  -26.6700   19.9915 O   0  0  0  0  0  0
  -26.5573  -34.8925   22.4676 O   0  0  0  0  0  0
  -23.5354  -32.1424   23.7498 O   0  0  0  0  0  0
  -27.0747  -22.3158   20.2008 C   0  0  0  0  0  0
  -30.5704  -17.0804   20.2652 C   0  0  0  0  0  0
  -28.8105  -16.2967   21.1854 C   0  0  0  0  0  0
  -27.4427  -20.9210   19.6426 C   0  0  0  0  0  0
  -29.4220  -20.9338   21.0016 C   0  0  0  0  0  0
  -29.3383  -17.7305   20.9173 C   0  0  0  0  0  0
  -28.9993  -22.3354   21.5686 C   0  0  1  0  0  0
  -30.2405  -23.0925   22.0691 C   0  0  0  0  0  0
  -28.5157  -18.7447   20.0594 C   0  0  0  0  0  0
  -27.7172  -24.4270   21.0590 C   0  0  0  0  0  0
  -28.6436  -25.6889   21.0081 C   0  0  0  0  0  0
  -30.0513  -15.7540   20.6186 N   0  0  0  0  0  0
  -28.2518  -23.1299   20.5595 N   0  0  0  0  0  0
  -28.2411  -20.1194   20.6086 N   0  3  2  0  0  0
  -31.4530  -12.4496   19.1317 H   0  0  0  0  0  0
  -30.3156  -11.3694   19.8828 H   0  0  0  0  0  0
  -29.7483  -11.7575   17.4564 H   0  0  0  0  0  0
  -29.6386  -13.4748   17.7385 H   0  0  0  0  0  0
  -27.8449  -11.2869   18.8543 H   0  0  0  0  0  0
  -27.3598  -12.5760   17.7849 H   0  0  0  0  0  0
  -27.6554  -14.2365   19.4885 H   0  0  0  0  0  0
  -28.6980  -12.0737   21.3871 H   0  0  0  0  0  0
  -28.4542  -13.7417   21.8197 H   0  0  0  0  0  0
  -25.2753   -9.5680   22.4786 H   0  0  0  0  0  0
  -24.0024   -7.4601   22.7448 H   0  0  0  0  0  0
  -21.0865   -8.8745   19.8928 H   0  0  0  0  0  0
  -22.3705  -10.9664   19.6152 H   0  0  0  0  0  0
  -21.1962   -7.6144   23.9719 H   0  0  0  0  0  0
  -21.1497   -6.0512   25.9084 H   0  0  0  0  0  0
  -22.0603   -2.7610   23.2824 H   0  0  0  0  0  0
  -22.4102  -11.9851   22.4781 H   0  0  0  0  0  0
  -21.1080  -13.1195   22.2619 H   0  0  0  0  0  0
  -24.6203  -15.8176   20.4552 H   0  0  0  0  0  0
  -26.2228  -15.6037   19.9645 H   0  0  0  0  0  0
  -26.7126  -32.5516   23.1171 H   0  0  0  0  0  0
  -25.0153  -33.9768   25.0538 H   0  0  0  0  0  0
  -22.6938  -31.3091   21.4090 H   0  0  0  0  0  0
  -23.3741  -35.9631   23.3304 H   0  0  0  0  0  0
  -24.3591  -36.8908   22.2050 H   0  0  0  0  0  0
  -23.7233  -37.6512   23.6644 H   0  0  0  0  0  0
  -26.0496  -31.5824   20.5947 H   0  0  0  0  0  0
  -26.8262  -30.8799   21.9842 H   0  0  0  0  0  0
  -28.1076  -29.0781   21.1659 H   0  0  0  0  0  0
  -26.0649  -25.9972   18.9485 H   0  0  0  0  0  0
  -23.9811  -27.3142   19.0007 H   0  0  0  0  0  0
  -23.7271  -30.5991   19.4048 H   0  0  0  0  0  0
  -22.7390  -29.2449   19.8662 H   0  0  0  0  0  0
  -25.1276  -36.1955   25.0834 H   0  0  0  0  0  0
  -20.9954  -28.3238   24.1433 H   0  0  0  0  0  0
  -20.5693  -26.2284   23.3594 H   0  0  0  0  0  0
  -21.6633  -26.7475   22.1188 H   0  0  0  0  0  0
  -19.6917  -25.6297   21.1238 H   0  0  0  0  0  0
  -19.6706  -27.3201   20.6755 H   0  0  0  0  0  0
  -17.4210  -26.6700   21.4002 H   0  0  0  0  0  0
  -18.0314  -26.0083   22.8994 H   0  0  0  0  0  0
  -19.7928  -30.7263   24.2269 H   0  0  0  0  0  0
  -17.5017  -31.6272   24.5174 H   0  0  0  0  0  0
  -15.5353  -30.3000   23.7663 H   0  0  0  0  0  0
  -15.8656  -28.0857   22.7025 H   0  0  0  0  0  0
  -24.5953  -30.7018   25.7869 H   0  0  0  0  0  0
  -24.8987  -32.2827   26.4980 H   0  0  0  0  0  0
  -25.8173  -30.8851   27.0232 H   0  0  0  0  0  0
  -26.2838  -29.6778   24.1174 H   0  0  0  0  0  0
  -27.4099  -29.7248   25.4557 H   0  0  0  0  0  0
  -27.8685  -30.4324   23.9241 H   0  0  0  0  0  0
  -27.2633  -33.3590   26.2124 H   0  0  0  0  0  0
  -28.3872  -32.6901   25.0359 H   0  0  0  0  0  0
  -28.0712  -31.8414   26.5430 H   0  0  0  0  0  0
  -28.2582  -38.0106   24.7509 H   0  0  0  0  0  0
  -28.1071  -36.2641   24.6293 H   0  0  0  0  0  0
  -27.2304  -37.1447   25.8873 H   0  0  0  0  0  0
  -20.9308  -29.8758   21.6941 H   0  0  0  0  0  0
  -26.0164  -38.2862   24.1428 H   0  0  0  0  0  0
  -26.4045  -22.2068   21.0568 H   0  0  0  0  0  0
  -26.5010  -22.8337   19.4306 H   0  0  0  0  0  0
  -31.5109  -17.3448   20.7498 H   0  0  0  0  0  0
  -30.6369  -17.2401   19.1864 H   0  0  0  0  0  0
  -27.9157  -16.0715   20.6124 H   0  0  0  0  0  0
  -28.6634  -16.0831   22.2455 H   0  0  0  0  0  0
  -27.9974  -21.0327   18.7089 H   0  0  0  0  0  0
  -26.5258  -20.3858   19.3935 H   0  0  0  0  0  0
  -29.9888  -20.4000   21.7626 H   0  0  0  0  0  0
  -30.0883  -21.0528   20.1455 H   0  0  0  0  0  0
  -29.6357  -18.1549   21.8766 H   0  0  0  0  0  0
  -28.3537  -22.1701   22.4342 H   0  0  0  0  0  0
  -30.8664  -23.4298   21.2437 H   0  0  0  0  0  0
  -30.8610  -22.4569   22.7006 H   0  0  0  0  0  0
  -29.9733  -23.9558   22.6789 H   0  0  0  0  0  0
  -27.5473  -18.2967   19.8333 H   0  0  0  0  0  0
  -28.9957  -18.8715   19.0891 H   0  0  0  0  0  0
  -26.8097  -24.6757   20.5150 H   0  0  0  0  0  0
  -27.3752  -24.2863   22.0861 H   0  0  0  0  0  0
  -29.6809  -25.3957   20.8655 H   0  0  0  0  0  0
  -28.6132  -26.1919   21.9760 H   0  0  0  0  0  0
  -27.6730  -20.0083   21.4341 H   0  0  0  0  0  0
  1 25  1  0  0  0
  1 30  2  0  0  0
  1 82  1  0  0  0
  2  3  1  0  0  0
  2 25  1  0  0  0
  2 85  1  0  0  0
  2 86  1  0  0  0
  3  4  1  0  0  0
  3 87  1  0  0  0
  3 88  1  0  0  0
  4  5  1  0  0  0
  4 89  1  0  0  0
  4 90  1  0  0  0
  5  6  1  0  0  0
  5 26  1  0  0  0
  5 91  1  0  0  0
  6 25  1  0  0  0
  6 92  1  0  0  0
  6 93  1  0  0  0
  7  8  2  0  0  0
  7 26  1  0  0  0
  7 29  1  0  0  0
  8  9  1  0  0  0
  8 22  1  0  0  0
  9 10  1  0  0  0
  9 27  2  0  0  0
 10 11  2  0  0  0
 10 15  1  0  0  0
 11 12  1  0  0  0
 11 94  1  0  0  0
 12 13  2  0  0  0
 12 95  1  0  0  0
 13 14  1  0  0  0
 13 31  1  0  0  0
 14 15  2  0  0  0
 14 96  1  0  0  0
 15 97  1  0  0  0
 16 17  2  0  0  0
 16 21  1  0  0  0
 16 31  1  0  0  0
 17 18  1  0  0  0
 17 98  1  0  0  0
 18 19  2  0  0  0
 18 99  1  0  0  0
 19 20  1  0  0  0
 19 24  1  0  0  0
 20 21  2  0  0  0
 20100  1  0  0  0
 21 23  1  0  0  0
 22 28  1  0  0  0
 22 32  2  0  0  0
 26 27  1  0  0  0
 28101  1  0  0  0
 28102  1  0  0  0
 29103  1  0  0  0
 29104  1  0  0  0
 33 34  1  0  0  0
 33 66  1  0  0  0
 33 70  2  0  0  0
 34 36  1  0  0  0
 34 59  1  0  0  0
 34105  1  0  0  0
 35 44  2  0  0  0
 35 45  1  0  0  0
 35 68  1  0  0  0
 36 56  1  0  0  0
 36106  1  0  0  0
 37 39  1  0  0  0
 37 47  1  0  0  0
 37 66  1  0  0  0
 37107  1  0  0  0
 38 43  2  0  0  0
 38 46  1  0  0  0
 38 47  1  0  0  0
 39 64  1  0  0  0
 39 67  2  0  0  0
 40 52  1  0  0  0
 40 53  2  0  0  0
 40 58  1  0  0  0
 41108  1  0  0  0
 41109  1  0  0  0
 41110  1  0  0  0
 41 48  1  0  0  0
 42 43  1  0  0  0
 42 66  1  0  0  0
 42111  1  0  0  0
 42112  1  0  0  0
 43 44  1  0  0  0
 44113  1  0  0  0
 45 46  2  0  0  0
 45114  1  0  0  0
 46115  1  0  0  0
 47116  1  0  0  0
 47117  1  0  0  0
 48 56  1  0  0  0
 48 65  1  0  0  0
 48118  1  0  0  0
 49 50  1  0  0  0
 49 53  1  0  0  0
 49 64  1  0  0  0
 49119  1  0  0  0
 50 51  1  0  0  0
 50120  1  0  0  0
 50121  1  0  0  0
 51 52  1  0  0  0
 51122  1  0  0  0
 51123  1  0  0  0
 52124  1  0  0  0
 52125  1  0  0  0
 53 54  1  0  0  0
 54 55  2  0  0  0
 54126  1  0  0  0
 55 57  1  0  0  0
 55127  1  0  0  0
 56 69  2  0  0  0
 57 58  2  0  0  0
 57128  1  0  0  0
 58129  1  0  0  0
 59 60  1  0  0  0
 59 61  1  0  0  0
 59 62  1  0  0  0
 60130  1  0  0  0
 60131  1  0  0  0
 60132  1  0  0  0
 61133  1  0  0  0
 61134  1  0  0  0
 61135  1  0  0  0
 62136  1  0  0  0
 62137  1  0  0  0
 62138  1  0  0  0
 63 65  1  0  0  0
 63139  1  0  0  0
 63140  1  0  0  0
 63141  1  0  0  0
 64142  1  0  0  0
 65143  1  0  0  0
 68 81  1  0  0  0
 71 74  1  0  0  0
 71 83  1  0  0  0
 71144  1  0  0  0
 71145  1  0  0  0
 72 76  1  0  0  0
 72 82  1  0  0  0
 72146  1  0  0  0
 72147  1  0  0  0
 73 76  1  0  0  0
 73 82  1  0  0  0
 73148  1  0  0  0
 73149  1  0  0  0
 74 84  1  0  0  0
 74150  1  0  0  0
 74151  1  0  0  0
 75 77  1  0  0  0
 75 84  1  0  0  0
 75152  1  0  0  0
 75153  1  0  0  0
 76 79  1  0  0  0
 76154  1  0  0  0
 77 78  1  0  0  0
 77 83  1  0  0  0
 77155  1  0  0  0
 78156  1  0  0  0
 78157  1  0  0  0
 78158  1  0  0  0
 79159  1  0  0  0
 79160  1  0  0  0
 79 84  1  0  0  0
 80 81  1  0  0  0
 80 83  1  0  0  0
 80161  1  0  0  0
 80162  1  0  0  0
 81163  1  0  0  0
 81164  1  0  0  0
 84165  1  0  0  0
M  CHG  1  84   1
M  ISO  4   1 100  68 101  81 101  82 100
M  END
> <chiral flag>
0

> <version>
0

> <s_m_source_file>
/data/baiqing/PycharmProjects/Reinvent-master-3.2/result/LINK_invent/BTK/process_docking_weight1_custom_sum_contain_oxygen_bond_distance_aromatic_linkinvent_7_9_3/rearranged_h_0198.sdf

> <i_m_source_file_index>
66

> <r_mmod_Potential_Energy-OPLS-2005>
91.0237045288086

> <r_mmod_Stretch_Energy-OPLS-2005>
49.7903823852539

> <r_mmod_Bend_Energy-OPLS-2005>
157.436874389648

> <r_mmod_Torsional_Energy-OPLS-2005>
324.780364990234

> <r_mmod_Improper_Torsional_Energy-OPLS-2005>
12.1014242172241

> <r_mmod_Van_der_Waal_Energy-OPLS-2005>
139.952011108398

> <r_mmod_Electrostatic_Energy-OPLS-2005>
-161.024261474609

> <r_mmod_Solvation_Energy-OPLS-2005>
-458.520294189453

> <b_mmod_Minimization_Converged-OPLS-2005>
0

> <r_mmod_RMS_Derivative-OPLS-2005>
2.97771835327148

$$$$
66
                    3D
 Structure written by MMmdl.
164173  0  0  1  0            999 V2000
  -30.7164  -14.4977   20.5736 C   0  0  0  0  0  0
  -30.4170  -12.3266   19.4290 C   0  0  0  0  0  0
  -29.4903  -12.5021   18.2099 C   0  0  0  0  0  0
  -28.0142  -12.3535   18.6253 C   0  0  0  0  0  0
  -27.6546  -13.2102   19.8682 C   0  0  2  0  0  0
  -28.6978  -13.0321   20.9938 C   0  0  0  0  0  0
  -25.2557  -13.8153   20.5690 C   0  0  0  0  0  0
  -24.1815  -13.0431   20.9190 C   0  0  0  0  0  0
  -24.6376  -11.6900   20.8744 C   0  0  0  0  0  0
  -23.9045  -10.4285   21.0408 C   0  0  0  0  0  0
  -24.3603   -9.4203   21.9185 C   0  0  0  0  0  0
  -23.6286   -8.2237   22.0751 C   0  0  0  0  0  0
  -22.4269   -8.0271   21.3542 C   0  0  0  0  0  0
  -21.9896   -9.0241   20.4648 C   0  0  0  0  0  0
  -22.7217  -10.2126   20.3058 C   0  0  0  0  0  0
  -21.6851   -6.0730   22.5275 C   0  0  0  0  0  0
  -21.4013   -6.5639   23.8208 C   0  0  0  0  0  0
  -21.3659   -5.6792   24.9170 C   0  0  0  0  0  0
  -21.6044   -4.3054   24.7223 C   0  0  0  0  0  0
  -21.8820   -3.8143   23.4346 C   0  0  0  0  0  0
  -21.9194   -4.6958   22.3401 C   0  0  0  0  0  0
  -22.7840  -13.5233   21.1851 C   0  0  0  0  0  0
  -22.1662   -4.2144   21.0979 F   0  0  0  0  0  0
  -21.5633   -3.4539   25.7738 F   0  0  0  0  0  0
  -30.0255  -13.3300   20.4343 N   0  0  0  0  0  0
  -26.2990  -12.9334   20.3352 N   0  0  0  0  0  0
  -25.9304  -11.6494   20.5772 N   0  0  0  0  0  0
  -22.0480  -12.8228   22.0410 N   0  0  0  0  0  0
  -25.4281  -15.1862   20.4084 N   0  0  0  0  0  0
  -31.8457  -14.6508   20.0962 O   0  0  0  0  0  0
  -21.6639   -6.8864   21.4234 O   0  0  0  0  0  0
  -22.3528  -14.5542   20.6702 O   0  0  0  0  0  0
  -24.6164  -31.8646   23.2072 C   0  0  0  0  0  0
  -25.9050  -32.4803   23.8369 C   0  0  1  0  0  0
  -27.2372  -27.4056   20.0964 C   0  0  0  0  0  0
  -25.5897  -33.8603   24.2299 N   0  0  0  0  0  0
  -23.4049  -30.4868   21.5477 C   0  0  2  0  0  0
  -24.8514  -28.9466   20.1118 C   0  0  0  0  0  0
  -22.7416  -29.4637   22.4979 C   0  0  0  0  0  0
  -18.0269  -28.1380   22.8494 C   0  0  0  0  0  0
  -24.1484  -36.7305   23.2637 C   0  0  0  0  0  0
  -25.9348  -30.8197   21.3640 C   0  0  0  0  0  0
  -26.0098  -29.4501   20.7148 C   0  0  0  0  0  0
  -27.1990  -28.6825   20.7114 C   0  0  0  0  0  0
  -26.0573  -26.9219   19.4859 C   0  0  0  0  0  0
  -24.8711  -27.6824   19.4959 C   0  0  0  0  0  0
  -23.6141  -29.8163   20.1622 C   0  0  0  0  0  0
  -25.4103  -36.3097   24.0335 C   0  0  1  0  0  0
  -20.5861  -28.3664   23.1327 C   0  0  2  0  0  0
  -20.6757  -26.9397   22.5433 C   0  0  0  0  0  0
  -19.5742  -26.6390   21.5221 C   0  0  0  0  0  0
  -18.1914  -26.7933   22.1616 C   0  0  0  0  0  0
  -19.1519  -28.8838   23.2910 C   0  0  0  0  0  0
  -18.9445  -30.1443   23.8925 C   0  0  0  0  0  0
  -17.6448  -30.6587   24.0568 C   0  0  0  0  0  0
  -25.9038  -34.9468   23.5118 C   0  0  0  0  0  0
  -16.5339  -29.9092   23.6325 C   0  0  0  0  0  0
  -16.7258  -28.6507   23.0350 C   0  0  0  0  0  0
  -26.4476  -31.6593   25.0705 C   0  0  0  0  0  0
  -25.3745  -31.3721   26.1463 C   0  0  0  0  0  0
  -27.0291  -30.3025   24.6095 C   0  0  0  0  0  0
  -27.6058  -32.4312   25.7457 C   0  0  0  0  0  0
  -27.5585  -37.1790   24.8453 C   0  0  0  0  0  0
  -21.4143  -29.3028   22.3732 N   0  0  0  0  0  0
  -26.4278  -37.3794   23.9426 N   0  0  0  0  0  0
  -24.6701  -31.0728   22.0981 N   0  0  0  0  0  0
  -23.4186  -28.8180   23.3029 O   0  0  0  0  0  0
  -28.4136  -26.6741   20.1433 O   0  0  0  0  0  0
  -26.5608  -34.8931   22.4685 O   0  0  0  0  0  0
  -23.5352  -32.1409   23.7464 O   0  0  0  0  0  0
  -30.3203  -17.7524   22.1731 C   0  0  0  0  0  0
  -28.0032  -23.1185   18.6511 C   0  0  0  0  0  0
  -30.8247  -16.3002   22.2391 C   0  0  0  0  0  0
  -29.2524  -16.4895   20.4860 C   0  0  0  0  0  0
  -29.8020  -17.9166   20.7482 C   0  0  1  0  0  0
  -28.1304  -24.1491   19.7594 C   0  0  1  0  0  0
  -29.0005  -22.8659   19.7480 C   0  0  1  0  0  0
  -27.0063  -18.5861   19.0616 C   0  0  0  0  0  0
  -28.6196  -25.5351   19.2830 C   0  0  0  0  0  0
  -29.5294  -20.5318   20.6008 C   0  0  0  0  0  0
  -28.8342  -19.1362   20.5204 C   0  0  1  0  0  0
  -30.0969  -15.5224   21.2227 N   0  0  0  0  0  0
  -28.5770  -21.6886   20.5694 N   0  3  0  0  0  0
  -28.3360  -19.0761   19.1849 O   0  0  0  0  0  0
  -31.4608  -12.4200   19.1243 H   0  0  0  0  0  0
  -30.3204  -11.3224   19.8454 H   0  0  0  0  0  0
  -29.7364  -11.7693   17.4402 H   0  0  0  0  0  0
  -29.6504  -13.4835   17.7607 H   0  0  0  0  0  0
  -27.8350  -11.2989   18.8388 H   0  0  0  0  0  0
  -27.3603  -12.6081   17.7907 H   0  0  0  0  0  0
  -27.6841  -14.2502   19.5458 H   0  0  0  0  0  0
  -28.6808  -12.0094   21.3736 H   0  0  0  0  0  0
  -28.4549  -13.6683   21.8459 H   0  0  0  0  0  0
  -25.2748   -9.5688   22.4760 H   0  0  0  0  0  0
  -24.0001   -7.4629   22.7467 H   0  0  0  0  0  0
  -21.0827   -8.8750   19.8954 H   0  0  0  0  0  0
  -22.3665  -10.9663   19.6172 H   0  0  0  0  0  0
  -21.1999   -7.6144   23.9707 H   0  0  0  0  0  0
  -21.1486   -6.0524   25.9073 H   0  0  0  0  0  0
  -22.0602   -2.7604   23.2847 H   0  0  0  0  0  0
  -22.4088  -11.9887   22.4796 H   0  0  0  0  0  0
  -21.1101  -13.1258   22.2620 H   0  0  0  0  0  0
  -24.6625  -15.8427   20.5127 H   0  0  0  0  0  0
  -26.2822  -15.6125   20.0779 H   0  0  0  0  0  0
  -26.7113  -32.5506   23.1124 H   0  0  0  0  0  0
  -25.0041  -33.9755   25.0438 H   0  0  0  0  0  0
  -22.6947  -31.3043   21.4072 H   0  0  0  0  0  0
  -23.3752  -35.9627   23.3271 H   0  0  0  0  0  0
  -24.3586  -36.8950   22.2056 H   0  0  0  0  0  0
  -23.7221  -37.6495   23.6672 H   0  0  0  0  0  0
  -26.0480  -31.5817   20.5912 H   0  0  0  0  0  0
  -26.8232  -30.8767   21.9810 H   0  0  0  0  0  0
  -28.0909  -29.0646   21.1888 H   0  0  0  0  0  0
  -26.0308  -25.9510   19.0133 H   0  0  0  0  0  0
  -23.9789  -27.2869   19.0299 H   0  0  0  0  0  0
  -23.7245  -30.5902   19.4020 H   0  0  0  0  0  0
  -22.7372  -29.2379   19.8654 H   0  0  0  0  0  0
  -25.1277  -36.1943   25.0825 H   0  0  0  0  0  0
  -20.9947  -28.3224   24.1450 H   0  0  0  0  0  0
  -20.5644  -26.2271   23.3619 H   0  0  0  0  0  0
  -21.6630  -26.7431   22.1234 H   0  0  0  0  0  0
  -19.6901  -25.6308   21.1235 H   0  0  0  0  0  0
  -19.6691  -27.3218   20.6767 H   0  0  0  0  0  0
  -17.4193  -26.6698   21.4007 H   0  0  0  0  0  0
  -18.0290  -26.0064   22.8997 H   0  0  0  0  0  0
  -19.7923  -30.7250   24.2309 H   0  0  0  0  0  0
  -17.5005  -31.6271   24.5164 H   0  0  0  0  0  0
  -15.5342  -30.3004   23.7641 H   0  0  0  0  0  0
  -15.8652  -28.0839   22.7056 H   0  0  0  0  0  0
  -24.5940  -30.7030   25.7831 H   0  0  0  0  0  0
  -24.8914  -32.2880   26.4873 H   0  0  0  0  0  0
  -25.8111  -30.8944   27.0242 H   0  0  0  0  0  0
  -26.2822  -29.6792   24.1165 H   0  0  0  0  0  0
  -27.4062  -29.7263   25.4554 H   0  0  0  0  0  0
  -27.8660  -30.4328   23.9231 H   0  0  0  0  0  0
  -27.2686  -33.3614   26.2042 H   0  0  0  0  0  0
  -28.3856  -32.6865   25.0270 H   0  0  0  0  0  0
  -28.0733  -31.8429   26.5363 H   0  0  0  0  0  0
  -28.2573  -38.0118   24.7549 H   0  0  0  0  0  0
  -28.1108  -36.2656   24.6195 H   0  0  0  0  0  0
  -27.2322  -37.1333   25.8858 H   0  0  0  0  0  0
  -20.9301  -29.8755   21.6957 H   0  0  0  0  0  0
  -26.0159  -38.2856   24.1480 H   0  0  0  0  0  0
  -31.0994  -18.4724   22.4265 H   0  0  0  0  0  0
  -29.5047  -17.8889   22.8853 H   0  0  0  0  0  0
  -28.4079  -23.3685   17.6722 H   0  0  0  0  0  0
  -27.0802  -22.5408   18.6236 H   0  0  0  0  0  0
  -30.6670  -15.8715   23.2298 H   0  0  0  0  0  0
  -31.9010  -16.2812   22.0541 H   0  0  0  0  0  0
  -29.2066  -16.2759   19.4161 H   0  0  0  0  0  0
  -28.2418  -16.3953   20.8824 H   0  0  0  0  0  0
  -30.6648  -18.0512   20.0936 H   0  0  0  0  0  0
  -27.2966  -24.1893   20.4581 H   0  0  0  0  0  0
  -30.0691  -22.9553   19.5602 H   0  0  0  0  0  0
  -26.7265  -18.5570   18.0082 H   0  0  0  0  0  0
  -26.2950  -19.2330   19.5764 H   0  0  0  0  0  0
  -26.9011  -17.5774   19.4566 H   0  0  0  0  0  0
  -28.2059  -25.7440   18.2955 H   0  0  0  0  0  0
  -29.6956  -25.4622   19.1223 H   0  0  0  0  0  0
  -30.2485  -20.6133   19.7852 H   0  0  0  0  0  0
  -30.1077  -20.6084   21.5216 H   0  0  0  0  0  0
  -28.0231  -19.0929   21.2505 H   0  0  0  0  0  0
  -27.7045  -21.3556   20.1928 H   0  0  0  0  0  0
  -28.4008  -21.9812   21.5184 H   0  0  0  0  0  0
  1 25  1  0  0  0
  1 30  2  0  0  0
  1 82  1  0  0  0
  2  3  1  0  0  0
  2 25  1  0  0  0
  2 85  1  0  0  0
  2 86  1  0  0  0
  3  4  1  0  0  0
  3 87  1  0  0  0
  3 88  1  0  0  0
  4  5  1  0  0  0
  4 89  1  0  0  0
  4 90  1  0  0  0
  5  6  1  0  0  0
  5 26  1  0  0  0
  5 91  1  0  0  0
  6 25  1  0  0  0
  6 92  1  0  0  0
  6 93  1  0  0  0
  7  8  2  0  0  0
  7 26  1  0  0  0
  7 29  1  0  0  0
  8  9  1  0  0  0
  8 22  1  0  0  0
  9 10  1  0  0  0
  9 27  2  0  0  0
 10 11  2  0  0  0
 10 15  1  0  0  0
 11 12  1  0  0  0
 11 94  1  0  0  0
 12 13  2  0  0  0
 12 95  1  0  0  0
 13 14  1  0  0  0
 13 31  1  0  0  0
 14 15  2  0  0  0
 14 96  1  0  0  0
 15 97  1  0  0  0
 16 17  2  0  0  0
 16 21  1  0  0  0
 16 31  1  0  0  0
 17 18  1  0  0  0
 17 98  1  0  0  0
 18 19  2  0  0  0
 18 99  1  0  0  0
 19 20  1  0  0  0
 19 24  1  0  0  0
 20 21  2  0  0  0
 20100  1  0  0  0
 21 23  1  0  0  0
 22 28  1  0  0  0
 22 32  2  0  0  0
 26 27  1  0  0  0
 28101  1  0  0  0
 28102  1  0  0  0
 29103  1  0  0  0
 29104  1  0  0  0
 33 34  1  0  0  0
 33 66  1  0  0  0
 33 70  2  0  0  0
 34 36  1  0  0  0
 34 59  1  0  0  0
 34105  1  0  0  0
 35 44  2  0  0  0
 35 45  1  0  0  0
 35 68  1  0  0  0
 36 56  1  0  0  0
 36106  1  0  0  0
 37 39  1  0  0  0
 37 47  1  0  0  0
 37 66  1  0  0  0
 37107  1  0  0  0
 38 43  2  0  0  0
 38 46  1  0  0  0
 38 47  1  0  0  0
 39 64  1  0  0  0
 39 67  2  0  0  0
 40 52  1  0  0  0
 40 53  2  0  0  0
 40 58  1  0  0  0
 41108  1  0  0  0
 41109  1  0  0  0
 41110  1  0  0  0
 41 48  1  0  0  0
 42 43  1  0  0  0
 42 66  1  0  0  0
 42111  1  0  0  0
 42112  1  0  0  0
 43 44  1  0  0  0
 44113  1  0  0  0
 45 46  2  0  0  0
 45114  1  0  0  0
 46115  1  0  0  0
 47116  1  0  0  0
 47117  1  0  0  0
 48 56  1  0  0  0
 48 65  1  0  0  0
 48118  1  0  0  0
 49 50  1  0  0  0
 49 53  1  0  0  0
 49 64  1  0  0  0
 49119  1  0  0  0
 50 51  1  0  0  0
 50120  1  0  0  0
 50121  1  0  0  0
 51 52  1  0  0  0
 51122  1  0  0  0
 51123  1  0  0  0
 52124  1  0  0  0
 52125  1  0  0  0
 53 54  1  0  0  0
 54 55  2  0  0  0
 54126  1  0  0  0
 55 57  1  0  0  0
 55127  1  0  0  0
 56 69  2  0  0  0
 57 58  2  0  0  0
 57128  1  0  0  0
 58129  1  0  0  0
 59 60  1  0  0  0
 59 61  1  0  0  0
 59 62  1  0  0  0
 60130  1  0  0  0
 60131  1  0  0  0
 60132  1  0  0  0
 61133  1  0  0  0
 61134  1  0  0  0
 61135  1  0  0  0
 62136  1  0  0  0
 62137  1  0  0  0
 62138  1  0  0  0
 63 65  1  0  0  0
 63139  1  0  0  0
 63140  1  0  0  0
 63141  1  0  0  0
 64142  1  0  0  0
 65143  1  0  0  0
 68 79  1  0  0  0
 71 73  1  0  0  0
 71144  1  0  0  0
 71145  1  0  0  0
 71 75  1  0  0  0
 72 76  1  0  0  0
 72 77  1  0  0  0
 72146  1  0  0  0
 72147  1  0  0  0
 73 82  1  0  0  0
 73148  1  0  0  0
 73149  1  0  0  0
 74 75  1  0  0  0
 74 82  1  0  0  0
 74150  1  0  0  0
 74151  1  0  0  0
 75 81  1  0  0  0
 75152  1  0  0  0
 76 77  1  0  0  0
 76 79  1  0  0  0
 76153  1  0  0  0
 77 83  1  0  0  0
 77154  1  0  0  0
 78 84  1  0  0  0
 78155  1  0  0  0
 78156  1  0  0  0
 78157  1  0  0  0
 79158  1  0  0  0
 79159  1  0  0  0
 80 83  1  0  0  0
 80160  1  0  0  0
 80161  1  0  0  0
 80 81  1  0  0  0
 81 84  1  0  0  0
 81162  1  0  0  0
 83163  1  0  0  0
 83164  1  0  0  0
M  CHG  1  83   1
M  ISO  4   1 100  68 101  79 101  82 100
M  END
> <chiral flag>
0

> <version>
0

> <s_m_source_file>
/data/baiqing/PycharmProjects/Reinvent-master-3.2/result/LINK_invent/BTK/process_docking_weight1_custom_sum_contain_oxygen_bond_distance_aromatic_linkinvent_7_9_3/rearranged_h_0198.sdf

> <i_m_source_file_index>
67

> <r_mmod_Potential_Energy-OPLS-2005>
112.404190063477

> <r_mmod_Stretch_Energy-OPLS-2005>
46.3900566101074

> <r_mmod_Bend_Energy-OPLS-2005>
150.509429931641

> <r_mmod_Torsional_Energy-OPLS-2005>
391.116394042969

> <r_mmod_Improper_Torsional_Energy-OPLS-2005>
5.86328172683716

> <r_mmod_Van_der_Waal_Energy-OPLS-2005>
118.354133605957

> <r_mmod_Electrostatic_Energy-OPLS-2005>
-174.14826965332

> <r_mmod_Solvation_Energy-OPLS-2005>
-443.2451171875

> <b_mmod_Minimization_Converged-OPLS-2005>
0

> <r_mmod_RMS_Derivative-OPLS-2005>
0.886796474456787

$$$$
67
                    3D
 Structure written by MMmdl.
171181  0  0  1  0            999 V2000
  -30.7434  -14.4207   20.6375 C   0  0  0  0  0  0
  -30.4185  -12.2927   19.4322 C   0  0  0  0  0  0
  -29.4947  -12.5036   18.2164 C   0  0  0  0  0  0
  -28.0172  -12.3635   18.6280 C   0  0  0  0  0  0
  -27.6650  -13.2044   19.8836 C   0  0  2  0  0  0
  -28.6993  -12.9773   21.0078 C   0  0  0  0  0  0
  -25.2606  -13.8159   20.5698 C   0  0  0  0  0  0
  -24.1850  -13.0447   20.9169 C   0  0  0  0  0  0
  -24.6406  -11.6904   20.8756 C   0  0  0  0  0  0
  -23.9082  -10.4288   21.0424 C   0  0  0  0  0  0
  -24.3627   -9.4193   21.9204 C   0  0  0  0  0  0
  -23.6293   -8.2231   22.0766 C   0  0  0  0  0  0
  -22.4279   -8.0275   21.3542 C   0  0  0  0  0  0
  -21.9918   -9.0267   20.4659 C   0  0  0  0  0  0
  -22.7257  -10.2133   20.3072 C   0  0  0  0  0  0
  -21.6855   -6.0735   22.5272 C   0  0  0  0  0  0
  -21.4019   -6.5646   23.8203 C   0  0  0  0  0  0
  -21.3656   -5.6794   24.9172 C   0  0  0  0  0  0
  -21.6044   -4.3060   24.7215 C   0  0  0  0  0  0
  -21.8819   -3.8148   23.4345 C   0  0  0  0  0  0
  -21.9193   -4.6966   22.3397 C   0  0  0  0  0  0
  -22.7876  -13.5232   21.1832 C   0  0  0  0  0  0
  -22.1662   -4.2150   21.0976 F   0  0  0  0  0  0
  -21.5625   -3.4542   25.7734 F   0  0  0  0  0  0
  -30.0379  -13.2686   20.4660 N   0  0  0  0  0  0
  -26.3054  -12.9325   20.3415 N   0  0  0  0  0  0
  -25.9332  -11.6484   20.5804 N   0  0  0  0  0  0
  -22.0517  -12.8230   22.0393 N   0  0  0  0  0  0
  -25.4334  -15.1877   20.4105 N   0  0  0  0  0  0
  -31.8304  -14.6214   20.0823 O   0  0  0  0  0  0
  -21.6640   -6.8881   21.4234 O   0  0  0  0  0  0
  -22.3560  -14.5533   20.6675 O   0  0  0  0  0  0
  -24.6115  -31.8727   23.2119 C   0  0  0  0  0  0
  -25.9029  -32.4844   23.8404 C   0  0  1  0  0  0
  -27.2283  -27.4524   20.1013 C   0  0  0  0  0  0
  -25.5901  -33.8637   24.2359 N   0  0  0  0  0  0
  -23.3989  -30.4962   21.5509 C   0  0  2  0  0  0
  -24.8447  -28.9636   20.1177 C   0  0  0  0  0  0
  -22.7397  -29.4685   22.4981 C   0  0  0  0  0  0
  -18.0281  -28.1392   22.8498 C   0  0  0  0  0  0
  -24.1488  -36.7302   23.2647 C   0  0  0  0  0  0
  -25.9283  -30.8344   21.3732 C   0  0  0  0  0  0
  -26.0005  -29.4707   20.7250 C   0  0  0  0  0  0
  -27.1943  -28.7166   20.7277 C   0  0  0  0  0  0
  -26.0616  -26.9626   19.4743 C   0  0  0  0  0  0
  -24.8681  -27.7040   19.4941 C   0  0  0  0  0  0
  -23.6077  -29.8297   20.1655 C   0  0  0  0  0  0
  -25.4111  -36.3132   24.0353 C   0  0  1  0  0  0
  -20.5873  -28.3677   23.1314 C   0  0  2  0  0  0
  -20.6782  -26.9414   22.5421 C   0  0  0  0  0  0
  -19.5765  -26.6394   21.5219 C   0  0  0  0  0  0
  -18.1933  -26.7937   22.1617 C   0  0  0  0  0  0
  -19.1534  -28.8845   23.2914 C   0  0  0  0  0  0
  -18.9448  -30.1449   23.8929 C   0  0  0  0  0  0
  -17.6457  -30.6594   24.0574 C   0  0  0  0  0  0
  -25.9029  -34.9491   23.5154 C   0  0  0  0  0  0
  -16.5349  -29.9104   23.6335 C   0  0  0  0  0  0
  -16.7267  -28.6529   23.0332 C   0  0  0  0  0  0
  -26.4434  -31.6616   25.0728 C   0  0  0  0  0  0
  -25.3695  -31.3765   26.1487 C   0  0  0  0  0  0
  -27.0272  -30.3065   24.6112 C   0  0  0  0  0  0
  -27.6023  -32.4322   25.7475 C   0  0  0  0  0  0
  -27.5590  -37.1806   24.8460 C   0  0  0  0  0  0
  -21.4132  -29.3052   22.3719 N   0  0  0  0  0  0
  -26.4304  -37.3806   23.9405 N   0  0  0  0  0  0
  -24.6639  -31.0815   22.1028 N   0  0  0  0  0  0
  -23.4171  -28.8235   23.3028 O   0  0  0  0  0  0
  -28.3969  -26.7302   20.0699 O   0  0  0  0  0  0
  -26.5581  -34.8936   22.4707 O   0  0  0  0  0  0
  -23.5308  -32.1475   23.7527 O   0  0  0  0  0  0
  -29.0325  -25.2226   21.8787 C   0  0  0  0  0  0
  -27.9394  -23.2166   20.4108 C   0  0  0  0  0  0
  -28.6178  -22.9599   21.6333 C   0  0  0  0  0  0
  -28.4078  -25.4745   20.6349 C   0  0  0  0  0  0
  -25.9537  -22.3058   18.9479 C   0  0  0  0  0  0
  -26.2003  -21.2597   19.9977 C   0  0  0  0  0  0
  -28.9499  -17.6401   21.0472 C   0  0  0  0  0  0
  -29.0229  -16.4587   23.2477 C   0  0  0  0  0  0
  -30.1139  -16.7498   20.5765 C   0  0  0  0  0  0
  -30.1649  -15.5707   22.7095 C   0  0  0  0  0  0
  -27.3425  -22.1469   19.5354 C   0  0  0  0  0  0
  -29.0167  -17.8437   22.5693 C   0  0  0  0  0  0
  -28.8812  -21.5469   22.1405 C   0  0  0  0  0  0
  -27.8957  -18.7684   23.1136 C   0  0  0  0  0  0
  -28.4061  -19.9447   23.9935 C   0  0  0  0  0  0
  -29.1379  -23.9664   22.3838 N   0  0  0  0  0  0
  -27.8625  -24.4713   19.9041 N   0  0  0  0  0  0
  -30.0897  -15.4390   21.2452 N   0  0  0  0  0  0
  -28.1780  -21.2890   23.4102 N   0  3  0  0  0  0
  -31.4643  -12.3809   19.1337 H   0  0  0  0  0  0
  -30.3106  -11.2801   19.8235 H   0  0  0  0  0  0
  -29.7322  -11.7812   17.4352 H   0  0  0  0  0  0
  -29.6664  -13.4915   17.7861 H   0  0  0  0  0  0
  -27.8298  -11.3081   18.8295 H   0  0  0  0  0  0
  -27.3643  -12.6327   17.7967 H   0  0  0  0  0  0
  -27.7163  -14.2541   19.5936 H   0  0  0  0  0  0
  -28.6675  -11.9442   21.3567 H   0  0  0  0  0  0
  -28.4489  -13.5845   21.8770 H   0  0  0  0  0  0
  -25.2773   -9.5653   22.4786 H   0  0  0  0  0  0
  -24.0003   -7.4611   22.7474 H   0  0  0  0  0  0
  -21.0853   -8.8797   19.8958 H   0  0  0  0  0  0
  -22.3739  -10.9685   19.6181 H   0  0  0  0  0  0
  -21.2021   -7.6150   23.9708 H   0  0  0  0  0  0
  -21.1478   -6.0529   25.9070 H   0  0  0  0  0  0
  -22.0606   -2.7609   23.2843 H   0  0  0  0  0  0
  -22.4141  -11.9886   22.4756 H   0  0  0  0  0  0
  -21.1141  -13.1258   22.2602 H   0  0  0  0  0  0
  -24.6709  -15.8459   20.5224 H   0  0  0  0  0  0
  -26.2998  -15.6262   20.1253 H   0  0  0  0  0  0
  -26.7114  -32.5536   23.1174 H   0  0  0  0  0  0
  -25.0069  -33.9815   25.0517 H   0  0  0  0  0  0
  -22.6873  -31.3132   21.4122 H   0  0  0  0  0  0
  -23.3769  -35.9614   23.3329 H   0  0  0  0  0  0
  -24.3593  -36.8896   22.2062 H   0  0  0  0  0  0
  -23.7225  -37.6506   23.6629 H   0  0  0  0  0  0
  -26.0513  -31.5963   20.6041 H   0  0  0  0  0  0
  -26.8130  -30.8807   21.9963 H   0  0  0  0  0  0
  -28.0846  -29.1005   21.2077 H   0  0  0  0  0  0
  -26.0698  -26.0100   18.9655 H   0  0  0  0  0  0
  -23.9825  -27.3059   19.0187 H   0  0  0  0  0  0
  -23.7233  -30.6050   19.4056 H   0  0  0  0  0  0
  -22.7297  -29.2519   19.8722 H   0  0  0  0  0  0
  -25.1307  -36.1994   25.0850 H   0  0  0  0  0  0
  -20.9961  -28.3246   24.1434 H   0  0  0  0  0  0
  -20.5669  -26.2297   23.3613 H   0  0  0  0  0  0
  -21.6647  -26.7442   22.1224 H   0  0  0  0  0  0
  -19.6913  -25.6305   21.1248 H   0  0  0  0  0  0
  -19.6718  -27.3213   20.6757 H   0  0  0  0  0  0
  -17.4218  -26.6703   21.4009 H   0  0  0  0  0  0
  -18.0304  -26.0084   22.9011 H   0  0  0  0  0  0
  -19.7919  -30.7263   24.2299 H   0  0  0  0  0  0
  -17.5014  -31.6269   24.5177 H   0  0  0  0  0  0
  -15.5350  -30.3010   23.7665 H   0  0  0  0  0  0
  -15.8664  -28.0878   22.6993 H   0  0  0  0  0  0
  -24.5805  -30.7185   25.7831 H   0  0  0  0  0  0
  -24.8941  -32.2954   26.4939 H   0  0  0  0  0  0
  -25.8026  -30.8904   27.0242 H   0  0  0  0  0  0
  -26.2841  -29.6848   24.1108 H   0  0  0  0  0  0
  -27.4011  -29.7282   25.4571 H   0  0  0  0  0  0
  -27.8681  -30.4438   23.9314 H   0  0  0  0  0  0
  -27.2657  -33.3610   26.2102 H   0  0  0  0  0  0
  -28.3787  -32.6917   25.0263 H   0  0  0  0  0  0
  -28.0737  -31.8414   26.5349 H   0  0  0  0  0  0
  -28.2618  -38.0091   24.7510 H   0  0  0  0  0  0
  -28.1087  -36.2628   24.6289 H   0  0  0  0  0  0
  -27.2306  -37.1472   25.8864 H   0  0  0  0  0  0
  -20.9263  -29.8807   21.6993 H   0  0  0  0  0  0
  -26.0209  -38.2897   24.1367 H   0  0  0  0  0  0
  -29.4836  -26.0239   22.4456 H   0  0  0  0  0  0
  -25.3550  -23.1620   19.2530 H   0  0  0  0  0  0
  -25.8073  -21.9675   17.9245 H   0  0  0  0  0  0
  -26.1881  -20.2240   19.6592 H   0  0  0  0  0  0
  -25.7515  -21.4376   20.9731 H   0  0  0  0  0  0
  -27.9994  -17.1851   20.7643 H   0  0  0  0  0  0
  -29.0003  -18.5980   20.5276 H   0  0  0  0  0  0
  -29.1274  -16.5749   24.3272 H   0  0  0  0  0  0
  -28.0662  -15.9593   23.0852 H   0  0  0  0  0  0
  -31.0698  -17.2418   20.7681 H   0  0  0  0  0  0
  -30.0426  -16.6253   19.4936 H   0  0  0  0  0  0
  -30.1296  -14.5929   23.1932 H   0  0  0  0  0  0
  -31.1275  -16.0080   22.9819 H   0  0  0  0  0  0
  -28.1106  -21.6778   18.9224 H   0  0  0  0  0  0
  -29.9844  -18.3083   22.7673 H   0  0  0  0  0  0
  -29.9552  -21.4264   22.2816 H   0  0  0  0  0  0
  -28.5979  -20.8114   21.3915 H   0  0  0  0  0  0
  -27.2102  -18.1707   23.7152 H   0  0  0  0  0  0
  -27.2669  -19.1348   22.3015 H   0  0  0  0  0  0
  -29.4640  -19.8367   24.2349 H   0  0  0  0  0  0
  -27.8884  -19.9190   24.9535 H   0  0  0  0  0  0
  -27.1930  -21.4570   23.2983 H   0  0  0  0  0  0
  -28.5199  -21.9807   24.0584 H   0  0  0  0  0  0
  1 25  1  0  0  0
  1 30  2  0  0  0
  1 88  1  0  0  0
  2  3  1  0  0  0
  2 25  1  0  0  0
  2 90  1  0  0  0
  2 91  1  0  0  0
  3  4  1  0  0  0
  3 92  1  0  0  0
  3 93  1  0  0  0
  4  5  1  0  0  0
  4 94  1  0  0  0
  4 95  1  0  0  0
  5  6  1  0  0  0
  5 26  1  0  0  0
  5 96  1  0  0  0
  6 25  1  0  0  0
  6 97  1  0  0  0
  6 98  1  0  0  0
  7  8  2  0  0  0
  7 26  1  0  0  0
  7 29  1  0  0  0
  8  9  1  0  0  0
  8 22  1  0  0  0
  9 10  1  0  0  0
  9 27  2  0  0  0
 10 11  2  0  0  0
 10 15  1  0  0  0
 11 12  1  0  0  0
 11 99  1  0  0  0
 12 13  2  0  0  0
 12100  1  0  0  0
 13 14  1  0  0  0
 13 31  1  0  0  0
 14 15  2  0  0  0
 14101  1  0  0  0
 15102  1  0  0  0
 16 17  2  0  0  0
 16 21  1  0  0  0
 16 31  1  0  0  0
 17 18  1  0  0  0
 17103  1  0  0  0
 18 19  2  0  0  0
 18104  1  0  0  0
 19 20  1  0  0  0
 19 24  1  0  0  0
 20 21  2  0  0  0
 20105  1  0  0  0
 21 23  1  0  0  0
 22 28  1  0  0  0
 22 32  2  0  0  0
 26 27  1  0  0  0
 28106  1  0  0  0
 28107  1  0  0  0
 29108  1  0  0  0
 29109  1  0  0  0
 33 34  1  0  0  0
 33 66  1  0  0  0
 33 70  2  0  0  0
 34 36  1  0  0  0
 34 59  1  0  0  0
 34110  1  0  0  0
 35 44  2  0  0  0
 35 45  1  0  0  0
 35 68  1  0  0  0
 36 56  1  0  0  0
 36111  1  0  0  0
 37 39  1  0  0  0
 37 47  1  0  0  0
 37 66  1  0  0  0
 37112  1  0  0  0
 38 43  2  0  0  0
 38 46  1  0  0  0
 38 47  1  0  0  0
 39 64  1  0  0  0
 39 67  2  0  0  0
 40 52  1  0  0  0
 40 53  2  0  0  0
 40 58  1  0  0  0
 41113  1  0  0  0
 41114  1  0  0  0
 41115  1  0  0  0
 41 48  1  0  0  0
 42 43  1  0  0  0
 42 66  1  0  0  0
 42116  1  0  0  0
 42117  1  0  0  0
 43 44  1  0  0  0
 44118  1  0  0  0
 45 46  2  0  0  0
 45119  1  0  0  0
 46120  1  0  0  0
 47121  1  0  0  0
 47122  1  0  0  0
 48 56  1  0  0  0
 48 65  1  0  0  0
 48123  1  0  0  0
 49 50  1  0  0  0
 49 53  1  0  0  0
 49 64  1  0  0  0
 49124  1  0  0  0
 50 51  1  0  0  0
 50125  1  0  0  0
 50126  1  0  0  0
 51 52  1  0  0  0
 51127  1  0  0  0
 51128  1  0  0  0
 52129  1  0  0  0
 52130  1  0  0  0
 53 54  1  0  0  0
 54 55  2  0  0  0
 54131  1  0  0  0
 55 57  1  0  0  0
 55132  1  0  0  0
 56 69  2  0  0  0
 57 58  2  0  0  0
 57133  1  0  0  0
 58134  1  0  0  0
 59 60  1  0  0  0
 59 61  1  0  0  0
 59 62  1  0  0  0
 60135  1  0  0  0
 60136  1  0  0  0
 60137  1  0  0  0
 61138  1  0  0  0
 61139  1  0  0  0
 61140  1  0  0  0
 62141  1  0  0  0
 62142  1  0  0  0
 62143  1  0  0  0
 63 65  1  0  0  0
 63144  1  0  0  0
 63145  1  0  0  0
 63146  1  0  0  0
 64147  1  0  0  0
 65148  1  0  0  0
 68 74  1  0  0  0
 71 74  2  0  0  0
 71 86  1  0  0  0
 71149  1  0  0  0
 72 73  1  0  0  0
 72 87  2  0  0  0
 72 81  1  0  0  0
 73 83  1  0  0  0
 73 86  2  0  0  0
 74 87  1  0  0  0
 75 76  1  0  0  0
 75 81  1  0  0  0
 75150  1  0  0  0
 75151  1  0  0  0
 76 81  1  0  0  0
 76152  1  0  0  0
 76153  1  0  0  0
 77 79  1  0  0  0
 77 82  1  0  0  0
 77154  1  0  0  0
 77155  1  0  0  0
 78 80  1  0  0  0
 78 82  1  0  0  0
 78156  1  0  0  0
 78157  1  0  0  0
 79 88  1  0  0  0
 79158  1  0  0  0
 79159  1  0  0  0
 80 88  1  0  0  0
 80160  1  0  0  0
 80161  1  0  0  0
 81162  1  0  0  0
 82 84  1  0  0  0
 82163  1  0  0  0
 83 89  1  0  0  0
 83164  1  0  0  0
 83165  1  0  0  0
 84 85  1  0  0  0
 84166  1  0  0  0
 84167  1  0  0  0
 85 89  1  0  0  0
 85168  1  0  0  0
 85169  1  0  0  0
 89170  1  0  0  0
 89171  1  0  0  0
M  CHG  1  89   1
M  ISO  4   1 100  68 101  74 101  88 100
M  END
> <chiral flag>
0

> <version>
0

> <s_m_source_file>
/data/baiqing/PycharmProjects/Reinvent-master-3.2/result/LINK_invent/BTK/process_docking_weight1_custom_sum_contain_oxygen_bond_distance_aromatic_linkinvent_7_9_3/rearranged_h_0198.sdf

> <i_m_source_file_index>
68

> <r_mmod_Potential_Energy-OPLS-2005>
61.5866203308105

> <r_mmod_Stretch_Energy-OPLS-2005>
38.2255516052246

> <r_mmod_Bend_Energy-OPLS-2005>
97.9468231201172

> <r_mmod_Torsional_Energy-OPLS-2005>
373.395050048828

> <r_mmod_Improper_Torsional_Energy-OPLS-2005>
9.09786319732666

> <r_mmod_Van_der_Waal_Energy-OPLS-2005>
154.456756591797

> <r_mmod_Electrostatic_Energy-OPLS-2005>
-163.387069702148

> <r_mmod_Solvation_Energy-OPLS-2005>
-457.327423095703

> <b_mmod_Minimization_Converged-OPLS-2005>
0

> <r_mmod_RMS_Derivative-OPLS-2005>
3.25367593765259

$$$$
68
                    3D
 Structure written by MMmdl.
170180  0  0  1  0            999 V2000
  -30.7564  -14.4531   20.5878 C   0  0  0  0  0  0
  -30.4232  -12.3036   19.4259 C   0  0  0  0  0  0
  -29.5004  -12.5110   18.2084 C   0  0  0  0  0  0
  -28.0189  -12.3691   18.6160 C   0  0  0  0  0  0
  -27.6579  -13.1982   19.8758 C   0  0  2  0  0  0
  -28.7098  -13.0165   20.9969 C   0  0  0  0  0  0
  -25.2610  -13.8103   20.5731 C   0  0  0  0  0  0
  -24.1847  -13.0405   20.9192 C   0  0  0  0  0  0
  -24.6384  -11.6868   20.8741 C   0  0  0  0  0  0
  -23.9039  -10.4283   21.0419 C   0  0  0  0  0  0
  -24.3596   -9.4213   21.9192 C   0  0  0  0  0  0
  -23.6284   -8.2248   22.0752 C   0  0  0  0  0  0
  -22.4266   -8.0291   21.3550 C   0  0  0  0  0  0
  -21.9897   -9.0262   20.4651 C   0  0  0  0  0  0
  -22.7216  -10.2140   20.3058 C   0  0  0  0  0  0
  -21.6855   -6.0745   22.5276 C   0  0  0  0  0  0
  -21.4015   -6.5639   23.8215 C   0  0  0  0  0  0
  -21.3647   -5.6782   24.9172 C   0  0  0  0  0  0
  -21.6039   -4.3047   24.7213 C   0  0  0  0  0  0
  -21.8826   -3.8149   23.4329 C   0  0  0  0  0  0
  -21.9198   -4.6977   22.3392 C   0  0  0  0  0  0
  -22.7875  -13.5241   21.1824 C   0  0  0  0  0  0
  -22.1674   -4.2166   21.0967 F   0  0  0  0  0  0
  -21.5612   -3.4523   25.7720 F   0  0  0  0  0  0
  -30.0427  -13.3006   20.4358 N   0  0  0  0  0  0
  -26.3019  -12.9245   20.3395 N   0  0  0  0  0  0
  -25.9302  -11.6419   20.5763 N   0  0  0  0  0  0
  -22.0485  -12.8273   22.0378 N   0  0  0  0  0  0
  -25.4325  -15.1830   20.4184 N   0  0  0  0  0  0
  -31.9054  -14.5920   20.1622 O   0  0  0  0  0  0
  -21.6631   -6.8891   21.4244 O   0  0  0  0  0  0
  -22.3607  -14.5563   20.6660 O   0  0  0  0  0  0
  -24.6103  -31.8700   23.2131 C   0  0  0  0  0  0
  -25.9009  -32.4835   23.8411 C   0  0  1  0  0  0
  -27.2369  -27.4656   20.0788 C   0  0  0  0  0  0
  -25.5886  -33.8636   24.2349 N   0  0  0  0  0  0
  -23.3966  -30.4944   21.5523 C   0  0  2  0  0  0
  -24.8411  -28.9584   20.1172 C   0  0  0  0  0  0
  -22.7384  -29.4675   22.5011 C   0  0  0  0  0  0
  -18.0262  -28.1371   22.8495 C   0  0  0  0  0  0
  -24.1484  -36.7311   23.2637 C   0  0  0  0  0  0
  -25.9215  -30.8408   21.3619 C   0  0  0  0  0  0
  -25.9979  -29.4743   20.7163 C   0  0  0  0  0  0
  -27.1936  -28.7267   20.7081 C   0  0  0  0  0  0
  -26.0596  -26.9477   19.4927 C   0  0  0  0  0  0
  -24.8646  -27.6907   19.5100 C   0  0  0  0  0  0
  -23.6025  -29.8231   20.1674 C   0  0  0  0  0  0
  -25.4097  -36.3120   24.0349 C   0  0  1  0  0  0
  -20.5846  -28.3649   23.1338 C   0  0  2  0  0  0
  -20.6749  -26.9399   22.5421 C   0  0  0  0  0  0
  -19.5733  -26.6396   21.5205 C   0  0  0  0  0  0
  -18.1912  -26.7929   22.1614 C   0  0  0  0  0  0
  -19.1511  -28.8826   23.2914 C   0  0  0  0  0  0
  -18.9440  -30.1430   23.8919 C   0  0  0  0  0  0
  -17.6445  -30.6585   24.0565 C   0  0  0  0  0  0
  -25.9026  -34.9483   23.5144 C   0  0  0  0  0  0
  -16.5337  -29.9091   23.6330 C   0  0  0  0  0  0
  -16.7256  -28.6506   23.0355 C   0  0  0  0  0  0
  -26.4464  -31.6602   25.0720 C   0  0  0  0  0  0
  -25.3750  -31.3701   26.1484 C   0  0  0  0  0  0
  -27.0268  -30.3049   24.6057 C   0  0  0  0  0  0
  -27.6067  -32.4302   25.7455 C   0  0  0  0  0  0
  -27.5594  -37.1783   24.8456 C   0  0  0  0  0  0
  -21.4112  -29.3020   22.3750 N   0  0  0  0  0  0
  -26.4281  -37.3806   23.9442 N   0  0  0  0  0  0
  -24.6610  -31.0829   22.1008 N   0  0  0  0  0  0
  -23.4175  -28.8212   23.3036 O   0  0  0  0  0  0
  -28.4209  -26.7671   20.0693 O   0  0  0  0  0  0
  -26.5586  -34.8933   22.4703 O   0  0  0  0  0  0
  -23.5305  -32.1439   23.7545 O   0  0  0  0  0  0
  -28.2458  -23.8036   18.1020 C   0  0  0  0  0  0
  -28.6594  -22.5581   18.4881 C   0  0  0  0  0  0
  -29.4012  -22.7930   19.6868 C   0  0  0  0  0  0
  -29.5856  -20.4763   17.1926 C   0  0  0  0  0  0
  -28.6637  -21.2164   16.2558 C   0  0  0  0  0  0
  -29.2431  -16.2574   20.1376 C   0  0  0  0  0  0
  -30.7362  -16.3870   22.0992 C   0  0  0  0  0  0
  -29.8137  -17.6429   19.8007 C   0  0  0  0  0  0
  -30.0519  -17.7726   22.2659 C   0  0  0  0  0  0
  -28.4270  -21.2721   17.7467 C   0  0  0  0  0  0
  -30.1895  -21.8167   20.5407 C   0  0  0  0  0  0
  -29.3603  -20.9738   21.5432 C   0  0  0  0  0  0
  -28.8659  -19.6019   21.0206 C   0  0  0  0  0  0
  -28.7920  -26.1647   18.8612 C   0  0  0  0  0  0
  -29.4395  -24.0874   19.9897 N   0  0  0  0  0  0
  -28.7716  -24.7131   18.9882 N   0  0  0  0  0  0
  -30.0901  -15.5201   21.0881 N   0  0  0  0  0  0
  -29.9170  -18.5339   20.9872 N   0  3  0  0  0  0
  -31.4706  -12.3852   19.1275 H   0  0  0  0  0  0
  -30.3086  -11.2957   19.8311 H   0  0  0  0  0  0
  -29.7445  -11.7969   17.4208 H   0  0  0  0  0  0
  -29.6742  -13.5024   17.7838 H   0  0  0  0  0  0
  -27.8208  -11.3124   18.7970 H   0  0  0  0  0  0
  -27.3778  -12.6639   17.7852 H   0  0  0  0  0  0
  -27.6662  -14.2342   19.5576 H   0  0  0  0  0  0
  -28.6868  -11.9937   21.3790 H   0  0  0  0  0  0
  -28.4810  -13.6567   21.8519 H   0  0  0  0  0  0
  -25.2754   -9.5710   22.4751 H   0  0  0  0  0  0
  -24.0020   -7.4640   22.7453 H   0  0  0  0  0  0
  -21.0837   -8.8781   19.8958 H   0  0  0  0  0  0
  -22.3689  -10.9678   19.6160 H   0  0  0  0  0  0
  -21.2016   -7.6152   23.9723 H   0  0  0  0  0  0
  -21.1450   -6.0506   25.9074 H   0  0  0  0  0  0
  -22.0617   -2.7620   23.2803 H   0  0  0  0  0  0
  -22.4065  -11.9937   22.4797 H   0  0  0  0  0  0
  -21.1111  -13.1345   22.2518 H   0  0  0  0  0  0
  -24.6664  -15.8358   20.5378 H   0  0  0  0  0  0
  -26.2805  -15.6244   20.0896 H   0  0  0  0  0  0
  -26.7074  -32.5568   23.1175 H   0  0  0  0  0  0
  -25.0057  -33.9804   25.0506 H   0  0  0  0  0  0
  -22.6845  -31.3104   21.4143 H   0  0  0  0  0  0
  -23.3765  -35.9623   23.3281 H   0  0  0  0  0  0
  -24.3588  -36.8931   22.2055 H   0  0  0  0  0  0
  -23.7210  -37.6504   23.6648 H   0  0  0  0  0  0
  -26.0261  -31.6035   20.5880 H   0  0  0  0  0  0
  -26.8128  -30.8999   21.9752 H   0  0  0  0  0  0
  -28.0889  -29.1233   21.1665 H   0  0  0  0  0  0
  -26.0597  -25.9718   19.0295 H   0  0  0  0  0  0
  -23.9706  -27.2828   19.0574 H   0  0  0  0  0  0
  -23.7078  -30.5940   19.4034 H   0  0  0  0  0  0
  -22.7272  -29.2388   19.8787 H   0  0  0  0  0  0
  -25.1257  -36.1981   25.0836 H   0  0  0  0  0  0
  -20.9941  -28.3198   24.1456 H   0  0  0  0  0  0
  -20.5638  -26.2259   23.3594 H   0  0  0  0  0  0
  -21.6622  -26.7436   22.1225 H   0  0  0  0  0  0
  -19.6897  -25.6312   21.1226 H   0  0  0  0  0  0
  -19.6679  -27.3218   20.6747 H   0  0  0  0  0  0
  -17.4184  -26.6691   21.4007 H   0  0  0  0  0  0
  -18.0298  -26.0059   22.8997 H   0  0  0  0  0  0
  -19.7918  -30.7236   24.2310 H   0  0  0  0  0  0
  -17.5009  -31.6269   24.5163 H   0  0  0  0  0  0
  -15.5340  -30.2998   23.7638 H   0  0  0  0  0  0
  -15.8655  -28.0832   22.7059 H   0  0  0  0  0  0
  -24.5926  -30.7034   25.7843 H   0  0  0  0  0  0
  -24.8928  -32.2848   26.4940 H   0  0  0  0  0  0
  -25.8125  -30.8886   27.0239 H   0  0  0  0  0  0
  -26.2773  -29.6822   24.1157 H   0  0  0  0  0  0
  -27.4099  -29.7277   25.4485 H   0  0  0  0  0  0
  -27.8594  -30.4382   23.9142 H   0  0  0  0  0  0
  -27.2719  -33.3599   26.2070 H   0  0  0  0  0  0
  -28.3839  -32.6859   25.0242 H   0  0  0  0  0  0
  -28.0776  -31.8396   26.5324 H   0  0  0  0  0  0
  -28.2569  -38.0127   24.7579 H   0  0  0  0  0  0
  -28.1123  -36.2658   24.6160 H   0  0  0  0  0  0
  -27.2337  -37.1301   25.8863 H   0  0  0  0  0  0
  -20.9267  -29.8752   21.6985 H   0  0  0  0  0  0
  -26.0172  -38.2875   24.1488 H   0  0  0  0  0  0
  -27.6870  -24.1176   17.2294 H   0  0  0  0  0  0
  -30.5888  -20.8740   17.3319 H   0  0  0  0  0  0
  -29.5102  -19.3925   17.1879 H   0  0  0  0  0  0
  -27.9647  -20.6300   15.6635 H   0  0  0  0  0  0
  -29.0616  -22.1021   15.7639 H   0  0  0  0  0  0
  -29.1510  -15.7235   19.1902 H   0  0  0  0  0  0
  -28.2383  -16.3450   20.5501 H   0  0  0  0  0  0
  -30.7370  -15.8647   23.0574 H   0  0  0  0  0  0
  -31.7865  -16.5455   21.8468 H   0  0  0  0  0  0
  -29.2306  -18.0825   18.9961 H   0  0  0  0  0  0
  -30.8170  -17.5180   19.3903 H   0  0  0  0  0  0
  -30.5898  -18.3789   22.9956 H   0  0  0  0  0  0
  -29.0627  -17.5984   22.6913 H   0  0  0  0  0  0
  -27.5615  -20.7256   18.1163 H   0  0  0  0  0  0
  -30.9119  -22.3879   21.1267 H   0  0  0  0  0  0
  -30.7969  -21.1746   19.9043 H   0  0  0  0  0  0
  -28.5094  -21.5685   21.8793 H   0  0  0  0  0  0
  -29.9542  -20.8046   22.4406 H   0  0  0  0  0  0
  -28.4344  -19.7640   20.0366 H   0  0  0  0  0  0
  -28.0261  -19.2585   21.6254 H   0  0  0  0  0  0
  -28.1761  -26.4662   18.0101 H   0  0  0  0  0  0
  -29.8151  -26.4631   18.6303 H   0  0  0  0  0  0
  -30.7943  -19.0134   20.8511 H   0  0  0  0  0  0
  1 25  1  0  0  0
  1 30  2  0  0  0
  1 87  1  0  0  0
  2  3  1  0  0  0
  2 25  1  0  0  0
  2 89  1  0  0  0
  2 90  1  0  0  0
  3  4  1  0  0  0
  3 91  1  0  0  0
  3 92  1  0  0  0
  4  5  1  0  0  0
  4 93  1  0  0  0
  4 94  1  0  0  0
  5  6  1  0  0  0
  5 26  1  0  0  0
  5 95  1  0  0  0
  6 25  1  0  0  0
  6 96  1  0  0  0
  6 97  1  0  0  0
  7  8  2  0  0  0
  7 26  1  0  0  0
  7 29  1  0  0  0
  8  9  1  0  0  0
  8 22  1  0  0  0
  9 10  1  0  0  0
  9 27  2  0  0  0
 10 11  2  0  0  0
 10 15  1  0  0  0
 11 12  1  0  0  0
 11 98  1  0  0  0
 12 13  2  0  0  0
 12 99  1  0  0  0
 13 14  1  0  0  0
 13 31  1  0  0  0
 14 15  2  0  0  0
 14100  1  0  0  0
 15101  1  0  0  0
 16 17  2  0  0  0
 16 21  1  0  0  0
 16 31  1  0  0  0
 17 18  1  0  0  0
 17102  1  0  0  0
 18 19  2  0  0  0
 18103  1  0  0  0
 19 20  1  0  0  0
 19 24  1  0  0  0
 20 21  2  0  0  0
 20104  1  0  0  0
 21 23  1  0  0  0
 22 28  1  0  0  0
 22 32  2  0  0  0
 26 27  1  0  0  0
 28105  1  0  0  0
 28106  1  0  0  0
 29107  1  0  0  0
 29108  1  0  0  0
 33 34  1  0  0  0
 33 66  1  0  0  0
 33 70  2  0  0  0
 34 36  1  0  0  0
 34 59  1  0  0  0
 34109  1  0  0  0
 35 44  2  0  0  0
 35 45  1  0  0  0
 35 68  1  0  0  0
 36 56  1  0  0  0
 36110  1  0  0  0
 37 39  1  0  0  0
 37 47  1  0  0  0
 37 66  1  0  0  0
 37111  1  0  0  0
 38 43  2  0  0  0
 38 46  1  0  0  0
 38 47  1  0  0  0
 39 64  1  0  0  0
 39 67  2  0  0  0
 40 52  1  0  0  0
 40 53  2  0  0  0
 40 58  1  0  0  0
 41112  1  0  0  0
 41113  1  0  0  0
 41114  1  0  0  0
 41 48  1  0  0  0
 42 43  1  0  0  0
 42 66  1  0  0  0
 42115  1  0  0  0
 42116  1  0  0  0
 43 44  1  0  0  0
 44117  1  0  0  0
 45 46  2  0  0  0
 45118  1  0  0  0
 46119  1  0  0  0
 47120  1  0  0  0
 47121  1  0  0  0
 48 56  1  0  0  0
 48 65  1  0  0  0
 48122  1  0  0  0
 49 50  1  0  0  0
 49 53  1  0  0  0
 49 64  1  0  0  0
 49123  1  0  0  0
 50 51  1  0  0  0
 50124  1  0  0  0
 50125  1  0  0  0
 51 52  1  0  0  0
 51126  1  0  0  0
 51127  1  0  0  0
 52128  1  0  0  0
 52129  1  0  0  0
 53 54  1  0  0  0
 54 55  2  0  0  0
 54130  1  0  0  0
 55 57  1  0  0  0
 55131  1  0  0  0
 56 69  2  0  0  0
 57 58  2  0  0  0
 57132  1  0  0  0
 58133  1  0  0  0
 59 60  1  0  0  0
 59 61  1  0  0  0
 59 62  1  0  0  0
 60134  1  0  0  0
 60135  1  0  0  0
 60136  1  0  0  0
 61137  1  0  0  0
 61138  1  0  0  0
 61139  1  0  0  0
 62140  1  0  0  0
 62141  1  0  0  0
 62142  1  0  0  0
 63 65  1  0  0  0
 63143  1  0  0  0
 63144  1  0  0  0
 63145  1  0  0  0
 64146  1  0  0  0
 65147  1  0  0  0
 68 84  1  0  0  0
 71 72  2  0  0  0
 71 86  1  0  0  0
 71148  1  0  0  0
 72 73  1  0  0  0
 72 80  1  0  0  0
 73 81  1  0  0  0
 73 85  2  0  0  0
 74 75  1  0  0  0
 74 80  1  0  0  0
 74149  1  0  0  0
 74150  1  0  0  0
 75 80  1  0  0  0
 75151  1  0  0  0
 75152  1  0  0  0
 76 78  1  0  0  0
 76 87  1  0  0  0
 76153  1  0  0  0
 76154  1  0  0  0
 77 79  1  0  0  0
 77 87  1  0  0  0
 77155  1  0  0  0
 77156  1  0  0  0
 78 88  1  0  0  0
 78157  1  0  0  0
 78158  1  0  0  0
 79 88  1  0  0  0
 79159  1  0  0  0
 79160  1  0  0  0
 80161  1  0  0  0
 81 82  1  0  0  0
 81162  1  0  0  0
 81163  1  0  0  0
 82 83  1  0  0  0
 82164  1  0  0  0
 82165  1  0  0  0
 83166  1  0  0  0
 83167  1  0  0  0
 83 88  1  0  0  0
 84 86  1  0  0  0
 84168  1  0  0  0
 84169  1  0  0  0
 85 86  1  0  0  0
 88170  1  0  0  0
M  CHG  1  88   1
M  ISO  4   1 100  68 101  84 101  87 100
M  END
> <chiral flag>
0

> <version>
0

> <s_m_source_file>
/data/baiqing/PycharmProjects/Reinvent-master-3.2/result/LINK_invent/BTK/process_docking_weight1_custom_sum_contain_oxygen_bond_distance_aromatic_linkinvent_7_9_3/rearranged_h_0198.sdf

> <i_m_source_file_index>
69

> <r_mmod_Potential_Energy-OPLS-2005>
57.9259071350098

> <r_mmod_Stretch_Energy-OPLS-2005>
37.5940856933594

> <r_mmod_Bend_Energy-OPLS-2005>
104.780632019043

> <r_mmod_Torsional_Energy-OPLS-2005>
445.075805664062

> <r_mmod_Improper_Torsional_Energy-OPLS-2005>
7.25564765930176

> <r_mmod_Van_der_Waal_Energy-OPLS-2005>
134.336868286133

> <r_mmod_Electrostatic_Energy-OPLS-2005>
-221.305267333984

> <r_mmod_Solvation_Energy-OPLS-2005>
-463.233367919922

> <b_mmod_Minimization_Converged-OPLS-2005>
0

> <r_mmod_RMS_Derivative-OPLS-2005>
2.68192362785339

$$$$
69
                    3D
 Structure written by MMmdl.
160169  0  0  1  0            999 V2000
  -29.9123  -15.8292   20.8604 C   0  0  0  0  0  0
  -30.3590  -13.3213   19.7359 C   0  0  0  0  0  0
  -29.5782  -12.8014   18.4696 C   0  0  0  0  0  0
  -28.1597  -12.3390   18.8278 C   0  0  0  0  0  0
  -27.5645  -13.3062   19.8685 C   0  0  2  0  0  0
  -28.4752  -13.5925   21.0790 C   0  0  0  0  0  0
  -25.2048  -13.8237   20.5703 C   0  0  0  0  0  0
  -24.1489  -13.0392   20.9232 C   0  0  0  0  0  0
  -24.6217  -11.6897   20.8744 C   0  0  0  0  0  0
  -23.8983  -10.4257   21.0403 C   0  0  0  0  0  0
  -24.3571   -9.4201   21.9172 C   0  0  0  0  0  0
  -23.6271   -8.2237   22.0755 C   0  0  0  0  0  0
  -22.4255   -8.0251   21.3556 C   0  0  0  0  0  0
  -21.9863   -9.0199   20.4651 C   0  0  0  0  0  0
  -22.7170  -10.2081   20.3048 C   0  0  0  0  0  0
  -21.6842   -6.0708   22.5281 C   0  0  0  0  0  0
  -21.4012   -6.5624   23.8206 C   0  0  0  0  0  0
  -21.3664   -5.6785   24.9174 C   0  0  0  0  0  0
  -21.6033   -4.3041   24.7233 C   0  0  0  0  0  0
  -21.8826   -3.8130   23.4357 C   0  0  0  0  0  0
  -21.9198   -4.6943   22.3411 C   0  0  0  0  0  0
  -22.7549  -13.5164   21.1926 C   0  0  0  0  0  0
  -22.1662   -4.2127   21.0990 F   0  0  0  0  0  0
  -21.5630   -3.4527   25.7751 F   0  0  0  0  0  0
  -29.5898  -14.3980   20.5801 N   0  0  0  0  0  0
  -26.2412  -12.9521   20.3127 N   0  0  0  0  0  0
  -25.9119  -11.6603   20.5596 N   0  0  0  0  0  0
  -22.0228  -12.8158   22.0486 N   0  0  0  0  0  0
  -25.3754  -15.1993   20.4270 N   0  0  0  0  0  0
  -31.1333  -15.8921   20.5471 O   0  0  0  0  0  0
  -21.6636   -6.8842   21.4241 O   0  0  0  0  0  0
  -22.3274  -14.5495   20.6774 O   0  0  0  0  0  0
  -25.3527  -31.4068   23.1675 C   0  0  0  0  0  0
  -26.3768  -32.3416   23.8415 C   0  0  1  0  0  0
  -26.1036  -29.5617   19.2991 C   0  0  0  0  0  0
  -25.8376  -33.7318   24.1587 N   0  0  0  0  0  0
  -24.4142  -28.5152   21.9376 C   0  0  2  0  0  0
  -25.5995  -27.6699   20.4977 C   0  0  0  0  0  0
  -22.7649  -28.0876   22.1321 C   0  0  0  0  0  0
  -17.9299  -28.1726   22.7735 C   0  0  0  0  0  0
  -24.1608  -36.6391   23.2642 C   0  0  0  0  0  0
  -26.7902  -29.6818   22.0665 C   0  0  0  0  0  0
  -26.6887  -28.6121   20.9604 C   0  0  0  0  0  0
  -27.2907  -29.2035   19.9206 C   0  0  0  0  0  0
  -25.8237  -28.3619   18.5195 C   0  0  0  0  0  0
  -25.6170  -27.2093   19.2172 C   0  0  0  0  0  0
  -24.1783  -28.1055   20.5644 C   0  0  0  0  0  0
  -25.4380  -36.2095   24.0110 C   0  0  1  0  0  0
  -20.4781  -28.1520   22.9562 C   0  0  2  0  0  0
  -20.2795  -26.6579   22.5414 C   0  0  0  0  0  0
  -19.2886  -26.5389   21.4324 C   0  0  0  0  0  0
  -17.9490  -26.8304   22.0622 C   0  0  0  0  0  0
  -19.1220  -28.8546   23.1450 C   0  0  0  0  0  0
  -19.0058  -30.1067   23.7914 C   0  0  0  0  0  0
  -17.7337  -30.6661   24.0392 C   0  0  0  0  0  0
  -25.9947  -34.8658   23.4526 C   0  0  0  0  0  0
  -16.5663  -29.9747   23.6714 C   0  0  0  0  0  0
  -16.6692  -28.7237   23.0458 C   0  0  0  0  0  0
  -26.6873  -31.6696   25.2188 C   0  0  0  0  0  0
  -25.4787  -31.4723   26.1903 C   0  0  0  0  0  0
  -27.3613  -30.3005   25.0394 C   0  0  0  0  0  0
  -27.7386  -32.5453   25.9136 C   0  0  0  0  0  0
  -27.5566  -37.1546   24.8487 C   0  0  0  0  0  0
  -21.5431  -28.7458   22.0895 N   0  0  0  0  0  0
  -26.4150  -37.3250   23.9540 N   0  0  0  0  0  0
  -25.5362  -29.9762   22.5576 N   0  0  0  0  0  0
  -22.8047  -27.2318   22.9538 O   0  0  0  0  0  0
  -25.1453  -30.3280   20.2769 O   0  0  0  0  0  0
  -26.6207  -34.8740   22.3947 O   0  0  0  0  0  0
  -24.2511  -32.0179   23.3888 O   0  0  0  0  0  0
  -26.6994  -23.5732   24.1599 C   0  0  0  0  0  0
  -27.8534  -19.8053   23.0454 C   0  0  0  0  0  0
  -27.7410  -20.2672   21.2389 C   0  0  0  0  0  0
  -26.1450  -24.7362   23.3113 C   0  0  1  0  0  0
  -28.7381  -18.9248   21.7978 C   0  0  2  0  0  0
  -26.4128  -22.7289   22.9184 C   0  0  1  0  0  0
  -24.9865  -26.2207   24.1547 C   0  0  0  0  0  0
  -23.5601  -29.6303   23.8283 C   0  0  0  0  0  0
  -23.5551  -30.5773   21.4875 C   0  0  0  0  0  0
  -28.9727  -17.0911   21.3347 N   0  0  0  0  0  0
  -27.6358  -21.3604   22.4921 N   0  3  1  0  0  0
  -24.6165  -28.0887   24.4294 N   0  3  0  0  0  0
  -31.3060  -13.7377   19.3916 H   0  0  0  0  0  0
  -30.6467  -12.4828   20.3735 H   0  0  0  0  0  0
  -30.1296  -11.9986   17.9779 H   0  0  0  0  0  0
  -29.5103  -13.6159   17.7475 H   0  0  0  0  0  0
  -28.2135  -11.3350   19.2493 H   0  0  0  0  0  0
  -27.5317  -12.2747   17.9385 H   0  0  0  0  0  0
  -27.4526  -14.2442   19.3219 H   0  0  0  0  0  0
  -28.7920  -12.6816   21.5859 H   0  0  0  0  0  0
  -27.9380  -14.1852   21.8230 H   0  0  0  0  0  0
  -25.2701   -9.5706   22.4746 H   0  0  0  0  0  0
  -23.9980   -7.4634   22.7477 H   0  0  0  0  0  0
  -21.0787   -8.8701   19.8960 H   0  0  0  0  0  0
  -22.3603  -10.9616   19.6163 H   0  0  0  0  0  0
  -21.2004   -7.6126   23.9708 H   0  0  0  0  0  0
  -21.1476   -6.0508   25.9071 H   0  0  0  0  0  0
  -22.0608   -2.7594   23.2864 H   0  0  0  0  0  0
  -22.3851  -11.9827   22.4876 H   0  0  0  0  0  0
  -21.0850  -13.1186   22.2712 H   0  0  0  0  0  0
  -24.5992  -15.8441   20.5232 H   0  0  0  0  0  0
  -26.1981  -15.6265   20.0233 H   0  0  0  0  0  0
  -27.2746  -32.4159   23.2250 H   0  0  0  0  0  0
  -25.2484  -33.7830   24.9755 H   0  0  0  0  0  0
  -24.8611  -27.6258   22.3631 H   0  0  0  0  0  0
  -23.4130  -35.8448   23.2811 H   0  0  0  0  0  0
  -24.3629  -36.8698   22.2179 H   0  0  0  0  0  0
  -23.7071  -37.5185   23.7195 H   0  0  0  0  0  0
  -27.3373  -30.5993   21.8345 H   0  0  0  0  0  0
  -27.3851  -29.1511   22.7988 H   0  0  0  0  0  0
  -28.0289  -29.9793   20.0706 H   0  0  0  0  0  0
  -25.4659  -28.4430   17.4999 H   0  0  0  0  0  0
  -25.0079  -26.4224   18.7891 H   0  0  0  0  0  0
  -23.7135  -28.7456   19.8058 H   0  0  0  0  0  0
  -23.6747  -27.1356   20.3767 H   0  0  0  0  0  0
  -25.1619  -36.0500   25.0544 H   0  0  0  0  0  0
  -20.8505  -28.1339   23.9848 H   0  0  0  0  0  0
  -19.9268  -26.0990   23.4088 H   0  0  0  0  0  0
  -21.1094  -26.0555   22.1839 H   0  0  0  0  0  0
  -19.2873  -25.5338   21.0075 H   0  0  0  0  0  0
  -19.5111  -27.2333   20.6213 H   0  0  0  0  0  0
  -17.1791  -26.8105   21.2884 H   0  0  0  0  0  0
  -17.6792  -26.0520   22.7801 H   0  0  0  0  0  0
  -19.8938  -30.6370   24.1062 H   0  0  0  0  0  0
  -17.6530  -31.6270   24.5275 H   0  0  0  0  0  0
  -15.5966  -30.4013   23.8777 H   0  0  0  0  0  0
  -15.7691  -28.1919   22.7638 H   0  0  0  0  0  0
  -25.1145  -30.4460   26.2149 H   0  0  0  0  0  0
  -24.6376  -32.1295   25.9675 H   0  0  0  0  0  0
  -25.7626  -31.6880   27.2213 H   0  0  0  0  0  0
  -26.6929  -29.4972   24.7679 H   0  0  0  0  0  0
  -27.7739  -29.9670   25.9943 H   0  0  0  0  0  0
  -28.2120  -30.3510   24.3603 H   0  0  0  0  0  0
  -27.3452  -33.5163   26.2184 H   0  0  0  0  0  0
  -28.5938  -32.7319   25.2617 H   0  0  0  0  0  0
  -28.1255  -32.0785   26.8202 H   0  0  0  0  0  0
  -28.2178  -38.0194   24.7790 H   0  0  0  0  0  0
  -28.1457  -36.2725   24.5964 H   0  0  0  0  0  0
  -27.2339  -37.0640   25.8867 H   0  0  0  0  0  0
  -21.3760  -29.6058   21.5903 H   0  0  0  0  0  0
  -25.9670  -38.2074   24.1805 H   0  0  0  0  0  0
  -26.0960  -23.2962   25.0237 H   0  0  0  0  0  0
  -27.7466  -23.6785   24.4367 H   0  0  0  0  0  0
  -28.4055  -19.8229   23.9851 H   0  0  0  0  0  0
  -26.8880  -19.3399   23.2675 H   0  0  0  0  0  0
  -26.7458  -19.9352   20.9305 H   0  0  0  0  0  0
  -28.1909  -20.7497   20.3707 H   0  0  0  0  0  0
  -26.8713  -25.2650   22.6992 H   0  0  0  0  0  0
  -29.7493  -19.3332   21.8434 H   0  0  0  0  0  0
  -25.4535  -22.2170   22.8684 H   0  0  0  0  0  0
  -25.3708  -26.0895   25.1662 H   0  0  0  0  0  0
  -24.0232  -25.7274   24.2586 H   0  0  0  0  0  0
  -22.5402  -29.4910   24.1825 H   0  0  0  0  0  0
  -23.6895  -30.3136   24.6576 H   0  0  0  0  0  0
  -23.2887  -31.6345   21.4306 H   0  0  0  0  0  0
  -22.7112  -30.3222   20.8512 H   0  0  0  0  0  0
  -28.0631  -16.6681   21.4535 H   0  0  0  0  0  0
  -28.5391  -21.8033   22.5474 H   0  0  0  0  0  0
  -25.5422  -28.4586   24.5607 H   0  0  0  0  0  0
  -24.2559  -28.0210   25.3705 H   0  0  0  0  0  0
  1 25  1  0  0  0
  1 30  2  0  0  0
  1 80  1  0  0  0
  2  3  1  0  0  0
  2 25  1  0  0  0
  2 83  1  0  0  0
  2 84  1  0  0  0
  3  4  1  0  0  0
  3 85  1  0  0  0
  3 86  1  0  0  0
  4  5  1  0  0  0
  4 87  1  0  0  0
  4 88  1  0  0  0
  5  6  1  0  0  0
  5 26  1  0  0  0
  5 89  1  0  0  0
  6 25  1  0  0  0
  6 90  1  0  0  0
  6 91  1  0  0  0
  7  8  2  0  0  0
  7 26  1  0  0  0
  7 29  1  0  0  0
  8  9  1  0  0  0
  8 22  1  0  0  0
  9 10  1  0  0  0
  9 27  2  0  0  0
 10 11  2  0  0  0
 10 15  1  0  0  0
 11 12  1  0  0  0
 11 92  1  0  0  0
 12 13  2  0  0  0
 12 93  1  0  0  0
 13 14  1  0  0  0
 13 31  1  0  0  0
 14 15  2  0  0  0
 14 94  1  0  0  0
 15 95  1  0  0  0
 16 17  2  0  0  0
 16 21  1  0  0  0
 16 31  1  0  0  0
 17 18  1  0  0  0
 17 96  1  0  0  0
 18 19  2  0  0  0
 18 97  1  0  0  0
 19 20  1  0  0  0
 19 24  1  0  0  0
 20 21  2  0  0  0
 20 98  1  0  0  0
 21 23  1  0  0  0
 22 28  1  0  0  0
 22 32  2  0  0  0
 26 27  1  0  0  0
 28 99  1  0  0  0
 28100  1  0  0  0
 29101  1  0  0  0
 29102  1  0  0  0
 33 34  1  0  0  0
 33 66  1  0  0  0
 33 70  2  0  0  0
 34 36  1  0  0  0
 34 59  1  0  0  0
 34103  1  0  0  0
 35 44  2  0  0  0
 35 45  1  0  0  0
 35 68  1  0  0  0
 36 56  1  0  0  0
 36104  1  0  0  0
 37 39  1  0  0  0
 37 47  1  0  0  0
 37 66  1  0  0  0
 37105  1  0  0  0
 38 43  2  0  0  0
 38 46  1  0  0  0
 38 47  1  0  0  0
 39 64  1  0  0  0
 39 67  2  0  0  0
 40 52  1  0  0  0
 40 53  2  0  0  0
 40 58  1  0  0  0
 41106  1  0  0  0
 41107  1  0  0  0
 41108  1  0  0  0
 41 48  1  0  0  0
 42 43  1  0  0  0
 42 66  1  0  0  0
 42109  1  0  0  0
 42110  1  0  0  0
 43 44  1  0  0  0
 44111  1  0  0  0
 45 46  2  0  0  0
 45112  1  0  0  0
 46113  1  0  0  0
 47114  1  0  0  0
 47115  1  0  0  0
 48 56  1  0  0  0
 48 65  1  0  0  0
 48116  1  0  0  0
 49 50  1  0  0  0
 49 53  1  0  0  0
 49 64  1  0  0  0
 49117  1  0  0  0
 50 51  1  0  0  0
 50118  1  0  0  0
 50119  1  0  0  0
 51 52  1  0  0  0
 51120  1  0  0  0
 51121  1  0  0  0
 52122  1  0  0  0
 52123  1  0  0  0
 53 54  1  0  0  0
 54 55  2  0  0  0
 54124  1  0  0  0
 55 57  1  0  0  0
 55125  1  0  0  0
 56 69  2  0  0  0
 57 58  2  0  0  0
 57126  1  0  0  0
 58127  1  0  0  0
 59 60  1  0  0  0
 59 61  1  0  0  0
 59 62  1  0  0  0
 60128  1  0  0  0
 60129  1  0  0  0
 60130  1  0  0  0
 61131  1  0  0  0
 61132  1  0  0  0
 61133  1  0  0  0
 62134  1  0  0  0
 62135  1  0  0  0
 62136  1  0  0  0
 63 65  1  0  0  0
 63137  1  0  0  0
 63138  1  0  0  0
 63139  1  0  0  0
 64140  1  0  0  0
 65141  1  0  0  0
 68 79  1  0  0  0
 71 74  1  0  0  0
 71142  1  0  0  0
 71143  1  0  0  0
 71 76  1  0  0  0
 72 75  1  0  0  0
 72144  1  0  0  0
 72145  1  0  0  0
 72 81  1  0  0  0
 73 75  1  0  0  0
 73 81  1  0  0  0
 73146  1  0  0  0
 73147  1  0  0  0
 74 76  1  0  0  0
 74 77  1  0  0  0
 74148  1  0  0  0
 75 80  1  0  0  0
 75149  1  0  0  0
 76 81  1  0  0  0
 76150  1  0  0  0
 77 82  1  0  0  0
 77151  1  0  0  0
 77152  1  0  0  0
 78 79  1  0  0  0
 78 82  1  0  0  0
 78153  1  0  0  0
 78154  1  0  0  0
 79155  1  0  0  0
 79156  1  0  0  0
 80157  1  0  0  0
 81158  1  0  0  0
 82159  1  0  0  0
 82160  1  0  0  0
M  CHG  2  81   1  82   1
M  ISO  4   1 100  68 101  79 101  80 100
M  END
> <chiral flag>
0

> <version>
0

> <s_m_source_file>
/data/baiqing/PycharmProjects/Reinvent-master-3.2/result/LINK_invent/BTK/process_docking_weight1_custom_sum_contain_oxygen_bond_distance_aromatic_linkinvent_7_9_3/rearranged_h_0198.sdf

> <i_m_source_file_index>
70

> <r_mmod_Potential_Energy-OPLS-2005>
15433.7919921875

> <r_mmod_Stretch_Energy-OPLS-2005>
4740.9521484375

> <r_mmod_Bend_Energy-OPLS-2005>
2096.39770507812

> <r_mmod_Torsional_Energy-OPLS-2005>
697.429504394531

> <r_mmod_Improper_Torsional_Energy-OPLS-2005>
100.798446655273

> <r_mmod_Van_der_Waal_Energy-OPLS-2005>
1821.763671875

> <r_mmod_Electrostatic_Energy-OPLS-2005>
-19.2086315155029

> <r_mmod_Solvation_Energy-OPLS-2005>
-864.254638671875

> <b_mmod_Minimization_Converged-OPLS-2005>
0

> <r_mmod_RMS_Derivative-OPLS-2005>
5.82325267791748

$$$$
70
                    3D
 Structure written by MMmdl.
166175  0  0  1  0            999 V2000
  -30.6958  -14.4460   20.5304 C   0  0  0  0  0  0
  -30.4159  -12.2734   19.4326 C   0  0  0  0  0  0
  -29.4994  -12.4975   18.2113 C   0  0  0  0  0  0
  -28.0164  -12.3669   18.6138 C   0  0  0  0  0  0
  -27.6595  -13.2056   19.8705 C   0  0  2  0  0  0
  -28.6974  -12.9937   20.9989 C   0  0  0  0  0  0
  -25.2575  -13.8165   20.5656 C   0  0  0  0  0  0
  -24.1837  -13.0435   20.9170 C   0  0  0  0  0  0
  -24.6383  -11.6908   20.8720 C   0  0  0  0  0  0
  -23.9051  -10.4305   21.0391 C   0  0  0  0  0  0
  -24.3611   -9.4222   21.9161 C   0  0  0  0  0  0
  -23.6307   -8.2245   22.0736 C   0  0  0  0  0  0
  -22.4281   -8.0279   21.3540 C   0  0  0  0  0  0
  -21.9903   -9.0247   20.4632 C   0  0  0  0  0  0
  -22.7228  -10.2124   20.3045 C   0  0  0  0  0  0
  -21.6847   -6.0729   22.5284 C   0  0  0  0  0  0
  -21.4012   -6.5635   23.8212 C   0  0  0  0  0  0
  -21.3652   -5.6785   24.9172 C   0  0  0  0  0  0
  -21.6049   -4.3048   24.7233 C   0  0  0  0  0  0
  -21.8819   -3.8140   23.4349 C   0  0  0  0  0  0
  -21.9189   -4.6954   22.3399 C   0  0  0  0  0  0
  -22.7858  -13.5227   21.1843 C   0  0  0  0  0  0
  -22.1667   -4.2128   21.0980 F   0  0  0  0  0  0
  -21.5626   -3.4529   25.7752 F   0  0  0  0  0  0
  -30.0340  -13.2665   20.4503 N   0  0  0  0  0  0
  -26.3008  -12.9320   20.3314 N   0  0  0  0  0  0
  -25.9301  -11.6477   20.5736 N   0  0  0  0  0  0
  -22.0490  -12.8233   22.0401 N   0  0  0  0  0  0
  -25.4311  -15.1877   20.4083 N   0  0  0  0  0  0
  -31.8577  -14.5946   20.1462 O   0  0  0  0  0  0
  -21.6643   -6.8878   21.4248 O   0  0  0  0  0  0
  -22.3537  -14.5524   20.6667 O   0  0  0  0  0  0
  -24.6069  -31.8720   23.2155 C   0  0  0  0  0  0
  -25.8980  -32.4850   23.8427 C   0  0  1  0  0  0
  -27.2578  -27.4903   20.0982 C   0  0  0  0  0  0
  -25.5824  -33.8646   24.2353 N   0  0  0  0  0  0
  -23.3939  -30.4962   21.5515 C   0  0  2  0  0  0
  -24.8462  -28.9712   20.1147 C   0  0  0  0  0  0
  -22.7384  -29.4673   22.4968 C   0  0  0  0  0  0
  -18.0266  -28.1382   22.8486 C   0  0  0  0  0  0
  -24.1469  -36.7354   23.2648 C   0  0  0  0  0  0
  -25.9157  -30.8603   21.3585 C   0  0  0  0  0  0
  -25.9992  -29.4980   20.7084 C   0  0  0  0  0  0
  -27.2050  -28.7699   20.7013 C   0  0  0  0  0  0
  -26.0822  -26.9659   19.5210 C   0  0  0  0  0  0
  -24.8805  -27.7005   19.5158 C   0  0  0  0  0  0
  -23.6047  -29.8320   20.1636 C   0  0  0  0  0  0
  -25.4080  -36.3137   24.0360 C   0  0  1  0  0  0
  -20.5853  -28.3661   23.1327 C   0  0  2  0  0  0
  -20.6749  -26.9393   22.5424 C   0  0  0  0  0  0
  -19.5739  -26.6382   21.5215 C   0  0  0  0  0  0
  -18.1916  -26.7935   22.1610 C   0  0  0  0  0  0
  -19.1512  -28.8830   23.2915 C   0  0  0  0  0  0
  -18.9439  -30.1433   23.8922 C   0  0  0  0  0  0
  -17.6448  -30.6583   24.0566 C   0  0  0  0  0  0
  -25.8991  -34.9498   23.5162 C   0  0  0  0  0  0
  -16.5339  -29.9107   23.6295 C   0  0  0  0  0  0
  -16.7260  -28.6522   23.0320 C   0  0  0  0  0  0
  -26.4440  -31.6615   25.0731 C   0  0  0  0  0  0
  -25.3745  -31.3725   26.1521 C   0  0  0  0  0  0
  -27.0239  -30.3056   24.6063 C   0  0  0  0  0  0
  -27.6038  -32.4327   25.7456 C   0  0  0  0  0  0
  -27.5582  -37.1834   24.8458 C   0  0  0  0  0  0
  -21.4117  -29.3029   22.3737 N   0  0  0  0  0  0
  -26.4280  -37.3809   23.9417 N   0  0  0  0  0  0
  -24.6565  -31.0878   22.1023 N   0  0  0  0  0  0
  -23.4185  -28.8202   23.2975 O   0  0  0  0  0  0
  -28.3729  -26.6826   20.0523 O   0  0  0  0  0  0
  -26.5573  -34.8945   22.4734 O   0  0  0  0  0  0
  -23.5276  -32.1447   23.7585 O   0  0  0  0  0  0
  -30.6075  -21.0898   20.3168 C   0  0  0  0  0  0
  -30.1287  -22.4178   20.4106 C   0  0  0  0  0  0
  -29.6600  -20.0691   20.0717 C   0  0  0  0  0  0
  -28.0035  -21.6778   20.0224 C   0  0  0  0  0  0
  -30.7127  -17.9425   20.8665 C   0  0  0  0  0  0
  -28.9900  -17.6759   19.7482 C   0  0  0  0  0  0
  -30.1930  -16.7676   20.0278 C   0  0  0  0  0  0
  -32.0967  -20.7669   20.4539 C   0  0  0  0  0  0
  -26.5315  -21.9949   19.8572 C   0  0  0  0  0  0
  -31.0140  -23.6334   20.6806 C   0  0  0  0  0  0
  -30.5293  -26.0791   20.8702 C   0  0  0  0  0  0
  -29.6783  -27.2144   20.2867 C   0  0  0  0  0  0
  -28.8189  -22.6992   20.2485 N   0  0  0  0  0  0
  -28.3654  -20.4055   19.9291 N   0  0  0  0  0  0
  -30.0161  -18.7145   19.8374 N   0  0  0  0  0  0
  -29.9129  -15.5178   20.7411 N   0  0  0  0  0  0
  -30.3658  -24.8198   20.1071 N   0  3  0  0  0  0
  -31.4657  -12.3502   19.1436 H   0  0  0  0  0  0
  -30.2922  -11.2619   19.8228 H   0  0  0  0  0  0
  -29.7394  -11.7821   17.4225 H   0  0  0  0  0  0
  -29.6809  -13.4872   17.7922 H   0  0  0  0  0  0
  -27.8161  -11.3128   18.8026 H   0  0  0  0  0  0
  -27.3701  -12.6489   17.7830 H   0  0  0  0  0  0
  -27.6987  -14.2508   19.5641 H   0  0  0  0  0  0
  -28.6546  -11.9674   21.3654 H   0  0  0  0  0  0
  -28.4771  -13.6255   21.8609 H   0  0  0  0  0  0
  -25.2757   -9.5687   22.4726 H   0  0  0  0  0  0
  -24.0008   -7.4623   22.7443 H   0  0  0  0  0  0
  -21.0821   -8.8767   19.8953 H   0  0  0  0  0  0
  -22.3685  -10.9655   19.6155 H   0  0  0  0  0  0
  -21.2016   -7.6148   23.9715 H   0  0  0  0  0  0
  -21.1473   -6.0514   25.9073 H   0  0  0  0  0  0
  -22.0606   -2.7607   23.2846 H   0  0  0  0  0  0
  -22.4094  -11.9909   22.4837 H   0  0  0  0  0  0
  -21.1103  -13.1247   22.2571 H   0  0  0  0  0  0
  -24.6617  -15.8441   20.5059 H   0  0  0  0  0  0
  -26.2778  -15.6220   20.0639 H   0  0  0  0  0  0
  -26.7060  -32.5596   23.1214 H   0  0  0  0  0  0
  -24.9892  -33.9796   25.0441 H   0  0  0  0  0  0
  -22.6805  -31.3111   21.4162 H   0  0  0  0  0  0
  -23.3720  -35.9696   23.3295 H   0  0  0  0  0  0
  -24.3579  -36.8976   22.2063 H   0  0  0  0  0  0
  -23.7228  -37.6566   23.6661 H   0  0  0  0  0  0
  -26.0114  -31.6280   20.5891 H   0  0  0  0  0  0
  -26.8079  -30.9217   21.9698 H   0  0  0  0  0  0
  -28.0620  -29.2182   21.1769 H   0  0  0  0  0  0
  -26.1019  -25.9836   19.0692 H   0  0  0  0  0  0
  -23.9959  -27.2870   19.0506 H   0  0  0  0  0  0
  -23.7156  -30.6120   19.4095 H   0  0  0  0  0  0
  -22.7294  -29.2520   19.8603 H   0  0  0  0  0  0
  -25.1259  -36.2010   25.0854 H   0  0  0  0  0  0
  -20.9955  -28.3229   24.1447 H   0  0  0  0  0  0
  -20.5628  -26.2269   23.3612 H   0  0  0  0  0  0
  -21.6627  -26.7431   22.1230 H   0  0  0  0  0  0
  -19.6893  -25.6297   21.1231 H   0  0  0  0  0  0
  -19.6697  -27.3193   20.6749 H   0  0  0  0  0  0
  -17.4195  -26.6690   21.4005 H   0  0  0  0  0  0
  -18.0320  -26.0066   22.8984 H   0  0  0  0  0  0
  -19.7911  -30.7222   24.2332 H   0  0  0  0  0  0
  -17.5005  -31.6256   24.5176 H   0  0  0  0  0  0
  -15.5337  -30.3019   23.7592 H   0  0  0  0  0  0
  -15.8667  -28.0852   22.7009 H   0  0  0  0  0  0
  -24.5833  -30.7179   25.7858 H   0  0  0  0  0  0
  -24.9055  -32.2897   26.5092 H   0  0  0  0  0  0
  -25.8121  -30.8776   27.0201 H   0  0  0  0  0  0
  -26.2759  -29.6842   24.1139 H   0  0  0  0  0  0
  -27.4022  -29.7273   25.4498 H   0  0  0  0  0  0
  -27.8582  -30.4353   23.9174 H   0  0  0  0  0  0
  -27.2653  -33.3601   26.2093 H   0  0  0  0  0  0
  -28.3793  -32.6944   25.0242 H   0  0  0  0  0  0
  -28.0774  -31.8430   26.5319 H   0  0  0  0  0  0
  -28.2601  -38.0126   24.7480 H   0  0  0  0  0  0
  -28.1073  -36.2665   24.6282 H   0  0  0  0  0  0
  -27.2330  -37.1487   25.8869 H   0  0  0  0  0  0
  -20.9266  -29.8776   21.6994 H   0  0  0  0  0  0
  -26.0188  -38.2896   24.1405 H   0  0  0  0  0  0
  -31.7992  -18.0337   20.8719 H   0  0  0  0  0  0
  -30.2723  -18.0379   21.8629 H   0  0  0  0  0  0
  -28.2502  -17.7212   20.5506 H   0  0  0  0  0  0
  -28.5394  -17.5599   18.7613 H   0  0  0  0  0  0
  -30.7800  -16.6158   19.1131 H   0  0  0  0  0  0
  -32.7464  -21.5760   20.1282 H   0  0  0  0  0  0
  -32.3763  -19.9155   19.8345 H   0  0  0  0  0  0
  -32.3440  -20.5280   21.4903 H   0  0  0  0  0  0
  -26.3731  -23.0606   19.6861 H   0  0  0  0  0  0
  -25.9835  -21.7121   20.7553 H   0  0  0  0  0  0
  -26.1044  -21.4518   19.0140 H   0  0  0  0  0  0
  -32.0092  -23.5526   20.2505 H   0  0  0  0  0  0
  -31.1227  -23.7260   21.7613 H   0  0  0  0  0  0
  -30.2275  -25.9117   21.9056 H   0  0  0  0  0  0
  -31.5791  -26.3759   20.8869 H   0  0  0  0  0  0
  -30.0924  -27.5714   19.3414 H   0  0  0  0  0  0
  -29.7217  -28.0419   20.9909 H   0  0  0  0  0  0
  -28.9722  -15.3549   21.0652 H   0  0  0  0  0  0
  -29.3947  -24.5163   20.1036 H   0  0  0  0  0  0
  -30.6496  -24.9170   19.1477 H   0  0  0  0  0  0
  1 25  1  0  0  0
  1 30  2  0  0  0
  1 86  1  0  0  0
  2  3  1  0  0  0
  2 25  1  0  0  0
  2 88  1  0  0  0
  2 89  1  0  0  0
  3  4  1  0  0  0
  3 90  1  0  0  0
  3 91  1  0  0  0
  4  5  1  0  0  0
  4 92  1  0  0  0
  4 93  1  0  0  0
  5  6  1  0  0  0
  5 26  1  0  0  0
  5 94  1  0  0  0
  6 25  1  0  0  0
  6 95  1  0  0  0
  6 96  1  0  0  0
  7  8  2  0  0  0
  7 26  1  0  0  0
  7 29  1  0  0  0
  8  9  1  0  0  0
  8 22  1  0  0  0
  9 10  1  0  0  0
  9 27  2  0  0  0
 10 11  2  0  0  0
 10 15  1  0  0  0
 11 12  1  0  0  0
 11 97  1  0  0  0
 12 13  2  0  0  0
 12 98  1  0  0  0
 13 14  1  0  0  0
 13 31  1  0  0  0
 14 15  2  0  0  0
 14 99  1  0  0  0
 15100  1  0  0  0
 16 17  2  0  0  0
 16 21  1  0  0  0
 16 31  1  0  0  0
 17 18  1  0  0  0
 17101  1  0  0  0
 18 19  2  0  0  0
 18102  1  0  0  0
 19 20  1  0  0  0
 19 24  1  0  0  0
 20 21  2  0  0  0
 20103  1  0  0  0
 21 23  1  0  0  0
 22 28  1  0  0  0
 22 32  2  0  0  0
 26 27  1  0  0  0
 28104  1  0  0  0
 28105  1  0  0  0
 29106  1  0  0  0
 29107  1  0  0  0
 33 34  1  0  0  0
 33 66  1  0  0  0
 33 70  2  0  0  0
 34 36  1  0  0  0
 34 59  1  0  0  0
 34108  1  0  0  0
 35 44  2  0  0  0
 35 45  1  0  0  0
 35 68  1  0  0  0
 36 56  1  0  0  0
 36109  1  0  0  0
 37 39  1  0  0  0
 37 47  1  0  0  0
 37 66  1  0  0  0
 37110  1  0  0  0
 38 43  2  0  0  0
 38 46  1  0  0  0
 38 47  1  0  0  0
 39 64  1  0  0  0
 39 67  2  0  0  0
 40 52  1  0  0  0
 40 53  2  0  0  0
 40 58  1  0  0  0
 41111  1  0  0  0
 41112  1  0  0  0
 41113  1  0  0  0
 41 48  1  0  0  0
 42 43  1  0  0  0
 42 66  1  0  0  0
 42114  1  0  0  0
 42115  1  0  0  0
 43 44  1  0  0  0
 44116  1  0  0  0
 45 46  2  0  0  0
 45117  1  0  0  0
 46118  1  0  0  0
 47119  1  0  0  0
 47120  1  0  0  0
 48 56  1  0  0  0
 48 65  1  0  0  0
 48121  1  0  0  0
 49 50  1  0  0  0
 49 53  1  0  0  0
 49 64  1  0  0  0
 49122  1  0  0  0
 50 51  1  0  0  0
 50123  1  0  0  0
 50124  1  0  0  0
 51 52  1  0  0  0
 51125  1  0  0  0
 51126  1  0  0  0
 52127  1  0  0  0
 52128  1  0  0  0
 53 54  1  0  0  0
 54 55  2  0  0  0
 54129  1  0  0  0
 55 57  1  0  0  0
 55130  1  0  0  0
 56 69  2  0  0  0
 57 58  2  0  0  0
 57131  1  0  0  0
 58132  1  0  0  0
 59 60  1  0  0  0
 59 61  1  0  0  0
 59 62  1  0  0  0
 60133  1  0  0  0
 60134  1  0  0  0
 60135  1  0  0  0
 61136  1  0  0  0
 61137  1  0  0  0
 61138  1  0  0  0
 62139  1  0  0  0
 62140  1  0  0  0
 62141  1  0  0  0
 63 65  1  0  0  0
 63142  1  0  0  0
 63143  1  0  0  0
 63144  1  0  0  0
 64145  1  0  0  0
 65146  1  0  0  0
 68 82  1  0  0  0
 71 72  2  0  0  0
 71 73  1  0  0  0
 71 78  1  0  0  0
 72 80  1  0  0  0
 72 83  1  0  0  0
 73 84  2  0  0  0
 73 85  1  0  0  0
 74 79  1  0  0  0
 74 83  2  0  0  0
 74 84  1  0  0  0
 75 77  1  0  0  0
 75 85  1  0  0  0
 75147  1  0  0  0
 75148  1  0  0  0
 76 77  1  0  0  0
 76 85  1  0  0  0
 76149  1  0  0  0
 76150  1  0  0  0
 77 86  1  0  0  0
 77151  1  0  0  0
 78152  1  0  0  0
 78153  1  0  0  0
 78154  1  0  0  0
 79155  1  0  0  0
 79156  1  0  0  0
 79157  1  0  0  0
 80 87  1  0  0  0
 80158  1  0  0  0
 80159  1  0  0  0
 81 82  1  0  0  0
 81 87  1  0  0  0
 81160  1  0  0  0
 81161  1  0  0  0
 82162  1  0  0  0
 82163  1  0  0  0
 86164  1  0  0  0
 87165  1  0  0  0
 87166  1  0  0  0
M  CHG  1  87   1
M  ISO  4   1 100  68 101  82 101  86 100
M  END
> <chiral flag>
0

> <version>
0

> <s_m_source_file>
/data/baiqing/PycharmProjects/Reinvent-master-3.2/result/LINK_invent/BTK/process_docking_weight1_custom_sum_contain_oxygen_bond_distance_aromatic_linkinvent_7_9_3/rearranged_h_0198.sdf

> <i_m_source_file_index>
71

> <r_mmod_Potential_Energy-OPLS-2005>
-773.592895507812

> <r_mmod_Stretch_Energy-OPLS-2005>
32.8892097473145

> <r_mmod_Bend_Energy-OPLS-2005>
167.090545654297

> <r_mmod_Torsional_Energy-OPLS-2005>
254.188751220703

> <r_mmod_Improper_Torsional_Energy-OPLS-2005>
17.6525020599365

> <r_mmod_Van_der_Waal_Energy-OPLS-2005>
187.678680419922

> <r_mmod_Electrostatic_Energy-OPLS-2005>
-985.015747070312

> <r_mmod_Solvation_Energy-OPLS-2005>
-459.926422119141

> <b_mmod_Minimization_Converged-OPLS-2005>
0

> <r_mmod_RMS_Derivative-OPLS-2005>
3.30295705795288

$$$$
71
                    3D
 Structure written by MMmdl.
161170  0  0  1  0            999 V2000
  -30.7365  -14.4327   20.6148 C   0  0  0  0  0  0
  -30.4174  -12.3010   19.4137 C   0  0  0  0  0  0
  -29.4886  -12.5115   18.2018 C   0  0  0  0  0  0
  -28.0116  -12.3721   18.6177 C   0  0  0  0  0  0
  -27.6630  -13.2081   19.8782 C   0  0  2  0  0  0
  -28.7043  -12.9804   20.9970 C   0  0  0  0  0  0
  -25.2590  -13.8166   20.5688 C   0  0  0  0  0  0
  -24.1834  -13.0439   20.9162 C   0  0  0  0  0  0
  -24.6391  -11.6907   20.8726 C   0  0  0  0  0  0
  -23.9058  -10.4293   21.0398 C   0  0  0  0  0  0
  -24.3611   -9.4211   21.9179 C   0  0  0  0  0  0
  -23.6288   -8.2246   22.0753 C   0  0  0  0  0  0
  -22.4272   -8.0281   21.3544 C   0  0  0  0  0  0
  -21.9904   -9.0252   20.4647 C   0  0  0  0  0  0
  -22.7230  -10.2133   20.3052 C   0  0  0  0  0  0
  -21.6853   -6.0735   22.5279 C   0  0  0  0  0  0
  -21.4014   -6.5639   23.8212 C   0  0  0  0  0  0
  -21.3660   -5.6792   24.9174 C   0  0  0  0  0  0
  -21.6044   -4.3054   24.7226 C   0  0  0  0  0  0
  -21.8819   -3.8146   23.4347 C   0  0  0  0  0  0
  -21.9193   -4.6962   22.3403 C   0  0  0  0  0  0
  -22.7859  -13.5239   21.1833 C   0  0  0  0  0  0
  -22.1662   -4.2149   21.0980 F   0  0  0  0  0  0
  -21.5629   -3.4538   25.7738 F   0  0  0  0  0  0
  -30.0389  -13.2771   20.4475 N   0  0  0  0  0  0
  -26.3033  -12.9341   20.3395 N   0  0  0  0  0  0
  -25.9323  -11.6496   20.5774 N   0  0  0  0  0  0
  -22.0500  -12.8231   22.0392 N   0  0  0  0  0  0
  -25.4326  -15.1881   20.4122 N   0  0  0  0  0  0
  -31.8224  -14.6436   20.0692 O   0  0  0  0  0  0
  -21.6638   -6.8876   21.4240 O   0  0  0  0  0  0
  -22.3547  -14.5550   20.6693 O   0  0  0  0  0  0
  -24.6149  -31.8686   23.2113 C   0  0  0  0  0  0
  -25.9044  -32.4827   23.8405 C   0  0  1  0  0  0
  -27.2260  -27.4292   20.0978 C   0  0  0  0  0  0
  -25.5902  -33.8625   24.2333 N   0  0  0  0  0  0
  -23.4020  -30.4941   21.5526 C   0  0  2  0  0  0
  -24.8466  -28.9625   20.1144 C   0  0  0  0  0  0
  -22.7413  -29.4663   22.4994 C   0  0  0  0  0  0
  -18.0274  -28.1374   22.8493 C   0  0  0  0  0  0
  -24.1487  -36.7316   23.2637 C   0  0  0  0  0  0
  -25.9323  -30.8327   21.3658 C   0  0  0  0  0  0
  -26.0082  -29.4677   20.7119 C   0  0  0  0  0  0
  -27.2028  -28.7098   20.6987 C   0  0  0  0  0  0
  -26.0502  -26.9517   19.4749 C   0  0  0  0  0  0
  -24.8627  -27.7039   19.4924 C   0  0  0  0  0  0
  -23.6094  -29.8300   20.1661 C   0  0  0  0  0  0
  -25.4105  -36.3112   24.0337 C   0  0  1  0  0  0
  -20.5866  -28.3657   23.1320 C   0  0  2  0  0  0
  -20.6763  -26.9393   22.5419 C   0  0  0  0  0  0
  -19.5739  -26.6382   21.5214 C   0  0  0  0  0  0
  -18.1919  -26.7920   22.1627 C   0  0  0  0  0  0
  -19.1525  -28.8832   23.2903 C   0  0  0  0  0  0
  -18.9454  -30.1444   23.8904 C   0  0  0  0  0  0
  -17.6455  -30.6579   24.0567 C   0  0  0  0  0  0
  -25.9035  -34.9477   23.5131 C   0  0  0  0  0  0
  -16.5345  -29.9083   23.6327 C   0  0  0  0  0  0
  -16.7265  -28.6504   23.0340 C   0  0  0  0  0  0
  -26.4472  -31.6604   25.0730 C   0  0  0  0  0  0
  -25.3743  -31.3709   26.1484 C   0  0  0  0  0  0
  -27.0302  -30.3046   24.6101 C   0  0  0  0  0  0
  -27.6046  -32.4326   25.7489 C   0  0  0  0  0  0
  -27.5579  -37.1813   24.8465 C   0  0  0  0  0  0
  -21.4141  -29.3029   22.3731 N   0  0  0  0  0  0
  -26.4293  -37.3793   23.9407 N   0  0  0  0  0  0
  -24.6681  -31.0791   22.1016 N   0  0  0  0  0  0
  -23.4191  -28.8195   23.3022 O   0  0  0  0  0  0
  -28.3837  -26.6769   20.1005 O   0  0  0  0  0  0
  -26.5593  -34.8923   22.4689 O   0  0  0  0  0  0
  -23.5342  -32.1441   23.7506 O   0  0  0  0  0  0
  -27.7235  -19.5281   20.2946 C   0  0  0  0  0  0
  -27.4020  -18.4260   21.0955 C   0  0  0  0  0  0
  -29.0608  -19.6694   19.9061 C   0  0  0  0  0  0
  -29.5870  -17.7644   21.0826 C   0  0  0  0  0  0
  -28.7571  -20.8424   17.6049 C   0  0  0  0  0  0
  -30.1317  -20.2412   17.6257 C   0  0  0  0  0  0
  -29.5068  -20.7319   18.9223 C   0  0  0  0  0  0
  -30.6248  -16.7457   21.5305 C   0  0  0  0  0  0
  -30.0562  -22.0143   19.5648 C   0  0  0  0  0  0
  -29.3250  -24.3891   19.9335 C   0  0  0  0  0  0
  -28.2454  -25.3111   20.5454 C   0  0  0  0  0  0
  -28.3374  -17.5367   21.4742 N   0  0  0  0  0  0
  -29.9914  -18.7859   20.3280 N   0  0  0  0  0  0
  -30.1465  -15.3716   21.3598 N   0  0  0  0  0  0
  -29.0107  -22.9359   20.0864 N   0  3  0  0  0  0
  -31.4619  -12.3933   19.1101 H   0  0  0  0  0  0
  -30.3129  -11.2873   19.8042 H   0  0  0  0  0  0
  -29.7245  -11.7915   17.4171 H   0  0  0  0  0  0
  -29.6592  -13.4999   17.7721 H   0  0  0  0  0  0
  -27.8205  -11.3159   18.8102 H   0  0  0  0  0  0
  -27.3593  -12.6514   17.7895 H   0  0  0  0  0  0
  -27.7112  -14.2580   19.5883 H   0  0  0  0  0  0
  -28.6751  -11.9434   21.3350 H   0  0  0  0  0  0
  -28.4611  -13.5763   21.8774 H   0  0  0  0  0  0
  -25.2756   -9.5688   22.4753 H   0  0  0  0  0  0
  -24.0000   -7.4638   22.7471 H   0  0  0  0  0  0
  -21.0836   -8.8768   19.8952 H   0  0  0  0  0  0
  -22.3686  -10.9670   19.6161 H   0  0  0  0  0  0
  -21.2006   -7.6147   23.9715 H   0  0  0  0  0  0
  -21.1482   -6.0522   25.9078 H   0  0  0  0  0  0
  -22.0598   -2.7609   23.2847 H   0  0  0  0  0  0
  -22.4110  -11.9884   22.4770 H   0  0  0  0  0  0
  -21.1123  -13.1264   22.2606 H   0  0  0  0  0  0
  -24.6710  -15.8472   20.5279 H   0  0  0  0  0  0
  -26.3072  -15.6261   20.1511 H   0  0  0  0  0  0
  -26.7116  -32.5534   23.1172 H   0  0  0  0  0  0
  -25.0069  -33.9793   25.0488 H   0  0  0  0  0  0
  -22.6902  -31.3108   21.4163 H   0  0  0  0  0  0
  -23.3742  -35.9658   23.3315 H   0  0  0  0  0  0
  -24.3582  -36.8916   22.2050 H   0  0  0  0  0  0
  -23.7253  -37.6530   23.6642 H   0  0  0  0  0  0
  -26.0473  -31.5994   20.5985 H   0  0  0  0  0  0
  -26.8195  -30.8842   21.9852 H   0  0  0  0  0  0
  -28.0998  -29.0957   21.1634 H   0  0  0  0  0  0
  -26.0378  -26.0030   18.9582 H   0  0  0  0  0  0
  -23.9733  -27.3151   19.0162 H   0  0  0  0  0  0
  -23.7184  -30.6071   19.4088 H   0  0  0  0  0  0
  -22.7323  -29.2523   19.8691 H   0  0  0  0  0  0
  -25.1286  -36.1978   25.0832 H   0  0  0  0  0  0
  -20.9960  -28.3220   24.1439 H   0  0  0  0  0  0
  -20.5668  -26.2263   23.3606 H   0  0  0  0  0  0
  -21.6634  -26.7439   22.1205 H   0  0  0  0  0  0
  -19.6899  -25.6298   21.1229 H   0  0  0  0  0  0
  -19.6676  -27.3204   20.6750 H   0  0  0  0  0  0
  -17.4190  -26.6674   21.4025 H   0  0  0  0  0  0
  -18.0315  -26.0057   22.9016 H   0  0  0  0  0  0
  -19.7931  -30.7261   24.2265 H   0  0  0  0  0  0
  -17.5011  -31.6256   24.5173 H   0  0  0  0  0  0
  -15.5346  -30.2986   23.7645 H   0  0  0  0  0  0
  -15.8666  -28.0832   22.7034 H   0  0  0  0  0  0
  -24.5906  -30.7066   25.7828 H   0  0  0  0  0  0
  -24.8943  -32.2864   26.4947 H   0  0  0  0  0  0
  -25.8100  -30.8869   27.0233 H   0  0  0  0  0  0
  -26.2847  -29.6814   24.1148 H   0  0  0  0  0  0
  -27.4072  -29.7276   25.4556 H   0  0  0  0  0  0
  -27.8680  -30.4371   23.9252 H   0  0  0  0  0  0
  -27.2659  -33.3610   26.2098 H   0  0  0  0  0  0
  -28.3831  -32.6918   25.0303 H   0  0  0  0  0  0
  -28.0739  -31.8437   26.5380 H   0  0  0  0  0  0
  -28.2606  -38.0103   24.7505 H   0  0  0  0  0  0
  -28.1071  -36.2636   24.6300 H   0  0  0  0  0  0
  -27.2299  -37.1475   25.8870 H   0  0  0  0  0  0
  -20.9295  -29.8772   21.6976 H   0  0  0  0  0  0
  -26.0185  -38.2874   24.1401 H   0  0  0  0  0  0
  -26.9510  -20.2057   19.9583 H   0  0  0  0  0  0
  -26.3869  -18.2408   21.4148 H   0  0  0  0  0  0
  -27.9180  -20.1692   17.4400 H   0  0  0  0  0  0
  -28.6629  -21.8230   17.1428 H   0  0  0  0  0  0
  -30.9311  -20.8294   17.1798 H   0  0  0  0  0  0
  -30.2095  -19.1659   17.4759 H   0  0  0  0  0  0
  -30.8359  -16.9121   22.5869 H   0  0  0  0  0  0
  -31.5621  -16.9270   21.0014 H   0  0  0  0  0  0
  -30.6340  -22.5421   18.8054 H   0  0  0  0  0  0
  -30.7627  -21.7569   20.3545 H   0  0  0  0  0  0
  -30.2932  -24.6131   20.3830 H   0  0  0  0  0  0
  -29.4118  -24.6112   18.8688 H   0  0  0  0  0  0
  -28.3242  -25.2960   21.6331 H   0  0  0  0  0  0
  -27.2681  -24.8891   20.3184 H   0  0  0  0  0  0
  -29.2196  -15.1955   21.7160 H   0  0  0  0  0  0
  -28.8477  -22.7157   21.0577 H   0  0  0  0  0  0
  -28.1546  -22.7474   19.5881 H   0  0  0  0  0  0
  1 25  1  0  0  0
  1 30  2  0  0  0
  1 84  1  0  0  0
  2  3  1  0  0  0
  2 25  1  0  0  0
  2 86  1  0  0  0
  2 87  1  0  0  0
  3  4  1  0  0  0
  3 88  1  0  0  0
  3 89  1  0  0  0
  4  5  1  0  0  0
  4 90  1  0  0  0
  4 91  1  0  0  0
  5  6  1  0  0  0
  5 26  1  0  0  0
  5 92  1  0  0  0
  6 25  1  0  0  0
  6 93  1  0  0  0
  6 94  1  0  0  0
  7  8  2  0  0  0
  7 26  1  0  0  0
  7 29  1  0  0  0
  8  9  1  0  0  0
  8 22  1  0  0  0
  9 10  1  0  0  0
  9 27  2  0  0  0
 10 11  2  0  0  0
 10 15  1  0  0  0
 11 12  1  0  0  0
 11 95  1  0  0  0
 12 13  2  0  0  0
 12 96  1  0  0  0
 13 14  1  0  0  0
 13 31  1  0  0  0
 14 15  2  0  0  0
 14 97  1  0  0  0
 15 98  1  0  0  0
 16 17  2  0  0  0
 16 21  1  0  0  0
 16 31  1  0  0  0
 17 18  1  0  0  0
 17 99  1  0  0  0
 18 19  2  0  0  0
 18100  1  0  0  0
 19 20  1  0  0  0
 19 24  1  0  0  0
 20 21  2  0  0  0
 20101  1  0  0  0
 21 23  1  0  0  0
 22 28  1  0  0  0
 22 32  2  0  0  0
 26 27  1  0  0  0
 28102  1  0  0  0
 28103  1  0  0  0
 29104  1  0  0  0
 29105  1  0  0  0
 33 34  1  0  0  0
 33 66  1  0  0  0
 33 70  2  0  0  0
 34 36  1  0  0  0
 34 59  1  0  0  0
 34106  1  0  0  0
 35 44  2  0  0  0
 35 45  1  0  0  0
 35 68  1  0  0  0
 36 56  1  0  0  0
 36107  1  0  0  0
 37 39  1  0  0  0
 37 47  1  0  0  0
 37 66  1  0  0  0
 37108  1  0  0  0
 38 43  2  0  0  0
 38 46  1  0  0  0
 38 47  1  0  0  0
 39 64  1  0  0  0
 39 67  2  0  0  0
 40 52  1  0  0  0
 40 53  2  0  0  0
 40 58  1  0  0  0
 41109  1  0  0  0
 41110  1  0  0  0
 41111  1  0  0  0
 41 48  1  0  0  0
 42 43  1  0  0  0
 42 66  1  0  0  0
 42112  1  0  0  0
 42113  1  0  0  0
 43 44  1  0  0  0
 44114  1  0  0  0
 45 46  2  0  0  0
 45115  1  0  0  0
 46116  1  0  0  0
 47117  1  0  0  0
 47118  1  0  0  0
 48 56  1  0  0  0
 48 65  1  0  0  0
 48119  1  0  0  0
 49 50  1  0  0  0
 49 53  1  0  0  0
 49 64  1  0  0  0
 49120  1  0  0  0
 50 51  1  0  0  0
 50121  1  0  0  0
 50122  1  0  0  0
 51 52  1  0  0  0
 51123  1  0  0  0
 51124  1  0  0  0
 52125  1  0  0  0
 52126  1  0  0  0
 53 54  1  0  0  0
 54 55  2  0  0  0
 54127  1  0  0  0
 55 57  1  0  0  0
 55128  1  0  0  0
 56 69  2  0  0  0
 57 58  2  0  0  0
 57129  1  0  0  0
 58130  1  0  0  0
 59 60  1  0  0  0
 59 61  1  0  0  0
 59 62  1  0  0  0
 60131  1  0  0  0
 60132  1  0  0  0
 60133  1  0  0  0
 61134  1  0  0  0
 61135  1  0  0  0
 61136  1  0  0  0
 62137  1  0  0  0
 62138  1  0  0  0
 62139  1  0  0  0
 63 65  1  0  0  0
 63140  1  0  0  0
 63141  1  0  0  0
 63142  1  0  0  0
 64143  1  0  0  0
 65144  1  0  0  0
 68 81  1  0  0  0
 71 72  2  0  0  0
 71 73  1  0  0  0
 71145  1  0  0  0
 72 82  1  0  0  0
 72146  1  0  0  0
 73 77  1  0  0  0
 73 83  2  0  0  0
 74 78  1  0  0  0
 74 82  2  0  0  0
 74 83  1  0  0  0
 75 76  1  0  0  0
 75 77  1  0  0  0
 75147  1  0  0  0
 75148  1  0  0  0
 76 77  1  0  0  0
 76149  1  0  0  0
 76150  1  0  0  0
 77 79  1  0  0  0
 78 84  1  0  0  0
 78151  1  0  0  0
 78152  1  0  0  0
 79 85  1  0  0  0
 79153  1  0  0  0
 79154  1  0  0  0
 80 81  1  0  0  0
 80 85  1  0  0  0
 80155  1  0  0  0
 80156  1  0  0  0
 81157  1  0  0  0
 81158  1  0  0  0
 84159  1  0  0  0
 85160  1  0  0  0
 85161  1  0  0  0
M  CHG  1  85   1
M  ISO  4   1 100  68 101  81 101  84 100
M  END
> <chiral flag>
0

> <version>
0

> <s_m_source_file>
/data/baiqing/PycharmProjects/Reinvent-master-3.2/result/LINK_invent/BTK/process_docking_weight1_custom_sum_contain_oxygen_bond_distance_aromatic_linkinvent_7_9_3/rearranged_h_0198.sdf

> <i_m_source_file_index>
72

> <r_mmod_Potential_Energy-OPLS-2005>
-789.037109375

> <r_mmod_Stretch_Energy-OPLS-2005>
35.5497550964355

> <r_mmod_Bend_Energy-OPLS-2005>
93.3769226074219

> <r_mmod_Torsional_Energy-OPLS-2005>
260.196380615234

> <r_mmod_Improper_Torsional_Energy-OPLS-2005>
2.49391007423401

> <r_mmod_Van_der_Waal_Energy-OPLS-2005>
159.773727416992

> <r_mmod_Electrostatic_Energy-OPLS-2005>
-871.183410644531

> <r_mmod_Solvation_Energy-OPLS-2005>
-479.890350341797

> <b_mmod_Minimization_Converged-OPLS-2005>
0

> <r_mmod_RMS_Derivative-OPLS-2005>
0.466664522886276

$$$$
72
                    3D
 Structure written by MMmdl.
160169  0  0  1  0            999 V2000
  -30.7059  -14.4103   20.5341 C   0  0  0  0  0  0
  -30.4060  -12.2521   19.4190 C   0  0  0  0  0  0
  -29.4852  -12.4781   18.2015 C   0  0  0  0  0  0
  -28.0047  -12.3602   18.6146 C   0  0  0  0  0  0
  -27.6550  -13.1892   19.8818 C   0  0  2  0  0  0
  -28.6988  -12.9748   21.0024 C   0  0  0  0  0  0
  -25.2594  -13.8114   20.5715 C   0  0  0  0  0  0
  -24.1812  -13.0406   20.9170 C   0  0  0  0  0  0
  -24.6346  -11.6871   20.8758 C   0  0  0  0  0  0
  -23.9019  -10.4267   21.0423 C   0  0  0  0  0  0
  -24.3575   -9.4192   21.9206 C   0  0  0  0  0  0
  -23.6264   -8.2219   22.0762 C   0  0  0  0  0  0
  -22.4248   -8.0270   21.3546 C   0  0  0  0  0  0
  -21.9882   -9.0230   20.4635 C   0  0  0  0  0  0
  -22.7194  -10.2118   20.3057 C   0  0  0  0  0  0
  -21.6849   -6.0738   22.5287 C   0  0  0  0  0  0
  -21.4020   -6.5645   23.8222 C   0  0  0  0  0  0
  -21.3645   -5.6797   24.9182 C   0  0  0  0  0  0
  -21.6036   -4.3055   24.7233 C   0  0  0  0  0  0
  -21.8811   -3.8149   23.4356 C   0  0  0  0  0  0
  -21.9190   -4.6970   22.3411 C   0  0  0  0  0  0
  -22.7858  -13.5250   21.1838 C   0  0  0  0  0  0
  -22.1653   -4.2158   21.0984 F   0  0  0  0  0  0
  -21.5619   -3.4534   25.7742 F   0  0  0  0  0  0
  -30.0279  -13.2414   20.4331 N   0  0  0  0  0  0
  -26.2987  -12.9224   20.3425 N   0  0  0  0  0  0
  -25.9263  -11.6402   20.5815 N   0  0  0  0  0  0
  -22.0490  -12.8252   22.0405 N   0  0  0  0  0  0
  -25.4372  -15.1824   20.4214 N   0  0  0  0  0  0
  -31.8856  -14.5478   20.1918 O   0  0  0  0  0  0
  -21.6628   -6.8859   21.4239 O   0  0  0  0  0  0
  -22.3560  -14.5562   20.6700 O   0  0  0  0  0  0
  -24.6141  -31.8719   23.2146 C   0  0  0  0  0  0
  -25.9055  -32.4852   23.8431 C   0  0  1  0  0  0
  -27.2107  -27.4480   20.0748 C   0  0  0  0  0  0
  -25.5925  -33.8641   24.2359 N   0  0  0  0  0  0
  -23.3955  -30.5036   21.5599 C   0  0  2  0  0  0
  -24.8309  -28.9765   20.1206 C   0  0  0  0  0  0
  -22.7401  -29.4695   22.5028 C   0  0  0  0  0  0
  -18.0262  -28.1364   22.8487 C   0  0  0  0  0  0
  -24.1485  -36.7318   23.2620 C   0  0  0  0  0  0
  -25.9257  -30.8474   21.3553 C   0  0  0  0  0  0
  -26.0007  -29.4846   20.6989 C   0  0  0  0  0  0
  -27.1976  -28.7329   20.6627 C   0  0  0  0  0  0
  -26.0076  -26.9432   19.5271 C   0  0  0  0  0  0
  -24.8298  -27.7039   19.5349 C   0  0  0  0  0  0
  -23.5959  -29.8450   20.1726 C   0  0  0  0  0  0
  -25.4102  -36.3111   24.0331 C   0  0  1  0  0  0
  -20.5856  -28.3642   23.1320 C   0  0  2  0  0  0
  -20.6760  -26.9384   22.5410 C   0  0  0  0  0  0
  -19.5746  -26.6387   21.5194 C   0  0  0  0  0  0
  -18.1914  -26.7928   22.1600 C   0  0  0  0  0  0
  -19.1518  -28.8816   23.2903 C   0  0  0  0  0  0
  -18.9443  -30.1424   23.8910 C   0  0  0  0  0  0
  -17.6448  -30.6567   24.0546 C   0  0  0  0  0  0
  -25.9035  -34.9484   23.5129 C   0  0  0  0  0  0
  -16.5332  -29.9062   23.6334 C   0  0  0  0  0  0
  -16.7256  -28.6480   23.0358 C   0  0  0  0  0  0
  -26.4484  -31.6612   25.0748 C   0  0  0  0  0  0
  -25.3765  -31.3676   26.1499 C   0  0  0  0  0  0
  -27.0316  -30.3077   24.6060 C   0  0  0  0  0  0
  -27.6074  -32.4322   25.7525 C   0  0  0  0  0  0
  -27.5581  -37.1790   24.8447 C   0  0  0  0  0  0
  -21.4137  -29.3040   22.3759 N   0  0  0  0  0  0
  -26.4268  -37.3804   23.9431 N   0  0  0  0  0  0
  -24.6658  -31.0860   22.1027 N   0  0  0  0  0  0
  -23.4216  -28.8212   23.3009 O   0  0  0  0  0  0
  -28.3884  -26.7308   20.0461 O   0  0  0  0  0  0
  -26.5556  -34.8906   22.4666 O   0  0  0  0  0  0
  -23.5355  -32.1459   23.7560 O   0  0  0  0  0  0
  -29.9441  -20.6413   19.3646 C   0  0  0  0  0  0
  -29.3581  -21.8519   18.9662 C   0  0  0  0  0  0
  -29.2161  -19.8239   20.2502 C   0  0  0  0  0  0
  -28.0946  -22.1678   19.5016 C   0  0  0  0  0  0
  -29.4946  -17.7614   21.8184 C   0  0  0  0  0  0
  -28.9408  -17.4903   19.4291 C   0  0  0  0  0  0
  -30.0639  -16.3202   21.8716 C   0  0  0  0  0  0
  -29.6907  -16.1693   19.3411 C   0  0  0  0  0  0
  -29.6584  -18.3823   20.4275 C   0  0  0  0  0  0
  -28.0971  -24.5393   18.8789 C   0  0  0  0  0  0
  -28.2862  -25.3129   20.2004 C   0  0  0  0  0  0
  -28.0071  -20.1912   20.7471 N   0  0  0  0  0  0
  -27.4651  -21.3623   20.3895 N   0  0  0  0  0  0
  -29.9187  -15.5009   20.6425 N   0  0  0  0  0  0
  -27.3736  -23.2879   19.0985 N   0  0  0  0  0  0
  -31.4555  -12.3296   19.1283 H   0  0  0  0  0  0
  -30.2768  -11.2441   19.8151 H   0  0  0  0  0  0
  -29.7085  -11.7546   17.4170 H   0  0  0  0  0  0
  -29.6706  -13.4586   17.7611 H   0  0  0  0  0  0
  -27.7993  -11.3057   18.7958 H   0  0  0  0  0  0
  -27.3568  -12.6506   17.7879 H   0  0  0  0  0  0
  -27.6812  -14.2351   19.5958 H   0  0  0  0  0  0
  -28.6543  -11.9513   21.3796 H   0  0  0  0  0  0
  -28.4885  -13.6187   21.8584 H   0  0  0  0  0  0
  -25.2708   -9.5681   22.4798 H   0  0  0  0  0  0
  -23.9977   -7.4614   22.7487 H   0  0  0  0  0  0
  -21.0822   -8.8717   19.8943 H   0  0  0  0  0  0
  -22.3637  -10.9651   19.6169 H   0  0  0  0  0  0
  -21.2021   -7.6152   23.9722 H   0  0  0  0  0  0
  -21.1473   -6.0533   25.9079 H   0  0  0  0  0  0
  -22.0605   -2.7616   23.2850 H   0  0  0  0  0  0
  -22.4103  -11.9904   22.4773 H   0  0  0  0  0  0
  -21.1131  -13.1316   22.2663 H   0  0  0  0  0  0
  -24.6840  -15.8462   20.5635 H   0  0  0  0  0  0
  -26.3185  -15.6218   20.1866 H   0  0  0  0  0  0
  -26.7114  -32.5569   23.1190 H   0  0  0  0  0  0
  -25.0174  -33.9830   25.0570 H   0  0  0  0  0  0
  -22.6848  -31.3222   21.4300 H   0  0  0  0  0  0
  -23.3766  -35.9629   23.3247 H   0  0  0  0  0  0
  -24.3572  -36.8988   22.2038 H   0  0  0  0  0  0
  -23.7222  -37.6495   23.6674 H   0  0  0  0  0  0
  -26.0205  -31.6156   20.5834 H   0  0  0  0  0  0
  -26.8196  -30.9036   21.9669 H   0  0  0  0  0  0
  -28.1066  -29.1248   21.0966 H   0  0  0  0  0  0
  -25.9358  -25.9598   19.0937 H   0  0  0  0  0  0
  -23.9217  -27.3015   19.1054 H   0  0  0  0  0  0
  -23.6950  -30.6239   19.4154 H   0  0  0  0  0  0
  -22.7149  -29.2693   19.8795 H   0  0  0  0  0  0
  -25.1268  -36.1949   25.0822 H   0  0  0  0  0  0
  -20.9927  -28.3168   24.1441 H   0  0  0  0  0  0
  -20.5651  -26.2233   23.3586 H   0  0  0  0  0  0
  -21.6629  -26.7432   22.1193 H   0  0  0  0  0  0
  -19.6916  -25.6305   21.1196 H   0  0  0  0  0  0
  -19.6693  -27.3216   20.6739 H   0  0  0  0  0  0
  -17.4200  -26.6691   21.3973 H   0  0  0  0  0  0
  -18.0280  -26.0052   22.8973 H   0  0  0  0  0  0
  -19.7912  -30.7232   24.2301 H   0  0  0  0  0  0
  -17.4990  -31.6251   24.5139 H   0  0  0  0  0  0
  -15.5328  -30.2949   23.7659 H   0  0  0  0  0  0
  -15.8664  -28.0778   22.7096 H   0  0  0  0  0  0
  -24.6001  -30.6937   25.7862 H   0  0  0  0  0  0
  -24.8863  -32.2794   26.4927 H   0  0  0  0  0  0
  -25.8140  -30.8918   27.0286 H   0  0  0  0  0  0
  -26.2859  -29.6865   24.1069 H   0  0  0  0  0  0
  -27.4099  -29.7253   25.4469 H   0  0  0  0  0  0
  -27.8677  -30.4460   23.9195 H   0  0  0  0  0  0
  -27.2738  -33.3665   26.2054 H   0  0  0  0  0  0
  -28.3909  -32.6809   25.0359 H   0  0  0  0  0  0
  -28.0696  -31.8470   26.5482 H   0  0  0  0  0  0
  -28.2523  -38.0158   24.7589 H   0  0  0  0  0  0
  -28.1152  -36.2692   24.6152 H   0  0  0  0  0  0
  -27.2302  -37.1280   25.8841 H   0  0  0  0  0  0
  -20.9286  -29.8813   21.7029 H   0  0  0  0  0  0
  -26.0153  -38.2864   24.1507 H   0  0  0  0  0  0
  -30.8742  -20.3071   18.9272 H   0  0  0  0  0  0
  -29.8397  -22.4595   18.2182 H   0  0  0  0  0  0
  -29.9920  -18.3761   22.5692 H   0  0  0  0  0  0
  -28.4372  -17.7425   22.0879 H   0  0  0  0  0  0
  -27.8985  -17.3432   19.7129 H   0  0  0  0  0  0
  -28.9325  -17.9607   18.4438 H   0  0  0  0  0  0
  -29.6006  -15.7859   22.7032 H   0  0  0  0  0  0
  -31.1241  -16.3883   22.1224 H   0  0  0  0  0  0
  -30.6529  -16.3670   18.8636 H   0  0  0  0  0  0
  -29.1618  -15.5107   18.6534 H   0  0  0  0  0  0
  -30.7256  -18.3660   20.1944 H   0  0  0  0  0  0
  -29.0646  -24.3900   18.4006 H   0  0  0  0  0  0
  -27.5269  -25.1180   18.1540 H   0  0  0  0  0  0
  -29.2018  -24.9583   20.6724 H   0  0  0  0  0  0
  -27.4886  -25.0754   20.9075 H   0  0  0  0  0  0
  -26.4737  -23.3655   19.5609 H   0  0  0  0  0  0
  1 25  1  0  0  0
  1 30  2  0  0  0
  1 84  1  0  0  0
  2  3  1  0  0  0
  2 25  1  0  0  0
  2 86  1  0  0  0
  2 87  1  0  0  0
  3  4  1  0  0  0
  3 88  1  0  0  0
  3 89  1  0  0  0
  4  5  1  0  0  0
  4 90  1  0  0  0
  4 91  1  0  0  0
  5  6  1  0  0  0
  5 26  1  0  0  0
  5 92  1  0  0  0
  6 25  1  0  0  0
  6 93  1  0  0  0
  6 94  1  0  0  0
  7  8  2  0  0  0
  7 26  1  0  0  0
  7 29  1  0  0  0
  8  9  1  0  0  0
  8 22  1  0  0  0
  9 10  1  0  0  0
  9 27  2  0  0  0
 10 11  2  0  0  0
 10 15  1  0  0  0
 11 12  1  0  0  0
 11 95  1  0  0  0
 12 13  2  0  0  0
 12 96  1  0  0  0
 13 14  1  0  0  0
 13 31  1  0  0  0
 14 15  2  0  0  0
 14 97  1  0  0  0
 15 98  1  0  0  0
 16 17  2  0  0  0
 16 21  1  0  0  0
 16 31  1  0  0  0
 17 18  1  0  0  0
 17 99  1  0  0  0
 18 19  2  0  0  0
 18100  1  0  0  0
 19 20  1  0  0  0
 19 24  1  0  0  0
 20 21  2  0  0  0
 20101  1  0  0  0
 21 23  1  0  0  0
 22 28  1  0  0  0
 22 32  2  0  0  0
 26 27  1  0  0  0
 28102  1  0  0  0
 28103  1  0  0  0
 29104  1  0  0  0
 29105  1  0  0  0
 33 34  1  0  0  0
 33 66  1  0  0  0
 33 70  2  0  0  0
 34 36  1  0  0  0
 34 59  1  0  0  0
 34106  1  0  0  0
 35 44  2  0  0  0
 35 45  1  0  0  0
 35 68  1  0  0  0
 36 56  1  0  0  0
 36107  1  0  0  0
 37 39  1  0  0  0
 37 47  1  0  0  0
 37 66  1  0  0  0
 37108  1  0  0  0
 38 43  2  0  0  0
 38 46  1  0  0  0
 38 47  1  0  0  0
 39 64  1  0  0  0
 39 67  2  0  0  0
 40 52  1  0  0  0
 40 53  2  0  0  0
 40 58  1  0  0  0
 41109  1  0  0  0
 41110  1  0  0  0
 41111  1  0  0  0
 41 48  1  0  0  0
 42 43  1  0  0  0
 42 66  1  0  0  0
 42112  1  0  0  0
 42113  1  0  0  0
 43 44  1  0  0  0
 44114  1  0  0  0
 45 46  2  0  0  0
 45115  1  0  0  0
 46116  1  0  0  0
 47117  1  0  0  0
 47118  1  0  0  0
 48 56  1  0  0  0
 48 65  1  0  0  0
 48119  1  0  0  0
 49 50  1  0  0  0
 49 53  1  0  0  0
 49 64  1  0  0  0
 49120  1  0  0  0
 50 51  1  0  0  0
 50121  1  0  0  0
 50122  1  0  0  0
 51 52  1  0  0  0
 51123  1  0  0  0
 51124  1  0  0  0
 52125  1  0  0  0
 52126  1  0  0  0
 53 54  1  0  0  0
 54 55  2  0  0  0
 54127  1  0  0  0
 55 57  1  0  0  0
 55128  1  0  0  0
 56 69  2  0  0  0
 57 58  2  0  0  0
 57129  1  0  0  0
 58130  1  0  0  0
 59 60  1  0  0  0
 59 61  1  0  0  0
 59 62  1  0  0  0
 60131  1  0  0  0
 60132  1  0  0  0
 60133  1  0  0  0
 61134  1  0  0  0
 61135  1  0  0  0
 61136  1  0  0  0
 62137  1  0  0  0
 62138  1  0  0  0
 62139  1  0  0  0
 63 65  1  0  0  0
 63140  1  0  0  0
 63141  1  0  0  0
 63142  1  0  0  0
 64143  1  0  0  0
 65144  1  0  0  0
 68 81  1  0  0  0
 71 72  2  0  0  0
 71 73  1  0  0  0
 71145  1  0  0  0
 72 74  1  0  0  0
 72146  1  0  0  0
 73 82  2  0  0  0
 73 79  1  0  0  0
 74 83  2  0  0  0
 74 85  1  0  0  0
 75 77  1  0  0  0
 75 79  1  0  0  0
 75147  1  0  0  0
 75148  1  0  0  0
 76 78  1  0  0  0
 76 79  1  0  0  0
 76149  1  0  0  0
 76150  1  0  0  0
 77 84  1  0  0  0
 77151  1  0  0  0
 77152  1  0  0  0
 78 84  1  0  0  0
 78153  1  0  0  0
 78154  1  0  0  0
 79155  1  0  0  0
 80 81  1  0  0  0
 80 85  1  0  0  0
 80156  1  0  0  0
 80157  1  0  0  0
 81158  1  0  0  0
 81159  1  0  0  0
 82 83  1  0  0  0
 85160  1  0  0  0
M  ISO  4   1 100  68 101  81 101  84 100
M  END
> <chiral flag>
0

> <version>
0

> <s_m_source_file>
/data/baiqing/PycharmProjects/Reinvent-master-3.2/result/LINK_invent/BTK/process_docking_weight1_custom_sum_contain_oxygen_bond_distance_aromatic_linkinvent_7_9_3/rearranged_h_0198.sdf

> <i_m_source_file_index>
73

> <r_mmod_Potential_Energy-OPLS-2005>
144.729187011719

> <r_mmod_Stretch_Energy-OPLS-2005>
35.8981437683105

> <r_mmod_Bend_Energy-OPLS-2005>
116.470527648926

> <r_mmod_Torsional_Energy-OPLS-2005>
335.935119628906

> <r_mmod_Improper_Torsional_Energy-OPLS-2005>
18.6084613800049

> <r_mmod_Van_der_Waal_Energy-OPLS-2005>
171.506240844727

> <r_mmod_Electrostatic_Energy-OPLS-2005>
-328.9951171875

> <r_mmod_Solvation_Energy-OPLS-2005>
-220.50048828125

> <b_mmod_Minimization_Converged-OPLS-2005>
0

> <r_mmod_RMS_Derivative-OPLS-2005>
3.27512311935425

$$$$
73
                    3D
 Structure written by MMmdl.
165175  0  0  1  0            999 V2000
  -30.8067  -14.3242   20.7519 C   0  0  0  0  0  0
  -30.4209  -12.3063   19.3822 C   0  0  0  0  0  0
  -29.4796  -12.5414   18.1893 C   0  0  0  0  0  0
  -28.0072  -12.3875   18.6104 C   0  0  0  0  0  0
  -27.6697  -13.2053   19.8837 C   0  0  2  0  0  0
  -28.7091  -12.9407   20.9953 C   0  0  0  0  0  0
  -25.2629  -13.8185   20.5682 C   0  0  0  0  0  0
  -24.1860  -13.0450   20.9160 C   0  0  0  0  0  0
  -24.6405  -11.6922   20.8739 C   0  0  0  0  0  0
  -23.9067  -10.4305   21.0409 C   0  0  0  0  0  0
  -24.3621   -9.4217   21.9186 C   0  0  0  0  0  0
  -23.6298   -8.2253   22.0754 C   0  0  0  0  0  0
  -22.4281   -8.0292   21.3543 C   0  0  0  0  0  0
  -21.9916   -9.0268   20.4649 C   0  0  0  0  0  0
  -22.7247  -10.2148   20.3055 C   0  0  0  0  0  0
  -21.6853   -6.0742   22.5284 C   0  0  0  0  0  0
  -21.4014   -6.5643   23.8220 C   0  0  0  0  0  0
  -21.3658   -5.6790   24.9177 C   0  0  0  0  0  0
  -21.6045   -4.3053   24.7218 C   0  0  0  0  0  0
  -21.8818   -3.8148   23.4340 C   0  0  0  0  0  0
  -21.9191   -4.6971   22.3400 C   0  0  0  0  0  0
  -22.7883  -13.5269   21.1800 C   0  0  0  0  0  0
  -22.1657   -4.2165   21.0973 F   0  0  0  0  0  0
  -21.5627   -3.4529   25.7724 F   0  0  0  0  0  0
  -30.0573  -13.2266   20.4707 N   0  0  0  0  0  0
  -26.3074  -12.9349   20.3414 N   0  0  0  0  0  0
  -25.9343  -11.6509   20.5796 N   0  0  0  0  0  0
  -22.0489  -12.8312   22.0377 N   0  0  0  0  0  0
  -25.4380  -15.1900   20.4122 N   0  0  0  0  0  0
  -31.7319  -14.7066   20.0273 O   0  0  0  0  0  0
  -21.6643   -6.8893   21.4248 O   0  0  0  0  0  0
  -22.3586  -14.5565   20.6622 O   0  0  0  0  0  0
  -24.6137  -31.8681   23.2115 C   0  0  0  0  0  0
  -25.9036  -32.4828   23.8406 C   0  0  1  0  0  0
  -27.2455  -27.4619   20.0691 C   0  0  0  0  0  0
  -25.5906  -33.8626   24.2340 N   0  0  0  0  0  0
  -23.3979  -30.4934   21.5512 C   0  0  2  0  0  0
  -24.8423  -28.9556   20.1197 C   0  0  0  0  0  0
  -22.7375  -29.4661   22.4981 C   0  0  0  0  0  0
  -18.0247  -28.1396   22.8502 C   0  0  0  0  0  0
  -24.1476  -36.7301   23.2629 C   0  0  0  0  0  0
  -25.9249  -30.8379   21.3617 C   0  0  0  0  0  0
  -26.0000  -29.4729   20.7106 C   0  0  0  0  0  0
  -27.1987  -28.7307   20.6872 C   0  0  0  0  0  0
  -26.0596  -26.9423   19.4951 C   0  0  0  0  0  0
  -24.8636  -27.6866   19.5168 C   0  0  0  0  0  0
  -23.6054  -29.8240   20.1665 C   0  0  0  0  0  0
  -25.4097  -36.3113   24.0339 C   0  0  1  0  0  0
  -20.5835  -28.3655   23.1326 C   0  0  2  0  0  0
  -20.6729  -26.9388   22.5416 C   0  0  0  0  0  0
  -19.5705  -26.6384   21.5218 C   0  0  0  0  0  0
  -18.1898  -26.7937   22.1649 C   0  0  0  0  0  0
  -19.1510  -28.8835   23.2926 C   0  0  0  0  0  0
  -18.9449  -30.1434   23.8947 C   0  0  0  0  0  0
  -17.6458  -30.6596   24.0606 C   0  0  0  0  0  0
  -25.9022  -34.9478   23.5127 C   0  0  0  0  0  0
  -16.5345  -29.9114   23.6354 C   0  0  0  0  0  0
  -16.7244  -28.6539   23.0345 C   0  0  0  0  0  0
  -26.4477  -31.6605   25.0725 C   0  0  0  0  0  0
  -25.3776  -31.3709   26.1501 C   0  0  0  0  0  0
  -27.0267  -30.3047   24.6072 C   0  0  0  0  0  0
  -27.6067  -32.4315   25.7479 C   0  0  0  0  0  0
  -27.5588  -37.1780   24.8450 C   0  0  0  0  0  0
  -21.4098  -29.3057   22.3766 N   0  0  0  0  0  0
  -26.4274  -37.3814   23.9433 N   0  0  0  0  0  0
  -24.6634  -31.0797   22.1007 N   0  0  0  0  0  0
  -23.4162  -28.8171   23.2983 O   0  0  0  0  0  0
  -28.4640  -26.8163   20.0516 O   0  0  0  0  0  0
  -26.5567  -34.8933   22.4681 O   0  0  0  0  0  0
  -23.5343  -32.1431   23.7530 O   0  0  0  0  0  0
  -29.9847  -18.9745   20.6158 C   0  0  0  0  0  0
  -30.4169  -17.7412   21.1422 C   0  0  0  0  0  0
  -28.6409  -19.3441   20.8293 C   0  0  0  0  0  0
  -29.4724  -16.9613   21.8453 C   0  0  0  0  0  0
  -27.4527  -21.5779   21.4140 C   0  0  0  0  0  0
  -31.8940  -15.1852   22.8248 C   0  0  0  0  0  0
  -28.0857  -20.6640   20.3773 C   0  0  1  0  0  0
  -29.8583  -15.7133   22.6475 C   0  0  2  0  0  0
  -30.8966  -15.8576   23.7644 C   0  0  1  0  0  0
  -28.7448  -21.9826   20.7493 C   0  0  1  0  0  0
  -30.6245  -15.2222   25.1242 C   0  0  0  0  0  0
  -28.3662  -24.4125   20.3888 C   0  0  0  0  0  0
  -28.6188  -25.5577   19.3960 C   0  0  0  0  0  0
  -27.7692  -18.5246   21.4682 N   0  0  0  0  0  0
  -28.1826  -17.3585   21.9773 N   0  0  0  0  0  0
  -30.7508  -14.7118   22.0393 N   0  0  0  0  0  0
  -28.5754  -23.0822   19.7690 N   0  3  0  0  0  0
  -31.4610  -12.4244   19.0698 H   0  0  0  0  0  0
  -30.3393  -11.2769   19.7351 H   0  0  0  0  0  0
  -29.7118  -11.8392   17.3880 H   0  0  0  0  0  0
  -29.6468  -13.5394   17.7824 H   0  0  0  0  0  0
  -27.8180  -11.3281   18.7875 H   0  0  0  0  0  0
  -27.3482  -12.6792   17.7916 H   0  0  0  0  0  0
  -27.7295  -14.2611   19.6185 H   0  0  0  0  0  0
  -28.6648  -11.8975   21.3114 H   0  0  0  0  0  0
  -28.4576  -13.5174   21.8813 H   0  0  0  0  0  0
  -25.2755   -9.5697   22.4776 H   0  0  0  0  0  0
  -23.9997   -7.4646   22.7475 H   0  0  0  0  0  0
  -21.0841   -8.8791   19.8967 H   0  0  0  0  0  0
  -22.3695  -10.9689   19.6173 H   0  0  0  0  0  0
  -21.2006   -7.6148   23.9741 H   0  0  0  0  0  0
  -21.1486   -6.0505   25.9087 H   0  0  0  0  0  0
  -22.0598   -2.7612   23.2828 H   0  0  0  0  0  0
  -22.4047  -11.9979   22.4815 H   0  0  0  0  0  0
  -21.1108  -13.1406   22.2511 H   0  0  0  0  0  0
  -24.6901  -15.8570   20.5642 H   0  0  0  0  0  0
  -26.3234  -15.6372   20.2061 H   0  0  0  0  0  0
  -26.7094  -32.5537   23.1160 H   0  0  0  0  0  0
  -25.0122  -33.9813   25.0536 H   0  0  0  0  0  0
  -22.6883  -31.3116   21.4117 H   0  0  0  0  0  0
  -23.3763  -35.9603   23.3272 H   0  0  0  0  0  0
  -24.3584  -36.8941   22.2048 H   0  0  0  0  0  0
  -23.7194  -37.6490   23.6646 H   0  0  0  0  0  0
  -26.0355  -31.6026   20.5918 H   0  0  0  0  0  0
  -26.8157  -30.8924   21.9758 H   0  0  0  0  0  0
  -28.0983  -29.1356   21.1310 H   0  0  0  0  0  0
  -26.0282  -25.9736   19.0197 H   0  0  0  0  0  0
  -23.9673  -27.2816   19.0656 H   0  0  0  0  0  0
  -23.7232  -30.5997   19.4093 H   0  0  0  0  0  0
  -22.7274  -29.2488   19.8641 H   0  0  0  0  0  0
  -25.1270  -36.1963   25.0831 H   0  0  0  0  0  0
  -20.9918  -28.3189   24.1447 H   0  0  0  0  0  0
  -20.5578  -26.2254   23.3595 H   0  0  0  0  0  0
  -21.6604  -26.7380   22.1238 H   0  0  0  0  0  0
  -19.6828  -25.6286   21.1242 H   0  0  0  0  0  0
  -19.6655  -27.3193   20.6744 H   0  0  0  0  0  0
  -17.4138  -26.6642   21.4082 H   0  0  0  0  0  0
  -18.0336  -26.0102   22.9075 H   0  0  0  0  0  0
  -19.7925  -30.7239   24.2339 H   0  0  0  0  0  0
  -17.5028  -31.6268   24.5221 H   0  0  0  0  0  0
  -15.5354  -30.3041   23.7686 H   0  0  0  0  0  0
  -15.8635  -28.0897   22.7024 H   0  0  0  0  0  0
  -24.5920  -30.7073   25.7873 H   0  0  0  0  0  0
  -24.9010  -32.2868   26.4995 H   0  0  0  0  0  0
  -25.8185  -30.8857   27.0219 H   0  0  0  0  0  0
  -26.2777  -29.6844   24.1130 H   0  0  0  0  0  0
  -27.4048  -29.7256   25.4505 H   0  0  0  0  0  0
  -27.8623  -30.4379   23.9196 H   0  0  0  0  0  0
  -27.2692  -33.3610   26.2077 H   0  0  0  0  0  0
  -28.3869  -32.6885   25.0299 H   0  0  0  0  0  0
  -28.0731  -31.8417   26.5378 H   0  0  0  0  0  0
  -28.2549  -38.0136   24.7613 H   0  0  0  0  0  0
  -28.1148  -36.2681   24.6131 H   0  0  0  0  0  0
  -27.2319  -37.1254   25.8852 H   0  0  0  0  0  0
  -20.9201  -29.8901   21.7135 H   0  0  0  0  0  0
  -26.0154  -38.2872   24.1533 H   0  0  0  0  0  0
  -30.6713  -19.6287   20.0983 H   0  0  0  0  0  0
  -31.4480  -17.4359   21.0484 H   0  0  0  0  0  0
  -27.5184  -21.2837   22.4608 H   0  0  0  0  0  0
  -26.5338  -22.0894   21.1330 H   0  0  0  0  0  0
  -32.4786  -14.3942   23.2949 H   0  0  0  0  0  0
  -32.5471  -15.8879   22.3027 H   0  0  0  0  0  0
  -27.5873  -20.5703   19.4132 H   0  0  0  0  0  0
  -28.9525  -15.2677   23.0588 H   0  0  0  0  0  0
  -31.1742  -16.9064   23.8882 H   0  0  0  0  0  0
  -29.6659  -22.0032   21.3312 H   0  0  0  0  0  0
  -30.1704  -14.2365   25.0229 H   0  0  0  0  0  0
  -29.9526  -15.8381   25.7225 H   0  0  0  0  0  0
  -31.5452  -15.1024   25.6947 H   0  0  0  0  0  0
  -27.3530  -24.4723   20.7843 H   0  0  0  0  0  0
  -29.0454  -24.5304   21.2351 H   0  0  0  0  0  0
  -28.0198  -25.4675   18.4897 H   0  0  0  0  0  0
  -29.6543  -25.5121   19.0575 H   0  0  0  0  0  0
  -27.8171  -22.8766   19.1381 H   0  0  0  0  0  0
  -29.4152  -23.1195   19.2113 H   0  0  0  0  0  0
  1 25  1  0  0  0
  1 30  2  0  0  0
  1 86  1  0  0  0
  2  3  1  0  0  0
  2 25  1  0  0  0
  2 88  1  0  0  0
  2 89  1  0  0  0
  3  4  1  0  0  0
  3 90  1  0  0  0
  3 91  1  0  0  0
  4  5  1  0  0  0
  4 92  1  0  0  0
  4 93  1  0  0  0
  5  6  1  0  0  0
  5 26  1  0  0  0
  5 94  1  0  0  0
  6 25  1  0  0  0
  6 95  1  0  0  0
  6 96  1  0  0  0
  7  8  2  0  0  0
  7 26  1  0  0  0
  7 29  1  0  0  0
  8  9  1  0  0  0
  8 22  1  0  0  0
  9 10  1  0  0  0
  9 27  2  0  0  0
 10 11  2  0  0  0
 10 15  1  0  0  0
 11 12  1  0  0  0
 11 97  1  0  0  0
 12 13  2  0  0  0
 12 98  1  0  0  0
 13 14  1  0  0  0
 13 31  1  0  0  0
 14 15  2  0  0  0
 14 99  1  0  0  0
 15100  1  0  0  0
 16 17  2  0  0  0
 16 21  1  0  0  0
 16 31  1  0  0  0
 17 18  1  0  0  0
 17101  1  0  0  0
 18 19  2  0  0  0
 18102  1  0  0  0
 19 20  1  0  0  0
 19 24  1  0  0  0
 20 21  2  0  0  0
 20103  1  0  0  0
 21 23  1  0  0  0
 22 28  1  0  0  0
 22 32  2  0  0  0
 26 27  1  0  0  0
 28104  1  0  0  0
 28105  1  0  0  0
 29106  1  0  0  0
 29107  1  0  0  0
 33 34  1  0  0  0
 33 66  1  0  0  0
 33 70  2  0  0  0
 34 36  1  0  0  0
 34 59  1  0  0  0
 34108  1  0  0  0
 35 44  2  0  0  0
 35 45  1  0  0  0
 35 68  1  0  0  0
 36 56  1  0  0  0
 36109  1  0  0  0
 37 39  1  0  0  0
 37 47  1  0  0  0
 37 66  1  0  0  0
 37110  1  0  0  0
 38 43  2  0  0  0
 38 46  1  0  0  0
 38 47  1  0  0  0
 39 64  1  0  0  0
 39 67  2  0  0  0
 40 52  1  0  0  0
 40 53  2  0  0  0
 40 58  1  0  0  0
 41111  1  0  0  0
 41112  1  0  0  0
 41113  1  0  0  0
 41 48  1  0  0  0
 42 43  1  0  0  0
 42 66  1  0  0  0
 42114  1  0  0  0
 42115  1  0  0  0
 43 44  1  0  0  0
 44116  1  0  0  0
 45 46  2  0  0  0
 45117  1  0  0  0
 46118  1  0  0  0
 47119  1  0  0  0
 47120  1  0  0  0
 48 56  1  0  0  0
 48 65  1  0  0  0
 48121  1  0  0  0
 49 50  1  0  0  0
 49 53  1  0  0  0
 49 64  1  0  0  0
 49122  1  0  0  0
 50 51  1  0  0  0
 50123  1  0  0  0
 50124  1  0  0  0
 51 52  1  0  0  0
 51125  1  0  0  0
 51126  1  0  0  0
 52127  1  0  0  0
 52128  1  0  0  0
 53 54  1  0  0  0
 54 55  2  0  0  0
 54129  1  0  0  0
 55 57  1  0  0  0
 55130  1  0  0  0
 56 69  2  0  0  0
 57 58  2  0  0  0
 57131  1  0  0  0
 58132  1  0  0  0
 59 60  1  0  0  0
 59 61  1  0  0  0
 59 62  1  0  0  0
 60133  1  0  0  0
 60134  1  0  0  0
 60135  1  0  0  0
 61136  1  0  0  0
 61137  1  0  0  0
 61138  1  0  0  0
 62139  1  0  0  0
 62140  1  0  0  0
 62141  1  0  0  0
 63 65  1  0  0  0
 63142  1  0  0  0
 63143  1  0  0  0
 63144  1  0  0  0
 64145  1  0  0  0
 65146  1  0  0  0
 68 83  1  0  0  0
 71 72  2  0  0  0
 71 73  1  0  0  0
 71147  1  0  0  0
 72 74  1  0  0  0
 72148  1  0  0  0
 73 84  2  0  0  0
 73 77  1  0  0  0
 74 85  2  0  0  0
 74 78  1  0  0  0
 75 77  1  0  0  0
 75 80  1  0  0  0
 75149  1  0  0  0
 75150  1  0  0  0
 76 79  1  0  0  0
 76 86  1  0  0  0
 76151  1  0  0  0
 76152  1  0  0  0
 77 80  1  0  0  0
 77153  1  0  0  0
 78 79  1  0  0  0
 78 86  1  0  0  0
 78154  1  0  0  0
 79 81  1  0  0  0
 79155  1  0  0  0
 80 87  1  0  0  0
 80156  1  0  0  0
 81157  1  0  0  0
 81158  1  0  0  0
 81159  1  0  0  0
 82 83  1  0  0  0
 82 87  1  0  0  0
 82160  1  0  0  0
 82161  1  0  0  0
 83162  1  0  0  0
 83163  1  0  0  0
 84 85  1  0  0  0
 87164  1  0  0  0
 87165  1  0  0  0
M  CHG  1  87   1
M  ISO  4   1 100  68 101  83 101  86 100
M  END
> <chiral flag>
0

> <version>
0

> <s_m_source_file>
/data/baiqing/PycharmProjects/Reinvent-master-3.2/result/LINK_invent/BTK/process_docking_weight1_custom_sum_contain_oxygen_bond_distance_aromatic_linkinvent_7_9_3/rearranged_h_0198.sdf

> <i_m_source_file_index>
74

> <r_mmod_Potential_Energy-OPLS-2005>
-108.631645202637

> <r_mmod_Stretch_Energy-OPLS-2005>
35.1002311706543

> <r_mmod_Bend_Energy-OPLS-2005>
114.75569152832

> <r_mmod_Torsional_Energy-OPLS-2005>
304.32080078125

> <r_mmod_Improper_Torsional_Energy-OPLS-2005>
16.6271114349365

> <r_mmod_Van_der_Waal_Energy-OPLS-2005>
143.080917358398

> <r_mmod_Electrostatic_Energy-OPLS-2005>
-245.821899414062

> <r_mmod_Solvation_Energy-OPLS-2005>
-486.500122070312

> <b_mmod_Minimization_Converged-OPLS-2005>
0

> <r_mmod_RMS_Derivative-OPLS-2005>
2.336421251297

$$$$
74
                    3D
 Structure written by MMmdl.
164172  0  0  1  0            999 V2000
  -30.6673  -14.5063   20.6748 C   0  0  0  0  0  0
  -30.4326  -12.3728   19.4166 C   0  0  0  0  0  0
  -29.4919  -12.5493   18.2043 C   0  0  0  0  0  0
  -28.0186  -12.3531   18.6132 C   0  0  0  0  0  0
  -27.6567  -13.1732   19.8745 C   0  0  2  0  0  0
  -28.7018  -12.9116   20.9909 C   0  0  0  0  0  0
  -25.2528  -13.8060   20.5617 C   0  0  0  0  0  0
  -24.1760  -13.0391   20.9189 C   0  0  0  0  0  0
  -24.6285  -11.6851   20.8733 C   0  0  0  0  0  0
  -23.8940  -10.4258   21.0380 C   0  0  0  0  0  0
  -24.3534   -9.4203   21.9171 C   0  0  0  0  0  0
  -23.6247   -8.2210   22.0754 C   0  0  0  0  0  0
  -22.4229   -8.0229   21.3539 C   0  0  0  0  0  0
  -21.9824   -9.0181   20.4657 C   0  0  0  0  0  0
  -22.7117  -10.2079   20.3043 C   0  0  0  0  0  0
  -21.6833   -6.0697   22.5280 C   0  0  0  0  0  0
  -21.4002   -6.5644   23.8222 C   0  0  0  0  0  0
  -21.3655   -5.6791   24.9189 C   0  0  0  0  0  0
  -21.6034   -4.3038   24.7232 C   0  0  0  0  0  0
  -21.8817   -3.8131   23.4363 C   0  0  0  0  0  0
  -21.9187   -4.6936   22.3408 C   0  0  0  0  0  0
  -22.7806  -13.5234   21.1851 C   0  0  0  0  0  0
  -22.1639   -4.2123   21.0972 F   0  0  0  0  0  0
  -21.5654   -3.4533   25.7752 F   0  0  0  0  0  0
  -30.0096  -13.3218   20.4695 N   0  0  0  0  0  0
  -26.2944  -12.9170   20.3318 N   0  0  0  0  0  0
  -25.9201  -11.6376   20.5725 N   0  0  0  0  0  0
  -22.0412  -12.8265   22.0444 N   0  0  0  0  0  0
  -25.4179  -15.1774   20.3926 N   0  0  0  0  0  0
  -31.7706  -14.6964   20.1388 O   0  0  0  0  0  0
  -21.6614   -6.8824   21.4230 O   0  0  0  0  0  0
  -22.3528  -14.5551   20.6716 O   0  0  0  0  0  0
  -24.6173  -31.8676   23.1990 C   0  0  0  0  0  0
  -25.9066  -32.4806   23.8295 C   0  0  1  0  0  0
  -27.2415  -27.4207   20.0799 C   0  0  0  0  0  0
  -25.5945  -33.8605   24.2226 N   0  0  0  0  0  0
  -23.4046  -30.4874   21.5423 C   0  0  2  0  0  0
  -24.8485  -28.9413   20.1133 C   0  0  0  0  0  0
  -22.7419  -29.4670   22.4942 C   0  0  0  0  0  0
  -18.0294  -28.1424   22.8486 C   0  0  0  0  0  0
  -24.1493  -36.7280   23.2601 C   0  0  0  0  0  0
  -25.9313  -30.8220   21.3550 C   0  0  0  0  0  0
  -26.0064  -29.4520   20.7094 C   0  0  0  0  0  0
  -27.2012  -28.6949   20.6953 C   0  0  0  0  0  0
  -26.0586  -26.9205   19.4874 C   0  0  0  0  0  0
  -24.8688  -27.6737   19.5025 C   0  0  0  0  0  0
  -23.6120  -29.8089   20.1601 C   0  0  0  0  0  0
  -25.4109  -36.3087   24.0326 C   0  0  1  0  0  0
  -20.5885  -28.3716   23.1314 C   0  0  2  0  0  0
  -20.6795  -26.9452   22.5434 C   0  0  0  0  0  0
  -19.5785  -26.6421   21.5229 C   0  0  0  0  0  0
  -18.1947  -26.7980   22.1597 C   0  0  0  0  0  0
  -19.1544  -28.8876   23.2898 C   0  0  0  0  0  0
  -18.9472  -30.1477   23.8911 C   0  0  0  0  0  0
  -17.6471  -30.6614   24.0581 C   0  0  0  0  0  0
  -25.9085  -34.9489   23.5071 C   0  0  0  0  0  0
  -16.5359  -29.9118   23.6343 C   0  0  0  0  0  0
  -16.7286  -28.6549   23.0337 C   0  0  0  0  0  0
  -26.4485  -31.6607   25.0647 C   0  0  0  0  0  0
  -25.3705  -31.3831   26.1369 C   0  0  0  0  0  0
  -27.0268  -30.3010   24.6076 C   0  0  0  0  0  0
  -27.6062  -32.4321   25.7420 C   0  0  0  0  0  0
  -27.5660  -37.1681   24.8367 C   0  0  0  0  0  0
  -21.4136  -29.3060   22.3694 N   0  0  0  0  0  0
  -26.4230  -37.3851   23.9541 N   0  0  0  0  0  0
  -24.6696  -31.0748   22.0905 N   0  0  0  0  0  0
  -23.4178  -28.8234   23.3025 O   0  0  0  0  0  0
  -28.4425  -26.7319   20.0868 O   0  0  0  0  0  0
  -26.5641  -34.8975   22.4628 O   0  0  0  0  0  0
  -23.5367  -32.1435   23.7389 O   0  0  0  0  0  0
  -28.5786  -17.2301   20.8170 C   0  0  0  0  0  0
  -30.9746  -17.8057   21.4210 C   0  0  0  0  0  0
  -28.7679  -15.9501   21.6494 C   0  0  0  0  0  0
  -31.0285  -16.4494   22.1834 C   0  0  0  0  0  0
  -29.5257  -18.3456   21.3006 C   0  0  0  0  0  0
  -29.8614  -19.4746   19.1066 C   0  0  0  0  0  0
  -29.7664  -20.8050   21.1515 C   0  0  0  0  0  0
  -28.7026  -21.9399   21.0415 C   0  0  0  0  0  0
  -28.1547  -24.2387   20.2232 C   0  0  0  0  0  0
  -28.6112  -25.4736   19.4036 C   0  0  0  0  0  0
  -30.1551  -15.4392   21.5466 N   0  0  0  0  0  0
  -29.3506  -19.5618   20.4792 N   0  0  0  0  0  0
  -29.0753  -23.0591   20.1307 N   0  3  0  0  0  0
  -31.4666  -12.5253   19.1120 H   0  0  0  0  0  0
  -30.3921  -11.3466   19.7896 H   0  0  0  0  0  0
  -29.7684  -11.8547   17.4123 H   0  0  0  0  0  0
  -29.6100  -13.5526   17.7883 H   0  0  0  0  0  0
  -27.8636  -11.2905   18.8053 H   0  0  0  0  0  0
  -27.3567  -12.6191   17.7863 H   0  0  0  0  0  0
  -27.7014  -14.2128   19.5592 H   0  0  0  0  0  0
  -28.7337  -11.8459   21.2238 H   0  0  0  0  0  0
  -28.4578  -13.3644   21.9481 H   0  0  0  0  0  0
  -25.2664   -9.5745   22.4748 H   0  0  0  0  0  0
  -23.9997   -7.4612   22.7472 H   0  0  0  0  0  0
  -21.0754   -8.8657   19.8975 H   0  0  0  0  0  0
  -22.3525  -10.9607   19.6164 H   0  0  0  0  0  0
  -21.1981   -7.6149   23.9723 H   0  0  0  0  0  0
  -21.1482   -6.0515   25.9090 H   0  0  0  0  0  0
  -22.0602   -2.7590   23.2841 H   0  0  0  0  0  0
  -22.3967  -11.9945   22.4900 H   0  0  0  0  0  0
  -21.1023  -13.1345   22.2607 H   0  0  0  0  0  0
  -24.6435  -15.8231   20.5065 H   0  0  0  0  0  0
  -26.2543  -15.6232   20.0401 H   0  0  0  0  0  0
  -26.7128  -32.5520   23.1043 H   0  0  0  0  0  0
  -25.0162  -33.9757   25.0417 H   0  0  0  0  0  0
  -22.6981  -31.3083   21.3966 H   0  0  0  0  0  0
  -23.3885  -35.9451   23.2953 H   0  0  0  0  0  0
  -24.3664  -36.9207   22.2079 H   0  0  0  0  0  0
  -23.7024  -37.6297   23.6804 H   0  0  0  0  0  0
  -26.0428  -31.5813   20.5800 H   0  0  0  0  0  0
  -26.8211  -30.8792   21.9699 H   0  0  0  0  0  0
  -28.0973  -29.0904   21.1558 H   0  0  0  0  0  0
  -26.0320  -25.9524   19.0098 H   0  0  0  0  0  0
  -23.9792  -27.2783   19.0313 H   0  0  0  0  0  0
  -23.7066  -30.5748   19.3895 H   0  0  0  0  0  0
  -22.7382  -29.2206   19.8746 H   0  0  0  0  0  0
  -25.1244  -36.1859   25.0795 H   0  0  0  0  0  0
  -21.0007  -28.3296   24.1423 H   0  0  0  0  0  0
  -20.5744  -26.2334   23.3633 H   0  0  0  0  0  0
  -21.6654  -26.7540   22.1178 H   0  0  0  0  0  0
  -19.6960  -25.6329   21.1271 H   0  0  0  0  0  0
  -19.6764  -27.3224   20.6760 H   0  0  0  0  0  0
  -17.4267  -26.6776   21.3943 H   0  0  0  0  0  0
  -18.0297  -26.0102   22.8962 H   0  0  0  0  0  0
  -19.7951  -30.7286   24.2276 H   0  0  0  0  0  0
  -17.5044  -31.6293   24.5186 H   0  0  0  0  0  0
  -15.5361  -30.3031   23.7686 H   0  0  0  0  0  0
  -15.8674  -28.0900   22.7009 H   0  0  0  0  0  0
  -24.5878  -30.7174   25.7717 H   0  0  0  0  0  0
  -24.8903  -32.3053   26.4662 H   0  0  0  0  0  0
  -25.7991  -30.9107   27.0210 H   0  0  0  0  0  0
  -26.2796  -29.6797   24.1125 H   0  0  0  0  0  0
  -27.3975  -29.7253   25.4564 H   0  0  0  0  0  0
  -27.8675  -30.4252   23.9243 H   0  0  0  0  0  0
  -27.2684  -33.3651   26.1950 H   0  0  0  0  0  0
  -28.3910  -32.6825   25.0265 H   0  0  0  0  0  0
  -28.0671  -31.8455   26.5371 H   0  0  0  0  0  0
  -28.2322  -38.0316   24.8013 H   0  0  0  0  0  0
  -28.1509  -36.2953   24.5420 H   0  0  0  0  0  0
  -27.2521  -37.0350   25.8736 H   0  0  0  0  0  0
  -20.9322  -29.8738   21.6853 H   0  0  0  0  0  0
  -26.0089  -38.2823   24.1906 H   0  0  0  0  0  0
  -27.5463  -17.5737   20.9052 H   0  0  0  0  0  0
  -28.7369  -16.9900   19.7654 H   0  0  0  0  0  0
  -31.4068  -17.6500   20.4356 H   0  0  0  0  0  0
  -31.6074  -18.5329   21.9296 H   0  0  0  0  0  0
  -27.9916  -15.2767   21.3431 H   0  0  0  0  0  0
  -28.5363  -16.1564   22.6967 H   0  0  0  0  0  0
  -30.7147  -16.5965   23.2210 H   0  0  0  0  0  0
  -32.0601  -16.0998   22.2530 H   0  0  0  0  0  0
  -29.1830  -18.5891   22.3109 H   0  0  0  0  0  0
  -29.4972  -18.5889   18.5845 H   0  0  0  0  0  0
  -30.9521  -19.4550   19.0696 H   0  0  0  0  0  0
  -29.5285  -20.3280   18.5154 H   0  0  0  0  0  0
  -29.9024  -20.6049   22.2181 H   0  0  0  0  0  0
  -30.7527  -21.1298   20.8088 H   0  0  0  0  0  0
  -28.5517  -22.3494   22.0447 H   0  0  0  0  0  0
  -27.7339  -21.5278   20.7445 H   0  0  0  0  0  0
  -27.1462  -23.9544   19.9094 H   0  0  0  0  0  0
  -28.0821  -24.5369   21.2708 H   0  0  0  0  0  0
  -28.1620  -25.4787   18.4092 H   0  0  0  0  0  0
  -29.6849  -25.3985   19.2300 H   0  0  0  0  0  0
  -29.1158  -22.7039   19.1840 H   0  0  0  0  0  0
  -30.0082  -23.3642   20.3798 H   0  0  0  0  0  0
  1 25  1  0  0  0
  1 30  2  0  0  0
  1 81  1  0  0  0
  2  3  1  0  0  0
  2 25  1  0  0  0
  2 84  1  0  0  0
  2 85  1  0  0  0
  3  4  1  0  0  0
  3 86  1  0  0  0
  3 87  1  0  0  0
  4  5  1  0  0  0
  4 88  1  0  0  0
  4 89  1  0  0  0
  5  6  1  0  0  0
  5 26  1  0  0  0
  5 90  1  0  0  0
  6 25  1  0  0  0
  6 91  1  0  0  0
  6 92  1  0  0  0
  7  8  2  0  0  0
  7 26  1  0  0  0
  7 29  1  0  0  0
  8  9  1  0  0  0
  8 22  1  0  0  0
  9 10  1  0  0  0
  9 27  2  0  0  0
 10 11  2  0  0  0
 10 15  1  0  0  0
 11 12  1  0  0  0
 11 93  1  0  0  0
 12 13  2  0  0  0
 12 94  1  0  0  0
 13 14  1  0  0  0
 13 31  1  0  0  0
 14 15  2  0  0  0
 14 95  1  0  0  0
 15 96  1  0  0  0
 16 17  2  0  0  0
 16 21  1  0  0  0
 16 31  1  0  0  0
 17 18  1  0  0  0
 17 97  1  0  0  0
 18 19  2  0  0  0
 18 98  1  0  0  0
 19 20  1  0  0  0
 19 24  1  0  0  0
 20 21  2  0  0  0
 20 99  1  0  0  0
 21 23  1  0  0  0
 22 28  1  0  0  0
 22 32  2  0  0  0
 26 27  1  0  0  0
 28100  1  0  0  0
 28101  1  0  0  0
 29102  1  0  0  0
 29103  1  0  0  0
 33 34  1  0  0  0
 33 66  1  0  0  0
 33 70  2  0  0  0
 34 36  1  0  0  0
 34 59  1  0  0  0
 34104  1  0  0  0
 35 44  2  0  0  0
 35 45  1  0  0  0
 35 68  1  0  0  0
 36 56  1  0  0  0
 36105  1  0  0  0
 37 39  1  0  0  0
 37 47  1  0  0  0
 37 66  1  0  0  0
 37106  1  0  0  0
 38 43  2  0  0  0
 38 46  1  0  0  0
 38 47  1  0  0  0
 39 64  1  0  0  0
 39 67  2  0  0  0
 40 52  1  0  0  0
 40 53  2  0  0  0
 40 58  1  0  0  0
 41107  1  0  0  0
 41108  1  0  0  0
 41109  1  0  0  0
 41 48  1  0  0  0
 42 43  1  0  0  0
 42 66  1  0  0  0
 42110  1  0  0  0
 42111  1  0  0  0
 43 44  1  0  0  0
 44112  1  0  0  0
 45 46  2  0  0  0
 45113  1  0  0  0
 46114  1  0  0  0
 47115  1  0  0  0
 47116  1  0  0  0
 48 56  1  0  0  0
 48 65  1  0  0  0
 48117  1  0  0  0
 49 50  1  0  0  0
 49 53  1  0  0  0
 49 64  1  0  0  0
 49118  1  0  0  0
 50 51  1  0  0  0
 50119  1  0  0  0
 50120  1  0  0  0
 51 52  1  0  0  0
 51121  1  0  0  0
 51122  1  0  0  0
 52123  1  0  0  0
 52124  1  0  0  0
 53 54  1  0  0  0
 54 55  2  0  0  0
 54125  1  0  0  0
 55 57  1  0  0  0
 55126  1  0  0  0
 56 69  2  0  0  0
 57 58  2  0  0  0
 57127  1  0  0  0
 58128  1  0  0  0
 59 60  1  0  0  0
 59 61  1  0  0  0
 59 62  1  0  0  0
 60129  1  0  0  0
 60130  1  0  0  0
 60131  1  0  0  0
 61132  1  0  0  0
 61133  1  0  0  0
 61134  1  0  0  0
 62135  1  0  0  0
 62136  1  0  0  0
 62137  1  0  0  0
 63 65  1  0  0  0
 63138  1  0  0  0
 63139  1  0  0  0
 63140  1  0  0  0
 64141  1  0  0  0
 65142  1  0  0  0
 68 80  1  0  0  0
 71 73  1  0  0  0
 71 75  1  0  0  0
 71143  1  0  0  0
 71144  1  0  0  0
 72 74  1  0  0  0
 72 75  1  0  0  0
 72145  1  0  0  0
 72146  1  0  0  0
 73 81  1  0  0  0
 73147  1  0  0  0
 73148  1  0  0  0
 74 81  1  0  0  0
 74149  1  0  0  0
 74150  1  0  0  0
 75 82  1  0  0  0
 75151  1  0  0  0
 76 82  1  0  0  0
 76152  1  0  0  0
 76153  1  0  0  0
 76154  1  0  0  0
 77 78  1  0  0  0
 77 82  1  0  0  0
 77155  1  0  0  0
 77156  1  0  0  0
 78 83  1  0  0  0
 78157  1  0  0  0
 78158  1  0  0  0
 79 80  1  0  0  0
 79 83  1  0  0  0
 79159  1  0  0  0
 79160  1  0  0  0
 80161  1  0  0  0
 80162  1  0  0  0
 83163  1  0  0  0
 83164  1  0  0  0
M  CHG  1  83   1
M  ISO  4   1 100  68 101  80 101  81 100
M  END
> <chiral flag>
0

> <version>
0

> <s_m_source_file>
/data/baiqing/PycharmProjects/Reinvent-master-3.2/result/LINK_invent/BTK/process_docking_weight1_custom_sum_contain_oxygen_bond_distance_aromatic_linkinvent_7_9_3/rearranged_h_0198.sdf

> <i_m_source_file_index>
75

> <r_mmod_Potential_Energy-OPLS-2005>
58.2876205444336

> <r_mmod_Stretch_Energy-OPLS-2005>
48.132251739502

> <r_mmod_Bend_Energy-OPLS-2005>
147.415283203125

> <r_mmod_Torsional_Energy-OPLS-2005>
296.494079589844

> <r_mmod_Improper_Torsional_Energy-OPLS-2005>
3.72377395629883

> <r_mmod_Van_der_Waal_Energy-OPLS-2005>
152.702194213867

> <r_mmod_Electrostatic_Energy-OPLS-2005>
-168.969055175781

> <r_mmod_Solvation_Energy-OPLS-2005>
-438.882080078125

> <b_mmod_Minimization_Converged-OPLS-2005>
0

> <r_mmod_RMS_Derivative-OPLS-2005>
5.51130104064941

$$$$
75
                    3D
 Structure written by MMmdl.
149158  0  0  1  0            999 V2000
  -30.5601  -14.9094   20.4283 C   0  0  0  0  0  0
  -30.4385  -12.5629   19.4923 C   0  0  0  0  0  0
  -29.5183  -12.5232   18.2508 C   0  0  0  0  0  0
  -28.0501  -12.3173   18.6690 C   0  0  0  0  0  0
  -27.6316  -13.2451   19.8399 C   0  0  2  0  0  0
  -28.6755  -13.2581   20.9767 C   0  0  0  0  0  0
  -25.2469  -13.8212   20.5708 C   0  0  0  0  0  0
  -24.1783  -13.0439   20.9229 C   0  0  0  0  0  0
  -24.6395  -11.6923   20.8757 C   0  0  0  0  0  0
  -23.9078  -10.4293   21.0409 C   0  0  0  0  0  0
  -24.3627   -9.4207   21.9186 C   0  0  0  0  0  0
  -23.6298   -8.2243   22.0754 C   0  0  0  0  0  0
  -22.4280   -8.0282   21.3544 C   0  0  0  0  0  0
  -21.9919   -9.0257   20.4647 C   0  0  0  0  0  0
  -22.7251  -10.2135   20.3057 C   0  0  0  0  0  0
  -21.6855   -6.0737   22.5279 C   0  0  0  0  0  0
  -21.4015   -6.5640   23.8212 C   0  0  0  0  0  0
  -21.3659   -5.6793   24.9174 C   0  0  0  0  0  0
  -21.6044   -4.3056   24.7225 C   0  0  0  0  0  0
  -21.8819   -3.8148   23.4346 C   0  0  0  0  0  0
  -21.9193   -4.6964   22.3402 C   0  0  0  0  0  0
  -22.7802  -13.5210   21.1882 C   0  0  0  0  0  0
  -22.1662   -4.2150   21.0980 F   0  0  0  0  0  0
  -21.5628   -3.4539   25.7737 F   0  0  0  0  0  0
  -29.9553  -13.6577   20.3787 N   0  0  0  0  0  0
  -26.2894  -12.9440   20.3251 N   0  0  0  0  0  0
  -25.9327  -11.6572   20.5745 N   0  0  0  0  0  0
  -22.0453  -12.8196   22.0437 N   0  0  0  0  0  0
  -25.4129  -15.1941   20.4119 N   0  0  0  0  0  0
  -31.7634  -14.9742   20.1569 O   0  0  0  0  0  0
  -21.6642   -6.8881   21.4241 O   0  0  0  0  0  0
  -22.3486  -14.5514   20.6726 O   0  0  0  0  0  0
  -24.6421  -31.8458   23.1903 C   0  0  0  0  0  0
  -25.9199  -32.4705   23.8286 C   0  0  1  0  0  0
  -27.2139  -27.1519   20.1548 C   0  0  0  0  0  0
  -25.5952  -33.8511   24.2202 N   0  0  0  0  0  0
  -23.4455  -30.4659   21.5354 C   0  0  2  0  0  0
  -24.8962  -28.8965   20.1112 C   0  0  0  0  0  0
  -22.7563  -29.4555   22.4865 C   0  0  0  0  0  0
  -18.0304  -28.1396   22.8478 C   0  0  0  0  0  0
  -24.1491  -36.7259   23.2642 C   0  0  0  0  0  0
  -26.0009  -30.7241   21.3886 C   0  0  0  0  0  0
  -26.0734  -29.3363   20.7318 C   0  0  0  0  0  0
  -27.2371  -28.4798   20.7378 C   0  0  0  0  0  0
  -26.0186  -26.8174   19.4834 C   0  0  0  0  0  0
  -24.8805  -27.6494   19.4706 C   0  0  0  0  0  0
  -23.6720  -29.7967   20.1543 C   0  0  0  0  0  0
  -25.4122  -36.3038   24.0317 C   0  0  1  0  0  0
  -20.5916  -28.3721   23.1238 C   0  0  2  0  0  0
  -20.6789  -26.9426   22.5403 C   0  0  0  0  0  0
  -19.5762  -26.6382   21.5213 C   0  0  0  0  0  0
  -18.1944  -26.7934   22.1625 C   0  0  0  0  0  0
  -19.1561  -28.8877   23.2850 C   0  0  0  0  0  0
  -18.9477  -30.1473   23.8876 C   0  0  0  0  0  0
  -17.6474  -30.6592   24.0560 C   0  0  0  0  0  0
  -25.9072  -34.9413   23.5067 C   0  0  0  0  0  0
  -16.5365  -29.9085   23.6337 C   0  0  0  0  0  0
  -16.7288  -28.6504   23.0357 C   0  0  0  0  0  0
  -26.4525  -31.6568   25.0722 C   0  0  0  0  0  0
  -25.3712  -31.3754   26.1418 C   0  0  0  0  0  0
  -27.0389  -30.2965   24.6296 C   0  0  0  0  0  0
  -27.6056  -32.4332   25.7506 C   0  0  0  0  0  0
  -27.5576  -37.1787   24.8466 C   0  0  0  0  0  0
  -21.4257  -29.3049   22.3612 N   0  0  0  0  0  0
  -26.4287  -37.3749   23.9408 N   0  0  0  0  0  0
  -24.7158  -31.0326   22.0933 N   0  0  0  0  0  0
  -23.4211  -28.8099   23.3009 O   0  0  0  0  0  0
  -28.2428  -26.1464   20.1940 O   0  0  0  0  0  0
  -26.5655  -34.8906   22.4644 O   0  0  0  0  0  0
  -23.5542  -32.1328   23.7129 O   0  0  0  0  0  0
  -28.8548  -22.2334   21.0891 C   0  0  0  0  0  0
  -29.1905  -21.1531   20.2482 C   0  0  0  0  0  0
  -29.4500  -18.7002   21.4537 C   0  0  0  0  0  0
  -29.6323  -18.5996   19.4024 C   0  0  0  0  0  0
  -30.1786  -17.6153   20.5305 C   0  0  0  0  0  0
  -27.8689  -24.7831   20.7477 C   0  0  0  0  0  0
  -29.0717  -21.7534   18.9800 N   0  0  0  0  0  0
  -28.6819  -23.0252   19.0319 N   0  0  0  0  0  0
  -28.5487  -23.4221   20.3284 N   0  0  0  0  0  0
  -29.6933  -19.7170   20.3910 N   0  0  0  0  0  0
  -29.7904  -16.0891   20.5762 N   0  0  0  0  0  0
  -31.4735  -12.7135   19.1816 H   0  0  0  0  0  0
  -30.4221  -11.6072   20.0187 H   0  0  0  0  0  0
  -29.8299  -11.7278   17.5726 H   0  0  0  0  0  0
  -29.6135  -13.4565   17.6936 H   0  0  0  0  0  0
  -27.9388  -11.2747   18.9691 H   0  0  0  0  0  0
  -27.3874  -12.4600   17.8146 H   0  0  0  0  0  0
  -27.5999  -14.2505   19.4192 H   0  0  0  0  0  0
  -28.7533  -12.2789   21.4514 H   0  0  0  0  0  0
  -28.3829  -13.9592   21.7600 H   0  0  0  0  0  0
  -25.2770   -9.5682   22.4764 H   0  0  0  0  0  0
  -24.0006   -7.4634   22.7474 H   0  0  0  0  0  0
  -21.0850   -8.8779   19.8952 H   0  0  0  0  0  0
  -22.3710  -10.9675   19.6168 H   0  0  0  0  0  0
  -21.2009   -7.6149   23.9716 H   0  0  0  0  0  0
  -21.1481   -6.0523   25.9077 H   0  0  0  0  0  0
  -22.0598   -2.7610   23.2846 H   0  0  0  0  0  0
  -22.4078  -11.9862   22.4826 H   0  0  0  0  0  0
  -21.1067  -13.1211   22.2641 H   0  0  0  0  0  0
  -24.6394  -15.8418   20.5172 H   0  0  0  0  0  0
  -26.2476  -15.6339   20.0475 H   0  0  0  0  0  0
  -26.7265  -32.5320   23.1018 H   0  0  0  0  0  0
  -25.0082  -33.9629   25.0337 H   0  0  0  0  0  0
  -22.7473  -31.2914   21.3819 H   0  0  0  0  0  0
  -23.3758  -35.9586   23.3294 H   0  0  0  0  0  0
  -24.3576  -36.8900   22.2058 H   0  0  0  0  0  0
  -23.7242  -37.6452   23.6684 H   0  0  0  0  0  0
  -26.1549  -31.4786   20.6159 H   0  0  0  0  0  0
  -26.8719  -30.7748   22.0302 H   0  0  0  0  0  0
  -28.1334  -28.8098   21.2440 H   0  0  0  0  0  0
  -25.9447  -25.8658   18.9765 H   0  0  0  0  0  0
  -23.9854  -27.3108   18.9671 H   0  0  0  0  0  0
  -23.8078  -30.5719   19.3992 H   0  0  0  0  0  0
  -22.7875  -29.2380   19.8434 H   0  0  0  0  0  0
  -25.1310  -36.1869   25.0809 H   0  0  0  0  0  0
  -21.0008  -28.3310   24.1359 H   0  0  0  0  0  0
  -20.5686  -26.2334   23.3621 H   0  0  0  0  0  0
  -21.6655  -26.7434   22.1199 H   0  0  0  0  0  0
  -19.6923  -25.6288   21.1256 H   0  0  0  0  0  0
  -19.6697  -27.3181   20.6733 H   0  0  0  0  0  0
  -17.4211  -26.6677   21.4030 H   0  0  0  0  0  0
  -18.0345  -26.0081   22.9028 H   0  0  0  0  0  0
  -19.7952  -30.7295   24.2235 H   0  0  0  0  0  0
  -17.5026  -31.6270   24.5165 H   0  0  0  0  0  0
  -15.5364  -30.2980   23.7673 H   0  0  0  0  0  0
  -15.8689  -28.0814   22.7086 H   0  0  0  0  0  0
  -24.5895  -30.7098   25.7739 H   0  0  0  0  0  0
  -24.8897  -32.2935   26.4794 H   0  0  0  0  0  0
  -25.7997  -30.8959   27.0229 H   0  0  0  0  0  0
  -26.3006  -29.6688   24.1293 H   0  0  0  0  0  0
  -27.3994  -29.7262   25.4868 H   0  0  0  0  0  0
  -27.8918  -30.4203   23.9618 H   0  0  0  0  0  0
  -27.2651  -33.3654   26.2026 H   0  0  0  0  0  0
  -28.3897  -32.6858   25.0356 H   0  0  0  0  0  0
  -28.0689  -31.8495   26.5471 H   0  0  0  0  0  0
  -28.2587  -38.0089   24.7511 H   0  0  0  0  0  0
  -28.1077  -36.2618   24.6296 H   0  0  0  0  0  0
  -27.2292  -37.1438   25.8869 H   0  0  0  0  0  0
  -20.9466  -29.8763   21.6793 H   0  0  0  0  0  0
  -26.0156  -38.2818   24.1410 H   0  0  0  0  0  0
  -28.7900  -22.2544   22.1691 H   0  0  0  0  0  0
  -29.9682  -18.9085   22.3907 H   0  0  0  0  0  0
  -28.3864  -18.5117   21.6140 H   0  0  0  0  0  0
  -28.6119  -18.3874   19.0765 H   0  0  0  0  0  0
  -30.3075  -18.7245   18.5548 H   0  0  0  0  0  0
  -31.2610  -17.7333   20.6198 H   0  0  0  0  0  0
  -28.0168  -24.8671   21.8244 H   0  0  0  0  0  0
  -26.8003  -24.6144   20.6230 H   0  0  0  0  0  0
  -28.8107  -15.9151   20.7403 H   0  0  0  0  0  0
  1 25  1  0  0  0
  1 30  2  0  0  0
  1 81  1  0  0  0
  2  3  1  0  0  0
  2 25  1  0  0  0
  2 82  1  0  0  0
  2 83  1  0  0  0
  3  4  1  0  0  0
  3 84  1  0  0  0
  3 85  1  0  0  0
  4  5  1  0  0  0
  4 86  1  0  0  0
  4 87  1  0  0  0
  5  6  1  0  0  0
  5 26  1  0  0  0
  5 88  1  0  0  0
  6 25  1  0  0  0
  6 89  1  0  0  0
  6 90  1  0  0  0
  7  8  2  0  0  0
  7 26  1  0  0  0
  7 29  1  0  0  0
  8  9  1  0  0  0
  8 22  1  0  0  0
  9 10  1  0  0  0
  9 27  2  0  0  0
 10 11  2  0  0  0
 10 15  1  0  0  0
 11 12  1  0  0  0
 11 91  1  0  0  0
 12 13  2  0  0  0
 12 92  1  0  0  0
 13 14  1  0  0  0
 13 31  1  0  0  0
 14 15  2  0  0  0
 14 93  1  0  0  0
 15 94  1  0  0  0
 16 17  2  0  0  0
 16 21  1  0  0  0
 16 31  1  0  0  0
 17 18  1  0  0  0
 17 95  1  0  0  0
 18 19  2  0  0  0
 18 96  1  0  0  0
 19 20  1  0  0  0
 19 24  1  0  0  0
 20 21  2  0  0  0
 20 97  1  0  0  0
 21 23  1  0  0  0
 22 28  1  0  0  0
 22 32  2  0  0  0
 26 27  1  0  0  0
 28 98  1  0  0  0
 28 99  1  0  0  0
 29100  1  0  0  0
 29101  1  0  0  0
 33 34  1  0  0  0
 33 66  1  0  0  0
 33 70  2  0  0  0
 34 36  1  0  0  0
 34 59  1  0  0  0
 34102  1  0  0  0
 35 44  2  0  0  0
 35 45  1  0  0  0
 35 68  1  0  0  0
 36 56  1  0  0  0
 36103  1  0  0  0
 37 39  1  0  0  0
 37 47  1  0  0  0
 37 66  1  0  0  0
 37104  1  0  0  0
 38 43  2  0  0  0
 38 46  1  0  0  0
 38 47  1  0  0  0
 39 64  1  0  0  0
 39 67  2  0  0  0
 40 52  1  0  0  0
 40 53  2  0  0  0
 40 58  1  0  0  0
 41105  1  0  0  0
 41106  1  0  0  0
 41107  1  0  0  0
 41 48  1  0  0  0
 42 43  1  0  0  0
 42 66  1  0  0  0
 42108  1  0  0  0
 42109  1  0  0  0
 43 44  1  0  0  0
 44110  1  0  0  0
 45 46  2  0  0  0
 45111  1  0  0  0
 46112  1  0  0  0
 47113  1  0  0  0
 47114  1  0  0  0
 48 56  1  0  0  0
 48 65  1  0  0  0
 48115  1  0  0  0
 49 50  1  0  0  0
 49 53  1  0  0  0
 49 64  1  0  0  0
 49116  1  0  0  0
 50 51  1  0  0  0
 50117  1  0  0  0
 50118  1  0  0  0
 51 52  1  0  0  0
 51119  1  0  0  0
 51120  1  0  0  0
 52121  1  0  0  0
 52122  1  0  0  0
 53 54  1  0  0  0
 54 55  2  0  0  0
 54123  1  0  0  0
 55 57  1  0  0  0
 55124  1  0  0  0
 56 69  2  0  0  0
 57 58  2  0  0  0
 57125  1  0  0  0
 58126  1  0  0  0
 59 60  1  0  0  0
 59 61  1  0  0  0
 59 62  1  0  0  0
 60127  1  0  0  0
 60128  1  0  0  0
 60129  1  0  0  0
 61130  1  0  0  0
 61131  1  0  0  0
 61132  1  0  0  0
 62133  1  0  0  0
 62134  1  0  0  0
 62135  1  0  0  0
 63 65  1  0  0  0
 63136  1  0  0  0
 63137  1  0  0  0
 63138  1  0  0  0
 64139  1  0  0  0
 65140  1  0  0  0
 68 76  1  0  0  0
 71 72  2  0  0  0
 71 79  1  0  0  0
 71141  1  0  0  0
 72 77  1  0  0  0
 72 80  1  0  0  0
 73 75  1  0  0  0
 73 80  1  0  0  0
 73142  1  0  0  0
 73143  1  0  0  0
 74 75  1  0  0  0
 74 80  1  0  0  0
 74144  1  0  0  0
 74145  1  0  0  0
 75 81  1  0  0  0
 75146  1  0  0  0
 76 79  1  0  0  0
 76147  1  0  0  0
 76148  1  0  0  0
 77 78  2  0  0  0
 78 79  1  0  0  0
 81149  1  0  0  0
M  ISO  4   1 100  68 101  76 101  81 100
M  END
> <chiral flag>
0

> <version>
0

> <s_m_source_file>
/data/baiqing/PycharmProjects/Reinvent-master-3.2/result/LINK_invent/BTK/process_docking_weight1_custom_sum_contain_oxygen_bond_distance_aromatic_linkinvent_7_9_3/rearranged_h_0198.sdf

> <i_m_source_file_index>
76

> <r_mmod_Potential_Energy-OPLS-2005>
324.249877929688

> <r_mmod_Stretch_Energy-OPLS-2005>
197.341339111328

> <r_mmod_Bend_Energy-OPLS-2005>
302.044738769531

> <r_mmod_Torsional_Energy-OPLS-2005>
251.0361328125

> <r_mmod_Improper_Torsional_Energy-OPLS-2005>
11.5502691268921

> <r_mmod_Van_der_Waal_Energy-OPLS-2005>
112.70287322998

> <r_mmod_Electrostatic_Energy-OPLS-2005>
-458.838012695312

> <r_mmod_Solvation_Energy-OPLS-2005>
-266.951080322266

> <b_mmod_Minimization_Converged-OPLS-2005>
0

> <r_mmod_RMS_Derivative-OPLS-2005>
0.051700234413147

$$$$
76
                    3D
 Structure written by MMmdl.
170180  0  0  1  0            999 V2000
  -30.7185  -14.4323   20.5646 C   0  0  0  0  0  0
  -30.4174  -12.2841   19.4117 C   0  0  0  0  0  0
  -29.4889  -12.4986   18.1989 C   0  0  0  0  0  0
  -28.0102  -12.3645   18.6139 C   0  0  0  0  0  0
  -27.6605  -13.1983   19.8745 C   0  0  2  0  0  0
  -28.7035  -12.9827   20.9944 C   0  0  0  0  0  0
  -25.2592  -13.8132   20.5672 C   0  0  0  0  0  0
  -24.1834  -13.0428   20.9157 C   0  0  0  0  0  0
  -24.6377  -11.6888   20.8736 C   0  0  0  0  0  0
  -23.9042  -10.4285   21.0416 C   0  0  0  0  0  0
  -24.3608   -9.4200   21.9186 C   0  0  0  0  0  0
  -23.6284   -8.2238   22.0758 C   0  0  0  0  0  0
  -22.4264   -8.0275   21.3551 C   0  0  0  0  0  0
  -21.9903   -9.0247   20.4652 C   0  0  0  0  0  0
  -22.7226  -10.2129   20.3057 C   0  0  0  0  0  0
  -21.6850   -6.0725   22.5276 C   0  0  0  0  0  0
  -21.4016   -6.5634   23.8209 C   0  0  0  0  0  0
  -21.3656   -5.6793   24.9174 C   0  0  0  0  0  0
  -21.6037   -4.3053   24.7224 C   0  0  0  0  0  0
  -21.8824   -3.8137   23.4349 C   0  0  0  0  0  0
  -21.9201   -4.6953   22.3406 C   0  0  0  0  0  0
  -22.7859  -13.5238   21.1840 C   0  0  0  0  0  0
  -22.1670   -4.2136   21.0988 F   0  0  0  0  0  0
  -21.5632   -3.4545   25.7745 F   0  0  0  0  0  0
  -30.0357  -13.2663   20.4358 N   0  0  0  0  0  0
  -26.3016  -12.9281   20.3367 N   0  0  0  0  0  0
  -25.9300  -11.6449   20.5771 N   0  0  0  0  0  0
  -22.0513  -12.8216   22.0392 N   0  0  0  0  0  0
  -25.4345  -15.1850   20.4083 N   0  0  0  0  0  0
  -31.8567  -14.6051   20.1191 O   0  0  0  0  0  0
  -21.6630   -6.8870   21.4237 O   0  0  0  0  0  0
  -22.3547  -14.5565   20.6719 O   0  0  0  0  0  0
  -24.6135  -31.8705   23.2138 C   0  0  0  0  0  0
  -25.9039  -32.4839   23.8413 C   0  0  1  0  0  0
  -27.2328  -27.4520   20.0619 C   0  0  0  0  0  0
  -25.5905  -33.8639   24.2345 N   0  0  0  0  0  0
  -23.4000  -30.4963   21.5546 C   0  0  2  0  0  0
  -24.8419  -28.9652   20.1182 C   0  0  0  0  0  0
  -22.7402  -29.4682   22.5005 C   0  0  0  0  0  0
  -18.0278  -28.1379   22.8498 C   0  0  0  0  0  0
  -24.1489  -36.7321   23.2636 C   0  0  0  0  0  0
  -25.9299  -30.8372   21.3655 C   0  0  0  0  0  0
  -26.0034  -29.4722   20.7127 C   0  0  0  0  0  0
  -27.1989  -28.7185   20.6899 C   0  0  0  0  0  0
  -26.0423  -26.9531   19.4795 C   0  0  0  0  0  0
  -24.8537  -27.7017   19.5083 C   0  0  0  0  0  0
  -23.6068  -29.8347   20.1671 C   0  0  0  0  0  0
  -25.4109  -36.3121   24.0340 C   0  0  1  0  0  0
  -20.5865  -28.3670   23.1325 C   0  0  2  0  0  0
  -20.6770  -26.9406   22.5421 C   0  0  0  0  0  0
  -19.5745  -26.6394   21.5216 C   0  0  0  0  0  0
  -18.1924  -26.7932   22.1619 C   0  0  0  0  0  0
  -19.1524  -28.8838   23.2914 C   0  0  0  0  0  0
  -18.9447  -30.1446   23.8919 C   0  0  0  0  0  0
  -17.6447  -30.6587   24.0565 C   0  0  0  0  0  0
  -25.9038  -34.9489   23.5138 C   0  0  0  0  0  0
  -16.5341  -29.9091   23.6319 C   0  0  0  0  0  0
  -16.7265  -28.6509   23.0341 C   0  0  0  0  0  0
  -26.4468  -31.6607   25.0726 C   0  0  0  0  0  0
  -25.3742  -31.3697   26.1475 C   0  0  0  0  0  0
  -27.0292  -30.3053   24.6082 C   0  0  0  0  0  0
  -27.6058  -32.4313   25.7486 C   0  0  0  0  0  0
  -27.5584  -37.1815   24.8465 C   0  0  0  0  0  0
  -21.4131  -29.3040   22.3729 N   0  0  0  0  0  0
  -26.4297  -37.3802   23.9413 N   0  0  0  0  0  0
  -24.6665  -31.0818   22.1034 N   0  0  0  0  0  0
  -23.4186  -28.8218   23.3031 O   0  0  0  0  0  0
  -28.4251  -26.7558   20.0384 O   0  0  0  0  0  0
  -26.5595  -34.8931   22.4696 O   0  0  0  0  0  0
  -23.5333  -32.1452   23.7547 O   0  0  0  0  0  0
  -31.0604  -25.9546   19.0256 C   0  0  0  0  0  0
  -30.7433  -24.9231   17.9810 C   0  0  0  0  0  0
  -28.2002  -20.6672   21.1621 C   0  0  0  0  0  0
  -29.3972  -20.4137   18.9522 C   0  0  0  0  0  0
  -29.5692  -16.4958   20.0569 C   0  0  0  0  0  0
  -30.6523  -16.5663   21.7973 C   0  0  0  0  0  0
  -28.9875  -21.9793   21.3926 C   0  0  0  0  0  0
  -30.1512  -21.7297   19.2442 C   0  0  0  0  0  0
  -28.9082  -19.6717   20.2168 C   0  0  1  0  0  0
  -29.5797  -17.4755   21.2164 C   0  0  0  0  0  0
  -29.9086  -24.9895   19.2504 C   0  0  0  0  0  0
  -30.0670  -23.9512   20.3682 C   0  0  0  0  0  0
  -28.5020  -25.5833   19.2229 C   0  0  0  0  0  0
  -30.0042  -15.4757   21.0342 N   0  0  0  0  0  0
  -29.3739  -22.6502   20.1201 N   0  3  2  0  0  0
  -29.9728  -18.8712   20.8875 N   0  3  0  0  0  0
  -31.4620  -12.3751   19.1082 H   0  0  0  0  0  0
  -30.3094  -11.2739   19.8076 H   0  0  0  0  0  0
  -29.7215  -11.7784   17.4128 H   0  0  0  0  0  0
  -29.6602  -13.4867   17.7678 H   0  0  0  0  0  0
  -27.8137  -11.3085   18.8024 H   0  0  0  0  0  0
  -27.3608  -12.6491   17.7847 H   0  0  0  0  0  0
  -27.7017  -14.2424   19.5728 H   0  0  0  0  0  0
  -28.6690  -11.9537   21.3553 H   0  0  0  0  0  0
  -28.4762  -13.6081   21.8588 H   0  0  0  0  0  0
  -25.2766   -9.5667   22.4736 H   0  0  0  0  0  0
  -23.9998   -7.4624   22.7466 H   0  0  0  0  0  0
  -21.0842   -8.8765   19.8948 H   0  0  0  0  0  0
  -22.3699  -10.9665   19.6151 H   0  0  0  0  0  0
  -21.2007   -7.6141   23.9700 H   0  0  0  0  0  0
  -21.1473   -6.0531   25.9076 H   0  0  0  0  0  0
  -22.0609   -2.7598   23.2857 H   0  0  0  0  0  0
  -22.4162  -11.9879   22.4752 H   0  0  0  0  0  0
  -21.1131  -13.1218   22.2628 H   0  0  0  0  0  0
  -24.6727  -15.8460   20.5124 H   0  0  0  0  0  0
  -26.2964  -15.6156   20.1021 H   0  0  0  0  0  0
  -26.7109  -32.5550   23.1181 H   0  0  0  0  0  0
  -25.0068  -33.9809   25.0494 H   0  0  0  0  0  0
  -22.6883  -31.3136   21.4194 H   0  0  0  0  0  0
  -23.3753  -35.9649   23.3297 H   0  0  0  0  0  0
  -24.3587  -36.8936   22.2050 H   0  0  0  0  0  0
  -23.7232  -37.6524   23.6651 H   0  0  0  0  0  0
  -26.0395  -31.6029   20.5968 H   0  0  0  0  0  0
  -26.8201  -30.8906   21.9802 H   0  0  0  0  0  0
  -28.1008  -29.1123   21.1376 H   0  0  0  0  0  0
  -25.9991  -25.9923   18.9895 H   0  0  0  0  0  0
  -23.9577  -27.3033   19.0528 H   0  0  0  0  0  0
  -23.7207  -30.6139   19.4123 H   0  0  0  0  0  0
  -22.7276  -29.2601   19.8675 H   0  0  0  0  0  0
  -25.1275  -36.1996   25.0828 H   0  0  0  0  0  0
  -20.9958  -28.3231   24.1441 H   0  0  0  0  0  0
  -20.5694  -26.2259   23.3597 H   0  0  0  0  0  0
  -21.6638  -26.7462   22.1191 H   0  0  0  0  0  0
  -19.6906  -25.6311   21.1229 H   0  0  0  0  0  0
  -19.6690  -27.3217   20.6759 H   0  0  0  0  0  0
  -17.4191  -26.6693   21.4020 H   0  0  0  0  0  0
  -18.0316  -26.0076   22.9010 H   0  0  0  0  0  0
  -19.7920  -30.7266   24.2294 H   0  0  0  0  0  0
  -17.4997  -31.6268   24.5160 H   0  0  0  0  0  0
  -15.5341  -30.2990   23.7637 H   0  0  0  0  0  0
  -15.8667  -28.0841   22.7027 H   0  0  0  0  0  0
  -24.5927  -30.7034   25.7807 H   0  0  0  0  0  0
  -24.8917  -32.2843   26.4933 H   0  0  0  0  0  0
  -25.8101  -30.8860   27.0228 H   0  0  0  0  0  0
  -26.2821  -29.6826   24.1148 H   0  0  0  0  0  0
  -27.4078  -29.7277   25.4528 H   0  0  0  0  0  0
  -27.8653  -30.4373   23.9210 H   0  0  0  0  0  0
  -27.2691  -33.3606   26.2095 H   0  0  0  0  0  0
  -28.3852  -32.6885   25.0300 H   0  0  0  0  0  0
  -28.0743  -31.8412   26.5373 H   0  0  0  0  0  0
  -28.2599  -38.0115   24.7521 H   0  0  0  0  0  0
  -28.1083  -36.2648   24.6279 H   0  0  0  0  0  0
  -27.2306  -37.1447   25.8869 H   0  0  0  0  0  0
  -20.9276  -29.8758   21.6949 H   0  0  0  0  0  0
  -26.0188  -38.2879   24.1426 H   0  0  0  0  0  0
  -30.8213  -26.9910   18.7898 H   0  0  0  0  0  0
  -31.9736  -25.8133   19.6008 H   0  0  0  0  0  0
  -31.4705  -24.1218   17.8632 H   0  0  0  0  0  0
  -30.2941  -25.2734   17.0529 H   0  0  0  0  0  0
  -27.2336  -20.9233   20.7259 H   0  0  0  0  0  0
  -27.9691  -20.1928   22.1172 H   0  0  0  0  0  0
  -30.0060  -19.7565   18.3296 H   0  0  0  0  0  0
  -28.5247  -20.6524   18.3424 H   0  0  0  0  0  0
  -30.2951  -16.7112   19.2669 H   0  0  0  0  0  0
  -28.5748  -16.3426   19.6363 H   0  0  0  0  0  0
  -30.5879  -16.4592   22.8812 H   0  0  0  0  0  0
  -31.6723  -16.8068   21.4875 H   0  0  0  0  0  0
  -29.8815  -21.7825   21.9864 H   0  0  0  0  0  0
  -28.3723  -22.6576   21.9867 H   0  0  0  0  0  0
  -30.3631  -22.2137   18.2915 H   0  0  0  0  0  0
  -31.1189  -21.5143   19.7009 H   0  0  0  0  0  0
  -28.1539  -18.9600   19.8747 H   0  0  0  0  0  0
  -28.6600  -17.4361   21.8061 H   0  0  0  0  0  0
  -29.6839  -24.4097   21.2818 H   0  0  0  0  0  0
  -31.1267  -23.7709   20.5560 H   0  0  0  0  0  0
  -27.7852  -24.8307   19.5541 H   0  0  0  0  0  0
  -28.2494  -25.8421   18.1926 H   0  0  0  0  0  0
  -28.5138  -22.8720   19.6402 H   0  0  0  0  0  0
  -30.2640  -19.3284   21.7373 H   0  0  0  0  0  0
  -30.7804  -18.8269   20.2851 H   0  0  0  0  0  0
  1 25  1  0  0  0
  1 30  2  0  0  0
  1 84  1  0  0  0
  2  3  1  0  0  0
  2 25  1  0  0  0
  2 87  1  0  0  0
  2 88  1  0  0  0
  3  4  1  0  0  0
  3 89  1  0  0  0
  3 90  1  0  0  0
  4  5  1  0  0  0
  4 91  1  0  0  0
  4 92  1  0  0  0
  5  6  1  0  0  0
  5 26  1  0  0  0
  5 93  1  0  0  0
  6 25  1  0  0  0
  6 94  1  0  0  0
  6 95  1  0  0  0
  7  8  2  0  0  0
  7 26  1  0  0  0
  7 29  1  0  0  0
  8  9  1  0  0  0
  8 22  1  0  0  0
  9 10  1  0  0  0
  9 27  2  0  0  0
 10 11  2  0  0  0
 10 15  1  0  0  0
 11 12  1  0  0  0
 11 96  1  0  0  0
 12 13  2  0  0  0
 12 97  1  0  0  0
 13 14  1  0  0  0
 13 31  1  0  0  0
 14 15  2  0  0  0
 14 98  1  0  0  0
 15 99  1  0  0  0
 16 17  2  0  0  0
 16 21  1  0  0  0
 16 31  1  0  0  0
 17 18  1  0  0  0
 17100  1  0  0  0
 18 19  2  0  0  0
 18101  1  0  0  0
 19 20  1  0  0  0
 19 24  1  0  0  0
 20 21  2  0  0  0
 20102  1  0  0  0
 21 23  1  0  0  0
 22 28  1  0  0  0
 22 32  2  0  0  0
 26 27  1  0  0  0
 28103  1  0  0  0
 28104  1  0  0  0
 29105  1  0  0  0
 29106  1  0  0  0
 33 34  1  0  0  0
 33 66  1  0  0  0
 33 70  2  0  0  0
 34 36  1  0  0  0
 34 59  1  0  0  0
 34107  1  0  0  0
 35 44  2  0  0  0
 35 45  1  0  0  0
 35 68  1  0  0  0
 36 56  1  0  0  0
 36108  1  0  0  0
 37 39  1  0  0  0
 37 47  1  0  0  0
 37 66  1  0  0  0
 37109  1  0  0  0
 38 43  2  0  0  0
 38 46  1  0  0  0
 38 47  1  0  0  0
 39 64  1  0  0  0
 39 67  2  0  0  0
 40 52  1  0  0  0
 40 53  2  0  0  0
 40 58  1  0  0  0
 41110  1  0  0  0
 41111  1  0  0  0
 41112  1  0  0  0
 41 48  1  0  0  0
 42 43  1  0  0  0
 42 66  1  0  0  0
 42113  1  0  0  0
 42114  1  0  0  0
 43 44  1  0  0  0
 44115  1  0  0  0
 45 46  2  0  0  0
 45116  1  0  0  0
 46117  1  0  0  0
 47118  1  0  0  0
 47119  1  0  0  0
 48 56  1  0  0  0
 48 65  1  0  0  0
 48120  1  0  0  0
 49 50  1  0  0  0
 49 53  1  0  0  0
 49 64  1  0  0  0
 49121  1  0  0  0
 50 51  1  0  0  0
 50122  1  0  0  0
 50123  1  0  0  0
 51 52  1  0  0  0
 51124  1  0  0  0
 51125  1  0  0  0
 52126  1  0  0  0
 52127  1  0  0  0
 53 54  1  0  0  0
 54 55  2  0  0  0
 54128  1  0  0  0
 55 57  1  0  0  0
 55129  1  0  0  0
 56 69  2  0  0  0
 57 58  2  0  0  0
 57130  1  0  0  0
 58131  1  0  0  0
 59 60  1  0  0  0
 59 61  1  0  0  0
 59 62  1  0  0  0
 60132  1  0  0  0
 60133  1  0  0  0
 60134  1  0  0  0
 61135  1  0  0  0
 61136  1  0  0  0
 61137  1  0  0  0
 62138  1  0  0  0
 62139  1  0  0  0
 62140  1  0  0  0
 63 65  1  0  0  0
 63141  1  0  0  0
 63142  1  0  0  0
 63143  1  0  0  0
 64144  1  0  0  0
 65145  1  0  0  0
 68 83  1  0  0  0
 71 72  1  0  0  0
 71 81  1  0  0  0
 71146  1  0  0  0
 71147  1  0  0  0
 72 81  1  0  0  0
 72148  1  0  0  0
 72149  1  0  0  0
 73 77  1  0  0  0
 73 79  1  0  0  0
 73150  1  0  0  0
 73151  1  0  0  0
 74 78  1  0  0  0
 74 79  1  0  0  0
 74152  1  0  0  0
 74153  1  0  0  0
 75 80  1  0  0  0
 75 84  1  0  0  0
 75154  1  0  0  0
 75155  1  0  0  0
 76 80  1  0  0  0
 76 84  1  0  0  0
 76156  1  0  0  0
 76157  1  0  0  0
 77 85  1  0  0  0
 77158  1  0  0  0
 77159  1  0  0  0
 78 85  1  0  0  0
 78160  1  0  0  0
 78161  1  0  0  0
 79 86  1  0  0  0
 79162  1  0  0  0
 80 86  1  0  0  0
 80163  1  0  0  0
 81 82  1  0  0  0
 81 83  1  0  0  0
 82164  1  0  0  0
 82165  1  0  0  0
 82 85  1  0  0  0
 83166  1  0  0  0
 83167  1  0  0  0
 85168  1  0  0  0
 86169  1  0  0  0
 86170  1  0  0  0
M  CHG  2  85   1  86   1
M  ISO  4   1 100  68 101  83 101  84 100
M  END
> <chiral flag>
0

> <version>
0

> <s_m_source_file>
/data/baiqing/PycharmProjects/Reinvent-master-3.2/result/LINK_invent/BTK/process_docking_weight1_custom_sum_contain_oxygen_bond_distance_aromatic_linkinvent_7_9_3/rearranged_h_0198.sdf

> <i_m_source_file_index>
77

> <r_mmod_Potential_Energy-OPLS-2005>
-137.532943725586

> <r_mmod_Stretch_Energy-OPLS-2005>
38.2881927490234

> <r_mmod_Bend_Energy-OPLS-2005>
114.408798217773

> <r_mmod_Torsional_Energy-OPLS-2005>
399.774200439453

> <r_mmod_Improper_Torsional_Energy-OPLS-2005>
11.9983739852905

> <r_mmod_Van_der_Waal_Energy-OPLS-2005>
140.06982421875

> <r_mmod_Electrostatic_Energy-OPLS-2005>
168.451904296875

> <r_mmod_Solvation_Energy-OPLS-2005>
-1021.91345214844

> <b_mmod_Minimization_Converged-OPLS-2005>
0

> <r_mmod_RMS_Derivative-OPLS-2005>
1.74247086048126

$$$$
77
                    3D
 Structure written by MMmdl.
150158  0  0  1  0            999 V2000
  -30.4443  -15.4187   20.3527 C   0  0  0  0  0  0
  -30.4119  -12.9276   19.5282 C   0  0  0  0  0  0
  -29.5273  -12.6016   18.2994 C   0  0  0  0  0  0
  -28.0896  -12.2961   18.7412 C   0  0  0  0  0  0
  -27.5954  -13.2967   19.8137 C   0  0  2  0  0  0
  -28.6223  -13.5724   20.9357 C   0  0  0  0  0  0
  -25.2325  -13.8291   20.5806 C   0  0  0  0  0  0
  -24.1700  -13.0449   20.9287 C   0  0  0  0  0  0
  -24.6384  -11.6953   20.8776 C   0  0  0  0  0  0
  -23.9094  -10.4299   21.0405 C   0  0  0  0  0  0
  -24.3639   -9.4212   21.9182 C   0  0  0  0  0  0
  -23.6307   -8.2250   22.0752 C   0  0  0  0  0  0
  -22.4289   -8.0287   21.3544 C   0  0  0  0  0  0
  -21.9930   -9.0261   20.4645 C   0  0  0  0  0  0
  -22.7264  -10.2137   20.3053 C   0  0  0  0  0  0
  -21.6858   -6.0740   22.5277 C   0  0  0  0  0  0
  -21.4018   -6.5642   23.8211 C   0  0  0  0  0  0
  -21.3659   -5.6794   24.9172 C   0  0  0  0  0  0
  -21.6044   -4.3057   24.7222 C   0  0  0  0  0  0
  -21.8819   -3.8149   23.4343 C   0  0  0  0  0  0
  -21.9194   -4.6967   22.3400 C   0  0  0  0  0  0
  -22.7714  -13.5184   21.1922 C   0  0  0  0  0  0
  -22.1662   -4.2152   21.0978 F   0  0  0  0  0  0
  -21.5627   -3.4539   25.7734 F   0  0  0  0  0  0
  -29.8241  -14.1186   20.2770 N   0  0  0  0  0  0
  -26.2754  -12.9601   20.3249 N   0  0  0  0  0  0
  -25.9326  -11.6684   20.5734 N   0  0  0  0  0  0
  -22.0382  -12.8156   22.0475 N   0  0  0  0  0  0
  -25.3960  -15.2029   20.4273 N   0  0  0  0  0  0
  -31.6694  -15.2857   20.1796 O   0  0  0  0  0  0
  -21.6648   -6.8886   21.4242 O   0  0  0  0  0  0
  -22.3390  -14.5484   20.6762 O   0  0  0  0  0  0
  -24.6716  -31.8132   23.1616 C   0  0  0  0  0  0
  -25.9355  -32.4532   23.8116 C   0  0  1  0  0  0
  -27.2165  -26.8294   20.1989 C   0  0  0  0  0  0
  -25.5983  -33.8351   24.2015 N   0  0  0  0  0  0
  -23.4911  -30.4205   21.5123 C   0  0  2  0  0  0
  -24.9458  -28.7871   20.1120 C   0  0  0  0  0  0
  -22.7709  -29.4385   22.4741 C   0  0  0  0  0  0
  -18.0329  -28.1414   22.8466 C   0  0  0  0  0  0
  -24.1488  -36.7180   23.2650 C   0  0  0  0  0  0
  -26.0647  -30.5874   21.4068 C   0  0  0  0  0  0
  -26.1308  -29.1666   20.7535 C   0  0  0  0  0  0
  -27.2567  -28.2108   20.7693 C   0  0  0  0  0  0
  -26.0034  -26.6264   19.5014 C   0  0  0  0  0  0
  -24.9132  -27.5406   19.4636 C   0  0  0  0  0  0
  -23.7369  -29.7276   20.1421 C   0  0  0  0  0  0
  -25.4135  -36.2933   24.0290 C   0  0  1  0  0  0
  -20.5958  -28.3767   23.1167 C   0  0  2  0  0  0
  -20.6799  -26.9435   22.5405 C   0  0  0  0  0  0
  -19.5774  -26.6374   21.5217 C   0  0  0  0  0  0
  -18.1958  -26.7947   22.1621 C   0  0  0  0  0  0
  -19.1594  -28.8912   23.2800 C   0  0  0  0  0  0
  -18.9502  -30.1499   23.8840 C   0  0  0  0  0  0
  -17.6496  -30.6603   24.0554 C   0  0  0  0  0  0
  -25.9109  -34.9320   23.4982 C   0  0  0  0  0  0
  -16.5385  -29.9089   23.6348 C   0  0  0  0  0  0
  -16.7310  -28.6508   23.0369 C   0  0  0  0  0  0
  -26.4575  -31.6520   25.0689 C   0  0  0  0  0  0
  -25.3672  -31.3805   26.1327 C   0  0  0  0  0  0
  -27.0494  -30.2874   24.6502 C   0  0  0  0  0  0
  -27.6043  -32.4361   25.7499 C   0  0  0  0  0  0
  -27.5562  -37.1744   24.8468 C   0  0  0  0  0  0
  -21.4367  -29.3039   22.3499 N   0  0  0  0  0  0
  -26.4272  -37.3680   23.9409 N   0  0  0  0  0  0
  -24.7645  -30.9703   22.0799 N   0  0  0  0  0  0
  -23.4212  -28.7968   23.3027 O   0  0  0  0  0  0
  -28.1980  -25.6754   20.2964 O   0  0  0  0  0  0
  -26.5736  -34.8878   22.4590 O   0  0  0  0  0  0
  -23.5764  -32.1148   23.6651 O   0  0  0  0  0  0
  -28.3382  -19.2858   20.9349 C   0  0  0  0  0  0
  -30.3696  -19.7324   20.0912 C   0  0  0  0  0  0
  -28.5391  -17.5979   20.6212 C   0  0  0  0  0  0
  -30.6047  -18.0889   19.7266 C   0  0  0  0  0  0
  -28.9615  -20.5874   20.0971 C   0  0  0  0  0  0
  -28.9102  -22.4237   20.4950 C   0  0  0  0  0  0
  -28.0051  -24.0012   20.0684 C   0  0  0  0  0  0
  -29.8709  -16.8421   20.3101 N   0  0  0  0  0  0
  -31.4247  -13.1252   19.1757 H   0  0  0  0  0  0
  -30.5044  -12.0584   20.1814 H   0  0  0  0  0  0
  -29.9381  -11.7574   17.7439 H   0  0  0  0  0  0
  -29.5278  -13.4516   17.6156 H   0  0  0  0  0  0
  -28.0796  -11.2865   19.1531 H   0  0  0  0  0  0
  -27.4165  -12.2841   17.8825 H   0  0  0  0  0  0
  -27.4772  -14.2360   19.2715 H   0  0  0  0  0  0
  -28.8341  -12.6768   21.5217 H   0  0  0  0  0  0
  -28.2288  -14.3152   21.6316 H   0  0  0  0  0  0
  -25.2777   -9.5692   22.4767 H   0  0  0  0  0  0
  -24.0010   -7.4644   22.7477 H   0  0  0  0  0  0
  -21.0859   -8.8788   19.8952 H   0  0  0  0  0  0
  -22.3718  -10.9681   19.6169 H   0  0  0  0  0  0
  -21.2012   -7.6149   23.9715 H   0  0  0  0  0  0
  -21.1479   -6.0522   25.9075 H   0  0  0  0  0  0
  -22.0598   -2.7610   23.2842 H   0  0  0  0  0  0
  -22.4022  -11.9827   22.4861 H   0  0  0  0  0  0
  -21.0994  -13.1155   22.2688 H   0  0  0  0  0  0
  -24.6298  -15.8558   20.5520 H   0  0  0  0  0  0
  -26.2492  -15.6469   20.1144 H   0  0  0  0  0  0
  -26.7428  -32.5041   23.0827 H   0  0  0  0  0  0
  -25.0062  -33.9406   25.0120 H   0  0  0  0  0  0
  -22.8094  -31.2545   21.3330 H   0  0  0  0  0  0
  -23.3765  -35.9494   23.3282 H   0  0  0  0  0  0
  -24.3554  -36.8869   22.2071 H   0  0  0  0  0  0
  -23.7236  -37.6349   23.6740 H   0  0  0  0  0  0
  -26.2560  -31.3214   20.6232 H   0  0  0  0  0  0
  -26.9202  -30.6476   22.0673 H   0  0  0  0  0  0
  -28.1497  -28.4998   21.3058 H   0  0  0  0  0  0
  -25.8608  -25.6753   19.0083 H   0  0  0  0  0  0
  -24.0146  -27.2441   18.9400 H   0  0  0  0  0  0
  -23.9007  -30.4922   19.3821 H   0  0  0  0  0  0
  -22.8440  -29.1876   19.8222 H   0  0  0  0  0  0
  -25.1337  -36.1712   25.0781 H   0  0  0  0  0  0
  -21.0045  -28.3389   24.1290 H   0  0  0  0  0  0
  -20.5677  -26.2385   23.3655 H   0  0  0  0  0  0
  -21.6661  -26.7399   22.1212 H   0  0  0  0  0  0
  -19.6931  -25.6269   21.1285 H   0  0  0  0  0  0
  -19.6719  -27.3151   20.6722 H   0  0  0  0  0  0
  -17.4227  -26.6694   21.4024 H   0  0  0  0  0  0
  -18.0343  -26.0100   22.9027 H   0  0  0  0  0  0
  -19.7979  -30.7327   24.2185 H   0  0  0  0  0  0
  -17.5050  -31.6278   24.5164 H   0  0  0  0  0  0
  -15.5383  -30.2974   23.7707 H   0  0  0  0  0  0
  -15.8709  -28.0807   22.7120 H   0  0  0  0  0  0
  -24.5869  -30.7142   25.7632 H   0  0  0  0  0  0
  -24.8846  -32.3017   26.4597 H   0  0  0  0  0  0
  -25.7875  -30.9070   27.0210 H   0  0  0  0  0  0
  -26.3187  -29.6513   24.1495 H   0  0  0  0  0  0
  -27.3972  -29.7285   25.5199 H   0  0  0  0  0  0
  -27.9146  -30.4030   23.9973 H   0  0  0  0  0  0
  -27.2593  -33.3720   26.1906 H   0  0  0  0  0  0
  -28.3937  -32.6833   25.0389 H   0  0  0  0  0  0
  -28.0618  -31.8607   26.5556 H   0  0  0  0  0  0
  -28.2559  -38.0058   24.7507 H   0  0  0  0  0  0
  -28.1078  -36.2581   24.6306 H   0  0  0  0  0  0
  -27.2274  -37.1398   25.8870 H   0  0  0  0  0  0
  -20.9640  -29.8714   21.6601 H   0  0  0  0  0  0
  -26.0110  -38.2732   24.1429 H   0  0  0  0  0  0
  -28.6548  -19.4221   21.9709 H   0  0  0  0  0  0
  -27.2615  -19.4523   20.9830 H   0  0  0  0  0  0
  -31.0366  -20.2766   19.4215 H   0  0  0  0  0  0
  -30.8246  -19.8855   21.0716 H   0  0  0  0  0  0
  -27.8940  -17.3676   19.7727 H   0  0  0  0  0  0
  -28.0855  -17.0614   21.4558 H   0  0  0  0  0  0
  -31.6694  -17.9009   19.8712 H   0  0  0  0  0  0
  -30.4673  -17.9980   18.6481 H   0  0  0  0  0  0
  -28.5658  -20.5210   19.0829 H   0  0  0  0  0  0
  -29.9226  -22.7086   20.2088 H   0  0  0  0  0  0
  -28.9529  -22.4447   21.5839 H   0  0  0  0  0  0
  -26.9971  -23.8278   20.4462 H   0  0  0  0  0  0
  -27.8845  -23.9386   18.9869 H   0  0  0  0  0  0
  1 25  1  0  0  0
  1 30  2  0  0  0
  1 78  1  0  0  0
  2  3  1  0  0  0
  2 25  1  0  0  0
  2 79  1  0  0  0
  2 80  1  0  0  0
  3  4  1  0  0  0
  3 81  1  0  0  0
  3 82  1  0  0  0
  4  5  1  0  0  0
  4 83  1  0  0  0
  4 84  1  0  0  0
  5  6  1  0  0  0
  5 26  1  0  0  0
  5 85  1  0  0  0
  6 25  1  0  0  0
  6 86  1  0  0  0
  6 87  1  0  0  0
  7  8  2  0  0  0
  7 26  1  0  0  0
  7 29  1  0  0  0
  8  9  1  0  0  0
  8 22  1  0  0  0
  9 10  1  0  0  0
  9 27  2  0  0  0
 10 11  2  0  0  0
 10 15  1  0  0  0
 11 12  1  0  0  0
 11 88  1  0  0  0
 12 13  2  0  0  0
 12 89  1  0  0  0
 13 14  1  0  0  0
 13 31  1  0  0  0
 14 15  2  0  0  0
 14 90  1  0  0  0
 15 91  1  0  0  0
 16 17  2  0  0  0
 16 21  1  0  0  0
 16 31  1  0  0  0
 17 18  1  0  0  0
 17 92  1  0  0  0
 18 19  2  0  0  0
 18 93  1  0  0  0
 19 20  1  0  0  0
 19 24  1  0  0  0
 20 21  2  0  0  0
 20 94  1  0  0  0
 21 23  1  0  0  0
 22 28  1  0  0  0
 22 32  2  0  0  0
 26 27  1  0  0  0
 28 95  1  0  0  0
 28 96  1  0  0  0
 29 97  1  0  0  0
 29 98  1  0  0  0
 33 34  1  0  0  0
 33 66  1  0  0  0
 33 70  2  0  0  0
 34 36  1  0  0  0
 34 59  1  0  0  0
 34 99  1  0  0  0
 35 44  2  0  0  0
 35 45  1  0  0  0
 35 68  1  0  0  0
 36 56  1  0  0  0
 36100  1  0  0  0
 37 39  1  0  0  0
 37 47  1  0  0  0
 37 66  1  0  0  0
 37101  1  0  0  0
 38 43  2  0  0  0
 38 46  1  0  0  0
 38 47  1  0  0  0
 39 64  1  0  0  0
 39 67  2  0  0  0
 40 52  1  0  0  0
 40 53  2  0  0  0
 40 58  1  0  0  0
 41102  1  0  0  0
 41103  1  0  0  0
 41104  1  0  0  0
 41 48  1  0  0  0
 42 43  1  0  0  0
 42 66  1  0  0  0
 42105  1  0  0  0
 42106  1  0  0  0
 43 44  1  0  0  0
 44107  1  0  0  0
 45 46  2  0  0  0
 45108  1  0  0  0
 46109  1  0  0  0
 47110  1  0  0  0
 47111  1  0  0  0
 48 56  1  0  0  0
 48 65  1  0  0  0
 48112  1  0  0  0
 49 50  1  0  0  0
 49 53  1  0  0  0
 49 64  1  0  0  0
 49113  1  0  0  0
 50 51  1  0  0  0
 50114  1  0  0  0
 50115  1  0  0  0
 51 52  1  0  0  0
 51116  1  0  0  0
 51117  1  0  0  0
 52118  1  0  0  0
 52119  1  0  0  0
 53 54  1  0  0  0
 54 55  2  0  0  0
 54120  1  0  0  0
 55 57  1  0  0  0
 55121  1  0  0  0
 56 69  2  0  0  0
 57 58  2  0  0  0
 57122  1  0  0  0
 58123  1  0  0  0
 59 60  1  0  0  0
 59 61  1  0  0  0
 59 62  1  0  0  0
 60124  1  0  0  0
 60125  1  0  0  0
 60126  1  0  0  0
 61127  1  0  0  0
 61128  1  0  0  0
 61129  1  0  0  0
 62130  1  0  0  0
 62131  1  0  0  0
 62132  1  0  0  0
 63 65  1  0  0  0
 63133  1  0  0  0
 63134  1  0  0  0
 63135  1  0  0  0
 64136  1  0  0  0
 65137  1  0  0  0
 68 77  1  0  0  0
 71 73  1  0  0  0
 71 75  1  0  0  0
 71138  1  0  0  0
 71139  1  0  0  0
 72 74  1  0  0  0
 72 75  1  0  0  0
 72140  1  0  0  0
 72141  1  0  0  0
 73 78  1  0  0  0
 73142  1  0  0  0
 73143  1  0  0  0
 74 78  1  0  0  0
 74144  1  0  0  0
 74145  1  0  0  0
 75 76  1  0  0  0
 75146  1  0  0  0
 76 77  1  0  0  0
 76147  1  0  0  0
 76148  1  0  0  0
 77149  1  0  0  0
 77150  1  0  0  0
M  ISO  4   1 100  68 101  77 101  78 100
M  END
> <chiral flag>
0

> <version>
0

> <s_m_source_file>
/data/baiqing/PycharmProjects/Reinvent-master-3.2/result/LINK_invent/BTK/process_docking_weight1_custom_sum_contain_oxygen_bond_distance_aromatic_linkinvent_7_9_3/rearranged_h_0198.sdf

> <i_m_source_file_index>
78

> <r_mmod_Potential_Energy-OPLS-2005>
1987.31433105469

> <r_mmod_Stretch_Energy-OPLS-2005>
758.320434570312

> <r_mmod_Bend_Energy-OPLS-2005>
641.05517578125

> <r_mmod_Torsional_Energy-OPLS-2005>
311.031341552734

> <r_mmod_Improper_Torsional_Energy-OPLS-2005>
7.76603746414185

> <r_mmod_Van_der_Waal_Energy-OPLS-2005>
115.90389251709

> <r_mmod_Electrostatic_Energy-OPLS-2005>
-266.089538574219

> <r_mmod_Solvation_Energy-OPLS-2005>
-202.874450683594

> <b_mmod_Minimization_Converged-OPLS-2005>
0

> <r_mmod_RMS_Derivative-OPLS-2005>
0.539686918258667

$$$$
78
                    3D
 Structure written by MMmdl.
156165  0  0  1  0            999 V2000
  -30.6935  -14.5154   20.5488 C   0  0  0  0  0  0
  -30.4247  -12.3335   19.4187 C   0  0  0  0  0  0
  -29.4930  -12.5137   18.2011 C   0  0  0  0  0  0
  -28.0111  -12.3818   18.6121 C   0  0  0  0  0  0
  -27.6591  -13.2102   19.8780 C   0  0  2  0  0  0
  -28.7080  -12.9711   20.9855 C   0  0  0  0  0  0
  -25.2577  -13.8166   20.5713 C   0  0  0  0  0  0
  -24.1833  -13.0430   20.9194 C   0  0  0  0  0  0
  -24.6394  -11.6903   20.8749 C   0  0  0  0  0  0
  -23.9058  -10.4285   21.0402 C   0  0  0  0  0  0
  -24.3620   -9.4203   21.9183 C   0  0  0  0  0  0
  -23.6296   -8.2235   22.0750 C   0  0  0  0  0  0
  -22.4277   -8.0271   21.3543 C   0  0  0  0  0  0
  -21.9910   -9.0242   20.4643 C   0  0  0  0  0  0
  -22.7233  -10.2124   20.3053 C   0  0  0  0  0  0
  -21.6844   -6.0733   22.5283 C   0  0  0  0  0  0
  -21.4007   -6.5639   23.8221 C   0  0  0  0  0  0
  -21.3665   -5.6790   24.9177 C   0  0  0  0  0  0
  -21.6050   -4.3052   24.7222 C   0  0  0  0  0  0
  -21.8817   -3.8144   23.4343 C   0  0  0  0  0  0
  -21.9187   -4.6962   22.3400 C   0  0  0  0  0  0
  -22.7849  -13.5221   21.1836 C   0  0  0  0  0  0
  -22.1648   -4.2153   21.0977 F   0  0  0  0  0  0
  -21.5644   -3.4539   25.7732 F   0  0  0  0  0  0
  -30.0216  -13.3287   20.4301 N   0  0  0  0  0  0
  -26.3022  -12.9339   20.3416 N   0  0  0  0  0  0
  -25.9328  -11.6498   20.5801 N   0  0  0  0  0  0
  -22.0481  -12.8237   22.0400 N   0  0  0  0  0  0
  -25.4270  -15.1884   20.4118 N   0  0  0  0  0  0
  -31.8411  -14.6392   20.1090 O   0  0  0  0  0  0
  -21.6636   -6.8872   21.4243 O   0  0  0  0  0  0
  -22.3537  -14.5522   20.6657 O   0  0  0  0  0  0
  -24.6193  -31.8657   23.2092 C   0  0  0  0  0  0
  -25.9078  -32.4804   23.8384 C   0  0  1  0  0  0
  -27.2225  -27.3927   20.0938 C   0  0  0  0  0  0
  -25.5926  -33.8609   24.2319 N   0  0  0  0  0  0
  -23.4081  -30.4908   21.5516 C   0  0  2  0  0  0
  -24.8499  -28.9581   20.1136 C   0  0  0  0  0  0
  -22.7436  -29.4644   22.4986 C   0  0  0  0  0  0
  -18.0274  -28.1371   22.8496 C   0  0  0  0  0  0
  -24.1491  -36.7307   23.2632 C   0  0  0  0  0  0
  -25.9434  -30.8167   21.3703 C   0  0  0  0  0  0
  -26.0161  -29.4520   20.7113 C   0  0  0  0  0  0
  -27.2057  -28.6788   20.6948 C   0  0  0  0  0  0
  -26.0290  -26.9294   19.4880 C   0  0  0  0  0  0
  -24.8536  -27.6978   19.4992 C   0  0  0  0  0  0
  -23.6153  -29.8288   20.1652 C   0  0  0  0  0  0
  -25.4113  -36.3100   24.0326 C   0  0  1  0  0  0
  -20.5868  -28.3660   23.1315 C   0  0  2  0  0  0
  -20.6770  -26.9391   22.5419 C   0  0  0  0  0  0
  -19.5740  -26.6371   21.5225 C   0  0  0  0  0  0
  -18.1918  -26.7918   22.1626 C   0  0  0  0  0  0
  -19.1525  -28.8836   23.2901 C   0  0  0  0  0  0
  -18.9444  -30.1446   23.8905 C   0  0  0  0  0  0
  -17.6441  -30.6581   24.0558 C   0  0  0  0  0  0
  -25.9046  -34.9464   23.5115 C   0  0  0  0  0  0
  -16.5334  -29.9072   23.6328 C   0  0  0  0  0  0
  -16.7260  -28.6489   23.0353 C   0  0  0  0  0  0
  -26.4480  -31.6599   25.0737 C   0  0  0  0  0  0
  -25.3737  -31.3724   26.1481 C   0  0  0  0  0  0
  -27.0311  -30.3024   24.6161 C   0  0  0  0  0  0
  -27.6045  -32.4329   25.7503 C   0  0  0  0  0  0
  -27.5585  -37.1805   24.8459 C   0  0  0  0  0  0
  -21.4160  -29.3027   22.3729 N   0  0  0  0  0  0
  -26.4296  -37.3792   23.9409 N   0  0  0  0  0  0
  -24.6755  -31.0720   22.1013 N   0  0  0  0  0  0
  -23.4193  -28.8188   23.3035 O   0  0  0  0  0  0
  -28.3752  -26.6156   20.1233 O   0  0  0  0  0  0
  -26.5600  -34.8914   22.4671 O   0  0  0  0  0  0
  -23.5370  -32.1441   23.7449 O   0  0  0  0  0  0
  -29.7535  -21.7821   20.7362 C   0  0  0  0  0  0
  -29.3467  -22.8272   19.8643 C   0  0  0  0  0  0
  -29.6729  -20.4577   20.2280 C   0  0  0  0  0  0
  -29.3236  -17.4080   22.2894 C   0  0  0  0  0  0
  -29.1943  -15.9082   22.0118 C   0  0  0  0  0  0
  -30.2716  -16.9446   20.1602 C   0  0  0  0  0  0
  -29.4734  -18.0346   20.9089 C   0  0  2  0  0  0
  -29.4679  -24.3312   20.2044 C   0  0  0  0  0  0
  -28.2301  -25.1991   19.8424 C   0  0  0  0  0  0
  -28.9327  -22.5340   18.6081 N   0  0  0  0  0  0
  -29.2090  -20.2280   18.9796 N   0  0  0  0  0  0
  -28.8504  -21.2593   18.2035 N   0  0  0  0  0  0
  -29.9530  -15.6392   20.7874 N   0  0  0  0  0  0
  -30.1225  -19.3510   20.9847 N   0  0  0  0  0  0
  -30.3501  -22.0811   22.3351 Cl  0  0  0  0  0  0
  -31.4678  -12.4347   19.1133 H   0  0  0  0  0  0
  -30.3374  -11.3233   19.8221 H   0  0  0  0  0  0
  -29.7342  -11.7824   17.4296 H   0  0  0  0  0  0
  -29.6626  -13.4931   17.7521 H   0  0  0  0  0  0
  -27.8078  -11.3256   18.7919 H   0  0  0  0  0  0
  -27.3648  -12.6750   17.7829 H   0  0  0  0  0  0
  -27.7005  -14.2619   19.5954 H   0  0  0  0  0  0
  -28.7084  -11.9186   21.2717 H   0  0  0  0  0  0
  -28.4672  -13.4956   21.9044 H   0  0  0  0  0  0
  -25.2756   -9.5682   22.4769 H   0  0  0  0  0  0
  -24.0004   -7.4622   22.7466 H   0  0  0  0  0  0
  -21.0842   -8.8754   19.8946 H   0  0  0  0  0  0
  -22.3681  -10.9667   19.6170 H   0  0  0  0  0  0
  -21.1987   -7.6142   23.9730 H   0  0  0  0  0  0
  -21.1500   -6.0512   25.9089 H   0  0  0  0  0  0
  -22.0592   -2.7605   23.2839 H   0  0  0  0  0  0
  -22.4075  -11.9904   22.4817 H   0  0  0  0  0  0
  -21.1097  -13.1280   22.2585 H   0  0  0  0  0  0
  -24.6589  -15.8420   20.5210 H   0  0  0  0  0  0
  -26.2840  -15.6299   20.1031 H   0  0  0  0  0  0
  -26.7149  -32.5487   23.1141 H   0  0  0  0  0  0
  -25.0121  -33.9775   25.0491 H   0  0  0  0  0  0
  -22.6974  -31.3084   21.4145 H   0  0  0  0  0  0
  -23.3754  -35.9638   23.3290 H   0  0  0  0  0  0
  -24.3596  -36.8928   22.2049 H   0  0  0  0  0  0
  -23.7238  -37.6503   23.6658 H   0  0  0  0  0  0
  -26.0695  -31.5837   20.6047 H   0  0  0  0  0  0
  -26.8261  -30.8597   21.9972 H   0  0  0  0  0  0
  -28.1043  -29.0545   21.1629 H   0  0  0  0  0  0
  -25.9703  -25.9671   19.0021 H   0  0  0  0  0  0
  -23.9573  -27.3122   19.0327 H   0  0  0  0  0  0
  -23.7253  -30.6066   19.4089 H   0  0  0  0  0  0
  -22.7381  -29.2510   19.8674 H   0  0  0  0  0  0
  -25.1291  -36.1955   25.0819 H   0  0  0  0  0  0
  -20.9951  -28.3212   24.1441 H   0  0  0  0  0  0
  -20.5687  -26.2256   23.3605 H   0  0  0  0  0  0
  -21.6631  -26.7447   22.1187 H   0  0  0  0  0  0
  -19.6897  -25.6287   21.1243 H   0  0  0  0  0  0
  -19.6683  -27.3192   20.6764 H   0  0  0  0  0  0
  -17.4194  -26.6691   21.4016 H   0  0  0  0  0  0
  -18.0299  -26.0050   22.9008 H   0  0  0  0  0  0
  -19.7917  -30.7274   24.2263 H   0  0  0  0  0  0
  -17.4988  -31.6265   24.5147 H   0  0  0  0  0  0
  -15.5332  -30.2968   23.7654 H   0  0  0  0  0  0
  -15.8659  -28.0809   22.7060 H   0  0  0  0  0  0
  -24.5881  -30.7109   25.7819 H   0  0  0  0  0  0
  -24.8969  -32.2886   26.4965 H   0  0  0  0  0  0
  -25.8067  -30.8855   27.0226 H   0  0  0  0  0  0
  -26.2875  -29.6794   24.1176 H   0  0  0  0  0  0
  -27.4003  -29.7256   25.4651 H   0  0  0  0  0  0
  -27.8746  -30.4317   23.9380 H   0  0  0  0  0  0
  -27.2651  -33.3612   26.2112 H   0  0  0  0  0  0
  -28.3835  -32.6922   25.0325 H   0  0  0  0  0  0
  -28.0742  -31.8446   26.5396 H   0  0  0  0  0  0
  -28.2580  -38.0122   24.7525 H   0  0  0  0  0  0
  -28.1098  -36.2650   24.6256 H   0  0  0  0  0  0
  -27.2307  -37.1416   25.8862 H   0  0  0  0  0  0
  -20.9322  -29.8761   21.6964 H   0  0  0  0  0  0
  -26.0173  -38.2862   24.1420 H   0  0  0  0  0  0
  -30.2223  -17.5791   22.8869 H   0  0  0  0  0  0
  -28.4742  -17.8056   22.8459 H   0  0  0  0  0  0
  -28.1456  -15.6678   21.8400 H   0  0  0  0  0  0
  -29.5457  -15.3164   22.8581 H   0  0  0  0  0  0
  -31.3424  -17.1395   20.2459 H   0  0  0  0  0  0
  -30.0272  -16.9328   19.0969 H   0  0  0  0  0  0
  -28.4789  -18.1220   20.4638 H   0  0  0  0  0  0
  -30.3482  -24.7218   19.6954 H   0  0  0  0  0  0
  -29.6578  -24.4502   21.2698 H   0  0  0  0  0  0
  -27.3755  -24.7967   20.3897 H   0  0  0  0  0  0
  -28.0219  -25.0853   18.7775 H   0  0  0  0  0  0
  -30.4830  -19.6149   21.8961 H   0  0  0  0  0  0
  1 25  1  0  0  0
  1 30  2  0  0  0
  1 83  1  0  0  0
  2  3  1  0  0  0
  2 25  1  0  0  0
  2 86  1  0  0  0
  2 87  1  0  0  0
  3  4  1  0  0  0
  3 88  1  0  0  0
  3 89  1  0  0  0
  4  5  1  0  0  0
  4 90  1  0  0  0
  4 91  1  0  0  0
  5  6  1  0  0  0
  5 26  1  0  0  0
  5 92  1  0  0  0
  6 25  1  0  0  0
  6 93  1  0  0  0
  6 94  1  0  0  0
  7  8  2  0  0  0
  7 26  1  0  0  0
  7 29  1  0  0  0
  8  9  1  0  0  0
  8 22  1  0  0  0
  9 10  1  0  0  0
  9 27  2  0  0  0
 10 11  2  0  0  0
 10 15  1  0  0  0
 11 12  1  0  0  0
 11 95  1  0  0  0
 12 13  2  0  0  0
 12 96  1  0  0  0
 13 14  1  0  0  0
 13 31  1  0  0  0
 14 15  2  0  0  0
 14 97  1  0  0  0
 15 98  1  0  0  0
 16 17  2  0  0  0
 16 21  1  0  0  0
 16 31  1  0  0  0
 17 18  1  0  0  0
 17 99  1  0  0  0
 18 19  2  0  0  0
 18100  1  0  0  0
 19 20  1  0  0  0
 19 24  1  0  0  0
 20 21  2  0  0  0
 20101  1  0  0  0
 21 23  1  0  0  0
 22 28  1  0  0  0
 22 32  2  0  0  0
 26 27  1  0  0  0
 28102  1  0  0  0
 28103  1  0  0  0
 29104  1  0  0  0
 29105  1  0  0  0
 33 34  1  0  0  0
 33 66  1  0  0  0
 33 70  2  0  0  0
 34 36  1  0  0  0
 34 59  1  0  0  0
 34106  1  0  0  0
 35 44  2  0  0  0
 35 45  1  0  0  0
 35 68  1  0  0  0
 36 56  1  0  0  0
 36107  1  0  0  0
 37 39  1  0  0  0
 37 47  1  0  0  0
 37 66  1  0  0  0
 37108  1  0  0  0
 38 43  2  0  0  0
 38 46  1  0  0  0
 38 47  1  0  0  0
 39 64  1  0  0  0
 39 67  2  0  0  0
 40 52  1  0  0  0
 40 53  2  0  0  0
 40 58  1  0  0  0
 41109  1  0  0  0
 41110  1  0  0  0
 41111  1  0  0  0
 41 48  1  0  0  0
 42 43  1  0  0  0
 42 66  1  0  0  0
 42112  1  0  0  0
 42113  1  0  0  0
 43 44  1  0  0  0
 44114  1  0  0  0
 45 46  2  0  0  0
 45115  1  0  0  0
 46116  1  0  0  0
 47117  1  0  0  0
 47118  1  0  0  0
 48 56  1  0  0  0
 48 65  1  0  0  0
 48119  1  0  0  0
 49 50  1  0  0  0
 49 53  1  0  0  0
 49 64  1  0  0  0
 49120  1  0  0  0
 50 51  1  0  0  0
 50121  1  0  0  0
 50122  1  0  0  0
 51 52  1  0  0  0
 51123  1  0  0  0
 51124  1  0  0  0
 52125  1  0  0  0
 52126  1  0  0  0
 53 54  1  0  0  0
 54 55  2  0  0  0
 54127  1  0  0  0
 55 57  1  0  0  0
 55128  1  0  0  0
 56 69  2  0  0  0
 57 58  2  0  0  0
 57129  1  0  0  0
 58130  1  0  0  0
 59 60  1  0  0  0
 59 61  1  0  0  0
 59 62  1  0  0  0
 60131  1  0  0  0
 60132  1  0  0  0
 60133  1  0  0  0
 61134  1  0  0  0
 61135  1  0  0  0
 61136  1  0  0  0
 62137  1  0  0  0
 62138  1  0  0  0
 62139  1  0  0  0
 63 65  1  0  0  0
 63140  1  0  0  0
 63141  1  0  0  0
 63142  1  0  0  0
 64143  1  0  0  0
 65144  1  0  0  0
 68 79  1  0  0  0
 71 72  2  0  0  0
 71 73  1  0  0  0
 71 85  1  0  0  0
 72 78  1  0  0  0
 72 80  1  0  0  0
 73 81  2  0  0  0
 73 84  1  0  0  0
 74 75  1  0  0  0
 74 77  1  0  0  0
 74145  1  0  0  0
 74146  1  0  0  0
 75 83  1  0  0  0
 75147  1  0  0  0
 75148  1  0  0  0
 76 77  1  0  0  0
 76 83  1  0  0  0
 76149  1  0  0  0
 76150  1  0  0  0
 77 84  1  0  0  0
 77151  1  0  0  0
 78 79  1  0  0  0
 78152  1  0  0  0
 78153  1  0  0  0
 79154  1  0  0  0
 79155  1  0  0  0
 80 82  2  0  0  0
 81 82  1  0  0  0
 84156  1  0  0  0
M  ISO  4   1 100  68 101  79 101  83 100
M  END
> <chiral flag>
0

> <version>
0

> <s_m_source_file>
/data/baiqing/PycharmProjects/Reinvent-master-3.2/result/LINK_invent/BTK/process_docking_weight1_custom_sum_contain_oxygen_bond_distance_aromatic_linkinvent_7_9_3/rearranged_h_0198.sdf

> <i_m_source_file_index>
79

> <r_mmod_Potential_Energy-OPLS-2005>
128.182571411133

> <r_mmod_Stretch_Energy-OPLS-2005>
47.9812240600586

> <r_mmod_Bend_Energy-OPLS-2005>
140.296478271484

> <r_mmod_Torsional_Energy-OPLS-2005>
298.748046875

> <r_mmod_Improper_Torsional_Energy-OPLS-2005>
15.7022647857666

> <r_mmod_Van_der_Waal_Energy-OPLS-2005>
159.73828125

> <r_mmod_Electrostatic_Energy-OPLS-2005>
-338.418884277344

> <r_mmod_Solvation_Energy-OPLS-2005>
-215.757690429688

> <b_mmod_Minimization_Converged-OPLS-2005>
0

> <r_mmod_RMS_Derivative-OPLS-2005>
1.78698408603668

$$$$
79
                    3D
 Structure written by MMmdl.
169178  0  0  1  0            999 V2000
  -30.6862  -14.4552   20.5269 C   0  0  0  0  0  0
  -30.4234  -12.2824   19.4140 C   0  0  0  0  0  0
  -29.4967  -12.4893   18.1986 C   0  0  0  0  0  0
  -28.0147  -12.3587   18.6116 C   0  0  0  0  0  0
  -27.6576  -13.1969   19.8697 C   0  0  2  0  0  0
  -28.7019  -12.9790   20.9890 C   0  0  0  0  0  0
  -25.2575  -13.8102   20.5657 C   0  0  0  0  0  0
  -24.1822  -13.0400   20.9178 C   0  0  0  0  0  0
  -24.6353  -11.6865   20.8697 C   0  0  0  0  0  0
  -23.9005  -10.4258   21.0369 C   0  0  0  0  0  0
  -24.3571   -9.4198   21.9169 C   0  0  0  0  0  0
  -23.6288   -8.2201   22.0737 C   0  0  0  0  0  0
  -22.4265   -8.0225   21.3535 C   0  0  0  0  0  0
  -21.9878   -9.0191   20.4641 C   0  0  0  0  0  0
  -22.7172  -10.2078   20.3044 C   0  0  0  0  0  0
  -21.6836   -6.0713   22.5292 C   0  0  0  0  0  0
  -21.3995   -6.5633   23.8221 C   0  0  0  0  0  0
  -21.3669   -5.6790   24.9195 C   0  0  0  0  0  0
  -21.6041   -4.3057   24.7235 C   0  0  0  0  0  0
  -21.8820   -3.8136   23.4355 C   0  0  0  0  0  0
  -21.9197   -4.6944   22.3418 C   0  0  0  0  0  0
  -22.7859  -13.5215   21.1869 C   0  0  0  0  0  0
  -22.1665   -4.2135   21.0991 F   0  0  0  0  0  0
  -21.5655   -3.4530   25.7745 F   0  0  0  0  0  0
  -30.0288  -13.2725   20.4250 N   0  0  0  0  0  0
  -26.3008  -12.9248   20.3340 N   0  0  0  0  0  0
  -25.9271  -11.6419   20.5724 N   0  0  0  0  0  0
  -22.0472  -12.8226   22.0428 N   0  0  0  0  0  0
  -25.4319  -15.1820   20.4069 N   0  0  0  0  0  0
  -31.8556  -14.6166   20.1656 O   0  0  0  0  0  0
  -21.6627   -6.8823   21.4240 O   0  0  0  0  0  0
  -22.3574  -14.5549   20.6762 O   0  0  0  0  0  0
  -24.6106  -31.8725   23.2154 C   0  0  0  0  0  0
  -25.9021  -32.4845   23.8435 C   0  0  1  0  0  0
  -27.2170  -27.4508   20.1049 C   0  0  0  0  0  0
  -25.5922  -33.8644   24.2389 N   0  0  0  0  0  0
  -23.3953  -30.4976   21.5550 C   0  0  2  0  0  0
  -24.8406  -28.9681   20.1134 C   0  0  0  0  0  0
  -22.7399  -29.4680   22.5018 C   0  0  0  0  0  0
  -18.0255  -28.1378   22.8493 C   0  0  0  0  0  0
  -24.1481  -36.7300   23.2627 C   0  0  0  0  0  0
  -25.9204  -30.8435   21.3646 C   0  0  0  0  0  0
  -25.9985  -29.4782   20.7150 C   0  0  0  0  0  0
  -27.1924  -28.7249   20.7154 C   0  0  0  0  0  0
  -26.0506  -26.9517   19.4918 C   0  0  0  0  0  0
  -24.8605  -27.7039   19.4960 C   0  0  0  0  0  0
  -23.6011  -29.8341   20.1664 C   0  0  0  0  0  0
  -25.4098  -36.3129   24.0360 C   0  0  1  0  0  0
  -20.5852  -28.3661   23.1329 C   0  0  2  0  0  0
  -20.6760  -26.9405   22.5419 C   0  0  0  0  0  0
  -19.5740  -26.6384   21.5215 C   0  0  0  0  0  0
  -18.1915  -26.7929   22.1620 C   0  0  0  0  0  0
  -19.1509  -28.8834   23.2907 C   0  0  0  0  0  0
  -18.9436  -30.1429   23.8918 C   0  0  0  0  0  0
  -17.6439  -30.6576   24.0564 C   0  0  0  0  0  0
  -25.9033  -34.9493   23.5166 C   0  0  0  0  0  0
  -16.5331  -29.9081   23.6331 C   0  0  0  0  0  0
  -16.7247  -28.6496   23.0359 C   0  0  0  0  0  0
  -26.4474  -31.6593   25.0733 C   0  0  0  0  0  0
  -25.3769  -31.3670   26.1508 C   0  0  0  0  0  0
  -27.0269  -30.3033   24.6055 C   0  0  0  0  0  0
  -27.6118  -32.4266   25.7443 C   0  0  0  0  0  0
  -27.5599  -37.1777   24.8447 C   0  0  0  0  0  0
  -21.4128  -29.3028   22.3758 N   0  0  0  0  0  0
  -26.4278  -37.3827   23.9443 N   0  0  0  0  0  0
  -24.6603  -31.0844   22.1042 N   0  0  0  0  0  0
  -23.4196  -28.8230   23.3056 O   0  0  0  0  0  0
  -28.3488  -26.6739   20.0999 O   0  0  0  0  0  0
  -26.5587  -34.8947   22.4717 O   0  0  0  0  0  0
  -23.5312  -32.1484   23.7568 O   0  0  0  0  0  0
  -29.9113  -17.8653   21.3509 C   0  0  0  0  0  0
  -31.3593  -20.2182   17.9397 C   0  0  0  0  0  0
  -29.9504  -16.3994   21.8435 C   0  0  0  0  0  0
  -29.7486  -16.4277   19.4970 C   0  0  0  0  0  0
  -30.9164  -18.7818   17.7492 C   0  0  0  0  0  0
  -30.4094  -17.7422   19.9176 C   0  0  1  0  0  0
  -30.6776  -20.2045   19.3103 C   0  0  1  0  0  0
  -31.1925  -23.2254   18.9717 C   0  0  0  0  0  0
  -29.6105  -21.2868   19.6225 C   0  0  0  0  0  0
  -29.5970  -24.8514   21.1400 C   0  0  0  0  0  0
  -28.5359  -25.9561   21.3233 C   0  0  0  0  0  0
  -30.1977  -22.6785   20.0254 C   0  0  2  0  0  0
  -29.8746  -15.5315   20.6546 N   0  0  0  0  0  0
  -30.1246  -18.8694   18.9823 N   0  3  1  0  0  0
  -29.1344  -23.6836   20.3325 N   0  3  0  0  0  0
  -31.4706  -12.3724   19.1234 H   0  0  0  0  0  0
  -30.3075  -11.2742   19.8117 H   0  0  0  0  0  0
  -29.7343  -11.7594   17.4229 H   0  0  0  0  0  0
  -29.6742  -13.4710   17.7544 H   0  0  0  0  0  0
  -27.8273  -11.3021   18.8097 H   0  0  0  0  0  0
  -27.3638  -12.6276   17.7783 H   0  0  0  0  0  0
  -27.6936  -14.2425   19.5713 H   0  0  0  0  0  0
  -28.6723  -11.9477   21.3427 H   0  0  0  0  0  0
  -28.4818  -13.6015   21.8585 H   0  0  0  0  0  0
  -25.2677   -9.5718   22.4757 H   0  0  0  0  0  0
  -24.0039   -7.4573   22.7413 H   0  0  0  0  0  0
  -21.0816   -8.8643   19.8939 H   0  0  0  0  0  0
  -22.3583  -10.9597   19.6151 H   0  0  0  0  0  0
  -21.1953   -7.6134   23.9730 H   0  0  0  0  0  0
  -21.1517   -6.0514   25.9107 H   0  0  0  0  0  0
  -22.0599   -2.7598   23.2845 H   0  0  0  0  0  0
  -22.4077  -11.9921   22.4890 H   0  0  0  0  0  0
  -21.1069  -13.1241   22.2514 H   0  0  0  0  0  0
  -24.6689  -15.8373   20.5254 H   0  0  0  0  0  0
  -26.2967  -15.6273   20.1243 H   0  0  0  0  0  0
  -26.7095  -32.5569   23.1205 H   0  0  0  0  0  0
  -25.0150  -33.9828   25.0590 H   0  0  0  0  0  0
  -22.6811  -31.3143   21.4234 H   0  0  0  0  0  0
  -23.3790  -35.9575   23.3244 H   0  0  0  0  0  0
  -24.3604  -36.8939   22.2048 H   0  0  0  0  0  0
  -23.7159  -37.6467   23.6656 H   0  0  0  0  0  0
  -26.0305  -31.6090   20.5955 H   0  0  0  0  0  0
  -26.8111  -30.8983   21.9784 H   0  0  0  0  0  0
  -28.0859  -29.1130   21.1852 H   0  0  0  0  0  0
  -26.0543  -25.9794   19.0191 H   0  0  0  0  0  0
  -23.9685  -27.3150   19.0249 H   0  0  0  0  0  0
  -23.7014  -30.6121   19.4076 H   0  0  0  0  0  0
  -22.7241  -29.2532   19.8763 H   0  0  0  0  0  0
  -25.1253  -36.1990   25.0849 H   0  0  0  0  0  0
  -20.9930  -28.3200   24.1455 H   0  0  0  0  0  0
  -20.5646  -26.2278   23.3597 H   0  0  0  0  0  0
  -21.6635  -26.7461   22.1207 H   0  0  0  0  0  0
  -19.6909  -25.6299   21.1235 H   0  0  0  0  0  0
  -19.6684  -27.3196   20.6754 H   0  0  0  0  0  0
  -17.4206  -26.6684   21.3999 H   0  0  0  0  0  0
  -18.0301  -26.0037   22.8971 H   0  0  0  0  0  0
  -19.7907  -30.7235   24.2300 H   0  0  0  0  0  0
  -17.4996  -31.6257   24.5155 H   0  0  0  0  0  0
  -15.5335  -30.2991   23.7632 H   0  0  0  0  0  0
  -15.8642  -28.0804   22.7095 H   0  0  0  0  0  0
  -24.5936  -30.7028   25.7830 H   0  0  0  0  0  0
  -24.8973  -32.2819   26.5004 H   0  0  0  0  0  0
  -25.8150  -30.8795   27.0235 H   0  0  0  0  0  0
  -26.2766  -29.6783   24.1200 H   0  0  0  0  0  0
  -27.4145  -29.7265   25.4462 H   0  0  0  0  0  0
  -27.8573  -30.4337   23.9113 H   0  0  0  0  0  0
  -27.2829  -33.3590   26.2034 H   0  0  0  0  0  0
  -28.3903  -32.6764   25.0225 H   0  0  0  0  0  0
  -28.0814  -31.8366   26.5317 H   0  0  0  0  0  0
  -28.2557  -38.0143   24.7662 H   0  0  0  0  0  0
  -28.1177  -36.2706   24.6075 H   0  0  0  0  0  0
  -27.2379  -37.1155   25.8859 H   0  0  0  0  0  0
  -20.9291  -29.8733   21.6964 H   0  0  0  0  0  0
  -26.0173  -38.2884   24.1558 H   0  0  0  0  0  0
  -30.5328  -18.5226   21.9597 H   0  0  0  0  0  0
  -28.8882  -18.2443   21.3699 H   0  0  0  0  0  0
  -30.9026  -20.8942   17.2157 H   0  0  0  0  0  0
  -32.4433  -20.3455   17.9803 H   0  0  0  0  0  0
  -29.1246  -16.1924   22.5227 H   0  0  0  0  0  0
  -30.8732  -16.2128   22.3966 H   0  0  0  0  0  0
  -30.1908  -16.0264   18.5823 H   0  0  0  0  0  0
  -28.6870  -16.5746   19.2925 H   0  0  0  0  0  0
  -31.7553  -18.0834   17.7934 H   0  0  0  0  0  0
  -30.3110  -18.6137   16.8603 H   0  0  0  0  0  0
  -31.4904  -17.5936   19.9704 H   0  0  0  0  0  0
  -31.4255  -20.1074   20.1005 H   0  0  0  0  0  0
  -32.0627  -22.5787   18.8736 H   0  0  0  0  0  0
  -31.5966  -24.2001   19.2354 H   0  0  0  0  0  0
  -30.7357  -23.3221   17.9857 H   0  0  0  0  0  0
  -28.9569  -20.9303   20.4218 H   0  0  0  0  0  0
  -28.9611  -21.4181   18.7537 H   0  0  0  0  0  0
  -29.8991  -24.4821   22.1216 H   0  0  0  0  0  0
  -30.4778  -25.3133   20.7020 H   0  0  0  0  0  0
  -28.8891  -26.6632   22.0777 H   0  0  0  0  0  0
  -27.6014  -25.5336   21.7011 H   0  0  0  0  0  0
  -30.7522  -22.5182   20.9526 H   0  0  0  0  0  0
  -29.1418  -18.9246   18.7570 H   0  0  0  0  0  0
  -28.7194  -24.0172   19.4756 H   0  0  0  0  0  0
  -28.4010  -23.2206   20.8496 H   0  0  0  0  0  0
  1 25  1  0  0  0
  1 30  2  0  0  0
  1 83  1  0  0  0
  2  3  1  0  0  0
  2 25  1  0  0  0
  2 86  1  0  0  0
  2 87  1  0  0  0
  3  4  1  0  0  0
  3 88  1  0  0  0
  3 89  1  0  0  0
  4  5  1  0  0  0
  4 90  1  0  0  0
  4 91  1  0  0  0
  5  6  1  0  0  0
  5 26  1  0  0  0
  5 92  1  0  0  0
  6 25  1  0  0  0
  6 93  1  0  0  0
  6 94  1  0  0  0
  7  8  2  0  0  0
  7 26  1  0  0  0
  7 29  1  0  0  0
  8  9  1  0  0  0
  8 22  1  0  0  0
  9 10  1  0  0  0
  9 27  2  0  0  0
 10 11  2  0  0  0
 10 15  1  0  0  0
 11 12  1  0  0  0
 11 95  1  0  0  0
 12 13  2  0  0  0
 12 96  1  0  0  0
 13 14  1  0  0  0
 13 31  1  0  0  0
 14 15  2  0  0  0
 14 97  1  0  0  0
 15 98  1  0  0  0
 16 17  2  0  0  0
 16 21  1  0  0  0
 16 31  1  0  0  0
 17 18  1  0  0  0
 17 99  1  0  0  0
 18 19  2  0  0  0
 18100  1  0  0  0
 19 20  1  0  0  0
 19 24  1  0  0  0
 20 21  2  0  0  0
 20101  1  0  0  0
 21 23  1  0  0  0
 22 28  1  0  0  0
 22 32  2  0  0  0
 26 27  1  0  0  0
 28102  1  0  0  0
 28103  1  0  0  0
 29104  1  0  0  0
 29105  1  0  0  0
 33 34  1  0  0  0
 33 66  1  0  0  0
 33 70  2  0  0  0
 34 36  1  0  0  0
 34 59  1  0  0  0
 34106  1  0  0  0
 35 44  2  0  0  0
 35 45  1  0  0  0
 35 68  1  0  0  0
 36 56  1  0  0  0
 36107  1  0  0  0
 37 39  1  0  0  0
 37 47  1  0  0  0
 37 66  1  0  0  0
 37108  1  0  0  0
 38 43  2  0  0  0
 38 46  1  0  0  0
 38 47  1  0  0  0
 39 64  1  0  0  0
 39 67  2  0  0  0
 40 52  1  0  0  0
 40 53  2  0  0  0
 40 58  1  0  0  0
 41109  1  0  0  0
 41110  1  0  0  0
 41111  1  0  0  0
 41 48  1  0  0  0
 42 43  1  0  0  0
 42 66  1  0  0  0
 42112  1  0  0  0
 42113  1  0  0  0
 43 44  1  0  0  0
 44114  1  0  0  0
 45 46  2  0  0  0
 45115  1  0  0  0
 46116  1  0  0  0
 47117  1  0  0  0
 47118  1  0  0  0
 48 56  1  0  0  0
 48 65  1  0  0  0
 48119  1  0  0  0
 49 50  1  0  0  0
 49 53  1  0  0  0
 49 64  1  0  0  0
 49120  1  0  0  0
 50 51  1  0  0  0
 50121  1  0  0  0
 50122  1  0  0  0
 51 52  1  0  0  0
 51123  1  0  0  0
 51124  1  0  0  0
 52125  1  0  0  0
 52126  1  0  0  0
 53 54  1  0  0  0
 54 55  2  0  0  0
 54127  1  0  0  0
 55 57  1  0  0  0
 55128  1  0  0  0
 56 69  2  0  0  0
 57 58  2  0  0  0
 57129  1  0  0  0
 58130  1  0  0  0
 59 60  1  0  0  0
 59 61  1  0  0  0
 59 62  1  0  0  0
 60131  1  0  0  0
 60132  1  0  0  0
 60133  1  0  0  0
 61134  1  0  0  0
 61135  1  0  0  0
 61136  1  0  0  0
 62137  1  0  0  0
 62138  1  0  0  0
 62139  1  0  0  0
 63 65  1  0  0  0
 63140  1  0  0  0
 63141  1  0  0  0
 63142  1  0  0  0
 64143  1  0  0  0
 65144  1  0  0  0
 68 81  1  0  0  0
 71 73  1  0  0  0
 71145  1  0  0  0
 71146  1  0  0  0
 71 76  1  0  0  0
 72 75  1  0  0  0
 72 77  1  0  0  0
 72147  1  0  0  0
 72148  1  0  0  0
 73 83  1  0  0  0
 73149  1  0  0  0
 73150  1  0  0  0
 74 76  1  0  0  0
 74 83  1  0  0  0
 74151  1  0  0  0
 74152  1  0  0  0
 75153  1  0  0  0
 75154  1  0  0  0
 75 84  1  0  0  0
 76 84  1  0  0  0
 76155  1  0  0  0
 77 79  1  0  0  0
 77 84  1  0  0  0
 77156  1  0  0  0
 78157  1  0  0  0
 78158  1  0  0  0
 78159  1  0  0  0
 78 82  1  0  0  0
 79 82  1  0  0  0
 79160  1  0  0  0
 79161  1  0  0  0
 80 81  1  0  0  0
 80 85  1  0  0  0
 80162  1  0  0  0
 80163  1  0  0  0
 81164  1  0  0  0
 81165  1  0  0  0
 82 85  1  0  0  0
 82166  1  0  0  0
 84167  1  0  0  0
 85168  1  0  0  0
 85169  1  0  0  0
M  CHG  2  84   1  85   1
M  ISO  4   1 100  68 101  81 101  83 100
M  END
> <chiral flag>
0

> <version>
0

> <s_m_source_file>
/data/baiqing/PycharmProjects/Reinvent-master-3.2/result/LINK_invent/BTK/process_docking_weight1_custom_sum_contain_oxygen_bond_distance_aromatic_linkinvent_7_9_3/rearranged_h_0198.sdf

> <i_m_source_file_index>
80

> <r_mmod_Potential_Energy-OPLS-2005>
-8.54437637329102

> <r_mmod_Stretch_Energy-OPLS-2005>
39.3051910400391

> <r_mmod_Bend_Energy-OPLS-2005>
134.517669677734

> <r_mmod_Torsional_Energy-OPLS-2005>
411.195526123047

> <r_mmod_Improper_Torsional_Energy-OPLS-2005>
15.4948387145996

> <r_mmod_Van_der_Waal_Energy-OPLS-2005>
122.790794372559

> <r_mmod_Electrostatic_Energy-OPLS-2005>
158.007919311523

> <r_mmod_Solvation_Energy-OPLS-2005>
-904.573364257812

> <b_mmod_Minimization_Converged-OPLS-2005>
0

> <r_mmod_RMS_Derivative-OPLS-2005>
4.47777557373047

$$$$
80
                    3D
 Structure written by MMmdl.
167177  0  0  1  0            999 V2000
  -30.6662  -14.8364   20.4307 C   0  0  0  0  0  0
  -30.4088  -12.5249   19.4814 C   0  0  0  0  0  0
  -29.4996  -12.4987   18.2369 C   0  0  0  0  0  0
  -28.0385  -12.2808   18.6651 C   0  0  0  0  0  0
  -27.6192  -13.2189   19.8251 C   0  0  2  0  0  0
  -28.6674  -13.2870   20.9592 C   0  0  0  0  0  0
  -25.2465  -13.8138   20.5724 C   0  0  0  0  0  0
  -24.1750  -13.0403   20.9221 C   0  0  0  0  0  0
  -24.6322  -11.6881   20.8750 C   0  0  0  0  0  0
  -23.8999  -10.4281   21.0420 C   0  0  0  0  0  0
  -24.3580   -9.4203   21.9185 C   0  0  0  0  0  0
  -23.6279   -8.2220   22.0752 C   0  0  0  0  0  0
  -22.4251   -8.0255   21.3549 C   0  0  0  0  0  0
  -21.9873   -9.0225   20.4649 C   0  0  0  0  0  0
  -22.7182  -10.2114   20.3065 C   0  0  0  0  0  0
  -21.6847   -6.0718   22.5267 C   0  0  0  0  0  0
  -21.4010   -6.5621   23.8195 C   0  0  0  0  0  0
  -21.3666   -5.6776   24.9163 C   0  0  0  0  0  0
  -21.6035   -4.3040   24.7220 C   0  0  0  0  0  0
  -21.8819   -3.8136   23.4339 C   0  0  0  0  0  0
  -21.9195   -4.6947   22.3398 C   0  0  0  0  0  0
  -22.7789  -13.5220   21.1866 C   0  0  0  0  0  0
  -22.1665   -4.2141   21.0976 F   0  0  0  0  0  0
  -21.5648   -3.4524   25.7742 F   0  0  0  0  0  0
  -29.9514  -13.6487   20.3467 N   0  0  0  0  0  0
  -26.2838  -12.9291   20.3232 N   0  0  0  0  0  0
  -25.9238  -11.6459   20.5733 N   0  0  0  0  0  0
  -22.0417  -12.8246   22.0416 N   0  0  0  0  0  0
  -25.4208  -15.1846   20.4175 N   0  0  0  0  0  0
  -31.8758  -14.7675   20.1920 O   0  0  0  0  0  0
  -21.6622   -6.8852   21.4230 O   0  0  0  0  0  0
  -22.3496  -14.5533   20.6699 O   0  0  0  0  0  0
  -24.6348  -31.8503   23.1950 C   0  0  0  0  0  0
  -25.9158  -32.4729   23.8316 C   0  0  1  0  0  0
  -27.2101  -27.2180   20.1252 C   0  0  0  0  0  0
  -25.5932  -33.8534   24.2231 N   0  0  0  0  0  0
  -23.4332  -30.4732   21.5388 C   0  0  2  0  0  0
  -24.8788  -28.9183   20.1024 C   0  0  0  0  0  0
  -22.7525  -29.4563   22.4879 C   0  0  0  0  0  0
  -18.0295  -28.1386   22.8482 C   0  0  0  0  0  0
  -24.1480  -36.7271   23.2638 C   0  0  0  0  0  0
  -25.9826  -30.7486   21.3826 C   0  0  0  0  0  0
  -26.0509  -29.3692   20.7204 C   0  0  0  0  0  0
  -27.2146  -28.5289   20.7242 C   0  0  0  0  0  0
  -26.0105  -26.8438   19.4817 C   0  0  0  0  0  0
  -24.8666  -27.6661   19.4713 C   0  0  0  0  0  0
  -23.6525  -29.8102   20.1534 C   0  0  0  0  0  0
  -25.4108  -36.3053   24.0321 C   0  0  1  0  0  0
  -20.5904  -28.3696   23.1248 C   0  0  2  0  0  0
  -20.6776  -26.9403   22.5398 C   0  0  0  0  0  0
  -19.5745  -26.6377   21.5206 C   0  0  0  0  0  0
  -18.1931  -26.7922   22.1633 C   0  0  0  0  0  0
  -19.1553  -28.8861   23.2857 C   0  0  0  0  0  0
  -18.9469  -30.1466   23.8866 C   0  0  0  0  0  0
  -17.6473  -30.6587   24.0557 C   0  0  0  0  0  0
  -25.9061  -34.9427   23.5087 C   0  0  0  0  0  0
  -16.5362  -29.9082   23.6332 C   0  0  0  0  0  0
  -16.7283  -28.6509   23.0349 C   0  0  0  0  0  0
  -26.4511  -31.6577   25.0733 C   0  0  0  0  0  0
  -25.3727  -31.3770   26.1468 C   0  0  0  0  0  0
  -27.0341  -30.2967   24.6269 C   0  0  0  0  0  0
  -27.6071  -32.4318   25.7494 C   0  0  0  0  0  0
  -27.5574  -37.1780   24.8453 C   0  0  0  0  0  0
  -21.4227  -29.3029   22.3636 N   0  0  0  0  0  0
  -26.4275  -37.3762   23.9416 N   0  0  0  0  0  0
  -24.7034  -31.0439   22.0948 N   0  0  0  0  0  0
  -23.4219  -28.8096   23.2984 O   0  0  0  0  0  0
  -28.2906  -26.2975   20.2348 O   0  0  0  0  0  0
  -26.5645  -34.8911   22.4660 O   0  0  0  0  0  0
  -23.5497  -32.1349   23.7229 O   0  0  0  0  0  0
  -28.4974  -23.4851   20.0188 C   0  0  0  0  0  0
  -29.5948  -22.9633   20.7717 C   0  0  0  0  0  0
  -27.6631  -22.4103   19.5650 C   0  0  0  0  0  0
  -29.0298  -20.6907   20.4237 C   0  0  0  0  0  0
  -30.8842  -23.8564   22.8716 C   0  0  0  0  0  0
  -30.2366  -25.0536   22.2324 C   0  0  0  0  0  0
  -30.4164  -18.6636   21.3308 C   0  0  0  0  0  0
  -28.5228  -18.1852   19.9007 C   0  0  0  0  0  0
  -31.0218  -17.3166   20.7443 C   0  0  0  0  0  0
  -28.7328  -16.6506   20.3568 C   0  0  0  0  0  0
  -30.6297  -23.8649   21.3779 C   0  0  0  0  0  0
  -25.1516  -21.9917   19.4159 C   0  0  0  0  0  0
  -28.3968  -25.0083   19.4477 C   0  0  0  0  0  0
  -26.3864  -22.6308   18.7607 C   0  0  0  0  0  0
  -29.8371  -21.6135   20.9611 N   0  0  0  0  0  0
  -27.9479  -21.0766   19.7504 N   0  0  0  0  0  0
  -29.3238  -19.2619   20.5392 N   0  0  0  0  0  0
  -30.1113  -16.1296   20.6198 N   0  0  0  0  0  0
  -31.4500  -12.6208   19.1709 H   0  0  0  0  0  0
  -30.3536  -11.5792   20.0216 H   0  0  0  0  0  0
  -29.8139  -11.7078   17.5526 H   0  0  0  0  0  0
  -29.5919  -13.4380   17.6880 H   0  0  0  0  0  0
  -27.9356  -11.2401   18.9748 H   0  0  0  0  0  0
  -27.3712  -12.4102   17.8119 H   0  0  0  0  0  0
  -27.5567  -14.1885   19.3489 H   0  0  0  0  0  0
  -28.7401  -12.3304   21.4788 H   0  0  0  0  0  0
  -28.3753  -14.0265   21.7053 H   0  0  0  0  0  0
  -25.2720   -9.5715   22.4747 H   0  0  0  0  0  0
  -23.9999   -7.4618   22.7470 H   0  0  0  0  0  0
  -21.0800   -8.8729   19.8968 H   0  0  0  0  0  0
  -22.3618  -10.9645   19.6174 H   0  0  0  0  0  0
  -21.1985   -7.6123   23.9697 H   0  0  0  0  0  0
  -21.1498   -6.0507   25.9062 H   0  0  0  0  0  0
  -22.0600   -2.7601   23.2830 H   0  0  0  0  0  0
  -22.4022  -11.9906   22.4820 H   0  0  0  0  0  0
  -21.1042  -13.1321   22.2617 H   0  0  0  0  0  0
  -24.6629  -15.8456   20.5495 H   0  0  0  0  0  0
  -26.2791  -15.6212   20.1134 H   0  0  0  0  0  0
  -26.7216  -32.5347   23.1050 H   0  0  0  0  0  0
  -25.0036  -33.9658   25.0357 H   0  0  0  0  0  0
  -22.7315  -31.2971   21.3928 H   0  0  0  0  0  0
  -23.3759  -35.9577   23.3257 H   0  0  0  0  0  0
  -24.3576  -36.8959   22.2058 H   0  0  0  0  0  0
  -23.7222  -37.6453   23.6702 H   0  0  0  0  0  0
  -26.1315  -31.5097   20.6156 H   0  0  0  0  0  0
  -26.8568  -30.7916   22.0215 H   0  0  0  0  0  0
  -28.1089  -28.8646   21.2290 H   0  0  0  0  0  0
  -25.9016  -25.8791   19.0178 H   0  0  0  0  0  0
  -23.9670  -27.3135   18.9859 H   0  0  0  0  0  0
  -23.7811  -30.5876   19.3990 H   0  0  0  0  0  0
  -22.7698  -29.2471   19.8462 H   0  0  0  0  0  0
  -25.1287  -36.1881   25.0812 H   0  0  0  0  0  0
  -20.9995  -28.3271   24.1373 H   0  0  0  0  0  0
  -20.5664  -26.2301   23.3611 H   0  0  0  0  0  0
  -21.6645  -26.7411   22.1196 H   0  0  0  0  0  0
  -19.6894  -25.6280   21.1255 H   0  0  0  0  0  0
  -19.6677  -27.3182   20.6721 H   0  0  0  0  0  0
  -17.4187  -26.6654   21.4048 H   0  0  0  0  0  0
  -18.0342  -26.0081   22.9049 H   0  0  0  0  0  0
  -19.7948  -30.7288   24.2228 H   0  0  0  0  0  0
  -17.5025  -31.6264   24.5157 H   0  0  0  0  0  0
  -15.5363  -30.2976   23.7666 H   0  0  0  0  0  0
  -15.8685  -28.0821   22.7068 H   0  0  0  0  0  0
  -24.5797  -30.7263   25.7777 H   0  0  0  0  0  0
  -24.9066  -32.2979   26.4982 H   0  0  0  0  0  0
  -25.8023  -30.8829   27.0197 H   0  0  0  0  0  0
  -26.2923  -29.6719   24.1288 H   0  0  0  0  0  0
  -27.3967  -29.7245   25.4822 H   0  0  0  0  0  0
  -27.8840  -30.4194   23.9554 H   0  0  0  0  0  0
  -27.2688  -33.3640   26.2029 H   0  0  0  0  0  0
  -28.3902  -32.6848   25.0333 H   0  0  0  0  0  0
  -28.0712  -31.8472   26.5452 H   0  0  0  0  0  0
  -28.2565  -38.0102   24.7539 H   0  0  0  0  0  0
  -28.1104  -36.2643   24.6227 H   0  0  0  0  0  0
  -27.2302  -37.1369   25.8857 H   0  0  0  0  0  0
  -20.9419  -29.8778   21.6863 H   0  0  0  0  0  0
  -26.0147  -38.2824   24.1462 H   0  0  0  0  0  0
  -30.2495  -23.2296   23.4939 H   0  0  0  0  0  0
  -31.9076  -23.9850   23.2178 H   0  0  0  0  0  0
  -30.8352  -25.9564   22.1426 H   0  0  0  0  0  0
  -29.1800  -25.2105   22.4450 H   0  0  0  0  0  0
  -31.2187  -19.3970   21.4262 H   0  0  0  0  0  0
  -30.0494  -18.4870   22.3431 H   0  0  0  0  0  0
  -27.4657  -18.4367   20.0163 H   0  0  0  0  0  0
  -28.7205  -18.2592   18.8301 H   0  0  0  0  0  0
  -31.8670  -17.0407   21.3791 H   0  0  0  0  0  0
  -31.4496  -17.5188   19.7589 H   0  0  0  0  0  0
  -28.3021  -16.0634   19.5570 H   0  0  0  0  0  0
  -28.1370  -16.4528   21.2492 H   0  0  0  0  0  0
  -31.4887  -23.9770   20.7200 H   0  0  0  0  0  0
  -24.2499  -22.2096   18.8441 H   0  0  0  0  0  0
  -25.0026  -22.3653   20.4293 H   0  0  0  0  0  0
  -25.2496  -20.9064   19.4677 H   0  0  0  0  0  0
  -27.7725  -25.0437   18.5615 H   0  0  0  0  0  0
  -29.3803  -25.1267   18.9921 H   0  0  0  0  0  0
  -26.5266  -22.2273   17.7572 H   0  0  0  0  0  0
  -26.1714  -23.6867   18.6351 H   0  0  0  0  0  0
  1 25  1  0  0  0
  1 30  2  0  0  0
  1 88  1  0  0  0
  2  3  1  0  0  0
  2 25  1  0  0  0
  2 89  1  0  0  0
  2 90  1  0  0  0
  3  4  1  0  0  0
  3 91  1  0  0  0
  3 92  1  0  0  0
  4  5  1  0  0  0
  4 93  1  0  0  0
  4 94  1  0  0  0
  5  6  1  0  0  0
  5 26  1  0  0  0
  5 95  1  0  0  0
  6 25  1  0  0  0
  6 96  1  0  0  0
  6 97  1  0  0  0
  7  8  2  0  0  0
  7 26  1  0  0  0
  7 29  1  0  0  0
  8  9  1  0  0  0
  8 22  1  0  0  0
  9 10  1  0  0  0
  9 27  2  0  0  0
 10 11  2  0  0  0
 10 15  1  0  0  0
 11 12  1  0  0  0
 11 98  1  0  0  0
 12 13  2  0  0  0
 12 99  1  0  0  0
 13 14  1  0  0  0
 13 31  1  0  0  0
 14 15  2  0  0  0
 14100  1  0  0  0
 15101  1  0  0  0
 16 17  2  0  0  0
 16 21  1  0  0  0
 16 31  1  0  0  0
 17 18  1  0  0  0
 17102  1  0  0  0
 18 19  2  0  0  0
 18103  1  0  0  0
 19 20  1  0  0  0
 19 24  1  0  0  0
 20 21  2  0  0  0
 20104  1  0  0  0
 21 23  1  0  0  0
 22 28  1  0  0  0
 22 32  2  0  0  0
 26 27  1  0  0  0
 28105  1  0  0  0
 28106  1  0  0  0
 29107  1  0  0  0
 29108  1  0  0  0
 33 34  1  0  0  0
 33 66  1  0  0  0
 33 70  2  0  0  0
 34 36  1  0  0  0
 34 59  1  0  0  0
 34109  1  0  0  0
 35 44  2  0  0  0
 35 45  1  0  0  0
 35 68  1  0  0  0
 36 56  1  0  0  0
 36110  1  0  0  0
 37 39  1  0  0  0
 37 47  1  0  0  0
 37 66  1  0  0  0
 37111  1  0  0  0
 38 43  2  0  0  0
 38 46  1  0  0  0
 38 47  1  0  0  0
 39 64  1  0  0  0
 39 67  2  0  0  0
 40 52  1  0  0  0
 40 53  2  0  0  0
 40 58  1  0  0  0
 41112  1  0  0  0
 41113  1  0  0  0
 41114  1  0  0  0
 41 48  1  0  0  0
 42 43  1  0  0  0
 42 66  1  0  0  0
 42115  1  0  0  0
 42116  1  0  0  0
 43 44  1  0  0  0
 44117  1  0  0  0
 45 46  2  0  0  0
 45118  1  0  0  0
 46119  1  0  0  0
 47120  1  0  0  0
 47121  1  0  0  0
 48 56  1  0  0  0
 48 65  1  0  0  0
 48122  1  0  0  0
 49 50  1  0  0  0
 49 53  1  0  0  0
 49 64  1  0  0  0
 49123  1  0  0  0
 50 51  1  0  0  0
 50124  1  0  0  0
 50125  1  0  0  0
 51 52  1  0  0  0
 51126  1  0  0  0
 51127  1  0  0  0
 52128  1  0  0  0
 52129  1  0  0  0
 53 54  1  0  0  0
 54 55  2  0  0  0
 54130  1  0  0  0
 55 57  1  0  0  0
 55131  1  0  0  0
 56 69  2  0  0  0
 57 58  2  0  0  0
 57132  1  0  0  0
 58133  1  0  0  0
 59 60  1  0  0  0
 59 61  1  0  0  0
 59 62  1  0  0  0
 60134  1  0  0  0
 60135  1  0  0  0
 60136  1  0  0  0
 61137  1  0  0  0
 61138  1  0  0  0
 61139  1  0  0  0
 62140  1  0  0  0
 62141  1  0  0  0
 62142  1  0  0  0
 63 65  1  0  0  0
 63143  1  0  0  0
 63144  1  0  0  0
 63145  1  0  0  0
 64146  1  0  0  0
 65147  1  0  0  0
 68 83  1  0  0  0
 71 72  1  0  0  0
 71 73  2  0  0  0
 71 83  1  0  0  0
 72 85  2  0  0  0
 72 81  1  0  0  0
 73 84  1  0  0  0
 73 86  1  0  0  0
 74 85  1  0  0  0
 74 86  2  0  0  0
 74 87  1  0  0  0
 75 76  1  0  0  0
 75 81  1  0  0  0
 75148  1  0  0  0
 75149  1  0  0  0
 76 81  1  0  0  0
 76150  1  0  0  0
 76151  1  0  0  0
 77 79  1  0  0  0
 77 87  1  0  0  0
 77152  1  0  0  0
 77153  1  0  0  0
 78 80  1  0  0  0
 78 87  1  0  0  0
 78154  1  0  0  0
 78155  1  0  0  0
 79 88  1  0  0  0
 79156  1  0  0  0
 79157  1  0  0  0
 80 88  1  0  0  0
 80158  1  0  0  0
 80159  1  0  0  0
 81160  1  0  0  0
 82 84  1  0  0  0
 82161  1  0  0  0
 82162  1  0  0  0
 82163  1  0  0  0
 83164  1  0  0  0
 83165  1  0  0  0
 84166  1  0  0  0
 84167  1  0  0  0
M  ISO  4   1 100  68 101  83 101  88 100
M  END
> <chiral flag>
0

> <version>
0

> <s_m_source_file>
/data/baiqing/PycharmProjects/Reinvent-master-3.2/result/LINK_invent/BTK/process_docking_weight1_custom_sum_contain_oxygen_bond_distance_aromatic_linkinvent_7_9_3/rearranged_h_0198.sdf

> <i_m_source_file_index>
81

> <r_mmod_Potential_Energy-OPLS-2005>
-22.4091720581055

> <r_mmod_Stretch_Energy-OPLS-2005>
146.017272949219

> <r_mmod_Bend_Energy-OPLS-2005>
253.83625793457

> <r_mmod_Torsional_Energy-OPLS-2005>
353.479217529297

> <r_mmod_Improper_Torsional_Energy-OPLS-2005>
6.45624971389771

> <r_mmod_Van_der_Waal_Energy-OPLS-2005>
154.910842895508

> <r_mmod_Electrostatic_Energy-OPLS-2005>
-827.056335449219

> <r_mmod_Solvation_Energy-OPLS-2005>
-241.686187744141

> <b_mmod_Minimization_Converged-OPLS-2005>
0

> <r_mmod_RMS_Derivative-OPLS-2005>
2.72477102279663

$$$$
81
                    3D
 Structure written by MMmdl.
167178  0  0  1  0            999 V2000
  -30.6825  -14.5042   20.5016 C   0  0  0  0  0  0
  -30.4141  -12.3078   19.4244 C   0  0  0  0  0  0
  -29.4867  -12.4775   18.2035 C   0  0  0  0  0  0
  -28.0137  -12.3175   18.6252 C   0  0  0  0  0  0
  -27.6490  -13.1806   19.8634 C   0  0  2  0  0  0
  -28.6981  -13.0291   20.9890 C   0  0  0  0  0  0
  -25.2575  -13.8097   20.5694 C   0  0  0  0  0  0
  -24.1818  -13.0404   20.9205 C   0  0  0  0  0  0
  -24.6353  -11.6867   20.8781 C   0  0  0  0  0  0
  -23.9032  -10.4273   21.0442 C   0  0  0  0  0  0
  -24.3604   -9.4193   21.9203 C   0  0  0  0  0  0
  -23.6289   -8.2226   22.0757 C   0  0  0  0  0  0
  -22.4258   -8.0293   21.3558 C   0  0  0  0  0  0
  -21.9893   -9.0260   20.4659 C   0  0  0  0  0  0
  -22.7213  -10.2136   20.3076 C   0  0  0  0  0  0
  -21.6856   -6.0748   22.5299 C   0  0  0  0  0  0
  -21.4003   -6.5653   23.8229 C   0  0  0  0  0  0
  -21.3645   -5.6802   24.9186 C   0  0  0  0  0  0
  -21.6046   -4.3066   24.7223 C   0  0  0  0  0  0
  -21.8828   -3.8159   23.4351 C   0  0  0  0  0  0
  -21.9185   -4.6971   22.3410 C   0  0  0  0  0  0
  -22.7851  -13.5231   21.1876 C   0  0  0  0  0  0
  -22.1660   -4.2168   21.0983 F   0  0  0  0  0  0
  -21.5619   -3.4551   25.7733 F   0  0  0  0  0  0
  -30.0215  -13.3192   20.4169 N   0  0  0  0  0  0
  -26.2961  -12.9190   20.3367 N   0  0  0  0  0  0
  -25.9267  -11.6390   20.5826 N   0  0  0  0  0  0
  -22.0472  -12.8261   22.0425 N   0  0  0  0  0  0
  -25.4315  -15.1817   20.4130 N   0  0  0  0  0  0
  -31.8564  -14.6363   20.1409 O   0  0  0  0  0  0
  -21.6629   -6.8892   21.4257 O   0  0  0  0  0  0
  -22.3565  -14.5540   20.6703 O   0  0  0  0  0  0
  -24.6108  -31.8709   23.2117 C   0  0  0  0  0  0
  -25.9017  -32.4832   23.8408 C   0  0  1  0  0  0
  -27.2416  -27.4752   20.0954 C   0  0  0  0  0  0
  -25.5895  -33.8623   24.2351 N   0  0  0  0  0  0
  -23.3988  -30.4938   21.5489 C   0  0  2  0  0  0
  -24.8482  -28.9622   20.1148 C   0  0  0  0  0  0
  -22.7410  -29.4654   22.4951 C   0  0  0  0  0  0
  -18.0291  -28.1365   22.8472 C   0  0  0  0  0  0
  -24.1471  -36.7302   23.2635 C   0  0  0  0  0  0
  -25.9213  -30.8508   21.3569 C   0  0  0  0  0  0
  -26.0026  -29.4849   20.7123 C   0  0  0  0  0  0
  -27.2033  -28.7472   20.7059 C   0  0  0  0  0  0
  -26.0808  -26.9597   19.4881 C   0  0  0  0  0  0
  -24.8787  -27.6942   19.5038 C   0  0  0  0  0  0
  -23.6100  -29.8282   20.1620 C   0  0  0  0  0  0
  -25.4087  -36.3102   24.0351 C   0  0  1  0  0  0
  -20.5876  -28.3657   23.1299 C   0  0  2  0  0  0
  -20.6763  -26.9384   22.5427 C   0  0  0  0  0  0
  -19.5761  -26.6369   21.5204 C   0  0  0  0  0  0
  -18.1939  -26.7915   22.1606 C   0  0  0  0  0  0
  -19.1541  -28.8825   23.2891 C   0  0  0  0  0  0
  -18.9468  -30.1419   23.8935 C   0  0  0  0  0  0
  -17.6471  -30.6547   24.0598 C   0  0  0  0  0  0
  -25.9032  -34.9473   23.5145 C   0  0  0  0  0  0
  -16.5369  -29.9075   23.6304 C   0  0  0  0  0  0
  -16.7283  -28.6495   23.0314 C   0  0  0  0  0  0
  -26.4469  -31.6580   25.0703 C   0  0  0  0  0  0
  -25.3783  -31.3698   26.1493 C   0  0  0  0  0  0
  -27.0239  -30.3015   24.6001 C   0  0  0  0  0  0
  -27.6080  -32.4261   25.7444 C   0  0  0  0  0  0
  -27.5575  -37.1783   24.8456 C   0  0  0  0  0  0
  -21.4149  -29.2997   22.3671 N   0  0  0  0  0  0
  -26.4260  -37.3798   23.9446 N   0  0  0  0  0  0
  -24.6615  -31.0857   22.0990 N   0  0  0  0  0  0
  -23.4192  -28.8215   23.3000 O   0  0  0  0  0  0
  -28.3943  -26.7349   20.0583 O   0  0  0  0  0  0
  -26.5593  -34.8917   22.4706 O   0  0  0  0  0  0
  -23.5310  -32.1422   23.7553 O   0  0  0  0  0  0
  -28.8895  -20.6173   20.8783 C   0  0  0  0  0  0
  -29.9524  -20.0807   20.1114 C   0  0  0  0  0  0
  -30.9096  -21.0280   19.6885 C   0  0  0  0  0  0
  -29.7557  -22.7166   20.7002 C   0  0  0  0  0  0
  -33.1302  -19.6465   19.3181 C   0  0  0  0  0  0
  -33.4952  -21.1031   19.4258 C   0  0  0  0  0  0
  -30.3741  -26.3246   21.3585 C   0  0  0  0  0  0
  -30.7695  -25.0126   20.6816 C   0  0  0  0  0  0
  -29.3261  -16.3668   19.6968 C   0  0  0  0  0  0
  -30.5161  -16.8303   21.3414 C   0  0  0  0  0  0
  -28.5251  -24.7852   21.4809 C   0  0  0  0  0  0
  -32.1361  -20.7042   18.8853 C   0  0  0  0  0  0
  -29.5044  -17.6269   20.5233 C   0  0  0  0  0  0
  -28.8494  -26.2838   21.3336 C   0  0  2  0  0  0
  -28.7934  -21.9345   21.1639 N   0  0  0  0  0  0
  -30.7931  -22.3323   19.9834 N   0  0  0  0  0  0
  -29.7061  -24.0681   21.0097 N   0  0  0  0  0  0
  -29.9263  -15.5874   20.7999 N   0  0  0  0  0  0
  -30.0691  -18.7255   19.7406 N   0  0  0  0  0  0
  -31.4582  -12.4031   19.1222 H   0  0  0  0  0  0
  -30.3110  -11.3057   19.8465 H   0  0  0  0  0  0
  -29.7334  -11.7425   17.4361 H   0  0  0  0  0  0
  -29.6406  -13.4574   17.7480 H   0  0  0  0  0  0
  -27.8508  -11.2632   18.8517 H   0  0  0  0  0  0
  -27.3550  -12.5503   17.7888 H   0  0  0  0  0  0
  -27.6572  -14.2029   19.5139 H   0  0  0  0  0  0
  -28.6880  -12.0158   21.3941 H   0  0  0  0  0  0
  -28.4630  -13.6927   21.8246 H   0  0  0  0  0  0
  -25.2777   -9.5652   22.4754 H   0  0  0  0  0  0
  -24.0023   -7.4600   22.7451 H   0  0  0  0  0  0
  -21.0832   -8.8770   19.8963 H   0  0  0  0  0  0
  -22.3703  -10.9671   19.6171 H   0  0  0  0  0  0
  -21.2003   -7.6164   23.9739 H   0  0  0  0  0  0
  -21.1450   -6.0528   25.9086 H   0  0  0  0  0  0
  -22.0617   -2.7628   23.2850 H   0  0  0  0  0  0
  -22.4089  -11.9969   22.4915 H   0  0  0  0  0  0
  -21.1068  -13.1284   22.2541 H   0  0  0  0  0  0
  -24.6694  -15.8395   20.5340 H   0  0  0  0  0  0
  -26.3023  -15.6272   20.1553 H   0  0  0  0  0  0
  -26.7099  -32.5581   23.1195 H   0  0  0  0  0  0
  -25.0067  -33.9794   25.0512 H   0  0  0  0  0  0
  -22.6853  -31.3088   21.4117 H   0  0  0  0  0  0
  -23.3729  -35.9638   23.3288 H   0  0  0  0  0  0
  -24.3572  -36.8919   22.2053 H   0  0  0  0  0  0
  -23.7218  -37.6506   23.6645 H   0  0  0  0  0  0
  -26.0192  -31.6134   20.5832 H   0  0  0  0  0  0
  -26.8143  -30.9159   21.9660 H   0  0  0  0  0  0
  -28.0975  -29.1551   21.1565 H   0  0  0  0  0  0
  -26.1109  -25.9907   19.0094 H   0  0  0  0  0  0
  -23.9923  -27.2840   19.0390 H   0  0  0  0  0  0
  -23.7305  -30.6090   19.4103 H   0  0  0  0  0  0
  -22.7327  -29.2570   19.8527 H   0  0  0  0  0  0
  -25.1242  -36.1962   25.0837 H   0  0  0  0  0  0
  -20.9996  -28.3249   24.1414 H   0  0  0  0  0  0
  -20.5598  -26.2299   23.3636 H   0  0  0  0  0  0
  -21.6649  -26.7362   22.1282 H   0  0  0  0  0  0
  -19.6932  -25.6289   21.1197 H   0  0  0  0  0  0
  -19.6698  -27.3212   20.6764 H   0  0  0  0  0  0
  -17.4208  -26.6658   21.4006 H   0  0  0  0  0  0
  -18.0345  -26.0041   22.8992 H   0  0  0  0  0  0
  -19.7950  -30.7212   24.2344 H   0  0  0  0  0  0
  -17.5026  -31.6205   24.5241 H   0  0  0  0  0  0
  -15.5378  -30.3003   23.7566 H   0  0  0  0  0  0
  -15.8686  -28.0827   22.6992 H   0  0  0  0  0  0
  -24.5990  -30.6976   25.7885 H   0  0  0  0  0  0
  -24.8950  -32.2864   26.4895 H   0  0  0  0  0  0
  -25.8208  -30.8947   27.0260 H   0  0  0  0  0  0
  -26.2712  -29.6815   24.1120 H   0  0  0  0  0  0
  -27.4083  -29.7211   25.4393 H   0  0  0  0  0  0
  -27.8528  -30.4313   23.9045 H   0  0  0  0  0  0
  -27.2730  -33.3542   26.2082 H   0  0  0  0  0  0
  -28.3874  -32.6841   25.0267 H   0  0  0  0  0  0
  -28.0763  -31.8346   26.5317 H   0  0  0  0  0  0
  -28.2588  -38.0085   24.7516 H   0  0  0  0  0  0
  -28.1065  -36.2626   24.6212 H   0  0  0  0  0  0
  -27.2324  -37.1358   25.8865 H   0  0  0  0  0  0
  -20.9324  -29.8718   21.6886 H   0  0  0  0  0  0
  -26.0136  -38.2850   24.1533 H   0  0  0  0  0  0
  -28.0906  -19.9943   21.2481 H   0  0  0  0  0  0
  -32.9283  -19.1086   20.2420 H   0  0  0  0  0  0
  -33.6388  -19.0755   18.5450 H   0  0  0  0  0  0
  -34.2282  -21.4932   18.7222 H   0  0  0  0  0  0
  -33.5315  -21.5329   20.4248 H   0  0  0  0  0  0
  -30.7963  -27.2062   20.8748 H   0  0  0  0  0  0
  -30.7174  -26.3207   22.3939 H   0  0  0  0  0  0
  -31.7428  -24.6595   21.0255 H   0  0  0  0  0  0
  -30.8145  -25.1325   19.5979 H   0  0  0  0  0  0
  -29.9013  -16.3459   18.7659 H   0  0  0  0  0  0
  -28.2725  -16.1899   19.4997 H   0  0  0  0  0  0
  -30.3900  -16.9548   22.4185 H   0  0  0  0  0  0
  -31.5553  -17.0060   21.0510 H   0  0  0  0  0  0
  -27.6306  -24.5074   20.9234 H   0  0  0  0  0  0
  -28.3548  -24.5355   22.5284 H   0  0  0  0  0  0
  -31.9543  -20.8403   17.8203 H   0  0  0  0  0  0
  -28.5981  -17.8652   21.0835 H   0  0  0  0  0  0
  -28.4325  -26.8698   22.1555 H   0  0  0  0  0  0
  -30.8259  -18.4832   19.1049 H   0  0  0  0  0  0
  1 25  1  0  0  0
  1 30  2  0  0  0
  1 88  1  0  0  0
  2  3  1  0  0  0
  2 25  1  0  0  0
  2 90  1  0  0  0
  2 91  1  0  0  0
  3  4  1  0  0  0
  3 92  1  0  0  0
  3 93  1  0  0  0
  4  5  1  0  0  0
  4 94  1  0  0  0
  4 95  1  0  0  0
  5  6  1  0  0  0
  5 26  1  0  0  0
  5 96  1  0  0  0
  6 25  1  0  0  0
  6 97  1  0  0  0
  6 98  1  0  0  0
  7  8  2  0  0  0
  7 26  1  0  0  0
  7 29  1  0  0  0
  8  9  1  0  0  0
  8 22  1  0  0  0
  9 10  1  0  0  0
  9 27  2  0  0  0
 10 11  2  0  0  0
 10 15  1  0  0  0
 11 12  1  0  0  0
 11 99  1  0  0  0
 12 13  2  0  0  0
 12100  1  0  0  0
 13 14  1  0  0  0
 13 31  1  0  0  0
 14 15  2  0  0  0
 14101  1  0  0  0
 15102  1  0  0  0
 16 17  2  0  0  0
 16 21  1  0  0  0
 16 31  1  0  0  0
 17 18  1  0  0  0
 17103  1  0  0  0
 18 19  2  0  0  0
 18104  1  0  0  0
 19 20  1  0  0  0
 19 24  1  0  0  0
 20 21  2  0  0  0
 20105  1  0  0  0
 21 23  1  0  0  0
 22 28  1  0  0  0
 22 32  2  0  0  0
 26 27  1  0  0  0
 28106  1  0  0  0
 28107  1  0  0  0
 29108  1  0  0  0
 29109  1  0  0  0
 33 34  1  0  0  0
 33 66  1  0  0  0
 33 70  2  0  0  0
 34 36  1  0  0  0
 34 59  1  0  0  0
 34110  1  0  0  0
 35 44  2  0  0  0
 35 45  1  0  0  0
 35 68  1  0  0  0
 36 56  1  0  0  0
 36111  1  0  0  0
 37 39  1  0  0  0
 37 47  1  0  0  0
 37 66  1  0  0  0
 37112  1  0  0  0
 38 43  2  0  0  0
 38 46  1  0  0  0
 38 47  1  0  0  0
 39 64  1  0  0  0
 39 67  2  0  0  0
 40 52  1  0  0  0
 40 53  2  0  0  0
 40 58  1  0  0  0
 41113  1  0  0  0
 41114  1  0  0  0
 41115  1  0  0  0
 41 48  1  0  0  0
 42 43  1  0  0  0
 42 66  1  0  0  0
 42116  1  0  0  0
 42117  1  0  0  0
 43 44  1  0  0  0
 44118  1  0  0  0
 45 46  2  0  0  0
 45119  1  0  0  0
 46120  1  0  0  0
 47121  1  0  0  0
 47122  1  0  0  0
 48 56  1  0  0  0
 48 65  1  0  0  0
 48123  1  0  0  0
 49 50  1  0  0  0
 49 53  1  0  0  0
 49 64  1  0  0  0
 49124  1  0  0  0
 50 51  1  0  0  0
 50125  1  0  0  0
 50126  1  0  0  0
 51 52  1  0  0  0
 51127  1  0  0  0
 51128  1  0  0  0
 52129  1  0  0  0
 52130  1  0  0  0
 53 54  1  0  0  0
 54 55  2  0  0  0
 54131  1  0  0  0
 55 57  1  0  0  0
 55132  1  0  0  0
 56 69  2  0  0  0
 57 58  2  0  0  0
 57133  1  0  0  0
 58134  1  0  0  0
 59 60  1  0  0  0
 59 61  1  0  0  0
 59 62  1  0  0  0
 60135  1  0  0  0
 60136  1  0  0  0
 60137  1  0  0  0
 61138  1  0  0  0
 61139  1  0  0  0
 61140  1  0  0  0
 62141  1  0  0  0
 62142  1  0  0  0
 62143  1  0  0  0
 63 65  1  0  0  0
 63144  1  0  0  0
 63145  1  0  0  0
 63146  1  0  0  0
 64147  1  0  0  0
 65148  1  0  0  0
 68 84  1  0  0  0
 71 72  2  0  0  0
 71 85  1  0  0  0
 71149  1  0  0  0
 72 73  1  0  0  0
 72 89  1  0  0  0
 73 86  2  0  0  0
 73 82  1  0  0  0
 74 85  2  0  0  0
 74 86  1  0  0  0
 74 87  1  0  0  0
 75 76  1  0  0  0
 75 82  1  0  0  0
 75150  1  0  0  0
 75151  1  0  0  0
 76 82  1  0  0  0
 76152  1  0  0  0
 76153  1  0  0  0
 77 78  1  0  0  0
 77 84  1  0  0  0
 77154  1  0  0  0
 77155  1  0  0  0
 78 87  1  0  0  0
 78156  1  0  0  0
 78157  1  0  0  0
 79 83  1  0  0  0
 79 88  1  0  0  0
 79158  1  0  0  0
 79159  1  0  0  0
 80 83  1  0  0  0
 80 88  1  0  0  0
 80160  1  0  0  0
 80161  1  0  0  0
 81 84  1  0  0  0
 81 87  1  0  0  0
 81162  1  0  0  0
 81163  1  0  0  0
 82164  1  0  0  0
 83 89  1  0  0  0
 83165  1  0  0  0
 84166  1  0  0  0
 89167  1  0  0  0
M  ISO  4   1 100  68 101  84 101  88 100
M  END
> <chiral flag>
0

> <version>
0

> <s_m_source_file>
/data/baiqing/PycharmProjects/Reinvent-master-3.2/result/LINK_invent/BTK/process_docking_weight1_custom_sum_contain_oxygen_bond_distance_aromatic_linkinvent_7_9_3/rearranged_h_0198.sdf

> <i_m_source_file_index>
82

> <r_mmod_Potential_Energy-OPLS-2005>
-322.744567871094

> <r_mmod_Stretch_Energy-OPLS-2005>
34.933650970459

> <r_mmod_Bend_Energy-OPLS-2005>
146.391098022461

> <r_mmod_Torsional_Energy-OPLS-2005>
357.411773681641

> <r_mmod_Improper_Torsional_Energy-OPLS-2005>
13.4314956665039

> <r_mmod_Van_der_Waal_Energy-OPLS-2005>
158.358383178711

> <r_mmod_Electrostatic_Energy-OPLS-2005>
-806.202453613281

> <r_mmod_Solvation_Energy-OPLS-2005>
-243.63264465332

> <b_mmod_Minimization_Converged-OPLS-2005>
0

> <r_mmod_RMS_Derivative-OPLS-2005>
3.33737659454346

$$$$
82
                    3D
 Structure written by MMmdl.
162171  0  0  1  0            999 V2000
  -30.6647  -14.6234   20.4478 C   0  0  0  0  0  0
  -30.4221  -12.3718   19.4507 C   0  0  0  0  0  0
  -29.4986  -12.4674   18.2186 C   0  0  0  0  0  0
  -28.0205  -12.3314   18.6358 C   0  0  0  0  0  0
  -27.6430  -13.2208   19.8523 C   0  0  2  0  0  0
  -28.6934  -13.1289   20.9797 C   0  0  0  0  0  0
  -25.2533  -13.8177   20.5719 C   0  0  0  0  0  0
  -24.1803  -13.0436   20.9200 C   0  0  0  0  0  0
  -24.6381  -11.6911   20.8752 C   0  0  0  0  0  0
  -23.9057  -10.4291   21.0411 C   0  0  0  0  0  0
  -24.3612   -9.4208   21.9189 C   0  0  0  0  0  0
  -23.6291   -8.2241   22.0754 C   0  0  0  0  0  0
  -22.4276   -8.0278   21.3542 C   0  0  0  0  0  0
  -21.9908   -9.0251   20.4645 C   0  0  0  0  0  0
  -22.7230  -10.2133   20.3058 C   0  0  0  0  0  0
  -21.6853   -6.0736   22.5278 C   0  0  0  0  0  0
  -21.4013   -6.5641   23.8210 C   0  0  0  0  0  0
  -21.3658   -5.6793   24.9173 C   0  0  0  0  0  0
  -21.6044   -4.3057   24.7225 C   0  0  0  0  0  0
  -21.8821   -3.8148   23.4346 C   0  0  0  0  0  0
  -21.9195   -4.6963   22.3402 C   0  0  0  0  0  0
  -22.7828  -13.5225   21.1859 C   0  0  0  0  0  0
  -22.1663   -4.2150   21.0980 F   0  0  0  0  0  0
  -21.5627   -3.4539   25.7736 F   0  0  0  0  0  0
  -30.0020  -13.4287   20.3883 N   0  0  0  0  0  0
  -26.2952  -12.9362   20.3329 N   0  0  0  0  0  0
  -25.9312  -11.6517   20.5783 N   0  0  0  0  0  0
  -22.0476  -12.8216   22.0415 N   0  0  0  0  0  0
  -25.4261  -15.1895   20.4167 N   0  0  0  0  0  0
  -31.8750  -14.6923   20.2133 O   0  0  0  0  0  0
  -21.6642   -6.8876   21.4239 O   0  0  0  0  0  0
  -22.3519  -14.5538   20.6714 O   0  0  0  0  0  0
  -24.6228  -31.8617   23.2030 C   0  0  0  0  0  0
  -25.9092  -32.4787   23.8355 C   0  0  1  0  0  0
  -27.2248  -27.3506   20.1224 C   0  0  0  0  0  0
  -25.5926  -33.8590   24.2292 N   0  0  0  0  0  0
  -23.4145  -30.4840   21.5450 C   0  0  2  0  0  0
  -24.8615  -28.9385   20.1130 C   0  0  0  0  0  0
  -22.7454  -29.4633   22.4954 C   0  0  0  0  0  0
  -18.0279  -28.1379   22.8493 C   0  0  0  0  0  0
  -24.1489  -36.7297   23.2639 C   0  0  0  0  0  0
  -25.9505  -30.8049   21.3654 C   0  0  0  0  0  0
  -26.0272  -29.4322   20.7131 C   0  0  0  0  0  0
  -27.2152  -28.6506   20.7043 C   0  0  0  0  0  0
  -26.0422  -26.8957   19.5015 C   0  0  0  0  0  0
  -24.8690  -27.6751   19.4977 C   0  0  0  0  0  0
  -23.6270  -29.8142   20.1610 C   0  0  0  0  0  0
  -25.4111  -36.3091   24.0334 C   0  0  1  0  0  0
  -20.5875  -28.3679   23.1297 C   0  0  2  0  0  0
  -20.6770  -26.9408   22.5414 C   0  0  0  0  0  0
  -19.5748  -26.6384   21.5213 C   0  0  0  0  0  0
  -18.1926  -26.7925   22.1621 C   0  0  0  0  0  0
  -19.1531  -28.8846   23.2890 C   0  0  0  0  0  0
  -18.9457  -30.1451   23.8904 C   0  0  0  0  0  0
  -17.6459  -30.6587   24.0563 C   0  0  0  0  0  0
  -25.9048  -34.9457   23.5111 C   0  0  0  0  0  0
  -16.5349  -29.9087   23.6327 C   0  0  0  0  0  0
  -16.7267  -28.6501   23.0354 C   0  0  0  0  0  0
  -26.4491  -31.6584   25.0709 C   0  0  0  0  0  0
  -25.3738  -31.3702   26.1443 C   0  0  0  0  0  0
  -27.0328  -30.3019   24.6123 C   0  0  0  0  0  0
  -27.6059  -32.4306   25.7481 C   0  0  0  0  0  0
  -27.5577  -37.1803   24.8468 C   0  0  0  0  0  0
  -21.4171  -29.3042   22.3701 N   0  0  0  0  0  0
  -26.4289  -37.3783   23.9411 N   0  0  0  0  0  0
  -24.6814  -31.0664   22.0954 N   0  0  0  0  0  0
  -23.4197  -28.8173   23.3017 O   0  0  0  0  0  0
  -28.3543  -26.5347   20.1354 O   0  0  0  0  0  0
  -26.5612  -34.8924   22.4673 O   0  0  0  0  0  0
  -23.5403  -32.1396   23.7385 O   0  0  0  0  0  0
  -27.5855  -20.0265   18.2297 C   0  0  0  0  0  0
  -27.5658  -21.5353   18.3117 C   0  0  0  0  0  0
  -30.3202  -16.9432   21.2674 C   0  0  0  0  0  0
  -29.6428  -16.3135   19.0918 C   0  0  0  0  0  0
  -29.4173  -18.2359   21.1465 C   0  0  0  0  0  0
  -28.6805  -17.5266   19.0722 C   0  0  0  0  0  0
  -28.3324  -19.9349   19.5864 C   0  0  2  0  0  0
  -28.7532  -21.4579   19.2829 C   0  0  2  0  0  0
  -28.7138  -23.9840   19.7366 C   0  0  0  0  0  0
  -28.2023  -25.1635   20.6540 C   0  0  0  0  0  0
  -29.9098  -15.7756   20.4388 N   0  0  0  0  0  0
  -29.2366  -18.7114   19.7596 N   0  0  0  0  0  0
  -28.6229  -22.5700   20.3019 N   0  3  0  0  0  0
  -31.4658  -12.4723   19.1477 H   0  0  0  0  0  0
  -30.3385  -11.3919   19.9229 H   0  0  0  0  0  0
  -29.7527  -11.6881   17.4991 H   0  0  0  0  0  0
  -29.6571  -13.4145   17.7025 H   0  0  0  0  0  0
  -27.8500  -11.2828   18.8815 H   0  0  0  0  0  0
  -27.3674  -12.5528   17.7912 H   0  0  0  0  0  0
  -27.6383  -14.2465   19.4888 H   0  0  0  0  0  0
  -28.7001  -12.1353   21.4297 H   0  0  0  0  0  0
  -28.4583  -13.8318   21.7810 H   0  0  0  0  0  0
  -25.2755   -9.5691   22.4767 H   0  0  0  0  0  0
  -24.0002   -7.4637   22.7474 H   0  0  0  0  0  0
  -21.0839   -8.8768   19.8953 H   0  0  0  0  0  0
  -22.3684  -10.9675   19.6170 H   0  0  0  0  0  0
  -21.2003   -7.6151   23.9711 H   0  0  0  0  0  0
  -21.1476   -6.0526   25.9076 H   0  0  0  0  0  0
  -22.0601   -2.7612   23.2845 H   0  0  0  0  0  0
  -22.4085  -11.9861   22.4781 H   0  0  0  0  0  0
  -21.1099  -13.1246   22.2636 H   0  0  0  0  0  0
  -24.6668  -15.8502   20.5390 H   0  0  0  0  0  0
  -26.2947  -15.6272   20.1411 H   0  0  0  0  0  0
  -26.7163  -32.5474   23.1113 H   0  0  0  0  0  0
  -25.0099  -33.9742   25.0455 H   0  0  0  0  0  0
  -22.7066  -31.3029   21.4014 H   0  0  0  0  0  0
  -23.3752  -35.9630   23.3304 H   0  0  0  0  0  0
  -24.3582  -36.8912   22.2054 H   0  0  0  0  0  0
  -23.7245  -37.6502   23.6654 H   0  0  0  0  0  0
  -26.0716  -31.5664   20.5937 H   0  0  0  0  0  0
  -26.8357  -30.8596   21.9879 H   0  0  0  0  0  0
  -28.1144  -29.0276   21.1712 H   0  0  0  0  0  0
  -26.0192  -25.9278   19.0208 H   0  0  0  0  0  0
  -23.9751  -27.2935   19.0229 H   0  0  0  0  0  0
  -23.7412  -30.5880   19.4013 H   0  0  0  0  0  0
  -22.7488  -29.2388   19.8620 H   0  0  0  0  0  0
  -25.1289  -36.1945   25.0827 H   0  0  0  0  0  0
  -20.9967  -28.3249   24.1415 H   0  0  0  0  0  0
  -20.5669  -26.2289   23.3608 H   0  0  0  0  0  0
  -21.6639  -26.7441   22.1206 H   0  0  0  0  0  0
  -19.6909  -25.6297   21.1237 H   0  0  0  0  0  0
  -19.6686  -27.3201   20.6748 H   0  0  0  0  0  0
  -17.4195  -26.6679   21.4023 H   0  0  0  0  0  0
  -18.0325  -26.0061   22.9010 H   0  0  0  0  0  0
  -19.7935  -30.7263   24.2281 H   0  0  0  0  0  0
  -17.5013  -31.6269   24.5161 H   0  0  0  0  0  0
  -15.5350  -30.2992   23.7650 H   0  0  0  0  0  0
  -15.8662  -28.0821   22.7072 H   0  0  0  0  0  0
  -24.5933  -30.7024   25.7776 H   0  0  0  0  0  0
  -24.8902  -32.2856   26.4863 H   0  0  0  0  0  0
  -25.8080  -30.8895   27.0219 H   0  0  0  0  0  0
  -26.2885  -29.6775   24.1165 H   0  0  0  0  0  0
  -27.4075  -29.7266   25.4600 H   0  0  0  0  0  0
  -27.8731  -30.4328   23.9300 H   0  0  0  0  0  0
  -27.2684  -33.3613   26.2053 H   0  0  0  0  0  0
  -28.3876  -32.6849   25.0311 H   0  0  0  0  0  0
  -28.0716  -31.8424   26.5400 H   0  0  0  0  0  0
  -28.2595  -38.0099   24.7512 H   0  0  0  0  0  0
  -28.1070  -36.2630   24.6290 H   0  0  0  0  0  0
  -27.2293  -37.1450   25.8871 H   0  0  0  0  0  0
  -20.9344  -29.8770   21.6921 H   0  0  0  0  0  0
  -26.0172  -38.2860   24.1409 H   0  0  0  0  0  0
  -28.1815  -19.7145   17.3702 H   0  0  0  0  0  0
  -26.5984  -19.5620   18.2140 H   0  0  0  0  0  0
  -26.6412  -21.9032   18.7600 H   0  0  0  0  0  0
  -27.7789  -22.0394   17.3679 H   0  0  0  0  0  0
  -30.3435  -16.6290   22.3124 H   0  0  0  0  0  0
  -31.3492  -17.2094   21.0169 H   0  0  0  0  0  0
  -30.5849  -16.5913   18.6133 H   0  0  0  0  0  0
  -29.2154  -15.5344   18.4613 H   0  0  0  0  0  0
  -29.8585  -19.0382   21.7399 H   0  0  0  0  0  0
  -28.4411  -18.0325   21.5921 H   0  0  0  0  0  0
  -27.7125  -17.2546   19.4976 H   0  0  0  0  0  0
  -28.5017  -17.7348   18.0192 H   0  0  0  0  0  0
  -27.5805  -19.9018   20.3776 H   0  0  0  0  0  0
  -29.7066  -21.5090   18.7532 H   0  0  0  0  0  0
  -29.7528  -24.1688   19.4644 H   0  0  0  0  0  0
  -28.1494  -24.0416   18.8071 H   0  0  0  0  0  0
  -28.7573  -25.1326   21.5920 H   0  0  0  0  0  0
  -27.1668  -24.9682   20.9365 H   0  0  0  0  0  0
  -29.3359  -22.4498   21.0055 H   0  0  0  0  0  0
  -27.7360  -22.4622   20.7686 H   0  0  0  0  0  0
  1 25  1  0  0  0
  1 30  2  0  0  0
  1 81  1  0  0  0
  2  3  1  0  0  0
  2 25  1  0  0  0
  2 84  1  0  0  0
  2 85  1  0  0  0
  3  4  1  0  0  0
  3 86  1  0  0  0
  3 87  1  0  0  0
  4  5  1  0  0  0
  4 88  1  0  0  0
  4 89  1  0  0  0
  5  6  1  0  0  0
  5 26  1  0  0  0
  5 90  1  0  0  0
  6 25  1  0  0  0
  6 91  1  0  0  0
  6 92  1  0  0  0
  7  8  2  0  0  0
  7 26  1  0  0  0
  7 29  1  0  0  0
  8  9  1  0  0  0
  8 22  1  0  0  0
  9 10  1  0  0  0
  9 27  2  0  0  0
 10 11  2  0  0  0
 10 15  1  0  0  0
 11 12  1  0  0  0
 11 93  1  0  0  0
 12 13  2  0  0  0
 12 94  1  0  0  0
 13 14  1  0  0  0
 13 31  1  0  0  0
 14 15  2  0  0  0
 14 95  1  0  0  0
 15 96  1  0  0  0
 16 17  2  0  0  0
 16 21  1  0  0  0
 16 31  1  0  0  0
 17 18  1  0  0  0
 17 97  1  0  0  0
 18 19  2  0  0  0
 18 98  1  0  0  0
 19 20  1  0  0  0
 19 24  1  0  0  0
 20 21  2  0  0  0
 20 99  1  0  0  0
 21 23  1  0  0  0
 22 28  1  0  0  0
 22 32  2  0  0  0
 26 27  1  0  0  0
 28100  1  0  0  0
 28101  1  0  0  0
 29102  1  0  0  0
 29103  1  0  0  0
 33 34  1  0  0  0
 33 66  1  0  0  0
 33 70  2  0  0  0
 34 36  1  0  0  0
 34 59  1  0  0  0
 34104  1  0  0  0
 35 44  2  0  0  0
 35 45  1  0  0  0
 35 68  1  0  0  0
 36 56  1  0  0  0
 36105  1  0  0  0
 37 39  1  0  0  0
 37 47  1  0  0  0
 37 66  1  0  0  0
 37106  1  0  0  0
 38 43  2  0  0  0
 38 46  1  0  0  0
 38 47  1  0  0  0
 39 64  1  0  0  0
 39 67  2  0  0  0
 40 52  1  0  0  0
 40 53  2  0  0  0
 40 58  1  0  0  0
 41107  1  0  0  0
 41108  1  0  0  0
 41109  1  0  0  0
 41 48  1  0  0  0
 42 43  1  0  0  0
 42 66  1  0  0  0
 42110  1  0  0  0
 42111  1  0  0  0
 43 44  1  0  0  0
 44112  1  0  0  0
 45 46  2  0  0  0
 45113  1  0  0  0
 46114  1  0  0  0
 47115  1  0  0  0
 47116  1  0  0  0
 48 56  1  0  0  0
 48 65  1  0  0  0
 48117  1  0  0  0
 49 50  1  0  0  0
 49 53  1  0  0  0
 49 64  1  0  0  0
 49118  1  0  0  0
 50 51  1  0  0  0
 50119  1  0  0  0
 50120  1  0  0  0
 51 52  1  0  0  0
 51121  1  0  0  0
 51122  1  0  0  0
 52123  1  0  0  0
 52124  1  0  0  0
 53 54  1  0  0  0
 54 55  2  0  0  0
 54125  1  0  0  0
 55 57  1  0  0  0
 55126  1  0  0  0
 56 69  2  0  0  0
 57 58  2  0  0  0
 57127  1  0  0  0
 58128  1  0  0  0
 59 60  1  0  0  0
 59 61  1  0  0  0
 59 62  1  0  0  0
 60129  1  0  0  0
 60130  1  0  0  0
 60131  1  0  0  0
 61132  1  0  0  0
 61133  1  0  0  0
 61134  1  0  0  0
 62135  1  0  0  0
 62136  1  0  0  0
 62137  1  0  0  0
 63 65  1  0  0  0
 63138  1  0  0  0
 63139  1  0  0  0
 63140  1  0  0  0
 64141  1  0  0  0
 65142  1  0  0  0
 68 80  1  0  0  0
 71 72  1  0  0  0
 71 77  1  0  0  0
 71143  1  0  0  0
 71144  1  0  0  0
 72 78  1  0  0  0
 72145  1  0  0  0
 72146  1  0  0  0
 73 75  1  0  0  0
 73 81  1  0  0  0
 73147  1  0  0  0
 73148  1  0  0  0
 74 76  1  0  0  0
 74 81  1  0  0  0
 74149  1  0  0  0
 74150  1  0  0  0
 75151  1  0  0  0
 75152  1  0  0  0
 75 82  1  0  0  0
 76 82  1  0  0  0
 76153  1  0  0  0
 76154  1  0  0  0
 77 78  1  0  0  0
 77 82  1  0  0  0
 77155  1  0  0  0
 78 83  1  0  0  0
 78156  1  0  0  0
 79 80  1  0  0  0
 79 83  1  0  0  0
 79157  1  0  0  0
 79158  1  0  0  0
 80159  1  0  0  0
 80160  1  0  0  0
 83161  1  0  0  0
 83162  1  0  0  0
M  CHG  1  83   1
M  ISO  4   1 100  68 101  80 101  81 100
M  END
> <chiral flag>
0

> <version>
0

> <s_m_source_file>
/data/baiqing/PycharmProjects/Reinvent-master-3.2/result/LINK_invent/BTK/process_docking_weight1_custom_sum_contain_oxygen_bond_distance_aromatic_linkinvent_7_9_3/rearranged_h_0198.sdf

> <i_m_source_file_index>
83

> <r_mmod_Potential_Energy-OPLS-2005>
149.003677368164

> <r_mmod_Stretch_Energy-OPLS-2005>
78.0205383300781

> <r_mmod_Bend_Energy-OPLS-2005>
162.300857543945

> <r_mmod_Torsional_Energy-OPLS-2005>
398.34326171875

> <r_mmod_Improper_Torsional_Energy-OPLS-2005>
13.3947343826294

> <r_mmod_Van_der_Waal_Energy-OPLS-2005>
138.715866088867

> <r_mmod_Electrostatic_Energy-OPLS-2005>
-235.231521606445

> <r_mmod_Solvation_Energy-OPLS-2005>
-452.172729492188

> <b_mmod_Minimization_Converged-OPLS-2005>
0

> <r_mmod_RMS_Derivative-OPLS-2005>
0.652751863002777

$$$$
83
                    3D
 Structure written by MMmdl.
179189  0  0  1  0            999 V2000
  -30.7362  -14.5523   20.5771 C   0  0  0  0  0  0
  -30.4090  -12.3517   19.4704 C   0  0  0  0  0  0
  -29.4970  -12.5018   18.2359 C   0  0  0  0  0  0
  -28.0211  -12.3622   18.6497 C   0  0  0  0  0  0
  -27.6567  -13.2304   19.8837 C   0  0  2  0  0  0
  -28.7008  -13.0893   21.0181 C   0  0  0  0  0  0
  -25.2513  -13.8224   20.5739 C   0  0  0  0  0  0
  -24.1785  -13.0458   20.9214 C   0  0  0  0  0  0
  -24.6373  -11.6935   20.8771 C   0  0  0  0  0  0
  -23.9038  -10.4304   21.0427 C   0  0  0  0  0  0
  -24.3589   -9.4222   21.9206 C   0  0  0  0  0  0
  -23.6270   -8.2252   22.0771 C   0  0  0  0  0  0
  -22.4258   -8.0289   21.3553 C   0  0  0  0  0  0
  -21.9892   -9.0256   20.4663 C   0  0  0  0  0  0
  -22.7206  -10.2141   20.3084 C   0  0  0  0  0  0
  -21.6851   -6.0745   22.5274 C   0  0  0  0  0  0
  -21.4033   -6.5651   23.8209 C   0  0  0  0  0  0
  -21.3654   -5.6797   24.9158 C   0  0  0  0  0  0
  -21.6025   -4.3058   24.7215 C   0  0  0  0  0  0
  -21.8813   -3.8153   23.4338 C   0  0  0  0  0  0
  -21.9187   -4.6971   22.3392 C   0  0  0  0  0  0
  -22.7805  -13.5260   21.1807 C   0  0  0  0  0  0
  -22.1649   -4.2166   21.0965 F   0  0  0  0  0  0
  -21.5610   -3.4536   25.7721 F   0  0  0  0  0  0
  -30.0258  -13.3848   20.4562 N   0  0  0  0  0  0
  -26.2995  -12.9443   20.3471 N   0  0  0  0  0  0
  -25.9329  -11.6579   20.5873 N   0  0  0  0  0  0
  -22.0381  -12.8314   22.0368 N   0  0  0  0  0  0
  -25.4222  -15.1946   20.4165 N   0  0  0  0  0  0
  -31.8332  -14.6810   20.0245 O   0  0  0  0  0  0
  -21.6633   -6.8881   21.4243 O   0  0  0  0  0  0
  -22.3518  -14.5543   20.6605 O   0  0  0  0  0  0
  -24.6236  -31.8639   23.2080 C   0  0  0  0  0  0
  -25.9103  -32.4812   23.8398 C   0  0  1  0  0  0
  -27.2029  -27.3409   20.1169 C   0  0  0  0  0  0
  -25.5937  -33.8607   24.2318 N   0  0  0  0  0  0
  -23.4150  -30.4913   21.5507 C   0  0  2  0  0  0
  -24.8557  -28.9560   20.1097 C   0  0  0  0  0  0
  -22.7464  -29.4653   22.4965 C   0  0  0  0  0  0
  -18.0282  -28.1405   22.8487 C   0  0  0  0  0  0
  -24.1483  -36.7297   23.2634 C   0  0  0  0  0  0
  -25.9528  -30.8020   21.3754 C   0  0  0  0  0  0
  -26.0244  -29.4313   20.7184 C   0  0  0  0  0  0
  -27.2035  -28.6339   20.7152 C   0  0  0  0  0  0
  -26.0223  -26.9291   19.4570 C   0  0  0  0  0  0
  -24.8542  -27.7100   19.4682 C   0  0  0  0  0  0
  -23.6263  -29.8350   20.1624 C   0  0  0  0  0  0
  -25.4110  -36.3096   24.0325 C   0  0  1  0  0  0
  -20.5877  -28.3704   23.1295 C   0  0  2  0  0  0
  -20.6779  -26.9438   22.5407 C   0  0  0  0  0  0
  -19.5746  -26.6401   21.5219 C   0  0  0  0  0  0
  -18.1927  -26.7947   22.1631 C   0  0  0  0  0  0
  -19.1530  -28.8868   23.2887 C   0  0  0  0  0  0
  -18.9460  -30.1476   23.8898 C   0  0  0  0  0  0
  -17.6459  -30.6601   24.0573 C   0  0  0  0  0  0
  -25.9049  -34.9469   23.5111 C   0  0  0  0  0  0
  -16.5352  -29.9104   23.6333 C   0  0  0  0  0  0
  -16.7269  -28.6521   23.0351 C   0  0  0  0  0  0
  -26.4490  -31.6617   25.0759 C   0  0  0  0  0  0
  -25.3722  -31.3769   26.1492 C   0  0  0  0  0  0
  -27.0328  -30.3041   24.6203 C   0  0  0  0  0  0
  -27.6060  -32.4345   25.7534 C   0  0  0  0  0  0
  -27.5572  -37.1813   24.8467 C   0  0  0  0  0  0
  -21.4179  -29.3056   22.3693 N   0  0  0  0  0  0
  -26.4291  -37.3788   23.9401 N   0  0  0  0  0  0
  -24.6830  -31.0683   22.1015 N   0  0  0  0  0  0
  -23.4198  -28.8185   23.3027 O   0  0  0  0  0  0
  -28.3104  -26.4916   20.1646 O   0  0  0  0  0  0
  -26.5604  -34.8917   22.4668 O   0  0  0  0  0  0
  -23.5401  -32.1441   23.7415 O   0  0  0  0  0  0
  -30.3536  -21.0682   19.2551 C   0  0  0  0  0  0
  -29.4696  -21.4633   20.3437 C   0  0  0  0  0  0
  -28.4296  -21.5119   18.0632 C   0  0  0  0  0  0
  -27.9773  -20.0400   15.9022 C   0  0  0  0  0  0
  -26.7345  -19.9824   16.7580 C   0  0  0  0  0  0
  -31.6137  -17.5305   21.7219 C   0  0  0  0  0  0
  -31.2009  -16.1707   22.3021 C   0  0  0  0  0  0
  -29.5325  -16.7664   20.8016 C   0  0  0  0  0  0
  -27.6385  -21.1940   16.8251 C   0  0  0  0  0  0
  -30.3698  -18.0895   21.0252 C   0  0  1  0  0  0
  -29.1868  -18.9832   23.1804 C   0  0  0  0  0  0
  -29.9566  -24.4747   18.7873 C   0  0  0  0  0  0
  -29.1260  -24.9520   17.5639 C   0  0  0  0  0  0
  -28.0470  -25.0609   20.4345 C   0  0  0  0  0  0
  -29.8286  -19.3568   21.8322 C   0  0  2  0  0  0
  -29.1622  -24.0097   20.0504 C   0  0  1  0  0  0
  -29.7938  -21.0026   18.1260 N   0  0  0  0  0  0
  -27.8394  -22.2778   18.9478 N   0  0  0  0  0  0
  -28.7024  -22.5448   20.0081 N   0  0  0  0  0  0
  -30.2520  -15.5724   21.3568 N   0  0  0  0  0  0
  -29.0380  -20.4438   21.1535 N   0  3  0  0  0  0
  -29.9606  -25.2690   16.3915 N   0  3  0  0  0  0
  -31.4584  -12.4138   19.1811 H   0  0  0  0  0  0
  -30.2862  -11.3603   19.9126 H   0  0  0  0  0  0
  -29.7431  -11.7434   17.4916 H   0  0  0  0  0  0
  -29.6612  -13.4693   17.7592 H   0  0  0  0  0  0
  -27.8462  -11.3105   18.8754 H   0  0  0  0  0  0
  -27.3678  -12.6067   17.8131 H   0  0  0  0  0  0
  -27.6778  -14.2681   19.5487 H   0  0  0  0  0  0
  -28.6947  -12.0778   21.4268 H   0  0  0  0  0  0
  -28.4591  -13.7543   21.8487 H   0  0  0  0  0  0
  -25.2720   -9.5711   22.4789 H   0  0  0  0  0  0
  -23.9973   -7.4665   22.7512 H   0  0  0  0  0  0
  -21.0815   -8.8757   19.8997 H   0  0  0  0  0  0
  -22.3636  -10.9671   19.6205 H   0  0  0  0  0  0
  -21.2065   -7.6166   23.9714 H   0  0  0  0  0  0
  -21.1468   -6.0531   25.9060 H   0  0  0  0  0  0
  -22.0605   -2.7621   23.2805 H   0  0  0  0  0  0
  -22.3966  -12.0044   22.4896 H   0  0  0  0  0  0
  -21.1007  -13.1431   22.2496 H   0  0  0  0  0  0
  -24.6596  -15.8525   20.5361 H   0  0  0  0  0  0
  -26.2793  -15.6296   20.1004 H   0  0  0  0  0  0
  -26.7183  -32.5490   23.1167 H   0  0  0  0  0  0
  -25.0123  -33.9787   25.0486 H   0  0  0  0  0  0
  -22.7060  -31.3106   21.4140 H   0  0  0  0  0  0
  -23.3743  -35.9634   23.3316 H   0  0  0  0  0  0
  -24.3569  -36.8900   22.2047 H   0  0  0  0  0  0
  -23.7253  -37.6510   23.6638 H   0  0  0  0  0  0
  -26.0764  -31.5652   20.6062 H   0  0  0  0  0  0
  -26.8353  -30.8535   22.0009 H   0  0  0  0  0  0
  -28.0994  -28.9879   21.2049 H   0  0  0  0  0  0
  -25.9738  -25.9975   18.9148 H   0  0  0  0  0  0
  -23.9641  -27.3523   18.9682 H   0  0  0  0  0  0
  -23.7463  -30.6140   19.4075 H   0  0  0  0  0  0
  -22.7451  -29.2663   19.8611 H   0  0  0  0  0  0
  -25.1294  -36.1954   25.0820 H   0  0  0  0  0  0
  -20.9968  -28.3280   24.1420 H   0  0  0  0  0  0
  -20.5705  -26.2324   23.3608 H   0  0  0  0  0  0
  -21.6653  -26.7495   22.1192 H   0  0  0  0  0  0
  -19.6916  -25.6310   21.1256 H   0  0  0  0  0  0
  -19.6682  -27.3203   20.6736 H   0  0  0  0  0  0
  -17.4209  -26.6697   21.4027 H   0  0  0  0  0  0
  -18.0327  -26.0097   22.9028 H   0  0  0  0  0  0
  -19.7935  -30.7295   24.2267 H   0  0  0  0  0  0
  -17.5016  -31.6279   24.5190 H   0  0  0  0  0  0
  -15.5356  -30.3011   23.7656 H   0  0  0  0  0  0
  -15.8670  -28.0844   22.7064 H   0  0  0  0  0  0
  -24.5876  -30.7153   25.7822 H   0  0  0  0  0  0
  -24.8948  -32.2954   26.4917 H   0  0  0  0  0  0
  -25.8044  -30.8940   27.0273 H   0  0  0  0  0  0
  -26.2918  -29.6826   24.1178 H   0  0  0  0  0  0
  -27.3983  -29.7271   25.4715 H   0  0  0  0  0  0
  -27.8798  -30.4338   23.9462 H   0  0  0  0  0  0
  -27.2666  -33.3628   26.2141 H   0  0  0  0  0  0
  -28.3854  -32.6948   25.0358 H   0  0  0  0  0  0
  -28.0746  -31.8465   26.5435 H   0  0  0  0  0  0
  -28.2609  -38.0090   24.7490 H   0  0  0  0  0  0
  -28.1051  -36.2629   24.6321 H   0  0  0  0  0  0
  -27.2288  -37.1498   25.8871 H   0  0  0  0  0  0
  -20.9359  -29.8797   21.6917 H   0  0  0  0  0  0
  -26.0170  -38.2861   24.1402 H   0  0  0  0  0  0
  -31.3940  -20.8124   19.4724 H   0  0  0  0  0  0
  -27.8367  -20.1965   14.8345 H   0  0  0  0  0  0
  -28.7984  -19.3738   16.1687 H   0  0  0  0  0  0
  -26.7360  -19.2911   17.6003 H   0  0  0  0  0  0
  -25.7793  -20.0964   16.2495 H   0  0  0  0  0  0
  -32.4007  -17.3863   20.9797 H   0  0  0  0  0  0
  -32.0299  -18.1912   22.4834 H   0  0  0  0  0  0
  -30.6989  -16.3024   23.2608 H   0  0  0  0  0  0
  -32.0769  -15.5473   22.4986 H   0  0  0  0  0  0
  -28.5437  -16.8315   21.2552 H   0  0  0  0  0  0
  -29.3634  -16.6236   19.7336 H   0  0  0  0  0  0
  -27.2701  -22.1086   16.3629 H   0  0  0  0  0  0
  -30.6675  -18.4379   20.0386 H   0  0  0  0  0  0
  -28.5846  -19.7973   23.5857 H   0  0  0  0  0  0
  -29.9572  -18.7568   23.9179 H   0  0  0  0  0  0
  -28.5425  -18.1095   23.1009 H   0  0  0  0  0  0
  -30.6170  -25.2871   19.0904 H   0  0  0  0  0  0
  -30.6335  -23.6843   18.4711 H   0  0  0  0  0  0
  -28.5530  -25.8467   17.8050 H   0  0  0  0  0  0
  -28.3915  -24.2108   17.2562 H   0  0  0  0  0  0
  -27.8717  -24.9836   21.5080 H   0  0  0  0  0  0
  -27.1205  -24.7061   19.9914 H   0  0  0  0  0  0
  -30.7219  -19.9186   22.1105 H   0  0  0  0  0  0
  -29.8847  -24.0339   20.8673 H   0  0  0  0  0  0
  -28.0912  -20.5333   21.4942 H   0  0  0  0  0  0
  -30.5774  -26.0364   16.5874 H   0  0  0  0  0  0
  -29.3728  -25.5403   15.6220 H   0  0  0  0  0  0
  -30.5105  -24.4825   16.0945 H   0  0  0  0  0  0
  1 25  1  0  0  0
  1 30  2  0  0  0
  1 90  1  0  0  0
  2  3  1  0  0  0
  2 25  1  0  0  0
  2 93  1  0  0  0
  2 94  1  0  0  0
  3  4  1  0  0  0
  3 95  1  0  0  0
  3 96  1  0  0  0
  4  5  1  0  0  0
  4 97  1  0  0  0
  4 98  1  0  0  0
  5  6  1  0  0  0
  5 26  1  0  0  0
  5 99  1  0  0  0
  6 25  1  0  0  0
  6100  1  0  0  0
  6101  1  0  0  0
  7  8  2  0  0  0
  7 26  1  0  0  0
  7 29  1  0  0  0
  8  9  1  0  0  0
  8 22  1  0  0  0
  9 10  1  0  0  0
  9 27  2  0  0  0
 10 11  2  0  0  0
 10 15  1  0  0  0
 11 12  1  0  0  0
 11102  1  0  0  0
 12 13  2  0  0  0
 12103  1  0  0  0
 13 14  1  0  0  0
 13 31  1  0  0  0
 14 15  2  0  0  0
 14104  1  0  0  0
 15105  1  0  0  0
 16 17  2  0  0  0
 16 21  1  0  0  0
 16 31  1  0  0  0
 17 18  1  0  0  0
 17106  1  0  0  0
 18 19  2  0  0  0
 18107  1  0  0  0
 19 20  1  0  0  0
 19 24  1  0  0  0
 20 21  2  0  0  0
 20108  1  0  0  0
 21 23  1  0  0  0
 22 28  1  0  0  0
 22 32  2  0  0  0
 26 27  1  0  0  0
 28109  1  0  0  0
 28110  1  0  0  0
 29111  1  0  0  0
 29112  1  0  0  0
 33 34  1  0  0  0
 33 66  1  0  0  0
 33 70  2  0  0  0
 34 36  1  0  0  0
 34 59  1  0  0  0
 34113  1  0  0  0
 35 44  2  0  0  0
 35 45  1  0  0  0
 35 68  1  0  0  0
 36 56  1  0  0  0
 36114  1  0  0  0
 37 39  1  0  0  0
 37 47  1  0  0  0
 37 66  1  0  0  0
 37115  1  0  0  0
 38 43  2  0  0  0
 38 46  1  0  0  0
 38 47  1  0  0  0
 39 64  1  0  0  0
 39 67  2  0  0  0
 40 52  1  0  0  0
 40 53  2  0  0  0
 40 58  1  0  0  0
 41116  1  0  0  0
 41117  1  0  0  0
 41118  1  0  0  0
 41 48  1  0  0  0
 42 43  1  0  0  0
 42 66  1  0  0  0
 42119  1  0  0  0
 42120  1  0  0  0
 43 44  1  0  0  0
 44121  1  0  0  0
 45 46  2  0  0  0
 45122  1  0  0  0
 46123  1  0  0  0
 47124  1  0  0  0
 47125  1  0  0  0
 48 56  1  0  0  0
 48 65  1  0  0  0
 48126  1  0  0  0
 49 50  1  0  0  0
 49 53  1  0  0  0
 49 64  1  0  0  0
 49127  1  0  0  0
 50 51  1  0  0  0
 50128  1  0  0  0
 50129  1  0  0  0
 51 52  1  0  0  0
 51130  1  0  0  0
 51131  1  0  0  0
 52132  1  0  0  0
 52133  1  0  0  0
 53 54  1  0  0  0
 54 55  2  0  0  0
 54134  1  0  0  0
 55 57  1  0  0  0
 55135  1  0  0  0
 56 69  2  0  0  0
 57 58  2  0  0  0
 57136  1  0  0  0
 58137  1  0  0  0
 59 60  1  0  0  0
 59 61  1  0  0  0
 59 62  1  0  0  0
 60138  1  0  0  0
 60139  1  0  0  0
 60140  1  0  0  0
 61141  1  0  0  0
 61142  1  0  0  0
 61143  1  0  0  0
 62144  1  0  0  0
 62145  1  0  0  0
 62146  1  0  0  0
 63 65  1  0  0  0
 63147  1  0  0  0
 63148  1  0  0  0
 63149  1  0  0  0
 64150  1  0  0  0
 65151  1  0  0  0
 68 84  1  0  0  0
 71 72  1  0  0  0
 71 87  2  0  0  0
 71152  1  0  0  0
 72 89  1  0  0  0
 72 91  2  0  0  0
 73 87  1  0  0  0
 73 88  2  0  0  0
 73 79  1  0  0  0
 74 75  1  0  0  0
 74 79  1  0  0  0
 74153  1  0  0  0
 74154  1  0  0  0
 75 79  1  0  0  0
 75155  1  0  0  0
 75156  1  0  0  0
 76 77  1  0  0  0
 76157  1  0  0  0
 76158  1  0  0  0
 76 80  1  0  0  0
 77 90  1  0  0  0
 77159  1  0  0  0
 77160  1  0  0  0
 78 80  1  0  0  0
 78 90  1  0  0  0
 78161  1  0  0  0
 78162  1  0  0  0
 79163  1  0  0  0
 80 85  1  0  0  0
 80164  1  0  0  0
 81165  1  0  0  0
 81166  1  0  0  0
 81167  1  0  0  0
 81 85  1  0  0  0
 82 83  1  0  0  0
 82168  1  0  0  0
 82169  1  0  0  0
 82 86  1  0  0  0
 83 92  1  0  0  0
 83170  1  0  0  0
 83171  1  0  0  0
 84 86  1  0  0  0
 84172  1  0  0  0
 84173  1  0  0  0
 85 91  1  0  0  0
 85174  1  0  0  0
 86 89  1  0  0  0
 86175  1  0  0  0
 88 89  1  0  0  0
 91176  1  0  0  0
 92177  1  0  0  0
 92178  1  0  0  0
 92179  1  0  0  0
M  CHG  2  91   1  92   1
M  ISO  4   1 100  68 101  84 101  90 100
M  END
> <chiral flag>
0

> <version>
0

> <s_m_source_file>
/data/baiqing/PycharmProjects/Reinvent-master-3.2/result/LINK_invent/BTK/process_docking_weight1_custom_sum_contain_oxygen_bond_distance_aromatic_linkinvent_7_9_3/rearranged_h_0198.sdf

> <i_m_source_file_index>
84

> <r_mmod_Potential_Energy-OPLS-2005>
134.251815795898

> <r_mmod_Stretch_Energy-OPLS-2005>
82.3645553588867

> <r_mmod_Bend_Energy-OPLS-2005>
226.658355712891

> <r_mmod_Torsional_Energy-OPLS-2005>
528.501403808594

> <r_mmod_Improper_Torsional_Energy-OPLS-2005>
34.3932151794434

> <r_mmod_Van_der_Waal_Energy-OPLS-2005>
148.996322631836

> <r_mmod_Electrostatic_Energy-OPLS-2005>
0.779330611228943

> <r_mmod_Solvation_Energy-OPLS-2005>
-922.592651367188

> <b_mmod_Minimization_Converged-OPLS-2005>
0

> <r_mmod_RMS_Derivative-OPLS-2005>
3.43549513816833

$$$$
84
                    3D
 Structure written by MMmdl.
158167  0  0  1  0            999 V2000
  -30.7032  -14.4349   20.5091 C   0  0  0  0  0  0
  -30.4057  -12.2780   19.4068 C   0  0  0  0  0  0
  -29.4768  -12.4957   18.1960 C   0  0  0  0  0  0
  -27.9980  -12.3761   18.6132 C   0  0  0  0  0  0
  -27.6554  -13.2077   19.8781 C   0  0  2  0  0  0
  -28.7002  -12.9905   20.9960 C   0  0  0  0  0  0
  -25.2559  -13.8183   20.5706 C   0  0  0  0  0  0
  -24.1817  -13.0445   20.9194 C   0  0  0  0  0  0
  -24.6374  -11.6923   20.8721 C   0  0  0  0  0  0
  -23.9022  -10.4315   21.0373 C   0  0  0  0  0  0
  -24.3580   -9.4256   21.9179 C   0  0  0  0  0  0
  -23.6286   -8.2271   22.0744 C   0  0  0  0  0  0
  -22.4275   -8.0277   21.3523 C   0  0  0  0  0  0
  -21.9878   -9.0253   20.4630 C   0  0  0  0  0  0
  -22.7171  -10.2157   20.3050 C   0  0  0  0  0  0
  -21.6873   -6.0719   22.5265 C   0  0  0  0  0  0
  -21.4036   -6.5636   23.8198 C   0  0  0  0  0  0
  -21.3665   -5.6795   24.9164 C   0  0  0  0  0  0
  -21.6042   -4.3058   24.7217 C   0  0  0  0  0  0
  -21.8842   -3.8138   23.4347 C   0  0  0  0  0  0
  -21.9207   -4.6945   22.3393 C   0  0  0  0  0  0
  -22.7851  -13.5256   21.1861 C   0  0  0  0  0  0
  -22.1689   -4.2137   21.0977 F   0  0  0  0  0  0
  -21.5604   -3.4540   25.7731 F   0  0  0  0  0  0
  -30.0311  -13.2625   20.4287 N   0  0  0  0  0  0
  -26.2991  -12.9355   20.3410 N   0  0  0  0  0  0
  -25.9299  -11.6519   20.5766 N   0  0  0  0  0  0
  -22.0472  -12.8247   22.0405 N   0  0  0  0  0  0
  -25.4275  -15.1902   20.4127 N   0  0  0  0  0  0
  -31.8693  -14.5772   20.1281 O   0  0  0  0  0  0
  -21.6671   -6.8854   21.4216 O   0  0  0  0  0  0
  -22.3548  -14.5550   20.6669 O   0  0  0  0  0  0
  -24.6109  -31.8697   23.2104 C   0  0  0  0  0  0
  -25.9033  -32.4824   23.8393 C   0  0  1  0  0  0
  -27.2362  -27.4746   20.0807 C   0  0  0  0  0  0
  -25.5921  -33.8624   24.2332 N   0  0  0  0  0  0
  -23.3968  -30.4929   21.5528 C   0  0  2  0  0  0
  -24.8456  -28.9589   20.1178 C   0  0  0  0  0  0
  -22.7367  -29.4693   22.5037 C   0  0  0  0  0  0
  -18.0228  -28.1438   22.8580 C   0  0  0  0  0  0
  -24.1509  -36.7315   23.2641 C   0  0  0  0  0  0
  -25.9222  -30.8463   21.3610 C   0  0  0  0  0  0
  -26.0021  -29.4832   20.7099 C   0  0  0  0  0  0
  -27.2041  -28.7441   20.6934 C   0  0  0  0  0  0
  -26.0700  -26.9535   19.4860 C   0  0  0  0  0  0
  -24.8708  -27.6892   19.5139 C   0  0  0  0  0  0
  -23.6023  -29.8157   20.1699 C   0  0  0  0  0  0
  -25.4124  -36.3103   24.0336 C   0  0  1  0  0  0
  -20.5829  -28.3735   23.1442 C   0  0  2  0  0  0
  -20.6715  -26.9476   22.5532 C   0  0  0  0  0  0
  -19.5746  -26.6608   21.5235 C   0  0  0  0  0  0
  -18.1901  -26.8026   22.1599 C   0  0  0  0  0  0
  -19.1482  -28.8904   23.2974 C   0  0  0  0  0  0
  -18.9430  -30.1541   23.8953 C   0  0  0  0  0  0
  -17.6422  -30.6685   24.0564 C   0  0  0  0  0  0
  -25.9039  -34.9477   23.5121 C   0  0  0  0  0  0
  -16.5323  -29.9188   23.6329 C   0  0  0  0  0  0
  -16.7204  -28.6548   23.0458 C   0  0  0  0  0  0
  -26.4478  -31.6586   25.0710 C   0  0  0  0  0  0
  -25.3763  -31.3687   26.1472 C   0  0  0  0  0  0
  -27.0329  -30.3032   24.6097 C   0  0  0  0  0  0
  -27.6049  -32.4314   25.7478 C   0  0  0  0  0  0
  -27.5591  -37.1806   24.8463 C   0  0  0  0  0  0
  -21.4073  -29.3168   22.3899 N   0  0  0  0  0  0
  -26.4300  -37.3787   23.9403 N   0  0  0  0  0  0
  -24.6616  -31.0821   22.1002 N   0  0  0  0  0  0
  -23.4161  -28.8159   23.2993 O   0  0  0  0  0  0
  -28.3960  -26.7489   20.0319 O   0  0  0  0  0  0
  -26.5575  -34.8921   22.4672 O   0  0  0  0  0  0
  -23.5307  -32.1435   23.7517 O   0  0  0  0  0  0
  -27.4498  -19.8271   19.6139 C   0  0  0  0  0  0
  -28.6681  -19.7293   20.2926 C   0  0  0  0  0  0
  -26.5934  -20.8808   19.9551 C   0  0  0  0  0  0
  -28.1114  -21.6337   21.4611 C   0  0  0  0  0  0
  -28.4990  -22.5815   22.5910 C   0  0  0  0  0  0
  -29.9557  -17.9628   21.3133 C   0  0  0  0  0  0
  -29.2719  -17.5071   19.3995 C   0  0  0  0  0  0
  -30.2970  -16.8493   20.3312 C   0  0  0  0  0  0
  -28.6019  -24.5566   21.0305 C   0  0  0  0  0  0
  -28.7098  -26.0767   21.2435 C   0  0  0  0  0  0
  -28.9773  -20.6638   21.1947 N   0  0  0  0  0  0
  -26.9232  -21.7848   20.8868 N   0  0  0  0  0  0
  -29.6477  -18.7272   20.1061 N   0  0  0  0  0  0
  -28.7285  -23.8732   22.3097 N   0  0  0  0  0  0
  -29.9387  -15.4993   20.7723 N   0  0  0  0  0  0
  -28.6611  -22.1364   23.7289 O   0  0  0  0  0  0
  -25.0665  -21.0296   19.1706 Cl  0  0  0  0  0  0
  -31.4480  -12.3682   19.0985 H   0  0  0  0  0  0
  -30.2934  -11.2675   19.8016 H   0  0  0  0  0  0
  -29.7010  -11.7739   17.4101 H   0  0  0  0  0  0
  -29.6546  -13.4803   17.7620 H   0  0  0  0  0  0
  -27.7843  -11.3221   18.7903 H   0  0  0  0  0  0
  -27.3534  -12.6786   17.7874 H   0  0  0  0  0  0
  -27.6950  -14.2552   19.5798 H   0  0  0  0  0  0
  -28.6648  -11.9624   21.3606 H   0  0  0  0  0  0
  -28.4884  -13.6191   21.8611 H   0  0  0  0  0  0
  -25.2712   -9.5790   22.4768 H   0  0  0  0  0  0
  -24.0020   -7.4686   22.7468 H   0  0  0  0  0  0
  -21.0819   -8.8751   19.8929 H   0  0  0  0  0  0
  -22.3592  -10.9701   19.6186 H   0  0  0  0  0  0
  -21.2048   -7.6153   23.9697 H   0  0  0  0  0  0
  -21.1455   -6.0524   25.9068 H   0  0  0  0  0  0
  -22.0602   -2.7594   23.2853 H   0  0  0  0  0  0
  -22.4097  -11.9928   22.4838 H   0  0  0  0  0  0
  -21.1073  -13.1275   22.2557 H   0  0  0  0  0  0
  -24.6521  -15.8361   20.5285 H   0  0  0  0  0  0
  -26.2714  -15.6323   20.0727 H   0  0  0  0  0  0
  -26.7122  -32.5548   23.1177 H   0  0  0  0  0  0
  -25.0108  -33.9778   25.0500 H   0  0  0  0  0  0
  -22.6890  -31.3122   21.4128 H   0  0  0  0  0  0
  -23.3756  -35.9663   23.3299 H   0  0  0  0  0  0
  -24.3594  -36.8915   22.2050 H   0  0  0  0  0  0
  -23.7281  -37.6535   23.6642 H   0  0  0  0  0  0
  -26.0331  -31.6214   20.5984 H   0  0  0  0  0  0
  -26.8013  -30.8890   21.9876 H   0  0  0  0  0  0
  -28.1038  -29.1488   21.1358 H   0  0  0  0  0  0
  -26.0907  -25.9877   19.0001 H   0  0  0  0  0  0
  -23.9769  -27.2787   19.0668 H   0  0  0  0  0  0
  -23.6923  -30.5833   19.4007 H   0  0  0  0  0  0
  -22.7269  -29.2254   19.8907 H   0  0  0  0  0  0
  -25.1312  -36.1962   25.0827 H   0  0  0  0  0  0
  -20.9856  -28.3325   24.1573 H   0  0  0  0  0  0
  -20.5532  -26.2317   23.3676 H   0  0  0  0  0  0
  -21.6578  -26.7491   22.1356 H   0  0  0  0  0  0
  -19.7016  -25.6668   21.0980 H   0  0  0  0  0  0
  -19.6709  -27.3694   20.7005 H   0  0  0  0  0  0
  -17.4255  -26.6908   21.3870 H   0  0  0  0  0  0
  -18.0163  -26.0053   22.8808 H   0  0  0  0  0  0
  -19.7939  -30.7375   24.2294 H   0  0  0  0  0  0
  -17.5012  -31.6429   24.5079 H   0  0  0  0  0  0
  -15.5323  -30.3106   23.7674 H   0  0  0  0  0  0
  -15.8600  -28.0828   22.7241 H   0  0  0  0  0  0
  -24.5914  -30.7054   25.7816 H   0  0  0  0  0  0
  -24.8998  -32.2843   26.4988 H   0  0  0  0  0  0
  -25.8120  -30.8820   27.0207 H   0  0  0  0  0  0
  -26.2864  -29.6754   24.1208 H   0  0  0  0  0  0
  -27.4155  -29.7307   25.4562 H   0  0  0  0  0  0
  -27.8683  -30.4351   23.9205 H   0  0  0  0  0  0
  -27.2646  -33.3582   26.2122 H   0  0  0  0  0  0
  -28.3825  -32.6922   25.0280 H   0  0  0  0  0  0
  -28.0766  -31.8415   26.5350 H   0  0  0  0  0  0
  -28.2613  -38.0103   24.7506 H   0  0  0  0  0  0
  -28.1076  -36.2626   24.6299 H   0  0  0  0  0  0
  -27.2286  -37.1469   25.8859 H   0  0  0  0  0  0
  -20.9142  -29.9112   21.7381 H   0  0  0  0  0  0
  -26.0194  -38.2870   24.1386 H   0  0  0  0  0  0
  -27.1559  -19.1176   18.8558 H   0  0  0  0  0  0
  -30.8081  -18.3426   21.8818 H   0  0  0  0  0  0
  -29.0782  -17.7678   21.9336 H   0  0  0  0  0  0
  -28.2429  -17.1832   19.5694 H   0  0  0  0  0  0
  -29.5482  -17.5001   18.3445 H   0  0  0  0  0  0
  -31.3141  -16.9515   19.9415 H   0  0  0  0  0  0
  -29.3802  -24.2124   20.3454 H   0  0  0  0  0  0
  -27.6364  -24.3239   20.5741 H   0  0  0  0  0  0
  -29.7268  -26.3459   21.5296 H   0  0  0  0  0  0
  -28.0592  -26.3968   22.0624 H   0  0  0  0  0  0
  -29.0143  -24.4431   23.0893 H   0  0  0  0  0  0
  -28.9902  -15.3244   21.0686 H   0  0  0  0  0  0
  1 25  1  0  0  0
  1 30  2  0  0  0
  1 85  1  0  0  0
  2  3  1  0  0  0
  2 25  1  0  0  0
  2 88  1  0  0  0
  2 89  1  0  0  0
  3  4  1  0  0  0
  3 90  1  0  0  0
  3 91  1  0  0  0
  4  5  1  0  0  0
  4 92  1  0  0  0
  4 93  1  0  0  0
  5  6  1  0  0  0
  5 26  1  0  0  0
  5 94  1  0  0  0
  6 25  1  0  0  0
  6 95  1  0  0  0
  6 96  1  0  0  0
  7  8  2  0  0  0
  7 26  1  0  0  0
  7 29  1  0  0  0
  8  9  1  0  0  0
  8 22  1  0  0  0
  9 10  1  0  0  0
  9 27  2  0  0  0
 10 11  2  0  0  0
 10 15  1  0  0  0
 11 12  1  0  0  0
 11 97  1  0  0  0
 12 13  2  0  0  0
 12 98  1  0  0  0
 13 14  1  0  0  0
 13 31  1  0  0  0
 14 15  2  0  0  0
 14 99  1  0  0  0
 15100  1  0  0  0
 16 17  2  0  0  0
 16 21  1  0  0  0
 16 31  1  0  0  0
 17 18  1  0  0  0
 17101  1  0  0  0
 18 19  2  0  0  0
 18102  1  0  0  0
 19 20  1  0  0  0
 19 24  1  0  0  0
 20 21  2  0  0  0
 20103  1  0  0  0
 21 23  1  0  0  0
 22 28  1  0  0  0
 22 32  2  0  0  0
 26 27  1  0  0  0
 28104  1  0  0  0
 28105  1  0  0  0
 29106  1  0  0  0
 29107  1  0  0  0
 33 34  1  0  0  0
 33 66  1  0  0  0
 33 70  2  0  0  0
 34 36  1  0  0  0
 34 59  1  0  0  0
 34108  1  0  0  0
 35 44  2  0  0  0
 35 45  1  0  0  0
 35 68  1  0  0  0
 36 56  1  0  0  0
 36109  1  0  0  0
 37 39  1  0  0  0
 37 47  1  0  0  0
 37 66  1  0  0  0
 37110  1  0  0  0
 38 43  2  0  0  0
 38 46  1  0  0  0
 38 47  1  0  0  0
 39 64  1  0  0  0
 39 67  2  0  0  0
 40 52  1  0  0  0
 40 53  2  0  0  0
 40 58  1  0  0  0
 41111  1  0  0  0
 41112  1  0  0  0
 41113  1  0  0  0
 41 48  1  0  0  0
 42 43  1  0  0  0
 42 66  1  0  0  0
 42114  1  0  0  0
 42115  1  0  0  0
 43 44  1  0  0  0
 44116  1  0  0  0
 45 46  2  0  0  0
 45117  1  0  0  0
 46118  1  0  0  0
 47119  1  0  0  0
 47120  1  0  0  0
 48 56  1  0  0  0
 48 65  1  0  0  0
 48121  1  0  0  0
 49 50  1  0  0  0
 49 53  1  0  0  0
 49 64  1  0  0  0
 49122  1  0  0  0
 50 51  1  0  0  0
 50123  1  0  0  0
 50124  1  0  0  0
 51 52  1  0  0  0
 51125  1  0  0  0
 51126  1  0  0  0
 52127  1  0  0  0
 52128  1  0  0  0
 53 54  1  0  0  0
 54 55  2  0  0  0
 54129  1  0  0  0
 55 57  1  0  0  0
 55130  1  0  0  0
 56 69  2  0  0  0
 57 58  2  0  0  0
 57131  1  0  0  0
 58132  1  0  0  0
 59 60  1  0  0  0
 59 61  1  0  0  0
 59 62  1  0  0  0
 60133  1  0  0  0
 60134  1  0  0  0
 60135  1  0  0  0
 61136  1  0  0  0
 61137  1  0  0  0
 61138  1  0  0  0
 62139  1  0  0  0
 62140  1  0  0  0
 62141  1  0  0  0
 63 65  1  0  0  0
 63142  1  0  0  0
 63143  1  0  0  0
 63144  1  0  0  0
 64145  1  0  0  0
 65146  1  0  0  0
 68 80  1  0  0  0
 71 72  2  0  0  0
 71 73  1  0  0  0
 71147  1  0  0  0
 72 81  1  0  0  0
 72 83  1  0  0  0
 73 82  2  0  0  0
 73 87  1  0  0  0
 74 75  1  0  0  0
 74 81  2  0  0  0
 74 82  1  0  0  0
 75 84  1  0  0  0
 75 86  2  0  0  0
 76 78  1  0  0  0
 76 83  1  0  0  0
 76148  1  0  0  0
 76149  1  0  0  0
 77 78  1  0  0  0
 77 83  1  0  0  0
 77150  1  0  0  0
 77151  1  0  0  0
 78 85  1  0  0  0
 78152  1  0  0  0
 79 80  1  0  0  0
 79 84  1  0  0  0
 79153  1  0  0  0
 79154  1  0  0  0
 80155  1  0  0  0
 80156  1  0  0  0
 84157  1  0  0  0
 85158  1  0  0  0
M  ISO  4   1 100  68 101  80 101  85 100
M  END
> <chiral flag>
0

> <version>
0

> <s_m_source_file>
/data/baiqing/PycharmProjects/Reinvent-master-3.2/result/LINK_invent/BTK/process_docking_weight1_custom_sum_contain_oxygen_bond_distance_aromatic_linkinvent_7_9_3/rearranged_h_0198.sdf

> <i_m_source_file_index>
85

> <r_mmod_Potential_Energy-OPLS-2005>
-638.738586425781

> <r_mmod_Stretch_Energy-OPLS-2005>
30.1774272918701

> <r_mmod_Bend_Energy-OPLS-2005>
126.694900512695

> <r_mmod_Torsional_Energy-OPLS-2005>
262.032928466797

> <r_mmod_Improper_Torsional_Energy-OPLS-2005>
15.4115362167358

> <r_mmod_Van_der_Waal_Energy-OPLS-2005>
164.58984375

> <r_mmod_Electrostatic_Energy-OPLS-2005>
-972.818237304688

> <r_mmod_Solvation_Energy-OPLS-2005>
-277.197113037109

> <b_mmod_Minimization_Converged-OPLS-2005>
0

> <r_mmod_RMS_Derivative-OPLS-2005>
5.11951589584351

$$$$
85
                    3D
 Structure written by MMmdl.
167176  0  0  1  0            999 V2000
  -30.6776  -14.4929   20.4996 C   0  0  0  0  0  0
  -30.4190  -12.2978   19.4338 C   0  0  0  0  0  0
  -29.4907  -12.4587   18.2126 C   0  0  0  0  0  0
  -28.0148  -12.3185   18.6373 C   0  0  0  0  0  0
  -27.6532  -13.1906   19.8675 C   0  0  2  0  0  0
  -28.6967  -13.0267   20.9948 C   0  0  0  0  0  0
  -25.2579  -13.8091   20.5735 C   0  0  0  0  0  0
  -24.1845  -13.0366   20.9257 C   0  0  0  0  0  0
  -24.6386  -11.6845   20.8816 C   0  0  0  0  0  0
  -23.9024  -10.4240   21.0497 C   0  0  0  0  0  0
  -24.3554   -9.4145   21.9267 C   0  0  0  0  0  0
  -23.6242   -8.2180   22.0781 C   0  0  0  0  0  0
  -22.4234   -8.0243   21.3570 C   0  0  0  0  0  0
  -21.9895   -9.0237   20.4683 C   0  0  0  0  0  0
  -22.7209  -10.2113   20.3141 C   0  0  0  0  0  0
  -21.6826   -6.0735   22.5291 C   0  0  0  0  0  0
  -21.3987   -6.5644   23.8223 C   0  0  0  0  0  0
  -21.3697   -5.6821   24.9198 C   0  0  0  0  0  0
  -21.5995   -4.3080   24.7270 C   0  0  0  0  0  0
  -21.8798   -3.8159   23.4400 C   0  0  0  0  0  0
  -21.9161   -4.6959   22.3428 C   0  0  0  0  0  0
  -22.7882  -13.5211   21.1899 C   0  0  0  0  0  0
  -22.1637   -4.2112   21.1033 F   0  0  0  0  0  0
  -21.5645   -3.4595   25.7810 F   0  0  0  0  0  0
  -30.0211  -13.3068   20.4236 N   0  0  0  0  0  0
  -26.2984  -12.9223   20.3402 N   0  0  0  0  0  0
  -25.9284  -11.6405   20.5808 N   0  0  0  0  0  0
  -22.0517  -12.8238   22.0478 N   0  0  0  0  0  0
  -25.4237  -15.1804   20.4122 N   0  0  0  0  0  0
  -31.8657  -14.6283   20.1865 O   0  0  0  0  0  0
  -21.6591   -6.8850   21.4258 O   0  0  0  0  0  0
  -22.3583  -14.5530   20.6734 O   0  0  0  0  0  0
  -24.6202  -31.8600   23.2077 C   0  0  0  0  0  0
  -25.9117  -32.4765   23.8362 C   0  0  1  0  0  0
  -27.2361  -27.4204   20.1092 C   0  0  0  0  0  0
  -25.5956  -33.8564   24.2282 N   0  0  0  0  0  0
  -23.4063  -30.4833   21.5496 C   0  0  2  0  0  0
  -24.8550  -28.9433   20.1156 C   0  0  0  0  0  0
  -22.7424  -29.4646   22.5029 C   0  0  0  0  0  0
  -18.0262  -28.1362   22.8472 C   0  0  0  0  0  0
  -24.1525  -36.7334   23.2630 C   0  0  0  0  0  0
  -25.9355  -30.8246   21.3608 C   0  0  0  0  0  0
  -26.0162  -29.4593   20.7040 C   0  0  0  0  0  0
  -27.2162  -28.7118   20.6796 C   0  0  0  0  0  0
  -26.0588  -26.9074   19.5200 C   0  0  0  0  0  0
  -24.8738  -27.6699   19.5135 C   0  0  0  0  0  0
  -23.6159  -29.8114   20.1628 C   0  0  0  0  0  0
  -25.4131  -36.3096   24.0317 C   0  0  1  0  0  0
  -20.5839  -28.3647   23.1331 C   0  0  2  0  0  0
  -20.6772  -26.9391   22.5445 C   0  0  0  0  0  0
  -19.5767  -26.6350   21.5229 C   0  0  0  0  0  0
  -18.1911  -26.7904   22.1606 C   0  0  0  0  0  0
  -19.1505  -28.8828   23.2871 C   0  0  0  0  0  0
  -18.9441  -30.1436   23.8890 C   0  0  0  0  0  0
  -17.6431  -30.6567   24.0527 C   0  0  0  0  0  0
  -25.9038  -34.9446   23.5095 C   0  0  0  0  0  0
  -16.5322  -29.9053   23.6308 C   0  0  0  0  0  0
  -16.7247  -28.6472   23.0326 C   0  0  0  0  0  0
  -26.4489  -31.6564   25.0730 C   0  0  0  0  0  0
  -25.3686  -31.3652   26.1427 C   0  0  0  0  0  0
  -27.0330  -30.2991   24.6162 C   0  0  0  0  0  0
  -27.6076  -32.4273   25.7464 C   0  0  0  0  0  0
  -27.5586  -37.1833   24.8443 C   0  0  0  0  0  0
  -21.4157  -29.2995   22.3771 N   0  0  0  0  0  0
  -26.4339  -37.3770   23.9342 N   0  0  0  0  0  0
  -24.6722  -31.0706   22.0975 N   0  0  0  0  0  0
  -23.4179  -28.8188   23.3071 O   0  0  0  0  0  0
  -28.4004  -26.6887   20.0890 O   0  0  0  0  0  0
  -26.5614  -34.8931   22.4655 O   0  0  0  0  0  0
  -23.5410  -32.1386   23.7449 O   0  0  0  0  0  0
  -29.3242  -17.8860   21.5783 C   0  0  0  0  0  0
  -30.0262  -16.5053   21.6980 C   0  0  0  0  0  0
  -30.0221  -23.7772   21.5882 C   0  0  0  0  0  0
  -29.8622  -25.2819   21.3834 C   0  0  0  0  0  0
  -28.0810  -24.1568   20.1422 C   0  0  0  0  0  0
  -28.4855  -17.2568   19.3535 C   0  0  0  0  0  0
  -29.6454  -16.2556   19.2676 C   0  0  0  0  0  0
  -29.2148  -23.1321   20.4489 C   0  0  2  0  0  0
  -28.4258  -25.4817   20.8785 C   0  0  2  0  0  0
  -29.8953  -20.4028   18.9937 C   0  0  0  0  0  0
  -27.8552  -19.4655   20.3315 C   0  0  0  0  0  0
  -28.5949  -20.7245   19.7677 C   0  0  1  0  0  0
  -28.6429  -18.2122   20.4529 N   0  0  0  0  0  0
  -29.8765  -15.5835   20.5553 N   0  0  0  0  0  0
  -28.7685  -21.7567   20.8320 N   0  3  0  0  0  0
  -29.4000  -18.6673   22.5303 O   0  0  0  0  0  0
  -31.4614  -12.3969   19.1324 H   0  0  0  0  0  0
  -30.3299  -11.2982   19.8606 H   0  0  0  0  0  0
  -29.7315  -11.6960   17.4743 H   0  0  0  0  0  0
  -29.6645  -13.4204   17.7276 H   0  0  0  0  0  0
  -27.8387  -11.2670   18.8666 H   0  0  0  0  0  0
  -27.3583  -12.5473   17.7991 H   0  0  0  0  0  0
  -27.6705  -14.2242   19.5282 H   0  0  0  0  0  0
  -28.6764  -12.0104   21.3985 H   0  0  0  0  0  0
  -28.4729  -13.6871   21.8307 H   0  0  0  0  0  0
  -25.2713   -9.5590   22.4841 H   0  0  0  0  0  0
  -23.9917   -7.4572   22.7507 H   0  0  0  0  0  0
  -21.0837   -8.8773   19.9000 H   0  0  0  0  0  0
  -22.3711  -10.9650   19.6241 H   0  0  0  0  0  0
  -21.1953   -7.6156   23.9717 H   0  0  0  0  0  0
  -21.1568   -6.0584   25.9096 H   0  0  0  0  0  0
  -22.0537   -2.7606   23.2943 H   0  0  0  0  0  0
  -22.4067  -11.9794   22.4738 H   0  0  0  0  0  0
  -21.1150  -13.1310   22.2742 H   0  0  0  0  0  0
  -24.6519  -15.8318   20.5184 H   0  0  0  0  0  0
  -26.2723  -15.6149   20.0831 H   0  0  0  0  0  0
  -26.7181  -32.5477   23.1124 H   0  0  0  0  0  0
  -25.0144  -33.9698   25.0453 H   0  0  0  0  0  0
  -22.6957  -31.3008   21.4080 H   0  0  0  0  0  0
  -23.3775  -35.9695   23.3331 H   0  0  0  0  0  0
  -24.3590  -36.8904   22.2038 H   0  0  0  0  0  0
  -23.7340  -37.6570   23.6625 H   0  0  0  0  0  0
  -26.0670  -31.5984   20.6026 H   0  0  0  0  0  0
  -26.8154  -30.8604   21.9927 H   0  0  0  0  0  0
  -28.1250  -29.1123   21.1125 H   0  0  0  0  0  0
  -26.0535  -25.9250   19.0657 H   0  0  0  0  0  0
  -23.9784  -27.2684   19.0585 H   0  0  0  0  0  0
  -23.7116  -30.5833   19.3998 H   0  0  0  0  0  0
  -22.7420  -29.2252   19.8740 H   0  0  0  0  0  0
  -25.1329  -36.1945   25.0821 H   0  0  0  0  0  0
  -20.9868  -28.3207   24.1466 H   0  0  0  0  0  0
  -20.5694  -26.2223   23.3606 H   0  0  0  0  0  0
  -21.6637  -26.7434   22.1218 H   0  0  0  0  0  0
  -19.6921  -25.6247   21.1260 H   0  0  0  0  0  0
  -19.6762  -27.3149   20.6759 H   0  0  0  0  0  0
  -17.4208  -26.6653   21.3986 H   0  0  0  0  0  0
  -18.0322  -26.0040   22.9014 H   0  0  0  0  0  0
  -19.7901  -30.7251   24.2263 H   0  0  0  0  0  0
  -17.4964  -31.6246   24.5142 H   0  0  0  0  0  0
  -15.5310  -30.2924   23.7646 H   0  0  0  0  0  0
  -15.8648  -28.0763   22.7040 H   0  0  0  0  0  0
  -24.5913  -30.6970   25.7681 H   0  0  0  0  0  0
  -24.8853  -32.2815   26.4842 H   0  0  0  0  0  0
  -25.7999  -30.8799   27.0183 H   0  0  0  0  0  0
  -26.2907  -29.6740   24.1190 H   0  0  0  0  0  0
  -27.4027  -29.7256   25.4661 H   0  0  0  0  0  0
  -27.8772  -30.4280   23.9380 H   0  0  0  0  0  0
  -27.2724  -33.3566   26.2066 H   0  0  0  0  0  0
  -28.3868  -32.6786   25.0263 H   0  0  0  0  0  0
  -28.0773  -31.8361   26.5346 H   0  0  0  0  0  0
  -28.2618  -38.0104   24.7439 H   0  0  0  0  0  0
  -28.1073  -36.2641   24.6355 H   0  0  0  0  0  0
  -27.2278  -37.1562   25.8838 H   0  0  0  0  0  0
  -20.9391  -29.8685   21.6918 H   0  0  0  0  0  0
  -26.0236  -38.2855   24.1307 H   0  0  0  0  0  0
  -29.6579  -16.0158   22.5990 H   0  0  0  0  0  0
  -31.0874  -16.7084   21.8606 H   0  0  0  0  0  0
  -29.6162  -23.5017   22.5653 H   0  0  0  0  0  0
  -31.0720  -23.4767   21.5862 H   0  0  0  0  0  0
  -30.5663  -25.6219   20.6234 H   0  0  0  0  0  0
  -30.0656  -25.8447   22.2970 H   0  0  0  0  0  0
  -27.1075  -23.7829   20.4618 H   0  0  0  0  0  0
  -28.0034  -24.3269   19.0692 H   0  0  0  0  0  0
  -27.5383  -16.7434   19.5025 H   0  0  0  0  0  0
  -28.4045  -17.7782   18.4010 H   0  0  0  0  0  0
  -30.5558  -16.7662   18.9438 H   0  0  0  0  0  0
  -29.4067  -15.5265   18.4913 H   0  0  0  0  0  0
  -29.8757  -23.0724   19.5844 H   0  0  0  0  0  0
  -27.7728  -25.5823   21.7467 H   0  0  0  0  0  0
  -29.7584  -19.5566   18.3171 H   0  0  0  0  0  0
  -30.7268  -20.1762   19.6661 H   0  0  0  0  0  0
  -30.1977  -21.2289   18.3526 H   0  0  0  0  0  0
  -27.0175  -19.2571   19.6630 H   0  0  0  0  0  0
  -27.3511  -19.6867   21.2774 H   0  0  0  0  0  0
  -27.9045  -21.1697   19.0426 H   0  0  0  0  0  0
  -27.9103  -21.8355   21.3557 H   0  0  0  0  0  0
  -29.4628  -21.3981   21.4665 H   0  0  0  0  0  0
  1 25  1  0  0  0
  1 30  2  0  0  0
  1 84  1  0  0  0
  2  3  1  0  0  0
  2 25  1  0  0  0
  2 87  1  0  0  0
  2 88  1  0  0  0
  3  4  1  0  0  0
  3 89  1  0  0  0
  3 90  1  0  0  0
  4  5  1  0  0  0
  4 91  1  0  0  0
  4 92  1  0  0  0
  5  6  1  0  0  0
  5 26  1  0  0  0
  5 93  1  0  0  0
  6 25  1  0  0  0
  6 94  1  0  0  0
  6 95  1  0  0  0
  7  8  2  0  0  0
  7 26  1  0  0  0
  7 29  1  0  0  0
  8  9  1  0  0  0
  8 22  1  0  0  0
  9 10  1  0  0  0
  9 27  2  0  0  0
 10 11  2  0  0  0
 10 15  1  0  0  0
 11 12  1  0  0  0
 11 96  1  0  0  0
 12 13  2  0  0  0
 12 97  1  0  0  0
 13 14  1  0  0  0
 13 31  1  0  0  0
 14 15  2  0  0  0
 14 98  1  0  0  0
 15 99  1  0  0  0
 16 17  2  0  0  0
 16 21  1  0  0  0
 16 31  1  0  0  0
 17 18  1  0  0  0
 17100  1  0  0  0
 18 19  2  0  0  0
 18101  1  0  0  0
 19 20  1  0  0  0
 19 24  1  0  0  0
 20 21  2  0  0  0
 20102  1  0  0  0
 21 23  1  0  0  0
 22 28  1  0  0  0
 22 32  2  0  0  0
 26 27  1  0  0  0
 28103  1  0  0  0
 28104  1  0  0  0
 29105  1  0  0  0
 29106  1  0  0  0
 33 34  1  0  0  0
 33 66  1  0  0  0
 33 70  2  0  0  0
 34 36  1  0  0  0
 34 59  1  0  0  0
 34107  1  0  0  0
 35 44  2  0  0  0
 35 45  1  0  0  0
 35 68  1  0  0  0
 36 56  1  0  0  0
 36108  1  0  0  0
 37 39  1  0  0  0
 37 47  1  0  0  0
 37 66  1  0  0  0
 37109  1  0  0  0
 38 43  2  0  0  0
 38 46  1  0  0  0
 38 47  1  0  0  0
 39 64  1  0  0  0
 39 67  2  0  0  0
 40 52  1  0  0  0
 40 53  2  0  0  0
 40 58  1  0  0  0
 41110  1  0  0  0
 41111  1  0  0  0
 41112  1  0  0  0
 41 48  1  0  0  0
 42 43  1  0  0  0
 42 66  1  0  0  0
 42113  1  0  0  0
 42114  1  0  0  0
 43 44  1  0  0  0
 44115  1  0  0  0
 45 46  2  0  0  0
 45116  1  0  0  0
 46117  1  0  0  0
 47118  1  0  0  0
 47119  1  0  0  0
 48 56  1  0  0  0
 48 65  1  0  0  0
 48120  1  0  0  0
 49 50  1  0  0  0
 49 53  1  0  0  0
 49 64  1  0  0  0
 49121  1  0  0  0
 50 51  1  0  0  0
 50122  1  0  0  0
 50123  1  0  0  0
 51 52  1  0  0  0
 51124  1  0  0  0
 51125  1  0  0  0
 52126  1  0  0  0
 52127  1  0  0  0
 53 54  1  0  0  0
 54 55  2  0  0  0
 54128  1  0  0  0
 55 57  1  0  0  0
 55129  1  0  0  0
 56 69  2  0  0  0
 57 58  2  0  0  0
 57130  1  0  0  0
 58131  1  0  0  0
 59 60  1  0  0  0
 59 61  1  0  0  0
 59 62  1  0  0  0
 60132  1  0  0  0
 60133  1  0  0  0
 60134  1  0  0  0
 61135  1  0  0  0
 61136  1  0  0  0
 61137  1  0  0  0
 62138  1  0  0  0
 62139  1  0  0  0
 62140  1  0  0  0
 63 65  1  0  0  0
 63141  1  0  0  0
 63142  1  0  0  0
 63143  1  0  0  0
 64144  1  0  0  0
 65145  1  0  0  0
 68 79  1  0  0  0
 71 72  1  0  0  0
 71 83  1  0  0  0
 71 86  2  0  0  0
 72 84  1  0  0  0
 72146  1  0  0  0
 72147  1  0  0  0
 73 74  1  0  0  0
 73 78  1  0  0  0
 73148  1  0  0  0
 73149  1  0  0  0
 74 79  1  0  0  0
 74150  1  0  0  0
 74151  1  0  0  0
 75 78  1  0  0  0
 75 79  1  0  0  0
 75152  1  0  0  0
 75153  1  0  0  0
 76 77  1  0  0  0
 76 83  1  0  0  0
 76154  1  0  0  0
 76155  1  0  0  0
 77 84  1  0  0  0
 77156  1  0  0  0
 77157  1  0  0  0
 78 85  1  0  0  0
 78158  1  0  0  0
 79159  1  0  0  0
 80160  1  0  0  0
 80161  1  0  0  0
 80162  1  0  0  0
 80 82  1  0  0  0
 81 82  1  0  0  0
 81 83  1  0  0  0
 81163  1  0  0  0
 81164  1  0  0  0
 82 85  1  0  0  0
 82165  1  0  0  0
 85166  1  0  0  0
 85167  1  0  0  0
M  CHG  1  85   1
M  ISO  4   1 100  68 101  79 101  84 100
M  END
> <chiral flag>
0

> <version>
0

> <s_m_source_file>
/data/baiqing/PycharmProjects/Reinvent-master-3.2/result/LINK_invent/BTK/process_docking_weight1_custom_sum_contain_oxygen_bond_distance_aromatic_linkinvent_7_9_3/rearranged_h_0198.sdf

> <i_m_source_file_index>
86

> <r_mmod_Potential_Energy-OPLS-2005>
54.3737335205078

> <r_mmod_Stretch_Energy-OPLS-2005>
42.5975608825684

> <r_mmod_Bend_Energy-OPLS-2005>
135.314804077148

> <r_mmod_Torsional_Energy-OPLS-2005>
457.652496337891

> <r_mmod_Improper_Torsional_Energy-OPLS-2005>
14.172287940979

> <r_mmod_Van_der_Waal_Energy-OPLS-2005>
129.801513671875

> <r_mmod_Electrostatic_Energy-OPLS-2005>
-302.127044677734

> <r_mmod_Solvation_Energy-OPLS-2005>
-443.2587890625

> <b_mmod_Minimization_Converged-OPLS-2005>
0

> <r_mmod_RMS_Derivative-OPLS-2005>
6.79753589630127

$$$$
86
                    3D
 Structure written by MMmdl.
172182  0  0  1  0            999 V2000
  -30.6277  -14.4498   20.5597 C   0  0  0  0  0  0
  -30.4450  -12.2865   19.4246 C   0  0  0  0  0  0
  -29.5199  -12.5306   18.2110 C   0  0  0  0  0  0
  -28.0314  -12.4018   18.6005 C   0  0  0  0  0  0
  -27.6722  -13.1835   19.8922 C   0  0  2  0  0  0
  -28.7098  -12.8956   21.0067 C   0  0  0  0  0  0
  -25.2651  -13.8077   20.5687 C   0  0  0  0  0  0
  -24.1850  -13.0406   20.9175 C   0  0  0  0  0  0
  -24.6396  -11.6847   20.8722 C   0  0  0  0  0  0
  -23.9037  -10.4266   21.0394 C   0  0  0  0  0  0
  -24.3605   -9.4183   21.9158 C   0  0  0  0  0  0
  -23.6268   -8.2223   22.0740 C   0  0  0  0  0  0
  -22.4228   -8.0286   21.3549 C   0  0  0  0  0  0
  -21.9866   -9.0254   20.4651 C   0  0  0  0  0  0
  -22.7214  -10.2125   20.3049 C   0  0  0  0  0  0
  -21.6849   -6.0724   22.5252 C   0  0  0  0  0  0
  -21.4054   -6.5631   23.8203 C   0  0  0  0  0  0
  -21.3677   -5.6778   24.9157 C   0  0  0  0  0  0
  -21.6037   -4.3036   24.7199 C   0  0  0  0  0  0
  -21.8837   -3.8144   23.4316 C   0  0  0  0  0  0
  -21.9202   -4.6953   22.3367 C   0  0  0  0  0  0
  -22.7882  -13.5221   21.1808 C   0  0  0  0  0  0
  -22.1635   -4.2158   21.0937 F   0  0  0  0  0  0
  -21.5607   -3.4512   25.7714 F   0  0  0  0  0  0
  -30.0482  -13.2280   20.4801 N   0  0  0  0  0  0
  -26.3059  -12.9196   20.3390 N   0  0  0  0  0  0
  -25.9326  -11.6376   20.5762 N   0  0  0  0  0  0
  -22.0497  -12.8298   22.0421 N   0  0  0  0  0  0
  -25.4358  -15.1811   20.4083 N   0  0  0  0  0  0
  -31.7377  -14.7224   20.0902 O   0  0  0  0  0  0
  -21.6615   -6.8856   21.4214 O   0  0  0  0  0  0
  -22.3605  -14.5520   20.6615 O   0  0  0  0  0  0
  -24.6100  -31.8708   23.2141 C   0  0  0  0  0  0
  -25.9011  -32.4837   23.8420 C   0  0  1  0  0  0
  -27.2541  -27.4926   20.0783 C   0  0  0  0  0  0
  -25.5877  -33.8630   24.2355 N   0  0  0  0  0  0
  -23.3951  -30.4932   21.5535 C   0  0  2  0  0  0
  -24.8428  -28.9649   20.1152 C   0  0  0  0  0  0
  -22.7355  -29.4698   22.5044 C   0  0  0  0  0  0
  -18.0260  -28.1382   22.8463 C   0  0  0  0  0  0
  -24.1441  -36.7303   23.2618 C   0  0  0  0  0  0
  -25.9155  -30.8542   21.3553 C   0  0  0  0  0  0
  -25.9986  -29.4906   20.7074 C   0  0  0  0  0  0
  -27.2019  -28.7582   20.6903 C   0  0  0  0  0  0
  -26.0809  -26.9763   19.4724 C   0  0  0  0  0  0
  -24.8765  -27.7017   19.5030 C   0  0  0  0  0  0
  -23.5985  -29.8196   20.1700 C   0  0  0  0  0  0
  -25.4050  -36.3108   24.0342 C   0  0  1  0  0  0
  -20.5834  -28.3660   23.1313 C   0  0  2  0  0  0
  -20.6736  -26.9398   22.5403 C   0  0  0  0  0  0
  -19.5724  -26.6380   21.5185 C   0  0  0  0  0  0
  -18.1903  -26.7930   22.1597 C   0  0  0  0  0  0
  -19.1505  -28.8833   23.2893 C   0  0  0  0  0  0
  -18.9455  -30.1424   23.8934 C   0  0  0  0  0  0
  -17.6464  -30.6589   24.0565 C   0  0  0  0  0  0
  -25.9006  -34.9485   23.5159 C   0  0  0  0  0  0
  -16.5347  -29.9095   23.6316 C   0  0  0  0  0  0
  -16.7250  -28.6500   23.0343 C   0  0  0  0  0  0
  -26.4440  -31.6610   25.0737 C   0  0  0  0  0  0
  -25.3760  -31.3748   26.1549 C   0  0  0  0  0  0
  -27.0211  -30.3045   24.6065 C   0  0  0  0  0  0
  -27.6050  -32.4297   25.7485 C   0  0  0  0  0  0
  -27.5569  -37.1753   24.8424 C   0  0  0  0  0  0
  -21.4093  -29.3052   22.3743 N   0  0  0  0  0  0
  -26.4210  -37.3823   23.9480 N   0  0  0  0  0  0
  -24.6580  -31.0840   22.1021 N   0  0  0  0  0  0
  -23.4126  -28.8243   23.3071 O   0  0  0  0  0  0
  -28.4596  -26.8275   20.0954 O   0  0  0  0  0  0
  -26.5595  -34.8951   22.4726 O   0  0  0  0  0  0
  -23.5312  -32.1448   23.7575 O   0  0  0  0  0  0
  -29.5907  -22.4529   21.7909 C   0  0  0  0  0  0
  -29.0050  -21.2767   21.4019 C   0  0  0  0  0  0
  -31.0286  -17.9277   19.1245 C   0  0  0  0  0  0
  -31.7598  -23.1367   23.0941 C   0  0  0  0  0  0
  -31.2002  -21.9229   23.7978 C   0  0  0  0  0  0
  -29.8625  -16.9452   18.9556 C   0  0  0  0  0  0
  -31.0851  -18.2943   20.6186 C   0  0  0  0  0  0
  -30.2739  -22.8651   23.0596 C   0  0  0  0  0  0
  -29.3391  -16.6520   20.3808 C   0  0  2  0  0  0
  -29.7520  -17.8518   21.2407 C   0  0  2  0  0  0
  -27.5223  -20.0502   23.0066 C   0  0  0  0  0  0
  -29.5991  -24.7268   20.5863 C   0  0  0  0  0  0
  -28.4410  -25.4273   19.8568 C   0  0  0  0  0  0
  -28.8008  -19.9926   22.1513 C   0  0  1  0  0  0
  -28.5090  -21.4302   20.1060 N   0  0  0  0  0  0
  -28.7482  -22.6335   19.6995 N   0  0  0  0  0  0
  -29.3425  -23.2999   20.7217 N   0  0  0  0  0  0
  -29.7548  -15.3803   20.9830 N   0  0  0  0  0  0
  -28.7189  -18.9105   21.1551 N   0  3  0  0  0  0
  -31.4945  -12.4066   19.1435 H   0  0  0  0  0  0
  -30.3420  -11.2630   19.7851 H   0  0  0  0  0  0
  -29.7595  -11.8303   17.4083 H   0  0  0  0  0  0
  -29.7060  -13.5287   17.8082 H   0  0  0  0  0  0
  -27.8068  -11.3417   18.7196 H   0  0  0  0  0  0
  -27.4080  -12.7513   17.7790 H   0  0  0  0  0  0
  -27.7257  -14.2401   19.6417 H   0  0  0  0  0  0
  -28.6835  -11.8401   21.2837 H   0  0  0  0  0  0
  -28.4700  -13.4339   21.9259 H   0  0  0  0  0  0
  -25.2760   -9.5631   22.4697 H   0  0  0  0  0  0
  -23.9992   -7.4592   22.7419 H   0  0  0  0  0  0
  -21.0788   -8.8772   19.8927 H   0  0  0  0  0  0
  -22.3678  -10.9656   19.6140 H   0  0  0  0  0  0
  -21.2085   -7.6144   23.9717 H   0  0  0  0  0  0
  -21.1455   -6.0490   25.9066 H   0  0  0  0  0  0
  -22.0612   -2.7592   23.2813 H   0  0  0  0  0  0
  -22.4067  -11.9984   22.4888 H   0  0  0  0  0  0
  -21.1090  -13.1332   22.2519 H   0  0  0  0  0  0
  -24.6487  -15.8182   20.4681 H   0  0  0  0  0  0
  -26.2496  -15.5968   19.9793 H   0  0  0  0  0  0
  -26.7119  -32.5573   23.1237 H   0  0  0  0  0  0
  -25.0027  -33.9779   25.0506 H   0  0  0  0  0  0
  -22.6838  -31.3090   21.4134 H   0  0  0  0  0  0
  -23.3751  -35.9578   23.3165 H   0  0  0  0  0  0
  -24.3593  -36.9040   22.2065 H   0  0  0  0  0  0
  -23.7110  -37.6434   23.6710 H   0  0  0  0  0  0
  -26.0054  -31.6206   20.5851 H   0  0  0  0  0  0
  -26.8106  -30.9242   21.9611 H   0  0  0  0  0  0
  -28.0977  -29.1617   21.1440 H   0  0  0  0  0  0
  -26.0822  -26.0278   18.9554 H   0  0  0  0  0  0
  -23.9886  -27.2874   19.0439 H   0  0  0  0  0  0
  -23.6981  -30.5920   19.4061 H   0  0  0  0  0  0
  -22.7259  -29.2279   19.8821 H   0  0  0  0  0  0
  -25.1200  -36.1949   25.0824 H   0  0  0  0  0  0
  -20.9921  -28.3243   24.1440 H   0  0  0  0  0  0
  -20.5578  -26.2289   23.3593 H   0  0  0  0  0  0
  -21.6624  -26.7413   22.1243 H   0  0  0  0  0  0
  -19.6878  -25.6294   21.1200 H   0  0  0  0  0  0
  -19.6660  -27.3191   20.6721 H   0  0  0  0  0  0
  -17.4158  -26.6655   21.4023 H   0  0  0  0  0  0
  -18.0330  -26.0075   22.8998 H   0  0  0  0  0  0
  -19.7950  -30.7193   24.2352 H   0  0  0  0  0  0
  -17.5047  -31.6287   24.5129 H   0  0  0  0  0  0
  -15.5359  -30.3012   23.7643 H   0  0  0  0  0  0
  -15.8647  -28.0816   22.7085 H   0  0  0  0  0  0
  -24.5904  -30.7083   25.7976 H   0  0  0  0  0  0
  -24.9003  -32.2922   26.5031 H   0  0  0  0  0  0
  -25.8176  -30.8935   27.0286 H   0  0  0  0  0  0
  -26.2711  -29.6871   24.1098 H   0  0  0  0  0  0
  -27.3968  -29.7223   25.4491 H   0  0  0  0  0  0
  -27.8573  -30.4360   23.9197 H   0  0  0  0  0  0
  -27.2707  -33.3634   26.2028 H   0  0  0  0  0  0
  -28.3891  -32.6760   25.0313 H   0  0  0  0  0  0
  -28.0661  -31.8418   26.5438 H   0  0  0  0  0  0
  -28.2470  -38.0166   24.7707 H   0  0  0  0  0  0
  -28.1183  -36.2745   24.5908 H   0  0  0  0  0  0
  -27.2367  -37.1027   25.8831 H   0  0  0  0  0  0
  -20.9242  -29.8806   21.7007 H   0  0  0  0  0  0
  -26.0085  -38.2850   24.1682 H   0  0  0  0  0  0
  -30.8829  -18.8197   18.5058 H   0  0  0  0  0  0
  -31.9689  -17.4742   18.8077 H   0  0  0  0  0  0
  -32.3185  -22.9738   22.1742 H   0  0  0  0  0  0
  -32.1296  -23.9441   23.7241 H   0  0  0  0  0  0
  -31.1719  -21.9391   24.8860 H   0  0  0  0  0  0
  -31.4598  -20.9632   23.3569 H   0  0  0  0  0  0
  -30.1366  -16.0615   18.3767 H   0  0  0  0  0  0
  -29.0704  -17.4250   18.3776 H   0  0  0  0  0  0
  -31.3170  -19.3466   20.7906 H   0  0  0  0  0  0
  -31.8854  -17.7203   21.0857 H   0  0  0  0  0  0
  -29.6372  -23.5144   23.6588 H   0  0  0  0  0  0
  -28.2491  -16.5775   20.3331 H   0  0  0  0  0  0
  -29.8767  -17.5632   22.2859 H   0  0  0  0  0  0
  -27.5873  -20.8567   23.7367 H   0  0  0  0  0  0
  -27.3675  -19.1250   23.5615 H   0  0  0  0  0  0
  -26.6335  -20.2397   22.4019 H   0  0  0  0  0  0
  -29.7020  -25.1517   21.5866 H   0  0  0  0  0  0
  -30.5454  -24.8831   20.0692 H   0  0  0  0  0  0
  -27.5159  -24.9969   20.2425 H   0  0  0  0  0  0
  -28.4826  -25.2342   18.7827 H   0  0  0  0  0  0
  -29.6435  -19.8144   22.8172 H   0  0  0  0  0  0
  -29.0072  -14.9588   21.5130 H   0  0  0  0  0  0
  -27.8064  -18.4962   21.2548 H   0  0  0  0  0  0
  -28.7377  -19.3799   20.2578 H   0  0  0  0  0  0
  1 25  1  0  0  0
  1 30  2  0  0  0
  1 88  1  0  0  0
  2  3  1  0  0  0
  2 25  1  0  0  0
  2 90  1  0  0  0
  2 91  1  0  0  0
  3  4  1  0  0  0
  3 92  1  0  0  0
  3 93  1  0  0  0
  4  5  1  0  0  0
  4 94  1  0  0  0
  4 95  1  0  0  0
  5  6  1  0  0  0
  5 26  1  0  0  0
  5 96  1  0  0  0
  6 25  1  0  0  0
  6 97  1  0  0  0
  6 98  1  0  0  0
  7  8  2  0  0  0
  7 26  1  0  0  0
  7 29  1  0  0  0
  8  9  1  0  0  0
  8 22  1  0  0  0
  9 10  1  0  0  0
  9 27  2  0  0  0
 10 11  2  0  0  0
 10 15  1  0  0  0
 11 12  1  0  0  0
 11 99  1  0  0  0
 12 13  2  0  0  0
 12100  1  0  0  0
 13 14  1  0  0  0
 13 31  1  0  0  0
 14 15  2  0  0  0
 14101  1  0  0  0
 15102  1  0  0  0
 16 17  2  0  0  0
 16 21  1  0  0  0
 16 31  1  0  0  0
 17 18  1  0  0  0
 17103  1  0  0  0
 18 19  2  0  0  0
 18104  1  0  0  0
 19 20  1  0  0  0
 19 24  1  0  0  0
 20 21  2  0  0  0
 20105  1  0  0  0
 21 23  1  0  0  0
 22 28  1  0  0  0
 22 32  2  0  0  0
 26 27  1  0  0  0
 28106  1  0  0  0
 28107  1  0  0  0
 29108  1  0  0  0
 29109  1  0  0  0
 33 34  1  0  0  0
 33 66  1  0  0  0
 33 70  2  0  0  0
 34 36  1  0  0  0
 34 59  1  0  0  0
 34110  1  0  0  0
 35 44  2  0  0  0
 35 45  1  0  0  0
 35 68  1  0  0  0
 36 56  1  0  0  0
 36111  1  0  0  0
 37 39  1  0  0  0
 37 47  1  0  0  0
 37 66  1  0  0  0
 37112  1  0  0  0
 38 43  2  0  0  0
 38 46  1  0  0  0
 38 47  1  0  0  0
 39 64  1  0  0  0
 39 67  2  0  0  0
 40 52  1  0  0  0
 40 53  2  0  0  0
 40 58  1  0  0  0
 41113  1  0  0  0
 41114  1  0  0  0
 41115  1  0  0  0
 41 48  1  0  0  0
 42 43  1  0  0  0
 42 66  1  0  0  0
 42116  1  0  0  0
 42117  1  0  0  0
 43 44  1  0  0  0
 44118  1  0  0  0
 45 46  2  0  0  0
 45119  1  0  0  0
 46120  1  0  0  0
 47121  1  0  0  0
 47122  1  0  0  0
 48 56  1  0  0  0
 48 65  1  0  0  0
 48123  1  0  0  0
 49 50  1  0  0  0
 49 53  1  0  0  0
 49 64  1  0  0  0
 49124  1  0  0  0
 50 51  1  0  0  0
 50125  1  0  0  0
 50126  1  0  0  0
 51 52  1  0  0  0
 51127  1  0  0  0
 51128  1  0  0  0
 52129  1  0  0  0
 52130  1  0  0  0
 53 54  1  0  0  0
 54 55  2  0  0  0
 54131  1  0  0  0
 55 57  1  0  0  0
 55132  1  0  0  0
 56 69  2  0  0  0
 57 58  2  0  0  0
 57133  1  0  0  0
 58134  1  0  0  0
 59 60  1  0  0  0
 59 61  1  0  0  0
 59 62  1  0  0  0
 60135  1  0  0  0
 60136  1  0  0  0
 60137  1  0  0  0
 61138  1  0  0  0
 61139  1  0  0  0
 61140  1  0  0  0
 62141  1  0  0  0
 62142  1  0  0  0
 62143  1  0  0  0
 63 65  1  0  0  0
 63144  1  0  0  0
 63145  1  0  0  0
 63146  1  0  0  0
 64147  1  0  0  0
 65148  1  0  0  0
 68 83  1  0  0  0
 71 72  2  0  0  0
 71 87  1  0  0  0
 71 78  1  0  0  0
 72 84  1  0  0  0
 72 85  1  0  0  0
 73 76  1  0  0  0
 73 77  1  0  0  0
 73149  1  0  0  0
 73150  1  0  0  0
 74 75  1  0  0  0
 74 78  1  0  0  0
 74151  1  0  0  0
 74152  1  0  0  0
 75 78  1  0  0  0
 75153  1  0  0  0
 75154  1  0  0  0
 76 79  1  0  0  0
 76155  1  0  0  0
 76156  1  0  0  0
 77 80  1  0  0  0
 77157  1  0  0  0
 77158  1  0  0  0
 78159  1  0  0  0
 79 80  1  0  0  0
 79 88  1  0  0  0
 79160  1  0  0  0
 80 89  1  0  0  0
 80161  1  0  0  0
 81162  1  0  0  0
 81163  1  0  0  0
 81164  1  0  0  0
 81 84  1  0  0  0
 82 83  1  0  0  0
 82 87  1  0  0  0
 82165  1  0  0  0
 82166  1  0  0  0
 83167  1  0  0  0
 83168  1  0  0  0
 84 89  1  0  0  0
 84169  1  0  0  0
 85 86  2  0  0  0
 86 87  1  0  0  0
 88170  1  0  0  0
 89171  1  0  0  0
 89172  1  0  0  0
M  CHG  1  89   1
M  ISO  4   1 100  68 101  83 101  88 100
M  END
> <chiral flag>
0

> <version>
0

> <s_m_source_file>
/data/baiqing/PycharmProjects/Reinvent-master-3.2/result/LINK_invent/BTK/process_docking_weight1_custom_sum_contain_oxygen_bond_distance_aromatic_linkinvent_7_9_3/rearranged_h_0198.sdf

> <i_m_source_file_index>
87

> <r_mmod_Potential_Energy-OPLS-2005>
-230.012069702148

> <r_mmod_Stretch_Energy-OPLS-2005>
31.0218887329102

> <r_mmod_Bend_Energy-OPLS-2005>
127.643989562988

> <r_mmod_Torsional_Energy-OPLS-2005>
338.303344726562

> <r_mmod_Improper_Torsional_Energy-OPLS-2005>
9.4725170135498

> <r_mmod_Van_der_Waal_Energy-OPLS-2005>
131.469345092773

> <r_mmod_Electrostatic_Energy-OPLS-2005>
-432.559295654297

> <r_mmod_Solvation_Energy-OPLS-2005>
-448.968872070312

> <b_mmod_Minimization_Converged-OPLS-2005>
0

> <r_mmod_RMS_Derivative-OPLS-2005>
5.63865566253662

$$$$
87
                    3D
 Structure written by MMmdl.
164173  0  0  1  0            999 V2000
  -30.8111  -14.3163   20.7228 C   0  0  0  0  0  0
  -30.4087  -12.2877   19.3816 C   0  0  0  0  0  0
  -29.4738  -12.5294   18.1845 C   0  0  0  0  0  0
  -28.0037  -12.3746   18.6099 C   0  0  0  0  0  0
  -27.6652  -13.2010   19.8772 C   0  0  2  0  0  0
  -28.7031  -12.9514   20.9933 C   0  0  0  0  0  0
  -25.2610  -13.8161   20.5668 C   0  0  0  0  0  0
  -24.1854  -13.0443   20.9158 C   0  0  0  0  0  0
  -24.6396  -11.6906   20.8731 C   0  0  0  0  0  0
  -23.9063  -10.4294   21.0409 C   0  0  0  0  0  0
  -24.3618   -9.4213   21.9189 C   0  0  0  0  0  0
  -23.6292   -8.2247   22.0762 C   0  0  0  0  0  0
  -22.4275   -8.0290   21.3548 C   0  0  0  0  0  0
  -21.9907   -9.0264   20.4653 C   0  0  0  0  0  0
  -22.7236  -10.2141   20.3059 C   0  0  0  0  0  0
  -21.6854   -6.0741   22.5280 C   0  0  0  0  0  0
  -21.4016   -6.5644   23.8215 C   0  0  0  0  0  0
  -21.3655   -5.6798   24.9178 C   0  0  0  0  0  0
  -21.6041   -4.3060   24.7227 C   0  0  0  0  0  0
  -21.8818   -3.8153   23.4349 C   0  0  0  0  0  0
  -21.9194   -4.6968   22.3408 C   0  0  0  0  0  0
  -22.7876  -13.5252   21.1822 C   0  0  0  0  0  0
  -22.1661   -4.2155   21.0984 F   0  0  0  0  0  0
  -21.5625   -3.4542   25.7740 F   0  0  0  0  0  0
  -30.0485  -13.2262   20.4552 N   0  0  0  0  0  0
  -26.3045  -12.9318   20.3374 N   0  0  0  0  0  0
  -25.9323  -11.6481   20.5769 N   0  0  0  0  0  0
  -22.0510  -12.8255   22.0380 N   0  0  0  0  0  0
  -25.4347  -15.1879   20.4093 N   0  0  0  0  0  0
  -31.7985  -14.6204   20.0485 O   0  0  0  0  0  0
  -21.6642   -6.8885   21.4244 O   0  0  0  0  0  0
  -22.3568  -14.5558   20.6673 O   0  0  0  0  0  0
  -24.6099  -31.8709   23.2112 C   0  0  0  0  0  0
  -25.9002  -32.4842   23.8397 C   0  0  1  0  0  0
  -27.2375  -27.4782   20.0861 C   0  0  0  0  0  0
  -25.5880  -33.8634   24.2341 N   0  0  0  0  0  0
  -23.3951  -30.4937   21.5510 C   0  0  2  0  0  0
  -24.8388  -28.9579   20.1192 C   0  0  0  0  0  0
  -22.7383  -29.4675   22.5007 C   0  0  0  0  0  0
  -18.0272  -28.1393   22.8499 C   0  0  0  0  0  0
  -24.1488  -36.7318   23.2636 C   0  0  0  0  0  0
  -25.9166  -30.8510   21.3529 C   0  0  0  0  0  0
  -25.9947  -29.4859   20.7056 C   0  0  0  0  0  0
  -27.1962  -28.7532   20.6828 C   0  0  0  0  0  0
  -26.0627  -26.9431   19.5102 C   0  0  0  0  0  0
  -24.8641  -27.6844   19.5226 C   0  0  0  0  0  0
  -23.6002  -29.8225   20.1658 C   0  0  0  0  0  0
  -25.4104  -36.3122   24.0343 C   0  0  1  0  0  0
  -20.5858  -28.3656   23.1341 C   0  0  2  0  0  0
  -20.6760  -26.9398   22.5426 C   0  0  0  0  0  0
  -19.5742  -26.6403   21.5218 C   0  0  0  0  0  0
  -18.1919  -26.7945   22.1628 C   0  0  0  0  0  0
  -19.1519  -28.8843   23.2925 C   0  0  0  0  0  0
  -18.9452  -30.1448   23.8932 C   0  0  0  0  0  0
  -17.6453  -30.6598   24.0579 C   0  0  0  0  0  0
  -25.9030  -34.9480   23.5143 C   0  0  0  0  0  0
  -16.5344  -29.9106   23.6327 C   0  0  0  0  0  0
  -16.7263  -28.6529   23.0346 C   0  0  0  0  0  0
  -26.4447  -31.6602   25.0700 C   0  0  0  0  0  0
  -25.3739  -31.3688   26.1470 C   0  0  0  0  0  0
  -27.0258  -30.3058   24.6006 C   0  0  0  0  0  0
  -27.6038  -32.4302   25.7456 C   0  0  0  0  0  0
  -27.5582  -37.1817   24.8468 C   0  0  0  0  0  0
  -21.4117  -29.3037   22.3761 N   0  0  0  0  0  0
  -26.4296  -37.3799   23.9411 N   0  0  0  0  0  0
  -24.6584  -31.0855   22.0979 N   0  0  0  0  0  0
  -23.4176  -28.8207   23.3029 O   0  0  0  0  0  0
  -28.4487  -26.8370   20.0617 O   0  0  0  0  0  0
  -26.5596  -34.8930   22.4702 O   0  0  0  0  0  0
  -23.5306  -32.1436   23.7546 O   0  0  0  0  0  0
  -31.7852  -20.8488   20.4037 C   0  0  0  0  0  0
  -31.8487  -19.5062   20.8045 C   0  0  0  0  0  0
  -31.6948  -21.8503   21.3846 C   0  0  0  0  0  0
  -31.7355  -21.4461   22.7367 C   0  0  0  0  0  0
  -31.8485  -19.1682   22.1748 C   0  0  0  0  0  0
  -30.5632  -17.2580   22.8631 C   0  0  0  0  0  0
  -32.3153  -16.7721   21.8486 C   0  0  0  0  0  0
  -31.2843  -15.9306   22.6153 C   0  0  0  0  0  0
  -31.6959  -22.4383   23.8848 C   0  0  0  0  0  0
  -31.5541  -23.3063   20.9580 C   0  0  0  0  0  0
  -29.9327  -25.0733   20.3838 C   0  0  0  0  0  0
  -28.4720  -25.4204   20.0714 C   0  0  0  0  0  0
  -31.8072  -20.1477   23.1010 N   0  0  0  0  0  0
  -31.8844  -17.8626   22.7191 N   0  0  0  0  0  0
  -30.4859  -14.9641   21.8510 N   0  0  0  0  0  0
  -30.1467  -23.6358   20.6462 N   0  3  0  0  0  0
  -31.4502  -12.3853   19.0689 H   0  0  0  0  0  0
  -30.3076  -11.2626   19.7413 H   0  0  0  0  0  0
  -29.7035  -11.8320   17.3776 H   0  0  0  0  0  0
  -29.6380  -13.5300   17.7821 H   0  0  0  0  0  0
  -27.8195  -11.3164   18.7977 H   0  0  0  0  0  0
  -27.3425  -12.6565   17.7895 H   0  0  0  0  0  0
  -27.7220  -14.2530   19.5979 H   0  0  0  0  0  0
  -28.6604  -11.9127   21.3244 H   0  0  0  0  0  0
  -28.4471  -13.5463   21.8697 H   0  0  0  0  0  0
  -25.2766   -9.5691   22.4759 H   0  0  0  0  0  0
  -24.0003   -7.4643   22.7486 H   0  0  0  0  0  0
  -21.0832   -8.8786   19.8962 H   0  0  0  0  0  0
  -22.3698  -10.9683   19.6166 H   0  0  0  0  0  0
  -21.2010   -7.6152   23.9722 H   0  0  0  0  0  0
  -21.1472   -6.0527   25.9081 H   0  0  0  0  0  0
  -22.0598   -2.7614   23.2851 H   0  0  0  0  0  0
  -22.4113  -11.9913   22.4769 H   0  0  0  0  0  0
  -21.1136  -13.1305   22.2586 H   0  0  0  0  0  0
  -24.6700  -15.8460   20.5160 H   0  0  0  0  0  0
  -26.2986  -15.6275   20.1147 H   0  0  0  0  0  0
  -26.7073  -32.5563   23.1168 H   0  0  0  0  0  0
  -25.0045  -33.9797   25.0497 H   0  0  0  0  0  0
  -22.6830  -31.3096   21.4134 H   0  0  0  0  0  0
  -23.3752  -35.9652   23.3323 H   0  0  0  0  0  0
  -24.3594  -36.8908   22.2049 H   0  0  0  0  0  0
  -23.7235  -37.6528   23.6632 H   0  0  0  0  0  0
  -26.0182  -31.6149   20.5798 H   0  0  0  0  0  0
  -26.8084  -30.9108   21.9642 H   0  0  0  0  0  0
  -28.0945  -29.1655   21.1210 H   0  0  0  0  0  0
  -26.0616  -25.9743   19.0315 H   0  0  0  0  0  0
  -23.9718  -27.2741   19.0693 H   0  0  0  0  0  0
  -23.7094  -30.5952   19.4039 H   0  0  0  0  0  0
  -22.7252  -29.2402   19.8716 H   0  0  0  0  0  0
  -25.1287  -36.1999   25.0839 H   0  0  0  0  0  0
  -20.9956  -28.3209   24.1459 H   0  0  0  0  0  0
  -20.5669  -26.2254   23.3598 H   0  0  0  0  0  0
  -21.6632  -26.7459   22.1208 H   0  0  0  0  0  0
  -19.6895  -25.6323   21.1229 H   0  0  0  0  0  0
  -19.6686  -27.3229   20.6758 H   0  0  0  0  0  0
  -17.4187  -26.6700   21.4026 H   0  0  0  0  0  0
  -18.0317  -26.0086   22.9026 H   0  0  0  0  0  0
  -19.7928  -30.7266   24.2309 H   0  0  0  0  0  0
  -17.5013  -31.6276   24.5186 H   0  0  0  0  0  0
  -15.5348  -30.3025   23.7636 H   0  0  0  0  0  0
  -15.8667  -28.0867   22.7030 H   0  0  0  0  0  0
  -24.5918  -30.7021   25.7821 H   0  0  0  0  0  0
  -24.8912  -32.2832   26.4934 H   0  0  0  0  0  0
  -25.8120  -30.8864   27.0216 H   0  0  0  0  0  0
  -26.2769  -29.6852   24.1071 H   0  0  0  0  0  0
  -27.4085  -29.7257   25.4416 H   0  0  0  0  0  0
  -27.8584  -30.4420   23.9096 H   0  0  0  0  0  0
  -27.2672  -33.3597   26.2063 H   0  0  0  0  0  0
  -28.3827  -32.6869   25.0261 H   0  0  0  0  0  0
  -28.0722  -31.8399   26.5346 H   0  0  0  0  0  0
  -28.2620  -38.0097   24.7521 H   0  0  0  0  0  0
  -28.1066  -36.2638   24.6307 H   0  0  0  0  0  0
  -27.2308  -37.1482   25.8873 H   0  0  0  0  0  0
  -20.9267  -29.8784   21.7010 H   0  0  0  0  0  0
  -26.0205  -38.2886   24.1407 H   0  0  0  0  0  0
  -31.7843  -21.0981   19.3517 H   0  0  0  0  0  0
  -31.8852  -18.7597   20.0263 H   0  0  0  0  0  0
  -30.1322  -17.3697   23.8595 H   0  0  0  0  0  0
  -29.8676  -17.5494   22.0718 H   0  0  0  0  0  0
  -32.0723  -16.9031   20.7967 H   0  0  0  0  0  0
  -33.3511  -16.4629   21.9960 H   0  0  0  0  0  0
  -31.6989  -15.5094   23.5347 H   0  0  0  0  0  0
  -32.6038  -23.0419   23.8960 H   0  0  0  0  0  0
  -31.6243  -21.9342   24.8488 H   0  0  0  0  0  0
  -30.8375  -23.1036   23.7986 H   0  0  0  0  0  0
  -32.1749  -23.4941   20.0795 H   0  0  0  0  0  0
  -31.9319  -23.9704   21.7367 H   0  0  0  0  0  0
  -30.2483  -25.6365   21.2640 H   0  0  0  0  0  0
  -30.5660  -25.3978   19.5576 H   0  0  0  0  0  0
  -27.8039  -25.0341   20.8440 H   0  0  0  0  0  0
  -28.1671  -25.0103   19.1073 H   0  0  0  0  0  0
  -29.6594  -14.6165   22.3149 H   0  0  0  0  0  0
  -29.5659  -23.3595   21.4217 H   0  0  0  0  0  0
  -29.8561  -23.1041   19.8402 H   0  0  0  0  0  0
  1 25  1  0  0  0
  1 30  2  0  0  0
  1 85  1  0  0  0
  2  3  1  0  0  0
  2 25  1  0  0  0
  2 87  1  0  0  0
  2 88  1  0  0  0
  3  4  1  0  0  0
  3 89  1  0  0  0
  3 90  1  0  0  0
  4  5  1  0  0  0
  4 91  1  0  0  0
  4 92  1  0  0  0
  5  6  1  0  0  0
  5 26  1  0  0  0
  5 93  1  0  0  0
  6 25  1  0  0  0
  6 94  1  0  0  0
  6 95  1  0  0  0
  7  8  2  0  0  0
  7 26  1  0  0  0
  7 29  1  0  0  0
  8  9  1  0  0  0
  8 22  1  0  0  0
  9 10  1  0  0  0
  9 27  2  0  0  0
 10 11  2  0  0  0
 10 15  1  0  0  0
 11 12  1  0  0  0
 11 96  1  0  0  0
 12 13  2  0  0  0
 12 97  1  0  0  0
 13 14  1  0  0  0
 13 31  1  0  0  0
 14 15  2  0  0  0
 14 98  1  0  0  0
 15 99  1  0  0  0
 16 17  2  0  0  0
 16 21  1  0  0  0
 16 31  1  0  0  0
 17 18  1  0  0  0
 17100  1  0  0  0
 18 19  2  0  0  0
 18101  1  0  0  0
 19 20  1  0  0  0
 19 24  1  0  0  0
 20 21  2  0  0  0
 20102  1  0  0  0
 21 23  1  0  0  0
 22 28  1  0  0  0
 22 32  2  0  0  0
 26 27  1  0  0  0
 28103  1  0  0  0
 28104  1  0  0  0
 29105  1  0  0  0
 29106  1  0  0  0
 33 34  1  0  0  0
 33 66  1  0  0  0
 33 70  2  0  0  0
 34 36  1  0  0  0
 34 59  1  0  0  0
 34107  1  0  0  0
 35 44  2  0  0  0
 35 45  1  0  0  0
 35 68  1  0  0  0
 36 56  1  0  0  0
 36108  1  0  0  0
 37 39  1  0  0  0
 37 47  1  0  0  0
 37 66  1  0  0  0
 37109  1  0  0  0
 38 43  2  0  0  0
 38 46  1  0  0  0
 38 47  1  0  0  0
 39 64  1  0  0  0
 39 67  2  0  0  0
 40 52  1  0  0  0
 40 53  2  0  0  0
 40 58  1  0  0  0
 41110  1  0  0  0
 41111  1  0  0  0
 41112  1  0  0  0
 41 48  1  0  0  0
 42 43  1  0  0  0
 42 66  1  0  0  0
 42113  1  0  0  0
 42114  1  0  0  0
 43 44  1  0  0  0
 44115  1  0  0  0
 45 46  2  0  0  0
 45116  1  0  0  0
 46117  1  0  0  0
 47118  1  0  0  0
 47119  1  0  0  0
 48 56  1  0  0  0
 48 65  1  0  0  0
 48120  1  0  0  0
 49 50  1  0  0  0
 49 53  1  0  0  0
 49 64  1  0  0  0
 49121  1  0  0  0
 50 51  1  0  0  0
 50122  1  0  0  0
 50123  1  0  0  0
 51 52  1  0  0  0
 51124  1  0  0  0
 51125  1  0  0  0
 52126  1  0  0  0
 52127  1  0  0  0
 53 54  1  0  0  0
 54 55  2  0  0  0
 54128  1  0  0  0
 55 57  1  0  0  0
 55129  1  0  0  0
 56 69  2  0  0  0
 57 58  2  0  0  0
 57130  1  0  0  0
 58131  1  0  0  0
 59 60  1  0  0  0
 59 61  1  0  0  0
 59 62  1  0  0  0
 60132  1  0  0  0
 60133  1  0  0  0
 60134  1  0  0  0
 61135  1  0  0  0
 61136  1  0  0  0
 61137  1  0  0  0
 62138  1  0  0  0
 62139  1  0  0  0
 62140  1  0  0  0
 63 65  1  0  0  0
 63141  1  0  0  0
 63142  1  0  0  0
 63143  1  0  0  0
 64144  1  0  0  0
 65145  1  0  0  0
 68 82  1  0  0  0
 71 72  2  0  0  0
 71 73  1  0  0  0
 71146  1  0  0  0
 72 75  1  0  0  0
 72147  1  0  0  0
 73 74  2  0  0  0
 73 80  1  0  0  0
 74 79  1  0  0  0
 74 83  1  0  0  0
 75 83  2  0  0  0
 75 84  1  0  0  0
 76 78  1  0  0  0
 76 84  1  0  0  0
 76148  1  0  0  0
 76149  1  0  0  0
 77 78  1  0  0  0
 77 84  1  0  0  0
 77150  1  0  0  0
 77151  1  0  0  0
 78 85  1  0  0  0
 78152  1  0  0  0
 79153  1  0  0  0
 79154  1  0  0  0
 79155  1  0  0  0
 80 86  1  0  0  0
 80156  1  0  0  0
 80157  1  0  0  0
 81 82  1  0  0  0
 81 86  1  0  0  0
 81158  1  0  0  0
 81159  1  0  0  0
 82160  1  0  0  0
 82161  1  0  0  0
 85162  1  0  0  0
 86163  1  0  0  0
 86164  1  0  0  0
M  CHG  1  86   1
M  ISO  4   1 100  68 101  82 101  85 100
M  END
> <chiral flag>
0

> <version>
0

> <s_m_source_file>
/data/baiqing/PycharmProjects/Reinvent-master-3.2/result/LINK_invent/BTK/process_docking_weight1_custom_sum_contain_oxygen_bond_distance_aromatic_linkinvent_7_9_3/rearranged_h_0198.sdf

> <i_m_source_file_index>
88

> <r_mmod_Potential_Energy-OPLS-2005>
-422.333251953125

> <r_mmod_Stretch_Energy-OPLS-2005>
30.7653732299805

> <r_mmod_Bend_Energy-OPLS-2005>
133.40510559082

> <r_mmod_Torsional_Energy-OPLS-2005>
231.83967590332

> <r_mmod_Improper_Torsional_Energy-OPLS-2005>
10.6918821334839

> <r_mmod_Van_der_Waal_Energy-OPLS-2005>
170.232955932617

> <r_mmod_Electrostatic_Energy-OPLS-2005>
-513.581176757812

> <r_mmod_Solvation_Energy-OPLS-2005>
-494.331359863281

> <b_mmod_Minimization_Converged-OPLS-2005>
0

> <r_mmod_RMS_Derivative-OPLS-2005>
1.56192183494568

$$$$
88
                    3D
 Structure written by MMmdl.
161171  0  0  1  0            999 V2000
  -30.6447  -14.7848   20.6728 C   0  0  0  0  0  0
  -30.4408  -12.5303   19.5296 C   0  0  0  0  0  0
  -29.5278  -12.5703   18.2776 C   0  0  0  0  0  0
  -28.0556  -12.3492   18.6665 C   0  0  0  0  0  0
  -27.6506  -13.2285   19.8719 C   0  0  2  0  0  0
  -28.6676  -13.1308   21.0242 C   0  0  0  0  0  0
  -25.2491  -13.8176   20.5644 C   0  0  0  0  0  0
  -24.1796  -13.0469   20.9182 C   0  0  0  0  0  0
  -24.6379  -11.6916   20.8732 C   0  0  0  0  0  0
  -23.9077  -10.4310   21.0429 C   0  0  0  0  0  0
  -24.3646   -9.4204   21.9191 C   0  0  0  0  0  0
  -23.6318   -8.2246   22.0759 C   0  0  0  0  0  0
  -22.4297   -8.0303   21.3550 C   0  0  0  0  0  0
  -21.9943   -9.0276   20.4645 C   0  0  0  0  0  0
  -22.7277  -10.2143   20.3050 C   0  0  0  0  0  0
  -21.6837   -6.0744   22.5286 C   0  0  0  0  0  0
  -21.4016   -6.5649   23.8226 C   0  0  0  0  0  0
  -21.3653   -5.6799   24.9188 C   0  0  0  0  0  0
  -21.6032   -4.3060   24.7229 C   0  0  0  0  0  0
  -21.8812   -3.8156   23.4356 C   0  0  0  0  0  0
  -21.9195   -4.6972   22.3407 C   0  0  0  0  0  0
  -22.7794  -13.5219   21.1871 C   0  0  0  0  0  0
  -22.1646   -4.2161   21.0984 F   0  0  0  0  0  0
  -21.5638   -3.4541   25.7744 F   0  0  0  0  0  0
  -29.9864  -13.5583   20.5178 N   0  0  0  0  0  0
  -26.2947  -12.9396   20.3269 N   0  0  0  0  0  0
  -25.9306  -11.6531   20.5691 N   0  0  0  0  0  0
  -22.0459  -12.8223   22.0414 N   0  0  0  0  0  0
  -25.4200  -15.1917   20.4078 N   0  0  0  0  0  0
  -31.7363  -14.9181   20.1039 O   0  0  0  0  0  0
  -21.6636   -6.8911   21.4259 O   0  0  0  0  0  0
  -22.3465  -14.5541   20.6724 O   0  0  0  0  0  0
  -24.6345  -31.8428   23.1848 C   0  0  0  0  0  0
  -25.9141  -32.4670   23.8242 C   0  0  1  0  0  0
  -27.2622  -27.1989   20.1791 C   0  0  0  0  0  0
  -25.5904  -33.8476   24.2150 N   0  0  0  0  0  0
  -23.4380  -30.4560   21.5220 C   0  0  2  0  0  0
  -24.9000  -28.8792   20.1015 C   0  0  0  0  0  0
  -22.7521  -29.4530   22.4816 C   0  0  0  0  0  0
  -18.0289  -28.1394   22.8448 C   0  0  0  0  0  0
  -24.1491  -36.7290   23.2645 C   0  0  0  0  0  0
  -25.9804  -30.7436   21.3670 C   0  0  0  0  0  0
  -26.0604  -29.3540   20.7199 C   0  0  0  0  0  0
  -27.2335  -28.5264   20.7420 C   0  0  0  0  0  0
  -26.0849  -26.7976   19.5115 C   0  0  0  0  0  0
  -24.9222  -27.6136   19.4785 C   0  0  0  0  0  0
  -23.6624  -29.7658   20.1445 C   0  0  0  0  0  0
  -25.4117  -36.3012   24.0294 C   0  0  1  0  0  0
  -20.5891  -28.3714   23.1236 C   0  0  2  0  0  0
  -20.6750  -26.9412   22.5405 C   0  0  0  0  0  0
  -19.5734  -26.6371   21.5186 C   0  0  0  0  0  0
  -18.1925  -26.7928   22.1600 C   0  0  0  0  0  0
  -19.1543  -28.8866   23.2840 C   0  0  0  0  0  0
  -18.9466  -30.1461   23.8864 C   0  0  0  0  0  0
  -17.6471  -30.6587   24.0560 C   0  0  0  0  0  0
  -25.9049  -34.9383   23.5030 C   0  0  0  0  0  0
  -16.5359  -29.9088   23.6332 C   0  0  0  0  0  0
  -16.7278  -28.6514   23.0333 C   0  0  0  0  0  0
  -26.4499  -31.6531   25.0673 C   0  0  0  0  0  0
  -25.3722  -31.3727   26.1400 C   0  0  0  0  0  0
  -27.0352  -30.2925   24.6220 C   0  0  0  0  0  0
  -27.6027  -32.4285   25.7498 C   0  0  0  0  0  0
  -27.5564  -37.1798   24.8461 C   0  0  0  0  0  0
  -21.4217  -29.3044   22.3605 N   0  0  0  0  0  0
  -26.4293  -37.3715   23.9381 N   0  0  0  0  0  0
  -24.7019  -31.0360   22.0813 N   0  0  0  0  0  0
  -23.4187  -28.8093   23.2958 O   0  0  0  0  0  0
  -28.3823  -26.3342   20.3860 O   0  0  0  0  0  0
  -26.5658  -34.8888   22.4622 O   0  0  0  0  0  0
  -23.5487  -32.1264   23.7139 O   0  0  0  0  0  0
  -30.0864  -16.1764   23.8585 C   0  0  0  0  0  0
  -29.1033  -15.0424   23.7026 C   0  0  0  0  0  0
  -29.4343  -23.9043   20.9900 C   0  0  0  0  0  0
  -27.7646  -23.5893   19.8589 C   0  0  0  0  0  0
  -28.4351  -17.0662   22.0037 C   0  0  0  0  0  0
  -29.0275  -22.6354   20.1256 C   0  0  2  0  0  0
  -28.6723  -24.8828   19.9720 C   0  0  1  0  0  0
  -29.4452  -17.2783   20.8766 C   0  0  2  0  0  0
  -29.3160  -15.9793   22.5481 C   0  0  0  0  0  0
  -30.3027  -18.6681   20.9026 C   0  0  0  0  0  0
  -29.8260  -20.2225   21.3395 C   0  0  0  0  0  0
  -30.0683  -15.9073   21.3172 N   0  0  0  0  0  0
  -28.7882  -21.1568   20.6388 N   0  3  0  0  0  0
  -31.4773  -12.6867   19.2323 H   0  0  0  0  0  0
  -30.4296  -11.5331   19.9726 H   0  0  0  0  0  0
  -29.8416  -11.8250   17.5482 H   0  0  0  0  0  0
  -29.6391  -13.5344   17.7810 H   0  0  0  0  0  0
  -27.9262  -11.2942   18.9124 H   0  0  0  0  0  0
  -27.4057  -12.5503   17.8129 H   0  0  0  0  0  0
  -27.6672  -14.2607   19.5243 H   0  0  0  0  0  0
  -28.7131  -12.1100   21.4056 H   0  0  0  0  0  0
  -28.2873  -13.7211   21.8432 H   0  0  0  0  0  0
  -25.2791   -9.5642   22.4761 H   0  0  0  0  0  0
  -23.9987   -7.4619   22.7488 H   0  0  0  0  0  0
  -21.0867   -8.8837   19.8949 H   0  0  0  0  0  0
  -22.3780  -10.9704   19.6139 H   0  0  0  0  0  0
  -21.2002   -7.6156   23.9732 H   0  0  0  0  0  0
  -21.1467   -6.0527   25.9091 H   0  0  0  0  0  0
  -22.0595   -2.7610   23.2850 H   0  0  0  0  0  0
  -22.4084  -11.9858   22.4750 H   0  0  0  0  0  0
  -21.1052  -13.1221   22.2643 H   0  0  0  0  0  0
  -24.6549  -15.8473   20.5239 H   0  0  0  0  0  0
  -26.2747  -15.6294   20.0901 H   0  0  0  0  0  0
  -26.7223  -32.5300   23.1002 H   0  0  0  0  0  0
  -24.9994  -33.9576   25.0263 H   0  0  0  0  0  0
  -22.7384  -31.2775   21.3600 H   0  0  0  0  0  0
  -23.3692  -35.9695   23.3331 H   0  0  0  0  0  0
  -24.3585  -36.8915   22.2063 H   0  0  0  0  0  0
  -23.7328  -37.6520   23.6686 H   0  0  0  0  0  0
  -26.1166  -31.4956   20.5869 H   0  0  0  0  0  0
  -26.8594  -30.8092   21.9973 H   0  0  0  0  0  0
  -28.1134  -28.8858   21.2564 H   0  0  0  0  0  0
  -26.0410  -25.8161   19.0592 H   0  0  0  0  0  0
  -24.0350  -27.2423   18.9836 H   0  0  0  0  0  0
  -23.7850  -30.5301   19.3768 H   0  0  0  0  0  0
  -22.7848  -29.1883   19.8441 H   0  0  0  0  0  0
  -25.1311  -36.1838   25.0787 H   0  0  0  0  0  0
  -20.9994  -28.3309   24.1348 H   0  0  0  0  0  0
  -20.5575  -26.2328   23.3635 H   0  0  0  0  0  0
  -21.6636  -26.7360   22.1250 H   0  0  0  0  0  0
  -19.6902  -25.6270   21.1241 H   0  0  0  0  0  0
  -19.6694  -27.3156   20.6701 H   0  0  0  0  0  0
  -17.4187  -26.6639   21.4026 H   0  0  0  0  0  0
  -18.0351  -26.0094   22.9018 H   0  0  0  0  0  0
  -19.7950  -30.7271   24.2222 H   0  0  0  0  0  0
  -17.5030  -31.6258   24.5180 H   0  0  0  0  0  0
  -15.5359  -30.2981   23.7669 H   0  0  0  0  0  0
  -15.8673  -28.0829   22.7047 H   0  0  0  0  0  0
  -24.5935  -30.7008   25.7786 H   0  0  0  0  0  0
  -24.8860  -32.2913   26.4712 H   0  0  0  0  0  0
  -25.8075  -30.9017   27.0214 H   0  0  0  0  0  0
  -26.2956  -29.6625   24.1254 H   0  0  0  0  0  0
  -27.3997  -29.7225   25.4774 H   0  0  0  0  0  0
  -27.8835  -30.4174   23.9506 H   0  0  0  0  0  0
  -27.2584  -33.3598   26.2002 H   0  0  0  0  0  0
  -28.3912  -32.6828   25.0396 H   0  0  0  0  0  0
  -28.0639  -31.8445   26.5483 H   0  0  0  0  0  0
  -28.2589  -38.0076   24.7420 H   0  0  0  0  0  0
  -28.1033  -36.2586   24.6379 H   0  0  0  0  0  0
  -27.2269  -37.1579   25.8863 H   0  0  0  0  0  0
  -20.9407  -29.8790   21.6826 H   0  0  0  0  0  0
  -26.0147  -38.2788   24.1344 H   0  0  0  0  0  0
  -31.1076  -15.8237   24.0148 H   0  0  0  0  0  0
  -29.7921  -16.9951   24.5169 H   0  0  0  0  0  0
  -28.1329  -15.1368   24.1819 H   0  0  0  0  0  0
  -29.4906  -14.0293   23.6148 H   0  0  0  0  0  0
  -30.5071  -24.0881   21.0527 H   0  0  0  0  0  0
  -29.0041  -23.9109   21.9933 H   0  0  0  0  0  0
  -27.0049  -23.5380   20.6414 H   0  0  0  0  0  0
  -27.3068  -23.4559   18.8780 H   0  0  0  0  0  0
  -27.4934  -16.6881   21.6031 H   0  0  0  0  0  0
  -28.2207  -17.8999   22.6767 H   0  0  0  0  0  0
  -29.6715  -22.5808   19.2462 H   0  0  0  0  0  0
  -29.2685  -24.9655   19.0617 H   0  0  0  0  0  0
  -28.9480  -17.1720   19.9131 H   0  0  0  0  0  0
  -31.1027  -18.4620   21.6186 H   0  0  0  0  0  0
  -30.8428  -18.7376   19.9595 H   0  0  0  0  0  0
  -30.7511  -20.7984   21.3373 H   0  0  0  0  0  0
  -29.5492  -20.2049   22.3965 H   0  0  0  0  0  0
  -28.4499  -20.6354   19.8479 H   0  0  0  0  0  0
  -28.0058  -21.1924   21.2689 H   0  0  0  0  0  0
  1 25  1  0  0  0
  1 30  2  0  0  0
  1 82  1  0  0  0
  2  3  1  0  0  0
  2 25  1  0  0  0
  2 84  1  0  0  0
  2 85  1  0  0  0
  3  4  1  0  0  0
  3 86  1  0  0  0
  3 87  1  0  0  0
  4  5  1  0  0  0
  4 88  1  0  0  0
  4 89  1  0  0  0
  5  6  1  0  0  0
  5 26  1  0  0  0
  5 90  1  0  0  0
  6 25  1  0  0  0
  6 91  1  0  0  0
  6 92  1  0  0  0
  7  8  2  0  0  0
  7 26  1  0  0  0
  7 29  1  0  0  0
  8  9  1  0  0  0
  8 22  1  0  0  0
  9 10  1  0  0  0
  9 27  2  0  0  0
 10 11  2  0  0  0
 10 15  1  0  0  0
 11 12  1  0  0  0
 11 93  1  0  0  0
 12 13  2  0  0  0
 12 94  1  0  0  0
 13 14  1  0  0  0
 13 31  1  0  0  0
 14 15  2  0  0  0
 14 95  1  0  0  0
 15 96  1  0  0  0
 16 17  2  0  0  0
 16 21  1  0  0  0
 16 31  1  0  0  0
 17 18  1  0  0  0
 17 97  1  0  0  0
 18 19  2  0  0  0
 18 98  1  0  0  0
 19 20  1  0  0  0
 19 24  1  0  0  0
 20 21  2  0  0  0
 20 99  1  0  0  0
 21 23  1  0  0  0
 22 28  1  0  0  0
 22 32  2  0  0  0
 26 27  1  0  0  0
 28100  1  0  0  0
 28101  1  0  0  0
 29102  1  0  0  0
 29103  1  0  0  0
 33 34  1  0  0  0
 33 66  1  0  0  0
 33 70  2  0  0  0
 34 36  1  0  0  0
 34 59  1  0  0  0
 34104  1  0  0  0
 35 44  2  0  0  0
 35 45  1  0  0  0
 35 68  1  0  0  0
 36 56  1  0  0  0
 36105  1  0  0  0
 37 39  1  0  0  0
 37 47  1  0  0  0
 37 66  1  0  0  0
 37106  1  0  0  0
 38 43  2  0  0  0
 38 46  1  0  0  0
 38 47  1  0  0  0
 39 64  1  0  0  0
 39 67  2  0  0  0
 40 52  1  0  0  0
 40 53  2  0  0  0
 40 58  1  0  0  0
 41107  1  0  0  0
 41108  1  0  0  0
 41109  1  0  0  0
 41 48  1  0  0  0
 42 43  1  0  0  0
 42 66  1  0  0  0
 42110  1  0  0  0
 42111  1  0  0  0
 43 44  1  0  0  0
 44112  1  0  0  0
 45 46  2  0  0  0
 45113  1  0  0  0
 46114  1  0  0  0
 47115  1  0  0  0
 47116  1  0  0  0
 48 56  1  0  0  0
 48 65  1  0  0  0
 48117  1  0  0  0
 49 50  1  0  0  0
 49 53  1  0  0  0
 49 64  1  0  0  0
 49118  1  0  0  0
 50 51  1  0  0  0
 50119  1  0  0  0
 50120  1  0  0  0
 51 52  1  0  0  0
 51121  1  0  0  0
 51122  1  0  0  0
 52123  1  0  0  0
 52124  1  0  0  0
 53 54  1  0  0  0
 54 55  2  0  0  0
 54125  1  0  0  0
 55 57  1  0  0  0
 55126  1  0  0  0
 56 69  2  0  0  0
 57 58  2  0  0  0
 57127  1  0  0  0
 58128  1  0  0  0
 59 60  1  0  0  0
 59 61  1  0  0  0
 59 62  1  0  0  0
 60129  1  0  0  0
 60130  1  0  0  0
 60131  1  0  0  0
 61132  1  0  0  0
 61133  1  0  0  0
 61134  1  0  0  0
 62135  1  0  0  0
 62136  1  0  0  0
 62137  1  0  0  0
 63 65  1  0  0  0
 63138  1  0  0  0
 63139  1  0  0  0
 63140  1  0  0  0
 64141  1  0  0  0
 65142  1  0  0  0
 68 77  1  0  0  0
 71 72  1  0  0  0
 71143  1  0  0  0
 71144  1  0  0  0
 71 79  1  0  0  0
 72 79  1  0  0  0
 72145  1  0  0  0
 72146  1  0  0  0
 73 76  1  0  0  0
 73 77  1  0  0  0
 73147  1  0  0  0
 73148  1  0  0  0
 74 76  1  0  0  0
 74 77  1  0  0  0
 74149  1  0  0  0
 74150  1  0  0  0
 75 78  1  0  0  0
 75 79  1  0  0  0
 75151  1  0  0  0
 75152  1  0  0  0
 76 83  1  0  0  0
 76153  1  0  0  0
 77154  1  0  0  0
 78 80  1  0  0  0
 78 82  1  0  0  0
 78155  1  0  0  0
 79 82  1  0  0  0
 80 81  1  0  0  0
 80156  1  0  0  0
 80157  1  0  0  0
 81 83  1  0  0  0
 81158  1  0  0  0
 81159  1  0  0  0
 83160  1  0  0  0
 83161  1  0  0  0
M  CHG  1  83   1
M  ISO  4   1 100  68 101  77 101  82 100
M  END
> <chiral flag>
0

> <version>
0

> <s_m_source_file>
/data/baiqing/PycharmProjects/Reinvent-master-3.2/result/LINK_invent/BTK/process_docking_weight1_custom_sum_contain_oxygen_bond_distance_aromatic_linkinvent_7_9_3/rearranged_h_0198.sdf

> <i_m_source_file_index>
89

> <r_mmod_Potential_Energy-OPLS-2005>
863.686340332031

> <r_mmod_Stretch_Energy-OPLS-2005>
208.755310058594

> <r_mmod_Bend_Energy-OPLS-2005>
645.591430664062

> <r_mmod_Torsional_Energy-OPLS-2005>
458.419921875

> <r_mmod_Improper_Torsional_Energy-OPLS-2005>
5.43608856201172

> <r_mmod_Van_der_Waal_Energy-OPLS-2005>
106.210067749023

> <r_mmod_Electrostatic_Energy-OPLS-2005>
-186.448623657227

> <r_mmod_Solvation_Energy-OPLS-2005>
-492.363830566406

> <b_mmod_Minimization_Converged-OPLS-2005>
0

> <r_mmod_RMS_Derivative-OPLS-2005>
8.80142974853516

$$$$
89
                    3D
 Structure written by MMmdl.
164174  0  0  1  0            999 V2000
  -30.6670  -14.6234   20.5364 C   0  0  0  0  0  0
  -30.4223  -12.3977   19.4438 C   0  0  0  0  0  0
  -29.4963  -12.5242   18.2137 C   0  0  0  0  0  0
  -28.0129  -12.3901   18.6155 C   0  0  0  0  0  0
  -27.6498  -13.2281   19.8739 C   0  0  2  0  0  0
  -28.6996  -13.0493   20.9926 C   0  0  0  0  0  0
  -25.2505  -13.8186   20.5698 C   0  0  0  0  0  0
  -24.1793  -13.0411   20.9182 C   0  0  0  0  0  0
  -24.6419  -11.6887   20.8754 C   0  0  0  0  0  0
  -23.9126  -10.4261   21.0425 C   0  0  0  0  0  0
  -24.3670   -9.4160   21.9212 C   0  0  0  0  0  0
  -23.6330   -8.2203   22.0761 C   0  0  0  0  0  0
  -22.4299   -8.0267   21.3546 C   0  0  0  0  0  0
  -21.9962   -9.0241   20.4646 C   0  0  0  0  0  0
  -22.7307  -10.2117   20.3071 C   0  0  0  0  0  0
  -21.6828   -6.0743   22.5302 C   0  0  0  0  0  0
  -21.3991   -6.5648   23.8236 C   0  0  0  0  0  0
  -21.3670   -5.6804   24.9203 C   0  0  0  0  0  0
  -21.6043   -4.3071   24.7239 C   0  0  0  0  0  0
  -21.8810   -3.8160   23.4361 C   0  0  0  0  0  0
  -21.9169   -4.6971   22.3420 C   0  0  0  0  0  0
  -22.7815  -13.5186   21.1853 C   0  0  0  0  0  0
  -22.1626   -4.2172   21.0985 F   0  0  0  0  0  0
  -21.5674   -3.4551   25.7755 F   0  0  0  0  0  0
  -30.0006  -13.4231   20.4254 N   0  0  0  0  0  0
  -26.2979  -12.9405   20.3407 N   0  0  0  0  0  0
  -25.9353  -11.6537   20.5783 N   0  0  0  0  0  0
  -22.0476  -12.8156   22.0416 N   0  0  0  0  0  0
  -25.4157  -15.1910   20.4067 N   0  0  0  0  0  0
  -31.8284  -14.7117   20.1163 O   0  0  0  0  0  0
  -21.6620   -6.8877   21.4259 O   0  0  0  0  0  0
  -22.3480  -14.5481   20.6703 O   0  0  0  0  0  0
  -24.6272  -31.8602   23.2058 C   0  0  0  0  0  0
  -25.9132  -32.4758   23.8387 C   0  0  1  0  0  0
  -27.2342  -27.3433   20.1528 C   0  0  0  0  0  0
  -25.5991  -33.8562   24.2331 N   0  0  0  0  0  0
  -23.4170  -30.4827   21.5463 C   0  0  2  0  0  0
  -24.8658  -28.9276   20.1272 C   0  0  0  0  0  0
  -22.7448  -29.4658   22.4950 C   0  0  0  0  0  0
  -18.0272  -28.1380   22.8490 C   0  0  0  0  0  0
  -24.1487  -36.7267   23.2648 C   0  0  0  0  0  0
  -25.9533  -30.8034   21.3684 C   0  0  0  0  0  0
  -26.0301  -29.4276   20.7240 C   0  0  0  0  0  0
  -27.2193  -28.6476   20.7263 C   0  0  0  0  0  0
  -26.0506  -26.8747   19.5484 C   0  0  0  0  0  0
  -24.8739  -27.6521   19.5348 C   0  0  0  0  0  0
  -23.6349  -29.8098   20.1636 C   0  0  0  0  0  0
  -25.4104  -36.3055   24.0348 C   0  0  1  0  0  0
  -20.5876  -28.3694   23.1266 C   0  0  2  0  0  0
  -20.6764  -26.9412   22.5405 C   0  0  0  0  0  0
  -19.5733  -26.6384   21.5209 C   0  0  0  0  0  0
  -18.1905  -26.7939   22.1615 C   0  0  0  0  0  0
  -19.1532  -28.8837   23.2890 C   0  0  0  0  0  0
  -18.9472  -30.1448   23.8906 C   0  0  0  0  0  0
  -17.6477  -30.6590   24.0557 C   0  0  0  0  0  0
  -25.9049  -34.9434   23.5119 C   0  0  0  0  0  0
  -16.5351  -29.9087   23.6335 C   0  0  0  0  0  0
  -16.7264  -28.6498   23.0363 C   0  0  0  0  0  0
  -26.4571  -31.6552   25.0736 C   0  0  0  0  0  0
  -25.3848  -31.3627   26.1483 C   0  0  0  0  0  0
  -27.0433  -30.2976   24.6178 C   0  0  0  0  0  0
  -27.6128  -32.4287   25.7483 C   0  0  0  0  0  0
  -27.5578  -37.1770   24.8459 C   0  0  0  0  0  0
  -21.4156  -29.3054   22.3679 N   0  0  0  0  0  0
  -26.4250  -37.3773   23.9457 N   0  0  0  0  0  0
  -24.6842  -31.0647   22.0995 N   0  0  0  0  0  0
  -23.4150  -28.8198   23.3058 O   0  0  0  0  0  0
  -28.3692  -26.5418   20.0935 O   0  0  0  0  0  0
  -26.5573  -34.8901   22.4660 O   0  0  0  0  0  0
  -23.5443  -32.1391   23.7399 O   0  0  0  0  0  0
  -31.9113  -21.2742   20.6903 C   0  0  0  0  0  0
  -31.3995  -19.9713   20.8118 C   0  0  0  0  0  0
  -31.0468  -22.3530   20.4317 C   0  0  0  0  0  0
  -30.0176  -19.7433   20.6690 C   0  0  0  0  0  0
  -29.6635  -22.0900   20.3429 C   0  0  0  0  0  0
  -31.3988  -24.5337   18.9749 C   0  0  0  0  0  0
  -32.7684  -23.9733   19.2679 C   0  0  0  0  0  0
  -29.2368  -17.6854   22.1462 C   0  0  0  0  0  0
  -29.1882  -16.1404   21.9594 C   0  0  0  0  0  0
  -30.3245  -17.1009   20.1214 C   0  0  0  0  0  0
  -31.6279  -23.7284   20.2364 C   0  0  0  0  0  0
  -29.4734  -18.2645   20.7467 C   0  0  2  0  0  0
  -28.5319  -25.4523   21.0660 C   0  0  0  0  0  0
  -28.0605  -23.9600   20.7772 C   0  0  0  0  0  0
  -29.1636  -20.8073   20.4491 N   0  0  0  0  0  0
  -29.9460  -15.7900   20.7428 N   0  0  0  0  0  0
  -28.8214  -23.1080   19.8756 O   0  0  0  0  0  0
  -31.4662  -12.5045   19.1387 H   0  0  0  0  0  0
  -30.3534  -11.3948   19.8705 H   0  0  0  0  0  0
  -29.7468  -11.7674   17.4711 H   0  0  0  0  0  0
  -29.6660  -13.4872   17.7287 H   0  0  0  0  0  0
  -27.8058  -11.3333   18.7946 H   0  0  0  0  0  0
  -27.3756  -12.6824   17.7786 H   0  0  0  0  0  0
  -27.6698  -14.2753   19.5701 H   0  0  0  0  0  0
  -28.7173  -12.0090   21.3232 H   0  0  0  0  0  0
  -28.4522  -13.6272   21.8803 H   0  0  0  0  0  0
  -25.2798   -9.5625   22.4817 H   0  0  0  0  0  0
  -24.0035   -7.4567   22.7459 H   0  0  0  0  0  0
  -21.0916   -8.8752   19.8931 H   0  0  0  0  0  0
  -22.3772  -10.9667   19.6196 H   0  0  0  0  0  0
  -21.1974   -7.6150   23.9761 H   0  0  0  0  0  0
  -21.1519   -6.0529   25.9110 H   0  0  0  0  0  0
  -22.0595   -2.7629   23.2861 H   0  0  0  0  0  0
  -22.4094  -11.9818   22.4804 H   0  0  0  0  0  0
  -21.1083  -13.1157   22.2616 H   0  0  0  0  0  0
  -24.6459  -15.8442   20.5064 H   0  0  0  0  0  0
  -26.2771  -15.6334   20.1177 H   0  0  0  0  0  0
  -26.7209  -32.5416   23.1152 H   0  0  0  0  0  0
  -25.0280  -33.9734   25.0561 H   0  0  0  0  0  0
  -22.7111  -31.3024   21.3948 H   0  0  0  0  0  0
  -23.3769  -35.9568   23.3219 H   0  0  0  0  0  0
  -24.3616  -36.8970   22.2086 H   0  0  0  0  0  0
  -23.7182  -37.6420   23.6721 H   0  0  0  0  0  0
  -26.0747  -31.5609   20.5937 H   0  0  0  0  0  0
  -26.8377  -30.8588   21.9914 H   0  0  0  0  0  0
  -28.1218  -29.0420   21.1711 H   0  0  0  0  0  0
  -26.0387  -25.8922   19.0986 H   0  0  0  0  0  0
  -23.9774  -27.2562   19.0763 H   0  0  0  0  0  0
  -23.7624  -30.5839   19.4069 H   0  0  0  0  0  0
  -22.7546  -29.2429   19.8534 H   0  0  0  0  0  0
  -25.1265  -36.1894   25.0831 H   0  0  0  0  0  0
  -20.9966  -28.3281   24.1385 H   0  0  0  0  0  0
  -20.5653  -26.2321   23.3639 H   0  0  0  0  0  0
  -21.6628  -26.7440   22.1180 H   0  0  0  0  0  0
  -19.6894  -25.6295   21.1251 H   0  0  0  0  0  0
  -19.6663  -27.3188   20.6742 H   0  0  0  0  0  0
  -17.4197  -26.6732   21.3993 H   0  0  0  0  0  0
  -18.0262  -26.0046   22.8965 H   0  0  0  0  0  0
  -19.7947  -30.7273   24.2266 H   0  0  0  0  0  0
  -17.5022  -31.6259   24.5169 H   0  0  0  0  0  0
  -15.5361  -30.2997   23.7671 H   0  0  0  0  0  0
  -15.8655  -28.0825   22.7089 H   0  0  0  0  0  0
  -24.6049  -30.6950   25.7819 H   0  0  0  0  0  0
  -24.9042  -32.2766   26.4980 H   0  0  0  0  0  0
  -25.8261  -30.8773   27.0205 H   0  0  0  0  0  0
  -26.2998  -29.6615   24.1382 H   0  0  0  0  0  0
  -27.4330  -29.7335   25.4670 H   0  0  0  0  0  0
  -27.8768  -30.4237   23.9260 H   0  0  0  0  0  0
  -27.2784  -33.3640   26.1980 H   0  0  0  0  0  0
  -28.4008  -32.6765   25.0349 H   0  0  0  0  0  0
  -28.0742  -31.8461   26.5474 H   0  0  0  0  0  0
  -28.2512  -38.0153   24.7609 H   0  0  0  0  0  0
  -28.1181  -36.2693   24.6146 H   0  0  0  0  0  0
  -27.2331  -37.1198   25.8865 H   0  0  0  0  0  0
  -20.9364  -29.8803   21.6890 H   0  0  0  0  0  0
  -26.0121  -38.2825   24.1524 H   0  0  0  0  0  0
  -32.9769  -21.4414   20.7602 H   0  0  0  0  0  0
  -32.0916  -19.1617   20.9935 H   0  0  0  0  0  0
  -30.8145  -24.0740   18.1805 H   0  0  0  0  0  0
  -31.2831  -25.6130   19.0677 H   0  0  0  0  0  0
  -33.5365  -24.6883   19.5528 H   0  0  0  0  0  0
  -33.1108  -23.1562   18.6322 H   0  0  0  0  0  0
  -30.0770  -17.9430   22.7927 H   0  0  0  0  0  0
  -28.3382  -18.0850   22.6181 H   0  0  0  0  0  0
  -28.1496  -15.8331   21.8401 H   0  0  0  0  0  0
  -29.5886  -15.6253   22.8365 H   0  0  0  0  0  0
  -31.3840  -17.2545   20.3218 H   0  0  0  0  0  0
  -30.2112  -17.0753   19.0376 H   0  0  0  0  0  0
  -31.6612  -24.2651   21.1827 H   0  0  0  0  0  0
  -28.5094  -18.2643   20.2347 H   0  0  0  0  0  0
  -29.5832  -25.4324   21.3528 H   0  0  0  0  0  0
  -28.0171  -25.7728   21.9754 H   0  0  0  0  0  0
  -27.0348  -23.9862   20.4121 H   0  0  0  0  0  0
  -27.9962  -23.4357   21.7319 H   0  0  0  0  0  0
  1 25  1  0  0  0
  1 30  2  0  0  0
  1 86  1  0  0  0
  2  3  1  0  0  0
  2 25  1  0  0  0
  2 88  1  0  0  0
  2 89  1  0  0  0
  3  4  1  0  0  0
  3 90  1  0  0  0
  3 91  1  0  0  0
  4  5  1  0  0  0
  4 92  1  0  0  0
  4 93  1  0  0  0
  5  6  1  0  0  0
  5 26  1  0  0  0
  5 94  1  0  0  0
  6 25  1  0  0  0
  6 95  1  0  0  0
  6 96  1  0  0  0
  7  8  2  0  0  0
  7 26  1  0  0  0
  7 29  1  0  0  0
  8  9  1  0  0  0
  8 22  1  0  0  0
  9 10  1  0  0  0
  9 27  2  0  0  0
 10 11  2  0  0  0
 10 15  1  0  0  0
 11 12  1  0  0  0
 11 97  1  0  0  0
 12 13  2  0  0  0
 12 98  1  0  0  0
 13 14  1  0  0  0
 13 31  1  0  0  0
 14 15  2  0  0  0
 14 99  1  0  0  0
 15100  1  0  0  0
 16 17  2  0  0  0
 16 21  1  0  0  0
 16 31  1  0  0  0
 17 18  1  0  0  0
 17101  1  0  0  0
 18 19  2  0  0  0
 18102  1  0  0  0
 19 20  1  0  0  0
 19 24  1  0  0  0
 20 21  2  0  0  0
 20103  1  0  0  0
 21 23  1  0  0  0
 22 28  1  0  0  0
 22 32  2  0  0  0
 26 27  1  0  0  0
 28104  1  0  0  0
 28105  1  0  0  0
 29106  1  0  0  0
 29107  1  0  0  0
 33 34  1  0  0  0
 33 66  1  0  0  0
 33 70  2  0  0  0
 34 36  1  0  0  0
 34 59  1  0  0  0
 34108  1  0  0  0
 35 44  2  0  0  0
 35 45  1  0  0  0
 35 68  1  0  0  0
 36 56  1  0  0  0
 36109  1  0  0  0
 37 39  1  0  0  0
 37 47  1  0  0  0
 37 66  1  0  0  0
 37110  1  0  0  0
 38 43  2  0  0  0
 38 46  1  0  0  0
 38 47  1  0  0  0
 39 64  1  0  0  0
 39 67  2  0  0  0
 40 52  1  0  0  0
 40 53  2  0  0  0
 40 58  1  0  0  0
 41111  1  0  0  0
 41112  1  0  0  0
 41113  1  0  0  0
 41 48  1  0  0  0
 42 43  1  0  0  0
 42 66  1  0  0  0
 42114  1  0  0  0
 42115  1  0  0  0
 43 44  1  0  0  0
 44116  1  0  0  0
 45 46  2  0  0  0
 45117  1  0  0  0
 46118  1  0  0  0
 47119  1  0  0  0
 47120  1  0  0  0
 48 56  1  0  0  0
 48 65  1  0  0  0
 48121  1  0  0  0
 49 50  1  0  0  0
 49 53  1  0  0  0
 49 64  1  0  0  0
 49122  1  0  0  0
 50 51  1  0  0  0
 50123  1  0  0  0
 50124  1  0  0  0
 51 52  1  0  0  0
 51125  1  0  0  0
 51126  1  0  0  0
 52127  1  0  0  0
 52128  1  0  0  0
 53 54  1  0  0  0
 54 55  2  0  0  0
 54129  1  0  0  0
 55 57  1  0  0  0
 55130  1  0  0  0
 56 69  2  0  0  0
 57 58  2  0  0  0
 57131  1  0  0  0
 58132  1  0  0  0
 59 60  1  0  0  0
 59 61  1  0  0  0
 59 62  1  0  0  0
 60133  1  0  0  0
 60134  1  0  0  0
 60135  1  0  0  0
 61136  1  0  0  0
 61137  1  0  0  0
 61138  1  0  0  0
 62139  1  0  0  0
 62140  1  0  0  0
 62141  1  0  0  0
 63 65  1  0  0  0
 63142  1  0  0  0
 63143  1  0  0  0
 63144  1  0  0  0
 64145  1  0  0  0
 65146  1  0  0  0
 68 83  1  0  0  0
 71 72  2  0  0  0
 71 73  1  0  0  0
 71147  1  0  0  0
 72 74  1  0  0  0
 72148  1  0  0  0
 73 75  2  0  0  0
 73 81  1  0  0  0
 74 85  2  0  0  0
 74 82  1  0  0  0
 75 85  1  0  0  0
 75 87  1  0  0  0
 76 77  1  0  0  0
 76 81  1  0  0  0
 76149  1  0  0  0
 76150  1  0  0  0
 77 81  1  0  0  0
 77151  1  0  0  0
 77152  1  0  0  0
 78 79  1  0  0  0
 78 82  1  0  0  0
 78153  1  0  0  0
 78154  1  0  0  0
 79 86  1  0  0  0
 79155  1  0  0  0
 79156  1  0  0  0
 80 82  1  0  0  0
 80 86  1  0  0  0
 80157  1  0  0  0
 80158  1  0  0  0
 81159  1  0  0  0
 82160  1  0  0  0
 83 84  1  0  0  0
 83161  1  0  0  0
 83162  1  0  0  0
 84 87  1  0  0  0
 84163  1  0  0  0
 84164  1  0  0  0
M  ISO  4   1 100  68 101  83 101  86 100
M  END
> <chiral flag>
0

> <version>
0

> <s_m_source_file>
/data/baiqing/PycharmProjects/Reinvent-master-3.2/result/LINK_invent/BTK/process_docking_weight1_custom_sum_contain_oxygen_bond_distance_aromatic_linkinvent_7_9_3/rearranged_h_0198.sdf

> <i_m_source_file_index>
90

> <r_mmod_Potential_Energy-OPLS-2005>
159.632858276367

> <r_mmod_Stretch_Energy-OPLS-2005>
77.6163558959961

> <r_mmod_Bend_Energy-OPLS-2005>
180.670928955078

> <r_mmod_Torsional_Energy-OPLS-2005>
387.349700927734

> <r_mmod_Improper_Torsional_Energy-OPLS-2005>
14.2241020202637

> <r_mmod_Van_der_Waal_Energy-OPLS-2005>
127.480651855469

> <r_mmod_Electrostatic_Energy-OPLS-2005>
-452.949859619141

> <r_mmod_Solvation_Energy-OPLS-2005>
-211.262344360352

> <b_mmod_Minimization_Converged-OPLS-2005>
0

> <r_mmod_RMS_Derivative-OPLS-2005>
4.41139268875122

$$$$
90
                    3D
 Structure written by MMmdl.
151160  0  0  1  0            999 V2000
  -30.5920  -14.7921   20.4465 C   0  0  0  0  0  0
  -30.4370  -12.4837   19.4762 C   0  0  0  0  0  0
  -29.5128  -12.5083   18.2383 C   0  0  0  0  0  0
  -28.0405  -12.3229   18.6547 C   0  0  0  0  0  0
  -27.6391  -13.2326   19.8461 C   0  0  2  0  0  0
  -28.6848  -13.1881   20.9816 C   0  0  0  0  0  0
  -25.2503  -13.8194   20.5692 C   0  0  0  0  0  0
  -24.1801  -13.0438   20.9217 C   0  0  0  0  0  0
  -24.6392  -11.6917   20.8752 C   0  0  0  0  0  0
  -23.9069  -10.4293   21.0410 C   0  0  0  0  0  0
  -24.3620   -9.4207   21.9186 C   0  0  0  0  0  0
  -23.6295   -8.2242   22.0754 C   0  0  0  0  0  0
  -22.4277   -8.0281   21.3544 C   0  0  0  0  0  0
  -21.9914   -9.0255   20.4647 C   0  0  0  0  0  0
  -22.7242  -10.2135   20.3058 C   0  0  0  0  0  0
  -21.6854   -6.0735   22.5278 C   0  0  0  0  0  0
  -21.4013   -6.5639   23.8212 C   0  0  0  0  0  0
  -21.3659   -5.6791   24.9174 C   0  0  0  0  0  0
  -21.6044   -4.3054   24.7224 C   0  0  0  0  0  0
  -21.8819   -3.8147   23.4346 C   0  0  0  0  0  0
  -21.9192   -4.6963   22.3402 C   0  0  0  0  0  0
  -22.7822  -13.5220   21.1873 C   0  0  0  0  0  0
  -22.1662   -4.2148   21.0980 F   0  0  0  0  0  0
  -21.5629   -3.4537   25.7738 F   0  0  0  0  0  0
  -29.9797  -13.5549   20.3942 N   0  0  0  0  0  0
  -26.2925  -12.9401   20.3263 N   0  0  0  0  0  0
  -25.9321  -11.6544   20.5750 N   0  0  0  0  0  0
  -22.0465  -12.8210   22.0428 N   0  0  0  0  0  0
  -25.4178  -15.1920   20.4090 N   0  0  0  0  0  0
  -31.7889  -14.8747   20.1550 O   0  0  0  0  0  0
  -21.6640   -6.8878   21.4241 O   0  0  0  0  0  0
  -22.3505  -14.5523   20.6714 O   0  0  0  0  0  0
  -24.6352  -31.8522   23.1955 C   0  0  0  0  0  0
  -25.9161  -32.4737   23.8314 C   0  0  1  0  0  0
  -27.2182  -27.2279   20.1318 C   0  0  0  0  0  0
  -25.5940  -33.8539   24.2235 N   0  0  0  0  0  0
  -23.4332  -30.4746   21.5401 C   0  0  2  0  0  0
  -24.8798  -28.9167   20.1106 C   0  0  0  0  0  0
  -22.7521  -29.4590   22.4899 C   0  0  0  0  0  0
  -18.0294  -28.1391   22.8485 C   0  0  0  0  0  0
  -24.1487  -36.7270   23.2641 C   0  0  0  0  0  0
  -25.9825  -30.7554   21.3794 C   0  0  0  0  0  0
  -26.0546  -29.3755   20.7196 C   0  0  0  0  0  0
  -27.2268  -28.5461   20.7146 C   0  0  0  0  0  0
  -26.0159  -26.8455   19.4946 C   0  0  0  0  0  0
  -24.8679  -27.6614   19.4858 C   0  0  0  0  0  0
  -23.6527  -29.8080   20.1570 C   0  0  0  0  0  0
  -25.4117  -36.3056   24.0323 C   0  0  1  0  0  0
  -20.5902  -28.3705   23.1259 C   0  0  2  0  0  0
  -20.6781  -26.9418   22.5407 C   0  0  0  0  0  0
  -19.5754  -26.6386   21.5212 C   0  0  0  0  0  0
  -18.1936  -26.7932   22.1628 C   0  0  0  0  0  0
  -19.1550  -28.8866   23.2865 C   0  0  0  0  0  0
  -18.9470  -30.1465   23.8885 C   0  0  0  0  0  0
  -17.6468  -30.6590   24.0563 C   0  0  0  0  0  0
  -25.9064  -34.9429   23.5085 C   0  0  0  0  0  0
  -16.5359  -29.9086   23.6336 C   0  0  0  0  0  0
  -16.7280  -28.6504   23.0357 C   0  0  0  0  0  0
  -26.4514  -31.6575   25.0720 C   0  0  0  0  0  0
  -25.3724  -31.3741   26.1432 C   0  0  0  0  0  0
  -27.0366  -30.2984   24.6236 C   0  0  0  0  0  0
  -27.6059  -32.4326   25.7496 C   0  0  0  0  0  0
  -27.5575  -37.1791   24.8467 C   0  0  0  0  0  0
  -21.4224  -29.3045   22.3642 N   0  0  0  0  0  0
  -26.4287  -37.3760   23.9410 N   0  0  0  0  0  0
  -24.7031  -31.0460   22.0944 N   0  0  0  0  0  0
  -23.4203  -28.8133   23.3016 O   0  0  0  0  0  0
  -28.3037  -26.3096   20.1905 O   0  0  0  0  0  0
  -26.5640  -34.8913   22.4657 O   0  0  0  0  0  0
  -23.5494  -32.1359   23.7234 O   0  0  0  0  0  0
  -31.6735  -19.3133   20.7042 C   0  0  0  0  0  0
  -31.3861  -17.9173   20.6993 C   0  0  0  0  0  0
  -29.0284  -18.4273   20.4205 C   0  0  0  0  0  0
  -30.6409  -20.2701   20.5643 C   0  0  0  0  0  0
  -29.3260  -19.8542   20.4154 C   0  0  0  0  0  0
  -30.0639  -17.4048   20.5597 C   0  0  0  0  0  0
  -30.7378  -21.7685   20.5503 C   0  0  0  0  0  0
  -29.3862  -22.3934   20.3623 C   0  0  0  0  0  0
  -29.2416  -23.7910   20.2924 C   0  0  0  0  0  0
  -28.4319  -21.1426   20.2719 C   0  0  0  0  0  0
  -28.0465  -24.8165   20.0588 C   0  0  0  0  0  0
  -29.7887  -15.9281   20.5986 N   0  0  0  0  0  0
  -31.7968  -22.3921   20.6754 O   0  0  0  0  0  0
  -31.4755  -12.6189   19.1693 H   0  0  0  0  0  0
  -30.3959  -11.5126   19.9720 H   0  0  0  0  0  0
  -29.8035  -11.7279   17.5337 H   0  0  0  0  0  0
  -29.6288  -13.4562   17.7104 H   0  0  0  0  0  0
  -27.9084  -11.2761   18.9312 H   0  0  0  0  0  0
  -27.3803  -12.4970   17.8042 H   0  0  0  0  0  0
  -27.6256  -14.2487   19.4518 H   0  0  0  0  0  0
  -28.7329  -12.1944   21.4294 H   0  0  0  0  0  0
  -28.4124  -13.8735   21.7859 H   0  0  0  0  0  0
  -25.2766   -9.5680   22.4761 H   0  0  0  0  0  0
  -24.0003   -7.4631   22.7471 H   0  0  0  0  0  0
  -21.0845   -8.8773   19.8952 H   0  0  0  0  0  0
  -22.3699  -10.9673   19.6166 H   0  0  0  0  0  0
  -21.2005   -7.6147   23.9714 H   0  0  0  0  0  0
  -21.1481   -6.0522   25.9077 H   0  0  0  0  0  0
  -22.0599   -2.7609   23.2845 H   0  0  0  0  0  0
  -22.4086  -11.9876   22.4821 H   0  0  0  0  0  0
  -21.1080  -13.1230   22.2629 H   0  0  0  0  0  0
  -24.6440  -15.8398   20.5120 H   0  0  0  0  0  0
  -26.2525  -15.6309   20.0435 H   0  0  0  0  0  0
  -26.7225  -32.5372   23.1049 H   0  0  0  0  0  0
  -25.0071  -33.9669   25.0370 H   0  0  0  0  0  0
  -22.7319  -31.2985   21.3928 H   0  0  0  0  0  0
  -23.3754  -35.9598   23.3300 H   0  0  0  0  0  0
  -24.3574  -36.8900   22.2056 H   0  0  0  0  0  0
  -23.7238  -37.6467   23.6673 H   0  0  0  0  0  0
  -26.1273  -31.5156   20.6105 H   0  0  0  0  0  0
  -26.8578  -30.8027   22.0158 H   0  0  0  0  0  0
  -28.1258  -28.8936   21.2046 H   0  0  0  0  0  0
  -25.9272  -25.8866   19.0080 H   0  0  0  0  0  0
  -23.9684  -27.3048   19.0026 H   0  0  0  0  0  0
  -23.7809  -30.5842   19.4016 H   0  0  0  0  0  0
  -22.7696  -29.2446   19.8503 H   0  0  0  0  0  0
  -25.1302  -36.1894   25.0816 H   0  0  0  0  0  0
  -20.9998  -28.3284   24.1378 H   0  0  0  0  0  0
  -20.5681  -26.2314   23.3615 H   0  0  0  0  0  0
  -21.6648  -26.7437   22.1200 H   0  0  0  0  0  0
  -19.6913  -25.6296   21.1246 H   0  0  0  0  0  0
  -19.6689  -27.3195   20.6739 H   0  0  0  0  0  0
  -17.4206  -26.6677   21.4031 H   0  0  0  0  0  0
  -18.0338  -26.0078   22.9028 H   0  0  0  0  0  0
  -19.7944  -30.7286   24.2249 H   0  0  0  0  0  0
  -17.5022  -31.6268   24.5167 H   0  0  0  0  0  0
  -15.5359  -30.2984   23.7668 H   0  0  0  0  0  0
  -15.8681  -28.0820   22.7080 H   0  0  0  0  0  0
  -24.5895  -30.7097   25.7758 H   0  0  0  0  0  0
  -24.8923  -32.2918   26.4840 H   0  0  0  0  0  0
  -25.8029  -30.8925   27.0221 H   0  0  0  0  0  0
  -26.2959  -29.6720   24.1250 H   0  0  0  0  0  0
  -27.4020  -29.7263   25.4774 H   0  0  0  0  0  0
  -27.8849  -30.4246   23.9505 H   0  0  0  0  0  0
  -27.2664  -33.3641   26.2039 H   0  0  0  0  0  0
  -28.3887  -32.6863   25.0335 H   0  0  0  0  0  0
  -28.0706  -31.8472   26.5441 H   0  0  0  0  0  0
  -28.2594  -38.0087   24.7513 H   0  0  0  0  0  0
  -28.1069  -36.2617   24.6296 H   0  0  0  0  0  0
  -27.2292  -37.1443   25.8871 H   0  0  0  0  0  0
  -20.9418  -29.8760   21.6834 H   0  0  0  0  0  0
  -26.0159  -38.2830   24.1417 H   0  0  0  0  0  0
  -32.6951  -19.6478   20.8209 H   0  0  0  0  0  0
  -32.2178  -17.2392   20.8228 H   0  0  0  0  0  0
  -27.9981  -18.1177   20.3146 H   0  0  0  0  0  0
  -30.1681  -24.3399   20.3832 H   0  0  0  0  0  0
  -27.6884  -21.1784   21.0685 H   0  0  0  0  0  0
  -27.9106  -21.1359   19.3144 H   0  0  0  0  0  0
  -27.2307  -24.5332   20.7254 H   0  0  0  0  0  0
  -27.7003  -24.6237   19.0434 H   0  0  0  0  0  0
  -28.8156  -15.6926   20.7164 H   0  0  0  0  0  0
  1 25  1  0  0  0
  1 30  2  0  0  0
  1 82  1  0  0  0
  2  3  1  0  0  0
  2 25  1  0  0  0
  2 84  1  0  0  0
  2 85  1  0  0  0
  3  4  1  0  0  0
  3 86  1  0  0  0
  3 87  1  0  0  0
  4  5  1  0  0  0
  4 88  1  0  0  0
  4 89  1  0  0  0
  5  6  1  0  0  0
  5 26  1  0  0  0
  5 90  1  0  0  0
  6 25  1  0  0  0
  6 91  1  0  0  0
  6 92  1  0  0  0
  7  8  2  0  0  0
  7 26  1  0  0  0
  7 29  1  0  0  0
  8  9  1  0  0  0
  8 22  1  0  0  0
  9 10  1  0  0  0
  9 27  2  0  0  0
 10 11  2  0  0  0
 10 15  1  0  0  0
 11 12  1  0  0  0
 11 93  1  0  0  0
 12 13  2  0  0  0
 12 94  1  0  0  0
 13 14  1  0  0  0
 13 31  1  0  0  0
 14 15  2  0  0  0
 14 95  1  0  0  0
 15 96  1  0  0  0
 16 17  2  0  0  0
 16 21  1  0  0  0
 16 31  1  0  0  0
 17 18  1  0  0  0
 17 97  1  0  0  0
 18 19  2  0  0  0
 18 98  1  0  0  0
 19 20  1  0  0  0
 19 24  1  0  0  0
 20 21  2  0  0  0
 20 99  1  0  0  0
 21 23  1  0  0  0
 22 28  1  0  0  0
 22 32  2  0  0  0
 26 27  1  0  0  0
 28100  1  0  0  0
 28101  1  0  0  0
 29102  1  0  0  0
 29103  1  0  0  0
 33 34  1  0  0  0
 33 66  1  0  0  0
 33 70  2  0  0  0
 34 36  1  0  0  0
 34 59  1  0  0  0
 34104  1  0  0  0
 35 44  2  0  0  0
 35 45  1  0  0  0
 35 68  1  0  0  0
 36 56  1  0  0  0
 36105  1  0  0  0
 37 39  1  0  0  0
 37 47  1  0  0  0
 37 66  1  0  0  0
 37106  1  0  0  0
 38 43  2  0  0  0
 38 46  1  0  0  0
 38 47  1  0  0  0
 39 64  1  0  0  0
 39 67  2  0  0  0
 40 52  1  0  0  0
 40 53  2  0  0  0
 40 58  1  0  0  0
 41107  1  0  0  0
 41108  1  0  0  0
 41109  1  0  0  0
 41 48  1  0  0  0
 42 43  1  0  0  0
 42 66  1  0  0  0
 42110  1  0  0  0
 42111  1  0  0  0
 43 44  1  0  0  0
 44112  1  0  0  0
 45 46  2  0  0  0
 45113  1  0  0  0
 46114  1  0  0  0
 47115  1  0  0  0
 47116  1  0  0  0
 48 56  1  0  0  0
 48 65  1  0  0  0
 48117  1  0  0  0
 49 50  1  0  0  0
 49 53  1  0  0  0
 49 64  1  0  0  0
 49118  1  0  0  0
 50 51  1  0  0  0
 50119  1  0  0  0
 50120  1  0  0  0
 51 52  1  0  0  0
 51121  1  0  0  0
 51122  1  0  0  0
 52123  1  0  0  0
 52124  1  0  0  0
 53 54  1  0  0  0
 54 55  2  0  0  0
 54125  1  0  0  0
 55 57  1  0  0  0
 55126  1  0  0  0
 56 69  2  0  0  0
 57 58  2  0  0  0
 57127  1  0  0  0
 58128  1  0  0  0
 59 60  1  0  0  0
 59 61  1  0  0  0
 59 62  1  0  0  0
 60129  1  0  0  0
 60130  1  0  0  0
 60131  1  0  0  0
 61132  1  0  0  0
 61133  1  0  0  0
 61134  1  0  0  0
 62135  1  0  0  0
 62136  1  0  0  0
 62137  1  0  0  0
 63 65  1  0  0  0
 63138  1  0  0  0
 63139  1  0  0  0
 63140  1  0  0  0
 64141  1  0  0  0
 65142  1  0  0  0
 68 81  1  0  0  0
 71 72  2  0  0  0
 71 74  1  0  0  0
 71143  1  0  0  0
 72 76  1  0  0  0
 72144  1  0  0  0
 73 75  1  0  0  0
 73 76  2  0  0  0
 73145  1  0  0  0
 74 75  2  0  0  0
 74 77  1  0  0  0
 75 80  1  0  0  0
 76 82  1  0  0  0
 77 78  1  0  0  0
 77 83  2  0  0  0
 78 79  2  0  0  0
 78 80  1  0  0  0
 79 81  1  0  0  0
 79146  1  0  0  0
 80147  1  0  0  0
 80148  1  0  0  0
 81149  1  0  0  0
 81150  1  0  0  0
 82151  1  0  0  0
M  ISO  4   1 100  68 101  81 101  82 100
M  END
> <chiral flag>
0

> <version>
0

> <s_m_source_file>
/data/baiqing/PycharmProjects/Reinvent-master-3.2/result/LINK_invent/BTK/process_docking_weight1_custom_sum_contain_oxygen_bond_distance_aromatic_linkinvent_7_9_3/rearranged_h_0198.sdf

> <i_m_source_file_index>
91

> <r_mmod_Potential_Energy-OPLS-2005>
253.258804321289

> <r_mmod_Stretch_Energy-OPLS-2005>
137.957397460938

> <r_mmod_Bend_Energy-OPLS-2005>
222.179748535156

> <r_mmod_Torsional_Energy-OPLS-2005>
207.928146362305

> <r_mmod_Improper_Torsional_Energy-OPLS-2005>
5.31223011016846

> <r_mmod_Van_der_Waal_Energy-OPLS-2005>
135.869598388672

> <r_mmod_Electrostatic_Energy-OPLS-2005>
-342.996948242188

> <r_mmod_Solvation_Energy-OPLS-2005>
-220.013854980469

> <b_mmod_Minimization_Converged-OPLS-2005>
0

> <r_mmod_RMS_Derivative-OPLS-2005>
0.339850604534149

$$$$
91
                    3D
 Structure written by MMmdl.
159169  0  0  1  0            999 V2000
  -30.6055  -14.7879   20.4377 C   0  0  0  0  0  0
  -30.4294  -12.4765   19.4921 C   0  0  0  0  0  0
  -29.5154  -12.5111   18.2472 C   0  0  0  0  0  0
  -28.0410  -12.3320   18.6560 C   0  0  0  0  0  0
  -27.6389  -13.2395   19.8499 C   0  0  2  0  0  0
  -28.6807  -13.2002   20.9900 C   0  0  0  0  0  0
  -25.2487  -13.8209   20.5697 C   0  0  0  0  0  0
  -24.1791  -13.0441   20.9211 C   0  0  0  0  0  0
  -24.6395  -11.6925   20.8745 C   0  0  0  0  0  0
  -23.9077  -10.4293   21.0401 C   0  0  0  0  0  0
  -24.3625   -9.4208   21.9179 C   0  0  0  0  0  0
  -23.6296   -8.2244   22.0751 C   0  0  0  0  0  0
  -22.4277   -8.0283   21.3544 C   0  0  0  0  0  0
  -21.9916   -9.0256   20.4644 C   0  0  0  0  0  0
  -22.7248  -10.2133   20.3050 C   0  0  0  0  0  0
  -21.6856   -6.0736   22.5275 C   0  0  0  0  0  0
  -21.4017   -6.5639   23.8211 C   0  0  0  0  0  0
  -21.3661   -5.6792   24.9173 C   0  0  0  0  0  0
  -21.6044   -4.3053   24.7222 C   0  0  0  0  0  0
  -21.8820   -3.8145   23.4344 C   0  0  0  0  0  0
  -21.9193   -4.6963   22.3400 C   0  0  0  0  0  0
  -22.7810  -13.5213   21.1870 C   0  0  0  0  0  0
  -22.1661   -4.2149   21.0978 F   0  0  0  0  0  0
  -21.5630   -3.4537   25.7735 F   0  0  0  0  0  0
  -29.9799  -13.5563   20.4073 N   0  0  0  0  0  0
  -26.2923  -12.9434   20.3276 N   0  0  0  0  0  0
  -25.9328  -11.6569   20.5747 N   0  0  0  0  0  0
  -22.0461  -12.8202   22.0427 N   0  0  0  0  0  0
  -25.4161  -15.1936   20.4115 N   0  0  0  0  0  0
  -31.7923  -14.8608   20.1074 O   0  0  0  0  0  0
  -21.6642   -6.8879   21.4238 O   0  0  0  0  0  0
  -22.3488  -14.5513   20.6710 O   0  0  0  0  0  0
  -24.6345  -31.8518   23.1948 C   0  0  0  0  0  0
  -25.9153  -32.4736   23.8312 C   0  0  1  0  0  0
  -27.2172  -27.2252   20.1412 C   0  0  0  0  0  0
  -25.5938  -33.8539   24.2235 N   0  0  0  0  0  0
  -23.4334  -30.4733   21.5387 C   0  0  2  0  0  0
  -24.8827  -28.9160   20.1082 C   0  0  0  0  0  0
  -22.7527  -29.4579   22.4888 C   0  0  0  0  0  0
  -18.0296  -28.1390   22.8486 C   0  0  0  0  0  0
  -24.1490  -36.7272   23.2642 C   0  0  0  0  0  0
  -25.9824  -30.7538   21.3811 C   0  0  0  0  0  0
  -26.0555  -29.3734   20.7232 C   0  0  0  0  0  0
  -27.2264  -28.5418   20.7263 C   0  0  0  0  0  0
  -26.0275  -26.8542   19.4766 C   0  0  0  0  0  0
  -24.8766  -27.6667   19.4704 C   0  0  0  0  0  0
  -23.6550  -29.8070   20.1551 C   0  0  0  0  0  0
  -25.4119  -36.3059   24.0322 C   0  0  1  0  0  0
  -20.5903  -28.3703   23.1260 C   0  0  2  0  0  0
  -20.6783  -26.9418   22.5405 C   0  0  0  0  0  0
  -19.5757  -26.6383   21.5211 C   0  0  0  0  0  0
  -18.1937  -26.7932   22.1623 C   0  0  0  0  0  0
  -19.1552  -28.8866   23.2867 C   0  0  0  0  0  0
  -18.9471  -30.1468   23.8884 C   0  0  0  0  0  0
  -17.6468  -30.6591   24.0562 C   0  0  0  0  0  0
  -25.9062  -34.9430   23.5082 C   0  0  0  0  0  0
  -16.5361  -29.9087   23.6330 C   0  0  0  0  0  0
  -16.7283  -28.6502   23.0355 C   0  0  0  0  0  0
  -26.4507  -31.6575   25.0721 C   0  0  0  0  0  0
  -25.3717  -31.3735   26.1432 C   0  0  0  0  0  0
  -27.0360  -30.2985   24.6236 C   0  0  0  0  0  0
  -27.6055  -32.4323   25.7499 C   0  0  0  0  0  0
  -27.5576  -37.1793   24.8469 C   0  0  0  0  0  0
  -21.4227  -29.3041   22.3643 N   0  0  0  0  0  0
  -26.4288  -37.3766   23.9411 N   0  0  0  0  0  0
  -24.7026  -31.0457   22.0938 N   0  0  0  0  0  0
  -23.4212  -28.8123   23.3006 O   0  0  0  0  0  0
  -28.2864  -26.2890   20.2127 O   0  0  0  0  0  0
  -26.5642  -34.8910   22.4657 O   0  0  0  0  0  0
  -23.5484  -32.1353   23.7214 O   0  0  0  0  0  0
  -29.4064  -20.0480   19.8590 C   0  0  0  0  0  0
  -29.5936  -18.7616   20.5669 C   0  0  0  0  0  0
  -28.9028  -21.0879   20.6651 C   0  0  0  0  0  0
  -29.1900  -19.1048   21.8275 C   0  0  0  0  0  0
  -29.0589  -18.4746   23.1632 C   0  0  0  0  0  0
  -28.4919  -19.5976   24.0636 C   0  0  0  0  0  0
  -28.4432  -23.6681   19.3632 C   0  0  0  0  0  0
  -28.7138  -23.8680   21.3840 C   0  0  0  0  0  0
  -28.3731  -20.8690   23.1879 C   0  0  0  0  0  0
  -28.3520  -22.5916   20.5210 C   0  0  1  0  0  0
  -27.9680  -24.8054   20.3593 C   0  0  1  0  0  0
  -30.1959  -17.3559   20.0543 C   0  0  0  0  0  0
  -28.8089  -20.4287   21.8864 N   0  0  0  0  0  0
  -29.8515  -15.9534   20.5923 N   0  0  0  0  0  0
  -31.4732  -12.5917   19.1947 H   0  0  0  0  0  0
  -30.3694  -11.5073   19.9894 H   0  0  0  0  0  0
  -29.8063  -11.7312   17.5423 H   0  0  0  0  0  0
  -29.6408  -13.4605   17.7239 H   0  0  0  0  0  0
  -27.9015  -11.2842   18.9256 H   0  0  0  0  0  0
  -27.3865  -12.5159   17.8032 H   0  0  0  0  0  0
  -27.6257  -14.2566   19.4574 H   0  0  0  0  0  0
  -28.7219  -12.2105   21.4474 H   0  0  0  0  0  0
  -28.4087  -13.8964   21.7853 H   0  0  0  0  0  0
  -25.2771   -9.5684   22.4754 H   0  0  0  0  0  0
  -24.0006   -7.4636   22.7470 H   0  0  0  0  0  0
  -21.0851   -8.8775   19.8946 H   0  0  0  0  0  0
  -22.3707  -10.9672   19.6157 H   0  0  0  0  0  0
  -21.2011   -7.6148   23.9715 H   0  0  0  0  0  0
  -21.1482   -6.0521   25.9078 H   0  0  0  0  0  0
  -22.0598   -2.7607   23.2842 H   0  0  0  0  0  0
  -22.4089  -11.9873   22.4822 H   0  0  0  0  0  0
  -21.1070  -13.1207   22.2618 H   0  0  0  0  0  0
  -24.6467  -15.8452   20.5215 H   0  0  0  0  0  0
  -26.2603  -15.6353   20.0704 H   0  0  0  0  0  0
  -26.7220  -32.5376   23.1049 H   0  0  0  0  0  0
  -25.0087  -33.9673   25.0383 H   0  0  0  0  0  0
  -22.7312  -31.2961   21.3895 H   0  0  0  0  0  0
  -23.3754  -35.9603   23.3304 H   0  0  0  0  0  0
  -24.3578  -36.8901   22.2057 H   0  0  0  0  0  0
  -23.7237  -37.6469   23.6673 H   0  0  0  0  0  0
  -26.1286  -31.5123   20.6113 H   0  0  0  0  0  0
  -26.8566  -30.8021   22.0184 H   0  0  0  0  0  0
  -28.1204  -28.8834   21.2290 H   0  0  0  0  0  0
  -25.9657  -25.9026   18.9688 H   0  0  0  0  0  0
  -23.9835  -27.3155   18.9720 H   0  0  0  0  0  0
  -23.7824  -30.5827   19.3992 H   0  0  0  0  0  0
  -22.7730  -29.2425   19.8476 H   0  0  0  0  0  0
  -25.1301  -36.1903   25.0813 H   0  0  0  0  0  0
  -20.9998  -28.3282   24.1381 H   0  0  0  0  0  0
  -20.5681  -26.2310   23.3612 H   0  0  0  0  0  0
  -21.6651  -26.7433   22.1203 H   0  0  0  0  0  0
  -19.6916  -25.6290   21.1249 H   0  0  0  0  0  0
  -19.6697  -27.3188   20.6741 H   0  0  0  0  0  0
  -17.4207  -26.6682   21.4028 H   0  0  0  0  0  0
  -18.0337  -26.0078   22.9021 H   0  0  0  0  0  0
  -19.7949  -30.7288   24.2245 H   0  0  0  0  0  0
  -17.5024  -31.6270   24.5167 H   0  0  0  0  0  0
  -15.5363  -30.2981   23.7665 H   0  0  0  0  0  0
  -15.8682  -28.0815   22.7077 H   0  0  0  0  0  0
  -24.5903  -30.7073   25.7759 H   0  0  0  0  0  0
  -24.8894  -32.2906   26.4829 H   0  0  0  0  0  0
  -25.8022  -30.8934   27.0229 H   0  0  0  0  0  0
  -26.2957  -29.6730   24.1233 H   0  0  0  0  0  0
  -27.4006  -29.7257   25.4774 H   0  0  0  0  0  0
  -27.8853  -30.4255   23.9515 H   0  0  0  0  0  0
  -27.2662  -33.3632   26.2053 H   0  0  0  0  0  0
  -28.3879  -32.6867   25.0337 H   0  0  0  0  0  0
  -28.0709  -31.8460   26.5437 H   0  0  0  0  0  0
  -28.2593  -38.0091   24.7508 H   0  0  0  0  0  0
  -28.1070  -36.2617   24.6303 H   0  0  0  0  0  0
  -27.2291  -37.1454   25.8871 H   0  0  0  0  0  0
  -20.9418  -29.8765   21.6844 H   0  0  0  0  0  0
  -26.0162  -38.2839   24.1409 H   0  0  0  0  0  0
  -29.6101  -20.1884   18.8058 H   0  0  0  0  0  0
  -30.0284  -18.1276   23.5224 H   0  0  0  0  0  0
  -28.3876  -17.6159   23.1250 H   0  0  0  0  0  0
  -29.1400  -19.7733   24.9231 H   0  0  0  0  0  0
  -27.5134  -19.3143   24.4517 H   0  0  0  0  0  0
  -27.7579  -23.4901   18.5344 H   0  0  0  0  0  0
  -29.4605  -23.8141   18.9931 H   0  0  0  0  0  0
  -29.7881  -24.0555   21.4393 H   0  0  0  0  0  0
  -28.2762  -23.8701   22.3825 H   0  0  0  0  0  0
  -29.0276  -21.6670   23.5393 H   0  0  0  0  0  0
  -27.3494  -21.2409   23.1313 H   0  0  0  0  0  0
  -27.2798  -22.4401   20.6664 H   0  0  0  0  0  0
  -26.9019  -24.6900   20.5629 H   0  0  0  0  0  0
  -31.2790  -17.4653   20.1281 H   0  0  0  0  0  0
  -29.9963  -17.3185   18.9830 H   0  0  0  0  0  0
  -28.8912  -15.8170   20.8683 H   0  0  0  0  0  0
  1 25  1  0  0  0
  1 30  2  0  0  0
  1 84  1  0  0  0
  2  3  1  0  0  0
  2 25  1  0  0  0
  2 85  1  0  0  0
  2 86  1  0  0  0
  3  4  1  0  0  0
  3 87  1  0  0  0
  3 88  1  0  0  0
  4  5  1  0  0  0
  4 89  1  0  0  0
  4 90  1  0  0  0
  5  6  1  0  0  0
  5 26  1  0  0  0
  5 91  1  0  0  0
  6 25  1  0  0  0
  6 92  1  0  0  0
  6 93  1  0  0  0
  7  8  2  0  0  0
  7 26  1  0  0  0
  7 29  1  0  0  0
  8  9  1  0  0  0
  8 22  1  0  0  0
  9 10  1  0  0  0
  9 27  2  0  0  0
 10 11  2  0  0  0
 10 15  1  0  0  0
 11 12  1  0  0  0
 11 94  1  0  0  0
 12 13  2  0  0  0
 12 95  1  0  0  0
 13 14  1  0  0  0
 13 31  1  0  0  0
 14 15  2  0  0  0
 14 96  1  0  0  0
 15 97  1  0  0  0
 16 17  2  0  0  0
 16 21  1  0  0  0
 16 31  1  0  0  0
 17 18  1  0  0  0
 17 98  1  0  0  0
 18 19  2  0  0  0
 18 99  1  0  0  0
 19 20  1  0  0  0
 19 24  1  0  0  0
 20 21  2  0  0  0
 20100  1  0  0  0
 21 23  1  0  0  0
 22 28  1  0  0  0
 22 32  2  0  0  0
 26 27  1  0  0  0
 28101  1  0  0  0
 28102  1  0  0  0
 29103  1  0  0  0
 29104  1  0  0  0
 33 34  1  0  0  0
 33 66  1  0  0  0
 33 70  2  0  0  0
 34 36  1  0  0  0
 34 59  1  0  0  0
 34105  1  0  0  0
 35 44  2  0  0  0
 35 45  1  0  0  0
 35 68  1  0  0  0
 36 56  1  0  0  0
 36106  1  0  0  0
 37 39  1  0  0  0
 37 47  1  0  0  0
 37 66  1  0  0  0
 37107  1  0  0  0
 38 43  2  0  0  0
 38 46  1  0  0  0
 38 47  1  0  0  0
 39 64  1  0  0  0
 39 67  2  0  0  0
 40 52  1  0  0  0
 40 53  2  0  0  0
 40 58  1  0  0  0
 41108  1  0  0  0
 41109  1  0  0  0
 41110  1  0  0  0
 41 48  1  0  0  0
 42 43  1  0  0  0
 42 66  1  0  0  0
 42111  1  0  0  0
 42112  1  0  0  0
 43 44  1  0  0  0
 44113  1  0  0  0
 45 46  2  0  0  0
 45114  1  0  0  0
 46115  1  0  0  0
 47116  1  0  0  0
 47117  1  0  0  0
 48 56  1  0  0  0
 48 65  1  0  0  0
 48118  1  0  0  0
 49 50  1  0  0  0
 49 53  1  0  0  0
 49 64  1  0  0  0
 49119  1  0  0  0
 50 51  1  0  0  0
 50120  1  0  0  0
 50121  1  0  0  0
 51 52  1  0  0  0
 51122  1  0  0  0
 51123  1  0  0  0
 52124  1  0  0  0
 52125  1  0  0  0
 53 54  1  0  0  0
 54 55  2  0  0  0
 54126  1  0  0  0
 55 57  1  0  0  0
 55127  1  0  0  0
 56 69  2  0  0  0
 57 58  2  0  0  0
 57128  1  0  0  0
 58129  1  0  0  0
 59 60  1  0  0  0
 59 61  1  0  0  0
 59 62  1  0  0  0
 60130  1  0  0  0
 60131  1  0  0  0
 60132  1  0  0  0
 61133  1  0  0  0
 61134  1  0  0  0
 61135  1  0  0  0
 62136  1  0  0  0
 62137  1  0  0  0
 62138  1  0  0  0
 63 65  1  0  0  0
 63139  1  0  0  0
 63140  1  0  0  0
 63141  1  0  0  0
 64142  1  0  0  0
 65143  1  0  0  0
 68 81  1  0  0  0
 71 72  1  0  0  0
 71 73  2  0  0  0
 71144  1  0  0  0
 72 74  2  0  0  0
 72 82  1  0  0  0
 73 83  1  0  0  0
 73 80  1  0  0  0
 74 75  1  0  0  0
 74 83  1  0  0  0
 75 76  1  0  0  0
 75145  1  0  0  0
 75146  1  0  0  0
 76 79  1  0  0  0
 76147  1  0  0  0
 76148  1  0  0  0
 77 80  1  0  0  0
 77 81  1  0  0  0
 77149  1  0  0  0
 77150  1  0  0  0
 78 80  1  0  0  0
 78 81  1  0  0  0
 78151  1  0  0  0
 78152  1  0  0  0
 79 83  1  0  0  0
 79153  1  0  0  0
 79154  1  0  0  0
 80155  1  0  0  0
 81156  1  0  0  0
 82 84  1  0  0  0
 82157  1  0  0  0
 82158  1  0  0  0
 84159  1  0  0  0
M  ISO  4   1 100  68 101  81 101  84 100
M  END
> <chiral flag>
0

> <version>
0

> <s_m_source_file>
/data/baiqing/PycharmProjects/Reinvent-master-3.2/result/LINK_invent/BTK/process_docking_weight1_custom_sum_contain_oxygen_bond_distance_aromatic_linkinvent_7_9_3/rearranged_h_0198.sdf

> <i_m_source_file_index>
92

> <r_mmod_Potential_Energy-OPLS-2005>
239.853805541992

> <r_mmod_Stretch_Energy-OPLS-2005>
140.580276489258

> <r_mmod_Bend_Energy-OPLS-2005>
271.762969970703

> <r_mmod_Torsional_Energy-OPLS-2005>
259.750274658203

> <r_mmod_Improper_Torsional_Energy-OPLS-2005>
7.20785474777222

> <r_mmod_Van_der_Waal_Energy-OPLS-2005>
113.125221252441

> <r_mmod_Electrostatic_Energy-OPLS-2005>
-445.653686523438

> <r_mmod_Solvation_Energy-OPLS-2005>
-216.074432373047

> <b_mmod_Minimization_Converged-OPLS-2005>
0

> <r_mmod_RMS_Derivative-OPLS-2005>
0.780249655246735

$$$$
92
                    3D
 Structure written by MMmdl.
173183  0  0  1  0            999 V2000
  -30.7219  -14.4711   20.5959 C   0  0  0  0  0  0
  -30.4218  -12.3198   19.4231 C   0  0  0  0  0  0
  -29.4949  -12.5142   18.2049 C   0  0  0  0  0  0
  -28.0137  -12.3744   18.6108 C   0  0  0  0  0  0
  -27.6608  -13.2076   19.8691 C   0  0  2  0  0  0
  -28.6994  -13.0034   20.9967 C   0  0  0  0  0  0
  -25.2588  -13.8162   20.5642 C   0  0  0  0  0  0
  -24.1820  -13.0468   20.9165 C   0  0  0  0  0  0
  -24.6359  -11.6924   20.8710 C   0  0  0  0  0  0
  -23.9046  -10.4312   21.0335 C   0  0  0  0  0  0
  -24.3593   -9.4226   21.9111 C   0  0  0  0  0  0
  -23.6317   -8.2243   22.0720 C   0  0  0  0  0  0
  -22.4301   -8.0270   21.3526 C   0  0  0  0  0  0
  -21.9910   -9.0221   20.4628 C   0  0  0  0  0  0
  -22.7204  -10.2127   20.3006 C   0  0  0  0  0  0
  -21.6862   -6.0736   22.5274 C   0  0  0  0  0  0
  -21.3999   -6.5642   23.8201 C   0  0  0  0  0  0
  -21.3668   -5.6782   24.9163 C   0  0  0  0  0  0
  -21.6068   -4.3051   24.7191 C   0  0  0  0  0  0
  -21.8824   -3.8150   23.4318 C   0  0  0  0  0  0
  -21.9199   -4.6961   22.3382 C   0  0  0  0  0  0
  -22.7838  -13.5260   21.1862 C   0  0  0  0  0  0
  -22.1666   -4.2143   21.0955 F   0  0  0  0  0  0
  -21.5645   -3.4549   25.7710 F   0  0  0  0  0  0
  -30.0352  -13.3050   20.4476 N   0  0  0  0  0  0
  -26.3005  -12.9324   20.3314 N   0  0  0  0  0  0
  -25.9286  -11.6488   20.5729 N   0  0  0  0  0  0
  -22.0494  -12.8230   22.0411 N   0  0  0  0  0  0
  -25.4397  -15.1839   20.3979 N   0  0  0  0  0  0
  -31.8354  -14.6572   20.0954 O   0  0  0  0  0  0
  -21.6669   -6.8866   21.4238 O   0  0  0  0  0  0
  -22.3512  -14.5583   20.6746 O   0  0  0  0  0  0
  -24.6088  -31.8702   23.2130 C   0  0  0  0  0  0
  -25.9003  -32.4840   23.8415 C   0  0  1  0  0  0
  -27.2448  -27.4833   20.0824 C   0  0  0  0  0  0
  -25.5874  -33.8635   24.2347 N   0  0  0  0  0  0
  -23.3950  -30.4937   21.5515 C   0  0  2  0  0  0
  -24.8466  -28.9609   20.1166 C   0  0  0  0  0  0
  -22.7381  -29.4666   22.5007 C   0  0  0  0  0  0
  -18.0260  -28.1384   22.8489 C   0  0  0  0  0  0
  -24.1476  -36.7309   23.2642 C   0  0  0  0  0  0
  -25.9183  -30.8508   21.3575 C   0  0  0  0  0  0
  -26.0027  -29.4852   20.7111 C   0  0  0  0  0  0
  -27.2052  -28.7495   20.6994 C   0  0  0  0  0  0
  -26.0769  -26.9504   19.5027 C   0  0  0  0  0  0
  -24.8758  -27.6880   19.5151 C   0  0  0  0  0  0
  -23.6043  -29.8217   20.1667 C   0  0  0  0  0  0
  -25.4095  -36.3118   24.0348 C   0  0  1  0  0  0
  -20.5845  -28.3652   23.1338 C   0  0  2  0  0  0
  -20.6748  -26.9394   22.5435 C   0  0  0  0  0  0
  -19.5740  -26.6390   21.5219 C   0  0  0  0  0  0
  -18.1908  -26.7947   22.1611 C   0  0  0  0  0  0
  -19.1512  -28.8829   23.2916 C   0  0  0  0  0  0
  -18.9444  -30.1438   23.8919 C   0  0  0  0  0  0
  -17.6450  -30.6593   24.0574 C   0  0  0  0  0  0
  -25.9023  -34.9482   23.5146 C   0  0  0  0  0  0
  -16.5333  -29.9098   23.6329 C   0  0  0  0  0  0
  -16.7250  -28.6518   23.0335 C   0  0  0  0  0  0
  -26.4464  -31.6600   25.0717 C   0  0  0  0  0  0
  -25.3766  -31.3682   26.1496 C   0  0  0  0  0  0
  -27.0278  -30.3052   24.6029 C   0  0  0  0  0  0
  -27.6060  -32.4315   25.7450 C   0  0  0  0  0  0
  -27.5578  -37.1801   24.8466 C   0  0  0  0  0  0
  -21.4115  -29.3027   22.3741 N   0  0  0  0  0  0
  -26.4279  -37.3798   23.9429 N   0  0  0  0  0  0
  -24.6592  -31.0855   22.0999 N   0  0  0  0  0  0
  -23.4188  -28.8208   23.3025 O   0  0  0  0  0  0
  -28.4026  -26.7506   20.0706 O   0  0  0  0  0  0
  -26.5580  -34.8926   22.4699 O   0  0  0  0  0  0
  -23.5310  -32.1411   23.7564 O   0  0  0  0  0  0
  -30.7302  -20.9348   18.0574 C   0  0  0  0  0  0
  -31.1023  -21.4715   19.2682 C   0  0  0  0  0  0
  -30.9549  -19.2477   19.4736 C   0  0  0  0  0  0
  -31.3356  -23.2409   21.1317 C   0  0  0  0  0  0
  -29.2391  -16.4402   20.6013 C   0  0  0  0  0  0
  -30.8372  -16.5371   21.9742 C   0  0  0  0  0  0
  -31.3749  -24.7696   21.0964 C   0  0  0  0  0  0
  -30.6288  -24.0123   18.9525 C   0  0  0  0  0  0
  -31.4444  -22.8968   19.6510 C   0  0  2  0  0  0
  -30.2029  -17.5482   21.0210 C   0  0  0  0  0  0
  -31.3574  -27.5506   20.3358 C   0  0  0  0  0  0
  -30.3478  -18.5881   17.1642 C   0  0  0  0  0  0
  -29.2781  -27.0453   18.9853 C   0  0  0  0  0  0
  -30.6861  -26.5392   19.3691 C   0  0  2  0  0  0
  -30.6673  -19.5707   18.2059 N   0  0  0  0  0  0
  -31.2069  -20.3900   20.1251 N   0  3  0  0  0  0
  -30.1008  -15.4582   21.2879 N   0  0  0  0  0  0
  -31.0918  -17.9953   19.9476 N   0  0  0  0  0  0
  -30.5645  -25.1480   19.9165 N   0  3  2  0  0  0
  -31.4676  -12.4214   19.1275 H   0  0  0  0  0  0
  -30.3138  -11.3105   19.8211 H   0  0  0  0  0  0
  -29.7445  -11.7864   17.4329 H   0  0  0  0  0  0
  -29.6582  -13.4994   17.7654 H   0  0  0  0  0  0
  -27.8089  -11.3217   18.7945 H   0  0  0  0  0  0
  -27.3661  -12.6638   17.7810 H   0  0  0  0  0  0
  -27.7023  -14.2526   19.5626 H   0  0  0  0  0  0
  -28.6716  -11.9763   21.3608 H   0  0  0  0  0  0
  -28.4557  -13.6252   21.8587 H   0  0  0  0  0  0
  -25.2725   -9.5750   22.4690 H   0  0  0  0  0  0
  -24.0061   -7.4649   22.7435 H   0  0  0  0  0  0
  -21.0839   -8.8709   19.8951 H   0  0  0  0  0  0
  -22.3604  -10.9647   19.6137 H   0  0  0  0  0  0
  -21.1968   -7.6147   23.9707 H   0  0  0  0  0  0
  -21.1509   -6.0499   25.9069 H   0  0  0  0  0  0
  -22.0608   -2.7621   23.2797 H   0  0  0  0  0  0
  -22.4163  -11.9890   22.4747 H   0  0  0  0  0  0
  -21.1110  -13.1217   22.2680 H   0  0  0  0  0  0
  -24.6814  -15.8514   20.4868 H   0  0  0  0  0  0
  -26.3029  -15.6043   20.0843 H   0  0  0  0  0  0
  -26.7060  -32.5583   23.1185 H   0  0  0  0  0  0
  -25.0043  -33.9801   25.0503 H   0  0  0  0  0  0
  -22.6811  -31.3089   21.4142 H   0  0  0  0  0  0
  -23.3743  -35.9642   23.3317 H   0  0  0  0  0  0
  -24.3566  -36.8904   22.2055 H   0  0  0  0  0  0
  -23.7224  -37.6517   23.6637 H   0  0  0  0  0  0
  -26.0176  -31.6160   20.5863 H   0  0  0  0  0  0
  -26.8116  -30.9136   21.9670 H   0  0  0  0  0  0
  -28.0962  -29.1500   21.1629 H   0  0  0  0  0  0
  -26.0959  -25.9710   19.0439 H   0  0  0  0  0  0
  -23.9849  -27.2746   19.0625 H   0  0  0  0  0  0
  -23.7069  -30.5940   19.4038 H   0  0  0  0  0  0
  -22.7294  -29.2385   19.8744 H   0  0  0  0  0  0
  -25.1265  -36.1983   25.0842 H   0  0  0  0  0  0
  -20.9948  -28.3220   24.1457 H   0  0  0  0  0  0
  -20.5628  -26.2265   23.3615 H   0  0  0  0  0  0
  -21.6620  -26.7430   22.1255 H   0  0  0  0  0  0
  -19.6903  -25.6311   21.1223 H   0  0  0  0  0  0
  -19.6694  -27.3208   20.6760 H   0  0  0  0  0  0
  -17.4195  -26.6703   21.3991 H   0  0  0  0  0  0
  -18.0280  -26.0069   22.8982 H   0  0  0  0  0  0
  -19.7914  -30.7244   24.2302 H   0  0  0  0  0  0
  -17.5005  -31.6265   24.5185 H   0  0  0  0  0  0
  -15.5338  -30.3012   23.7650 H   0  0  0  0  0  0
  -15.8645  -28.0862   22.7029 H   0  0  0  0  0  0
  -24.5934  -30.7017   25.7853 H   0  0  0  0  0  0
  -24.8960  -32.2830   26.4981 H   0  0  0  0  0  0
  -25.8173  -30.8841   27.0224 H   0  0  0  0  0  0
  -26.2773  -29.6806   24.1160 H   0  0  0  0  0  0
  -27.4152  -29.7291   25.4445 H   0  0  0  0  0  0
  -27.8572  -30.4383   23.9073 H   0  0  0  0  0  0
  -27.2685  -33.3594   26.2072 H   0  0  0  0  0  0
  -28.3832  -32.6905   25.0250 H   0  0  0  0  0  0
  -28.0764  -31.8413   26.5322 H   0  0  0  0  0  0
  -28.2610  -38.0083   24.7511 H   0  0  0  0  0  0
  -28.1051  -36.2622   24.6278 H   0  0  0  0  0  0
  -27.2303  -37.1443   25.8868 H   0  0  0  0  0  0
  -20.9260  -29.8748   21.6973 H   0  0  0  0  0  0
  -26.0173  -38.2875   24.1450 H   0  0  0  0  0  0
  -30.5507  -21.4117   17.1023 H   0  0  0  0  0  0
  -30.3848  -22.9000   21.5410 H   0  0  0  0  0  0
  -32.1394  -22.8139   21.7303 H   0  0  0  0  0  0
  -29.1432  -16.3051   19.5205 H   0  0  0  0  0  0
  -28.2546  -16.5413   21.0646 H   0  0  0  0  0  0
  -30.5190  -16.6747   23.0112 H   0  0  0  0  0  0
  -31.9262  -16.4880   21.9212 H   0  0  0  0  0  0
  -32.4086  -25.0921   20.9689 H   0  0  0  0  0  0
  -30.9988  -25.2159   22.0167 H   0  0  0  0  0  0
  -29.6071  -23.6964   18.7428 H   0  0  0  0  0  0
  -31.0894  -24.2869   18.0022 H   0  0  0  0  0  0
  -32.4870  -23.0471   19.3668 H   0  0  0  0  0  0
  -29.7110  -18.3699   21.5466 H   0  0  0  0  0  0
  -31.3510  -28.5568   19.9113 H   0  0  0  0  0  0
  -32.4058  -27.3143   20.5197 H   0  0  0  0  0  0
  -30.8457  -27.6092   21.2984 H   0  0  0  0  0  0
  -31.0467  -17.7515   17.2102 H   0  0  0  0  0  0
  -30.4169  -19.0585   16.1839 H   0  0  0  0  0  0
  -29.3309  -18.2262   17.3187 H   0  0  0  0  0  0
  -28.9211  -26.5431   18.0864 H   0  0  0  0  0  0
  -29.2970  -28.1152   18.7666 H   0  0  0  0  0  0
  -31.3027  -26.5234   18.4676 H   0  0  0  0  0  0
  -31.4971  -20.4338   21.0946 H   0  0  0  0  0  0
  -31.2089  -17.2642   19.2584 H   0  0  0  0  0  0
  -29.6133  -25.1302   20.2638 H   0  0  0  0  0  0
  1 25  1  0  0  0
  1 30  2  0  0  0
  1 87  1  0  0  0
  2  3  1  0  0  0
  2 25  1  0  0  0
  2 90  1  0  0  0
  2 91  1  0  0  0
  3  4  1  0  0  0
  3 92  1  0  0  0
  3 93  1  0  0  0
  4  5  1  0  0  0
  4 94  1  0  0  0
  4 95  1  0  0  0
  5  6  1  0  0  0
  5 26  1  0  0  0
  5 96  1  0  0  0
  6 25  1  0  0  0
  6 97  1  0  0  0
  6 98  1  0  0  0
  7  8  2  0  0  0
  7 26  1  0  0  0
  7 29  1  0  0  0
  8  9  1  0  0  0
  8 22  1  0  0  0
  9 10  1  0  0  0
  9 27  2  0  0  0
 10 11  2  0  0  0
 10 15  1  0  0  0
 11 12  1  0  0  0
 11 99  1  0  0  0
 12 13  2  0  0  0
 12100  1  0  0  0
 13 14  1  0  0  0
 13 31  1  0  0  0
 14 15  2  0  0  0
 14101  1  0  0  0
 15102  1  0  0  0
 16 17  2  0  0  0
 16 21  1  0  0  0
 16 31  1  0  0  0
 17 18  1  0  0  0
 17103  1  0  0  0
 18 19  2  0  0  0
 18104  1  0  0  0
 19 20  1  0  0  0
 19 24  1  0  0  0
 20 21  2  0  0  0
 20105  1  0  0  0
 21 23  1  0  0  0
 22 28  1  0  0  0
 22 32  2  0  0  0
 26 27  1  0  0  0
 28106  1  0  0  0
 28107  1  0  0  0
 29108  1  0  0  0
 29109  1  0  0  0
 33 34  1  0  0  0
 33 66  1  0  0  0
 33 70  2  0  0  0
 34 36  1  0  0  0
 34 59  1  0  0  0
 34110  1  0  0  0
 35 44  2  0  0  0
 35 45  1  0  0  0
 35 68  1  0  0  0
 36 56  1  0  0  0
 36111  1  0  0  0
 37 39  1  0  0  0
 37 47  1  0  0  0
 37 66  1  0  0  0
 37112  1  0  0  0
 38 43  2  0  0  0
 38 46  1  0  0  0
 38 47  1  0  0  0
 39 64  1  0  0  0
 39 67  2  0  0  0
 40 52  1  0  0  0
 40 53  2  0  0  0
 40 58  1  0  0  0
 41113  1  0  0  0
 41114  1  0  0  0
 41115  1  0  0  0
 41 48  1  0  0  0
 42 43  1  0  0  0
 42 66  1  0  0  0
 42116  1  0  0  0
 42117  1  0  0  0
 43 44  1  0  0  0
 44118  1  0  0  0
 45 46  2  0  0  0
 45119  1  0  0  0
 46120  1  0  0  0
 47121  1  0  0  0
 47122  1  0  0  0
 48 56  1  0  0  0
 48 65  1  0  0  0
 48123  1  0  0  0
 49 50  1  0  0  0
 49 53  1  0  0  0
 49 64  1  0  0  0
 49124  1  0  0  0
 50 51  1  0  0  0
 50125  1  0  0  0
 50126  1  0  0  0
 51 52  1  0  0  0
 51127  1  0  0  0
 51128  1  0  0  0
 52129  1  0  0  0
 52130  1  0  0  0
 53 54  1  0  0  0
 54 55  2  0  0  0
 54131  1  0  0  0
 55 57  1  0  0  0
 55132  1  0  0  0
 56 69  2  0  0  0
 57 58  2  0  0  0
 57133  1  0  0  0
 58134  1  0  0  0
 59 60  1  0  0  0
 59 61  1  0  0  0
 59 62  1  0  0  0
 60135  1  0  0  0
 60136  1  0  0  0
 60137  1  0  0  0
 61138  1  0  0  0
 61139  1  0  0  0
 61140  1  0  0  0
 62141  1  0  0  0
 62142  1  0  0  0
 62143  1  0  0  0
 63 65  1  0  0  0
 63144  1  0  0  0
 63145  1  0  0  0
 63146  1  0  0  0
 64147  1  0  0  0
 65148  1  0  0  0
 68 83  1  0  0  0
 71 72  2  0  0  0
 71 85  1  0  0  0
 71149  1  0  0  0
 72 86  1  0  0  0
 72 79  1  0  0  0
 73 85  1  0  0  0
 73 86  2  0  0  0
 73 88  1  0  0  0
 74 77  1  0  0  0
 74 79  1  0  0  0
 74150  1  0  0  0
 74151  1  0  0  0
 75 80  1  0  0  0
 75 87  1  0  0  0
 75152  1  0  0  0
 75153  1  0  0  0
 76 80  1  0  0  0
 76 87  1  0  0  0
 76154  1  0  0  0
 76155  1  0  0  0
 77156  1  0  0  0
 77157  1  0  0  0
 77 89  1  0  0  0
 78 79  1  0  0  0
 78 89  1  0  0  0
 78158  1  0  0  0
 78159  1  0  0  0
 79160  1  0  0  0
 80 88  1  0  0  0
 80161  1  0  0  0
 81162  1  0  0  0
 81163  1  0  0  0
 81164  1  0  0  0
 81 84  1  0  0  0
 82 85  1  0  0  0
 82165  1  0  0  0
 82166  1  0  0  0
 82167  1  0  0  0
 83 84  1  0  0  0
 83168  1  0  0  0
 83169  1  0  0  0
 84 89  1  0  0  0
 84170  1  0  0  0
 86171  1  0  0  0
 88172  1  0  0  0
 89173  1  0  0  0
M  CHG  2  86   1  89   1
M  ISO  4   1 100  68 101  83 101  87 100
M  END
> <chiral flag>
0

> <version>
0

> <s_m_source_file>
/data/baiqing/PycharmProjects/Reinvent-master-3.2/result/LINK_invent/BTK/process_docking_weight1_custom_sum_contain_oxygen_bond_distance_aromatic_linkinvent_7_9_3/rearranged_h_0198.sdf

> <i_m_source_file_index>
93

> <r_mmod_Potential_Energy-OPLS-2005>
-58.6530227661133

> <r_mmod_Stretch_Energy-OPLS-2005>
37.9717025756836

> <r_mmod_Bend_Energy-OPLS-2005>
147.771270751953

> <r_mmod_Torsional_Energy-OPLS-2005>
414.210693359375

> <r_mmod_Improper_Torsional_Energy-OPLS-2005>
13.8533544540405

> <r_mmod_Van_der_Waal_Energy-OPLS-2005>
122.267318725586

> <r_mmod_Electrostatic_Energy-OPLS-2005>
84.0470275878906

> <r_mmod_Solvation_Energy-OPLS-2005>
-889.184509277344

> <b_mmod_Minimization_Converged-OPLS-2005>
0

> <r_mmod_RMS_Derivative-OPLS-2005>
4.64078569412231

$$$$
93
                    3D
 Structure written by MMmdl.
166176  0  0  1  0            999 V2000
  -30.6907  -14.4577   20.6122 C   0  0  0  0  0  0
  -30.4246  -12.3109   19.4152 C   0  0  0  0  0  0
  -29.4915  -12.5153   18.2034 C   0  0  0  0  0  0
  -28.0145  -12.3612   18.6192 C   0  0  0  0  0  0
  -27.6610  -13.1998   19.8772 C   0  0  2  0  0  0
  -28.6991  -12.9625   20.9950 C   0  0  0  0  0  0
  -25.2599  -13.8174   20.5686 C   0  0  0  0  0  0
  -24.1836  -13.0431   20.9157 C   0  0  0  0  0  0
  -24.6404  -11.6896   20.8733 C   0  0  0  0  0  0
  -23.9089  -10.4272   21.0412 C   0  0  0  0  0  0
  -24.3645   -9.4182   21.9184 C   0  0  0  0  0  0
  -23.6324   -8.2218   22.0747 C   0  0  0  0  0  0
  -22.4311   -8.0271   21.3537 C   0  0  0  0  0  0
  -21.9954   -9.0246   20.4634 C   0  0  0  0  0  0
  -22.7279  -10.2123   20.3053 C   0  0  0  0  0  0
  -21.6859   -6.0747   22.5286 C   0  0  0  0  0  0
  -21.4016   -6.5652   23.8221 C   0  0  0  0  0  0
  -21.3652   -5.6803   24.9190 C   0  0  0  0  0  0
  -21.6038   -4.3063   24.7229 C   0  0  0  0  0  0
  -21.8824   -3.8159   23.4351 C   0  0  0  0  0  0
  -21.9190   -4.6979   22.3406 C   0  0  0  0  0  0
  -22.7856  -13.5211   21.1839 C   0  0  0  0  0  0
  -22.1662   -4.2155   21.0990 F   0  0  0  0  0  0
  -21.5622   -3.4539   25.7738 F   0  0  0  0  0  0
  -30.0317  -13.2800   20.4494 N   0  0  0  0  0  0
  -26.3014  -12.9316   20.3396 N   0  0  0  0  0  0
  -25.9335  -11.6474   20.5801 N   0  0  0  0  0  0
  -22.0520  -12.8186   22.0410 N   0  0  0  0  0  0
  -25.4385  -15.1895   20.4105 N   0  0  0  0  0  0
  -31.7932  -14.6955   20.1104 O   0  0  0  0  0  0
  -21.6658   -6.8890   21.4242 O   0  0  0  0  0  0
  -22.3515  -14.5509   20.6709 O   0  0  0  0  0  0
  -24.6132  -31.8685   23.2118 C   0  0  0  0  0  0
  -25.9031  -32.4821   23.8401 C   0  0  1  0  0  0
  -27.2360  -27.4438   20.0726 C   0  0  0  0  0  0
  -25.5898  -33.8626   24.2322 N   0  0  0  0  0  0
  -23.3993  -30.4938   21.5522 C   0  0  2  0  0  0
  -24.8416  -28.9597   20.1137 C   0  0  0  0  0  0
  -22.7412  -29.4661   22.4993 C   0  0  0  0  0  0
  -18.0275  -28.1377   22.8504 C   0  0  0  0  0  0
  -24.1491  -36.7300   23.2641 C   0  0  0  0  0  0
  -25.9306  -30.8279   21.3722 C   0  0  0  0  0  0
  -26.0016  -29.4680   20.7098 C   0  0  0  0  0  0
  -27.1960  -28.7157   20.6863 C   0  0  0  0  0  0
  -26.0520  -26.9462   19.4808 C   0  0  0  0  0  0
  -24.8615  -27.6958   19.5000 C   0  0  0  0  0  0
  -23.6050  -29.8264   20.1664 C   0  0  0  0  0  0
  -25.4119  -36.3114   24.0341 C   0  0  1  0  0  0
  -20.5864  -28.3656   23.1327 C   0  0  2  0  0  0
  -20.6764  -26.9393   22.5418 C   0  0  0  0  0  0
  -19.5738  -26.6383   21.5222 C   0  0  0  0  0  0
  -18.1914  -26.7925   22.1632 C   0  0  0  0  0  0
  -19.1525  -28.8839   23.2910 C   0  0  0  0  0  0
  -18.9451  -30.1446   23.8919 C   0  0  0  0  0  0
  -17.6448  -30.6582   24.0570 C   0  0  0  0  0  0
  -25.9050  -34.9479   23.5133 C   0  0  0  0  0  0
  -16.5342  -29.9082   23.6327 C   0  0  0  0  0  0
  -16.7267  -28.6494   23.0361 C   0  0  0  0  0  0
  -26.4461  -31.6619   25.0740 C   0  0  0  0  0  0
  -25.3743  -31.3703   26.1506 C   0  0  0  0  0  0
  -27.0319  -30.3066   24.6147 C   0  0  0  0  0  0
  -27.6031  -32.4368   25.7492 C   0  0  0  0  0  0
  -27.5590  -37.1804   24.8469 C   0  0  0  0  0  0
  -21.4142  -29.3019   22.3735 N   0  0  0  0  0  0
  -26.4299  -37.3799   23.9419 N   0  0  0  0  0  0
  -24.6649  -31.0790   22.1021 N   0  0  0  0  0  0
  -23.4195  -28.8190   23.3015 O   0  0  0  0  0  0
  -28.4445  -26.7741   20.0871 O   0  0  0  0  0  0
  -26.5605  -34.8927   22.4692 O   0  0  0  0  0  0
  -23.5331  -32.1438   23.7522 O   0  0  0  0  0  0
  -27.0311  -21.0985   21.7630 C   0  0  0  0  0  0
  -27.4529  -21.2360   20.4628 C   0  0  0  0  0  0
  -28.6756  -19.6603   21.4333 C   0  0  0  0  0  0
  -28.4573  -25.2729   18.0471 C   0  0  0  0  0  0
  -27.6836  -23.9563   17.9164 C   0  0  0  0  0  0
  -29.4219  -17.5200   22.4601 C   0  0  0  0  0  0
  -30.0022  -17.8028   20.4800 C   0  0  0  0  0  0
  -27.8551  -24.2916   20.1998 C   0  0  0  0  0  0
  -30.4050  -16.7734   21.5478 C   0  0  0  0  0  0
  -28.6281  -25.4534   19.5564 C   0  0  1  0  0  0
  -27.7597  -19.7481   23.7648 C   0  0  0  0  0  0
  -27.0110  -22.1515   19.3697 C   0  0  0  0  0  0
  -27.8218  -20.1446   22.3558 N   0  0  0  0  0  0
  -28.4863  -20.3457   20.3041 N   0  3  0  0  0  0
  -29.7063  -18.6783   21.6175 N   0  0  0  0  0  0
  -27.9500  -23.2535   19.1692 N   0  0  0  0  0  0
  -29.9970  -15.3939   21.2772 N   0  0  0  0  0  0
  -31.4688  -12.4154   19.1183 H   0  0  0  0  0  0
  -30.3229  -11.2979   19.8058 H   0  0  0  0  0  0
  -29.7332  -11.8019   17.4137 H   0  0  0  0  0  0
  -29.6529  -13.5066   17.7764 H   0  0  0  0  0  0
  -27.8349  -11.3048   18.8234 H   0  0  0  0  0  0
  -27.3586  -12.6242   17.7886 H   0  0  0  0  0  0
  -27.7091  -14.2480   19.5823 H   0  0  0  0  0  0
  -28.6780  -11.9205   21.3164 H   0  0  0  0  0  0
  -28.4510  -13.5378   21.8874 H   0  0  0  0  0  0
  -25.2791   -9.5635   22.4764 H   0  0  0  0  0  0
  -24.0013   -7.4593   22.7464 H   0  0  0  0  0  0
  -21.0890   -8.8787   19.8922 H   0  0  0  0  0  0
  -22.3772  -10.9680   19.6170 H   0  0  0  0  0  0
  -21.2023   -7.6168   23.9743 H   0  0  0  0  0  0
  -21.1474   -6.0521   25.9094 H   0  0  0  0  0  0
  -22.0629   -2.7622   23.2855 H   0  0  0  0  0  0
  -22.4153  -11.9829   22.4746 H   0  0  0  0  0  0
  -21.1141  -13.1197   22.2655 H   0  0  0  0  0  0
  -24.6743  -15.8516   20.4911 H   0  0  0  0  0  0
  -26.2989  -15.6210   20.0963 H   0  0  0  0  0  0
  -26.7089  -32.5510   23.1149 H   0  0  0  0  0  0
  -25.0078  -33.9794   25.0485 H   0  0  0  0  0  0
  -22.6864  -31.3091   21.4149 H   0  0  0  0  0  0
  -23.3765  -35.9620   23.3315 H   0  0  0  0  0  0
  -24.3580  -36.8917   22.2050 H   0  0  0  0  0  0
  -23.7219  -37.6496   23.6658 H   0  0  0  0  0  0
  -26.0646  -31.5984   20.6118 H   0  0  0  0  0  0
  -26.8122  -30.8635   22.0010 H   0  0  0  0  0  0
  -28.0965  -29.1066   21.1387 H   0  0  0  0  0  0
  -26.0191  -25.9885   18.9897 H   0  0  0  0  0  0
  -23.9692  -27.2986   19.0353 H   0  0  0  0  0  0
  -23.7125  -30.6010   19.4072 H   0  0  0  0  0  0
  -22.7291  -29.2461   19.8709 H   0  0  0  0  0  0
  -25.1290  -36.1983   25.0829 H   0  0  0  0  0  0
  -20.9962  -28.3210   24.1452 H   0  0  0  0  0  0
  -20.5688  -26.2252   23.3596 H   0  0  0  0  0  0
  -21.6625  -26.7443   22.1196 H   0  0  0  0  0  0
  -19.6891  -25.6300   21.1235 H   0  0  0  0  0  0
  -19.6676  -27.3210   20.6767 H   0  0  0  0  0  0
  -17.4186  -26.6707   21.4023 H   0  0  0  0  0  0
  -18.0301  -26.0056   22.9013 H   0  0  0  0  0  0
  -19.7922  -30.7266   24.2295 H   0  0  0  0  0  0
  -17.5001  -31.6274   24.5157 H   0  0  0  0  0  0
  -15.5348  -30.2993   23.7642 H   0  0  0  0  0  0
  -15.8667  -28.0826   22.7071 H   0  0  0  0  0  0
  -24.5889  -30.7095   25.7817 H   0  0  0  0  0  0
  -24.8973  -32.2861   26.5011 H   0  0  0  0  0  0
  -25.8115  -30.8806   27.0220 H   0  0  0  0  0  0
  -26.2877  -29.6807   24.1216 H   0  0  0  0  0  0
  -27.4096  -29.7323   25.4608 H   0  0  0  0  0  0
  -27.8705  -30.4374   23.9309 H   0  0  0  0  0  0
  -27.2626  -33.3647   26.2095 H   0  0  0  0  0  0
  -28.3806  -32.6989   25.0304 H   0  0  0  0  0  0
  -28.0750  -31.8509   26.5385 H   0  0  0  0  0  0
  -28.2597  -38.0109   24.7555 H   0  0  0  0  0  0
  -28.1108  -36.2653   24.6273 H   0  0  0  0  0  0
  -27.2317  -37.1412   25.8871 H   0  0  0  0  0  0
  -20.9317  -29.8721   21.6937 H   0  0  0  0  0  0
  -26.0199  -38.2884   24.1433 H   0  0  0  0  0  0
  -26.2527  -21.6242   22.3009 H   0  0  0  0  0  0
  -27.9263  -26.0964   17.5703 H   0  0  0  0  0  0
  -29.4353  -25.1939   17.5694 H   0  0  0  0  0  0
  -28.0010  -23.3680   17.0526 H   0  0  0  0  0  0
  -26.6153  -24.1576   17.8071 H   0  0  0  0  0  0
  -29.7600  -17.6091   23.4938 H   0  0  0  0  0  0
  -28.3860  -17.1789   22.3838 H   0  0  0  0  0  0
  -29.1184  -17.5206   19.9019 H   0  0  0  0  0  0
  -30.8205  -18.1480   19.8460 H   0  0  0  0  0  0
  -26.8132  -24.5489   20.3909 H   0  0  0  0  0  0
  -28.2968  -23.9806   21.1484 H   0  0  0  0  0  0
  -31.4451  -16.8800   21.8705 H   0  0  0  0  0  0
  -29.6790  -25.2423   19.7580 H   0  0  0  0  0  0
  -27.2184  -20.5096   24.3258 H   0  0  0  0  0  0
  -28.7672  -19.6650   24.1710 H   0  0  0  0  0  0
  -27.2353  -18.7969   23.8543 H   0  0  0  0  0  0
  -26.0106  -22.5313   19.5889 H   0  0  0  0  0  0
  -26.9242  -21.5686   18.4511 H   0  0  0  0  0  0
  -29.0464  -20.2617   19.4662 H   0  0  0  0  0  0
  -29.0967  -15.1034   21.6283 H   0  0  0  0  0  0
  1 25  1  0  0  0
  1 30  2  0  0  0
  1 87  1  0  0  0
  2  3  1  0  0  0
  2 25  1  0  0  0
  2 88  1  0  0  0
  2 89  1  0  0  0
  3  4  1  0  0  0
  3 90  1  0  0  0
  3 91  1  0  0  0
  4  5  1  0  0  0
  4 92  1  0  0  0
  4 93  1  0  0  0
  5  6  1  0  0  0
  5 26  1  0  0  0
  5 94  1  0  0  0
  6 25  1  0  0  0
  6 95  1  0  0  0
  6 96  1  0  0  0
  7  8  2  0  0  0
  7 26  1  0  0  0
  7 29  1  0  0  0
  8  9  1  0  0  0
  8 22  1  0  0  0
  9 10  1  0  0  0
  9 27  2  0  0  0
 10 11  2  0  0  0
 10 15  1  0  0  0
 11 12  1  0  0  0
 11 97  1  0  0  0
 12 13  2  0  0  0
 12 98  1  0  0  0
 13 14  1  0  0  0
 13 31  1  0  0  0
 14 15  2  0  0  0
 14 99  1  0  0  0
 15100  1  0  0  0
 16 17  2  0  0  0
 16 21  1  0  0  0
 16 31  1  0  0  0
 17 18  1  0  0  0
 17101  1  0  0  0
 18 19  2  0  0  0
 18102  1  0  0  0
 19 20  1  0  0  0
 19 24  1  0  0  0
 20 21  2  0  0  0
 20103  1  0  0  0
 21 23  1  0  0  0
 22 28  1  0  0  0
 22 32  2  0  0  0
 26 27  1  0  0  0
 28104  1  0  0  0
 28105  1  0  0  0
 29106  1  0  0  0
 29107  1  0  0  0
 33 34  1  0  0  0
 33 66  1  0  0  0
 33 70  2  0  0  0
 34 36  1  0  0  0
 34 59  1  0  0  0
 34108  1  0  0  0
 35 44  2  0  0  0
 35 45  1  0  0  0
 35 68  1  0  0  0
 36 56  1  0  0  0
 36109  1  0  0  0
 37 39  1  0  0  0
 37 47  1  0  0  0
 37 66  1  0  0  0
 37110  1  0  0  0
 38 43  2  0  0  0
 38 46  1  0  0  0
 38 47  1  0  0  0
 39 64  1  0  0  0
 39 67  2  0  0  0
 40 52  1  0  0  0
 40 53  2  0  0  0
 40 58  1  0  0  0
 41111  1  0  0  0
 41112  1  0  0  0
 41113  1  0  0  0
 41 48  1  0  0  0
 42 43  1  0  0  0
 42 66  1  0  0  0
 42114  1  0  0  0
 42115  1  0  0  0
 43 44  1  0  0  0
 44116  1  0  0  0
 45 46  2  0  0  0
 45117  1  0  0  0
 46118  1  0  0  0
 47119  1  0  0  0
 47120  1  0  0  0
 48 56  1  0  0  0
 48 65  1  0  0  0
 48121  1  0  0  0
 49 50  1  0  0  0
 49 53  1  0  0  0
 49 64  1  0  0  0
 49122  1  0  0  0
 50 51  1  0  0  0
 50123  1  0  0  0
 50124  1  0  0  0
 51 52  1  0  0  0
 51125  1  0  0  0
 51126  1  0  0  0
 52127  1  0  0  0
 52128  1  0  0  0
 53 54  1  0  0  0
 54 55  2  0  0  0
 54129  1  0  0  0
 55 57  1  0  0  0
 55130  1  0  0  0
 56 69  2  0  0  0
 57 58  2  0  0  0
 57131  1  0  0  0
 58132  1  0  0  0
 59 60  1  0  0  0
 59 61  1  0  0  0
 59 62  1  0  0  0
 60133  1  0  0  0
 60134  1  0  0  0
 60135  1  0  0  0
 61136  1  0  0  0
 61137  1  0  0  0
 61138  1  0  0  0
 62139  1  0  0  0
 62140  1  0  0  0
 62141  1  0  0  0
 63 65  1  0  0  0
 63142  1  0  0  0
 63143  1  0  0  0
 63144  1  0  0  0
 64145  1  0  0  0
 65146  1  0  0  0
 68 80  1  0  0  0
 71 72  2  0  0  0
 71 83  1  0  0  0
 71147  1  0  0  0
 72 82  1  0  0  0
 72 84  1  0  0  0
 73 83  1  0  0  0
 73 84  2  0  0  0
 73 85  1  0  0  0
 74 75  1  0  0  0
 74 80  1  0  0  0
 74148  1  0  0  0
 74149  1  0  0  0
 75 86  1  0  0  0
 75150  1  0  0  0
 75151  1  0  0  0
 76 79  1  0  0  0
 76 85  1  0  0  0
 76152  1  0  0  0
 76153  1  0  0  0
 77 79  1  0  0  0
 77 85  1  0  0  0
 77154  1  0  0  0
 77155  1  0  0  0
 78 80  1  0  0  0
 78 86  1  0  0  0
 78156  1  0  0  0
 78157  1  0  0  0
 79 87  1  0  0  0
 79158  1  0  0  0
 80159  1  0  0  0
 81 83  1  0  0  0
 81160  1  0  0  0
 81161  1  0  0  0
 81162  1  0  0  0
 82 86  1  0  0  0
 82163  1  0  0  0
 82164  1  0  0  0
 84165  1  0  0  0
 87166  1  0  0  0
M  CHG  1  84   1
M  ISO  4   1 100  68 101  80 101  87 100
M  END
> <chiral flag>
0

> <version>
0

> <s_m_source_file>
/data/baiqing/PycharmProjects/Reinvent-master-3.2/result/LINK_invent/BTK/process_docking_weight1_custom_sum_contain_oxygen_bond_distance_aromatic_linkinvent_7_9_3/rearranged_h_0198.sdf

> <i_m_source_file_index>
94

> <r_mmod_Potential_Energy-OPLS-2005>
-67.2971496582031

> <r_mmod_Stretch_Energy-OPLS-2005>
34.344669342041

> <r_mmod_Bend_Energy-OPLS-2005>
178.784484863281

> <r_mmod_Torsional_Energy-OPLS-2005>
282.934844970703

> <r_mmod_Improper_Torsional_Energy-OPLS-2005>
10.6925268173218

> <r_mmod_Van_der_Waal_Energy-OPLS-2005>
131.907897949219

> <r_mmod_Electrostatic_Energy-OPLS-2005>
-280.732635498047

> <r_mmod_Solvation_Energy-OPLS-2005>
-436.872344970703

> <b_mmod_Minimization_Converged-OPLS-2005>
0

> <r_mmod_RMS_Derivative-OPLS-2005>
2.96266651153564

$$$$
94
                    3D
 Structure written by MMmdl.
157166  0  0  1  0            999 V2000
  -30.5965  -14.9092   20.4317 C   0  0  0  0  0  0
  -30.4242  -12.5645   19.5018 C   0  0  0  0  0  0
  -29.5144  -12.5211   18.2552 C   0  0  0  0  0  0
  -28.0467  -12.3209   18.6724 C   0  0  0  0  0  0
  -27.6272  -13.2540   19.8388 C   0  0  2  0  0  0
  -28.6687  -13.2901   20.9769 C   0  0  0  0  0  0
  -25.2447  -13.8236   20.5730 C   0  0  0  0  0  0
  -24.1764  -13.0453   20.9233 C   0  0  0  0  0  0
  -24.6385  -11.6941   20.8763 C   0  0  0  0  0  0
  -23.9074  -10.4299   21.0410 C   0  0  0  0  0  0
  -24.3625   -9.4212   21.9183 C   0  0  0  0  0  0
  -23.6298   -8.2247   22.0746 C   0  0  0  0  0  0
  -22.4278   -8.0278   21.3540 C   0  0  0  0  0  0
  -21.9913   -9.0253   20.4648 C   0  0  0  0  0  0
  -22.7246  -10.2132   20.3062 C   0  0  0  0  0  0
  -21.6856   -6.0732   22.5276 C   0  0  0  0  0  0
  -21.4019   -6.5635   23.8208 C   0  0  0  0  0  0
  -21.3664   -5.6788   24.9168 C   0  0  0  0  0  0
  -21.6042   -4.3050   24.7222 C   0  0  0  0  0  0
  -21.8820   -3.8144   23.4342 C   0  0  0  0  0  0
  -21.9197   -4.6961   22.3398 C   0  0  0  0  0  0
  -22.7784  -13.5219   21.1887 C   0  0  0  0  0  0
  -22.1667   -4.2149   21.0977 F   0  0  0  0  0  0
  -21.5628   -3.4532   25.7735 F   0  0  0  0  0  0
  -29.9447  -13.6799   20.3688 N   0  0  0  0  0  0
  -26.2869  -12.9485   20.3258 N   0  0  0  0  0  0
  -25.9323  -11.6607   20.5745 N   0  0  0  0  0  0
  -22.0441  -12.8205   22.0446 N   0  0  0  0  0  0
  -25.4126  -15.1960   20.4166 N   0  0  0  0  0  0
  -31.8009  -14.8997   20.1513 O   0  0  0  0  0  0
  -21.6642   -6.8874   21.4238 O   0  0  0  0  0  0
  -22.3466  -14.5524   20.6737 O   0  0  0  0  0  0
  -24.6423  -31.8463   23.1908 C   0  0  0  0  0  0
  -25.9204  -32.4704   23.8288 C   0  0  1  0  0  0
  -27.2064  -27.1493   20.1453 C   0  0  0  0  0  0
  -25.5957  -33.8509   24.2203 N   0  0  0  0  0  0
  -23.4439  -30.4689   21.5361 C   0  0  2  0  0  0
  -24.8917  -28.9039   20.1061 C   0  0  0  0  0  0
  -22.7557  -29.4563   22.4853 C   0  0  0  0  0  0
  -18.0305  -28.1394   22.8474 C   0  0  0  0  0  0
  -24.1494  -36.7265   23.2638 C   0  0  0  0  0  0
  -25.9999  -30.7235   21.3889 C   0  0  0  0  0  0
  -26.0686  -29.3375   20.7286 C   0  0  0  0  0  0
  -27.2277  -28.4751   20.7348 C   0  0  0  0  0  0
  -26.0071  -26.8245   19.4701 C   0  0  0  0  0  0
  -24.8733  -27.6608   19.4605 C   0  0  0  0  0  0
  -23.6688  -29.8045   20.1528 C   0  0  0  0  0  0
  -25.4122  -36.3036   24.0314 C   0  0  1  0  0  0
  -20.5916  -28.3722   23.1233 C   0  0  2  0  0  0
  -20.6790  -26.9425   22.5402 C   0  0  0  0  0  0
  -19.5764  -26.6379   21.5210 C   0  0  0  0  0  0
  -18.1944  -26.7931   22.1620 C   0  0  0  0  0  0
  -19.1561  -28.8874   23.2848 C   0  0  0  0  0  0
  -18.9476  -30.1469   23.8876 C   0  0  0  0  0  0
  -17.6473  -30.6590   24.0559 C   0  0  0  0  0  0
  -25.9074  -34.9410   23.5064 C   0  0  0  0  0  0
  -16.5364  -29.9082   23.6335 C   0  0  0  0  0  0
  -16.7289  -28.6503   23.0352 C   0  0  0  0  0  0
  -26.4528  -31.6562   25.0721 C   0  0  0  0  0  0
  -25.3720  -31.3754   26.1424 C   0  0  0  0  0  0
  -27.0385  -30.2953   24.6299 C   0  0  0  0  0  0
  -27.6059  -32.4325   25.7509 C   0  0  0  0  0  0
  -27.5577  -37.1788   24.8462 C   0  0  0  0  0  0
  -21.4251  -29.3052   22.3606 N   0  0  0  0  0  0
  -26.4287  -37.3746   23.9409 N   0  0  0  0  0  0
  -24.7153  -31.0338   22.0935 N   0  0  0  0  0  0
  -23.4211  -28.8100   23.2988 O   0  0  0  0  0  0
  -28.2389  -26.1482   20.2400 O   0  0  0  0  0  0
  -26.5654  -34.8903   22.4639 O   0  0  0  0  0  0
  -23.5547  -32.1331   23.7142 O   0  0  0  0  0  0
  -30.5962  -22.5042   21.5478 C   0  0  0  0  0  0
  -28.4750  -21.9170   20.1053 C   0  0  0  0  0  0
  -28.7722  -23.3320   20.4128 C   0  0  0  0  0  0
  -29.3316  -20.8253   20.5821 C   0  0  0  0  0  0
  -30.2810  -18.7210   19.5590 C   0  0  0  0  0  0
  -29.1565  -18.4558   21.5585 C   0  0  0  0  0  0
  -30.1500  -17.1522   19.2369 C   0  0  0  0  0  0
  -29.0289  -16.8498   21.3433 C   0  0  0  0  0  0
  -27.2415  -21.5939   19.2796 C   0  0  0  0  0  0
  -27.8881  -24.6541   20.0007 C   0  0  0  0  0  0
  -29.8722  -23.5550   21.1535 N   0  0  0  0  0  0
  -30.3905  -21.2038   21.3111 N   0  0  0  0  0  0
  -29.2096  -19.3585   20.3659 N   0  0  0  0  0  0
  -29.8989  -16.1528   20.3358 N   0  0  0  0  0  0
  -31.4631  -12.6882   19.1933 H   0  0  0  0  0  0
  -30.3886  -11.6167   20.0407 H   0  0  0  0  0  0
  -29.8275  -11.7187   17.5855 H   0  0  0  0  0  0
  -29.6149  -13.4501   17.6922 H   0  0  0  0  0  0
  -27.9337  -11.2800   18.9766 H   0  0  0  0  0  0
  -27.3856  -12.4620   17.8160 H   0  0  0  0  0  0
  -27.5906  -14.2561   19.4100 H   0  0  0  0  0  0
  -28.7463  -12.3237   21.4780 H   0  0  0  0  0  0
  -28.3737  -14.0129   21.7385 H   0  0  0  0  0  0
  -25.2768   -9.5694   22.4758 H   0  0  0  0  0  0
  -24.0013   -7.4639   22.7463 H   0  0  0  0  0  0
  -21.0840   -8.8777   19.8953 H   0  0  0  0  0  0
  -22.3699  -10.9672   19.6176 H   0  0  0  0  0  0
  -21.2011   -7.6144   23.9710 H   0  0  0  0  0  0
  -21.1489   -6.0516   25.9070 H   0  0  0  0  0  0
  -22.0599   -2.7609   23.2838 H   0  0  0  0  0  0
  -22.4077  -11.9878   22.4841 H   0  0  0  0  0  0
  -21.1059  -13.1223   22.2663 H   0  0  0  0  0  0
  -24.6453  -15.8496   20.5279 H   0  0  0  0  0  0
  -26.2612  -15.6336   20.0812 H   0  0  0  0  0  0
  -26.7265  -32.5315   23.1012 H   0  0  0  0  0  0
  -25.0087  -33.9622   25.0341 H   0  0  0  0  0  0
  -22.7453  -31.2951   21.3860 H   0  0  0  0  0  0
  -23.3753  -35.9599   23.3286 H   0  0  0  0  0  0
  -24.3585  -36.8913   22.2056 H   0  0  0  0  0  0
  -23.7255  -37.6461   23.6684 H   0  0  0  0  0  0
  -26.1547  -31.4790   20.6175 H   0  0  0  0  0  0
  -26.8708  -30.7718   22.0307 H   0  0  0  0  0  0
  -28.1196  -28.7981   21.2527 H   0  0  0  0  0  0
  -25.8991  -25.8807   18.9582 H   0  0  0  0  0  0
  -23.9769  -27.3286   18.9545 H   0  0  0  0  0  0
  -23.8042  -30.5823   19.4003 H   0  0  0  0  0  0
  -22.7835  -29.2476   19.8409 H   0  0  0  0  0  0
  -25.1307  -36.1861   25.0806 H   0  0  0  0  0  0
  -21.0011  -28.3316   24.1354 H   0  0  0  0  0  0
  -20.5682  -26.2336   23.3621 H   0  0  0  0  0  0
  -21.6657  -26.7430   22.1203 H   0  0  0  0  0  0
  -19.6927  -25.6284   21.1256 H   0  0  0  0  0  0
  -19.6701  -27.3176   20.6727 H   0  0  0  0  0  0
  -17.4212  -26.6668   21.4027 H   0  0  0  0  0  0
  -18.0350  -26.0083   22.9028 H   0  0  0  0  0  0
  -19.7953  -30.7290   24.2238 H   0  0  0  0  0  0
  -17.5027  -31.6269   24.5163 H   0  0  0  0  0  0
  -15.5364  -30.2975   23.7672 H   0  0  0  0  0  0
  -15.8689  -28.0814   22.7075 H   0  0  0  0  0  0
  -24.5880  -30.7124   25.7746 H   0  0  0  0  0  0
  -24.8936  -32.2943   26.4824 H   0  0  0  0  0  0
  -25.8008  -30.8934   27.0219 H   0  0  0  0  0  0
  -26.2995  -29.6682   24.1298 H   0  0  0  0  0  0
  -27.3981  -29.7248   25.4875 H   0  0  0  0  0  0
  -27.8915  -30.4180   23.9621 H   0  0  0  0  0  0
  -27.2640  -33.3629   26.2056 H   0  0  0  0  0  0
  -28.3886  -32.6884   25.0354 H   0  0  0  0  0  0
  -28.0709  -31.8475   26.5456 H   0  0  0  0  0  0
  -28.2580  -38.0097   24.7507 H   0  0  0  0  0  0
  -28.1082  -36.2625   24.6279 H   0  0  0  0  0  0
  -27.2297  -37.1428   25.8865 H   0  0  0  0  0  0
  -20.9452  -29.8777   21.6802 H   0  0  0  0  0  0
  -26.0151  -38.2813   24.1411 H   0  0  0  0  0  0
  -31.4678  -22.7364   22.1405 H   0  0  0  0  0  0
  -30.3521  -19.2645   18.6158 H   0  0  0  0  0  0
  -31.2337  -18.8954   20.0616 H   0  0  0  0  0  0
  -30.0536  -18.6438   22.1526 H   0  0  0  0  0  0
  -28.3297  -18.7898   22.1875 H   0  0  0  0  0  0
  -31.0377  -16.8568   18.6750 H   0  0  0  0  0  0
  -29.3270  -17.0276   18.5312 H   0  0  0  0  0  0
  -27.9995  -16.6320   21.0586 H   0  0  0  0  0  0
  -29.1654  -16.3618   22.3099 H   0  0  0  0  0  0
  -26.3427  -21.9595   19.7771 H   0  0  0  0  0  0
  -27.1236  -20.5207   19.1267 H   0  0  0  0  0  0
  -27.3061  -22.0652   18.2985 H   0  0  0  0  0  0
  -26.9254  -24.4809   20.4830 H   0  0  0  0  0  0
  -27.7082  -24.5508   18.9306 H   0  0  0  0  0  0
  1 25  1  0  0  0
  1 30  2  0  0  0
  1 84  1  0  0  0
  2  3  1  0  0  0
  2 25  1  0  0  0
  2 85  1  0  0  0
  2 86  1  0  0  0
  3  4  1  0  0  0
  3 87  1  0  0  0
  3 88  1  0  0  0
  4  5  1  0  0  0
  4 89  1  0  0  0
  4 90  1  0  0  0
  5  6  1  0  0  0
  5 26  1  0  0  0
  5 91  1  0  0  0
  6 25  1  0  0  0
  6 92  1  0  0  0
  6 93  1  0  0  0
  7  8  2  0  0  0
  7 26  1  0  0  0
  7 29  1  0  0  0
  8  9  1  0  0  0
  8 22  1  0  0  0
  9 10  1  0  0  0
  9 27  2  0  0  0
 10 11  2  0  0  0
 10 15  1  0  0  0
 11 12  1  0  0  0
 11 94  1  0  0  0
 12 13  2  0  0  0
 12 95  1  0  0  0
 13 14  1  0  0  0
 13 31  1  0  0  0
 14 15  2  0  0  0
 14 96  1  0  0  0
 15 97  1  0  0  0
 16 17  2  0  0  0
 16 21  1  0  0  0
 16 31  1  0  0  0
 17 18  1  0  0  0
 17 98  1  0  0  0
 18 19  2  0  0  0
 18 99  1  0  0  0
 19 20  1  0  0  0
 19 24  1  0  0  0
 20 21  2  0  0  0
 20100  1  0  0  0
 21 23  1  0  0  0
 22 28  1  0  0  0
 22 32  2  0  0  0
 26 27  1  0  0  0
 28101  1  0  0  0
 28102  1  0  0  0
 29103  1  0  0  0
 29104  1  0  0  0
 33 34  1  0  0  0
 33 66  1  0  0  0
 33 70  2  0  0  0
 34 36  1  0  0  0
 34 59  1  0  0  0
 34105  1  0  0  0
 35 44  2  0  0  0
 35 45  1  0  0  0
 35 68  1  0  0  0
 36 56  1  0  0  0
 36106  1  0  0  0
 37 39  1  0  0  0
 37 47  1  0  0  0
 37 66  1  0  0  0
 37107  1  0  0  0
 38 43  2  0  0  0
 38 46  1  0  0  0
 38 47  1  0  0  0
 39 64  1  0  0  0
 39 67  2  0  0  0
 40 52  1  0  0  0
 40 53  2  0  0  0
 40 58  1  0  0  0
 41108  1  0  0  0
 41109  1  0  0  0
 41110  1  0  0  0
 41 48  1  0  0  0
 42 43  1  0  0  0
 42 66  1  0  0  0
 42111  1  0  0  0
 42112  1  0  0  0
 43 44  1  0  0  0
 44113  1  0  0  0
 45 46  2  0  0  0
 45114  1  0  0  0
 46115  1  0  0  0
 47116  1  0  0  0
 47117  1  0  0  0
 48 56  1  0  0  0
 48 65  1  0  0  0
 48118  1  0  0  0
 49 50  1  0  0  0
 49 53  1  0  0  0
 49 64  1  0  0  0
 49119  1  0  0  0
 50 51  1  0  0  0
 50120  1  0  0  0
 50121  1  0  0  0
 51 52  1  0  0  0
 51122  1  0  0  0
 51123  1  0  0  0
 52124  1  0  0  0
 52125  1  0  0  0
 53 54  1  0  0  0
 54 55  2  0  0  0
 54126  1  0  0  0
 55 57  1  0  0  0
 55127  1  0  0  0
 56 69  2  0  0  0
 57 58  2  0  0  0
 57128  1  0  0  0
 58129  1  0  0  0
 59 60  1  0  0  0
 59 61  1  0  0  0
 59 62  1  0  0  0
 60130  1  0  0  0
 60131  1  0  0  0
 60132  1  0  0  0
 61133  1  0  0  0
 61134  1  0  0  0
 61135  1  0  0  0
 62136  1  0  0  0
 62137  1  0  0  0
 62138  1  0  0  0
 63 65  1  0  0  0
 63139  1  0  0  0
 63140  1  0  0  0
 63141  1  0  0  0
 64142  1  0  0  0
 65143  1  0  0  0
 68 80  1  0  0  0
 71 81  2  0  0  0
 71 82  1  0  0  0
 71144  1  0  0  0
 72 73  2  0  0  0
 72 74  1  0  0  0
 72 79  1  0  0  0
 73 80  1  0  0  0
 73 81  1  0  0  0
 74 82  2  0  0  0
 74 83  1  0  0  0
 75 77  1  0  0  0
 75 83  1  0  0  0
 75145  1  0  0  0
 75146  1  0  0  0
 76 78  1  0  0  0
 76 83  1  0  0  0
 76147  1  0  0  0
 76148  1  0  0  0
 77 84  1  0  0  0
 77149  1  0  0  0
 77150  1  0  0  0
 78 84  1  0  0  0
 78151  1  0  0  0
 78152  1  0  0  0
 79153  1  0  0  0
 79154  1  0  0  0
 79155  1  0  0  0
 80156  1  0  0  0
 80157  1  0  0  0
M  ISO  4   1 100  68 101  80 101  84 100
M  END
> <chiral flag>
0

> <version>
0

> <s_m_source_file>
/data/baiqing/PycharmProjects/Reinvent-master-3.2/result/LINK_invent/BTK/process_docking_weight1_custom_sum_contain_oxygen_bond_distance_aromatic_linkinvent_7_9_3/rearranged_h_0198.sdf

> <i_m_source_file_index>
95

> <r_mmod_Potential_Energy-OPLS-2005>
127.334533691406

> <r_mmod_Stretch_Energy-OPLS-2005>
200.20979309082

> <r_mmod_Bend_Energy-OPLS-2005>
242.153289794922

> <r_mmod_Torsional_Energy-OPLS-2005>
358.054351806641

> <r_mmod_Improper_Torsional_Energy-OPLS-2005>
20.9487495422363

> <r_mmod_Van_der_Waal_Energy-OPLS-2005>
148.219467163086

> <r_mmod_Electrostatic_Energy-OPLS-2005>
-785.6201171875

> <r_mmod_Solvation_Energy-OPLS-2005>
-233.347274780273

> <b_mmod_Minimization_Converged-OPLS-2005>
0

> <r_mmod_RMS_Derivative-OPLS-2005>
1.0722029209137

$$$$
95
                    3D
 Structure written by MMmdl.
176186  0  0  1  0            999 V2000
  -30.7363  -14.3919   20.6789 C   0  0  0  0  0  0
  -30.4244  -12.3041   19.3903 C   0  0  0  0  0  0
  -29.4840  -12.5270   18.1898 C   0  0  0  0  0  0
  -28.0082  -12.3742   18.6072 C   0  0  0  0  0  0
  -27.6654  -13.1911   19.8795 C   0  0  2  0  0  0
  -28.7056  -12.9145   20.9874 C   0  0  0  0  0  0
  -25.2617  -13.8127   20.5673 C   0  0  0  0  0  0
  -24.1850  -13.0427   20.9173 C   0  0  0  0  0  0
  -24.6380  -11.6887   20.8732 C   0  0  0  0  0  0
  -23.9041  -10.4284   21.0407 C   0  0  0  0  0  0
  -24.3601   -9.4202   21.9182 C   0  0  0  0  0  0
  -23.6282   -8.2236   22.0751 C   0  0  0  0  0  0
  -22.4263   -8.0274   21.3543 C   0  0  0  0  0  0
  -21.9893   -9.0245   20.4645 C   0  0  0  0  0  0
  -22.7218  -10.2126   20.3054 C   0  0  0  0  0  0
  -21.6848   -6.0731   22.5279 C   0  0  0  0  0  0
  -21.4011   -6.5635   23.8211 C   0  0  0  0  0  0
  -21.3659   -5.6787   24.9172 C   0  0  0  0  0  0
  -21.6044   -4.3049   24.7222 C   0  0  0  0  0  0
  -21.8820   -3.8142   23.4343 C   0  0  0  0  0  0
  -21.9191   -4.6960   22.3401 C   0  0  0  0  0  0
  -22.7878  -13.5244   21.1840 C   0  0  0  0  0  0
  -22.1660   -4.2148   21.0978 F   0  0  0  0  0  0
  -21.5630   -3.4534   25.7735 F   0  0  0  0  0  0
  -30.0422  -13.2419   20.4568 N   0  0  0  0  0  0
  -26.3037  -12.9266   20.3374 N   0  0  0  0  0  0
  -25.9297  -11.6441   20.5754 N   0  0  0  0  0  0
  -22.0510  -12.8240   22.0395 N   0  0  0  0  0  0
  -25.4358  -15.1842   20.4065 N   0  0  0  0  0  0
  -31.7877  -14.6648   20.0893 O   0  0  0  0  0  0
  -21.6631   -6.8870   21.4238 O   0  0  0  0  0  0
  -22.3571  -14.5559   20.6698 O   0  0  0  0  0  0
  -24.6105  -31.8705   23.2126 C   0  0  0  0  0  0
  -25.9013  -32.4837   23.8413 C   0  0  1  0  0  0
  -27.2413  -27.4683   20.0959 C   0  0  0  0  0  0
  -25.5886  -33.8635   24.2347 N   0  0  0  0  0  0
  -23.3979  -30.4919   21.5518 C   0  0  2  0  0  0
  -24.8476  -28.9564   20.1211 C   0  0  0  0  0  0
  -22.7389  -29.4668   22.5015 C   0  0  0  0  0  0
  -18.0265  -28.1375   22.8495 C   0  0  0  0  0  0
  -24.1487  -36.7326   23.2637 C   0  0  0  0  0  0
  -25.9217  -30.8440   21.3623 C   0  0  0  0  0  0
  -26.0021  -29.4763   20.7206 C   0  0  0  0  0  0
  -27.2026  -28.7362   20.7142 C   0  0  0  0  0  0
  -26.0781  -26.9554   19.4890 C   0  0  0  0  0  0
  -24.8771  -27.6909   19.5069 C   0  0  0  0  0  0
  -23.6067  -29.8191   20.1679 C   0  0  0  0  0  0
  -25.4104  -36.3123   24.0342 C   0  0  1  0  0  0
  -20.5852  -28.3656   23.1332 C   0  0  2  0  0  0
  -20.6757  -26.9396   22.5424 C   0  0  0  0  0  0
  -19.5739  -26.6387   21.5215 C   0  0  0  0  0  0
  -18.1914  -26.7926   22.1620 C   0  0  0  0  0  0
  -19.1514  -28.8832   23.2912 C   0  0  0  0  0  0
  -18.9443  -30.1441   23.8918 C   0  0  0  0  0  0
  -17.6446  -30.6582   24.0568 C   0  0  0  0  0  0
  -25.9027  -34.9484   23.5141 C   0  0  0  0  0  0
  -16.5337  -29.9086   23.6326 C   0  0  0  0  0  0
  -16.7255  -28.6504   23.0344 C   0  0  0  0  0  0
  -26.4460  -31.6600   25.0722 C   0  0  0  0  0  0
  -25.3748  -31.3698   26.1489 C   0  0  0  0  0  0
  -27.0274  -30.3044   24.6065 C   0  0  0  0  0  0
  -27.6055  -32.4306   25.7468 C   0  0  0  0  0  0
  -27.5585  -37.1812   24.8462 C   0  0  0  0  0  0
  -21.4122  -29.3029   22.3748 N   0  0  0  0  0  0
  -26.4294  -37.3803   23.9412 N   0  0  0  0  0  0
  -24.6612  -31.0829   22.1013 N   0  0  0  0  0  0
  -23.4175  -28.8211   23.3046 O   0  0  0  0  0  0
  -28.4047  -26.7466   20.0206 O   0  0  0  0  0  0
  -26.5587  -34.8927   22.4701 O   0  0  0  0  0  0
  -23.5307  -32.1446   23.7539 O   0  0  0  0  0  0
  -30.3176  -25.8374   21.1825 C   0  0  0  0  0  0
  -29.0772  -15.9961   21.6529 C   0  0  0  0  0  0
  -31.0276  -16.2028   22.4131 C   0  0  0  0  0  0
  -30.4592  -24.5777   22.0324 C   0  0  0  0  0  0
  -29.7891  -20.4330   21.8773 C   0  0  0  0  0  0
  -28.1597  -24.7608   21.4461 C   0  0  0  0  0  0
  -29.9465  -17.2030   21.9926 C   0  0  0  0  0  0
  -29.8782  -21.6024   22.8589 C   0  0  2  0  0  0
  -28.8224  -26.1374   21.2398 C   0  0  2  0  0  0
  -29.6908  -20.5362   23.9500 C   0  0  2  0  0  0
  -30.3813  -21.9579   25.9417 C   0  0  0  0  0  0
  -30.2327  -19.4662   26.2207 C   0  0  0  0  0  0
  -29.3975  -18.2358   22.9869 C   0  0  0  0  0  0
  -28.8830  -22.7735   22.7746 C   0  0  0  0  0  0
  -30.5462  -20.6031   25.2317 C   0  0  0  0  0  0
  -30.2841  -15.1618   21.6927 N   0  0  0  0  0  0
  -29.2416  -23.7876   21.7484 N   0  3  2  0  0  0
  -30.1369  -19.5248   22.9740 N   0  3  1  0  0  0
  -31.4647  -12.4234   19.0817 H   0  0  0  0  0  0
  -30.3428  -11.2782   19.7530 H   0  0  0  0  0  0
  -29.7202  -11.8233   17.3907 H   0  0  0  0  0  0
  -29.6459  -13.5238   17.7765 H   0  0  0  0  0  0
  -27.8190  -11.3148   18.7855 H   0  0  0  0  0  0
  -27.3524  -12.6646   17.7855 H   0  0  0  0  0  0
  -27.7239  -14.2433   19.6060 H   0  0  0  0  0  0
  -28.6811  -11.8597   21.2651 H   0  0  0  0  0  0
  -28.4531  -13.4430   21.9051 H   0  0  0  0  0  0
  -25.2750   -9.5677   22.4749 H   0  0  0  0  0  0
  -23.9994   -7.4625   22.7466 H   0  0  0  0  0  0
  -21.0825   -8.8759   19.8950 H   0  0  0  0  0  0
  -22.3677  -10.9663   19.6161 H   0  0  0  0  0  0
  -21.2001   -7.6143   23.9715 H   0  0  0  0  0  0
  -21.1481   -6.0515   25.9075 H   0  0  0  0  0  0
  -22.0600   -2.7605   23.2841 H   0  0  0  0  0  0
  -22.4113  -11.9890   22.4773 H   0  0  0  0  0  0
  -21.1130  -13.1273   22.2605 H   0  0  0  0  0  0
  -24.6664  -15.8380   20.5032 H   0  0  0  0  0  0
  -26.2811  -15.6168   20.0579 H   0  0  0  0  0  0
  -26.7089  -32.5568   23.1190 H   0  0  0  0  0  0
  -25.0047  -33.9807   25.0497 H   0  0  0  0  0  0
  -22.6853  -31.3072   21.4112 H   0  0  0  0  0  0
  -23.3745  -35.9662   23.3302 H   0  0  0  0  0  0
  -24.3590  -36.8936   22.2053 H   0  0  0  0  0  0
  -23.7237  -37.6532   23.6646 H   0  0  0  0  0  0
  -26.0250  -31.6054   20.5879 H   0  0  0  0  0  0
  -26.8129  -30.9060   21.9746 H   0  0  0  0  0  0
  -28.0978  -29.1433   21.1633 H   0  0  0  0  0  0
  -26.1045  -25.9916   19.0005 H   0  0  0  0  0  0
  -23.9907  -27.2857   19.0382 H   0  0  0  0  0  0
  -23.7114  -30.5909   19.4044 H   0  0  0  0  0  0
  -22.7329  -29.2341   19.8753 H   0  0  0  0  0  0
  -25.1279  -36.1996   25.0837 H   0  0  0  0  0  0
  -20.9940  -28.3216   24.1454 H   0  0  0  0  0  0
  -20.5656  -26.2264   23.3607 H   0  0  0  0  0  0
  -21.6629  -26.7446   22.1218 H   0  0  0  0  0  0
  -19.6899  -25.6303   21.1231 H   0  0  0  0  0  0
  -19.6680  -27.3211   20.6756 H   0  0  0  0  0  0
  -17.4189  -26.6684   21.4015 H   0  0  0  0  0  0
  -18.0306  -26.0058   22.9006 H   0  0  0  0  0  0
  -19.7918  -30.7252   24.2296 H   0  0  0  0  0  0
  -17.5000  -31.6264   24.5163 H   0  0  0  0  0  0
  -15.5338  -30.2993   23.7639 H   0  0  0  0  0  0
  -15.8655  -28.0832   22.7043 H   0  0  0  0  0  0
  -24.5905  -30.7059   25.7836 H   0  0  0  0  0  0
  -24.8959  -32.2851   26.4978 H   0  0  0  0  0  0
  -25.8121  -30.8840   27.0222 H   0  0  0  0  0  0
  -26.2793  -29.6814   24.1146 H   0  0  0  0  0  0
  -27.4078  -29.7272   25.4504 H   0  0  0  0  0  0
  -27.8620  -30.4367   23.9176 H   0  0  0  0  0  0
  -27.2691  -33.3598   26.2080 H   0  0  0  0  0  0
  -28.3840  -32.6877   25.0273 H   0  0  0  0  0  0
  -28.0746  -31.8407   26.5352 H   0  0  0  0  0  0
  -28.2605  -38.0109   24.7517 H   0  0  0  0  0  0
  -28.1079  -36.2644   24.6272 H   0  0  0  0  0  0
  -27.2311  -37.1446   25.8867 H   0  0  0  0  0  0
  -20.9277  -29.8754   21.6976 H   0  0  0  0  0  0
  -26.0189  -38.2885   24.1412 H   0  0  0  0  0  0
  -30.6181  -25.6214   20.1567 H   0  0  0  0  0  0
  -30.9278  -26.6657   21.5422 H   0  0  0  0  0  0
  -28.5977  -16.0846   20.6770 H   0  0  0  0  0  0
  -28.3493  -15.7486   22.4278 H   0  0  0  0  0  0
  -31.0746  -16.0267   23.4892 H   0  0  0  0  0  0
  -32.0164  -16.4383   22.0145 H   0  0  0  0  0  0
  -30.4911  -24.8492   23.0891 H   0  0  0  0  0  0
  -31.3722  -24.0281   21.8015 H   0  0  0  0  0  0
  -30.5268  -20.4524   21.0744 H   0  0  0  0  0  0
  -28.7812  -20.2778   21.4875 H   0  0  0  0  0  0
  -27.6269  -24.4327   20.5531 H   0  0  0  0  0  0
  -27.4299  -24.8227   22.2550 H   0  0  0  0  0  0
  -30.2363  -17.6732   21.0500 H   0  0  0  0  0  0
  -30.9104  -21.9564   22.9053 H   0  0  0  0  0  0
  -28.6232  -26.7757   22.1034 H   0  0  0  0  0  0
  -28.6256  -20.4180   24.1656 H   0  0  0  0  0  0
  -30.7004  -22.7864   25.3094 H   0  0  0  0  0  0
  -30.9847  -22.0037   26.8492 H   0  0  0  0  0  0
  -29.3437  -22.1352   26.2273 H   0  0  0  0  0  0
  -30.5234  -18.4924   25.8293 H   0  0  0  0  0  0
  -29.1710  -19.4297   26.4683 H   0  0  0  0  0  0
  -30.7805  -19.5973   27.1548 H   0  0  0  0  0  0
  -29.4261  -17.8184   23.9917 H   0  0  0  0  0  0
  -28.3415  -18.4223   22.7877 H   0  0  0  0  0  0
  -28.7880  -23.2647   23.7440 H   0  0  0  0  0  0
  -27.8887  -22.3871   22.5453 H   0  0  0  0  0  0
  -31.6028  -20.5247   24.9683 H   0  0  0  0  0  0
  -29.4159  -23.2976   20.8820 H   0  0  0  0  0  0
  -31.1361  -19.3911   23.0304 H   0  0  0  0  0  0
  1 25  1  0  0  0
  1 30  2  0  0  0
  1 86  1  0  0  0
  2  3  1  0  0  0
  2 25  1  0  0  0
  2 89  1  0  0  0
  2 90  1  0  0  0
  3  4  1  0  0  0
  3 91  1  0  0  0
  3 92  1  0  0  0
  4  5  1  0  0  0
  4 93  1  0  0  0
  4 94  1  0  0  0
  5  6  1  0  0  0
  5 26  1  0  0  0
  5 95  1  0  0  0
  6 25  1  0  0  0
  6 96  1  0  0  0
  6 97  1  0  0  0
  7  8  2  0  0  0
  7 26  1  0  0  0
  7 29  1  0  0  0
  8  9  1  0  0  0
  8 22  1  0  0  0
  9 10  1  0  0  0
  9 27  2  0  0  0
 10 11  2  0  0  0
 10 15  1  0  0  0
 11 12  1  0  0  0
 11 98  1  0  0  0
 12 13  2  0  0  0
 12 99  1  0  0  0
 13 14  1  0  0  0
 13 31  1  0  0  0
 14 15  2  0  0  0
 14100  1  0  0  0
 15101  1  0  0  0
 16 17  2  0  0  0
 16 21  1  0  0  0
 16 31  1  0  0  0
 17 18  1  0  0  0
 17102  1  0  0  0
 18 19  2  0  0  0
 18103  1  0  0  0
 19 20  1  0  0  0
 19 24  1  0  0  0
 20 21  2  0  0  0
 20104  1  0  0  0
 21 23  1  0  0  0
 22 28  1  0  0  0
 22 32  2  0  0  0
 26 27  1  0  0  0
 28105  1  0  0  0
 28106  1  0  0  0
 29107  1  0  0  0
 29108  1  0  0  0
 33 34  1  0  0  0
 33 66  1  0  0  0
 33 70  2  0  0  0
 34 36  1  0  0  0
 34 59  1  0  0  0
 34109  1  0  0  0
 35 44  2  0  0  0
 35 45  1  0  0  0
 35 68  1  0  0  0
 36 56  1  0  0  0
 36110  1  0  0  0
 37 39  1  0  0  0
 37 47  1  0  0  0
 37 66  1  0  0  0
 37111  1  0  0  0
 38 43  2  0  0  0
 38 46  1  0  0  0
 38 47  1  0  0  0
 39 64  1  0  0  0
 39 67  2  0  0  0
 40 52  1  0  0  0
 40 53  2  0  0  0
 40 58  1  0  0  0
 41112  1  0  0  0
 41113  1  0  0  0
 41114  1  0  0  0
 41 48  1  0  0  0
 42 43  1  0  0  0
 42 66  1  0  0  0
 42115  1  0  0  0
 42116  1  0  0  0
 43 44  1  0  0  0
 44117  1  0  0  0
 45 46  2  0  0  0
 45118  1  0  0  0
 46119  1  0  0  0
 47120  1  0  0  0
 47121  1  0  0  0
 48 56  1  0  0  0
 48 65  1  0  0  0
 48122  1  0  0  0
 49 50  1  0  0  0
 49 53  1  0  0  0
 49 64  1  0  0  0
 49123  1  0  0  0
 50 51  1  0  0  0
 50124  1  0  0  0
 50125  1  0  0  0
 51 52  1  0  0  0
 51126  1  0  0  0
 51127  1  0  0  0
 52128  1  0  0  0
 52129  1  0  0  0
 53 54  1  0  0  0
 54 55  2  0  0  0
 54130  1  0  0  0
 55 57  1  0  0  0
 55131  1  0  0  0
 56 69  2  0  0  0
 57 58  2  0  0  0
 57132  1  0  0  0
 58133  1  0  0  0
 59 60  1  0  0  0
 59 61  1  0  0  0
 59 62  1  0  0  0
 60134  1  0  0  0
 60135  1  0  0  0
 60136  1  0  0  0
 61137  1  0  0  0
 61138  1  0  0  0
 61139  1  0  0  0
 62140  1  0  0  0
 62141  1  0  0  0
 62142  1  0  0  0
 63 65  1  0  0  0
 63143  1  0  0  0
 63144  1  0  0  0
 63145  1  0  0  0
 64146  1  0  0  0
 65147  1  0  0  0
 68 79  1  0  0  0
 71 74  1  0  0  0
 71 79  1  0  0  0
 71148  1  0  0  0
 71149  1  0  0  0
 72 77  1  0  0  0
 72 86  1  0  0  0
 72150  1  0  0  0
 72151  1  0  0  0
 73 77  1  0  0  0
 73 86  1  0  0  0
 73152  1  0  0  0
 73153  1  0  0  0
 74 87  1  0  0  0
 74154  1  0  0  0
 74155  1  0  0  0
 75 78  1  0  0  0
 75 88  1  0  0  0
 75156  1  0  0  0
 75157  1  0  0  0
 76 79  1  0  0  0
 76 87  1  0  0  0
 76158  1  0  0  0
 76159  1  0  0  0
 77 83  1  0  0  0
 77160  1  0  0  0
 78 80  1  0  0  0
 78 84  1  0  0  0
 78161  1  0  0  0
 79162  1  0  0  0
 80 85  1  0  0  0
 80 88  1  0  0  0
 80163  1  0  0  0
 81164  1  0  0  0
 81165  1  0  0  0
 81166  1  0  0  0
 81 85  1  0  0  0
 82 85  1  0  0  0
 82167  1  0  0  0
 82168  1  0  0  0
 82169  1  0  0  0
 83170  1  0  0  0
 83171  1  0  0  0
 83 88  1  0  0  0
 84172  1  0  0  0
 84173  1  0  0  0
 84 87  1  0  0  0
 85174  1  0  0  0
 87175  1  0  0  0
 88176  1  0  0  0
M  CHG  2  87   1  88   1
M  ISO  4   1 100  68 101  79 101  86 100
M  END
> <chiral flag>
0

> <version>
0

> <s_m_source_file>
/data/baiqing/PycharmProjects/Reinvent-master-3.2/result/LINK_invent/BTK/process_docking_weight1_custom_sum_contain_oxygen_bond_distance_aromatic_linkinvent_7_9_3/rearranged_h_0198.sdf

> <i_m_source_file_index>
96

> <r_mmod_Potential_Energy-OPLS-2005>
-75.7006683349609

> <r_mmod_Stretch_Energy-OPLS-2005>
34.7616386413574

> <r_mmod_Bend_Energy-OPLS-2005>
129.80696105957

> <r_mmod_Torsional_Energy-OPLS-2005>
401.931365966797

> <r_mmod_Improper_Torsional_Energy-OPLS-2005>
8.7039966583252

> <r_mmod_Van_der_Waal_Energy-OPLS-2005>
120.556701660156

> <r_mmod_Electrostatic_Energy-OPLS-2005>
152.516128540039

> <r_mmod_Solvation_Energy-OPLS-2005>
-930.697692871094

> <b_mmod_Minimization_Converged-OPLS-2005>
0

> <r_mmod_RMS_Derivative-OPLS-2005>
0.382438629865646

$$$$
96
                    3D
 Structure written by MMmdl.
168176  0  0  1  0            999 V2000
  -30.7070  -14.5165   20.5075 C   0  0  0  0  0  0
  -30.4025  -12.3231   19.4210 C   0  0  0  0  0  0
  -29.4736  -12.4877   18.2011 C   0  0  0  0  0  0
  -27.9989  -12.3453   18.6225 C   0  0  0  0  0  0
  -27.6423  -13.2049   19.8620 C   0  0  2  0  0  0
  -28.6961  -13.0554   20.9841 C   0  0  0  0  0  0
  -25.2477  -13.8134   20.5691 C   0  0  0  0  0  0
  -24.1770  -13.0422   20.9245 C   0  0  0  0  0  0
  -24.6332  -11.6883   20.8773 C   0  0  0  0  0  0
  -23.9021  -10.4270   21.0422 C   0  0  0  0  0  0
  -24.3591   -9.4192   21.9200 C   0  0  0  0  0  0
  -23.6277   -8.2232   22.0775 C   0  0  0  0  0  0
  -22.4269   -8.0264   21.3534 C   0  0  0  0  0  0
  -21.9883   -9.0238   20.4647 C   0  0  0  0  0  0
  -22.7201  -10.2116   20.3059 C   0  0  0  0  0  0
  -21.6835   -6.0729   22.5272 C   0  0  0  0  0  0
  -21.3997   -6.5635   23.8209 C   0  0  0  0  0  0
  -21.3651   -5.6780   24.9162 C   0  0  0  0  0  0
  -21.6041   -4.3053   24.7215 C   0  0  0  0  0  0
  -21.8816   -3.8140   23.4333 C   0  0  0  0  0  0
  -21.9177   -4.6966   22.3396 C   0  0  0  0  0  0
  -22.7801  -13.5233   21.1890 C   0  0  0  0  0  0
  -22.1660   -4.2145   21.0972 F   0  0  0  0  0  0
  -21.5619   -3.4541   25.7731 F   0  0  0  0  0  0
  -30.0167  -13.3451   20.4073 N   0  0  0  0  0  0
  -26.2896  -12.9306   20.3348 N   0  0  0  0  0  0
  -25.9240  -11.6467   20.5793 N   0  0  0  0  0  0
  -22.0430  -12.8259   22.0442 N   0  0  0  0  0  0
  -25.4098  -15.1863   20.3984 N   0  0  0  0  0  0
  -31.8755  -14.6269   20.1315 O   0  0  0  0  0  0
  -21.6628   -6.8888   21.4246 O   0  0  0  0  0  0
  -22.3484  -14.5543   20.6724 O   0  0  0  0  0  0
  -24.6159  -31.8682   23.2119 C   0  0  0  0  0  0
  -25.9067  -32.4822   23.8405 C   0  0  1  0  0  0
  -27.2451  -27.4383   20.0983 C   0  0  0  0  0  0
  -25.5923  -33.8612   24.2367 N   0  0  0  0  0  0
  -23.4053  -30.4887   21.5492 C   0  0  2  0  0  0
  -24.8565  -28.9484   20.1199 C   0  0  0  0  0  0
  -22.7434  -29.4676   22.4996 C   0  0  0  0  0  0
  -18.0268  -28.1402   22.8435 C   0  0  0  0  0  0
  -24.1483  -36.7285   23.2641 C   0  0  0  0  0  0
  -25.9327  -30.8331   21.3637 C   0  0  0  0  0  0
  -26.0123  -29.4633   20.7192 C   0  0  0  0  0  0
  -27.2127  -28.7156   20.7057 C   0  0  0  0  0  0
  -26.0769  -26.9392   19.4896 C   0  0  0  0  0  0
  -24.8828  -27.6859   19.4996 C   0  0  0  0  0  0
  -23.6178  -29.8138   20.1644 C   0  0  0  0  0  0
  -25.4102  -36.3101   24.0364 C   0  0  1  0  0  0
  -20.5882  -28.3643   23.1282 C   0  0  2  0  0  0
  -20.6788  -26.9441   22.5179 C   0  0  0  0  0  0
  -19.5711  -26.6498   21.5020 C   0  0  0  0  0  0
  -18.1899  -26.8002   22.1462 C   0  0  0  0  0  0
  -19.1534  -28.8802   23.2935 C   0  0  0  0  0  0
  -18.9470  -30.1335   23.9109 C   0  0  0  0  0  0
  -17.6457  -30.6489   24.0759 C   0  0  0  0  0  0
  -25.9034  -34.9467   23.5174 C   0  0  0  0  0  0
  -16.5363  -29.9105   23.6345 C   0  0  0  0  0  0
  -16.7261  -28.6553   23.0282 C   0  0  0  0  0  0
  -26.4490  -31.6589   25.0709 C   0  0  0  0  0  0
  -25.3781  -31.3635   26.1462 C   0  0  0  0  0  0
  -27.0319  -30.3060   24.6054 C   0  0  0  0  0  0
  -27.6084  -32.4276   25.7454 C   0  0  0  0  0  0
  -27.5587  -37.1812   24.8479 C   0  0  0  0  0  0
  -21.4159  -29.3103   22.3781 N   0  0  0  0  0  0
  -26.4283  -37.3798   23.9438 N   0  0  0  0  0  0
  -24.6696  -31.0792   22.1001 N   0  0  0  0  0  0
  -23.4225  -28.8203   23.3007 O   0  0  0  0  0  0
  -28.3995  -26.6883   20.0519 O   0  0  0  0  0  0
  -26.5552  -34.8902   22.4707 O   0  0  0  0  0  0
  -23.5367  -32.1371   23.7547 O   0  0  0  0  0  0
  -29.2711  -16.3761   19.8334 C   0  0  0  0  0  0
  -30.6268  -16.4996   21.8930 C   0  0  0  0  0  0
  -29.7168  -17.8567   19.6749 C   0  0  0  0  0  0
  -29.8755  -17.8339   22.1423 C   0  0  0  0  0  0
  -28.2725  -19.3960   21.1020 C   0  0  0  0  0  0
  -29.2058  -24.3546   20.4583 C   0  0  0  0  0  0
  -27.1076  -20.3747   18.9320 C   0  0  0  0  0  0
  -28.9426  -21.8352   20.1251 C   0  0  0  0  0  0
  -28.4482  -25.6065   20.9928 C   0  0  0  0  0  0
  -27.8901  -20.6758   20.2506 C   0  0  2  0  0  0
  -30.0084  -15.6263   20.8772 N   0  0  0  0  0  0
  -29.5713  -18.6523   20.9237 N   0  3  0  0  0  0
  -25.6620  -20.1467   19.1473 N   0  3  0  0  0  0
  -28.3096  -23.1975   20.1624 N   0  3  0  0  0  0
  -31.4455  -12.4086   19.1151 H   0  0  0  0  0  0
  -30.2956  -11.3264   19.8547 H   0  0  0  0  0  0
  -29.7150  -11.7430   17.4434 H   0  0  0  0  0  0
  -29.6303  -13.4625   17.7342 H   0  0  0  0  0  0
  -27.8205  -11.2935   18.8463 H   0  0  0  0  0  0
  -27.3343  -12.5905   17.7927 H   0  0  0  0  0  0
  -27.6543  -14.2355   19.5192 H   0  0  0  0  0  0
  -28.6856  -12.0431   21.3936 H   0  0  0  0  0  0
  -28.4686  -13.7212   21.8169 H   0  0  0  0  0  0
  -25.2712   -9.5691   22.4810 H   0  0  0  0  0  0
  -23.9967   -7.4608   22.7495 H   0  0  0  0  0  0
  -21.0812   -8.8744   19.8953 H   0  0  0  0  0  0
  -22.3636  -10.9673   19.6198 H   0  0  0  0  0  0
  -21.2006   -7.6137   23.9715 H   0  0  0  0  0  0
  -21.1484   -6.0512   25.9071 H   0  0  0  0  0  0
  -22.0612   -2.7614   23.2819 H   0  0  0  0  0  0
  -22.3975  -11.9900   22.4880 H   0  0  0  0  0  0
  -21.1074  -13.1349   22.2649 H   0  0  0  0  0  0
  -24.6186  -15.8184   20.4642 H   0  0  0  0  0  0
  -26.2296  -15.6145   19.9938 H   0  0  0  0  0  0
  -26.7170  -32.5545   23.1194 H   0  0  0  0  0  0
  -25.0178  -33.9777   25.0589 H   0  0  0  0  0  0
  -22.6953  -31.3062   21.4088 H   0  0  0  0  0  0
  -23.3741  -35.9628   23.3293 H   0  0  0  0  0  0
  -24.3570  -36.8880   22.2053 H   0  0  0  0  0  0
  -23.7212  -37.6499   23.6617 H   0  0  0  0  0  0
  -26.0465  -31.5967   20.5927 H   0  0  0  0  0  0
  -26.8224  -30.8890   21.9782 H   0  0  0  0  0  0
  -28.1093  -29.1177   21.1609 H   0  0  0  0  0  0
  -26.0928  -25.9786   18.9951 H   0  0  0  0  0  0
  -23.9984  -27.2891   19.0219 H   0  0  0  0  0  0
  -23.7336  -30.5855   19.4025 H   0  0  0  0  0  0
  -22.7444  -29.2328   19.8634 H   0  0  0  0  0  0
  -25.1280  -36.1995   25.0859 H   0  0  0  0  0  0
  -21.0035  -28.3041   24.1370 H   0  0  0  0  0  0
  -20.5848  -26.2185   23.3264 H   0  0  0  0  0  0
  -21.6629  -26.7628   22.0827 H   0  0  0  0  0  0
  -19.6847  -25.6488   21.0853 H   0  0  0  0  0  0
  -19.6564  -27.3436   20.6631 H   0  0  0  0  0  0
  -17.4190  -26.6866   21.3824 H   0  0  0  0  0  0
  -18.0224  -26.0089   22.8745 H   0  0  0  0  0  0
  -19.7920  -30.7022   24.2723 H   0  0  0  0  0  0
  -17.5005  -31.6067   24.5588 H   0  0  0  0  0  0
  -15.5385  -30.3054   23.7644 H   0  0  0  0  0  0
  -15.8625  -28.0956   22.6893 H   0  0  0  0  0  0
  -24.5996  -30.6940   25.7787 H   0  0  0  0  0  0
  -24.8905  -32.2752   26.4946 H   0  0  0  0  0  0
  -25.8176  -30.8795   27.0198 H   0  0  0  0  0  0
  -26.2846  -29.6797   24.1179 H   0  0  0  0  0  0
  -27.4191  -29.7326   25.4484 H   0  0  0  0  0  0
  -27.8638  -30.4388   23.9123 H   0  0  0  0  0  0
  -27.2771  -33.3589   26.2052 H   0  0  0  0  0  0
  -28.3898  -32.6805   25.0275 H   0  0  0  0  0  0
  -28.0754  -31.8362   26.5351 H   0  0  0  0  0  0
  -28.2633  -38.0082   24.7544 H   0  0  0  0  0  0
  -28.1055  -36.2628   24.6303 H   0  0  0  0  0  0
  -27.2300  -37.1477   25.8875 H   0  0  0  0  0  0
  -20.9285  -29.8960   21.7122 H   0  0  0  0  0  0
  -26.0171  -38.2887   24.1416 H   0  0  0  0  0  0
  -29.3674  -15.8853   18.8625 H   0  0  0  0  0  0
  -28.2082  -16.3593   20.0771 H   0  0  0  0  0  0
  -30.6794  -15.9498   22.8333 H   0  0  0  0  0  0
  -31.6608  -16.7252   21.6129 H   0  0  0  0  0  0
  -29.1988  -18.3279   18.8464 H   0  0  0  0  0  0
  -30.7706  -17.8804   19.3865 H   0  0  0  0  0  0
  -30.4526  -18.4467   22.8355 H   0  0  0  0  0  0
  -28.9478  -17.5859   22.6646 H   0  0  0  0  0  0
  -27.4596  -18.6712   21.0418 H   0  0  0  0  0  0
  -28.2661  -19.7312   22.1409 H   0  0  0  0  0  0
  -29.9159  -24.0434   21.2267 H   0  0  0  0  0  0
  -29.7971  -24.6168   19.5793 H   0  0  0  0  0  0
  -27.5033  -19.5131   18.4004 H   0  0  0  0  0  0
  -27.1993  -21.2120   18.2383 H   0  0  0  0  0  0
  -29.5360  -21.7239   19.2142 H   0  0  0  0  0  0
  -29.6501  -21.7614   20.9515 H   0  0  0  0  0  0
  -28.9825  -25.9967   21.8594 H   0  0  0  0  0  0
  -27.4591  -25.3382   21.3689 H   0  0  0  0  0  0
  -27.1370  -21.1224   20.9007 H   0  0  0  0  0  0
  -30.3071  -19.3404   20.8793 H   0  0  0  0  0  0
  -25.2195  -19.9220   18.2720 H   0  0  0  0  0  0
  -25.2057  -20.9691   19.5027 H   0  0  0  0  0  0
  -25.4810  -19.3842   19.7771 H   0  0  0  0  0  0
  -27.8304  -23.3786   19.2916 H   0  0  0  0  0  0
  -27.6131  -23.1842   20.8916 H   0  0  0  0  0  0
  1 25  1  0  0  0
  1 30  2  0  0  0
  1 81  1  0  0  0
  2  3  1  0  0  0
  2 25  1  0  0  0
  2 85  1  0  0  0
  2 86  1  0  0  0
  3  4  1  0  0  0
  3 87  1  0  0  0
  3 88  1  0  0  0
  4  5  1  0  0  0
  4 89  1  0  0  0
  4 90  1  0  0  0
  5  6  1  0  0  0
  5 26  1  0  0  0
  5 91  1  0  0  0
  6 25  1  0  0  0
  6 92  1  0  0  0
  6 93  1  0  0  0
  7  8  2  0  0  0
  7 26  1  0  0  0
  7 29  1  0  0  0
  8  9  1  0  0  0
  8 22  1  0  0  0
  9 10  1  0  0  0
  9 27  2  0  0  0
 10 11  2  0  0  0
 10 15  1  0  0  0
 11 12  1  0  0  0
 11 94  1  0  0  0
 12 13  2  0  0  0
 12 95  1  0  0  0
 13 14  1  0  0  0
 13 31  1  0  0  0
 14 15  2  0  0  0
 14 96  1  0  0  0
 15 97  1  0  0  0
 16 17  2  0  0  0
 16 21  1  0  0  0
 16 31  1  0  0  0
 17 18  1  0  0  0
 17 98  1  0  0  0
 18 19  2  0  0  0
 18 99  1  0  0  0
 19 20  1  0  0  0
 19 24  1  0  0  0
 20 21  2  0  0  0
 20100  1  0  0  0
 21 23  1  0  0  0
 22 28  1  0  0  0
 22 32  2  0  0  0
 26 27  1  0  0  0
 28101  1  0  0  0
 28102  1  0  0  0
 29103  1  0  0  0
 29104  1  0  0  0
 33 34  1  0  0  0
 33 66  1  0  0  0
 33 70  2  0  0  0
 34 36  1  0  0  0
 34 59  1  0  0  0
 34105  1  0  0  0
 35 44  2  0  0  0
 35 45  1  0  0  0
 35 68  1  0  0  0
 36 56  1  0  0  0
 36106  1  0  0  0
 37 39  1  0  0  0
 37 47  1  0  0  0
 37 66  1  0  0  0
 37107  1  0  0  0
 38 43  2  0  0  0
 38 46  1  0  0  0
 38 47  1  0  0  0
 39 64  1  0  0  0
 39 67  2  0  0  0
 40 52  1  0  0  0
 40 53  2  0  0  0
 40 58  1  0  0  0
 41108  1  0  0  0
 41109  1  0  0  0
 41110  1  0  0  0
 41 48  1  0  0  0
 42 43  1  0  0  0
 42 66  1  0  0  0
 42111  1  0  0  0
 42112  1  0  0  0
 43 44  1  0  0  0
 44113  1  0  0  0
 45 46  2  0  0  0
 45114  1  0  0  0
 46115  1  0  0  0
 47116  1  0  0  0
 47117  1  0  0  0
 48 56  1  0  0  0
 48 65  1  0  0  0
 48118  1  0  0  0
 49 50  1  0  0  0
 49 53  1  0  0  0
 49 64  1  0  0  0
 49119  1  0  0  0
 50 51  1  0  0  0
 50120  1  0  0  0
 50121  1  0  0  0
 51 52  1  0  0  0
 51122  1  0  0  0
 51123  1  0  0  0
 52124  1  0  0  0
 52125  1  0  0  0
 53 54  1  0  0  0
 54 55  2  0  0  0
 54126  1  0  0  0
 55 57  1  0  0  0
 55127  1  0  0  0
 56 69  2  0  0  0
 57 58  2  0  0  0
 57128  1  0  0  0
 58129  1  0  0  0
 59 60  1  0  0  0
 59 61  1  0  0  0
 59 62  1  0  0  0
 60130  1  0  0  0
 60131  1  0  0  0
 60132  1  0  0  0
 61133  1  0  0  0
 61134  1  0  0  0
 61135  1  0  0  0
 62136  1  0  0  0
 62137  1  0  0  0
 62138  1  0  0  0
 63 65  1  0  0  0
 63139  1  0  0  0
 63140  1  0  0  0
 63141  1  0  0  0
 64142  1  0  0  0
 65143  1  0  0  0
 68 79  1  0  0  0
 71 73  1  0  0  0
 71 81  1  0  0  0
 71144  1  0  0  0
 71145  1  0  0  0
 72 74  1  0  0  0
 72 81  1  0  0  0
 72146  1  0  0  0
 72147  1  0  0  0
 73 82  1  0  0  0
 73148  1  0  0  0
 73149  1  0  0  0
 74 82  1  0  0  0
 74150  1  0  0  0
 74151  1  0  0  0
 75152  1  0  0  0
 75153  1  0  0  0
 75 80  1  0  0  0
 75 82  1  0  0  0
 76 79  1  0  0  0
 76 84  1  0  0  0
 76154  1  0  0  0
 76155  1  0  0  0
 77 80  1  0  0  0
 77 83  1  0  0  0
 77156  1  0  0  0
 77157  1  0  0  0
 78 80  1  0  0  0
 78 84  1  0  0  0
 78158  1  0  0  0
 78159  1  0  0  0
 79160  1  0  0  0
 79161  1  0  0  0
 80162  1  0  0  0
 82163  1  0  0  0
 83164  1  0  0  0
 83165  1  0  0  0
 83166  1  0  0  0
 84167  1  0  0  0
 84168  1  0  0  0
M  CHG  3  82   1  83   1  84   1
M  ISO  4   1 100  68 101  79 101  81 100
M  END
> <chiral flag>
0

> <version>
0

> <s_m_source_file>
/data/baiqing/PycharmProjects/Reinvent-master-3.2/result/LINK_invent/BTK/process_docking_weight1_custom_sum_contain_oxygen_bond_distance_aromatic_linkinvent_7_9_3/rearranged_h_0198.sdf

> <i_m_source_file_index>
97

> <r_mmod_Potential_Energy-OPLS-2005>
-195.954620361328

> <r_mmod_Stretch_Energy-OPLS-2005>
49.6436386108398

> <r_mmod_Bend_Energy-OPLS-2005>
137.219039916992

> <r_mmod_Torsional_Energy-OPLS-2005>
477.435028076172

> <r_mmod_Improper_Torsional_Energy-OPLS-2005>
7.39700984954834

> <r_mmod_Van_der_Waal_Energy-OPLS-2005>
135.064743041992

> <r_mmod_Electrostatic_Energy-OPLS-2005>
818.767639160156

> <r_mmod_Solvation_Energy-OPLS-2005>
-1840.46301269531

> <b_mmod_Minimization_Converged-OPLS-2005>
0

> <r_mmod_RMS_Derivative-OPLS-2005>
4.41031360626221

$$$$
97
                    3D
 Structure written by MMmdl.
162172  0  0  1  0            999 V2000
  -30.7272  -14.4915   20.5642 C   0  0  0  0  0  0
  -30.4152  -12.3194   19.4358 C   0  0  0  0  0  0
  -29.4951  -12.4968   18.2119 C   0  0  0  0  0  0
  -28.0173  -12.3577   18.6239 C   0  0  0  0  0  0
  -27.6571  -13.2159   19.8674 C   0  0  2  0  0  0
  -28.6988  -13.0402   20.9955 C   0  0  0  0  0  0
  -25.2567  -13.8186   20.5685 C   0  0  0  0  0  0
  -24.1827  -13.0449   20.9176 C   0  0  0  0  0  0
  -24.6397  -11.6917   20.8730 C   0  0  0  0  0  0
  -23.9075  -10.4294   21.0394 C   0  0  0  0  0  0
  -24.3623   -9.4210   21.9170 C   0  0  0  0  0  0
  -23.6300   -8.2248   22.0748 C   0  0  0  0  0  0
  -22.4284   -8.0287   21.3542 C   0  0  0  0  0  0
  -21.9914   -9.0263   20.4647 C   0  0  0  0  0  0
  -22.7245  -10.2140   20.3051 C   0  0  0  0  0  0
  -21.6854   -6.0742   22.5285 C   0  0  0  0  0  0
  -21.4018   -6.5641   23.8217 C   0  0  0  0  0  0
  -21.3655   -5.6790   24.9172 C   0  0  0  0  0  0
  -21.6041   -4.3054   24.7223 C   0  0  0  0  0  0
  -21.8815   -3.8150   23.4339 C   0  0  0  0  0  0
  -21.9192   -4.6971   22.3398 C   0  0  0  0  0  0
  -22.7844  -13.5242   21.1831 C   0  0  0  0  0  0
  -22.1656   -4.2156   21.0975 F   0  0  0  0  0  0
  -21.5628   -3.4538   25.7730 F   0  0  0  0  0  0
  -30.0276  -13.3302   20.4356 N   0  0  0  0  0  0
  -26.3003  -12.9375   20.3336 N   0  0  0  0  0  0
  -25.9330  -11.6526   20.5756 N   0  0  0  0  0  0
  -22.0481  -12.8246   22.0396 N   0  0  0  0  0  0
  -25.4290  -15.1903   20.4102 N   0  0  0  0  0  0
  -31.8545  -14.6309   20.0849 O   0  0  0  0  0  0
  -21.6643   -6.8891   21.4248 O   0  0  0  0  0  0
  -22.3530  -14.5547   20.6674 O   0  0  0  0  0  0
  -24.6196  -31.8667   23.2122 C   0  0  0  0  0  0
  -25.9078  -32.4816   23.8406 C   0  0  1  0  0  0
  -27.2177  -27.3971   20.0930 C   0  0  0  0  0  0
  -25.5916  -33.8615   24.2335 N   0  0  0  0  0  0
  -23.4070  -30.4968   21.5534 C   0  0  2  0  0  0
  -24.8497  -28.9687   20.1114 C   0  0  0  0  0  0
  -22.7429  -29.4667   22.4968 C   0  0  0  0  0  0
  -18.0280  -28.1380   22.8487 C   0  0  0  0  0  0
  -24.1487  -36.7312   23.2630 C   0  0  0  0  0  0
  -25.9431  -30.8210   21.3740 C   0  0  0  0  0  0
  -26.0156  -29.4558   20.7151 C   0  0  0  0  0  0
  -27.2020  -28.6769   20.7066 C   0  0  0  0  0  0
  -26.0304  -26.9571   19.4542 C   0  0  0  0  0  0
  -24.8530  -27.7201   19.4771 C   0  0  0  0  0  0
  -23.6169  -29.8414   20.1648 C   0  0  0  0  0  0
  -25.4104  -36.3106   24.0335 C   0  0  1  0  0  0
  -20.5876  -28.3677   23.1300 C   0  0  2  0  0  0
  -20.6775  -26.9413   22.5406 C   0  0  0  0  0  0
  -19.5751  -26.6388   21.5209 C   0  0  0  0  0  0
  -18.1931  -26.7921   22.1627 C   0  0  0  0  0  0
  -19.1528  -28.8844   23.2888 C   0  0  0  0  0  0
  -18.9456  -30.1448   23.8910 C   0  0  0  0  0  0
  -17.6459  -30.6584   24.0570 C   0  0  0  0  0  0
  -25.9034  -34.9472   23.5130 C   0  0  0  0  0  0
  -16.5350  -29.9090   23.6326 C   0  0  0  0  0  0
  -16.7271  -28.6505   23.0349 C   0  0  0  0  0  0
  -26.4497  -31.6589   25.0735 C   0  0  0  0  0  0
  -25.3762  -31.3706   26.1485 C   0  0  0  0  0  0
  -27.0315  -30.3019   24.6133 C   0  0  0  0  0  0
  -27.6072  -32.4303   25.7499 C   0  0  0  0  0  0
  -27.5584  -37.1808   24.8463 C   0  0  0  0  0  0
  -21.4152  -29.3048   22.3707 N   0  0  0  0  0  0
  -26.4291  -37.3793   23.9416 N   0  0  0  0  0  0
  -24.6749  -31.0751   22.1044 N   0  0  0  0  0  0
  -23.4190  -28.8178   23.2993 O   0  0  0  0  0  0
  -28.3532  -26.5930   20.1459 O   0  0  0  0  0  0
  -26.5592  -34.8922   22.4689 O   0  0  0  0  0  0
  -23.5383  -32.1429   23.7510 O   0  0  0  0  0  0
  -30.4604  -24.6730   20.8765 C   0  0  0  0  0  0
  -31.0490  -23.5222   21.3373 C   0  0  0  0  0  0
  -30.0468  -22.5270   21.1498 C   0  0  0  0  0  0
  -33.2194  -24.4880   22.4863 C   0  0  0  0  0  0
  -33.6330  -23.8672   21.1726 C   0  0  0  0  0  0
  -28.9825  -18.9762   21.3490 C   0  0  0  0  0  0
  -32.4290  -23.3335   21.9116 C   0  0  0  0  0  0
  -29.9617  -18.0589   20.5942 C   0  0  2  0  0  0
  -29.6741  -20.1668   20.6646 C   0  0  2  0  0  0
  -30.6976  -16.8890   21.3067 C   0  0  0  0  0  0
  -28.1523  -25.2113   19.8691 C   0  0  0  0  0  0
  -28.9456  -23.0191   20.5946 N   0  0  0  0  0  0
  -29.1897  -24.3549   20.4478 N   0  0  0  0  0  0
  -30.0938  -15.5455   21.1258 N   0  0  0  0  0  0
  -30.8050  -19.2616   20.4631 N   0  3  0  0  0  0
  -30.1115  -21.2072   21.5582 O   0  0  0  0  0  0
  -31.4620  -12.3995   19.1360 H   0  0  0  0  0  0
  -30.3058  -11.3187   19.8563 H   0  0  0  0  0  0
  -29.7410  -11.7590   17.4467 H   0  0  0  0  0  0
  -29.6617  -13.4754   17.7589 H   0  0  0  0  0  0
  -27.8326  -11.3045   18.8367 H   0  0  0  0  0  0
  -27.3672  -12.6136   17.7862 H   0  0  0  0  0  0
  -27.6905  -14.2568   19.5449 H   0  0  0  0  0  0
  -28.6769  -12.0198   21.3801 H   0  0  0  0  0  0
  -28.4608  -13.6825   21.8439 H   0  0  0  0  0  0
  -25.2767   -9.5688   22.4742 H   0  0  0  0  0  0
  -24.0007   -7.4641   22.7471 H   0  0  0  0  0  0
  -21.0842   -8.8797   19.8953 H   0  0  0  0  0  0
  -22.3711  -10.9684   19.6161 H   0  0  0  0  0  0
  -21.2023   -7.6149   23.9725 H   0  0  0  0  0  0
  -21.1475   -6.0513   25.9075 H   0  0  0  0  0  0
  -22.0601   -2.7614   23.2832 H   0  0  0  0  0  0
  -22.4090  -11.9926   22.4820 H   0  0  0  0  0  0
  -21.1093  -13.1278   22.2577 H   0  0  0  0  0  0
  -24.6667  -15.8492   20.5272 H   0  0  0  0  0  0
  -26.2856  -15.6284   20.0968 H   0  0  0  0  0  0
  -26.7146  -32.5517   23.1160 H   0  0  0  0  0  0
  -25.0089  -33.9772   25.0499 H   0  0  0  0  0  0
  -22.6988  -31.3169   21.4194 H   0  0  0  0  0  0
  -23.3746  -35.9647   23.3296 H   0  0  0  0  0  0
  -24.3582  -36.8922   22.2044 H   0  0  0  0  0  0
  -23.7242  -37.6519   23.6646 H   0  0  0  0  0  0
  -26.0668  -31.5892   20.6095 H   0  0  0  0  0  0
  -26.8275  -30.8669   21.9977 H   0  0  0  0  0  0
  -28.0956  -29.0438   21.1929 H   0  0  0  0  0  0
  -25.9754  -26.0164   18.9277 H   0  0  0  0  0  0
  -23.9602  -27.3464   18.9943 H   0  0  0  0  0  0
  -23.7350  -30.6227   19.4130 H   0  0  0  0  0  0
  -22.7384  -29.2706   19.8597 H   0  0  0  0  0  0
  -25.1285  -36.1964   25.0830 H   0  0  0  0  0  0
  -20.9981  -28.3251   24.1414 H   0  0  0  0  0  0
  -20.5691  -26.2292   23.3600 H   0  0  0  0  0  0
  -21.6645  -26.7458   22.1196 H   0  0  0  0  0  0
  -19.6916  -25.6299   21.1238 H   0  0  0  0  0  0
  -19.6677  -27.3203   20.6744 H   0  0  0  0  0  0
  -17.4199  -26.6661   21.4033 H   0  0  0  0  0  0
  -18.0337  -26.0061   22.9028 H   0  0  0  0  0  0
  -19.7933  -30.7258   24.2288 H   0  0  0  0  0  0
  -17.5016  -31.6270   24.5162 H   0  0  0  0  0  0
  -15.5353  -30.3005   23.7633 H   0  0  0  0  0  0
  -15.8670  -28.0835   22.7059 H   0  0  0  0  0  0
  -24.5934  -30.7048   25.7837 H   0  0  0  0  0  0
  -24.8955  -32.2864   26.4941 H   0  0  0  0  0  0
  -25.8112  -30.8878   27.0243 H   0  0  0  0  0  0
  -26.2859  -29.6785   24.1182 H   0  0  0  0  0  0
  -27.4058  -29.7256   25.4602 H   0  0  0  0  0  0
  -27.8720  -30.4314   23.9308 H   0  0  0  0  0  0
  -27.2702  -33.3609   26.2083 H   0  0  0  0  0  0
  -28.3887  -32.6841   25.0324 H   0  0  0  0  0  0
  -28.0735  -31.8412   26.5411 H   0  0  0  0  0  0
  -28.2596  -38.0112   24.7532 H   0  0  0  0  0  0
  -28.1082  -36.2645   24.6264 H   0  0  0  0  0  0
  -27.2306  -37.1444   25.8864 H   0  0  0  0  0  0
  -20.9318  -29.8787   21.6937 H   0  0  0  0  0  0
  -26.0173  -38.2866   24.1428 H   0  0  0  0  0  0
  -30.8335  -25.6868   20.8234 H   0  0  0  0  0  0
  -32.7797  -25.4829   22.4574 H   0  0  0  0  0  0
  -33.8510  -24.2875   23.3500 H   0  0  0  0  0  0
  -34.5292  -23.2505   21.1653 H   0  0  0  0  0  0
  -33.4608  -24.4458   20.2664 H   0  0  0  0  0  0
  -29.1214  -18.9620   22.4321 H   0  0  0  0  0  0
  -27.9336  -18.8438   21.0793 H   0  0  0  0  0  0
  -32.5421  -22.3698   22.4067 H   0  0  0  0  0  0
  -29.5819  -17.7918   19.6053 H   0  0  0  0  0  0
  -29.2112  -20.4768   19.7242 H   0  0  0  0  0  0
  -30.7398  -17.0778   22.3805 H   0  0  0  0  0  0
  -31.7436  -16.8758   20.9937 H   0  0  0  0  0  0
  -28.1410  -25.0497   18.7895 H   0  0  0  0  0  0
  -27.2147  -24.8575   20.3026 H   0  0  0  0  0  0
  -29.1598  -15.3960   21.4772 H   0  0  0  0  0  0
  -31.2499  -19.3592   19.5645 H   0  0  0  0  0  0
  -31.4671  -19.3416   21.2145 H   0  0  0  0  0  0
  1 25  1  0  0  0
  1 30  2  0  0  0
  1 84  1  0  0  0
  2  3  1  0  0  0
  2 25  1  0  0  0
  2 87  1  0  0  0
  2 88  1  0  0  0
  3  4  1  0  0  0
  3 89  1  0  0  0
  3 90  1  0  0  0
  4  5  1  0  0  0
  4 91  1  0  0  0
  4 92  1  0  0  0
  5  6  1  0  0  0
  5 26  1  0  0  0
  5 93  1  0  0  0
  6 25  1  0  0  0
  6 94  1  0  0  0
  6 95  1  0  0  0
  7  8  2  0  0  0
  7 26  1  0  0  0
  7 29  1  0  0  0
  8  9  1  0  0  0
  8 22  1  0  0  0
  9 10  1  0  0  0
  9 27  2  0  0  0
 10 11  2  0  0  0
 10 15  1  0  0  0
 11 12  1  0  0  0
 11 96  1  0  0  0
 12 13  2  0  0  0
 12 97  1  0  0  0
 13 14  1  0  0  0
 13 31  1  0  0  0
 14 15  2  0  0  0
 14 98  1  0  0  0
 15 99  1  0  0  0
 16 17  2  0  0  0
 16 21  1  0  0  0
 16 31  1  0  0  0
 17 18  1  0  0  0
 17100  1  0  0  0
 18 19  2  0  0  0
 18101  1  0  0  0
 19 20  1  0  0  0
 19 24  1  0  0  0
 20 21  2  0  0  0
 20102  1  0  0  0
 21 23  1  0  0  0
 22 28  1  0  0  0
 22 32  2  0  0  0
 26 27  1  0  0  0
 28103  1  0  0  0
 28104  1  0  0  0
 29105  1  0  0  0
 29106  1  0  0  0
 33 34  1  0  0  0
 33 66  1  0  0  0
 33 70  2  0  0  0
 34 36  1  0  0  0
 34 59  1  0  0  0
 34107  1  0  0  0
 35 44  2  0  0  0
 35 45  1  0  0  0
 35 68  1  0  0  0
 36 56  1  0  0  0
 36108  1  0  0  0
 37 39  1  0  0  0
 37 47  1  0  0  0
 37 66  1  0  0  0
 37109  1  0  0  0
 38 43  2  0  0  0
 38 46  1  0  0  0
 38 47  1  0  0  0
 39 64  1  0  0  0
 39 67  2  0  0  0
 40 52  1  0  0  0
 40 53  2  0  0  0
 40 58  1  0  0  0
 41110  1  0  0  0
 41111  1  0  0  0
 41112  1  0  0  0
 41 48  1  0  0  0
 42 43  1  0  0  0
 42 66  1  0  0  0
 42113  1  0  0  0
 42114  1  0  0  0
 43 44  1  0  0  0
 44115  1  0  0  0
 45 46  2  0  0  0
 45116  1  0  0  0
 46117  1  0  0  0
 47118  1  0  0  0
 47119  1  0  0  0
 48 56  1  0  0  0
 48 65  1  0  0  0
 48120  1  0  0  0
 49 50  1  0  0  0
 49 53  1  0  0  0
 49 64  1  0  0  0
 49121  1  0  0  0
 50 51  1  0  0  0
 50122  1  0  0  0
 50123  1  0  0  0
 51 52  1  0  0  0
 51124  1  0  0  0
 51125  1  0  0  0
 52126  1  0  0  0
 52127  1  0  0  0
 53 54  1  0  0  0
 54 55  2  0  0  0
 54128  1  0  0  0
 55 57  1  0  0  0
 55129  1  0  0  0
 56 69  2  0  0  0
 57 58  2  0  0  0
 57130  1  0  0  0
 58131  1  0  0  0
 59 60  1  0  0  0
 59 61  1  0  0  0
 59 62  1  0  0  0
 60132  1  0  0  0
 60133  1  0  0  0
 60134  1  0  0  0
 61135  1  0  0  0
 61136  1  0  0  0
 61137  1  0  0  0
 62138  1  0  0  0
 62139  1  0  0  0
 62140  1  0  0  0
 63 65  1  0  0  0
 63141  1  0  0  0
 63142  1  0  0  0
 63143  1  0  0  0
 64144  1  0  0  0
 65145  1  0  0  0
 68 81  1  0  0  0
 71 72  2  0  0  0
 71 83  1  0  0  0
 71146  1  0  0  0
 72 73  1  0  0  0
 72 77  1  0  0  0
 73 82  2  0  0  0
 73 86  1  0  0  0
 74 75  1  0  0  0
 74 77  1  0  0  0
 74147  1  0  0  0
 74148  1  0  0  0
 75 77  1  0  0  0
 75149  1  0  0  0
 75150  1  0  0  0
 76 78  1  0  0  0
 76 79  1  0  0  0
 76151  1  0  0  0
 76152  1  0  0  0
 77153  1  0  0  0
 78 80  1  0  0  0
 78 85  1  0  0  0
 78154  1  0  0  0
 79 85  1  0  0  0
 79 86  1  0  0  0
 79155  1  0  0  0
 80 84  1  0  0  0
 80156  1  0  0  0
 80157  1  0  0  0
 81 83  1  0  0  0
 81158  1  0  0  0
 81159  1  0  0  0
 82 83  1  0  0  0
 84160  1  0  0  0
 85161  1  0  0  0
 85162  1  0  0  0
M  CHG  1  85   1
M  ISO  4   1 100  68 101  81 101  84 100
M  END
> <chiral flag>
0

> <version>
0

> <s_m_source_file>
/data/baiqing/PycharmProjects/Reinvent-master-3.2/result/LINK_invent/BTK/process_docking_weight1_custom_sum_contain_oxygen_bond_distance_aromatic_linkinvent_7_9_3/rearranged_h_0198.sdf

> <i_m_source_file_index>
98

> <r_mmod_Potential_Energy-OPLS-2005>
-310.689727783203

> <r_mmod_Stretch_Energy-OPLS-2005>
42.7711982727051

> <r_mmod_Bend_Energy-OPLS-2005>
118.935813903809

> <r_mmod_Torsional_Energy-OPLS-2005>
263.261901855469

> <r_mmod_Improper_Torsional_Energy-OPLS-2005>
2.98357892036438

> <r_mmod_Van_der_Waal_Energy-OPLS-2005>
136.138656616211

> <r_mmod_Electrostatic_Energy-OPLS-2005>
-409.386474609375

> <r_mmod_Solvation_Energy-OPLS-2005>
-486.263122558594

> <b_mmod_Minimization_Converged-OPLS-2005>
0

> <r_mmod_RMS_Derivative-OPLS-2005>
1.47916173934937

$$$$
