0
                    3D
 Structure written by MMmdl.
183191  0  0  1  0            999 V2000
  -30.8102  -14.5330   20.3833 C   0  0  0  0  0  0
  -30.4131  -12.3422   19.3895 C   0  0  0  0  0  0
  -29.4709  -12.4278   18.1787 C   0  0  0  0  0  0
  -28.0095  -12.2543   18.6378 C   0  0  0  0  0  0
  -27.6336  -13.1753   19.8256 C   0  0  2  0  0  0
  -28.7214  -13.1642   20.9322 C   0  0  0  0  0  0
  -25.2612  -13.7915   20.5971 C   0  0  0  0  0  0
  -24.1787  -13.0250   20.9269 C   0  0  0  0  0  0
  -24.6346  -11.6740   20.8798 C   0  0  0  0  0  0
  -23.9023  -10.4170   21.0449 C   0  0  0  0  0  0
  -24.3579   -9.4095   21.9215 C   0  0  0  0  0  0
  -23.6248   -8.2138   22.0754 C   0  0  0  0  0  0
  -22.4234   -8.0224   21.3540 C   0  0  0  0  0  0
  -21.9872   -9.0211   20.4642 C   0  0  0  0  0  0
  -22.7204  -10.2076   20.3074 C   0  0  0  0  0  0
  -21.6814   -6.0727   22.5309 C   0  0  0  0  0  0
  -21.3980   -6.5641   23.8247 C   0  0  0  0  0  0
  -21.3648   -5.6805   24.9219 C   0  0  0  0  0  0
  -21.6027   -4.3057   24.7263 C   0  0  0  0  0  0
  -21.8808   -3.8154   23.4389 C   0  0  0  0  0  0
  -21.9166   -4.6967   22.3439 C   0  0  0  0  0  0
  -22.7834  -13.5142   21.1889 C   0  0  0  0  0  0
  -22.1638   -4.2153   21.1021 F   0  0  0  0  0  0
  -21.5632   -3.4536   25.7775 F   0  0  0  0  0  0
  -30.0097  -13.4360   20.2785 N   0  0  0  0  0  0
  -26.2957  -12.9054   20.3364 N   0  0  0  0  0  0
  -25.9264  -11.6263   20.5815 N   0  0  0  0  0  0
  -22.0441  -12.8171   22.0439 N   0  0  0  0  0  0
  -25.4393  -15.1614   20.4919 N   0  0  0  0  0  0
  -32.0167  -14.3761   20.5119 O   0  0  0  0  0  0
  -21.6567   -6.8854   21.4261 O   0  0  0  0  0  0
  -22.3568  -14.5468   20.6741 O   0  0  0  0  0  0
  -24.6082  -31.8733   23.2167 C   0  0  0  0  0  0
  -25.9017  -32.4831   23.8401 C   0  0  1  0  0  0
  -27.2206  -27.4794   20.0735 C   0  0  0  0  0  0
  -25.5929  -33.8630   24.2347 N   0  0  0  0  0  0
  -23.3897  -30.4981   21.5593 C   0  0  2  0  0  0
  -24.8332  -28.9756   20.1033 C   0  0  0  0  0  0
  -22.7368  -29.4669   22.5039 C   0  0  0  0  0  0
  -18.0277  -28.1375   22.8467 C   0  0  0  0  0  0
  -24.1485  -36.7315   23.2624 C   0  0  0  0  0  0
  -25.9139  -30.8431   21.3672 C   0  0  0  0  0  0
  -25.9900  -29.4829   20.7120 C   0  0  0  0  0  0
  -27.1843  -28.7360   20.7100 C   0  0  0  0  0  0
  -26.0626  -26.9892   19.4350 C   0  0  0  0  0  0
  -24.8628  -27.7212   19.4666 C   0  0  0  0  0  0
  -23.5922  -29.8368   20.1678 C   0  0  0  0  0  0
  -25.4113  -36.3114   24.0315 C   0  0  1  0  0  0
  -20.5871  -28.3669   23.1374 C   0  0  2  0  0  0
  -20.6851  -26.9421   22.5449 C   0  0  0  0  0  0
  -19.5855  -26.6395   21.5238 C   0  0  0  0  0  0
  -18.1961  -26.7926   22.1592 C   0  0  0  0  0  0
  -19.1523  -28.8838   23.2893 C   0  0  0  0  0  0
  -18.9457  -30.1452   23.8869 C   0  0  0  0  0  0
  -17.6470  -30.6592   24.0575 C   0  0  0  0  0  0
  -25.9037  -34.9468   23.5113 C   0  0  0  0  0  0
  -16.5362  -29.9096   23.6355 C   0  0  0  0  0  0
  -16.7275  -28.6526   23.0335 C   0  0  0  0  0  0
  -26.4507  -31.6573   25.0680 C   0  0  0  0  0  0
  -25.3840  -31.3668   26.1469 C   0  0  0  0  0  0
  -27.0301  -30.2998   24.5995 C   0  0  0  0  0  0
  -27.6071  -32.4298   25.7471 C   0  0  0  0  0  0
  -27.5572  -37.1801   24.8448 C   0  0  0  0  0  0
  -21.4113  -29.3010   22.3772 N   0  0  0  0  0  0
  -26.4300  -37.3799   23.9394 N   0  0  0  0  0  0
  -24.6563  -31.0821   22.1072 N   0  0  0  0  0  0
  -23.4178  -28.8199   23.3048 O   0  0  0  0  0  0
  -28.3480  -26.6989   20.1078 O   0  0  0  0  0  0
  -26.5568  -34.8910   22.4644 O   0  0  0  0  0  0
  -23.5297  -32.1499   23.7567 O   0  0  0  0  0  0
  -29.0932  -17.6415   20.5901 C   0  0  0  0  0  0
  -28.4703  -16.5816   18.3664 C   0  0  0  0  0  0
  -27.6775  -18.2421   20.6337 C   0  0  0  0  0  0
  -27.1209  -17.3380   18.4043 C   0  0  0  0  0  0
  -29.0968  -16.3373   19.7773 C   0  0  1  0  0  0
  -32.5026  -17.2018   19.9170 C   0  0  0  0  0  0
  -32.1003  -15.7566   17.8260 C   0  0  0  0  0  0
  -24.7538  -21.3503   20.3905 C   0  0  0  0  0  0
  -25.9985  -20.7651   19.6823 C   0  0  0  0  0  0
  -25.0296  -22.6385   21.1987 C   0  0  0  0  0  0
  -27.4186  -24.9796   21.6012 C   0  0  0  0  0  0
  -25.8538  -19.2656   19.3121 C   0  0  0  0  0  0
  -25.8613  -22.4025   22.4913 C   0  0  0  0  0  0
  -27.4092  -24.3359   22.9966 C   0  0  0  0  0  0
  -28.5242  -26.0320   21.3637 C   0  0  0  0  0  0
  -31.4546  -16.5172   19.0056 C   0  0  0  0  0  0
  -30.4305  -15.6843   19.7258 N   0  0  0  0  0  0
  -27.1603  -18.5523   19.2694 N   0  3  1  0  0  0
  -26.1332  -23.6286   23.2803 N   0  3  0  0  0  0
  -31.4513  -12.4268   19.0578 H   0  0  0  0  0  0
  -30.3322  -11.3790   19.8958 H   0  0  0  0  0  0
  -29.7297  -11.6590   17.4490 H   0  0  0  0  0  0
  -29.5975  -13.3857   17.6717 H   0  0  0  0  0  0
  -27.8883  -11.2107   18.9313 H   0  0  0  0  0  0
  -27.3279  -12.4169   17.8021 H   0  0  0  0  0  0
  -27.5736  -14.1501   19.3644 H   0  0  0  0  0  0
  -28.7569  -12.1959   21.4332 H   0  0  0  0  0  0
  -28.5130  -13.9016   21.7080 H   0  0  0  0  0  0
  -25.2720   -9.5548   22.4799 H   0  0  0  0  0  0
  -23.9934   -7.4512   22.7470 H   0  0  0  0  0  0
  -21.0787   -8.8754   19.8966 H   0  0  0  0  0  0
  -22.3677  -10.9648   19.6201 H   0  0  0  0  0  0
  -21.1964   -7.6148   23.9755 H   0  0  0  0  0  0
  -21.1473   -6.0539   25.9127 H   0  0  0  0  0  0
  -22.0585   -2.7615   23.2901 H   0  0  0  0  0  0
  -22.3989  -11.9780   22.4793 H   0  0  0  0  0  0
  -21.1100  -13.1302   22.2648 H   0  0  0  0  0  0
  -24.7197  -15.7786   20.8497 H   0  0  0  0  0  0
  -26.3629  -15.5633   20.4936 H   0  0  0  0  0  0
  -26.7082  -32.5569   23.1166 H   0  0  0  0  0  0
  -25.0194  -33.9831   25.0567 H   0  0  0  0  0  0
  -22.6772  -31.3147   21.4308 H   0  0  0  0  0  0
  -23.3740  -35.9652   23.3300 H   0  0  0  0  0  0
  -24.3582  -36.8925   22.2037 H   0  0  0  0  0  0
  -23.7239  -37.6525   23.6636 H   0  0  0  0  0  0
  -26.0126  -31.6077   20.5961 H   0  0  0  0  0  0
  -26.8078  -30.8975   21.9764 H   0  0  0  0  0  0
  -28.0717  -29.1075   21.2036 H   0  0  0  0  0  0
  -26.0785  -26.0265   18.9444 H   0  0  0  0  0  0
  -23.9744  -27.3267   18.9918 H   0  0  0  0  0  0
  -23.6889  -30.6186   19.4132 H   0  0  0  0  0  0
  -22.7152  -29.2563   19.8768 H   0  0  0  0  0  0
  -25.1295  -36.1998   25.0814 H   0  0  0  0  0  0
  -20.9932  -28.3282   24.1516 H   0  0  0  0  0  0
  -20.5864  -26.2253   23.3594 H   0  0  0  0  0  0
  -21.6743  -26.7599   22.1210 H   0  0  0  0  0  0
  -19.7066  -25.6299   21.1323 H   0  0  0  0  0  0
  -19.6851  -27.3187   20.6755 H   0  0  0  0  0  0
  -17.4314  -26.6725   21.3904 H   0  0  0  0  0  0
  -18.0276  -26.0034   22.8937 H   0  0  0  0  0  0
  -19.7934  -30.7261   24.2225 H   0  0  0  0  0  0
  -17.5060  -31.6262   24.5198 H   0  0  0  0  0  0
  -15.5378  -30.3000   23.7737 H   0  0  0  0  0  0
  -15.8647  -28.0888   22.7056 H   0  0  0  0  0  0
  -24.5997  -30.7014   25.7837 H   0  0  0  0  0  0
  -24.9070  -32.2834   26.4935 H   0  0  0  0  0  0
  -25.8254  -30.8849   27.0200 H   0  0  0  0  0  0
  -26.2783  -29.6775   24.1114 H   0  0  0  0  0  0
  -27.4158  -29.7184   25.4386 H   0  0  0  0  0  0
  -27.8597  -30.4284   23.9034 H   0  0  0  0  0  0
  -27.2653  -33.3581   26.2052 H   0  0  0  0  0  0
  -28.3895  -32.6885   25.0329 H   0  0  0  0  0  0
  -28.0730  -31.8437   26.5411 H   0  0  0  0  0  0
  -28.2588  -38.0100   24.7523 H   0  0  0  0  0  0
  -28.1081  -36.2627   24.6281 H   0  0  0  0  0  0
  -27.2280  -37.1455   25.8848 H   0  0  0  0  0  0
  -20.9223  -29.8729   21.7022 H   0  0  0  0  0  0
  -26.0181  -38.2864   24.1455 H   0  0  0  0  0  0
  -29.4318  -17.4401   21.6077 H   0  0  0  0  0  0
  -29.7811  -18.3804   20.1792 H   0  0  0  0  0  0
  -29.1191  -17.1755   17.7261 H   0  0  0  0  0  0
  -28.3521  -15.6421   17.8277 H   0  0  0  0  0  0
  -27.6929  -19.1348   21.2580 H   0  0  0  0  0  0
  -26.9975  -17.5477   21.1307 H   0  0  0  0  0  0
  -26.3287  -16.6716   18.7279 H   0  0  0  0  0  0
  -26.8495  -17.6242   17.3867 H   0  0  0  0  0  0
  -28.4334  -15.7062   20.3520 H   0  0  0  0  0  0
  -33.0488  -17.9656   19.3609 H   0  0  0  0  0  0
  -33.2505  -16.5126   20.3107 H   0  0  0  0  0  0
  -32.0345  -17.7054   20.7623 H   0  0  0  0  0  0
  -32.6490  -16.4341   17.1696 H   0  0  0  0  0  0
  -31.3456  -15.2571   17.2183 H   0  0  0  0  0  0
  -32.8061  -14.9958   18.1621 H   0  0  0  0  0  0
  -24.3156  -20.6100   21.0597 H   0  0  0  0  0  0
  -23.9863  -21.5523   19.6420 H   0  0  0  0  0  0
  -26.8710  -20.9202   20.3093 H   0  0  0  0  0  0
  -26.2079  -21.3463   18.7822 H   0  0  0  0  0  0
  -24.0682  -23.0768   21.4753 H   0  0  0  0  0  0
  -25.4983  -23.3653   20.5398 H   0  0  0  0  0  0
  -26.4402  -25.4380   21.4673 H   0  0  0  0  0  0
  -27.5153  -24.2121   20.8353 H   0  0  0  0  0  0
  -25.3419  -19.1918   18.3508 H   0  0  0  0  0  0
  -25.2078  -18.7486   20.0238 H   0  0  0  0  0  0
  -26.8047  -21.8990   22.2838 H   0  0  0  0  0  0
  -25.3054  -21.7253   23.1385 H   0  0  0  0  0  0
  -27.5279  -25.1136   23.7539 H   0  0  0  0  0  0
  -28.2554  -23.6595   23.1242 H   0  0  0  0  0  0
  -29.4990  -25.5438   21.3616 H   0  0  0  0  0  0
  -28.5488  -26.7595   22.1760 H   0  0  0  0  0  0
  -30.9747  -17.3710   18.5409 H   0  0  0  0  0  0
  -27.8071  -19.1912   18.8313 H   0  0  0  0  0  0
  -26.1840  -23.3437   24.2480 H   0  0  0  0  0  0
  -25.3545  -24.2629   23.2128 H   0  0  0  0  0  0
  1 25  1  0  0  0
  1 30  2  0  0  0
  1 87  1  0  0  0
  2  3  1  0  0  0
  2 25  1  0  0  0
  2 90  1  0  0  0
  2 91  1  0  0  0
  3  4  1  0  0  0
  3 92  1  0  0  0
  3 93  1  0  0  0
  4  5  1  0  0  0
  4 94  1  0  0  0
  4 95  1  0  0  0
  5  6  1  0  0  0
  5 26  1  0  0  0
  5 96  1  0  0  0
  6 25  1  0  0  0
  6 97  1  0  0  0
  6 98  1  0  0  0
  7  8  2  0  0  0
  7 26  1  0  0  0
  7 29  1  0  0  0
  8  9  1  0  0  0
  8 22  1  0  0  0
  9 10  1  0  0  0
  9 27  2  0  0  0
 10 11  2  0  0  0
 10 15  1  0  0  0
 11 12  1  0  0  0
 11 99  1  0  0  0
 12 13  2  0  0  0
 12100  1  0  0  0
 13 14  1  0  0  0
 13 31  1  0  0  0
 14 15  2  0  0  0
 14101  1  0  0  0
 15102  1  0  0  0
 16 17  2  0  0  0
 16 21  1  0  0  0
 16 31  1  0  0  0
 17 18  1  0  0  0
 17103  1  0  0  0
 18 19  2  0  0  0
 18104  1  0  0  0
 19 20  1  0  0  0
 19 24  1  0  0  0
 20 21  2  0  0  0
 20105  1  0  0  0
 21 23  1  0  0  0
 22 28  1  0  0  0
 22 32  2  0  0  0
 26 27  1  0  0  0
 28106  1  0  0  0
 28107  1  0  0  0
 29108  1  0  0  0
 29109  1  0  0  0
 33 34  1  0  0  0
 33 66  1  0  0  0
 33 70  2  0  0  0
 34 36  1  0  0  0
 34 59  1  0  0  0
 34110  1  0  0  0
 35 44  2  0  0  0
 35 45  1  0  0  0
 35 68  1  0  0  0
 36 56  1  0  0  0
 36111  1  0  0  0
 37 39  1  0  0  0
 37 47  1  0  0  0
 37 66  1  0  0  0
 37112  1  0  0  0
 38 43  2  0  0  0
 38 46  1  0  0  0
 38 47  1  0  0  0
 39 64  1  0  0  0
 39 67  2  0  0  0
 40 52  1  0  0  0
 40 53  2  0  0  0
 40 58  1  0  0  0
 41113  1  0  0  0
 41114  1  0  0  0
 41115  1  0  0  0
 41 48  1  0  0  0
 42 43  1  0  0  0
 42 66  1  0  0  0
 42116  1  0  0  0
 42117  1  0  0  0
 43 44  1  0  0  0
 44118  1  0  0  0
 45 46  2  0  0  0
 45119  1  0  0  0
 46120  1  0  0  0
 47121  1  0  0  0
 47122  1  0  0  0
 48 56  1  0  0  0
 48 65  1  0  0  0
 48123  1  0  0  0
 49 50  1  0  0  0
 49 53  1  0  0  0
 49 64  1  0  0  0
 49124  1  0  0  0
 50 51  1  0  0  0
 50125  1  0  0  0
 50126  1  0  0  0
 51 52  1  0  0  0
 51127  1  0  0  0
 51128  1  0  0  0
 52129  1  0  0  0
 52130  1  0  0  0
 53 54  1  0  0  0
 54 55  2  0  0  0
 54131  1  0  0  0
 55 57  1  0  0  0
 55132  1  0  0  0
 56 69  2  0  0  0
 57 58  2  0  0  0
 57133  1  0  0  0
 58134  1  0  0  0
 59 60  1  0  0  0
 59 61  1  0  0  0
 59 62  1  0  0  0
 60135  1  0  0  0
 60136  1  0  0  0
 60137  1  0  0  0
 61138  1  0  0  0
 61139  1  0  0  0
 61140  1  0  0  0
 62141  1  0  0  0
 62142  1  0  0  0
 62143  1  0  0  0
 63 65  1  0  0  0
 63144  1  0  0  0
 63145  1  0  0  0
 63146  1  0  0  0
 64147  1  0  0  0
 65148  1  0  0  0
 68 85  1  0  0  0
 71 73  1  0  0  0
 71 75  1  0  0  0
 71149  1  0  0  0
 71150  1  0  0  0
 72 74  1  0  0  0
 72 75  1  0  0  0
 72151  1  0  0  0
 72152  1  0  0  0
 73 88  1  0  0  0
 73153  1  0  0  0
 73154  1  0  0  0
 74 88  1  0  0  0
 74155  1  0  0  0
 74156  1  0  0  0
 75 87  1  0  0  0
 75157  1  0  0  0
 76158  1  0  0  0
 76159  1  0  0  0
 76160  1  0  0  0
 76 86  1  0  0  0
 77 86  1  0  0  0
 77161  1  0  0  0
 77162  1  0  0  0
 77163  1  0  0  0
 78 79  1  0  0  0
 78 80  1  0  0  0
 78164  1  0  0  0
 78165  1  0  0  0
 79 82  1  0  0  0
 79166  1  0  0  0
 79167  1  0  0  0
 80 83  1  0  0  0
 80168  1  0  0  0
 80169  1  0  0  0
 81 84  1  0  0  0
 81 85  1  0  0  0
 81170  1  0  0  0
 81171  1  0  0  0
 82172  1  0  0  0
 82173  1  0  0  0
 82 88  1  0  0  0
 83 89  1  0  0  0
 83174  1  0  0  0
 83175  1  0  0  0
 84 89  1  0  0  0
 84176  1  0  0  0
 84177  1  0  0  0
 85178  1  0  0  0
 85179  1  0  0  0
 86 87  1  0  0  0
 86180  1  0  0  0
 88181  1  0  0  0
 89182  1  0  0  0
 89183  1  0  0  0
M  CHG  2  88   1  89   1
M  ISO  4   1 100  68 101  85 101  87 100
M  END
> <chiral flag>
0

> <version>
0

> <s_m_source_file>
/data/baiqing/PycharmProjects/Reinvent-master-3.2/result/LINK_invent/BTK/process_docking_weight1_custom_sum_contain_oxygen_bond_distance_aromatic_linkinvent_7_9_3/rearranged_h_0111.sdf

> <i_m_source_file_index>
1

> <r_mmod_Potential_Energy-OPLS-2005>
146.914077758789

> <r_mmod_Stretch_Energy-OPLS-2005>
45.5543746948242

> <r_mmod_Bend_Energy-OPLS-2005>
125.288429260254

> <r_mmod_Torsional_Energy-OPLS-2005>
385.046630859375

> <r_mmod_Improper_Torsional_Energy-OPLS-2005>
25.5257205963135

> <r_mmod_Van_der_Waal_Energy-OPLS-2005>
146.614166259766

> <r_mmod_Electrostatic_Energy-OPLS-2005>
238.094635009766

> <r_mmod_Solvation_Energy-OPLS-2005>
-893.760070800781

> <b_mmod_Minimization_Converged-OPLS-2005>
0

> <r_mmod_RMS_Derivative-OPLS-2005>
4.07635307312012

$$$$
1
                    3D
 Structure written by MMmdl.
175183  0  0  1  0            999 V2000
  -30.7128  -14.5481   20.3479 C   0  0  0  0  0  0
  -30.4030  -12.3058   19.4322 C   0  0  0  0  0  0
  -29.4748  -12.4059   18.2064 C   0  0  0  0  0  0
  -27.9978  -12.3147   18.6258 C   0  0  0  0  0  0
  -27.6402  -13.2155   19.8413 C   0  0  2  0  0  0
  -28.7010  -13.1359   20.9593 C   0  0  0  0  0  0
  -25.2549  -13.8220   20.5745 C   0  0  0  0  0  0
  -24.1814  -13.0468   20.9222 C   0  0  0  0  0  0
  -24.6371  -11.6937   20.8745 C   0  0  0  0  0  0
  -23.9063  -10.4308   21.0412 C   0  0  0  0  0  0
  -24.3621   -9.4228   21.9199 C   0  0  0  0  0  0
  -23.6307   -8.2255   22.0768 C   0  0  0  0  0  0
  -22.4285   -8.0303   21.3553 C   0  0  0  0  0  0
  -21.9911   -9.0272   20.4650 C   0  0  0  0  0  0
  -22.7233  -10.2156   20.3060 C   0  0  0  0  0  0
  -21.6869   -6.0759   22.5296 C   0  0  0  0  0  0
  -21.4004   -6.5652   23.8225 C   0  0  0  0  0  0
  -21.3640   -5.6796   24.9177 C   0  0  0  0  0  0
  -21.6030   -4.3059   24.7229 C   0  0  0  0  0  0
  -21.8813   -3.8168   23.4354 C   0  0  0  0  0  0
  -21.9205   -4.6986   22.3415 C   0  0  0  0  0  0
  -22.7855  -13.5290   21.1898 C   0  0  0  0  0  0
  -22.1681   -4.2175   21.0989 F   0  0  0  0  0  0
  -21.5623   -3.4535   25.7737 F   0  0  0  0  0  0
  -30.0047  -13.3867   20.3400 N   0  0  0  0  0  0
  -26.2954  -12.9382   20.3343 N   0  0  0  0  0  0
  -25.9288  -11.6546   20.5814 N   0  0  0  0  0  0
  -22.0497  -12.8267   22.0439 N   0  0  0  0  0  0
  -25.4249  -15.1936   20.4235 N   0  0  0  0  0  0
  -31.9410  -14.5330   20.4168 O   0  0  0  0  0  0
  -21.6651   -6.8900   21.4255 O   0  0  0  0  0  0
  -22.3550  -14.5598   20.6757 O   0  0  0  0  0  0
  -24.6156  -31.8660   23.2094 C   0  0  0  0  0  0
  -25.9038  -32.4817   23.8391 C   0  0  1  0  0  0
  -27.2160  -27.4168   20.1131 C   0  0  0  0  0  0
  -25.5894  -33.8618   24.2319 N   0  0  0  0  0  0
  -23.4055  -30.4891   21.5488 C   0  0  2  0  0  0
  -24.8524  -28.9585   20.1063 C   0  0  0  0  0  0
  -22.7425  -29.4652   22.4983 C   0  0  0  0  0  0
  -18.0269  -28.1377   22.8495 C   0  0  0  0  0  0
  -24.1481  -36.7305   23.2640 C   0  0  0  0  0  0
  -25.9347  -30.8283   21.3641 C   0  0  0  0  0  0
  -26.0124  -29.4635   20.7099 C   0  0  0  0  0  0
  -27.2030  -28.6976   20.7129 C   0  0  0  0  0  0
  -26.0519  -26.9345   19.4884 C   0  0  0  0  0  0
  -24.8673  -27.6942   19.4910 C   0  0  0  0  0  0
  -23.6138  -29.8244   20.1613 C   0  0  0  0  0  0
  -25.4106  -36.3107   24.0339 C   0  0  1  0  0  0
  -20.5862  -28.3671   23.1314 C   0  0  2  0  0  0
  -20.6764  -26.9404   22.5415 C   0  0  0  0  0  0
  -19.5744  -26.6380   21.5216 C   0  0  0  0  0  0
  -18.1917  -26.7925   22.1623 C   0  0  0  0  0  0
  -19.1522  -28.8841   23.2895 C   0  0  0  0  0  0
  -18.9454  -30.1445   23.8913 C   0  0  0  0  0  0
  -17.6459  -30.6586   24.0568 C   0  0  0  0  0  0
  -25.9041  -34.9477   23.5129 C   0  0  0  0  0  0
  -16.5344  -29.9087   23.6337 C   0  0  0  0  0  0
  -16.7261  -28.6501   23.0362 C   0  0  0  0  0  0
  -26.4458  -31.6609   25.0731 C   0  0  0  0  0  0
  -25.3710  -31.3712   26.1474 C   0  0  0  0  0  0
  -27.0296  -30.3059   24.6105 C   0  0  0  0  0  0
  -27.6041  -32.4334   25.7483 C   0  0  0  0  0  0
  -27.5583  -37.1793   24.8458 C   0  0  0  0  0  0
  -21.4158  -29.3023   22.3703 N   0  0  0  0  0  0
  -26.4287  -37.3800   23.9420 N   0  0  0  0  0  0
  -24.6702  -31.0759   22.0986 N   0  0  0  0  0  0
  -23.4184  -28.8184   23.3021 O   0  0  0  0  0  0
  -28.3001  -26.5752   20.2099 O   0  0  0  0  0  0
  -26.5608  -34.8933   22.4692 O   0  0  0  0  0  0
  -23.5347  -32.1414   23.7481 O   0  0  0  0  0  0
  -28.0325  -16.9683   19.4945 C   0  0  0  0  0  0
  -27.5203  -18.0405   20.1682 C   0  0  0  0  0  0
  -29.1021  -16.4555   20.2796 C   0  0  0  0  0  0
  -29.1703  -17.1713   21.4504 C   0  0  0  0  0  0
  -30.0906  -17.0541   22.6256 C   0  0  0  0  0  0
  -28.4159  -24.0556   23.7867 C   0  0  0  0  0  0
  -26.1274  -20.8882   21.7217 C   0  0  0  0  0  0
  -31.8031  -17.4409   19.2433 C   0  0  0  0  0  0
  -31.6006  -15.5101   17.5811 C   0  0  0  0  0  0
  -28.2716  -24.2038   21.2223 C   0  0  0  0  0  0
  -28.3486  -21.8785   22.5564 C   0  0  0  0  0  0
  -28.0882  -19.3413   22.2912 C   0  0  0  0  0  0
  -28.2388  -25.7603   21.4033 C   0  0  0  0  0  0
  -27.8833  -23.3790   22.5042 C   0  0  1  0  0  0
  -27.6625  -20.7476   21.7235 C   0  0  1  0  0  0
  -30.8743  -16.3585   18.6508 C   0  0  0  0  0  0
  -28.2533  -18.2307   21.3332 N   0  0  0  0  0  0
  -30.1258  -15.6159   19.7172 N   0  0  0  0  0  0
  -31.4481  -12.3818   19.1254 H   0  0  0  0  0  0
  -30.2963  -11.3374   19.9238 H   0  0  0  0  0  0
  -29.7096  -11.6105   17.4981 H   0  0  0  0  0  0
  -29.6346  -13.3374   17.6739 H   0  0  0  0  0  0
  -27.7953  -11.2705   18.8634 H   0  0  0  0  0  0
  -27.3599  -12.5598   17.7749 H   0  0  0  0  0  0
  -27.6350  -14.2339   19.4617 H   0  0  0  0  0  0
  -28.6884  -12.1584   21.4427 H   0  0  0  0  0  0
  -28.4979  -13.8744   21.7368 H   0  0  0  0  0  0
  -25.2751   -9.5730   22.4785 H   0  0  0  0  0  0
  -24.0045   -7.4644   22.7471 H   0  0  0  0  0  0
  -21.0850   -8.8786   19.8932 H   0  0  0  0  0  0
  -22.3712  -10.9715   19.6182 H   0  0  0  0  0  0
  -21.1976   -7.6149   23.9730 H   0  0  0  0  0  0
  -21.1475   -6.0528   25.9076 H   0  0  0  0  0  0
  -22.0600   -2.7643   23.2854 H   0  0  0  0  0  0
  -22.4103  -11.9883   22.4739 H   0  0  0  0  0  0
  -21.1129  -13.1301   22.2674 H   0  0  0  0  0  0
  -24.6710  -15.8490   20.5888 H   0  0  0  0  0  0
  -26.3064  -15.6528   20.2181 H   0  0  0  0  0  0
  -26.7109  -32.5530   23.1162 H   0  0  0  0  0  0
  -25.0045  -33.9784   25.0462 H   0  0  0  0  0  0
  -22.6957  -31.3077   21.4110 H   0  0  0  0  0  0
  -23.3758  -35.9621   23.3291 H   0  0  0  0  0  0
  -24.3578  -36.8937   22.2059 H   0  0  0  0  0  0
  -23.7214  -37.6498   23.6665 H   0  0  0  0  0  0
  -26.0504  -31.5931   20.5953 H   0  0  0  0  0  0
  -26.8216  -30.8816   21.9834 H   0  0  0  0  0  0
  -28.0903  -29.0670   21.2073 H   0  0  0  0  0  0
  -26.0545  -25.9521   19.0355 H   0  0  0  0  0  0
  -23.9746  -27.2976   19.0267 H   0  0  0  0  0  0
  -23.7206  -30.6018   19.4034 H   0  0  0  0  0  0
  -22.7369  -29.2455   19.8668 H   0  0  0  0  0  0
  -25.1274  -36.1975   25.0831 H   0  0  0  0  0  0
  -20.9965  -28.3231   24.1434 H   0  0  0  0  0  0
  -20.5689  -26.2272   23.3596 H   0  0  0  0  0  0
  -21.6629  -26.7443   22.1193 H   0  0  0  0  0  0
  -19.6905  -25.6297   21.1234 H   0  0  0  0  0  0
  -19.6689  -27.3204   20.6756 H   0  0  0  0  0  0
  -17.4186  -26.6690   21.4013 H   0  0  0  0  0  0
  -18.0301  -26.0054   22.9011 H   0  0  0  0  0  0
  -19.7928  -30.7246   24.2300 H   0  0  0  0  0  0
  -17.5015  -31.6280   24.5142 H   0  0  0  0  0  0
  -15.5351  -30.2995   23.7662 H   0  0  0  0  0  0
  -15.8659  -28.0833   22.7085 H   0  0  0  0  0  0
  -24.5890  -30.7056   25.7802 H   0  0  0  0  0  0
  -24.8886  -32.2861   26.4928 H   0  0  0  0  0  0
  -25.8048  -30.8876   27.0233 H   0  0  0  0  0  0
  -26.2841  -29.6830   24.1152 H   0  0  0  0  0  0
  -27.4068  -29.7302   25.4567 H   0  0  0  0  0  0
  -27.8672  -30.4408   23.9258 H   0  0  0  0  0  0
  -27.2679  -33.3645   26.2064 H   0  0  0  0  0  0
  -28.3835  -32.6877   25.0285 H   0  0  0  0  0  0
  -28.0716  -31.8446   26.5390 H   0  0  0  0  0  0
  -28.2568  -38.0124   24.7567 H   0  0  0  0  0  0
  -28.1107  -36.2660   24.6201 H   0  0  0  0  0  0
  -27.2307  -37.1348   25.8859 H   0  0  0  0  0  0
  -20.9317  -29.8752   21.6937 H   0  0  0  0  0  0
  -26.0173  -38.2868   24.1468 H   0  0  0  0  0  0
  -27.7352  -16.6565   18.5012 H   0  0  0  0  0  0
  -26.7383  -18.7253   19.8747 H   0  0  0  0  0  0
  -30.5462  -16.0663   22.6786 H   0  0  0  0  0  0
  -29.5513  -17.2041   23.5603 H   0  0  0  0  0  0
  -30.8886  -17.7925   22.5708 H   0  0  0  0  0  0
  -27.9834  -25.0412   23.9499 H   0  0  0  0  0  0
  -29.5004  -24.1650   23.7605 H   0  0  0  0  0  0
  -28.1672  -23.4819   24.6797 H   0  0  0  0  0  0
  -25.8132  -21.8103   21.2335 H   0  0  0  0  0  0
  -25.7288  -20.8935   22.7369 H   0  0  0  0  0  0
  -25.6374  -20.0713   21.1945 H   0  0  0  0  0  0
  -31.2543  -18.1321   19.8837 H   0  0  0  0  0  0
  -32.2524  -18.0434   18.4543 H   0  0  0  0  0  0
  -32.6167  -17.0133   19.8304 H   0  0  0  0  0  0
  -32.0875  -16.1643   16.8568 H   0  0  0  0  0  0
  -30.9104  -14.8969   17.0084 H   0  0  0  0  0  0
  -32.3839  -14.8713   17.9871 H   0  0  0  0  0  0
  -29.2683  -23.9187   20.8868 H   0  0  0  0  0  0
  -27.5923  -23.9228   20.4169 H   0  0  0  0  0  0
  -28.2416  -21.5562   23.5936 H   0  0  0  0  0  0
  -29.4219  -21.8395   22.3654 H   0  0  0  0  0  0
  -27.3964  -19.0137   23.0691 H   0  0  0  0  0  0
  -29.0468  -19.4627   22.7952 H   0  0  0  0  0  0
  -29.0847  -26.0607   22.0224 H   0  0  0  0  0  0
  -27.3510  -26.0104   21.9894 H   0  0  0  0  0  0
  -26.7959  -23.4051   22.5939 H   0  0  0  0  0  0
  -28.0172  -20.8367   20.6955 H   0  0  0  0  0  0
  -30.1409  -16.9112   18.0626 H   0  0  0  0  0  0
  1 25  1  0  0  0
  1 30  2  0  0  0
  1 88  1  0  0  0
  2  3  1  0  0  0
  2 25  1  0  0  0
  2 89  1  0  0  0
  2 90  1  0  0  0
  3  4  1  0  0  0
  3 91  1  0  0  0
  3 92  1  0  0  0
  4  5  1  0  0  0
  4 93  1  0  0  0
  4 94  1  0  0  0
  5  6  1  0  0  0
  5 26  1  0  0  0
  5 95  1  0  0  0
  6 25  1  0  0  0
  6 96  1  0  0  0
  6 97  1  0  0  0
  7  8  2  0  0  0
  7 26  1  0  0  0
  7 29  1  0  0  0
  8  9  1  0  0  0
  8 22  1  0  0  0
  9 10  1  0  0  0
  9 27  2  0  0  0
 10 11  2  0  0  0
 10 15  1  0  0  0
 11 12  1  0  0  0
 11 98  1  0  0  0
 12 13  2  0  0  0
 12 99  1  0  0  0
 13 14  1  0  0  0
 13 31  1  0  0  0
 14 15  2  0  0  0
 14100  1  0  0  0
 15101  1  0  0  0
 16 17  2  0  0  0
 16 21  1  0  0  0
 16 31  1  0  0  0
 17 18  1  0  0  0
 17102  1  0  0  0
 18 19  2  0  0  0
 18103  1  0  0  0
 19 20  1  0  0  0
 19 24  1  0  0  0
 20 21  2  0  0  0
 20104  1  0  0  0
 21 23  1  0  0  0
 22 28  1  0  0  0
 22 32  2  0  0  0
 26 27  1  0  0  0
 28105  1  0  0  0
 28106  1  0  0  0
 29107  1  0  0  0
 29108  1  0  0  0
 33 34  1  0  0  0
 33 66  1  0  0  0
 33 70  2  0  0  0
 34 36  1  0  0  0
 34 59  1  0  0  0
 34109  1  0  0  0
 35 44  2  0  0  0
 35 45  1  0  0  0
 35 68  1  0  0  0
 36 56  1  0  0  0
 36110  1  0  0  0
 37 39  1  0  0  0
 37 47  1  0  0  0
 37 66  1  0  0  0
 37111  1  0  0  0
 38 43  2  0  0  0
 38 46  1  0  0  0
 38 47  1  0  0  0
 39 64  1  0  0  0
 39 67  2  0  0  0
 40 52  1  0  0  0
 40 53  2  0  0  0
 40 58  1  0  0  0
 41112  1  0  0  0
 41113  1  0  0  0
 41114  1  0  0  0
 41 48  1  0  0  0
 42 43  1  0  0  0
 42 66  1  0  0  0
 42115  1  0  0  0
 42116  1  0  0  0
 43 44  1  0  0  0
 44117  1  0  0  0
 45 46  2  0  0  0
 45118  1  0  0  0
 46119  1  0  0  0
 47120  1  0  0  0
 47121  1  0  0  0
 48 56  1  0  0  0
 48 65  1  0  0  0
 48122  1  0  0  0
 49 50  1  0  0  0
 49 53  1  0  0  0
 49 64  1  0  0  0
 49123  1  0  0  0
 50 51  1  0  0  0
 50124  1  0  0  0
 50125  1  0  0  0
 51 52  1  0  0  0
 51126  1  0  0  0
 51127  1  0  0  0
 52128  1  0  0  0
 52129  1  0  0  0
 53 54  1  0  0  0
 54 55  2  0  0  0
 54130  1  0  0  0
 55 57  1  0  0  0
 55131  1  0  0  0
 56 69  2  0  0  0
 57 58  2  0  0  0
 57132  1  0  0  0
 58133  1  0  0  0
 59 60  1  0  0  0
 59 61  1  0  0  0
 59 62  1  0  0  0
 60134  1  0  0  0
 60135  1  0  0  0
 60136  1  0  0  0
 61137  1  0  0  0
 61138  1  0  0  0
 61139  1  0  0  0
 62140  1  0  0  0
 62141  1  0  0  0
 62142  1  0  0  0
 63 65  1  0  0  0
 63143  1  0  0  0
 63144  1  0  0  0
 63145  1  0  0  0
 64146  1  0  0  0
 65147  1  0  0  0
 68 83  1  0  0  0
 71 72  2  0  0  0
 71 73  1  0  0  0
 71148  1  0  0  0
 72 87  1  0  0  0
 72149  1  0  0  0
 73 74  2  0  0  0
 73 88  1  0  0  0
 74 75  1  0  0  0
 74 87  1  0  0  0
 75150  1  0  0  0
 75151  1  0  0  0
 75152  1  0  0  0
 76153  1  0  0  0
 76154  1  0  0  0
 76155  1  0  0  0
 76 84  1  0  0  0
 77156  1  0  0  0
 77157  1  0  0  0
 77158  1  0  0  0
 77 85  1  0  0  0
 78159  1  0  0  0
 78160  1  0  0  0
 78161  1  0  0  0
 78 86  1  0  0  0
 79 86  1  0  0  0
 79162  1  0  0  0
 79163  1  0  0  0
 79164  1  0  0  0
 80 83  1  0  0  0
 80 84  1  0  0  0
 80165  1  0  0  0
 80166  1  0  0  0
 81 84  1  0  0  0
 81 85  1  0  0  0
 81167  1  0  0  0
 81168  1  0  0  0
 82 85  1  0  0  0
 82 87  1  0  0  0
 82169  1  0  0  0
 82170  1  0  0  0
 83171  1  0  0  0
 83172  1  0  0  0
 84173  1  0  0  0
 85174  1  0  0  0
 86 88  1  0  0  0
 86175  1  0  0  0
M  ISO  4   1 100  68 101  83 101  88 100
M  END
> <chiral flag>
0

> <version>
0

> <s_m_source_file>
/data/baiqing/PycharmProjects/Reinvent-master-3.2/result/LINK_invent/BTK/process_docking_weight1_custom_sum_contain_oxygen_bond_distance_aromatic_linkinvent_7_9_3/rearranged_h_0111.sdf

> <i_m_source_file_index>
2

> <r_mmod_Potential_Energy-OPLS-2005>
371.559753417969

> <r_mmod_Stretch_Energy-OPLS-2005>
52.0578575134277

> <r_mmod_Bend_Energy-OPLS-2005>
144.381698608398

> <r_mmod_Torsional_Energy-OPLS-2005>
381.186431884766

> <r_mmod_Improper_Torsional_Energy-OPLS-2005>
25.3733959197998

> <r_mmod_Van_der_Waal_Energy-OPLS-2005>
126.338043212891

> <r_mmod_Electrostatic_Energy-OPLS-2005>
-245.201858520508

> <r_mmod_Solvation_Energy-OPLS-2005>
-170.73371887207

> <b_mmod_Minimization_Converged-OPLS-2005>
0

> <r_mmod_RMS_Derivative-OPLS-2005>
2.99647402763367

$$$$
2
                    3D
 Structure written by MMmdl.
152160  0  0  1  0            999 V2000
  -30.4964  -14.9871   20.3717 C   0  0  0  0  0  0
  -30.4357  -12.6070   19.4898 C   0  0  0  0  0  0
  -29.5207  -12.5392   18.2477 C   0  0  0  0  0  0
  -28.0509  -12.3322   18.6588 C   0  0  0  0  0  0
  -27.6245  -13.2527   19.8337 C   0  0  2  0  0  0
  -28.6688  -13.2812   20.9671 C   0  0  0  0  0  0
  -25.2434  -13.8218   20.5682 C   0  0  0  0  0  0
  -24.1760  -13.0430   20.9193 C   0  0  0  0  0  0
  -24.6395  -11.6925   20.8737 C   0  0  0  0  0  0
  -23.9102  -10.4291   21.0403 C   0  0  0  0  0  0
  -24.3648   -9.4218   21.9190 C   0  0  0  0  0  0
  -23.6317   -8.2266   22.0755 C   0  0  0  0  0  0
  -22.4301   -8.0280   21.3536 C   0  0  0  0  0  0
  -21.9935   -9.0248   20.4645 C   0  0  0  0  0  0
  -22.7264  -10.2133   20.3067 C   0  0  0  0  0  0
  -21.6870   -6.0740   22.5257 C   0  0  0  0  0  0
  -21.4028   -6.5642   23.8181 C   0  0  0  0  0  0
  -21.3684   -5.6786   24.9146 C   0  0  0  0  0  0
  -21.6057   -4.3045   24.7203 C   0  0  0  0  0  0
  -21.8833   -3.8137   23.4320 C   0  0  0  0  0  0
  -21.9202   -4.6965   22.3378 C   0  0  0  0  0  0
  -22.7782  -13.5197   21.1859 C   0  0  0  0  0  0
  -22.1659   -4.2159   21.0962 F   0  0  0  0  0  0
  -21.5651   -3.4525   25.7720 F   0  0  0  0  0  0
  -29.9349  -13.7092   20.3601 N   0  0  0  0  0  0
  -26.2861  -12.9465   20.3211 N   0  0  0  0  0  0
  -25.9334  -11.6586   20.5702 N   0  0  0  0  0  0
  -22.0445  -12.8190   22.0420 N   0  0  0  0  0  0
  -25.4074  -15.1959   20.4170 N   0  0  0  0  0  0
  -31.7072  -15.0631   20.1325 O   0  0  0  0  0  0
  -21.6654   -6.8888   21.4223 O   0  0  0  0  0  0
  -22.3479  -14.5494   20.6700 O   0  0  0  0  0  0
  -24.6461  -31.8384   23.1843 C   0  0  0  0  0  0
  -25.9231  -32.4654   23.8239 C   0  0  1  0  0  0
  -27.2093  -27.1006   20.1394 C   0  0  0  0  0  0
  -25.5979  -33.8466   24.2149 N   0  0  0  0  0  0
  -23.4500  -30.4590   21.5291 C   0  0  2  0  0  0
  -24.8952  -28.8768   20.1052 C   0  0  0  0  0  0
  -22.7575  -29.4514   22.4827 C   0  0  0  0  0  0
  -18.0302  -28.1367   22.8479 C   0  0  0  0  0  0
  -24.1507  -36.7240   23.2646 C   0  0  0  0  0  0
  -26.0084  -30.6997   21.3885 C   0  0  0  0  0  0
  -26.0727  -29.3078   20.7274 C   0  0  0  0  0  0
  -27.2264  -28.4333   20.7297 C   0  0  0  0  0  0
  -26.0051  -26.7802   19.4770 C   0  0  0  0  0  0
  -24.8757  -27.6277   19.4658 C   0  0  0  0  0  0
  -23.6769  -29.7859   20.1486 C   0  0  0  0  0  0
  -25.4131  -36.2996   24.0313 C   0  0  1  0  0  0
  -20.5916  -28.3694   23.1216 C   0  0  2  0  0  0
  -20.6788  -26.9397   22.5391 C   0  0  0  0  0  0
  -19.5765  -26.6353   21.5204 C   0  0  0  0  0  0
  -18.1946  -26.7903   22.1616 C   0  0  0  0  0  0
  -19.1560  -28.8844   23.2847 C   0  0  0  0  0  0
  -18.9485  -30.1439   23.8872 C   0  0  0  0  0  0
  -17.6485  -30.6569   24.0539 C   0  0  0  0  0  0
  -25.9083  -34.9381   23.5039 C   0  0  0  0  0  0
  -16.5373  -29.9061   23.6327 C   0  0  0  0  0  0
  -16.7287  -28.6470   23.0368 C   0  0  0  0  0  0
  -26.4536  -31.6537   25.0705 C   0  0  0  0  0  0
  -25.3730  -31.3753   26.1413 C   0  0  0  0  0  0
  -27.0394  -30.2912   24.6335 C   0  0  0  0  0  0
  -27.6037  -32.4317   25.7519 C   0  0  0  0  0  0
  -27.5569  -37.1779   24.8458 C   0  0  0  0  0  0
  -21.4262  -29.3037   22.3595 N   0  0  0  0  0  0
  -26.4276  -37.3719   23.9416 N   0  0  0  0  0  0
  -24.7217  -31.0208   22.0890 N   0  0  0  0  0  0
  -23.4205  -28.8063   23.2988 O   0  0  0  0  0  0
  -28.2661  -26.1137   20.2413 O   0  0  0  0  0  0
  -26.5667  -34.8889   22.4623 O   0  0  0  0  0  0
  -23.5570  -32.1276   23.7045 O   0  0  0  0  0  0
  -27.6093  -17.9628   19.3059 C   0  0  0  0  0  0
  -26.4114  -18.5041   18.8319 C   0  0  0  0  0  0
  -27.0920  -20.6325   19.3256 C   0  0  0  0  0  0
  -28.6465  -18.7525   19.8607 C   0  0  0  0  0  0
  -28.3594  -20.2609   19.8378 C   0  0  0  0  0  0
  -29.1629  -21.6557   20.1654 C   0  0  0  0  0  0
  -29.8672  -17.7360   20.3138 C   0  0  0  0  0  0
  -28.4685  -23.1690   20.5994 C   0  0  0  0  0  0
  -28.2768  -24.6203   19.7322 C   0  0  0  0  0  0
  -26.1446  -19.8116   18.8530 N   0  0  0  0  0  0
  -29.6738  -16.1503   20.4467 N   0  0  0  0  0  0
  -31.4662  -12.7730   19.1735 H   0  0  0  0  0  0
  -30.4327  -11.6554   20.0240 H   0  0  0  0  0  0
  -29.8403  -11.7357   17.5830 H   0  0  0  0  0  0
  -29.6128  -13.4639   17.6754 H   0  0  0  0  0  0
  -27.9286  -11.2855   18.9424 H   0  0  0  0  0  0
  -27.3975  -12.4947   17.8005 H   0  0  0  0  0  0
  -27.5856  -14.2597   19.4174 H   0  0  0  0  0  0
  -28.7678  -12.3009   21.4370 H   0  0  0  0  0  0
  -28.3651  -13.9761   21.7513 H   0  0  0  0  0  0
  -25.2813   -9.5697   22.4735 H   0  0  0  0  0  0
  -24.0031   -7.4683   22.7493 H   0  0  0  0  0  0
  -21.0853   -8.8755   19.8975 H   0  0  0  0  0  0
  -22.3706  -10.9652   19.6158 H   0  0  0  0  0  0
  -21.1993   -7.6146   23.9674 H   0  0  0  0  0  0
  -21.1506   -6.0523   25.9052 H   0  0  0  0  0  0
  -22.0593   -2.7608   23.2795 H   0  0  0  0  0  0
  -22.4091  -11.9871   22.4808 H   0  0  0  0  0  0
  -21.1067  -13.1196   22.2632 H   0  0  0  0  0  0
  -24.6427  -15.8446   20.5661 H   0  0  0  0  0  0
  -26.2583  -15.6450   20.1104 H   0  0  0  0  0  0
  -26.7295  -32.5229   23.0959 H   0  0  0  0  0  0
  -25.0145  -33.9567   25.0304 H   0  0  0  0  0  0
  -22.7550  -31.2870   21.3708 H   0  0  0  0  0  0
  -23.3759  -35.9582   23.3272 H   0  0  0  0  0  0
  -24.3597  -36.8907   22.2068 H   0  0  0  0  0  0
  -23.7272  -37.6434   23.6703 H   0  0  0  0  0  0
  -26.1776  -31.4558   20.6194 H   0  0  0  0  0  0
  -26.8752  -30.7403   22.0379 H   0  0  0  0  0  0
  -28.1214  -28.7553   21.2446 H   0  0  0  0  0  0
  -25.8864  -25.8299   18.9822 H   0  0  0  0  0  0
  -23.9744  -27.2939   18.9691 H   0  0  0  0  0  0
  -23.8238  -30.5604   19.3948 H   0  0  0  0  0  0
  -22.7893  -29.2355   19.8311 H   0  0  0  0  0  0
  -25.1325  -36.1807   25.0800 H   0  0  0  0  0  0
  -21.0014  -28.3295   24.1332 H   0  0  0  0  0  0
  -20.5657  -26.2327   23.3625 H   0  0  0  0  0  0
  -21.6662  -26.7393   22.1204 H   0  0  0  0  0  0
  -19.6939  -25.6259   21.1251 H   0  0  0  0  0  0
  -19.6691  -27.3149   20.6727 H   0  0  0  0  0  0
  -17.4219  -26.6627   21.4025 H   0  0  0  0  0  0
  -18.0352  -26.0030   22.8994 H   0  0  0  0  0  0
  -19.7967  -30.7254   24.2222 H   0  0  0  0  0  0
  -17.5044  -31.6250   24.5143 H   0  0  0  0  0  0
  -15.5371  -30.2968   23.7648 H   0  0  0  0  0  0
  -15.8680  -28.0773   22.7115 H   0  0  0  0  0  0
  -24.5939  -30.7042   25.7789 H   0  0  0  0  0  0
  -24.8897  -32.2939   26.4743 H   0  0  0  0  0  0
  -25.8052  -30.9037   27.0248 H   0  0  0  0  0  0
  -26.3009  -29.6629   24.1340 H   0  0  0  0  0  0
  -27.3957  -29.7231   25.4940 H   0  0  0  0  0  0
  -27.8950  -30.4109   23.9687 H   0  0  0  0  0  0
  -27.2595  -33.3643   26.2007 H   0  0  0  0  0  0
  -28.3922  -32.6823   25.0412 H   0  0  0  0  0  0
  -28.0618  -31.8498   26.5527 H   0  0  0  0  0  0
  -28.2549  -38.0104   24.7495 H   0  0  0  0  0  0
  -28.1088  -36.2621   24.6279 H   0  0  0  0  0  0
  -27.2284  -37.1425   25.8858 H   0  0  0  0  0  0
  -20.9456  -29.8787   21.6810 H   0  0  0  0  0  0
  -26.0121  -38.2786   24.1403 H   0  0  0  0  0  0
  -27.7091  -16.8965   19.1904 H   0  0  0  0  0  0
  -25.6493  -17.8626   18.4149 H   0  0  0  0  0  0
  -26.8120  -21.6728   19.2520 H   0  0  0  0  0  0
  -29.8174  -21.8449   19.3131 H   0  0  0  0  0  0
  -29.8418  -21.3835   20.9743 H   0  0  0  0  0  0
  -30.2474  -18.0985   21.2683 H   0  0  0  0  0  0
  -30.6751  -17.8940   19.5965 H   0  0  0  0  0  0
  -29.1347  -23.4873   21.4008 H   0  0  0  0  0  0
  -27.5356  -22.9720   21.1303 H   0  0  0  0  0  0
  -27.4319  -24.4614   19.0680 H   0  0  0  0  0  0
  -29.1214  -24.6252   19.0438 H   0  0  0  0  0  0
  -28.7099  -15.9141   20.6184 H   0  0  0  0  0  0
  1 25  1  0  0  0
  1 30  2  0  0  0
  1 81  1  0  0  0
  2  3  1  0  0  0
  2 25  1  0  0  0
  2 82  1  0  0  0
  2 83  1  0  0  0
  3  4  1  0  0  0
  3 84  1  0  0  0
  3 85  1  0  0  0
  4  5  1  0  0  0
  4 86  1  0  0  0
  4 87  1  0  0  0
  5  6  1  0  0  0
  5 26  1  0  0  0
  5 88  1  0  0  0
  6 25  1  0  0  0
  6 89  1  0  0  0
  6 90  1  0  0  0
  7  8  2  0  0  0
  7 26  1  0  0  0
  7 29  1  0  0  0
  8  9  1  0  0  0
  8 22  1  0  0  0
  9 10  1  0  0  0
  9 27  2  0  0  0
 10 11  2  0  0  0
 10 15  1  0  0  0
 11 12  1  0  0  0
 11 91  1  0  0  0
 12 13  2  0  0  0
 12 92  1  0  0  0
 13 14  1  0  0  0
 13 31  1  0  0  0
 14 15  2  0  0  0
 14 93  1  0  0  0
 15 94  1  0  0  0
 16 17  2  0  0  0
 16 21  1  0  0  0
 16 31  1  0  0  0
 17 18  1  0  0  0
 17 95  1  0  0  0
 18 19  2  0  0  0
 18 96  1  0  0  0
 19 20  1  0  0  0
 19 24  1  0  0  0
 20 21  2  0  0  0
 20 97  1  0  0  0
 21 23  1  0  0  0
 22 28  1  0  0  0
 22 32  2  0  0  0
 26 27  1  0  0  0
 28 98  1  0  0  0
 28 99  1  0  0  0
 29100  1  0  0  0
 29101  1  0  0  0
 33 34  1  0  0  0
 33 66  1  0  0  0
 33 70  2  0  0  0
 34 36  1  0  0  0
 34 59  1  0  0  0
 34102  1  0  0  0
 35 44  2  0  0  0
 35 45  1  0  0  0
 35 68  1  0  0  0
 36 56  1  0  0  0
 36103  1  0  0  0
 37 39  1  0  0  0
 37 47  1  0  0  0
 37 66  1  0  0  0
 37104  1  0  0  0
 38 43  2  0  0  0
 38 46  1  0  0  0
 38 47  1  0  0  0
 39 64  1  0  0  0
 39 67  2  0  0  0
 40 52  1  0  0  0
 40 53  2  0  0  0
 40 58  1  0  0  0
 41105  1  0  0  0
 41106  1  0  0  0
 41107  1  0  0  0
 41 48  1  0  0  0
 42 43  1  0  0  0
 42 66  1  0  0  0
 42108  1  0  0  0
 42109  1  0  0  0
 43 44  1  0  0  0
 44110  1  0  0  0
 45 46  2  0  0  0
 45111  1  0  0  0
 46112  1  0  0  0
 47113  1  0  0  0
 47114  1  0  0  0
 48 56  1  0  0  0
 48 65  1  0  0  0
 48115  1  0  0  0
 49 50  1  0  0  0
 49 53  1  0  0  0
 49 64  1  0  0  0
 49116  1  0  0  0
 50 51  1  0  0  0
 50117  1  0  0  0
 50118  1  0  0  0
 51 52  1  0  0  0
 51119  1  0  0  0
 51120  1  0  0  0
 52121  1  0  0  0
 52122  1  0  0  0
 53 54  1  0  0  0
 54 55  2  0  0  0
 54123  1  0  0  0
 55 57  1  0  0  0
 55124  1  0  0  0
 56 69  2  0  0  0
 57 58  2  0  0  0
 57125  1  0  0  0
 58126  1  0  0  0
 59 60  1  0  0  0
 59 61  1  0  0  0
 59 62  1  0  0  0
 60127  1  0  0  0
 60128  1  0  0  0
 60129  1  0  0  0
 61130  1  0  0  0
 61131  1  0  0  0
 61132  1  0  0  0
 62133  1  0  0  0
 62134  1  0  0  0
 62135  1  0  0  0
 63 65  1  0  0  0
 63136  1  0  0  0
 63137  1  0  0  0
 63138  1  0  0  0
 64139  1  0  0  0
 65140  1  0  0  0
 68 79  1  0  0  0
 71 72  2  0  0  0
 71 74  1  0  0  0
 71141  1  0  0  0
 72 80  1  0  0  0
 72142  1  0  0  0
 73 75  1  0  0  0
 73 80  2  0  0  0
 73143  1  0  0  0
 74 75  2  0  0  0
 74 77  1  0  0  0
 75 76  1  0  0  0
 76 78  1  0  0  0
 76144  1  0  0  0
 76145  1  0  0  0
 77 81  1  0  0  0
 77146  1  0  0  0
 77147  1  0  0  0
 78 79  1  0  0  0
 78148  1  0  0  0
 78149  1  0  0  0
 79150  1  0  0  0
 79151  1  0  0  0
 81152  1  0  0  0
M  ISO  4   1 100  68 101  79 101  81 100
M  END
> <chiral flag>
0

> <version>
0

> <s_m_source_file>
/data/baiqing/PycharmProjects/Reinvent-master-3.2/result/LINK_invent/BTK/process_docking_weight1_custom_sum_contain_oxygen_bond_distance_aromatic_linkinvent_7_9_3/rearranged_h_0111.sdf

> <i_m_source_file_index>
3

> <r_mmod_Potential_Energy-OPLS-2005>
434.614837646484

> <r_mmod_Stretch_Energy-OPLS-2005>
316.112548828125

> <r_mmod_Bend_Energy-OPLS-2005>
357.477325439453

> <r_mmod_Torsional_Energy-OPLS-2005>
210.49299621582

> <r_mmod_Improper_Torsional_Energy-OPLS-2005>
4.55312538146973

> <r_mmod_Van_der_Waal_Energy-OPLS-2005>
134.666763305664

> <r_mmod_Electrostatic_Energy-OPLS-2005>
-581.37353515625

> <r_mmod_Solvation_Energy-OPLS-2005>
-231.128890991211

> <b_mmod_Minimization_Converged-OPLS-2005>
0

> <r_mmod_RMS_Derivative-OPLS-2005>
3.51642560958862

$$$$
3
                    3D
 Structure written by MMmdl.
167175  0  0  1  0            999 V2000
  -30.5859  -14.7390   20.5113 C   0  0  0  0  0  0
  -30.4311  -12.4608   19.4765 C   0  0  0  0  0  0
  -29.5058  -12.5227   18.2381 C   0  0  0  0  0  0
  -28.0288  -12.3517   18.6425 C   0  0  0  0  0  0
  -27.6414  -13.2324   19.8606 C   0  0  2  0  0  0
  -28.6831  -13.1327   20.9958 C   0  0  0  0  0  0
  -25.2504  -13.8197   20.5687 C   0  0  0  0  0  0
  -24.1813  -13.0420   20.9241 C   0  0  0  0  0  0
  -24.6432  -11.6914   20.8785 C   0  0  0  0  0  0
  -23.9124  -10.4285   21.0423 C   0  0  0  0  0  0
  -24.3674   -9.4207   21.9199 C   0  0  0  0  0  0
  -23.6341   -8.2247   22.0755 C   0  0  0  0  0  0
  -22.4317   -8.0305   21.3562 C   0  0  0  0  0  0
  -21.9968   -9.0284   20.4655 C   0  0  0  0  0  0
  -22.7300  -10.2148   20.3061 C   0  0  0  0  0  0
  -21.6865   -6.0787   22.5312 C   0  0  0  0  0  0
  -21.4013   -6.5673   23.8255 C   0  0  0  0  0  0
  -21.3647   -5.6809   24.9202 C   0  0  0  0  0  0
  -21.6036   -4.3079   24.7236 C   0  0  0  0  0  0
  -21.8819   -3.8187   23.4353 C   0  0  0  0  0  0
  -21.9197   -4.7014   22.3419 C   0  0  0  0  0  0
  -22.7846  -13.5204   21.1908 C   0  0  0  0  0  0
  -22.1661   -4.2211   21.0993 F   0  0  0  0  0  0
  -21.5629   -3.4549   25.7742 F   0  0  0  0  0  0
  -29.9808  -13.5044   20.4291 N   0  0  0  0  0  0
  -26.2933  -12.9411   20.3314 N   0  0  0  0  0  0
  -25.9356  -11.6550   20.5790 N   0  0  0  0  0  0
  -22.0497  -12.8166   22.0450 N   0  0  0  0  0  0
  -25.4124  -15.1917   20.4027 N   0  0  0  0  0  0
  -31.7575  -14.8641   20.1415 O   0  0  0  0  0  0
  -21.6645   -6.8932   21.4277 O   0  0  0  0  0  0
  -22.3514  -14.5509   20.6770 O   0  0  0  0  0  0
  -24.6278  -31.8546   23.1982 C   0  0  0  0  0  0
  -25.9121  -32.4741   23.8320 C   0  0  1  0  0  0
  -27.2324  -27.2785   20.1211 C   0  0  0  0  0  0
  -25.5931  -33.8549   24.2231 N   0  0  0  0  0  0
  -23.4254  -30.4749   21.5393 C   0  0  2  0  0  0
  -24.8748  -28.9211   20.1097 C   0  0  0  0  0  0
  -22.7497  -29.4586   22.4924 C   0  0  0  0  0  0
  -18.0277  -28.1368   22.8483 C   0  0  0  0  0  0
  -24.1498  -36.7277   23.2645 C   0  0  0  0  0  0
  -25.9691  -30.7722   21.3768 C   0  0  0  0  0  0
  -26.0420  -29.3965   20.7172 C   0  0  0  0  0  0
  -27.2192  -28.5867   20.7103 C   0  0  0  0  0  0
  -26.0352  -26.8572   19.5002 C   0  0  0  0  0  0
  -24.8754  -27.6582   19.4955 C   0  0  0  0  0  0
  -23.6441  -29.8037   20.1564 C   0  0  0  0  0  0
  -25.4121  -36.3046   24.0309 C   0  0  1  0  0  0
  -20.5885  -28.3666   23.1289 C   0  0  2  0  0  0
  -20.6767  -26.9391   22.5416 C   0  0  0  0  0  0
  -19.5744  -26.6363   21.5224 C   0  0  0  0  0  0
  -18.1920  -26.7905   22.1626 C   0  0  0  0  0  0
  -19.1537  -28.8835   23.2874 C   0  0  0  0  0  0
  -18.9464  -30.1442   23.8881 C   0  0  0  0  0  0
  -17.6468  -30.6575   24.0553 C   0  0  0  0  0  0
  -25.9064  -34.9427   23.5071 C   0  0  0  0  0  0
  -16.5353  -29.9070   23.6333 C   0  0  0  0  0  0
  -16.7266  -28.6490   23.0346 C   0  0  0  0  0  0
  -26.4497  -31.6585   25.0717 C   0  0  0  0  0  0
  -25.3735  -31.3758   26.1455 C   0  0  0  0  0  0
  -27.0357  -30.2994   24.6231 C   0  0  0  0  0  0
  -27.6031  -32.4354   25.7489 C   0  0  0  0  0  0
  -27.5564  -37.1792   24.8455 C   0  0  0  0  0  0
  -21.4207  -29.3023   22.3691 N   0  0  0  0  0  0
  -26.4274  -37.3758   23.9412 N   0  0  0  0  0  0
  -24.6929  -31.0530   22.0936 N   0  0  0  0  0  0
  -23.4220  -28.8152   23.3024 O   0  0  0  0  0  0
  -28.3703  -26.4458   20.1928 O   0  0  0  0  0  0
  -26.5652  -34.8900   22.4645 O   0  0  0  0  0  0
  -23.5429  -32.1352   23.7288 O   0  0  0  0  0  0
  -28.4942  -19.9407   22.9695 C   0  0  0  0  0  0
  -28.4844  -21.0802   22.1558 C   0  0  0  0  0  0
  -28.9375  -18.6898   22.4839 C   0  0  0  0  0  0
  -28.9362  -20.9913   20.8347 C   0  0  0  0  0  0
  -29.4189  -18.6037   21.1435 C   0  0  0  0  0  0
  -27.4841  -17.5383   25.5823 C   0  0  0  0  0  0
  -26.3495  -17.6671   23.3518 C   0  0  0  0  0  0
  -27.4778  -15.5712   24.0660 C   0  0  0  0  0  0
  -28.9603  -17.5508   23.5073 C   0  0  0  0  0  0
  -28.9464  -22.3131   19.9477 C   0  0  0  0  0  0
  -30.1786  -17.3160   20.5593 C   0  0  0  0  0  0
  -28.4903  -23.7450   20.5673 C   0  0  0  0  0  0
  -28.4650  -25.0593   19.6315 C   0  0  0  0  0  0
  -27.5778  -17.1055   24.1052 C   0  0  0  0  0  0
  -29.3930  -19.7623   20.3600 N   0  0  0  0  0  0
  -29.8101  -15.8527   20.8059 N   0  0  0  0  0  0
  -31.4692  -12.6049   19.1724 H   0  0  0  0  0  0
  -30.3922  -11.4743   19.9431 H   0  0  0  0  0  0
  -29.7843  -11.7582   17.5118 H   0  0  0  0  0  0
  -29.6331  -13.4823   17.7334 H   0  0  0  0  0  0
  -27.8658  -11.2998   18.8793 H   0  0  0  0  0  0
  -27.3801  -12.5735   17.7937 H   0  0  0  0  0  0
  -27.6440  -14.2621   19.5023 H   0  0  0  0  0  0
  -28.7171  -12.1228   21.4087 H   0  0  0  0  0  0
  -28.4296  -13.7868   21.8264 H   0  0  0  0  0  0
  -25.2819   -9.5685   22.4781 H   0  0  0  0  0  0
  -24.0081   -7.4623   22.7441 H   0  0  0  0  0  0
  -21.0920   -8.8806   19.8945 H   0  0  0  0  0  0
  -22.3781  -10.9708   19.6178 H   0  0  0  0  0  0
  -21.1994   -7.6177   23.9792 H   0  0  0  0  0  0
  -21.1455   -6.0520   25.9114 H   0  0  0  0  0  0
  -22.0600   -2.7656   23.2825 H   0  0  0  0  0  0
  -22.4134  -11.9810   22.4790 H   0  0  0  0  0  0
  -21.1114  -13.1174   22.2684 H   0  0  0  0  0  0
  -24.6302  -15.8281   20.5076 H   0  0  0  0  0  0
  -26.2404  -15.6398   20.0312 H   0  0  0  0  0  0
  -26.7171  -32.5392   23.1056 H   0  0  0  0  0  0
  -25.0061  -33.9704   25.0356 H   0  0  0  0  0  0
  -22.7192  -31.2940   21.3892 H   0  0  0  0  0  0
  -23.3755  -35.9619   23.3292 H   0  0  0  0  0  0
  -24.3581  -36.8919   22.2060 H   0  0  0  0  0  0
  -23.7256  -37.6468   23.6697 H   0  0  0  0  0  0
  -26.1108  -31.5379   20.6126 H   0  0  0  0  0  0
  -26.8448  -30.8170   22.0135 H   0  0  0  0  0  0
  -28.1150  -28.9493   21.1937 H   0  0  0  0  0  0
  -25.9536  -25.8871   19.0353 H   0  0  0  0  0  0
  -23.9751  -27.2866   19.0268 H   0  0  0  0  0  0
  -23.7682  -30.5765   19.3969 H   0  0  0  0  0  0
  -22.7654  -29.2324   19.8525 H   0  0  0  0  0  0
  -25.1306  -36.1868   25.0795 H   0  0  0  0  0  0
  -20.9950  -28.3217   24.1425 H   0  0  0  0  0  0
  -20.5667  -26.2279   23.3620 H   0  0  0  0  0  0
  -21.6630  -26.7420   22.1214 H   0  0  0  0  0  0
  -19.6918  -25.6284   21.1229 H   0  0  0  0  0  0
  -19.6665  -27.3195   20.6778 H   0  0  0  0  0  0
  -17.4199  -26.6661   21.4015 H   0  0  0  0  0  0
  -18.0298  -26.0037   22.9008 H   0  0  0  0  0  0
  -19.7945  -30.7260   24.2231 H   0  0  0  0  0  0
  -17.5023  -31.6253   24.5160 H   0  0  0  0  0  0
  -15.5351  -30.2971   23.7675 H   0  0  0  0  0  0
  -15.8659  -28.0815   22.7064 H   0  0  0  0  0  0
  -24.5866  -30.7148   25.7798 H   0  0  0  0  0  0
  -24.8994  -32.2951   26.4901 H   0  0  0  0  0  0
  -25.8046  -30.8905   27.0218 H   0  0  0  0  0  0
  -26.2946  -29.6728   24.1249 H   0  0  0  0  0  0
  -27.4015  -29.7262   25.4760 H   0  0  0  0  0  0
  -27.8828  -30.4249   23.9488 H   0  0  0  0  0  0
  -27.2611  -33.3663   26.2025 H   0  0  0  0  0  0
  -28.3863  -32.6906   25.0342 H   0  0  0  0  0  0
  -28.0687  -31.8524   26.5445 H   0  0  0  0  0  0
  -28.2569  -38.0104   24.7507 H   0  0  0  0  0  0
  -28.1065  -36.2624   24.6263 H   0  0  0  0  0  0
  -27.2288  -37.1416   25.8861 H   0  0  0  0  0  0
  -20.9408  -29.8761   21.6904 H   0  0  0  0  0  0
  -26.0129  -38.2816   24.1439 H   0  0  0  0  0  0
  -28.1693  -20.0430   23.9946 H   0  0  0  0  0  0
  -28.1439  -22.0180   22.5704 H   0  0  0  0  0  0
  -26.5217  -17.2722   26.0226 H   0  0  0  0  0  0
  -27.6011  -18.6164   25.6966 H   0  0  0  0  0  0
  -28.2579  -17.0603   26.1853 H   0  0  0  0  0  0
  -25.4265  -17.1914   23.6877 H   0  0  0  0  0  0
  -26.4260  -17.4979   22.2769 H   0  0  0  0  0  0
  -26.2186  -18.7365   23.5175 H   0  0  0  0  0  0
  -26.5976  -15.2093   24.6001 H   0  0  0  0  0  0
  -28.3523  -15.0988   24.5174 H   0  0  0  0  0  0
  -27.3921  -15.2240   23.0400 H   0  0  0  0  0  0
  -29.6012  -17.9026   24.3166 H   0  0  0  0  0  0
  -29.5061  -16.6928   23.1294 H   0  0  0  0  0  0
  -28.3483  -22.1194   19.0565 H   0  0  0  0  0  0
  -29.9688  -22.4231   19.5864 H   0  0  0  0  0  0
  -31.2131  -17.4287   20.8863 H   0  0  0  0  0  0
  -30.2000  -17.4339   19.4749 H   0  0  0  0  0  0
  -29.1508  -23.9551   21.4077 H   0  0  0  0  0  0
  -27.4939  -23.6347   20.9954 H   0  0  0  0  0  0
  -27.7595  -24.9042   18.8185 H   0  0  0  0  0  0
  -29.4271  -25.0625   19.1188 H   0  0  0  0  0  0
  -28.8573  -15.6852   21.0831 H   0  0  0  0  0  0
  1 25  1  0  0  0
  1 30  2  0  0  0
  1 86  1  0  0  0
  2  3  1  0  0  0
  2 25  1  0  0  0
  2 87  1  0  0  0
  2 88  1  0  0  0
  3  4  1  0  0  0
  3 89  1  0  0  0
  3 90  1  0  0  0
  4  5  1  0  0  0
  4 91  1  0  0  0
  4 92  1  0  0  0
  5  6  1  0  0  0
  5 26  1  0  0  0
  5 93  1  0  0  0
  6 25  1  0  0  0
  6 94  1  0  0  0
  6 95  1  0  0  0
  7  8  2  0  0  0
  7 26  1  0  0  0
  7 29  1  0  0  0
  8  9  1  0  0  0
  8 22  1  0  0  0
  9 10  1  0  0  0
  9 27  2  0  0  0
 10 11  2  0  0  0
 10 15  1  0  0  0
 11 12  1  0  0  0
 11 96  1  0  0  0
 12 13  2  0  0  0
 12 97  1  0  0  0
 13 14  1  0  0  0
 13 31  1  0  0  0
 14 15  2  0  0  0
 14 98  1  0  0  0
 15 99  1  0  0  0
 16 17  2  0  0  0
 16 21  1  0  0  0
 16 31  1  0  0  0
 17 18  1  0  0  0
 17100  1  0  0  0
 18 19  2  0  0  0
 18101  1  0  0  0
 19 20  1  0  0  0
 19 24  1  0  0  0
 20 21  2  0  0  0
 20102  1  0  0  0
 21 23  1  0  0  0
 22 28  1  0  0  0
 22 32  2  0  0  0
 26 27  1  0  0  0
 28103  1  0  0  0
 28104  1  0  0  0
 29105  1  0  0  0
 29106  1  0  0  0
 33 34  1  0  0  0
 33 66  1  0  0  0
 33 70  2  0  0  0
 34 36  1  0  0  0
 34 59  1  0  0  0
 34107  1  0  0  0
 35 44  2  0  0  0
 35 45  1  0  0  0
 35 68  1  0  0  0
 36 56  1  0  0  0
 36108  1  0  0  0
 37 39  1  0  0  0
 37 47  1  0  0  0
 37 66  1  0  0  0
 37109  1  0  0  0
 38 43  2  0  0  0
 38 46  1  0  0  0
 38 47  1  0  0  0
 39 64  1  0  0  0
 39 67  2  0  0  0
 40 52  1  0  0  0
 40 53  2  0  0  0
 40 58  1  0  0  0
 41110  1  0  0  0
 41111  1  0  0  0
 41112  1  0  0  0
 41 48  1  0  0  0
 42 43  1  0  0  0
 42 66  1  0  0  0
 42113  1  0  0  0
 42114  1  0  0  0
 43 44  1  0  0  0
 44115  1  0  0  0
 45 46  2  0  0  0
 45116  1  0  0  0
 46117  1  0  0  0
 47118  1  0  0  0
 47119  1  0  0  0
 48 56  1  0  0  0
 48 65  1  0  0  0
 48120  1  0  0  0
 49 50  1  0  0  0
 49 53  1  0  0  0
 49 64  1  0  0  0
 49121  1  0  0  0
 50 51  1  0  0  0
 50122  1  0  0  0
 50123  1  0  0  0
 51 52  1  0  0  0
 51124  1  0  0  0
 51125  1  0  0  0
 52126  1  0  0  0
 52127  1  0  0  0
 53 54  1  0  0  0
 54 55  2  0  0  0
 54128  1  0  0  0
 55 57  1  0  0  0
 55129  1  0  0  0
 56 69  2  0  0  0
 57 58  2  0  0  0
 57130  1  0  0  0
 58131  1  0  0  0
 59 60  1  0  0  0
 59 61  1  0  0  0
 59 62  1  0  0  0
 60132  1  0  0  0
 60133  1  0  0  0
 60134  1  0  0  0
 61135  1  0  0  0
 61136  1  0  0  0
 61137  1  0  0  0
 62138  1  0  0  0
 62139  1  0  0  0
 62140  1  0  0  0
 63 65  1  0  0  0
 63141  1  0  0  0
 63142  1  0  0  0
 63143  1  0  0  0
 64144  1  0  0  0
 65145  1  0  0  0
 68 83  1  0  0  0
 71 72  2  0  0  0
 71 73  1  0  0  0
 71146  1  0  0  0
 72 74  1  0  0  0
 72147  1  0  0  0
 73 75  2  0  0  0
 73 79  1  0  0  0
 74 80  1  0  0  0
 74 85  2  0  0  0
 75 81  1  0  0  0
 75 85  1  0  0  0
 76148  1  0  0  0
 76149  1  0  0  0
 76150  1  0  0  0
 76 84  1  0  0  0
 77 84  1  0  0  0
 77151  1  0  0  0
 77152  1  0  0  0
 77153  1  0  0  0
 78 84  1  0  0  0
 78154  1  0  0  0
 78155  1  0  0  0
 78156  1  0  0  0
 79 84  1  0  0  0
 79157  1  0  0  0
 79158  1  0  0  0
 80 82  1  0  0  0
 80159  1  0  0  0
 80160  1  0  0  0
 81 86  1  0  0  0
 81161  1  0  0  0
 81162  1  0  0  0
 82 83  1  0  0  0
 82163  1  0  0  0
 82164  1  0  0  0
 83165  1  0  0  0
 83166  1  0  0  0
 86167  1  0  0  0
M  ISO  4   1 100  68 101  83 101  86 100
M  END
> <chiral flag>
0

> <version>
0

> <s_m_source_file>
/data/baiqing/PycharmProjects/Reinvent-master-3.2/result/LINK_invent/BTK/process_docking_weight1_custom_sum_contain_oxygen_bond_distance_aromatic_linkinvent_7_9_3/rearranged_h_0111.sdf

> <i_m_source_file_index>
4

> <r_mmod_Potential_Energy-OPLS-2005>
-149.308181762695

> <r_mmod_Stretch_Energy-OPLS-2005>
124.744697570801

> <r_mmod_Bend_Energy-OPLS-2005>
193.4384765625

> <r_mmod_Torsional_Energy-OPLS-2005>
197.64404296875

> <r_mmod_Improper_Torsional_Energy-OPLS-2005>
6.04126787185669

> <r_mmod_Van_der_Waal_Energy-OPLS-2005>
141.125366210938

> <r_mmod_Electrostatic_Energy-OPLS-2005>
-676.371032714844

> <r_mmod_Solvation_Energy-OPLS-2005>
-210.905090332031

> <b_mmod_Minimization_Converged-OPLS-2005>
0

> <r_mmod_RMS_Derivative-OPLS-2005>
3.1536226272583

$$$$
4
                    3D
 Structure written by MMmdl.
165173  0  0  1  0            999 V2000
  -30.7052  -14.4156   20.5447 C   0  0  0  0  0  0
  -30.4158  -12.2615   19.4094 C   0  0  0  0  0  0
  -29.4907  -12.4974   18.1971 C   0  0  0  0  0  0
  -28.0083  -12.3736   18.6050 C   0  0  0  0  0  0
  -27.6639  -13.1979   19.8760 C   0  0  2  0  0  0
  -28.7061  -12.9490   20.9923 C   0  0  0  0  0  0
  -25.2600  -13.8145   20.5669 C   0  0  0  0  0  0
  -24.1833  -13.0432   20.9169 C   0  0  0  0  0  0
  -24.6372  -11.6898   20.8726 C   0  0  0  0  0  0
  -23.9036  -10.4284   21.0389 C   0  0  0  0  0  0
  -24.3592   -9.4209   21.9176 C   0  0  0  0  0  0
  -23.6277   -8.2244   22.0756 C   0  0  0  0  0  0
  -22.4268   -8.0275   21.3540 C   0  0  0  0  0  0
  -21.9888   -9.0241   20.4644 C   0  0  0  0  0  0
  -22.7206  -10.2122   20.3045 C   0  0  0  0  0  0
  -21.6849   -6.0727   22.5279 C   0  0  0  0  0  0
  -21.4009   -6.5632   23.8209 C   0  0  0  0  0  0
  -21.3662   -5.6789   24.9172 C   0  0  0  0  0  0
  -21.6049   -4.3051   24.7227 C   0  0  0  0  0  0
  -21.8820   -3.8140   23.4346 C   0  0  0  0  0  0
  -21.9190   -4.6955   22.3399 C   0  0  0  0  0  0
  -22.7863  -13.5245   21.1834 C   0  0  0  0  0  0
  -22.1663   -4.2138   21.0977 F   0  0  0  0  0  0
  -21.5631   -3.4536   25.7738 F   0  0  0  0  0  0
  -30.0439  -13.2353   20.4444 N   0  0  0  0  0  0
  -26.3019  -12.9291   20.3352 N   0  0  0  0  0  0
  -25.9290  -11.6458   20.5742 N   0  0  0  0  0  0
  -22.0493  -12.8235   22.0385 N   0  0  0  0  0  0
  -25.4344  -15.1863   20.4074 N   0  0  0  0  0  0
  -31.8298  -14.6137   20.0767 O   0  0  0  0  0  0
  -21.6641   -6.8872   21.4243 O   0  0  0  0  0  0
  -22.3560  -14.5559   20.6700 O   0  0  0  0  0  0
  -24.6117  -31.8696   23.2107 C   0  0  0  0  0  0
  -25.9016  -32.4830   23.8394 C   0  0  1  0  0  0
  -27.2384  -27.4626   20.0940 C   0  0  0  0  0  0
  -25.5892  -33.8615   24.2341 N   0  0  0  0  0  0
  -23.3981  -30.4931   21.5501 C   0  0  2  0  0  0
  -24.8445  -28.9652   20.1123 C   0  0  0  0  0  0
  -22.7405  -29.4669   22.4998 C   0  0  0  0  0  0
  -18.0280  -28.1367   22.8492 C   0  0  0  0  0  0
  -24.1481  -36.7323   23.2641 C   0  0  0  0  0  0
  -25.9223  -30.8470   21.3560 C   0  0  0  0  0  0
  -26.0032  -29.4836   20.7037 C   0  0  0  0  0  0
  -27.2034  -28.7423   20.6876 C   0  0  0  0  0  0
  -26.0611  -26.9534   19.4954 C   0  0  0  0  0  0
  -24.8689  -27.7000   19.5023 C   0  0  0  0  0  0
  -23.6040  -29.8267   20.1635 C   0  0  0  0  0  0
  -25.4092  -36.3108   24.0362 C   0  0  1  0  0  0
  -20.5871  -28.3637   23.1324 C   0  0  2  0  0  0
  -20.6780  -26.9383   22.5403 C   0  0  0  0  0  0
  -19.5763  -26.6378   21.5202 C   0  0  0  0  0  0
  -18.1934  -26.7905   22.1614 C   0  0  0  0  0  0
  -19.1531  -28.8821   23.2895 C   0  0  0  0  0  0
  -18.9468  -30.1438   23.8889 C   0  0  0  0  0  0
  -17.6465  -30.6571   24.0567 C   0  0  0  0  0  0
  -25.9032  -34.9469   23.5149 C   0  0  0  0  0  0
  -16.5358  -29.9076   23.6317 C   0  0  0  0  0  0
  -16.7270  -28.6499   23.0327 C   0  0  0  0  0  0
  -26.4443  -31.6604   25.0713 C   0  0  0  0  0  0
  -25.3733  -31.3702   26.1489 C   0  0  0  0  0  0
  -27.0272  -30.3064   24.6033 C   0  0  0  0  0  0
  -27.6003  -32.4313   25.7474 C   0  0  0  0  0  0
  -27.5578  -37.1815   24.8468 C   0  0  0  0  0  0
  -21.4141  -29.3020   22.3749 N   0  0  0  0  0  0
  -26.4281  -37.3797   23.9413 N   0  0  0  0  0  0
  -24.6620  -31.0827   22.0985 N   0  0  0  0  0  0
  -23.4201  -28.8207   23.3011 O   0  0  0  0  0  0
  -28.4077  -26.7351   20.1275 O   0  0  0  0  0  0
  -26.5579  -34.8927   22.4704 O   0  0  0  0  0  0
  -23.5317  -32.1382   23.7560 O   0  0  0  0  0  0
  -31.4164  -17.5348   21.0069 C   0  0  0  0  0  0
  -29.4344  -17.8855   21.3526 C   0  0  0  0  0  0
  -30.1519  -16.8200   20.5340 C   0  0  2  0  0  0
  -31.4174  -25.2688   22.5571 C   0  0  0  0  0  0
  -30.2774  -22.2301   21.3809 C   0  0  0  0  0  0
  -29.9093  -20.9210   22.1112 C   0  0  0  0  0  0
  -29.1861  -23.3016   21.5704 C   0  0  0  0  0  0
  -30.9562  -19.7871   21.9934 C   0  0  0  0  0  0
  -28.2342  -25.3448   20.4194 C   0  0  0  0  0  0
  -29.5111  -24.7145   21.0146 C   0  0  1  0  0  0
  -29.9527  -15.4366   20.9719 N   0  0  0  0  0  0
  -30.5811  -18.7437   21.0106 N   0  3  1  0  0  0
  -30.0641  -25.6072   22.0672 N   0  3  0  0  0  0
  -31.4637  -12.3401   19.1120 H   0  0  0  0  0  0
  -30.2924  -11.2459   19.7899 H   0  0  0  0  0  0
  -29.7179  -11.7839   17.4039 H   0  0  0  0  0  0
  -29.6736  -13.4877   17.7779 H   0  0  0  0  0  0
  -27.7992  -11.3173   18.7811 H   0  0  0  0  0  0
  -27.3636  -12.6737   17.7776 H   0  0  0  0  0  0
  -27.7142  -14.2495   19.5923 H   0  0  0  0  0  0
  -28.6623  -11.9078   21.3170 H   0  0  0  0  0  0
  -28.4815  -13.5394   21.8816 H   0  0  0  0  0  0
  -25.2732   -9.5702   22.4738 H   0  0  0  0  0  0
  -23.9993   -7.4644   22.7471 H   0  0  0  0  0  0
  -21.0821   -8.8747   19.8940 H   0  0  0  0  0  0
  -22.3660  -10.9656   19.6150 H   0  0  0  0  0  0
  -21.2001   -7.6140   23.9710 H   0  0  0  0  0  0
  -21.1487   -6.0516   25.9074 H   0  0  0  0  0  0
  -22.0596   -2.7604   23.2848 H   0  0  0  0  0  0
  -22.4091  -11.9882   22.4757 H   0  0  0  0  0  0
  -21.1110  -13.1269   22.2572 H   0  0  0  0  0  0
  -24.6679  -15.8422   20.5099 H   0  0  0  0  0  0
  -26.2812  -15.6198   20.0630 H   0  0  0  0  0  0
  -26.7104  -32.5538   23.1173 H   0  0  0  0  0  0
  -25.0045  -33.9765   25.0498 H   0  0  0  0  0  0
  -22.6844  -31.3094   21.4133 H   0  0  0  0  0  0
  -23.3734  -35.9665   23.3310 H   0  0  0  0  0  0
  -24.3586  -36.8919   22.2053 H   0  0  0  0  0  0
  -23.7250  -37.6543   23.6643 H   0  0  0  0  0  0
  -26.0234  -31.6176   20.5905 H   0  0  0  0  0  0
  -26.8140  -30.9032   21.9685 H   0  0  0  0  0  0
  -28.0971  -29.1435   21.1433 H   0  0  0  0  0  0
  -26.0548  -25.9865   19.0135 H   0  0  0  0  0  0
  -23.9806  -27.2999   19.0345 H   0  0  0  0  0  0
  -23.7049  -30.5997   19.4011 H   0  0  0  0  0  0
  -22.7271  -29.2446   19.8731 H   0  0  0  0  0  0
  -25.1267  -36.1970   25.0863 H   0  0  0  0  0  0
  -20.9952  -28.3193   24.1450 H   0  0  0  0  0  0
  -20.5696  -26.2245   23.3575 H   0  0  0  0  0  0
  -21.6646  -26.7425   22.1198 H   0  0  0  0  0  0
  -19.6926  -25.6295   21.1219 H   0  0  0  0  0  0
  -19.6707  -27.3201   20.6738 H   0  0  0  0  0  0
  -17.4199  -26.6649   21.4014 H   0  0  0  0  0  0
  -18.0341  -26.0026   22.8992 H   0  0  0  0  0  0
  -19.7956  -30.7251   24.2238 H   0  0  0  0  0  0
  -17.5036  -31.6251   24.5172 H   0  0  0  0  0  0
  -15.5367  -30.2981   23.7656 H   0  0  0  0  0  0
  -15.8668  -28.0845   22.7005 H   0  0  0  0  0  0
  -24.5891  -30.7051   25.7872 H   0  0  0  0  0  0
  -24.8933  -32.2860   26.4948 H   0  0  0  0  0  0
  -25.8120  -30.8880   27.0244 H   0  0  0  0  0  0
  -26.2820  -29.6840   24.1077 H   0  0  0  0  0  0
  -27.4079  -29.7260   25.4445 H   0  0  0  0  0  0
  -27.8625  -30.4410   23.9158 H   0  0  0  0  0  0
  -27.2616  -33.3604   26.2070 H   0  0  0  0  0  0
  -28.3820  -32.6900   25.0326 H   0  0  0  0  0  0
  -28.0667  -31.8426   26.5388 H   0  0  0  0  0  0
  -28.2595  -38.0112   24.7515 H   0  0  0  0  0  0
  -28.1090  -36.2647   24.6298 H   0  0  0  0  0  0
  -27.2309  -37.1475   25.8877 H   0  0  0  0  0  0
  -20.9299  -29.8744   21.6981 H   0  0  0  0  0  0
  -26.0180  -38.2886   24.1402 H   0  0  0  0  0  0
  -32.2282  -17.5647   20.2793 H   0  0  0  0  0  0
  -31.7631  -17.2277   21.9965 H   0  0  0  0  0  0
  -29.3499  -17.6592   22.4189 H   0  0  0  0  0  0
  -28.4898  -18.2270   20.9299 H   0  0  0  0  0  0
  -29.9789  -16.9470   19.4599 H   0  0  0  0  0  0
  -31.8067  -26.0734   23.1802 H   0  0  0  0  0  0
  -32.1146  -25.1136   21.7329 H   0  0  0  0  0  0
  -31.3963  -24.3688   23.1728 H   0  0  0  0  0  0
  -30.4146  -22.0452   20.3143 H   0  0  0  0  0  0
  -31.2376  -22.5889   21.7525 H   0  0  0  0  0  0
  -28.9246  -20.5745   21.7938 H   0  0  0  0  0  0
  -29.8000  -21.1518   23.1716 H   0  0  0  0  0  0
  -28.2896  -22.9246   21.0745 H   0  0  0  0  0  0
  -28.9110  -23.3735   22.6233 H   0  0  0  0  0  0
  -31.0843  -19.3160   22.9692 H   0  0  0  0  0  0
  -31.9328  -20.1930   21.7253 H   0  0  0  0  0  0
  -27.9606  -24.8083   19.5091 H   0  0  0  0  0  0
  -27.4130  -25.2160   21.1290 H   0  0  0  0  0  0
  -30.2353  -24.6402   20.2018 H   0  0  0  0  0  0
  -29.0450  -15.1899   21.3387 H   0  0  0  0  0  0
  -30.4990  -19.1101   20.0739 H   0  0  0  0  0  0
  -30.1070  -26.5367   21.6738 H   0  0  0  0  0  0
  -29.4350  -25.6564   22.8550 H   0  0  0  0  0  0
  1 25  1  0  0  0
  1 30  2  0  0  0
  1 81  1  0  0  0
  2  3  1  0  0  0
  2 25  1  0  0  0
  2 84  1  0  0  0
  2 85  1  0  0  0
  3  4  1  0  0  0
  3 86  1  0  0  0
  3 87  1  0  0  0
  4  5  1  0  0  0
  4 88  1  0  0  0
  4 89  1  0  0  0
  5  6  1  0  0  0
  5 26  1  0  0  0
  5 90  1  0  0  0
  6 25  1  0  0  0
  6 91  1  0  0  0
  6 92  1  0  0  0
  7  8  2  0  0  0
  7 26  1  0  0  0
  7 29  1  0  0  0
  8  9  1  0  0  0
  8 22  1  0  0  0
  9 10  1  0  0  0
  9 27  2  0  0  0
 10 11  2  0  0  0
 10 15  1  0  0  0
 11 12  1  0  0  0
 11 93  1  0  0  0
 12 13  2  0  0  0
 12 94  1  0  0  0
 13 14  1  0  0  0
 13 31  1  0  0  0
 14 15  2  0  0  0
 14 95  1  0  0  0
 15 96  1  0  0  0
 16 17  2  0  0  0
 16 21  1  0  0  0
 16 31  1  0  0  0
 17 18  1  0  0  0
 17 97  1  0  0  0
 18 19  2  0  0  0
 18 98  1  0  0  0
 19 20  1  0  0  0
 19 24  1  0  0  0
 20 21  2  0  0  0
 20 99  1  0  0  0
 21 23  1  0  0  0
 22 28  1  0  0  0
 22 32  2  0  0  0
 26 27  1  0  0  0
 28100  1  0  0  0
 28101  1  0  0  0
 29102  1  0  0  0
 29103  1  0  0  0
 33 34  1  0  0  0
 33 66  1  0  0  0
 33 70  2  0  0  0
 34 36  1  0  0  0
 34 59  1  0  0  0
 34104  1  0  0  0
 35 44  2  0  0  0
 35 45  1  0  0  0
 35 68  1  0  0  0
 36 56  1  0  0  0
 36105  1  0  0  0
 37 39  1  0  0  0
 37 47  1  0  0  0
 37 66  1  0  0  0
 37106  1  0  0  0
 38 43  2  0  0  0
 38 46  1  0  0  0
 38 47  1  0  0  0
 39 64  1  0  0  0
 39 67  2  0  0  0
 40 52  1  0  0  0
 40 53  2  0  0  0
 40 58  1  0  0  0
 41107  1  0  0  0
 41108  1  0  0  0
 41109  1  0  0  0
 41 48  1  0  0  0
 42 43  1  0  0  0
 42 66  1  0  0  0
 42110  1  0  0  0
 42111  1  0  0  0
 43 44  1  0  0  0
 44112  1  0  0  0
 45 46  2  0  0  0
 45113  1  0  0  0
 46114  1  0  0  0
 47115  1  0  0  0
 47116  1  0  0  0
 48 56  1  0  0  0
 48 65  1  0  0  0
 48117  1  0  0  0
 49 50  1  0  0  0
 49 53  1  0  0  0
 49 64  1  0  0  0
 49118  1  0  0  0
 50 51  1  0  0  0
 50119  1  0  0  0
 50120  1  0  0  0
 51 52  1  0  0  0
 51121  1  0  0  0
 51122  1  0  0  0
 52123  1  0  0  0
 52124  1  0  0  0
 53 54  1  0  0  0
 54 55  2  0  0  0
 54125  1  0  0  0
 55 57  1  0  0  0
 55126  1  0  0  0
 56 69  2  0  0  0
 57 58  2  0  0  0
 57127  1  0  0  0
 58128  1  0  0  0
 59 60  1  0  0  0
 59 61  1  0  0  0
 59 62  1  0  0  0
 60129  1  0  0  0
 60130  1  0  0  0
 60131  1  0  0  0
 61132  1  0  0  0
 61133  1  0  0  0
 61134  1  0  0  0
 62135  1  0  0  0
 62136  1  0  0  0
 62137  1  0  0  0
 63 65  1  0  0  0
 63138  1  0  0  0
 63139  1  0  0  0
 63140  1  0  0  0
 64141  1  0  0  0
 65142  1  0  0  0
 68 79  1  0  0  0
 71 73  1  0  0  0
 71 82  1  0  0  0
 71143  1  0  0  0
 71144  1  0  0  0
 72 73  1  0  0  0
 72 82  1  0  0  0
 72145  1  0  0  0
 72146  1  0  0  0
 73 81  1  0  0  0
 73147  1  0  0  0
 74 83  1  0  0  0
 74148  1  0  0  0
 74149  1  0  0  0
 74150  1  0  0  0
 75 76  1  0  0  0
 75 77  1  0  0  0
 75151  1  0  0  0
 75152  1  0  0  0
 76 78  1  0  0  0
 76153  1  0  0  0
 76154  1  0  0  0
 77155  1  0  0  0
 77156  1  0  0  0
 77 80  1  0  0  0
 78157  1  0  0  0
 78158  1  0  0  0
 78 82  1  0  0  0
 79 80  1  0  0  0
 79159  1  0  0  0
 79160  1  0  0  0
 80 83  1  0  0  0
 80161  1  0  0  0
 81162  1  0  0  0
 82163  1  0  0  0
 83164  1  0  0  0
 83165  1  0  0  0
M  CHG  2  82   1  83   1
M  ISO  4   1 100  68 101  79 101  81 100
M  END
> <chiral flag>
0

> <version>
0

> <s_m_source_file>
/data/baiqing/PycharmProjects/Reinvent-master-3.2/result/LINK_invent/BTK/process_docking_weight1_custom_sum_contain_oxygen_bond_distance_aromatic_linkinvent_7_9_3/rearranged_h_0111.sdf

> <i_m_source_file_index>
5

> <r_mmod_Potential_Energy-OPLS-2005>
-256.949127197266

> <r_mmod_Stretch_Energy-OPLS-2005>
33.4515991210938

> <r_mmod_Bend_Energy-OPLS-2005>
118.310928344727

> <r_mmod_Torsional_Energy-OPLS-2005>
285.691802978516

> <r_mmod_Improper_Torsional_Energy-OPLS-2005>
6.88854932785034

> <r_mmod_Van_der_Waal_Energy-OPLS-2005>
140.376892089844

> <r_mmod_Electrostatic_Energy-OPLS-2005>
32.2179870605469

> <r_mmod_Solvation_Energy-OPLS-2005>
-884.435791015625

> <b_mmod_Minimization_Converged-OPLS-2005>
0

> <r_mmod_RMS_Derivative-OPLS-2005>
2.60297584533691

$$$$
5
                    3D
 Structure written by MMmdl.
168175  0  0  1  0            999 V2000
  -30.6336  -14.5407   20.4219 C   0  0  0  0  0  0
  -30.4191  -12.2919   19.4578 C   0  0  0  0  0  0
  -29.5102  -12.4136   18.2201 C   0  0  0  0  0  0
  -28.0156  -12.3486   18.6141 C   0  0  0  0  0  0
  -27.6457  -13.1987   19.8638 C   0  0  2  0  0  0
  -28.6889  -13.0484   20.9864 C   0  0  0  0  0  0
  -25.2533  -13.8125   20.5695 C   0  0  0  0  0  0
  -24.1808  -13.0408   20.9167 C   0  0  0  0  0  0
  -24.6369  -11.6855   20.8711 C   0  0  0  0  0  0
  -23.9021  -10.4277   21.0413 C   0  0  0  0  0  0
  -24.3595   -9.4226   21.9210 C   0  0  0  0  0  0
  -23.6294   -8.2262   22.0774 C   0  0  0  0  0  0
  -22.4306   -8.0279   21.3525 C   0  0  0  0  0  0
  -21.9890   -9.0254   20.4668 C   0  0  0  0  0  0
  -22.7184  -10.2139   20.3076 C   0  0  0  0  0  0
  -21.6865   -6.0751   22.5267 C   0  0  0  0  0  0
  -21.4029   -6.5660   23.8198 C   0  0  0  0  0  0
  -21.3643   -5.6824   24.9159 C   0  0  0  0  0  0
  -21.6023   -4.3080   24.7229 C   0  0  0  0  0  0
  -21.8826   -3.8158   23.4360 C   0  0  0  0  0  0
  -21.9214   -4.6970   22.3406 C   0  0  0  0  0  0
  -22.7835  -13.5237   21.1849 C   0  0  0  0  0  0
  -22.1684   -4.2164   21.0976 F   0  0  0  0  0  0
  -21.5602   -3.4545   25.7729 F   0  0  0  0  0  0
  -29.9998  -13.3350   20.4007 N   0  0  0  0  0  0
  -26.2939  -12.9259   20.3322 N   0  0  0  0  0  0
  -25.9296  -11.6420   20.5741 N   0  0  0  0  0  0
  -22.0487  -12.8250   22.0396 N   0  0  0  0  0  0
  -25.4263  -15.1868   20.4155 N   0  0  0  0  0  0
  -31.8512  -14.6359   20.2267 O   0  0  0  0  0  0
  -21.6660   -6.8896   21.4241 O   0  0  0  0  0  0
  -22.3520  -14.5532   20.6674 O   0  0  0  0  0  0
  -24.6193  -31.8656   23.2086 C   0  0  0  0  0  0
  -25.9046  -32.4818   23.8400 C   0  0  1  0  0  0
  -27.2229  -27.4075   20.1208 C   0  0  0  0  0  0
  -25.5899  -33.8602   24.2361 N   0  0  0  0  0  0
  -23.4107  -30.4839   21.5562 C   0  0  2  0  0  0
  -24.8492  -28.9610   20.1081 C   0  0  0  0  0  0
  -22.7529  -29.4580   22.5069 C   0  0  0  0  0  0
  -18.0417  -28.1335   22.8522 C   0  0  0  0  0  0
  -24.1490  -36.7291   23.2652 C   0  0  0  0  0  0
  -25.9411  -30.8367   21.3580 C   0  0  0  0  0  0
  -26.0125  -29.4722   20.6973 C   0  0  0  0  0  0
  -27.2097  -28.7115   20.6735 C   0  0  0  0  0  0
  -26.0387  -26.9209   19.5243 C   0  0  0  0  0  0
  -24.8635  -27.6888   19.5109 C   0  0  0  0  0  0
  -23.6098  -29.8217   20.1648 C   0  0  0  0  0  0
  -25.4109  -36.3113   24.0364 C   0  0  1  0  0  0
  -20.5977  -28.3520   23.1449 C   0  0  2  0  0  0
  -20.6822  -26.9197   22.5522 C   0  0  0  0  0  0
  -19.5831  -26.6357   21.5161 C   0  0  0  0  0  0
  -18.1956  -26.7883   22.1535 C   0  0  0  0  0  0
  -19.1668  -28.8739   23.3025 C   0  0  0  0  0  0
  -18.9691  -30.1422   23.8970 C   0  0  0  0  0  0
  -17.6704  -30.6644   24.0531 C   0  0  0  0  0  0
  -25.9001  -34.9472   23.5155 C   0  0  0  0  0  0
  -16.5579  -29.9123   23.6376 C   0  0  0  0  0  0
  -16.7466  -28.6498   23.0464 C   0  0  0  0  0  0
  -26.4442  -31.6597   25.0742 C   0  0  0  0  0  0
  -25.3737  -31.3661   26.1510 C   0  0  0  0  0  0
  -27.0279  -30.3048   24.6161 C   0  0  0  0  0  0
  -27.6030  -32.4303   25.7521 C   0  0  0  0  0  0
  -27.5590  -37.1797   24.8476 C   0  0  0  0  0  0
  -21.4271  -29.2928   22.3887 N   0  0  0  0  0  0
  -26.4300  -37.3781   23.9401 N   0  0  0  0  0  0
  -24.6754  -31.0775   22.0976 N   0  0  0  0  0  0
  -23.4364  -28.8015   23.2978 O   0  0  0  0  0  0
  -28.3806  -26.6463   20.1871 O   0  0  0  0  0  0
  -26.5567  -34.8895   22.4731 O   0  0  0  0  0  0
  -23.5353  -32.1393   23.7459 O   0  0  0  0  0  0
  -27.1799  -22.0379   21.9437 C   0  0  0  0  0  0
  -25.3460  -23.7591   22.0755 C   0  0  0  0  0  0
  -31.1128  -16.5841   18.2472 C   0  0  0  0  0  0
  -28.6231  -16.1772   18.1113 C   0  0  0  0  0  0
  -28.3011  -18.7702   21.6679 C   0  0  0  0  0  0
  -28.2067  -17.2179   21.5562 C   0  0  0  0  0  0
  -27.6750  -24.6090   21.5251 C   0  0  0  0  0  0
  -26.9394  -19.5294   21.6760 C   0  0  0  0  0  0
  -29.5859  -16.4833   21.4958 C   0  0  0  0  0  0
  -28.2769  -25.2040   20.2135 C   0  0  0  0  0  0
  -26.6828  -23.4027   21.3805 C   0  0  1  0  0  0
  -29.7971  -16.5003   19.0557 C   0  0  0  0  0  0
  -26.9857  -20.9316   21.1938 N   0  0  0  0  0  0
  -29.8154  -15.6396   20.2928 N   0  0  0  0  0  0
  -27.6416  -21.9746   23.0867 O   0  0  0  0  0  0
  -31.4716  -12.3758   19.1788 H   0  0  0  0  0  0
  -30.3123  -11.3066   19.9114 H   0  0  0  0  0  0
  -29.7389  -11.6130   17.5135 H   0  0  0  0  0  0
  -29.7452  -13.3314   17.6887 H   0  0  0  0  0  0
  -27.7881  -11.3013   18.8063 H   0  0  0  0  0  0
  -27.3937  -12.6381   17.7670 H   0  0  0  0  0  0
  -27.6563  -14.2348   19.5527 H   0  0  0  0  0  0
  -28.6794  -12.0381   21.3996 H   0  0  0  0  0  0
  -28.4742  -13.7277   21.8136 H   0  0  0  0  0  0
  -25.2743   -9.5728   22.4777 H   0  0  0  0  0  0
  -24.0015   -7.4679   22.7492 H   0  0  0  0  0  0
  -21.0817   -8.8770   19.8988 H   0  0  0  0  0  0
  -22.3642  -10.9694   19.6194 H   0  0  0  0  0  0
  -21.2035   -7.6165   23.9701 H   0  0  0  0  0  0
  -21.1437   -6.0547   25.9060 H   0  0  0  0  0  0
  -22.0624   -2.7623   23.2835 H   0  0  0  0  0  0
  -22.4123  -11.9917   22.4738 H   0  0  0  0  0  0
  -21.1119  -13.1259   22.2651 H   0  0  0  0  0  0
  -24.6604  -15.8411   20.5326 H   0  0  0  0  0  0
  -26.2891  -15.6227   20.1188 H   0  0  0  0  0  0
  -26.7187  -32.5507   23.1207 H   0  0  0  0  0  0
  -25.0076  -33.9791   25.0537 H   0  0  0  0  0  0
  -22.7000  -31.3037   21.4242 H   0  0  0  0  0  0
  -23.3758  -35.9613   23.3317 H   0  0  0  0  0  0
  -24.3585  -36.8877   22.2062 H   0  0  0  0  0  0
  -23.7213  -37.6494   23.6637 H   0  0  0  0  0  0
  -26.0676  -31.6135   20.6040 H   0  0  0  0  0  0
  -26.8267  -30.8768   21.9788 H   0  0  0  0  0  0
  -28.1096  -29.1221   21.1104 H   0  0  0  0  0  0
  -25.9841  -25.9406   19.0793 H   0  0  0  0  0  0
  -23.9666  -27.2825   19.0643 H   0  0  0  0  0  0
  -23.7113  -30.5975   19.4051 H   0  0  0  0  0  0
  -22.7393  -29.2292   19.8809 H   0  0  0  0  0  0
  -25.1280  -36.2007   25.0852 H   0  0  0  0  0  0
  -21.0246  -28.3014   24.1486 H   0  0  0  0  0  0
  -20.5470  -26.2121   23.3726 H   0  0  0  0  0  0
  -21.6785  -26.7058   22.1594 H   0  0  0  0  0  0
  -19.7031  -25.6415   21.0782 H   0  0  0  0  0  0
  -19.6907  -27.3357   20.6886 H   0  0  0  0  0  0
  -17.4281  -26.6604   21.3927 H   0  0  0  0  0  0
  -18.0079  -25.9978   22.8796 H   0  0  0  0  0  0
  -19.8137  -30.7200   24.2370 H   0  0  0  0  0  0
  -17.5354  -31.6352   24.5055 H   0  0  0  0  0  0
  -15.5643  -30.3112   23.7770 H   0  0  0  0  0  0
  -15.8771  -28.0835   22.7333 H   0  0  0  0  0  0
  -24.5937  -30.6980   25.7837 H   0  0  0  0  0  0
  -24.8883  -32.2771   26.5013 H   0  0  0  0  0  0
  -25.8102  -30.8801   27.0251 H   0  0  0  0  0  0
  -26.2836  -29.6845   24.1162 H   0  0  0  0  0  0
  -27.3975  -29.7245   25.4626 H   0  0  0  0  0  0
  -27.8697  -30.4359   23.9368 H   0  0  0  0  0  0
  -27.2684  -33.3610   26.2116 H   0  0  0  0  0  0
  -28.3823  -32.6848   25.0328 H   0  0  0  0  0  0
  -28.0724  -31.8410   26.5420 H   0  0  0  0  0  0
  -28.2611  -38.0090   24.7509 H   0  0  0  0  0  0
  -28.1076  -36.2612   24.6321 H   0  0  0  0  0  0
  -27.2294  -37.1470   25.8876 H   0  0  0  0  0  0
  -20.9391  -29.8899   21.7384 H   0  0  0  0  0  0
  -26.0214  -38.2872   24.1350 H   0  0  0  0  0  0
  -24.6365  -22.9328   22.0406 H   0  0  0  0  0  0
  -24.8704  -24.6204   21.6011 H   0  0  0  0  0  0
  -25.4860  -24.0214   23.1277 H   0  0  0  0  0  0
  -31.0033  -17.2788   17.4138 H   0  0  0  0  0  0
  -31.4116  -15.6174   17.8300 H   0  0  0  0  0  0
  -31.9244  -16.9676   18.8671 H   0  0  0  0  0  0
  -28.5967  -16.8819   17.2838 H   0  0  0  0  0  0
  -27.6574  -16.2614   18.6022 H   0  0  0  0  0  0
  -28.6880  -15.1895   17.6694 H   0  0  0  0  0  0
  -28.9096  -19.1293   20.8365 H   0  0  0  0  0  0
  -28.8443  -19.0147   22.5820 H   0  0  0  0  0  0
  -27.6027  -16.9624   20.6919 H   0  0  0  0  0  0
  -27.6408  -16.8255   22.4000 H   0  0  0  0  0  0
  -27.1562  -25.4120   22.0451 H   0  0  0  0  0  0
  -28.4899  -24.3410   22.1935 H   0  0  0  0  0  0
  -26.5005  -19.5027   22.6742 H   0  0  0  0  0  0
  -26.2282  -18.9909   21.0503 H   0  0  0  0  0  0
  -29.7057  -15.8887   22.4046 H   0  0  0  0  0  0
  -30.3900  -17.2189   21.5454 H   0  0  0  0  0  0
  -27.7501  -24.8433   19.3344 H   0  0  0  0  0  0
  -29.2918  -24.8196   20.0979 H   0  0  0  0  0  0
  -26.4583  -23.2579   20.3239 H   0  0  0  0  0  0
  -29.6241  -17.5346   19.3590 H   0  0  0  0  0  0
  -26.6270  -21.0852   20.2560 H   0  0  0  0  0  0
  1 25  1  0  0  0
  1 30  2  0  0  0
  1 84  1  0  0  0
  2  3  1  0  0  0
  2 25  1  0  0  0
  2 86  1  0  0  0
  2 87  1  0  0  0
  3  4  1  0  0  0
  3 88  1  0  0  0
  3 89  1  0  0  0
  4  5  1  0  0  0
  4 90  1  0  0  0
  4 91  1  0  0  0
  5  6  1  0  0  0
  5 26  1  0  0  0
  5 92  1  0  0  0
  6 25  1  0  0  0
  6 93  1  0  0  0
  6 94  1  0  0  0
  7  8  2  0  0  0
  7 26  1  0  0  0
  7 29  1  0  0  0
  8  9  1  0  0  0
  8 22  1  0  0  0
  9 10  1  0  0  0
  9 27  2  0  0  0
 10 11  2  0  0  0
 10 15  1  0  0  0
 11 12  1  0  0  0
 11 95  1  0  0  0
 12 13  2  0  0  0
 12 96  1  0  0  0
 13 14  1  0  0  0
 13 31  1  0  0  0
 14 15  2  0  0  0
 14 97  1  0  0  0
 15 98  1  0  0  0
 16 17  2  0  0  0
 16 21  1  0  0  0
 16 31  1  0  0  0
 17 18  1  0  0  0
 17 99  1  0  0  0
 18 19  2  0  0  0
 18100  1  0  0  0
 19 20  1  0  0  0
 19 24  1  0  0  0
 20 21  2  0  0  0
 20101  1  0  0  0
 21 23  1  0  0  0
 22 28  1  0  0  0
 22 32  2  0  0  0
 26 27  1  0  0  0
 28102  1  0  0  0
 28103  1  0  0  0
 29104  1  0  0  0
 29105  1  0  0  0
 33 34  1  0  0  0
 33 66  1  0  0  0
 33 70  2  0  0  0
 34 36  1  0  0  0
 34 59  1  0  0  0
 34106  1  0  0  0
 35 44  2  0  0  0
 35 45  1  0  0  0
 35 68  1  0  0  0
 36 56  1  0  0  0
 36107  1  0  0  0
 37 39  1  0  0  0
 37 47  1  0  0  0
 37 66  1  0  0  0
 37108  1  0  0  0
 38 43  2  0  0  0
 38 46  1  0  0  0
 38 47  1  0  0  0
 39 64  1  0  0  0
 39 67  2  0  0  0
 40 52  1  0  0  0
 40 53  2  0  0  0
 40 58  1  0  0  0
 41109  1  0  0  0
 41110  1  0  0  0
 41111  1  0  0  0
 41 48  1  0  0  0
 42 43  1  0  0  0
 42 66  1  0  0  0
 42112  1  0  0  0
 42113  1  0  0  0
 43 44  1  0  0  0
 44114  1  0  0  0
 45 46  2  0  0  0
 45115  1  0  0  0
 46116  1  0  0  0
 47117  1  0  0  0
 47118  1  0  0  0
 48 56  1  0  0  0
 48 65  1  0  0  0
 48119  1  0  0  0
 49 50  1  0  0  0
 49 53  1  0  0  0
 49 64  1  0  0  0
 49120  1  0  0  0
 50 51  1  0  0  0
 50121  1  0  0  0
 50122  1  0  0  0
 51 52  1  0  0  0
 51123  1  0  0  0
 51124  1  0  0  0
 52125  1  0  0  0
 52126  1  0  0  0
 53 54  1  0  0  0
 54 55  2  0  0  0
 54127  1  0  0  0
 55 57  1  0  0  0
 55128  1  0  0  0
 56 69  2  0  0  0
 57 58  2  0  0  0
 57129  1  0  0  0
 58130  1  0  0  0
 59 60  1  0  0  0
 59 61  1  0  0  0
 59 62  1  0  0  0
 60131  1  0  0  0
 60132  1  0  0  0
 60133  1  0  0  0
 61134  1  0  0  0
 61135  1  0  0  0
 61136  1  0  0  0
 62137  1  0  0  0
 62138  1  0  0  0
 62139  1  0  0  0
 63 65  1  0  0  0
 63140  1  0  0  0
 63141  1  0  0  0
 63142  1  0  0  0
 64143  1  0  0  0
 65144  1  0  0  0
 68 80  1  0  0  0
 71 81  1  0  0  0
 71 83  1  0  0  0
 71 85  2  0  0  0
 72145  1  0  0  0
 72146  1  0  0  0
 72147  1  0  0  0
 72 81  1  0  0  0
 73148  1  0  0  0
 73149  1  0  0  0
 73150  1  0  0  0
 73 82  1  0  0  0
 74 82  1  0  0  0
 74151  1  0  0  0
 74152  1  0  0  0
 74153  1  0  0  0
 75 76  1  0  0  0
 75 78  1  0  0  0
 75154  1  0  0  0
 75155  1  0  0  0
 76 79  1  0  0  0
 76156  1  0  0  0
 76157  1  0  0  0
 77 80  1  0  0  0
 77 81  1  0  0  0
 77158  1  0  0  0
 77159  1  0  0  0
 78 83  1  0  0  0
 78160  1  0  0  0
 78161  1  0  0  0
 79 84  1  0  0  0
 79162  1  0  0  0
 79163  1  0  0  0
 80164  1  0  0  0
 80165  1  0  0  0
 81166  1  0  0  0
 82 84  1  0  0  0
 82167  1  0  0  0
 83168  1  0  0  0
M  ISO  4   1 100  68 101  80 101  84 100
M  END
> <chiral flag>
0

> <version>
0

> <s_m_source_file>
/data/baiqing/PycharmProjects/Reinvent-master-3.2/result/LINK_invent/BTK/process_docking_weight1_custom_sum_contain_oxygen_bond_distance_aromatic_linkinvent_7_9_3/rearranged_h_0111.sdf

> <i_m_source_file_index>
6

> <r_mmod_Potential_Energy-OPLS-2005>
175.350784301758

> <r_mmod_Stretch_Energy-OPLS-2005>
54.234935760498

> <r_mmod_Bend_Energy-OPLS-2005>
124.962455749512

> <r_mmod_Torsional_Energy-OPLS-2005>
346.554565429688

> <r_mmod_Improper_Torsional_Energy-OPLS-2005>
14.2409048080444

> <r_mmod_Van_der_Waal_Energy-OPLS-2005>
130.038619995117

> <r_mmod_Electrostatic_Energy-OPLS-2005>
-313.0888671875

> <r_mmod_Solvation_Energy-OPLS-2005>
-214.751052856445

> <b_mmod_Minimization_Converged-OPLS-2005>
0

> <r_mmod_RMS_Derivative-OPLS-2005>
9.97593593597412

$$$$
6
                    3D
 Structure written by MMmdl.
152160  0  0  1  0            999 V2000
  -30.6317  -14.6375   20.4949 C   0  0  0  0  0  0
  -30.4313  -12.3928   19.4514 C   0  0  0  0  0  0
  -29.5027  -12.5010   18.2221 C   0  0  0  0  0  0
  -28.0260  -12.3406   18.6353 C   0  0  0  0  0  0
  -27.6489  -13.2179   19.8590 C   0  0  2  0  0  0
  -28.6934  -13.0891   20.9898 C   0  0  0  0  0  0
  -25.2540  -13.8173   20.5678 C   0  0  0  0  0  0
  -24.1818  -13.0437   20.9203 C   0  0  0  0  0  0
  -24.6388  -11.6910   20.8750 C   0  0  0  0  0  0
  -23.9061  -10.4294   21.0417 C   0  0  0  0  0  0
  -24.3616   -9.4207   21.9189 C   0  0  0  0  0  0
  -23.6292   -8.2243   22.0756 C   0  0  0  0  0  0
  -22.4274   -8.0280   21.3546 C   0  0  0  0  0  0
  -21.9911   -9.0255   20.4650 C   0  0  0  0  0  0
  -22.7238  -10.2134   20.3061 C   0  0  0  0  0  0
  -21.6852   -6.0736   22.5281 C   0  0  0  0  0  0
  -21.4014   -6.5642   23.8213 C   0  0  0  0  0  0
  -21.3657   -5.6794   24.9175 C   0  0  0  0  0  0
  -21.6043   -4.3057   24.7227 C   0  0  0  0  0  0
  -21.8819   -3.8148   23.4348 C   0  0  0  0  0  0
  -21.9194   -4.6964   22.3404 C   0  0  0  0  0  0
  -22.7838  -13.5228   21.1861 C   0  0  0  0  0  0
  -22.1660   -4.2148   21.0981 F   0  0  0  0  0  0
  -21.5627   -3.4542   25.7742 F   0  0  0  0  0  0
  -30.0051  -13.4229   20.4192 N   0  0  0  0  0  0
  -26.2964  -12.9356   20.3305 N   0  0  0  0  0  0
  -25.9315  -11.6511   20.5762 N   0  0  0  0  0  0
  -22.0481  -12.8218   22.0415 N   0  0  0  0  0  0
  -25.4248  -15.1891   20.4061 N   0  0  0  0  0  0
  -31.8046  -14.7775   20.1379 O   0  0  0  0  0  0
  -21.6636   -6.8878   21.4243 O   0  0  0  0  0  0
  -22.3533  -14.5538   20.6711 O   0  0  0  0  0  0
  -24.6232  -31.8604   23.2018 C   0  0  0  0  0  0
  -25.9090  -32.4783   23.8342 C   0  0  1  0  0  0
  -27.2272  -27.3288   20.1255 C   0  0  0  0  0  0
  -25.5919  -33.8586   24.2274 N   0  0  0  0  0  0
  -23.4167  -30.4818   21.5436 C   0  0  2  0  0  0
  -24.8631  -28.9288   20.1157 C   0  0  0  0  0  0
  -22.7454  -29.4627   22.4940 C   0  0  0  0  0  0
  -18.0285  -28.1385   22.8493 C   0  0  0  0  0  0
  -24.1487  -36.7291   23.2638 C   0  0  0  0  0  0
  -25.9536  -30.7934   21.3704 C   0  0  0  0  0  0
  -26.0275  -29.4172   20.7218 C   0  0  0  0  0  0
  -27.2105  -28.6262   20.7207 C   0  0  0  0  0  0
  -26.0437  -26.8839   19.4978 C   0  0  0  0  0  0
  -24.8709  -27.6663   19.4978 C   0  0  0  0  0  0
  -23.6313  -29.8101   20.1603 C   0  0  0  0  0  0
  -25.4114  -36.3086   24.0331 C   0  0  1  0  0  0
  -20.5880  -28.3688   23.1290 C   0  0  2  0  0  0
  -20.6773  -26.9411   22.5416 C   0  0  0  0  0  0
  -19.5750  -26.6386   21.5216 C   0  0  0  0  0  0
  -18.1930  -26.7932   22.1626 C   0  0  0  0  0  0
  -19.1535  -28.8851   23.2891 C   0  0  0  0  0  0
  -18.9461  -30.1455   23.8905 C   0  0  0  0  0  0
  -17.6461  -30.6591   24.0567 C   0  0  0  0  0  0
  -25.9050  -34.9458   23.5102 C   0  0  0  0  0  0
  -16.5353  -29.9093   23.6329 C   0  0  0  0  0  0
  -16.7272  -28.6509   23.0353 C   0  0  0  0  0  0
  -26.4486  -31.6594   25.0709 C   0  0  0  0  0  0
  -25.3730  -31.3731   26.1442 C   0  0  0  0  0  0
  -27.0319  -30.3022   24.6144 C   0  0  0  0  0  0
  -27.6042  -32.4329   25.7488 C   0  0  0  0  0  0
  -27.5579  -37.1798   24.8467 C   0  0  0  0  0  0
  -21.4170  -29.3043   22.3680 N   0  0  0  0  0  0
  -26.4291  -37.3780   23.9411 N   0  0  0  0  0  0
  -24.6832  -31.0625   22.0961 N   0  0  0  0  0  0
  -23.4182  -28.8172   23.3019 O   0  0  0  0  0  0
  -28.3794  -26.5365   20.1135 O   0  0  0  0  0  0
  -26.5615  -34.8926   22.4666 O   0  0  0  0  0  0
  -23.5402  -32.1391   23.7358 O   0  0  0  0  0  0
  -28.9492  -22.9390   19.1560 C   0  0  0  0  0  0
  -28.9089  -24.3595   19.0801 C   0  0  0  0  0  0
  -27.9537  -23.1245   21.3175 C   0  0  0  0  0  0
  -28.4597  -22.2663   20.3026 C   0  0  0  0  0  0
  -28.3646  -25.1245   20.1361 C   0  0  0  0  0  0
  -28.2655  -20.6976   20.3574 C   0  0  0  0  0  0
  -30.2344  -17.1878   20.7200 C   0  0  0  0  0  0
  -29.0546  -18.2531   20.5748 C   0  0  0  0  0  0
  -27.9082  -24.4923   21.2483 N   0  0  0  0  0  0
  -29.8510  -15.7280   20.7777 N   0  0  0  0  0  0
  -29.4224  -19.7327   20.5475 N   0  3  0  0  0  0
  -31.4725  -12.5153   19.1474 H   0  0  0  0  0  0
  -30.3656  -11.4008   19.9006 H   0  0  0  0  0  0
  -29.7672  -11.7459   17.4807 H   0  0  0  0  0  0
  -29.6439  -13.4681   17.7367 H   0  0  0  0  0  0
  -27.8624  -11.2884   18.8710 H   0  0  0  0  0  0
  -27.3706  -12.5677   17.7934 H   0  0  0  0  0  0
  -27.6628  -14.2500   19.5085 H   0  0  0  0  0  0
  -28.7053  -12.0741   21.3898 H   0  0  0  0  0  0
  -28.4439  -13.7407   21.8289 H   0  0  0  0  0  0
  -25.2763   -9.5678   22.4760 H   0  0  0  0  0  0
  -24.0003   -7.4633   22.7472 H   0  0  0  0  0  0
  -21.0843   -8.8774   19.8954 H   0  0  0  0  0  0
  -22.3701  -10.9673   19.6169 H   0  0  0  0  0  0
  -21.2002   -7.6150   23.9714 H   0  0  0  0  0  0
  -21.1480   -6.0526   25.9077 H   0  0  0  0  0  0
  -22.0599   -2.7611   23.2848 H   0  0  0  0  0  0
  -22.4100  -11.9873   22.4789 H   0  0  0  0  0  0
  -21.1100  -13.1242   22.2630 H   0  0  0  0  0  0
  -24.6512  -15.8381   20.5015 H   0  0  0  0  0  0
  -26.2584  -15.6203   20.0294 H   0  0  0  0  0  0
  -26.7157  -32.5461   23.1093 H   0  0  0  0  0  0
  -25.0089  -33.9741   25.0434 H   0  0  0  0  0  0
  -22.7104  -31.3017   21.3981 H   0  0  0  0  0  0
  -23.3754  -35.9619   23.3307 H   0  0  0  0  0  0
  -24.3575  -36.8899   22.2049 H   0  0  0  0  0  0
  -23.7239  -37.6495   23.6654 H   0  0  0  0  0  0
  -26.0798  -31.5527   20.5971 H   0  0  0  0  0  0
  -26.8362  -30.8474   21.9965 H   0  0  0  0  0  0
  -28.1091  -28.9995   21.1915 H   0  0  0  0  0  0
  -26.0180  -25.9190   19.0112 H   0  0  0  0  0  0
  -23.9776  -27.2867   19.0207 H   0  0  0  0  0  0
  -23.7521  -30.5836   19.4011 H   0  0  0  0  0  0
  -22.7515  -29.2384   19.8588 H   0  0  0  0  0  0
  -25.1298  -36.1933   25.0824 H   0  0  0  0  0  0
  -20.9984  -28.3259   24.1405 H   0  0  0  0  0  0
  -20.5675  -26.2295   23.3612 H   0  0  0  0  0  0
  -21.6644  -26.7449   22.1205 H   0  0  0  0  0  0
  -19.6919  -25.6299   21.1242 H   0  0  0  0  0  0
  -19.6690  -27.3199   20.6746 H   0  0  0  0  0  0
  -17.4202  -26.6684   21.4025 H   0  0  0  0  0  0
  -18.0332  -26.0070   22.9017 H   0  0  0  0  0  0
  -19.7939  -30.7271   24.2275 H   0  0  0  0  0  0
  -17.5020  -31.6272   24.5167 H   0  0  0  0  0  0
  -15.5356  -30.3001   23.7650 H   0  0  0  0  0  0
  -15.8671  -28.0834   22.7063 H   0  0  0  0  0  0
  -24.5911  -30.7073   25.7776 H   0  0  0  0  0  0
  -24.8921  -32.2897   26.4865 H   0  0  0  0  0  0
  -25.8064  -30.8919   27.0218 H   0  0  0  0  0  0
  -26.2878  -29.6786   24.1173 H   0  0  0  0  0  0
  -27.4031  -29.7264   25.4630 H   0  0  0  0  0  0
  -27.8746  -30.4317   23.9348 H   0  0  0  0  0  0
  -27.2650  -33.3630   26.2063 H   0  0  0  0  0  0
  -28.3857  -32.6885   25.0322 H   0  0  0  0  0  0
  -28.0707  -31.8457   26.5406 H   0  0  0  0  0  0
  -28.2598  -38.0091   24.7504 H   0  0  0  0  0  0
  -28.1069  -36.2621   24.6305 H   0  0  0  0  0  0
  -27.2293  -37.1460   25.8869 H   0  0  0  0  0  0
  -20.9338  -29.8760   21.6891 H   0  0  0  0  0  0
  -26.0171  -38.2857   24.1410 H   0  0  0  0  0  0
  -29.3260  -22.3729   18.3163 H   0  0  0  0  0  0
  -29.2903  -24.8620   18.2020 H   0  0  0  0  0  0
  -27.5207  -22.6984   22.2107 H   0  0  0  0  0  0
  -27.7599  -20.4173   19.4321 H   0  0  0  0  0  0
  -27.5406  -20.4904   21.1461 H   0  0  0  0  0  0
  -30.8004  -17.4088   21.6256 H   0  0  0  0  0  0
  -30.9319  -17.3256   19.8925 H   0  0  0  0  0  0
  -28.3472  -18.1034   21.3915 H   0  0  0  0  0  0
  -28.5040  -18.0313   19.6596 H   0  0  0  0  0  0
  -28.8964  -15.5197   21.0297 H   0  0  0  0  0  0
  -29.8856  -19.9571   21.4129 H   0  0  0  0  0  0
  -30.0844  -19.8783   19.8035 H   0  0  0  0  0  0
  1 25  1  0  0  0
  1 30  2  0  0  0
  1 80  1  0  0  0
  2  3  1  0  0  0
  2 25  1  0  0  0
  2 82  1  0  0  0
  2 83  1  0  0  0
  3  4  1  0  0  0
  3 84  1  0  0  0
  3 85  1  0  0  0
  4  5  1  0  0  0
  4 86  1  0  0  0
  4 87  1  0  0  0
  5  6  1  0  0  0
  5 26  1  0  0  0
  5 88  1  0  0  0
  6 25  1  0  0  0
  6 89  1  0  0  0
  6 90  1  0  0  0
  7  8  2  0  0  0
  7 26  1  0  0  0
  7 29  1  0  0  0
  8  9  1  0  0  0
  8 22  1  0  0  0
  9 10  1  0  0  0
  9 27  2  0  0  0
 10 11  2  0  0  0
 10 15  1  0  0  0
 11 12  1  0  0  0
 11 91  1  0  0  0
 12 13  2  0  0  0
 12 92  1  0  0  0
 13 14  1  0  0  0
 13 31  1  0  0  0
 14 15  2  0  0  0
 14 93  1  0  0  0
 15 94  1  0  0  0
 16 17  2  0  0  0
 16 21  1  0  0  0
 16 31  1  0  0  0
 17 18  1  0  0  0
 17 95  1  0  0  0
 18 19  2  0  0  0
 18 96  1  0  0  0
 19 20  1  0  0  0
 19 24  1  0  0  0
 20 21  2  0  0  0
 20 97  1  0  0  0
 21 23  1  0  0  0
 22 28  1  0  0  0
 22 32  2  0  0  0
 26 27  1  0  0  0
 28 98  1  0  0  0
 28 99  1  0  0  0
 29100  1  0  0  0
 29101  1  0  0  0
 33 34  1  0  0  0
 33 66  1  0  0  0
 33 70  2  0  0  0
 34 36  1  0  0  0
 34 59  1  0  0  0
 34102  1  0  0  0
 35 44  2  0  0  0
 35 45  1  0  0  0
 35 68  1  0  0  0
 36 56  1  0  0  0
 36103  1  0  0  0
 37 39  1  0  0  0
 37 47  1  0  0  0
 37 66  1  0  0  0
 37104  1  0  0  0
 38 43  2  0  0  0
 38 46  1  0  0  0
 38 47  1  0  0  0
 39 64  1  0  0  0
 39 67  2  0  0  0
 40 52  1  0  0  0
 40 53  2  0  0  0
 40 58  1  0  0  0
 41105  1  0  0  0
 41106  1  0  0  0
 41107  1  0  0  0
 41 48  1  0  0  0
 42 43  1  0  0  0
 42 66  1  0  0  0
 42108  1  0  0  0
 42109  1  0  0  0
 43 44  1  0  0  0
 44110  1  0  0  0
 45 46  2  0  0  0
 45111  1  0  0  0
 46112  1  0  0  0
 47113  1  0  0  0
 47114  1  0  0  0
 48 56  1  0  0  0
 48 65  1  0  0  0
 48115  1  0  0  0
 49 50  1  0  0  0
 49 53  1  0  0  0
 49 64  1  0  0  0
 49116  1  0  0  0
 50 51  1  0  0  0
 50117  1  0  0  0
 50118  1  0  0  0
 51 52  1  0  0  0
 51119  1  0  0  0
 51120  1  0  0  0
 52121  1  0  0  0
 52122  1  0  0  0
 53 54  1  0  0  0
 54 55  2  0  0  0
 54123  1  0  0  0
 55 57  1  0  0  0
 55124  1  0  0  0
 56 69  2  0  0  0
 57 58  2  0  0  0
 57125  1  0  0  0
 58126  1  0  0  0
 59 60  1  0  0  0
 59 61  1  0  0  0
 59 62  1  0  0  0
 60127  1  0  0  0
 60128  1  0  0  0
 60129  1  0  0  0
 61130  1  0  0  0
 61131  1  0  0  0
 61132  1  0  0  0
 62133  1  0  0  0
 62134  1  0  0  0
 62135  1  0  0  0
 63 65  1  0  0  0
 63136  1  0  0  0
 63137  1  0  0  0
 63138  1  0  0  0
 64139  1  0  0  0
 65140  1  0  0  0
 68 75  1  0  0  0
 71 72  2  0  0  0
 71 74  1  0  0  0
 71141  1  0  0  0
 72 75  1  0  0  0
 72142  1  0  0  0
 73 74  2  0  0  0
 73 79  1  0  0  0
 73143  1  0  0  0
 74 76  1  0  0  0
 75 79  2  0  0  0
 76 81  1  0  0  0
 76144  1  0  0  0
 76145  1  0  0  0
 77 78  1  0  0  0
 77 80  1  0  0  0
 77146  1  0  0  0
 77147  1  0  0  0
 78 81  1  0  0  0
 78148  1  0  0  0
 78149  1  0  0  0
 80150  1  0  0  0
 81151  1  0  0  0
 81152  1  0  0  0
M  CHG  1  81   1
M  ISO  4   1 100  68 101  75 101  80 100
M  END
> <chiral flag>
0

> <version>
0

> <s_m_source_file>
/data/baiqing/PycharmProjects/Reinvent-master-3.2/result/LINK_invent/BTK/process_docking_weight1_custom_sum_contain_oxygen_bond_distance_aromatic_linkinvent_7_9_3/rearranged_h_0111.sdf

> <i_m_source_file_index>
7

> <r_mmod_Potential_Energy-OPLS-2005>
-334.120910644531

> <r_mmod_Stretch_Energy-OPLS-2005>
73.027946472168

> <r_mmod_Bend_Energy-OPLS-2005>
127.322509765625

> <r_mmod_Torsional_Energy-OPLS-2005>
202.323913574219

> <r_mmod_Improper_Torsional_Energy-OPLS-2005>
6.20112276077271

> <r_mmod_Van_der_Waal_Energy-OPLS-2005>
138.64274597168

> <r_mmod_Electrostatic_Energy-OPLS-2005>
-408.13037109375

> <r_mmod_Solvation_Energy-OPLS-2005>
-516.995727539062

> <b_mmod_Minimization_Converged-OPLS-2005>
0

> <r_mmod_RMS_Derivative-OPLS-2005>
0.704595685005188

$$$$
7
                    3D
 Structure written by MMmdl.
149156  0  0  1  0            999 V2000
  -30.1594  -16.0042   20.2861 C   0  0  0  0  0  0
  -30.3909  -13.3510   19.5696 C   0  0  0  0  0  0
  -29.5649  -12.7696   18.3742 C   0  0  0  0  0  0
  -28.1664  -12.3312   18.8217 C   0  0  0  0  0  0
  -27.5841  -13.3532   19.8179 C   0  0  2  0  0  0
  -28.5687  -13.8311   20.9234 C   0  0  0  0  0  0
  -25.2238  -13.8351   20.5855 C   0  0  0  0  0  0
  -24.1672  -13.0436   20.9309 C   0  0  0  0  0  0
  -24.6434  -11.6970   20.8748 C   0  0  0  0  0  0
  -23.9145  -10.4295   21.0371 C   0  0  0  0  0  0
  -24.3669   -9.4208   21.9162 C   0  0  0  0  0  0
  -23.6324   -8.2251   22.0747 C   0  0  0  0  0  0
  -22.4301   -8.0289   21.3545 C   0  0  0  0  0  0
  -21.9951   -9.0261   20.4639 C   0  0  0  0  0  0
  -22.7299  -10.2131   20.3037 C   0  0  0  0  0  0
  -21.6863   -6.0738   22.5277 C   0  0  0  0  0  0
  -21.4020   -6.5640   23.8209 C   0  0  0  0  0  0
  -21.3669   -5.6794   24.9172 C   0  0  0  0  0  0
  -21.6050   -4.3057   24.7223 C   0  0  0  0  0  0
  -21.8816   -3.8146   23.4343 C   0  0  0  0  0  0
  -21.9193   -4.6963   22.3398 C   0  0  0  0  0  0
  -22.7674  -13.5131   21.1942 C   0  0  0  0  0  0
  -22.1659   -4.2147   21.0976 F   0  0  0  0  0  0
  -21.5635   -3.4541   25.7737 F   0  0  0  0  0  0
  -29.6922  -14.5663   20.2612 N   0  0  0  0  0  0
  -26.2742  -12.9771   20.3307 N   0  0  0  0  0  0
  -25.9403  -11.6787   20.5679 N   0  0  0  0  0  0
  -22.0360  -12.8087   22.0493 N   0  0  0  0  0  0
  -25.3772  -15.2101   20.4309 N   0  0  0  0  0  0
  -31.3912  -15.8865   20.0795 O   0  0  0  0  0  0
  -21.6659   -6.8887   21.4241 O   0  0  0  0  0  0
  -22.3330  -14.5425   20.6783 O   0  0  0  0  0  0
  -24.7074  -31.7700   23.1300 C   0  0  0  0  0  0
  -25.9534  -32.4319   23.7943 C   0  0  1  0  0  0
  -27.2376  -26.4432   20.2319 C   0  0  0  0  0  0
  -25.6009  -33.8162   24.1808 N   0  0  0  0  0  0
  -23.5451  -30.3597   21.4895 C   0  0  2  0  0  0
  -25.0055  -28.6463   20.1193 C   0  0  0  0  0  0
  -22.7868  -29.4156   22.4639 C   0  0  0  0  0  0
  -18.0349  -28.1438   22.8444 C   0  0  0  0  0  0
  -24.1488  -36.7090   23.2658 C   0  0  0  0  0  0
  -26.1348  -30.4146   21.4339 C   0  0  0  0  0  0
  -26.1959  -28.9509   20.7879 C   0  0  0  0  0  0
  -27.2789  -27.8836   20.8097 C   0  0  0  0  0  0
  -26.0170  -26.4180   19.4895 C   0  0  0  0  0  0
  -24.9710  -27.4091   19.4455 C   0  0  0  0  0  0
  -23.8120  -29.6320   20.1348 C   0  0  0  0  0  0
  -25.4149  -36.2814   24.0265 C   0  0  1  0  0  0
  -20.5996  -28.3812   23.1096 C   0  0  2  0  0  0
  -20.6803  -26.9448   22.5412 C   0  0  0  0  0  0
  -19.5786  -26.6368   21.5222 C   0  0  0  0  0  0
  -18.1965  -26.7962   22.1613 C   0  0  0  0  0  0
  -19.1621  -28.8956   23.2741 C   0  0  0  0  0  0
  -18.9524  -30.1532   23.8797 C   0  0  0  0  0  0
  -17.6512  -30.6615   24.0549 C   0  0  0  0  0  0
  -25.9148  -34.9210   23.4894 C   0  0  0  0  0  0
  -16.5399  -29.9093   23.6361 C   0  0  0  0  0  0
  -16.7329  -28.6516   23.0377 C   0  0  0  0  0  0
  -26.4633  -31.6469   25.0674 C   0  0  0  0  0  0
  -25.3632  -31.3862   26.1244 C   0  0  0  0  0  0
  -27.0606  -30.2779   24.6760 C   0  0  0  0  0  0
  -27.6037  -32.4390   25.7500 C   0  0  0  0  0  0
  -27.5556  -37.1695   24.8463 C   0  0  0  0  0  0
  -21.4493  -29.3005   22.3384 N   0  0  0  0  0  0
  -26.4252  -37.3606   23.9415 N   0  0  0  0  0  0
  -24.8224  -30.8880   22.0696 N   0  0  0  0  0  0
  -23.4190  -28.7802   23.3106 O   0  0  0  0  0  0
  -28.1630  -25.1077   20.3621 O   0  0  0  0  0  0
  -26.5828  -34.8839   22.4538 O   0  0  0  0  0  0
  -23.6038  -32.0902   23.6082 O   0  0  0  0  0  0
  -28.7763  -18.0153   17.7070 C   0  0  0  0  0  0
  -29.6463  -20.3664   17.6059 C   0  0  0  0  0  0
  -28.7446  -21.2683   20.5351 C   0  0  0  0  0  0
  -28.2481  -23.2484   19.9827 C   0  0  0  0  0  0
  -28.8380  -19.3652   18.4516 C   0  0  0  0  0  0
  -29.3299  -19.3322   19.9337 C   0  0  2  0  0  0
  -29.4059  -17.4679   20.3700 N   0  0  0  0  0  0
  -31.3639  -13.6491   19.1782 H   0  0  0  0  0  0
  -30.6234  -12.5659   20.2913 H   0  0  0  0  0  0
  -30.0930  -11.9357   17.9104 H   0  0  0  0  0  0
  -29.4717  -13.5401   17.6074 H   0  0  0  0  0  0
  -28.2527  -11.3581   19.3065 H   0  0  0  0  0  0
  -27.5064  -12.1971   17.9636 H   0  0  0  0  0  0
  -27.4017  -14.2312   19.1962 H   0  0  0  0  0  0
  -28.9015  -13.0054   21.5546 H   0  0  0  0  0  0
  -28.0620  -14.5279   21.5919 H   0  0  0  0  0  0
  -25.2804   -9.5686   22.4752 H   0  0  0  0  0  0
  -24.0023   -7.4645   22.7473 H   0  0  0  0  0  0
  -21.0880   -8.8781   19.8947 H   0  0  0  0  0  0
  -22.3742  -10.9667   19.6152 H   0  0  0  0  0  0
  -21.2011   -7.6148   23.9711 H   0  0  0  0  0  0
  -21.1502   -6.0527   25.9076 H   0  0  0  0  0  0
  -22.0586   -2.7607   23.2845 H   0  0  0  0  0  0
  -22.4014  -11.9762   22.4874 H   0  0  0  0  0  0
  -21.0963  -13.1065   22.2707 H   0  0  0  0  0  0
  -24.6031  -15.8560   20.5413 H   0  0  0  0  0  0
  -26.2180  -15.6540   20.0869 H   0  0  0  0  0  0
  -26.7639  -32.4729   23.0669 H   0  0  0  0  0  0
  -25.0038  -33.9163   24.9883 H   0  0  0  0  0  0
  -22.8853  -31.2040   21.2779 H   0  0  0  0  0  0
  -23.3785  -35.9382   23.3239 H   0  0  0  0  0  0
  -24.3548  -36.8849   22.2090 H   0  0  0  0  0  0
  -23.7214  -37.6220   23.6811 H   0  0  0  0  0  0
  -26.3636  -31.1207   20.6344 H   0  0  0  0  0  0
  -26.9769  -30.4925   22.1086 H   0  0  0  0  0  0
  -28.1621  -28.1287   21.3830 H   0  0  0  0  0  0
  -25.8090  -25.4988   18.9600 H   0  0  0  0  0  0
  -24.0816  -27.1645   18.8814 H   0  0  0  0  0  0
  -24.0033  -30.3823   19.3667 H   0  0  0  0  0  0
  -22.9114  -29.1100   19.8066 H   0  0  0  0  0  0
  -25.1365  -36.1541   25.0753 H   0  0  0  0  0  0
  -21.0067  -28.3464   24.1229 H   0  0  0  0  0  0
  -20.5644  -26.2447   23.3698 H   0  0  0  0  0  0
  -21.6664  -26.7354   22.1245 H   0  0  0  0  0  0
  -19.6939  -25.6251   21.1317 H   0  0  0  0  0  0
  -19.6738  -27.3125   20.6707 H   0  0  0  0  0  0
  -17.4239  -26.6715   21.4008 H   0  0  0  0  0  0
  -18.0338  -26.0124   22.9022 H   0  0  0  0  0  0
  -19.8001  -30.7375   24.2120 H   0  0  0  0  0  0
  -17.5063  -31.6285   24.5177 H   0  0  0  0  0  0
  -15.5397  -30.2967   23.7746 H   0  0  0  0  0  0
  -15.8725  -28.0803   22.7153 H   0  0  0  0  0  0
  -24.5866  -30.7158   25.7545 H   0  0  0  0  0  0
  -24.8767  -32.3102   26.4375 H   0  0  0  0  0  0
  -25.7750  -30.9226   27.0216 H   0  0  0  0  0  0
  -26.3368  -29.6317   24.1787 H   0  0  0  0  0  0
  -27.3967  -29.7330   25.5593 H   0  0  0  0  0  0
  -27.9374  -30.3856   24.0375 H   0  0  0  0  0  0
  -27.2558  -33.3806   26.1764 H   0  0  0  0  0  0
  -28.4002  -32.6766   25.0435 H   0  0  0  0  0  0
  -28.0534  -31.8729   26.5669 H   0  0  0  0  0  0
  -28.2512  -38.0045   24.7533 H   0  0  0  0  0  0
  -28.1107  -36.2566   24.6255 H   0  0  0  0  0  0
  -27.2275  -37.1284   25.8863 H   0  0  0  0  0  0
  -20.9857  -29.8617   21.6370 H   0  0  0  0  0  0
  -26.0056  -38.2637   24.1450 H   0  0  0  0  0  0
  -28.4432  -18.1559   16.6781 H   0  0  0  0  0  0
  -28.0627  -17.3284   18.1636 H   0  0  0  0  0  0
  -29.7513  -17.5286   17.6630 H   0  0  0  0  0  0
  -30.6884  -20.0582   17.5169 H   0  0  0  0  0  0
  -29.6374  -21.3690   18.0287 H   0  0  0  0  0  0
  -29.2418  -20.4463   16.5961 H   0  0  0  0  0  0
  -27.8857  -21.0300   21.1617 H   0  0  0  0  0  0
  -29.5257  -21.4724   21.2669 H   0  0  0  0  0  0
  -27.2422  -23.1035   19.5881 H   0  0  0  0  0  0
  -28.8533  -23.3346   19.0810 H   0  0  0  0  0  0
  -27.8111  -19.7328   18.4788 H   0  0  0  0  0  0
  -30.4100  -19.4771   19.8848 H   0  0  0  0  0  0
  -28.4714  -17.2287   20.6718 H   0  0  0  0  0  0
  1 25  1  0  0  0
  1 30  2  0  0  0
  1 77  1  0  0  0
  2  3  1  0  0  0
  2 25  1  0  0  0
  2 78  1  0  0  0
  2 79  1  0  0  0
  3  4  1  0  0  0
  3 80  1  0  0  0
  3 81  1  0  0  0
  4  5  1  0  0  0
  4 82  1  0  0  0
  4 83  1  0  0  0
  5  6  1  0  0  0
  5 26  1  0  0  0
  5 84  1  0  0  0
  6 25  1  0  0  0
  6 85  1  0  0  0
  6 86  1  0  0  0
  7  8  2  0  0  0
  7 26  1  0  0  0
  7 29  1  0  0  0
  8  9  1  0  0  0
  8 22  1  0  0  0
  9 10  1  0  0  0
  9 27  2  0  0  0
 10 11  2  0  0  0
 10 15  1  0  0  0
 11 12  1  0  0  0
 11 87  1  0  0  0
 12 13  2  0  0  0
 12 88  1  0  0  0
 13 14  1  0  0  0
 13 31  1  0  0  0
 14 15  2  0  0  0
 14 89  1  0  0  0
 15 90  1  0  0  0
 16 17  2  0  0  0
 16 21  1  0  0  0
 16 31  1  0  0  0
 17 18  1  0  0  0
 17 91  1  0  0  0
 18 19  2  0  0  0
 18 92  1  0  0  0
 19 20  1  0  0  0
 19 24  1  0  0  0
 20 21  2  0  0  0
 20 93  1  0  0  0
 21 23  1  0  0  0
 22 28  1  0  0  0
 22 32  2  0  0  0
 26 27  1  0  0  0
 28 94  1  0  0  0
 28 95  1  0  0  0
 29 96  1  0  0  0
 29 97  1  0  0  0
 33 34  1  0  0  0
 33 66  1  0  0  0
 33 70  2  0  0  0
 34 36  1  0  0  0
 34 59  1  0  0  0
 34 98  1  0  0  0
 35 44  2  0  0  0
 35 45  1  0  0  0
 35 68  1  0  0  0
 36 56  1  0  0  0
 36 99  1  0  0  0
 37 39  1  0  0  0
 37 47  1  0  0  0
 37 66  1  0  0  0
 37100  1  0  0  0
 38 43  2  0  0  0
 38 46  1  0  0  0
 38 47  1  0  0  0
 39 64  1  0  0  0
 39 67  2  0  0  0
 40 52  1  0  0  0
 40 53  2  0  0  0
 40 58  1  0  0  0
 41101  1  0  0  0
 41102  1  0  0  0
 41103  1  0  0  0
 41 48  1  0  0  0
 42 43  1  0  0  0
 42 66  1  0  0  0
 42104  1  0  0  0
 42105  1  0  0  0
 43 44  1  0  0  0
 44106  1  0  0  0
 45 46  2  0  0  0
 45107  1  0  0  0
 46108  1  0  0  0
 47109  1  0  0  0
 47110  1  0  0  0
 48 56  1  0  0  0
 48 65  1  0  0  0
 48111  1  0  0  0
 49 50  1  0  0  0
 49 53  1  0  0  0
 49 64  1  0  0  0
 49112  1  0  0  0
 50 51  1  0  0  0
 50113  1  0  0  0
 50114  1  0  0  0
 51 52  1  0  0  0
 51115  1  0  0  0
 51116  1  0  0  0
 52117  1  0  0  0
 52118  1  0  0  0
 53 54  1  0  0  0
 54 55  2  0  0  0
 54119  1  0  0  0
 55 57  1  0  0  0
 55120  1  0  0  0
 56 69  2  0  0  0
 57 58  2  0  0  0
 57121  1  0  0  0
 58122  1  0  0  0
 59 60  1  0  0  0
 59 61  1  0  0  0
 59 62  1  0  0  0
 60123  1  0  0  0
 60124  1  0  0  0
 60125  1  0  0  0
 61126  1  0  0  0
 61127  1  0  0  0
 61128  1  0  0  0
 62129  1  0  0  0
 62130  1  0  0  0
 62131  1  0  0  0
 63 65  1  0  0  0
 63132  1  0  0  0
 63133  1  0  0  0
 63134  1  0  0  0
 64135  1  0  0  0
 65136  1  0  0  0
 68 74  1  0  0  0
 71137  1  0  0  0
 71138  1  0  0  0
 71139  1  0  0  0
 71 75  1  0  0  0
 72 75  1  0  0  0
 72140  1  0  0  0
 72141  1  0  0  0
 72142  1  0  0  0
 73 74  1  0  0  0
 73143  1  0  0  0
 73144  1  0  0  0
 73 76  1  0  0  0
 74145  1  0  0  0
 74146  1  0  0  0
 75 76  1  0  0  0
 75147  1  0  0  0
 76 77  1  0  0  0
 76148  1  0  0  0
 77149  1  0  0  0
M  ISO  4   1 100  68 101  74 101  77 100
M  END
> <chiral flag>
0

> <version>
0

> <s_m_source_file>
/data/baiqing/PycharmProjects/Reinvent-master-3.2/result/LINK_invent/BTK/process_docking_weight1_custom_sum_contain_oxygen_bond_distance_aromatic_linkinvent_7_9_3/rearranged_h_0111.sdf

> <i_m_source_file_index>
8

> <r_mmod_Potential_Energy-OPLS-2005>
4155.55419921875

> <r_mmod_Stretch_Energy-OPLS-2005>
1949.71569824219

> <r_mmod_Bend_Energy-OPLS-2005>
888.786987304688

> <r_mmod_Torsional_Energy-OPLS-2005>
242.770355224609

> <r_mmod_Improper_Torsional_Energy-OPLS-2005>
4.04474449157715

> <r_mmod_Van_der_Waal_Energy-OPLS-2005>
118.455940246582

> <r_mmod_Electrostatic_Energy-OPLS-2005>
-373.135711669922

> <r_mmod_Solvation_Energy-OPLS-2005>
-213.234237670898

> <b_mmod_Minimization_Converged-OPLS-2005>
0

> <r_mmod_RMS_Derivative-OPLS-2005>
0.842315077781677

$$$$
8
                    3D
 Structure written by MMmdl.
160168  0  0  1  0            999 V2000
  -30.5424  -14.9786   20.4116 C   0  0  0  0  0  0
  -30.4414  -12.6149   19.4736 C   0  0  0  0  0  0
  -29.5114  -12.5294   18.2412 C   0  0  0  0  0  0
  -28.0510  -12.3001   18.6767 C   0  0  0  0  0  0
  -27.6244  -13.2453   19.8290 C   0  0  2  0  0  0
  -28.6765  -13.3031   20.9551 C   0  0  0  0  0  0
  -25.2445  -13.8205   20.5698 C   0  0  0  0  0  0
  -24.1770  -13.0431   20.9250 C   0  0  0  0  0  0
  -24.6383  -11.6923   20.8783 C   0  0  0  0  0  0
  -23.9077  -10.4287   21.0426 C   0  0  0  0  0  0
  -24.3622   -9.4199   21.9200 C   0  0  0  0  0  0
  -23.6297   -8.2239   22.0765 C   0  0  0  0  0  0
  -22.4279   -8.0274   21.3546 C   0  0  0  0  0  0
  -21.9918   -9.0250   20.4653 C   0  0  0  0  0  0
  -22.7250  -10.2130   20.3066 C   0  0  0  0  0  0
  -21.6848   -6.0734   22.5281 C   0  0  0  0  0  0
  -21.4005   -6.5645   23.8212 C   0  0  0  0  0  0
  -21.3653   -5.6800   24.9183 C   0  0  0  0  0  0
  -21.6052   -4.3067   24.7236 C   0  0  0  0  0  0
  -21.8816   -3.8152   23.4357 C   0  0  0  0  0  0
  -21.9190   -4.6963   22.3406 C   0  0  0  0  0  0
  -22.7783  -13.5198   21.1893 C   0  0  0  0  0  0
  -22.1660   -4.2134   21.0984 F   0  0  0  0  0  0
  -21.5630   -3.4561   25.7758 F   0  0  0  0  0  0
  -29.9379  -13.7238   20.3301 N   0  0  0  0  0  0
  -26.2873  -12.9426   20.3249 N   0  0  0  0  0  0
  -25.9323  -11.6568   20.5772 N   0  0  0  0  0  0
  -22.0443  -12.8174   22.0459 N   0  0  0  0  0  0
  -25.4107  -15.1922   20.4041 N   0  0  0  0  0  0
  -31.7686  -15.0107   20.2920 O   0  0  0  0  0  0
  -21.6645   -6.8866   21.4234 O   0  0  0  0  0  0
  -22.3468  -14.5509   20.6750 O   0  0  0  0  0  0
  -24.6520  -31.8386   23.1821 C   0  0  0  0  0  0
  -25.9293  -32.4638   23.8207 C   0  0  1  0  0  0
  -27.2144  -27.0754   20.1312 C   0  0  0  0  0  0
  -25.6036  -33.8440   24.2147 N   0  0  0  0  0  0
  -23.4536  -30.4598   21.5304 C   0  0  2  0  0  0
  -24.9005  -28.8783   20.1084 C   0  0  0  0  0  0
  -22.7612  -29.4539   22.4854 C   0  0  0  0  0  0
  -18.0336  -28.1387   22.8471 C   0  0  0  0  0  0
  -24.1495  -36.7183   23.2643 C   0  0  0  0  0  0
  -26.0146  -30.6871   21.3935 C   0  0  0  0  0  0
  -26.0808  -29.2943   20.7346 C   0  0  0  0  0  0
  -27.2309  -28.4081   20.7356 C   0  0  0  0  0  0
  -25.9948  -26.7778   19.4868 C   0  0  0  0  0  0
  -24.8736  -27.6327   19.4699 C   0  0  0  0  0  0
  -23.6810  -29.7884   20.1507 C   0  0  0  0  0  0
  -25.4134  -36.2976   24.0305 C   0  0  1  0  0  0
  -20.5948  -28.3738   23.1225 C   0  0  2  0  0  0
  -20.6830  -26.9439   22.5405 C   0  0  0  0  0  0
  -19.5801  -26.6391   21.5223 C   0  0  0  0  0  0
  -18.1975  -26.7921   22.1623 C   0  0  0  0  0  0
  -19.1588  -28.8885   23.2826 C   0  0  0  0  0  0
  -18.9502  -30.1474   23.8865 C   0  0  0  0  0  0
  -17.6500  -30.6586   24.0557 C   0  0  0  0  0  0
  -25.9107  -34.9358   23.5030 C   0  0  0  0  0  0
  -16.5389  -29.9081   23.6324 C   0  0  0  0  0  0
  -16.7317  -28.6504   23.0339 C   0  0  0  0  0  0
  -26.4584  -31.6518   25.0665 C   0  0  0  0  0  0
  -25.3734  -31.3705   26.1325 C   0  0  0  0  0  0
  -27.0495  -30.2930   24.6277 C   0  0  0  0  0  0
  -27.6104  -32.4296   25.7445 C   0  0  0  0  0  0
  -27.5559  -37.1746   24.8484 C   0  0  0  0  0  0
  -21.4311  -29.3059   22.3601 N   0  0  0  0  0  0
  -26.4281  -37.3716   23.9420 N   0  0  0  0  0  0
  -24.7259  -31.0187   22.0884 N   0  0  0  0  0  0
  -23.4230  -28.8094   23.3032 O   0  0  0  0  0  0
  -28.2954  -26.0974   20.1852 O   0  0  0  0  0  0
  -26.5673  -34.8891   22.4606 O   0  0  0  0  0  0
  -23.5638  -32.1319   23.7028 O   0  0  0  0  0  0
  -30.5611  -20.9977   18.9100 C   0  0  0  0  0  0
  -29.7269  -20.4690   19.8601 C   0  0  0  0  0  0
  -31.1911  -18.8822   19.1123 C   0  0  0  0  0  0
  -32.0845  -17.7082   18.8901 C   0  0  0  0  0  0
  -27.7397  -24.8543   17.2260 C   0  0  0  0  0  0
  -28.6474  -21.5152   20.4799 C   0  0  0  0  0  0
  -27.5528  -24.0695   18.5366 C   0  0  0  0  0  0
  -28.8671  -23.2123   20.6692 C   0  0  0  0  0  0
  -29.8324  -17.7079   20.8411 C   0  0  0  0  0  0
  -28.3944  -24.5648   19.7414 C   0  0  2  0  0  0
  -30.1299  -19.0220   19.9469 N   0  0  0  0  0  0
  -31.4164  -20.0368   18.4931 N   0  3  0  0  0  0
  -29.7490  -16.1706   20.3837 N   0  0  0  0  0  0
  -31.4698  -12.7917   19.1554 H   0  0  0  0  0  0
  -30.4505  -11.6721   20.0237 H   0  0  0  0  0  0
  -29.8332  -11.7296   17.5742 H   0  0  0  0  0  0
  -29.5779  -13.4540   17.6655 H   0  0  0  0  0  0
  -27.9685  -11.2630   19.0080 H   0  0  0  0  0  0
  -27.3755  -12.4032   17.8262 H   0  0  0  0  0  0
  -27.5740  -14.2373   19.3807 H   0  0  0  0  0  0
  -28.7792  -12.3386   21.4534 H   0  0  0  0  0  0
  -28.3772  -14.0173   21.7239 H   0  0  0  0  0  0
  -25.2752   -9.5682   22.4791 H   0  0  0  0  0  0
  -24.0005   -7.4624   22.7488 H   0  0  0  0  0  0
  -21.0856   -8.8770   19.8949 H   0  0  0  0  0  0
  -22.3704  -10.9678   19.6191 H   0  0  0  0  0  0
  -21.1987   -7.6153   23.9699 H   0  0  0  0  0  0
  -21.1477   -6.0549   25.9078 H   0  0  0  0  0  0
  -22.0594   -2.7612   23.2875 H   0  0  0  0  0  0
  -22.4064  -11.9832   22.4827 H   0  0  0  0  0  0
  -21.1060  -13.1186   22.2684 H   0  0  0  0  0  0
  -24.6316  -15.8390   20.4695 H   0  0  0  0  0  0
  -26.2494  -15.6265   20.0417 H   0  0  0  0  0  0
  -26.7330  -32.5227   23.0900 H   0  0  0  0  0  0
  -25.0212  -33.9540   25.0309 H   0  0  0  0  0  0
  -22.7574  -31.2861   21.3741 H   0  0  0  0  0  0
  -23.3784  -35.9488   23.3325 H   0  0  0  0  0  0
  -24.3580  -36.8817   22.2059 H   0  0  0  0  0  0
  -23.7225  -37.6362   23.6684 H   0  0  0  0  0  0
  -26.1836  -31.4398   20.6221 H   0  0  0  0  0  0
  -26.8781  -30.7322   22.0452 H   0  0  0  0  0  0
  -28.1237  -28.7198   21.2613 H   0  0  0  0  0  0
  -25.8438  -25.8402   18.9942 H   0  0  0  0  0  0
  -23.9763  -27.3020   18.9657 H   0  0  0  0  0  0
  -23.8207  -30.5598   19.3923 H   0  0  0  0  0  0
  -22.7938  -29.2326   19.8399 H   0  0  0  0  0  0
  -25.1329  -36.1766   25.0788 H   0  0  0  0  0  0
  -21.0008  -28.3333   24.1366 H   0  0  0  0  0  0
  -20.5802  -26.2346   23.3630 H   0  0  0  0  0  0
  -21.6685  -26.7500   22.1162 H   0  0  0  0  0  0
  -19.6980  -25.6314   21.1256 H   0  0  0  0  0  0
  -19.6721  -27.3195   20.6737 H   0  0  0  0  0  0
  -17.4257  -26.6695   21.4001 H   0  0  0  0  0  0
  -18.0344  -26.0052   22.9003 H   0  0  0  0  0  0
  -19.7980  -30.7273   24.2243 H   0  0  0  0  0  0
  -17.5061  -31.6261   24.5155 H   0  0  0  0  0  0
  -15.5390  -30.2958   23.7677 H   0  0  0  0  0  0
  -15.8722  -28.0809   22.7045 H   0  0  0  0  0  0
  -24.5953  -30.7029   25.7611 H   0  0  0  0  0  0
  -24.8877  -32.2873   26.4651 H   0  0  0  0  0  0
  -25.7975  -30.8923   27.0166 H   0  0  0  0  0  0
  -26.3132  -29.6574   24.1348 H   0  0  0  0  0  0
  -27.4213  -29.7285   25.4842 H   0  0  0  0  0  0
  -27.8978  -30.4198   23.9552 H   0  0  0  0  0  0
  -27.2725  -33.3671   26.1867 H   0  0  0  0  0  0
  -28.3963  -32.6739   25.0284 H   0  0  0  0  0  0
  -28.0697  -31.8508   26.5476 H   0  0  0  0  0  0
  -28.2569  -38.0049   24.7543 H   0  0  0  0  0  0
  -28.1070  -36.2583   24.6307 H   0  0  0  0  0  0
  -27.2285  -37.1366   25.8892 H   0  0  0  0  0  0
  -20.9562  -29.8749   21.6738 H   0  0  0  0  0  0
  -26.0131  -38.2774   24.1462 H   0  0  0  0  0  0
  -30.6172  -22.0053   18.5187 H   0  0  0  0  0  0
  -32.5080  -17.4099   19.8491 H   0  0  0  0  0  0
  -32.8967  -18.0013   18.2243 H   0  0  0  0  0  0
  -31.5122  -16.9069   18.4252 H   0  0  0  0  0  0
  -27.2060  -24.3684   16.4072 H   0  0  0  0  0  0
  -28.7912  -24.9005   16.9383 H   0  0  0  0  0  0
  -27.3763  -25.8778   17.2960 H   0  0  0  0  0  0
  -28.4290  -21.1319   21.4772 H   0  0  0  0  0  0
  -27.7125  -21.3595   19.9405 H   0  0  0  0  0  0
  -27.8777  -23.0554   18.2995 H   0  0  0  0  0  0
  -26.5045  -23.9371   18.7984 H   0  0  0  0  0  0
  -29.9185  -23.3552   20.9207 H   0  0  0  0  0  0
  -28.3654  -23.4051   21.6178 H   0  0  0  0  0  0
  -28.8814  -17.9152   21.3313 H   0  0  0  0  0  0
  -30.5694  -17.7385   21.6448 H   0  0  0  0  0  0
  -29.3538  -24.6996   19.2416 H   0  0  0  0  0  0
  -32.1639  -20.1911   17.8280 H   0  0  0  0  0  0
  -28.7857  -15.9131   20.2408 H   0  0  0  0  0  0
  1 25  1  0  0  0
  1 30  2  0  0  0
  1 83  1  0  0  0
  2  3  1  0  0  0
  2 25  1  0  0  0
  2 84  1  0  0  0
  2 85  1  0  0  0
  3  4  1  0  0  0
  3 86  1  0  0  0
  3 87  1  0  0  0
  4  5  1  0  0  0
  4 88  1  0  0  0
  4 89  1  0  0  0
  5  6  1  0  0  0
  5 26  1  0  0  0
  5 90  1  0  0  0
  6 25  1  0  0  0
  6 91  1  0  0  0
  6 92  1  0  0  0
  7  8  2  0  0  0
  7 26  1  0  0  0
  7 29  1  0  0  0
  8  9  1  0  0  0
  8 22  1  0  0  0
  9 10  1  0  0  0
  9 27  2  0  0  0
 10 11  2  0  0  0
 10 15  1  0  0  0
 11 12  1  0  0  0
 11 93  1  0  0  0
 12 13  2  0  0  0
 12 94  1  0  0  0
 13 14  1  0  0  0
 13 31  1  0  0  0
 14 15  2  0  0  0
 14 95  1  0  0  0
 15 96  1  0  0  0
 16 17  2  0  0  0
 16 21  1  0  0  0
 16 31  1  0  0  0
 17 18  1  0  0  0
 17 97  1  0  0  0
 18 19  2  0  0  0
 18 98  1  0  0  0
 19 20  1  0  0  0
 19 24  1  0  0  0
 20 21  2  0  0  0
 20 99  1  0  0  0
 21 23  1  0  0  0
 22 28  1  0  0  0
 22 32  2  0  0  0
 26 27  1  0  0  0
 28100  1  0  0  0
 28101  1  0  0  0
 29102  1  0  0  0
 29103  1  0  0  0
 33 34  1  0  0  0
 33 66  1  0  0  0
 33 70  2  0  0  0
 34 36  1  0  0  0
 34 59  1  0  0  0
 34104  1  0  0  0
 35 44  2  0  0  0
 35 45  1  0  0  0
 35 68  1  0  0  0
 36 56  1  0  0  0
 36105  1  0  0  0
 37 39  1  0  0  0
 37 47  1  0  0  0
 37 66  1  0  0  0
 37106  1  0  0  0
 38 43  2  0  0  0
 38 46  1  0  0  0
 38 47  1  0  0  0
 39 64  1  0  0  0
 39 67  2  0  0  0
 40 52  1  0  0  0
 40 53  2  0  0  0
 40 58  1  0  0  0
 41107  1  0  0  0
 41108  1  0  0  0
 41109  1  0  0  0
 41 48  1  0  0  0
 42 43  1  0  0  0
 42 66  1  0  0  0
 42110  1  0  0  0
 42111  1  0  0  0
 43 44  1  0  0  0
 44112  1  0  0  0
 45 46  2  0  0  0
 45113  1  0  0  0
 46114  1  0  0  0
 47115  1  0  0  0
 47116  1  0  0  0
 48 56  1  0  0  0
 48 65  1  0  0  0
 48117  1  0  0  0
 49 50  1  0  0  0
 49 53  1  0  0  0
 49 64  1  0  0  0
 49118  1  0  0  0
 50 51  1  0  0  0
 50119  1  0  0  0
 50120  1  0  0  0
 51 52  1  0  0  0
 51121  1  0  0  0
 51122  1  0  0  0
 52123  1  0  0  0
 52124  1  0  0  0
 53 54  1  0  0  0
 54 55  2  0  0  0
 54125  1  0  0  0
 55 57  1  0  0  0
 55126  1  0  0  0
 56 69  2  0  0  0
 57 58  2  0  0  0
 57127  1  0  0  0
 58128  1  0  0  0
 59 60  1  0  0  0
 59 61  1  0  0  0
 59 62  1  0  0  0
 60129  1  0  0  0
 60130  1  0  0  0
 60131  1  0  0  0
 61132  1  0  0  0
 61133  1  0  0  0
 61134  1  0  0  0
 62135  1  0  0  0
 62136  1  0  0  0
 62137  1  0  0  0
 63 65  1  0  0  0
 63138  1  0  0  0
 63139  1  0  0  0
 63140  1  0  0  0
 64141  1  0  0  0
 65142  1  0  0  0
 68 80  1  0  0  0
 71 72  2  0  0  0
 71 82  1  0  0  0
 71143  1  0  0  0
 72 76  1  0  0  0
 72 81  1  0  0  0
 73 74  1  0  0  0
 73 81  1  0  0  0
 73 82  2  0  0  0
 74144  1  0  0  0
 74145  1  0  0  0
 74146  1  0  0  0
 75 77  1  0  0  0
 75147  1  0  0  0
 75148  1  0  0  0
 75149  1  0  0  0
 76 78  1  0  0  0
 76150  1  0  0  0
 76151  1  0  0  0
 77152  1  0  0  0
 77153  1  0  0  0
 77 80  1  0  0  0
 78 80  1  0  0  0
 78154  1  0  0  0
 78155  1  0  0  0
 79 81  1  0  0  0
 79 83  1  0  0  0
 79156  1  0  0  0
 79157  1  0  0  0
 80158  1  0  0  0
 82159  1  0  0  0
 83160  1  0  0  0
M  CHG  1  82   1
M  ISO  4   1 100  68 101  80 101  83 100
M  END
> <chiral flag>
0

> <version>
0

> <s_m_source_file>
/data/baiqing/PycharmProjects/Reinvent-master-3.2/result/LINK_invent/BTK/process_docking_weight1_custom_sum_contain_oxygen_bond_distance_aromatic_linkinvent_7_9_3/rearranged_h_0111.sdf

> <i_m_source_file_index>
9

> <r_mmod_Potential_Energy-OPLS-2005>
683.650268554688

> <r_mmod_Stretch_Energy-OPLS-2005>
343.036376953125

> <r_mmod_Bend_Energy-OPLS-2005>
430.4521484375

> <r_mmod_Torsional_Energy-OPLS-2005>
244.614959716797

> <r_mmod_Improper_Torsional_Energy-OPLS-2005>
7.81752920150757

> <r_mmod_Van_der_Waal_Energy-OPLS-2005>
114.686347961426

> <r_mmod_Electrostatic_Energy-OPLS-2005>
-263.093902587891

> <r_mmod_Solvation_Energy-OPLS-2005>
-422.229217529297

> <b_mmod_Minimization_Converged-OPLS-2005>
0

> <r_mmod_RMS_Derivative-OPLS-2005>
3.09108114242554

$$$$
9
                    3D
 Structure written by MMmdl.
161169  0  0  1  0            999 V2000
  -30.6770  -14.7102   20.4702 C   0  0  0  0  0  0
  -30.4259  -12.4464   19.4405 C   0  0  0  0  0  0
  -29.4989  -12.5205   18.2092 C   0  0  0  0  0  0
  -28.0225  -12.3594   18.6253 C   0  0  0  0  0  0
  -27.6426  -13.2424   19.8454 C   0  0  2  0  0  0
  -28.6954  -13.1416   20.9658 C   0  0  0  0  0  0
  -25.2514  -13.8232   20.5723 C   0  0  0  0  0  0
  -24.1805  -13.0452   20.9229 C   0  0  0  0  0  0
  -24.6422  -11.6931   20.8764 C   0  0  0  0  0  0
  -23.9103  -10.4294   21.0421 C   0  0  0  0  0  0
  -24.3639   -9.4206   21.9201 C   0  0  0  0  0  0
  -23.6309   -8.2246   22.0748 C   0  0  0  0  0  0
  -22.4296   -8.0302   21.3534 C   0  0  0  0  0  0
  -21.9951   -9.0290   20.4652 C   0  0  0  0  0  0
  -22.7283  -10.2152   20.3070 C   0  0  0  0  0  0
  -21.6858   -6.0757   22.5283 C   0  0  0  0  0  0
  -21.4011   -6.5650   23.8224 C   0  0  0  0  0  0
  -21.3651   -5.6797   24.9187 C   0  0  0  0  0  0
  -21.6049   -4.3069   24.7223 C   0  0  0  0  0  0
  -21.8813   -3.8161   23.4350 C   0  0  0  0  0  0
  -21.9183   -4.6982   22.3409 C   0  0  0  0  0  0
  -22.7811  -13.5212   21.1923 C   0  0  0  0  0  0
  -22.1656   -4.2174   21.0981 F   0  0  0  0  0  0
  -21.5625   -3.4548   25.7735 F   0  0  0  0  0  0
  -30.0011  -13.5062   20.3875 N   0  0  0  0  0  0
  -26.2952  -12.9460   20.3274 N   0  0  0  0  0  0
  -25.9356  -11.6592   20.5741 N   0  0  0  0  0  0
  -22.0447  -12.8169   22.0459 N   0  0  0  0  0  0
  -25.4254  -15.1969   20.4162 N   0  0  0  0  0  0
  -31.8464  -14.7652   20.0759 O   0  0  0  0  0  0
  -21.6639   -6.8906   21.4248 O   0  0  0  0  0  0
  -22.3501  -14.5542   20.6830 O   0  0  0  0  0  0
  -24.6348  -31.8554   23.1998 C   0  0  0  0  0  0
  -25.9192  -32.4739   23.8301 C   0  0  1  0  0  0
  -27.2220  -27.2488   20.1141 C   0  0  0  0  0  0
  -25.6019  -33.8541   24.2253 N   0  0  0  0  0  0
  -23.4267  -30.4803   21.5414 C   0  0  2  0  0  0
  -24.8769  -28.9265   20.1098 C   0  0  0  0  0  0
  -22.7493  -29.4616   22.4886 C   0  0  0  0  0  0
  -18.0311  -28.1389   22.8521 C   0  0  0  0  0  0
  -24.1487  -36.7258   23.2626 C   0  0  0  0  0  0
  -25.9728  -30.7623   21.3811 C   0  0  0  0  0  0
  -26.0483  -29.3828   20.7263 C   0  0  0  0  0  0
  -27.2211  -28.5557   20.7256 C   0  0  0  0  0  0
  -26.0334  -26.8851   19.4433 C   0  0  0  0  0  0
  -24.8768  -27.6886   19.4549 C   0  0  0  0  0  0
  -23.6506  -29.8176   20.1587 C   0  0  0  0  0  0
  -25.4106  -36.3050   24.0338 C   0  0  1  0  0  0
  -20.5901  -28.3727   23.1275 C   0  0  2  0  0  0
  -20.6793  -26.9450   22.5400 C   0  0  0  0  0  0
  -19.5763  -26.6428   21.5199 C   0  0  0  0  0  0
  -18.1949  -26.7943   22.1625 C   0  0  0  0  0  0
  -19.1553  -28.8889   23.2886 C   0  0  0  0  0  0
  -18.9461  -30.1479   23.8909 C   0  0  0  0  0  0
  -17.6456  -30.6596   24.0605 C   0  0  0  0  0  0
  -25.9066  -34.9434   23.5080 C   0  0  0  0  0  0
  -16.5361  -29.9097   23.6344 C   0  0  0  0  0  0
  -16.7294  -28.6517   23.0381 C   0  0  0  0  0  0
  -26.4544  -31.6557   25.0686 C   0  0  0  0  0  0
  -25.3788  -31.3759   26.1446 C   0  0  0  0  0  0
  -27.0367  -30.2977   24.6125 C   0  0  0  0  0  0
  -27.6083  -32.4282   25.7487 C   0  0  0  0  0  0
  -27.5560  -37.1780   24.8474 C   0  0  0  0  0  0
  -21.4198  -29.3071   22.3638 N   0  0  0  0  0  0
  -26.4260  -37.3774   23.9435 N   0  0  0  0  0  0
  -24.6959  -31.0513   22.0965 N   0  0  0  0  0  0
  -23.4210  -28.8166   23.3004 O   0  0  0  0  0  0
  -28.3095  -26.3324   20.1766 O   0  0  0  0  0  0
  -26.5568  -34.8941   22.4597 O   0  0  0  0  0  0
  -23.5509  -32.1364   23.7322 O   0  0  0  0  0  0
  -30.4936  -17.2975   18.7718 C   0  0  0  0  0  0
  -29.6062  -18.4615   20.6673 C   0  0  0  0  0  0
  -30.0333  -17.1928   20.1058 C   0  0  0  0  0  0
  -30.5610  -18.5512   18.1200 C   0  0  0  0  0  0
  -29.6876  -19.7142   19.9447 C   0  0  0  0  0  0
  -31.1678  -18.6492   16.7307 C   0  0  0  0  0  0
  -27.0804  -24.3799   21.1190 C   0  0  0  0  0  0
  -29.6841  -15.9790   22.2676 C   0  0  0  0  0  0
  -29.3448  -21.1372   20.5668 C   0  0  0  0  0  0
  -29.3278  -23.8004   20.1365 C   0  0  0  0  0  0
  -28.0839  -24.8341   20.0420 C   0  0  2  0  0  0
  -30.1648  -19.7229   18.6787 N   0  0  0  0  0  0
  -30.0172  -15.8847   20.8414 N   0  0  0  0  0  0
  -29.1654  -22.3411   19.6400 N   0  3  0  0  0  0
  -31.4661  -12.5517   19.1265 H   0  0  0  0  0  0
  -30.3607  -11.4633   19.9099 H   0  0  0  0  0  0
  -29.7635  -11.7479   17.4860 H   0  0  0  0  0  0
  -29.6393  -13.4742   17.6966 H   0  0  0  0  0  0
  -27.8609  -11.3054   18.8639 H   0  0  0  0  0  0
  -27.3688  -12.5880   17.7830 H   0  0  0  0  0  0
  -27.6465  -14.2722   19.4898 H   0  0  0  0  0  0
  -28.7287  -12.1286   21.3690 H   0  0  0  0  0  0
  -28.4130  -13.7808   21.7994 H   0  0  0  0  0  0
  -25.2782   -9.5672   22.4788 H   0  0  0  0  0  0
  -24.0028   -7.4617   22.7441 H   0  0  0  0  0  0
  -21.0888   -8.8827   19.8948 H   0  0  0  0  0  0
  -22.3770  -10.9705   19.6186 H   0  0  0  0  0  0
  -21.2006   -7.6162   23.9747 H   0  0  0  0  0  0
  -21.1476   -6.0522   25.9091 H   0  0  0  0  0  0
  -22.0596   -2.7630   23.2840 H   0  0  0  0  0  0
  -22.4029  -11.9758   22.4733 H   0  0  0  0  0  0
  -21.1079  -13.1219   22.2717 H   0  0  0  0  0  0
  -24.6739  -15.8653   20.5420 H   0  0  0  0  0  0
  -26.2990  -15.6270   20.1402 H   0  0  0  0  0  0
  -26.7244  -32.5422   23.1022 H   0  0  0  0  0  0
  -25.0309  -33.9643   25.0501 H   0  0  0  0  0  0
  -22.7163  -31.3003   21.3965 H   0  0  0  0  0  0
  -23.3756  -35.9587   23.3303 H   0  0  0  0  0  0
  -24.3553  -36.8864   22.2033 H   0  0  0  0  0  0
  -23.7250  -37.6467   23.6633 H   0  0  0  0  0  0
  -26.1072  -31.5171   20.6052 H   0  0  0  0  0  0
  -26.8482  -30.8186   22.0169 H   0  0  0  0  0  0
  -28.1078  -28.8931   21.2409 H   0  0  0  0  0  0
  -25.9536  -25.9467   18.9163 H   0  0  0  0  0  0
  -23.9893  -27.3354   18.9506 H   0  0  0  0  0  0
  -23.7866  -30.5938   19.4046 H   0  0  0  0  0  0
  -22.7674  -29.2584   19.8416 H   0  0  0  0  0  0
  -25.1272  -36.1873   25.0831 H   0  0  0  0  0  0
  -21.0002  -28.3341   24.1397 H   0  0  0  0  0  0
  -20.5703  -26.2317   23.3583 H   0  0  0  0  0  0
  -21.6636  -26.7481   22.1167 H   0  0  0  0  0  0
  -19.6902  -25.6335   21.1232 H   0  0  0  0  0  0
  -19.6711  -27.3206   20.6701 H   0  0  0  0  0  0
  -17.4208  -26.6737   21.4051 H   0  0  0  0  0  0
  -18.0383  -26.0014   22.8948 H   0  0  0  0  0  0
  -19.7920  -30.7317   24.2260 H   0  0  0  0  0  0
  -17.5012  -31.6273   24.5184 H   0  0  0  0  0  0
  -15.5351  -30.3038   23.7642 H   0  0  0  0  0  0
  -15.8680  -28.0859   22.7097 H   0  0  0  0  0  0
  -24.5975  -30.7047   25.7858 H   0  0  0  0  0  0
  -24.8965  -32.2949   26.4792 H   0  0  0  0  0  0
  -25.8172  -30.9054   27.0259 H   0  0  0  0  0  0
  -26.2926  -29.6734   24.1152 H   0  0  0  0  0  0
  -27.4064  -29.7238   25.4618 H   0  0  0  0  0  0
  -27.8818  -30.4233   23.9350 H   0  0  0  0  0  0
  -27.2687  -33.3618   26.1986 H   0  0  0  0  0  0
  -28.3980  -32.6760   25.0382 H   0  0  0  0  0  0
  -28.0623  -31.8420   26.5487 H   0  0  0  0  0  0
  -28.2575  -38.0069   24.7493 H   0  0  0  0  0  0
  -28.1051  -36.2597   24.6321 H   0  0  0  0  0  0
  -27.2272  -37.1474   25.8874 H   0  0  0  0  0  0
  -20.9372  -29.8825   21.6877 H   0  0  0  0  0  0
  -26.0139  -38.2854   24.1440 H   0  0  0  0  0  0
  -30.8450  -16.4218   18.2405 H   0  0  0  0  0  0
  -29.2350  -18.4975   21.6812 H   0  0  0  0  0  0
  -31.3828  -17.6598   16.3213 H   0  0  0  0  0  0
  -32.1096  -19.1993   16.7740 H   0  0  0  0  0  0
  -30.5019  -19.1615   16.0354 H   0  0  0  0  0  0
  -26.9059  -23.3048   21.0644 H   0  0  0  0  0  0
  -26.1056  -24.8488   21.0217 H   0  0  0  0  0  0
  -27.4556  -24.6056   22.1181 H   0  0  0  0  0  0
  -28.6225  -16.1883   22.3997 H   0  0  0  0  0  0
  -30.2519  -16.7812   22.7383 H   0  0  0  0  0  0
  -29.9288  -15.0788   22.8343 H   0  0  0  0  0  0
  -30.1549  -21.3605   21.2615 H   0  0  0  0  0  0
  -28.4427  -21.0344   21.1685 H   0  0  0  0  0  0
  -29.7218  -23.7939   21.1541 H   0  0  0  0  0  0
  -30.1306  -24.2221   19.5297 H   0  0  0  0  0  0
  -27.6539  -24.6710   19.0531 H   0  0  0  0  0  0
  -28.3088  -22.2169   19.1279 H   0  0  0  0  0  0
  -29.8949  -22.1811   18.9621 H   0  0  0  0  0  0
  1 25  1  0  0  0
  1 30  2  0  0  0
  1 83  1  0  0  0
  2  3  1  0  0  0
  2 25  1  0  0  0
  2 85  1  0  0  0
  2 86  1  0  0  0
  3  4  1  0  0  0
  3 87  1  0  0  0
  3 88  1  0  0  0
  4  5  1  0  0  0
  4 89  1  0  0  0
  4 90  1  0  0  0
  5  6  1  0  0  0
  5 26  1  0  0  0
  5 91  1  0  0  0
  6 25  1  0  0  0
  6 92  1  0  0  0
  6 93  1  0  0  0
  7  8  2  0  0  0
  7 26  1  0  0  0
  7 29  1  0  0  0
  8  9  1  0  0  0
  8 22  1  0  0  0
  9 10  1  0  0  0
  9 27  2  0  0  0
 10 11  2  0  0  0
 10 15  1  0  0  0
 11 12  1  0  0  0
 11 94  1  0  0  0
 12 13  2  0  0  0
 12 95  1  0  0  0
 13 14  1  0  0  0
 13 31  1  0  0  0
 14 15  2  0  0  0
 14 96  1  0  0  0
 15 97  1  0  0  0
 16 17  2  0  0  0
 16 21  1  0  0  0
 16 31  1  0  0  0
 17 18  1  0  0  0
 17 98  1  0  0  0
 18 19  2  0  0  0
 18 99  1  0  0  0
 19 20  1  0  0  0
 19 24  1  0  0  0
 20 21  2  0  0  0
 20100  1  0  0  0
 21 23  1  0  0  0
 22 28  1  0  0  0
 22 32  2  0  0  0
 26 27  1  0  0  0
 28101  1  0  0  0
 28102  1  0  0  0
 29103  1  0  0  0
 29104  1  0  0  0
 33 34  1  0  0  0
 33 66  1  0  0  0
 33 70  2  0  0  0
 34 36  1  0  0  0
 34 59  1  0  0  0
 34105  1  0  0  0
 35 44  2  0  0  0
 35 45  1  0  0  0
 35 68  1  0  0  0
 36 56  1  0  0  0
 36106  1  0  0  0
 37 39  1  0  0  0
 37 47  1  0  0  0
 37 66  1  0  0  0
 37107  1  0  0  0
 38 43  2  0  0  0
 38 46  1  0  0  0
 38 47  1  0  0  0
 39 64  1  0  0  0
 39 67  2  0  0  0
 40 52  1  0  0  0
 40 53  2  0  0  0
 40 58  1  0  0  0
 41108  1  0  0  0
 41109  1  0  0  0
 41110  1  0  0  0
 41 48  1  0  0  0
 42 43  1  0  0  0
 42 66  1  0  0  0
 42111  1  0  0  0
 42112  1  0  0  0
 43 44  1  0  0  0
 44113  1  0  0  0
 45 46  2  0  0  0
 45114  1  0  0  0
 46115  1  0  0  0
 47116  1  0  0  0
 47117  1  0  0  0
 48 56  1  0  0  0
 48 65  1  0  0  0
 48118  1  0  0  0
 49 50  1  0  0  0
 49 53  1  0  0  0
 49 64  1  0  0  0
 49119  1  0  0  0
 50 51  1  0  0  0
 50120  1  0  0  0
 50121  1  0  0  0
 51 52  1  0  0  0
 51122  1  0  0  0
 51123  1  0  0  0
 52124  1  0  0  0
 52125  1  0  0  0
 53 54  1  0  0  0
 54 55  2  0  0  0
 54126  1  0  0  0
 55 57  1  0  0  0
 55127  1  0  0  0
 56 69  2  0  0  0
 57 58  2  0  0  0
 57128  1  0  0  0
 58129  1  0  0  0
 59 60  1  0  0  0
 59 61  1  0  0  0
 59 62  1  0  0  0
 60130  1  0  0  0
 60131  1  0  0  0
 60132  1  0  0  0
 61133  1  0  0  0
 61134  1  0  0  0
 61135  1  0  0  0
 62136  1  0  0  0
 62137  1  0  0  0
 62138  1  0  0  0
 63 65  1  0  0  0
 63139  1  0  0  0
 63140  1  0  0  0
 63141  1  0  0  0
 64142  1  0  0  0
 65143  1  0  0  0
 68 81  1  0  0  0
 71 73  2  0  0  0
 71 74  1  0  0  0
 71144  1  0  0  0
 72 73  1  0  0  0
 72 75  2  0  0  0
 72145  1  0  0  0
 73 83  1  0  0  0
 74 76  1  0  0  0
 74 82  2  0  0  0
 75 79  1  0  0  0
 75 82  1  0  0  0
 76146  1  0  0  0
 76147  1  0  0  0
 76148  1  0  0  0
 77149  1  0  0  0
 77150  1  0  0  0
 77151  1  0  0  0
 77 81  1  0  0  0
 78 83  1  0  0  0
 78152  1  0  0  0
 78153  1  0  0  0
 78154  1  0  0  0
 79 84  1  0  0  0
 79155  1  0  0  0
 79156  1  0  0  0
 80 81  1  0  0  0
 80 84  1  0  0  0
 80157  1  0  0  0
 80158  1  0  0  0
 81159  1  0  0  0
 84160  1  0  0  0
 84161  1  0  0  0
M  CHG  1  84   1
M  ISO  4   1 100  68 101  81 101  83 100
M  END
> <chiral flag>
0

> <version>
0

> <s_m_source_file>
/data/baiqing/PycharmProjects/Reinvent-master-3.2/result/LINK_invent/BTK/process_docking_weight1_custom_sum_contain_oxygen_bond_distance_aromatic_linkinvent_7_9_3/rearranged_h_0111.sdf

> <i_m_source_file_index>
10

> <r_mmod_Potential_Energy-OPLS-2005>
-53.8896827697754

> <r_mmod_Stretch_Energy-OPLS-2005>
131.587524414062

> <r_mmod_Bend_Energy-OPLS-2005>
173.725662231445

> <r_mmod_Torsional_Energy-OPLS-2005>
286.564514160156

> <r_mmod_Improper_Torsional_Energy-OPLS-2005>
4.51351594924927

> <r_mmod_Van_der_Waal_Energy-OPLS-2005>
153.689910888672

> <r_mmod_Electrostatic_Energy-OPLS-2005>
-448.20556640625

> <r_mmod_Solvation_Energy-OPLS-2005>
-435.813598632812

> <b_mmod_Minimization_Converged-OPLS-2005>
0

> <r_mmod_RMS_Derivative-OPLS-2005>
5.191734790802

$$$$
10
                    3D
 Structure written by MMmdl.
148156  0  0  1  0            999 V2000
  -30.3772  -15.3940   20.3593 C   0  0  0  0  0  0
  -30.4415  -12.9061   19.5145 C   0  0  0  0  0  0
  -29.5400  -12.5933   18.2913 C   0  0  0  0  0  0
  -28.0971  -12.2895   18.7312 C   0  0  0  0  0  0
  -27.6050  -13.2807   19.8133 C   0  0  2  0  0  0
  -28.6384  -13.5100   20.9362 C   0  0  0  0  0  0
  -25.2370  -13.8240   20.5764 C   0  0  0  0  0  0
  -24.1731  -13.0423   20.9269 C   0  0  0  0  0  0
  -24.6396  -11.6924   20.8760 C   0  0  0  0  0  0
  -23.9091  -10.4284   21.0404 C   0  0  0  0  0  0
  -24.3634   -9.4199   21.9184 C   0  0  0  0  0  0
  -23.6299   -8.2241   22.0755 C   0  0  0  0  0  0
  -22.4281   -8.0281   21.3546 C   0  0  0  0  0  0
  -21.9923   -9.0255   20.4646 C   0  0  0  0  0  0
  -22.7260  -10.2129   20.3053 C   0  0  0  0  0  0
  -21.6855   -6.0734   22.5276 C   0  0  0  0  0  0
  -21.4017   -6.5639   23.8209 C   0  0  0  0  0  0
  -21.3661   -5.6792   24.9172 C   0  0  0  0  0  0
  -21.6044   -4.3054   24.7223 C   0  0  0  0  0  0
  -21.8819   -3.8145   23.4345 C   0  0  0  0  0  0
  -21.9193   -4.6961   22.3400 C   0  0  0  0  0  0
  -22.7747  -13.5175   21.1909 C   0  0  0  0  0  0
  -22.1661   -4.2145   21.0978 F   0  0  0  0  0  0
  -21.5628   -3.4539   25.7738 F   0  0  0  0  0  0
  -29.8426  -14.0626   20.2877 N   0  0  0  0  0  0
  -26.2797  -12.9524   20.3206 N   0  0  0  0  0  0
  -25.9333  -11.6624   20.5706 N   0  0  0  0  0  0
  -22.0404  -12.8160   22.0465 N   0  0  0  0  0  0
  -25.3976  -15.1980   20.4216 N   0  0  0  0  0  0
  -31.6135  -15.3863   20.2345 O   0  0  0  0  0  0
  -21.6643   -6.8879   21.4240 O   0  0  0  0  0  0
  -22.3424  -14.5475   20.6743 O   0  0  0  0  0  0
  -24.6704  -31.8160   23.1635 C   0  0  0  0  0  0
  -25.9349  -32.4549   23.8130 C   0  0  1  0  0  0
  -27.2228  -26.8492   20.2054 C   0  0  0  0  0  0
  -25.5985  -33.8366   24.2032 N   0  0  0  0  0  0
  -23.4885  -30.4235   21.5151 C   0  0  2  0  0  0
  -24.9422  -28.7888   20.1233 C   0  0  0  0  0  0
  -22.7699  -29.4404   22.4767 C   0  0  0  0  0  0
  -18.0330  -28.1415   22.8467 C   0  0  0  0  0  0
  -24.1493  -36.7189   23.2648 C   0  0  0  0  0  0
  -26.0620  -30.5982   21.4037 C   0  0  0  0  0  0
  -26.1302  -29.1770   20.7557 C   0  0  0  0  0  0
  -27.2650  -28.2333   20.7617 C   0  0  0  0  0  0
  -26.0000  -26.6275   19.5316 C   0  0  0  0  0  0
  -24.9063  -27.5356   19.4901 C   0  0  0  0  0  0
  -23.7336  -29.7286   20.1468 C   0  0  0  0  0  0
  -25.4138  -36.2944   24.0292 C   0  0  1  0  0  0
  -20.5958  -28.3767   23.1174 C   0  0  2  0  0  0
  -20.6802  -26.9442   22.5402 C   0  0  0  0  0  0
  -19.5774  -26.6378   21.5216 C   0  0  0  0  0  0
  -18.1959  -26.7945   22.1626 C   0  0  0  0  0  0
  -19.1593  -28.8914   23.2805 C   0  0  0  0  0  0
  -18.9499  -30.1499   23.8842 C   0  0  0  0  0  0
  -17.6490  -30.6601   24.0553 C   0  0  0  0  0  0
  -25.9109  -34.9329   23.4990 C   0  0  0  0  0  0
  -16.5381  -29.9085   23.6345 C   0  0  0  0  0  0
  -16.7310  -28.6507   23.0365 C   0  0  0  0  0  0
  -26.4575  -31.6522   25.0691 C   0  0  0  0  0  0
  -25.3681  -31.3793   26.1333 C   0  0  0  0  0  0
  -27.0484  -30.2879   24.6478 C   0  0  0  0  0  0
  -27.6045  -32.4351   25.7507 C   0  0  0  0  0  0
  -27.5568  -37.1753   24.8468 C   0  0  0  0  0  0
  -21.4362  -29.3043   22.3514 N   0  0  0  0  0  0
  -26.4278  -37.3687   23.9409 N   0  0  0  0  0  0
  -24.7626  -30.9749   22.0808 N   0  0  0  0  0  0
  -23.4212  -28.7987   23.3046 O   0  0  0  0  0  0
  -28.2393  -25.7289   20.1946 O   0  0  0  0  0  0
  -26.5729  -34.8879   22.4592 O   0  0  0  0  0  0
  -23.5756  -32.1164   23.6682 O   0  0  0  0  0  0
  -30.4284  -19.1089   21.3114 C   0  0  0  0  0  0
  -30.1529  -20.4936   21.2478 C   0  0  0  0  0  0
  -28.8467  -19.4529   19.8740 C   0  0  0  0  0  0
  -29.6099  -18.3178   20.4276 C   0  0  0  0  0  0
  -28.3613  -24.0267   22.0237 C   0  0  0  0  0  0
  -28.7671  -22.4869   19.8254 C   0  0  0  0  0  0
  -28.1026  -24.0716   20.5148 C   0  0  2  0  0  0
  -29.1488  -20.8761   20.3328 N   0  0  0  0  0  0
  -29.5614  -16.6654   20.2925 N   0  0  0  0  0  0
  -31.4457  -13.1490   19.1645 H   0  0  0  0  0  0
  -30.5584  -12.0267   20.1500 H   0  0  0  0  0  0
  -29.9452  -11.7554   17.7226 H   0  0  0  0  0  0
  -29.5406  -13.4509   17.6168 H   0  0  0  0  0  0
  -28.0817  -11.2758   19.1337 H   0  0  0  0  0  0
  -27.4252  -12.2888   17.8721 H   0  0  0  0  0  0
  -27.4993  -14.2301   19.2871 H   0  0  0  0  0  0
  -28.8461  -12.5921   21.4880 H   0  0  0  0  0  0
  -28.2555  -14.2297   21.6616 H   0  0  0  0  0  0
  -25.2774   -9.5676   22.4766 H   0  0  0  0  0  0
  -24.0001   -7.4633   22.7480 H   0  0  0  0  0  0
  -21.0852   -8.8776   19.8953 H   0  0  0  0  0  0
  -22.3714  -10.9669   19.6164 H   0  0  0  0  0  0
  -21.2012   -7.6147   23.9711 H   0  0  0  0  0  0
  -21.1483   -6.0523   25.9074 H   0  0  0  0  0  0
  -22.0597   -2.7606   23.2845 H   0  0  0  0  0  0
  -22.4038  -11.9835   22.4863 H   0  0  0  0  0  0
  -21.1015  -13.1164   22.2663 H   0  0  0  0  0  0
  -24.6260  -15.8450   20.5438 H   0  0  0  0  0  0
  -26.2375  -15.6469   20.0828 H   0  0  0  0  0  0
  -26.7424  -32.5067   23.0845 H   0  0  0  0  0  0
  -25.0066  -33.9429   25.0140 H   0  0  0  0  0  0
  -22.8057  -31.2566   21.3354 H   0  0  0  0  0  0
  -23.3768  -35.9507   23.3277 H   0  0  0  0  0  0
  -24.3563  -36.8877   22.2069 H   0  0  0  0  0  0
  -23.7239  -37.6361   23.6734 H   0  0  0  0  0  0
  -26.2471  -31.3312   20.6174 H   0  0  0  0  0  0
  -26.9198  -30.6625   22.0611 H   0  0  0  0  0  0
  -28.1710  -28.5395   21.2654 H   0  0  0  0  0  0
  -25.8667  -25.6747   19.0393 H   0  0  0  0  0  0
  -24.0060  -27.2304   18.9747 H   0  0  0  0  0  0
  -23.8993  -30.4914   19.3851 H   0  0  0  0  0  0
  -22.8411  -29.1880   19.8268 H   0  0  0  0  0  0
  -25.1339  -36.1728   25.0782 H   0  0  0  0  0  0
  -21.0044  -28.3380   24.1298 H   0  0  0  0  0  0
  -20.5679  -26.2388   23.3651 H   0  0  0  0  0  0
  -21.6663  -26.7407   22.1209 H   0  0  0  0  0  0
  -19.6931  -25.6274   21.1283 H   0  0  0  0  0  0
  -19.6709  -27.3156   20.6720 H   0  0  0  0  0  0
  -17.4224  -26.6689   21.4032 H   0  0  0  0  0  0
  -18.0353  -26.0101   22.9036 H   0  0  0  0  0  0
  -19.7973  -30.7334   24.2186 H   0  0  0  0  0  0
  -17.5039  -31.6275   24.5167 H   0  0  0  0  0  0
  -15.5378  -30.2967   23.7700 H   0  0  0  0  0  0
  -15.8712  -28.0803   22.7112 H   0  0  0  0  0  0
  -24.5872  -30.7138   25.7636 H   0  0  0  0  0  0
  -24.8863  -32.3002   26.4626 H   0  0  0  0  0  0
  -25.7892  -30.9039   27.0200 H   0  0  0  0  0  0
  -26.3169  -29.6532   24.1466 H   0  0  0  0  0  0
  -27.3970  -29.7273   25.5163 H   0  0  0  0  0  0
  -27.9127  -30.4043   23.9936 H   0  0  0  0  0  0
  -27.2598  -33.3709   26.1921 H   0  0  0  0  0  0
  -28.3945  -32.6822   25.0403 H   0  0  0  0  0  0
  -28.0613  -31.8586   26.5562 H   0  0  0  0  0  0
  -28.2561  -38.0070   24.7511 H   0  0  0  0  0  0
  -28.1086  -36.2593   24.6300 H   0  0  0  0  0  0
  -27.2280  -37.1398   25.8869 H   0  0  0  0  0  0
  -20.9638  -29.8713   21.6611 H   0  0  0  0  0  0
  -26.0118  -38.2744   24.1411 H   0  0  0  0  0  0
  -31.1792  -18.7006   21.9745 H   0  0  0  0  0  0
  -30.6524  -21.2863   21.7902 H   0  0  0  0  0  0
  -28.0786  -19.3781   19.1150 H   0  0  0  0  0  0
  -28.1134  -23.0485   22.4363 H   0  0  0  0  0  0
  -27.7628  -24.7695   22.5512 H   0  0  0  0  0  0
  -29.4107  -24.2236   22.2423 H   0  0  0  0  0  0
  -29.7260  -22.8200   19.4290 H   0  0  0  0  0  0
  -28.1792  -22.3378   18.9197 H   0  0  0  0  0  0
  -27.0277  -23.9214   20.4112 H   0  0  0  0  0  0
  -28.6148  -16.3714   20.1040 H   0  0  0  0  0  0
  1 25  1  0  0  0
  1 30  2  0  0  0
  1 79  1  0  0  0
  2  3  1  0  0  0
  2 25  1  0  0  0
  2 80  1  0  0  0
  2 81  1  0  0  0
  3  4  1  0  0  0
  3 82  1  0  0  0
  3 83  1  0  0  0
  4  5  1  0  0  0
  4 84  1  0  0  0
  4 85  1  0  0  0
  5  6  1  0  0  0
  5 26  1  0  0  0
  5 86  1  0  0  0
  6 25  1  0  0  0
  6 87  1  0  0  0
  6 88  1  0  0  0
  7  8  2  0  0  0
  7 26  1  0  0  0
  7 29  1  0  0  0
  8  9  1  0  0  0
  8 22  1  0  0  0
  9 10  1  0  0  0
  9 27  2  0  0  0
 10 11  2  0  0  0
 10 15  1  0  0  0
 11 12  1  0  0  0
 11 89  1  0  0  0
 12 13  2  0  0  0
 12 90  1  0  0  0
 13 14  1  0  0  0
 13 31  1  0  0  0
 14 15  2  0  0  0
 14 91  1  0  0  0
 15 92  1  0  0  0
 16 17  2  0  0  0
 16 21  1  0  0  0
 16 31  1  0  0  0
 17 18  1  0  0  0
 17 93  1  0  0  0
 18 19  2  0  0  0
 18 94  1  0  0  0
 19 20  1  0  0  0
 19 24  1  0  0  0
 20 21  2  0  0  0
 20 95  1  0  0  0
 21 23  1  0  0  0
 22 28  1  0  0  0
 22 32  2  0  0  0
 26 27  1  0  0  0
 28 96  1  0  0  0
 28 97  1  0  0  0
 29 98  1  0  0  0
 29 99  1  0  0  0
 33 34  1  0  0  0
 33 66  1  0  0  0
 33 70  2  0  0  0
 34 36  1  0  0  0
 34 59  1  0  0  0
 34100  1  0  0  0
 35 44  2  0  0  0
 35 45  1  0  0  0
 35 68  1  0  0  0
 36 56  1  0  0  0
 36101  1  0  0  0
 37 39  1  0  0  0
 37 47  1  0  0  0
 37 66  1  0  0  0
 37102  1  0  0  0
 38 43  2  0  0  0
 38 46  1  0  0  0
 38 47  1  0  0  0
 39 64  1  0  0  0
 39 67  2  0  0  0
 40 52  1  0  0  0
 40 53  2  0  0  0
 40 58  1  0  0  0
 41103  1  0  0  0
 41104  1  0  0  0
 41105  1  0  0  0
 41 48  1  0  0  0
 42 43  1  0  0  0
 42 66  1  0  0  0
 42106  1  0  0  0
 42107  1  0  0  0
 43 44  1  0  0  0
 44108  1  0  0  0
 45 46  2  0  0  0
 45109  1  0  0  0
 46110  1  0  0  0
 47111  1  0  0  0
 47112  1  0  0  0
 48 56  1  0  0  0
 48 65  1  0  0  0
 48113  1  0  0  0
 49 50  1  0  0  0
 49 53  1  0  0  0
 49 64  1  0  0  0
 49114  1  0  0  0
 50 51  1  0  0  0
 50115  1  0  0  0
 50116  1  0  0  0
 51 52  1  0  0  0
 51117  1  0  0  0
 51118  1  0  0  0
 52119  1  0  0  0
 52120  1  0  0  0
 53 54  1  0  0  0
 54 55  2  0  0  0
 54121  1  0  0  0
 55 57  1  0  0  0
 55122  1  0  0  0
 56 69  2  0  0  0
 57 58  2  0  0  0
 57123  1  0  0  0
 58124  1  0  0  0
 59 60  1  0  0  0
 59 61  1  0  0  0
 59 62  1  0  0  0
 60125  1  0  0  0
 60126  1  0  0  0
 60127  1  0  0  0
 61128  1  0  0  0
 61129  1  0  0  0
 61130  1  0  0  0
 62131  1  0  0  0
 62132  1  0  0  0
 62133  1  0  0  0
 63 65  1  0  0  0
 63134  1  0  0  0
 63135  1  0  0  0
 63136  1  0  0  0
 64137  1  0  0  0
 65138  1  0  0  0
 68 77  1  0  0  0
 71 72  2  0  0  0
 71 74  1  0  0  0
 71139  1  0  0  0
 72 78  1  0  0  0
 72140  1  0  0  0
 73 74  2  0  0  0
 73 78  1  0  0  0
 73141  1  0  0  0
 74 79  1  0  0  0
 75142  1  0  0  0
 75143  1  0  0  0
 75144  1  0  0  0
 75 77  1  0  0  0
 76 77  1  0  0  0
 76 78  1  0  0  0
 76145  1  0  0  0
 76146  1  0  0  0
 77147  1  0  0  0
 79148  1  0  0  0
M  ISO  4   1 100  68 101  77 101  79 100
M  END
> <chiral flag>
0

> <version>
0

> <s_m_source_file>
/data/baiqing/PycharmProjects/Reinvent-master-3.2/result/LINK_invent/BTK/process_docking_weight1_custom_sum_contain_oxygen_bond_distance_aromatic_linkinvent_7_9_3/rearranged_h_0111.sdf

> <i_m_source_file_index>
11

> <r_mmod_Potential_Energy-OPLS-2005>
1619.40405273438

> <r_mmod_Stretch_Energy-OPLS-2005>
705.191162109375

> <r_mmod_Bend_Energy-OPLS-2005>
518.778747558594

> <r_mmod_Torsional_Energy-OPLS-2005>
249.649658203125

> <r_mmod_Improper_Torsional_Energy-OPLS-2005>
9.08244037628174

> <r_mmod_Van_der_Waal_Energy-OPLS-2005>
101.77946472168

> <r_mmod_Electrostatic_Energy-OPLS-2005>
-335.946166992188

> <r_mmod_Solvation_Energy-OPLS-2005>
-219.956878662109

> <b_mmod_Minimization_Converged-OPLS-2005>
0

> <r_mmod_RMS_Derivative-OPLS-2005>
0.449319899082184

$$$$
11
                    3D
 Structure written by MMmdl.
161170  0  0  1  0            999 V2000
  -30.6782  -14.6585   20.5322 C   0  0  0  0  0  0
  -30.4222  -12.4133   19.4710 C   0  0  0  0  0  0
  -29.5043  -12.5076   18.2332 C   0  0  0  0  0  0
  -28.0288  -12.3425   18.6408 C   0  0  0  0  0  0
  -27.6453  -13.2277   19.8545 C   0  0  2  0  0  0
  -28.6838  -13.1262   20.9904 C   0  0  0  0  0  0
  -25.2533  -13.8197   20.5709 C   0  0  0  0  0  0
  -24.1807  -13.0454   20.9193 C   0  0  0  0  0  0
  -24.6387  -11.6925   20.8744 C   0  0  0  0  0  0
  -23.9070  -10.4304   21.0419 C   0  0  0  0  0  0
  -24.3623   -9.4218   21.9195 C   0  0  0  0  0  0
  -23.6310   -8.2243   22.0757 C   0  0  0  0  0  0
  -22.4291   -8.0277   21.3544 C   0  0  0  0  0  0
  -21.9922   -9.0254   20.4650 C   0  0  0  0  0  0
  -22.7248  -10.2137   20.3066 C   0  0  0  0  0  0
  -21.6857   -6.0749   22.5295 C   0  0  0  0  0  0
  -21.4009   -6.5649   23.8232 C   0  0  0  0  0  0
  -21.3657   -5.6795   24.9191 C   0  0  0  0  0  0
  -21.6050   -4.3061   24.7235 C   0  0  0  0  0  0
  -21.8813   -3.8154   23.4352 C   0  0  0  0  0  0
  -21.9192   -4.6976   22.3414 C   0  0  0  0  0  0
  -22.7832  -13.5250   21.1856 C   0  0  0  0  0  0
  -22.1668   -4.2166   21.0989 F   0  0  0  0  0  0
  -21.5628   -3.4539   25.7744 F   0  0  0  0  0  0
  -30.0003  -13.4637   20.4293 N   0  0  0  0  0  0
  -26.2950  -12.9392   20.3290 N   0  0  0  0  0  0
  -25.9315  -11.6538   20.5741 N   0  0  0  0  0  0
  -22.0470  -12.8247   22.0414 N   0  0  0  0  0  0
  -25.4263  -15.1923   20.4164 N   0  0  0  0  0  0
  -31.8143  -14.7582   20.0576 O   0  0  0  0  0  0
  -21.6639   -6.8887   21.4254 O   0  0  0  0  0  0
  -22.3528  -14.5574   20.6727 O   0  0  0  0  0  0
  -24.6263  -31.8594   23.2004 C   0  0  0  0  0  0
  -25.9114  -32.4775   23.8331 C   0  0  1  0  0  0
  -27.2238  -27.3132   20.1277 C   0  0  0  0  0  0
  -25.5926  -33.8571   24.2272 N   0  0  0  0  0  0
  -23.4219  -30.4809   21.5430 C   0  0  2  0  0  0
  -24.8720  -28.9322   20.1100 C   0  0  0  0  0  0
  -22.7475  -29.4617   22.4927 C   0  0  0  0  0  0
  -18.0285  -28.1394   22.8494 C   0  0  0  0  0  0
  -24.1489  -36.7292   23.2635 C   0  0  0  0  0  0
  -25.9621  -30.7864   21.3756 C   0  0  0  0  0  0
  -26.0386  -29.4116   20.7211 C   0  0  0  0  0  0
  -27.2208  -28.6117   20.7242 C   0  0  0  0  0  0
  -26.0454  -26.8887   19.4828 C   0  0  0  0  0  0
  -24.8768  -27.6760   19.4817 C   0  0  0  0  0  0
  -23.6390  -29.8128   20.1591 C   0  0  0  0  0  0
  -25.4119  -36.3092   24.0326 C   0  0  1  0  0  0
  -20.5884  -28.3692   23.1290 C   0  0  2  0  0  0
  -20.6789  -26.9413   22.5421 C   0  0  0  0  0  0
  -19.5761  -26.6383   21.5229 C   0  0  0  0  0  0
  -18.1938  -26.7935   22.1636 C   0  0  0  0  0  0
  -19.1539  -28.8860   23.2887 C   0  0  0  0  0  0
  -18.9460  -30.1459   23.8901 C   0  0  0  0  0  0
  -17.6465  -30.6599   24.0561 C   0  0  0  0  0  0
  -25.9049  -34.9456   23.5110 C   0  0  0  0  0  0
  -16.5353  -29.9101   23.6336 C   0  0  0  0  0  0
  -16.7272  -28.6515   23.0362 C   0  0  0  0  0  0
  -26.4492  -31.6576   25.0704 C   0  0  0  0  0  0
  -25.3713  -31.3709   26.1418 C   0  0  0  0  0  0
  -27.0323  -30.3003   24.6138 C   0  0  0  0  0  0
  -27.6059  -32.4302   25.7463 C   0  0  0  0  0  0
  -27.5583  -37.1809   24.8464 C   0  0  0  0  0  0
  -21.4187  -29.3052   22.3682 N   0  0  0  0  0  0
  -26.4301  -37.3788   23.9399 N   0  0  0  0  0  0
  -24.6885  -31.0585   22.0973 N   0  0  0  0  0  0
  -23.4192  -28.8157   23.3014 O   0  0  0  0  0  0
  -28.3083  -26.4230   20.1487 O   0  0  0  0  0  0
  -26.5608  -34.8931   22.4673 O   0  0  0  0  0  0
  -23.5432  -32.1391   23.7340 O   0  0  0  0  0  0
  -28.6475  -23.2832   19.4271 C   0  0  0  0  0  0
  -28.9749  -21.9063   19.2104 C   0  0  0  0  0  0
  -29.0759  -22.8893   21.7336 C   0  0  0  0  0  0
  -28.7009  -23.8310   20.7326 C   0  0  0  0  0  0
  -29.3276  -21.0448   20.2835 C   0  0  0  0  0  0
  -29.0616  -17.1241   22.8755 C   0  0  0  0  0  0
  -29.4446  -18.4807   22.2630 C   0  0  0  0  0  0
  -30.0043  -15.9925   22.4225 C   0  0  0  0  0  0
  -30.2461  -17.1333   20.2635 C   0  0  0  0  0  0
  -29.3941  -18.4099   20.7317 C   0  0  2  0  0  0
  -27.0756  -25.2897   22.0678 C   0  0  0  0  0  0
  -28.3167  -25.3147   21.1451 C   0  0  2  0  0  0
  -29.3669  -21.5645   21.5309 N   0  0  0  0  0  0
  -30.0173  -15.8010   20.9618 N   0  0  0  0  0  0
  -29.7669  -19.6962   20.0392 N   0  0  0  0  0  0
  -31.4667  -12.5126   19.1689 H   0  0  0  0  0  0
  -30.3435  -11.4293   19.9360 H   0  0  0  0  0  0
  -29.7733  -11.7461   17.4985 H   0  0  0  0  0  0
  -29.6468  -13.4713   17.7432 H   0  0  0  0  0  0
  -27.8718  -11.2914   18.8841 H   0  0  0  0  0  0
  -27.3742  -12.5569   17.7946 H   0  0  0  0  0  0
  -27.6529  -14.2574   19.4954 H   0  0  0  0  0  0
  -28.6990  -12.1220   21.4158 H   0  0  0  0  0  0
  -28.3967  -13.7905   21.8029 H   0  0  0  0  0  0
  -25.2765   -9.5699   22.4779 H   0  0  0  0  0  0
  -24.0027   -7.4630   22.7465 H   0  0  0  0  0  0
  -21.0859   -8.8779   19.8958 H   0  0  0  0  0  0
  -22.3714  -10.9678   19.6179 H   0  0  0  0  0  0
  -21.2002   -7.6157   23.9750 H   0  0  0  0  0  0
  -21.1484   -6.0519   25.9100 H   0  0  0  0  0  0
  -22.0590   -2.7617   23.2849 H   0  0  0  0  0  0
  -22.4065  -11.9913   22.4831 H   0  0  0  0  0  0
  -21.1091  -13.1279   22.2605 H   0  0  0  0  0  0
  -24.6685  -15.8538   20.5433 H   0  0  0  0  0  0
  -26.2925  -15.6324   20.1336 H   0  0  0  0  0  0
  -26.7182  -32.5449   23.1072 H   0  0  0  0  0  0
  -25.0078  -33.9692   25.0424 H   0  0  0  0  0  0
  -22.7175  -31.3029   21.4007 H   0  0  0  0  0  0
  -23.3750  -35.9626   23.3309 H   0  0  0  0  0  0
  -24.3579  -36.8903   22.2050 H   0  0  0  0  0  0
  -23.7244  -37.6500   23.6644 H   0  0  0  0  0  0
  -26.0913  -31.5475   20.6053 H   0  0  0  0  0  0
  -26.8436  -30.8382   22.0039 H   0  0  0  0  0  0
  -28.1150  -28.9673   21.2150 H   0  0  0  0  0  0
  -26.0213  -25.9195   19.0040 H   0  0  0  0  0  0
  -23.9845  -27.3032   18.9984 H   0  0  0  0  0  0
  -23.7567  -30.5889   19.4022 H   0  0  0  0  0  0
  -22.7597  -29.2413   19.8575 H   0  0  0  0  0  0
  -25.1309  -36.1946   25.0819 H   0  0  0  0  0  0
  -20.9978  -28.3263   24.1412 H   0  0  0  0  0  0
  -20.5713  -26.2293   23.3623 H   0  0  0  0  0  0
  -21.6663  -26.7475   22.1213 H   0  0  0  0  0  0
  -19.6919  -25.6285   21.1278 H   0  0  0  0  0  0
  -19.6699  -27.3186   20.6757 H   0  0  0  0  0  0
  -17.4216  -26.6689   21.4030 H   0  0  0  0  0  0
  -18.0326  -26.0071   22.9031 H   0  0  0  0  0  0
  -19.7934  -30.7275   24.2276 H   0  0  0  0  0  0
  -17.5023  -31.6273   24.5160 H   0  0  0  0  0  0
  -15.5350  -30.3013   23.7659 H   0  0  0  0  0  0
  -15.8668  -28.0834   22.7097 H   0  0  0  0  0  0
  -24.5900  -30.7059   25.7722 H   0  0  0  0  0  0
  -24.8888  -32.2871   26.4830 H   0  0  0  0  0  0
  -25.8027  -30.8884   27.0196 H   0  0  0  0  0  0
  -26.2889  -29.6759   24.1174 H   0  0  0  0  0  0
  -27.4040  -29.7255   25.4625 H   0  0  0  0  0  0
  -27.8751  -30.4292   23.9345 H   0  0  0  0  0  0
  -27.2687  -33.3607   26.2038 H   0  0  0  0  0  0
  -28.3860  -32.6850   25.0276 H   0  0  0  0  0  0
  -28.0727  -31.8418   26.5372 H   0  0  0  0  0  0
  -28.2620  -38.0088   24.7510 H   0  0  0  0  0  0
  -28.1066  -36.2627   24.6308 H   0  0  0  0  0  0
  -27.2291  -37.1481   25.8863 H   0  0  0  0  0  0
  -20.9356  -29.8783   21.6905 H   0  0  0  0  0  0
  -26.0184  -38.2865   24.1397 H   0  0  0  0  0  0
  -28.3655  -23.9092   18.5931 H   0  0  0  0  0  0
  -28.9577  -21.5275   18.1980 H   0  0  0  0  0  0
  -29.1452  -23.2064   22.7635 H   0  0  0  0  0  0
  -28.0319  -16.8740   22.6140 H   0  0  0  0  0  0
  -29.0882  -17.2014   23.9633 H   0  0  0  0  0  0
  -30.4439  -18.7686   22.5947 H   0  0  0  0  0  0
  -28.7564  -19.2401   22.6346 H   0  0  0  0  0  0
  -29.7256  -15.0745   22.9401 H   0  0  0  0  0  0
  -31.0197  -16.2144   22.7566 H   0  0  0  0  0  0
  -31.3042  -17.3758   20.3809 H   0  0  0  0  0  0
  -30.0977  -16.9780   19.1935 H   0  0  0  0  0  0
  -28.3564  -18.2191   20.4559 H   0  0  0  0  0  0
  -26.8690  -26.2671   22.5050 H   0  0  0  0  0  0
  -27.2181  -24.6133   22.9092 H   0  0  0  0  0  0
  -26.1846  -24.9582   21.5344 H   0  0  0  0  0  0
  -29.1409  -25.6098   21.7957 H   0  0  0  0  0  0
  -29.9303  -19.5384   19.0508 H   0  0  0  0  0  0
  1 25  1  0  0  0
  1 30  2  0  0  0
  1 84  1  0  0  0
  2  3  1  0  0  0
  2 25  1  0  0  0
  2 86  1  0  0  0
  2 87  1  0  0  0
  3  4  1  0  0  0
  3 88  1  0  0  0
  3 89  1  0  0  0
  4  5  1  0  0  0
  4 90  1  0  0  0
  4 91  1  0  0  0
  5  6  1  0  0  0
  5 26  1  0  0  0
  5 92  1  0  0  0
  6 25  1  0  0  0
  6 93  1  0  0  0
  6 94  1  0  0  0
  7  8  2  0  0  0
  7 26  1  0  0  0
  7 29  1  0  0  0
  8  9  1  0  0  0
  8 22  1  0  0  0
  9 10  1  0  0  0
  9 27  2  0  0  0
 10 11  2  0  0  0
 10 15  1  0  0  0
 11 12  1  0  0  0
 11 95  1  0  0  0
 12 13  2  0  0  0
 12 96  1  0  0  0
 13 14  1  0  0  0
 13 31  1  0  0  0
 14 15  2  0  0  0
 14 97  1  0  0  0
 15 98  1  0  0  0
 16 17  2  0  0  0
 16 21  1  0  0  0
 16 31  1  0  0  0
 17 18  1  0  0  0
 17 99  1  0  0  0
 18 19  2  0  0  0
 18100  1  0  0  0
 19 20  1  0  0  0
 19 24  1  0  0  0
 20 21  2  0  0  0
 20101  1  0  0  0
 21 23  1  0  0  0
 22 28  1  0  0  0
 22 32  2  0  0  0
 26 27  1  0  0  0
 28102  1  0  0  0
 28103  1  0  0  0
 29104  1  0  0  0
 29105  1  0  0  0
 33 34  1  0  0  0
 33 66  1  0  0  0
 33 70  2  0  0  0
 34 36  1  0  0  0
 34 59  1  0  0  0
 34106  1  0  0  0
 35 44  2  0  0  0
 35 45  1  0  0  0
 35 68  1  0  0  0
 36 56  1  0  0  0
 36107  1  0  0  0
 37 39  1  0  0  0
 37 47  1  0  0  0
 37 66  1  0  0  0
 37108  1  0  0  0
 38 43  2  0  0  0
 38 46  1  0  0  0
 38 47  1  0  0  0
 39 64  1  0  0  0
 39 67  2  0  0  0
 40 52  1  0  0  0
 40 53  2  0  0  0
 40 58  1  0  0  0
 41109  1  0  0  0
 41110  1  0  0  0
 41111  1  0  0  0
 41 48  1  0  0  0
 42 43  1  0  0  0
 42 66  1  0  0  0
 42112  1  0  0  0
 42113  1  0  0  0
 43 44  1  0  0  0
 44114  1  0  0  0
 45 46  2  0  0  0
 45115  1  0  0  0
 46116  1  0  0  0
 47117  1  0  0  0
 47118  1  0  0  0
 48 56  1  0  0  0
 48 65  1  0  0  0
 48119  1  0  0  0
 49 50  1  0  0  0
 49 53  1  0  0  0
 49 64  1  0  0  0
 49120  1  0  0  0
 50 51  1  0  0  0
 50121  1  0  0  0
 50122  1  0  0  0
 51 52  1  0  0  0
 51123  1  0  0  0
 51124  1  0  0  0
 52125  1  0  0  0
 52126  1  0  0  0
 53 54  1  0  0  0
 54 55  2  0  0  0
 54127  1  0  0  0
 55 57  1  0  0  0
 55128  1  0  0  0
 56 69  2  0  0  0
 57 58  2  0  0  0
 57129  1  0  0  0
 58130  1  0  0  0
 59 60  1  0  0  0
 59 61  1  0  0  0
 59 62  1  0  0  0
 60131  1  0  0  0
 60132  1  0  0  0
 60133  1  0  0  0
 61134  1  0  0  0
 61135  1  0  0  0
 61136  1  0  0  0
 62137  1  0  0  0
 62138  1  0  0  0
 62139  1  0  0  0
 63 65  1  0  0  0
 63140  1  0  0  0
 63141  1  0  0  0
 63142  1  0  0  0
 64143  1  0  0  0
 65144  1  0  0  0
 68 82  1  0  0  0
 71 72  2  0  0  0
 71 74  1  0  0  0
 71145  1  0  0  0
 72 75  1  0  0  0
 72146  1  0  0  0
 73 74  2  0  0  0
 73 83  1  0  0  0
 73147  1  0  0  0
 74 82  1  0  0  0
 75 83  2  0  0  0
 75 85  1  0  0  0
 76 77  1  0  0  0
 76 78  1  0  0  0
 76148  1  0  0  0
 76149  1  0  0  0
 77 80  1  0  0  0
 77150  1  0  0  0
 77151  1  0  0  0
 78 84  1  0  0  0
 78152  1  0  0  0
 78153  1  0  0  0
 79 80  1  0  0  0
 79 84  1  0  0  0
 79154  1  0  0  0
 79155  1  0  0  0
 80 85  1  0  0  0
 80156  1  0  0  0
 81157  1  0  0  0
 81158  1  0  0  0
 81159  1  0  0  0
 81 82  1  0  0  0
 82160  1  0  0  0
 85161  1  0  0  0
M  ISO  4   1 100  68 101  82 101  84 100
M  END
> <chiral flag>
0

> <version>
0

> <s_m_source_file>
/data/baiqing/PycharmProjects/Reinvent-master-3.2/result/LINK_invent/BTK/process_docking_weight1_custom_sum_contain_oxygen_bond_distance_aromatic_linkinvent_7_9_3/rearranged_h_0111.sdf

> <i_m_source_file_index>
12

> <r_mmod_Potential_Energy-OPLS-2005>
100.378540039062

> <r_mmod_Stretch_Energy-OPLS-2005>
93.1653594970703

> <r_mmod_Bend_Energy-OPLS-2005>
176.666412353516

> <r_mmod_Torsional_Energy-OPLS-2005>
347.202911376953

> <r_mmod_Improper_Torsional_Energy-OPLS-2005>
11.9377813339233

> <r_mmod_Van_der_Waal_Energy-OPLS-2005>
147.082382202148

> <r_mmod_Electrostatic_Energy-OPLS-2005>
-513.113464355469

> <r_mmod_Solvation_Energy-OPLS-2005>
-217.417129516602

> <b_mmod_Minimization_Converged-OPLS-2005>
0

> <r_mmod_RMS_Derivative-OPLS-2005>
1.92657351493835

$$$$
12
                    3D
 Structure written by MMmdl.
166174  0  0  1  0            999 V2000
  -30.6873  -14.4545   20.5911 C   0  0  0  0  0  0
  -30.4318  -12.3024   19.4090 C   0  0  0  0  0  0
  -29.4963  -12.5084   18.1991 C   0  0  0  0  0  0
  -28.0155  -12.3723   18.6107 C   0  0  0  0  0  0
  -27.6655  -13.1997   19.8762 C   0  0  2  0  0  0
  -28.7073  -12.9505   20.9901 C   0  0  0  0  0  0
  -25.2614  -13.8152   20.5668 C   0  0  0  0  0  0
  -24.1858  -13.0436   20.9171 C   0  0  0  0  0  0
  -24.6405  -11.6900   20.8738 C   0  0  0  0  0  0
  -23.9071  -10.4290   21.0409 C   0  0  0  0  0  0
  -24.3621   -9.4205   21.9188 C   0  0  0  0  0  0
  -23.6292   -8.2244   22.0757 C   0  0  0  0  0  0
  -22.4276   -8.0285   21.3542 C   0  0  0  0  0  0
  -21.9917   -9.0262   20.4646 C   0  0  0  0  0  0
  -22.7249  -10.2136   20.3055 C   0  0  0  0  0  0
  -21.6849   -6.0744   22.5278 C   0  0  0  0  0  0
  -21.4015   -6.5647   23.8213 C   0  0  0  0  0  0
  -21.3658   -5.6795   24.9174 C   0  0  0  0  0  0
  -21.6042   -4.3059   24.7222 C   0  0  0  0  0  0
  -21.8821   -3.8154   23.4340 C   0  0  0  0  0  0
  -21.9195   -4.6971   22.3397 C   0  0  0  0  0  0
  -22.7882  -13.5240   21.1834 C   0  0  0  0  0  0
  -22.1662   -4.2160   21.0974 F   0  0  0  0  0  0
  -21.5627   -3.4536   25.7732 F   0  0  0  0  0  0
  -30.0389  -13.2691   20.4424 N   0  0  0  0  0  0
  -26.3046  -12.9304   20.3361 N   0  0  0  0  0  0
  -25.9327  -11.6472   20.5758 N   0  0  0  0  0  0
  -22.0519  -12.8232   22.0385 N   0  0  0  0  0  0
  -25.4349  -15.1864   20.4074 N   0  0  0  0  0  0
  -31.8131  -14.6753   20.1371 O   0  0  0  0  0  0
  -21.6633   -6.8888   21.4241 O   0  0  0  0  0  0
  -22.3581  -14.5553   20.6689 O   0  0  0  0  0  0
  -24.6142  -31.8673   23.2096 C   0  0  0  0  0  0
  -25.9037  -32.4824   23.8398 C   0  0  1  0  0  0
  -27.2439  -27.4438   20.1001 C   0  0  0  0  0  0
  -25.5879  -33.8616   24.2334 N   0  0  0  0  0  0
  -23.4041  -30.4881   21.5491 C   0  0  2  0  0  0
  -24.8551  -28.9494   20.1207 C   0  0  0  0  0  0
  -22.7414  -29.4650   22.4991 C   0  0  0  0  0  0
  -18.0267  -28.1370   22.8489 C   0  0  0  0  0  0
  -24.1485  -36.7316   23.2644 C   0  0  0  0  0  0
  -25.9309  -30.8359   21.3614 C   0  0  0  0  0  0
  -26.0131  -29.4669   20.7166 C   0  0  0  0  0  0
  -27.2131  -28.7202   20.7059 C   0  0  0  0  0  0
  -26.0747  -26.9339   19.5031 C   0  0  0  0  0  0
  -24.8796  -27.6805   19.5124 C   0  0  0  0  0  0
  -23.6161  -29.8160   20.1653 C   0  0  0  0  0  0
  -25.4102  -36.3107   24.0339 C   0  0  1  0  0  0
  -20.5860  -28.3658   23.1315 C   0  0  2  0  0  0
  -20.6758  -26.9393   22.5412 C   0  0  0  0  0  0
  -19.5737  -26.6387   21.5205 C   0  0  0  0  0  0
  -18.1917  -26.7916   22.1619 C   0  0  0  0  0  0
  -19.1518  -28.8828   23.2901 C   0  0  0  0  0  0
  -18.9447  -30.1432   23.8913 C   0  0  0  0  0  0
  -17.6446  -30.6579   24.0560 C   0  0  0  0  0  0
  -25.9020  -34.9471   23.5135 C   0  0  0  0  0  0
  -16.5336  -29.9082   23.6323 C   0  0  0  0  0  0
  -16.7257  -28.6497   23.0346 C   0  0  0  0  0  0
  -26.4467  -31.6592   25.0717 C   0  0  0  0  0  0
  -25.3736  -31.3651   26.1465 C   0  0  0  0  0  0
  -27.0324  -30.3055   24.6059 C   0  0  0  0  0  0
  -27.6052  -32.4310   25.7474 C   0  0  0  0  0  0
  -27.5581  -37.1807   24.8468 C   0  0  0  0  0  0
  -21.4142  -29.3029   22.3728 N   0  0  0  0  0  0
  -26.4296  -37.3781   23.9406 N   0  0  0  0  0  0
  -24.6683  -31.0777   22.0991 N   0  0  0  0  0  0
  -23.4186  -28.8192   23.3034 O   0  0  0  0  0  0
  -28.4078  -26.7163   20.0349 O   0  0  0  0  0  0
  -26.5597  -34.8925   22.4705 O   0  0  0  0  0  0
  -23.5331  -32.1399   23.7492 O   0  0  0  0  0  0
  -31.4027  -20.3637   23.7928 C   0  0  0  0  0  0
  -31.6847  -19.4685   22.7296 C   0  0  0  0  0  0
  -30.5157  -21.2849   23.3204 C   0  0  0  0  0  0
  -30.9367  -19.8347   21.6411 C   0  0  0  0  0  0
  -27.9328  -21.2008   21.1803 C   0  0  0  0  0  0
  -28.7188  -24.3089   20.5149 C   0  0  0  0  0  0
  -29.3261  -23.3182   21.5424 C   0  0  0  0  0  0
  -31.0247  -17.6056   20.3160 C   0  0  0  0  0  0
  -30.1652  -16.8559   21.3681 C   0  0  0  0  0  0
  -28.5996  -25.7497   21.0722 C   0  0  0  0  0  0
  -30.8532  -19.1579   20.2900 C   0  0  2  0  0  0
  -29.3429  -21.8130   21.1383 C   0  0  1  0  0  0
  -30.2517  -21.0135   21.9825 N   0  0  0  0  0  0
  -29.9299  -15.4189   21.1421 N   0  0  0  0  0  0
  -31.8367  -19.7646   19.3818 N   0  3  0  0  0  0
  -31.4745  -12.4170   19.1072 H   0  0  0  0  0  0
  -30.3431  -11.2852   19.7945 H   0  0  0  0  0  0
  -29.7321  -11.7889   17.4138 H   0  0  0  0  0  0
  -29.6671  -13.4963   17.7685 H   0  0  0  0  0  0
  -27.8169  -11.3159   18.7935 H   0  0  0  0  0  0
  -27.3681  -12.6629   17.7824 H   0  0  0  0  0  0
  -27.7177  -14.2512   19.5924 H   0  0  0  0  0  0
  -28.6838  -11.9055   21.3026 H   0  0  0  0  0  0
  -28.4678  -13.5205   21.8890 H   0  0  0  0  0  0
  -25.2767   -9.5674   22.4762 H   0  0  0  0  0  0
  -23.9996   -7.4638   22.7478 H   0  0  0  0  0  0
  -21.0849   -8.8792   19.8947 H   0  0  0  0  0  0
  -22.3722  -10.9681   19.6163 H   0  0  0  0  0  0
  -21.2010   -7.6158   23.9722 H   0  0  0  0  0  0
  -21.1475   -6.0523   25.9077 H   0  0  0  0  0  0
  -22.0603   -2.7618   23.2835 H   0  0  0  0  0  0
  -22.4119  -11.9871   22.4744 H   0  0  0  0  0  0
  -21.1139  -13.1270   22.2595 H   0  0  0  0  0  0
  -24.6681  -15.8416   20.5131 H   0  0  0  0  0  0
  -26.2869  -15.6245   20.0810 H   0  0  0  0  0  0
  -26.7117  -32.5555   23.1177 H   0  0  0  0  0  0
  -25.0029  -33.9768   25.0483 H   0  0  0  0  0  0
  -22.6925  -31.3040   21.4064 H   0  0  0  0  0  0
  -23.3737  -35.9660   23.3314 H   0  0  0  0  0  0
  -24.3570  -36.8916   22.2055 H   0  0  0  0  0  0
  -23.7259  -37.6530   23.6655 H   0  0  0  0  0  0
  -26.0354  -31.5984   20.5880 H   0  0  0  0  0  0
  -26.8212  -30.8971   21.9748 H   0  0  0  0  0  0
  -28.1139  -29.1184   21.1535 H   0  0  0  0  0  0
  -26.0947  -25.9658   19.0228 H   0  0  0  0  0  0
  -23.9912  -27.2763   19.0467 H   0  0  0  0  0  0
  -23.7252  -30.5883   19.4029 H   0  0  0  0  0  0
  -22.7406  -29.2340   19.8704 H   0  0  0  0  0  0
  -25.1281  -36.1971   25.0830 H   0  0  0  0  0  0
  -20.9938  -28.3229   24.1437 H   0  0  0  0  0  0
  -20.5656  -26.2264   23.3600 H   0  0  0  0  0  0
  -21.6635  -26.7445   22.1204 H   0  0  0  0  0  0
  -19.6899  -25.6307   21.1221 H   0  0  0  0  0  0
  -19.6677  -27.3213   20.6747 H   0  0  0  0  0  0
  -17.4186  -26.6668   21.4021 H   0  0  0  0  0  0
  -18.0307  -26.0053   22.9006 H   0  0  0  0  0  0
  -19.7926  -30.7231   24.2306 H   0  0  0  0  0  0
  -17.5011  -31.6261   24.5160 H   0  0  0  0  0  0
  -15.5341  -30.2988   23.7642 H   0  0  0  0  0  0
  -15.8657  -28.0829   22.7053 H   0  0  0  0  0  0
  -24.5921  -30.6997   25.7775 H   0  0  0  0  0  0
  -24.8914  -32.2782   26.4961 H   0  0  0  0  0  0
  -25.8099  -30.8781   27.0198 H   0  0  0  0  0  0
  -26.2861  -29.6775   24.1171 H   0  0  0  0  0  0
  -27.4198  -29.7319   25.4487 H   0  0  0  0  0  0
  -27.8643  -30.4412   23.9140 H   0  0  0  0  0  0
  -27.2694  -33.3611   26.2066 H   0  0  0  0  0  0
  -28.3847  -32.6845   25.0282 H   0  0  0  0  0  0
  -28.0738  -31.8420   26.5364 H   0  0  0  0  0  0
  -28.2596  -38.0105   24.7508 H   0  0  0  0  0  0
  -28.1081  -36.2632   24.6311 H   0  0  0  0  0  0
  -27.2291  -37.1463   25.8869 H   0  0  0  0  0  0
  -20.9304  -29.8775   21.6968 H   0  0  0  0  0  0
  -26.0187  -38.2863   24.1398 H   0  0  0  0  0  0
  -31.8004  -20.3337   24.7986 H   0  0  0  0  0  0
  -32.3502  -18.6159   22.7681 H   0  0  0  0  0  0
  -30.0562  -22.1221   23.8299 H   0  0  0  0  0  0
  -27.2692  -21.6788   20.4605 H   0  0  0  0  0  0
  -27.4858  -21.3098   22.1685 H   0  0  0  0  0  0
  -27.9469  -20.1363   20.9459 H   0  0  0  0  0  0
  -27.7336  -23.9731   20.1924 H   0  0  0  0  0  0
  -29.3441  -24.3168   19.6217 H   0  0  0  0  0  0
  -28.7934  -23.4293   22.4869 H   0  0  0  0  0  0
  -30.3504  -23.6388   21.7409 H   0  0  0  0  0  0
  -30.8000  -17.2207   19.3205 H   0  0  0  0  0  0
  -32.0709  -17.3602   20.5039 H   0  0  0  0  0  0
  -29.1808  -17.3247   21.4115 H   0  0  0  0  0  0
  -30.5928  -16.9748   22.3635 H   0  0  0  0  0  0
  -29.5248  -26.0181   21.5838 H   0  0  0  0  0  0
  -27.8115  -25.7952   21.8275 H   0  0  0  0  0  0
  -29.8691  -19.3493   19.8620 H   0  0  0  0  0  0
  -29.7167  -21.7559   20.1163 H   0  0  0  0  0  0
  -29.0210  -15.0913   21.4363 H   0  0  0  0  0  0
  -32.7674  -19.6166   19.7285 H   0  0  0  0  0  0
  -31.6844  -20.7538   19.3155 H   0  0  0  0  0  0
  -31.7645  -19.3678   18.4623 H   0  0  0  0  0  0
  1 25  1  0  0  0
  1 30  2  0  0  0
  1 84  1  0  0  0
  2  3  1  0  0  0
  2 25  1  0  0  0
  2 86  1  0  0  0
  2 87  1  0  0  0
  3  4  1  0  0  0
  3 88  1  0  0  0
  3 89  1  0  0  0
  4  5  1  0  0  0
  4 90  1  0  0  0
  4 91  1  0  0  0
  5  6  1  0  0  0
  5 26  1  0  0  0
  5 92  1  0  0  0
  6 25  1  0  0  0
  6 93  1  0  0  0
  6 94  1  0  0  0
  7  8  2  0  0  0
  7 26  1  0  0  0
  7 29  1  0  0  0
  8  9  1  0  0  0
  8 22  1  0  0  0
  9 10  1  0  0  0
  9 27  2  0  0  0
 10 11  2  0  0  0
 10 15  1  0  0  0
 11 12  1  0  0  0
 11 95  1  0  0  0
 12 13  2  0  0  0
 12 96  1  0  0  0
 13 14  1  0  0  0
 13 31  1  0  0  0
 14 15  2  0  0  0
 14 97  1  0  0  0
 15 98  1  0  0  0
 16 17  2  0  0  0
 16 21  1  0  0  0
 16 31  1  0  0  0
 17 18  1  0  0  0
 17 99  1  0  0  0
 18 19  2  0  0  0
 18100  1  0  0  0
 19 20  1  0  0  0
 19 24  1  0  0  0
 20 21  2  0  0  0
 20101  1  0  0  0
 21 23  1  0  0  0
 22 28  1  0  0  0
 22 32  2  0  0  0
 26 27  1  0  0  0
 28102  1  0  0  0
 28103  1  0  0  0
 29104  1  0  0  0
 29105  1  0  0  0
 33 34  1  0  0  0
 33 66  1  0  0  0
 33 70  2  0  0  0
 34 36  1  0  0  0
 34 59  1  0  0  0
 34106  1  0  0  0
 35 44  2  0  0  0
 35 45  1  0  0  0
 35 68  1  0  0  0
 36 56  1  0  0  0
 36107  1  0  0  0
 37 39  1  0  0  0
 37 47  1  0  0  0
 37 66  1  0  0  0
 37108  1  0  0  0
 38 43  2  0  0  0
 38 46  1  0  0  0
 38 47  1  0  0  0
 39 64  1  0  0  0
 39 67  2  0  0  0
 40 52  1  0  0  0
 40 53  2  0  0  0
 40 58  1  0  0  0
 41109  1  0  0  0
 41110  1  0  0  0
 41111  1  0  0  0
 41 48  1  0  0  0
 42 43  1  0  0  0
 42 66  1  0  0  0
 42112  1  0  0  0
 42113  1  0  0  0
 43 44  1  0  0  0
 44114  1  0  0  0
 45 46  2  0  0  0
 45115  1  0  0  0
 46116  1  0  0  0
 47117  1  0  0  0
 47118  1  0  0  0
 48 56  1  0  0  0
 48 65  1  0  0  0
 48119  1  0  0  0
 49 50  1  0  0  0
 49 53  1  0  0  0
 49 64  1  0  0  0
 49120  1  0  0  0
 50 51  1  0  0  0
 50121  1  0  0  0
 50122  1  0  0  0
 51 52  1  0  0  0
 51123  1  0  0  0
 51124  1  0  0  0
 52125  1  0  0  0
 52126  1  0  0  0
 53 54  1  0  0  0
 54 55  2  0  0  0
 54127  1  0  0  0
 55 57  1  0  0  0
 55128  1  0  0  0
 56 69  2  0  0  0
 57 58  2  0  0  0
 57129  1  0  0  0
 58130  1  0  0  0
 59 60  1  0  0  0
 59 61  1  0  0  0
 59 62  1  0  0  0
 60131  1  0  0  0
 60132  1  0  0  0
 60133  1  0  0  0
 61134  1  0  0  0
 61135  1  0  0  0
 61136  1  0  0  0
 62137  1  0  0  0
 62138  1  0  0  0
 62139  1  0  0  0
 63 65  1  0  0  0
 63140  1  0  0  0
 63141  1  0  0  0
 63142  1  0  0  0
 64143  1  0  0  0
 65144  1  0  0  0
 68 80  1  0  0  0
 71 72  1  0  0  0
 71 73  2  0  0  0
 71145  1  0  0  0
 72 74  2  0  0  0
 72146  1  0  0  0
 73 83  1  0  0  0
 73147  1  0  0  0
 74 81  1  0  0  0
 74 83  1  0  0  0
 75148  1  0  0  0
 75149  1  0  0  0
 75150  1  0  0  0
 75 82  1  0  0  0
 76 77  1  0  0  0
 76 80  1  0  0  0
 76151  1  0  0  0
 76152  1  0  0  0
 77 82  1  0  0  0
 77153  1  0  0  0
 77154  1  0  0  0
 78 79  1  0  0  0
 78 81  1  0  0  0
 78155  1  0  0  0
 78156  1  0  0  0
 79 84  1  0  0  0
 79157  1  0  0  0
 79158  1  0  0  0
 80159  1  0  0  0
 80160  1  0  0  0
 81 85  1  0  0  0
 81161  1  0  0  0
 82 83  1  0  0  0
 82162  1  0  0  0
 84163  1  0  0  0
 85164  1  0  0  0
 85165  1  0  0  0
 85166  1  0  0  0
M  CHG  1  85   1
M  ISO  4   1 100  68 101  80 101  84 100
M  END
> <chiral flag>
0

> <version>
0

> <s_m_source_file>
/data/baiqing/PycharmProjects/Reinvent-master-3.2/result/LINK_invent/BTK/process_docking_weight1_custom_sum_contain_oxygen_bond_distance_aromatic_linkinvent_7_9_3/rearranged_h_0111.sdf

> <i_m_source_file_index>
13

> <r_mmod_Potential_Energy-OPLS-2005>
-311.928375244141

> <r_mmod_Stretch_Energy-OPLS-2005>
38.4715576171875

> <r_mmod_Bend_Energy-OPLS-2005>
105.011070251465

> <r_mmod_Torsional_Energy-OPLS-2005>
251.471633911133

> <r_mmod_Improper_Torsional_Energy-OPLS-2005>
3.62992095947266

> <r_mmod_Van_der_Waal_Energy-OPLS-2005>
124.569625854492

> <r_mmod_Electrostatic_Energy-OPLS-2005>
-362.08203125

> <r_mmod_Solvation_Energy-OPLS-2005>
-483.140075683594

> <b_mmod_Minimization_Converged-OPLS-2005>
0

> <r_mmod_RMS_Derivative-OPLS-2005>
1.52787554264069

$$$$
13
                    3D
 Structure written by MMmdl.
162170  0  0  1  0            999 V2000
  -30.5840  -14.8590   20.4046 C   0  0  0  0  0  0
  -30.4360  -12.5146   19.4997 C   0  0  0  0  0  0
  -29.5269  -12.5110   18.2507 C   0  0  0  0  0  0
  -28.0500  -12.3318   18.6560 C   0  0  0  0  0  0
  -27.6396  -13.2435   19.8440 C   0  0  2  0  0  0
  -28.6828  -13.2321   20.9858 C   0  0  0  0  0  0
  -25.2513  -13.8194   20.5695 C   0  0  0  0  0  0
  -24.1832  -13.0430   20.9237 C   0  0  0  0  0  0
  -24.6431  -11.6910   20.8730 C   0  0  0  0  0  0
  -23.9107  -10.4288   21.0351 C   0  0  0  0  0  0
  -24.3628   -9.4221   21.9158 C   0  0  0  0  0  0
  -23.6319   -8.2243   22.0732 C   0  0  0  0  0  0
  -22.4297   -8.0276   21.3520 C   0  0  0  0  0  0
  -21.9938   -9.0261   20.4632 C   0  0  0  0  0  0
  -22.7254  -10.2153   20.3026 C   0  0  0  0  0  0
  -21.6875   -6.0741   22.5288 C   0  0  0  0  0  0
  -21.4021   -6.5632   23.8221 C   0  0  0  0  0  0
  -21.3677   -5.6773   24.9179 C   0  0  0  0  0  0
  -21.6072   -4.3041   24.7221 C   0  0  0  0  0  0
  -21.8827   -3.8140   23.4340 C   0  0  0  0  0  0
  -21.9205   -4.6969   22.3408 C   0  0  0  0  0  0
  -22.7854  -13.5206   21.1861 C   0  0  0  0  0  0
  -22.1645   -4.2147   21.0986 F   0  0  0  0  0  0
  -21.5654   -3.4521   25.7739 F   0  0  0  0  0  0
  -29.9713  -13.6103   20.3935 N   0  0  0  0  0  0
  -26.2947  -12.9441   20.3233 N   0  0  0  0  0  0
  -25.9370  -11.6563   20.5721 N   0  0  0  0  0  0
  -22.0487  -12.8204   22.0410 N   0  0  0  0  0  0
  -25.4176  -15.1931   20.4123 N   0  0  0  0  0  0
  -31.7759  -14.9207   20.0896 O   0  0  0  0  0  0
  -21.6651   -6.8879   21.4242 O   0  0  0  0  0  0
  -22.3560  -14.5506   20.6725 O   0  0  0  0  0  0
  -24.6429  -31.8473   23.1918 C   0  0  0  0  0  0
  -25.9191  -32.4713   23.8329 C   0  0  1  0  0  0
  -27.2166  -27.1723   20.1400 C   0  0  0  0  0  0
  -25.5941  -33.8526   24.2240 N   0  0  0  0  0  0
  -23.4463  -30.4671   21.5387 C   0  0  2  0  0  0
  -24.8927  -28.8965   20.1166 C   0  0  0  0  0  0
  -22.7567  -29.4561   22.4887 C   0  0  0  0  0  0
  -18.0293  -28.1362   22.8498 C   0  0  0  0  0  0
  -24.1492  -36.7267   23.2647 C   0  0  0  0  0  0
  -26.0007  -30.7315   21.3877 C   0  0  0  0  0  0
  -26.0704  -29.3455   20.7272 C   0  0  0  0  0  0
  -27.2384  -28.5007   20.7170 C   0  0  0  0  0  0
  -26.0154  -26.8177   19.4903 C   0  0  0  0  0  0
  -24.8745  -27.6452   19.4843 C   0  0  0  0  0  0
  -23.6712  -29.7968   20.1589 C   0  0  0  0  0  0
  -25.4109  -36.3046   24.0343 C   0  0  1  0  0  0
  -20.5918  -28.3697   23.1250 C   0  0  2  0  0  0
  -20.6770  -26.9402   22.5412 C   0  0  0  0  0  0
  -19.5738  -26.6359   21.5223 C   0  0  0  0  0  0
  -18.1921  -26.7902   22.1632 C   0  0  0  0  0  0
  -19.1558  -28.8842   23.2865 C   0  0  0  0  0  0
  -18.9471  -30.1434   23.8893 C   0  0  0  0  0  0
  -17.6468  -30.6568   24.0553 C   0  0  0  0  0  0
  -25.9064  -34.9413   23.5095 C   0  0  0  0  0  0
  -16.5357  -29.9063   23.6327 C   0  0  0  0  0  0
  -16.7276  -28.6470   23.0372 C   0  0  0  0  0  0
  -26.4510  -31.6586   25.0779 C   0  0  0  0  0  0
  -25.3688  -31.3776   26.1483 C   0  0  0  0  0  0
  -27.0392  -30.2991   24.6358 C   0  0  0  0  0  0
  -27.6059  -32.4338   25.7533 C   0  0  0  0  0  0
  -27.5576  -37.1776   24.8438 C   0  0  0  0  0  0
  -21.4253  -29.3038   22.3634 N   0  0  0  0  0  0
  -26.4257  -37.3769   23.9431 N   0  0  0  0  0  0
  -24.7162  -31.0356   22.0941 N   0  0  0  0  0  0
  -23.4217  -28.8106   23.3032 O   0  0  0  0  0  0
  -28.2898  -26.2254   20.1600 O   0  0  0  0  0  0
  -26.5655  -34.8894   22.4680 O   0  0  0  0  0  0
  -23.5551  -32.1332   23.7148 O   0  0  0  0  0  0
  -30.2690  -21.3076   20.9208 C   0  0  0  0  0  0
  -28.5601  -19.6731   19.6301 C   0  0  0  0  0  0
  -30.5349  -19.8883   20.9008 C   0  0  0  0  0  0
  -29.6686  -18.9647   20.2226 C   0  0  0  0  0  0
  -29.1761  -21.9371   20.2460 C   0  0  0  0  0  0
  -31.2121  -20.0907   23.9196 C   0  0  0  0  0  0
  -31.8678  -19.4422   21.5010 C   0  0  0  0  0  0
  -30.0734  -17.4176   19.8172 C   0  0  0  0  0  0
  -28.0602  -24.7081   20.3868 C   0  0  0  0  0  0
  -29.1748  -23.5641   19.9455 C   0  0  1  0  0  0
  -31.8103  -19.0159   22.9874 C   0  0  1  0  0  0
  -28.3388  -21.0501   19.6168 N   0  0  0  0  0  0
  -29.8247  -16.0446   20.5224 N   0  0  0  0  0  0
  -33.1497  -18.6135   23.4632 N   0  3  0  0  0  0
  -30.3796  -24.1351   20.4360 O   0  0  0  0  0  0
  -31.4774  -12.6358   19.1963 H   0  0  0  0  0  0
  -30.3874  -11.5550   20.0154 H   0  0  0  0  0  0
  -29.8244  -11.7177   17.5652 H   0  0  0  0  0  0
  -29.6580  -13.4461   17.7060 H   0  0  0  0  0  0
  -27.9156  -11.2844   18.9295 H   0  0  0  0  0  0
  -27.3954  -12.5006   17.7998 H   0  0  0  0  0  0
  -27.6147  -14.2580   19.4471 H   0  0  0  0  0  0
  -28.7443  -12.2479   21.4549 H   0  0  0  0  0  0
  -28.3957  -13.9321   21.7731 H   0  0  0  0  0  0
  -25.2746   -9.5701   22.4756 H   0  0  0  0  0  0
  -24.0033   -7.4641   22.7469 H   0  0  0  0  0  0
  -21.0852   -8.8805   19.8956 H   0  0  0  0  0  0
  -22.3675  -10.9721   19.6158 H   0  0  0  0  0  0
  -21.1976   -7.6131   23.9713 H   0  0  0  0  0  0
  -21.1494   -6.0492   25.9089 H   0  0  0  0  0  0
  -22.0582   -2.7600   23.2829 H   0  0  0  0  0  0
  -22.4054  -11.9875   22.4828 H   0  0  0  0  0  0
  -21.1134  -13.1307   22.2593 H   0  0  0  0  0  0
  -24.6472  -15.8414   20.5381 H   0  0  0  0  0  0
  -26.2578  -15.6424   20.0738 H   0  0  0  0  0  0
  -26.7277  -32.5339   23.1085 H   0  0  0  0  0  0
  -25.0029  -33.9659   25.0340 H   0  0  0  0  0  0
  -22.7480  -31.2922   21.3826 H   0  0  0  0  0  0
  -23.3775  -35.9571   23.3231 H   0  0  0  0  0  0
  -24.3606  -36.8971   22.2076 H   0  0  0  0  0  0
  -23.7197  -37.6427   23.6725 H   0  0  0  0  0  0
  -26.1544  -31.4911   20.6208 H   0  0  0  0  0  0
  -26.8705  -30.7807   22.0296 H   0  0  0  0  0  0
  -28.1454  -28.8425   21.1987 H   0  0  0  0  0  0
  -25.9370  -25.8753   18.9741 H   0  0  0  0  0  0
  -23.9787  -27.3008   18.9864 H   0  0  0  0  0  0
  -23.8121  -30.5705   19.4027 H   0  0  0  0  0  0
  -22.7866  -29.2385   19.8469 H   0  0  0  0  0  0
  -25.1285  -36.1884   25.0837 H   0  0  0  0  0  0
  -21.0000  -28.3260   24.1372 H   0  0  0  0  0  0
  -20.5640  -26.2312   23.3629 H   0  0  0  0  0  0
  -21.6633  -26.7375   22.1222 H   0  0  0  0  0  0
  -19.6896  -25.6270   21.1240 H   0  0  0  0  0  0
  -19.6655  -27.3174   20.6760 H   0  0  0  0  0  0
  -17.4199  -26.6680   21.4020 H   0  0  0  0  0  0
  -18.0278  -26.0020   22.8995 H   0  0  0  0  0  0
  -19.7949  -30.7245   24.2264 H   0  0  0  0  0  0
  -17.5022  -31.6248   24.5146 H   0  0  0  0  0  0
  -15.5356  -30.2972   23.7622 H   0  0  0  0  0  0
  -15.8673  -28.0766   22.7116 H   0  0  0  0  0  0
  -24.5809  -30.7207   25.7782 H   0  0  0  0  0  0
  -24.8955  -32.2972   26.4953 H   0  0  0  0  0  0
  -25.7966  -30.8880   27.0242 H   0  0  0  0  0  0
  -26.3042  -29.6703   24.1333 H   0  0  0  0  0  0
  -27.3967  -29.7319   25.4960 H   0  0  0  0  0  0
  -27.8952  -30.4254   23.9725 H   0  0  0  0  0  0
  -27.2671  -33.3618   26.2156 H   0  0  0  0  0  0
  -28.3837  -32.6946   25.0337 H   0  0  0  0  0  0
  -28.0779  -31.8448   26.5408 H   0  0  0  0  0  0
  -28.2535  -38.0136   24.7588 H   0  0  0  0  0  0
  -28.1139  -36.2681   24.6119 H   0  0  0  0  0  0
  -27.2326  -37.1225   25.8844 H   0  0  0  0  0  0
  -20.9452  -29.8805   21.6862 H   0  0  0  0  0  0
  -26.0129  -38.2828   24.1499 H   0  0  0  0  0  0
  -31.0118  -21.9391   21.3889 H   0  0  0  0  0  0
  -27.8503  -19.1078   19.0400 H   0  0  0  0  0  0
  -30.1572  -20.2607   23.7045 H   0  0  0  0  0  0
  -31.7288  -21.0481   23.8155 H   0  0  0  0  0  0
  -31.2786  -19.7919   24.9649 H   0  0  0  0  0  0
  -32.5721  -20.2682   21.3944 H   0  0  0  0  0  0
  -32.2998  -18.6452   20.8980 H   0  0  0  0  0  0
  -31.1237  -17.4352   19.5286 H   0  0  0  0  0  0
  -29.5797  -17.2763   18.8560 H   0  0  0  0  0  0
  -27.8735  -24.5858   21.4523 H   0  0  0  0  0  0
  -27.1273  -24.4051   19.9191 H   0  0  0  0  0  0
  -29.2326  -23.6239   18.8584 H   0  0  0  0  0  0
  -31.1701  -18.1334   23.0456 H   0  0  0  0  0  0
  -28.8800  -15.8922   20.8375 H   0  0  0  0  0  0
  -33.8041  -19.3739   23.4224 H   0  0  0  0  0  0
  -33.5081  -17.8562   22.9063 H   0  0  0  0  0  0
  -33.1015  -18.2999   24.4161 H   0  0  0  0  0  0
  -30.3479  -24.0491   21.3810 H   0  0  0  0  0  0
  1 25  1  0  0  0
  1 30  2  0  0  0
  1 83  1  0  0  0
  2  3  1  0  0  0
  2 25  1  0  0  0
  2 86  1  0  0  0
  2 87  1  0  0  0
  3  4  1  0  0  0
  3 88  1  0  0  0
  3 89  1  0  0  0
  4  5  1  0  0  0
  4 90  1  0  0  0
  4 91  1  0  0  0
  5  6  1  0  0  0
  5 26  1  0  0  0
  5 92  1  0  0  0
  6 25  1  0  0  0
  6 93  1  0  0  0
  6 94  1  0  0  0
  7  8  2  0  0  0
  7 26  1  0  0  0
  7 29  1  0  0  0
  8  9  1  0  0  0
  8 22  1  0  0  0
  9 10  1  0  0  0
  9 27  2  0  0  0
 10 11  2  0  0  0
 10 15  1  0  0  0
 11 12  1  0  0  0
 11 95  1  0  0  0
 12 13  2  0  0  0
 12 96  1  0  0  0
 13 14  1  0  0  0
 13 31  1  0  0  0
 14 15  2  0  0  0
 14 97  1  0  0  0
 15 98  1  0  0  0
 16 17  2  0  0  0
 16 21  1  0  0  0
 16 31  1  0  0  0
 17 18  1  0  0  0
 17 99  1  0  0  0
 18 19  2  0  0  0
 18100  1  0  0  0
 19 20  1  0  0  0
 19 24  1  0  0  0
 20 21  2  0  0  0
 20101  1  0  0  0
 21 23  1  0  0  0
 22 28  1  0  0  0
 22 32  2  0  0  0
 26 27  1  0  0  0
 28102  1  0  0  0
 28103  1  0  0  0
 29104  1  0  0  0
 29105  1  0  0  0
 33 34  1  0  0  0
 33 66  1  0  0  0
 33 70  2  0  0  0
 34 36  1  0  0  0
 34 59  1  0  0  0
 34106  1  0  0  0
 35 44  2  0  0  0
 35 45  1  0  0  0
 35 68  1  0  0  0
 36 56  1  0  0  0
 36107  1  0  0  0
 37 39  1  0  0  0
 37 47  1  0  0  0
 37 66  1  0  0  0
 37108  1  0  0  0
 38 43  2  0  0  0
 38 46  1  0  0  0
 38 47  1  0  0  0
 39 64  1  0  0  0
 39 67  2  0  0  0
 40 52  1  0  0  0
 40 53  2  0  0  0
 40 58  1  0  0  0
 41109  1  0  0  0
 41110  1  0  0  0
 41111  1  0  0  0
 41 48  1  0  0  0
 42 43  1  0  0  0
 42 66  1  0  0  0
 42112  1  0  0  0
 42113  1  0  0  0
 43 44  1  0  0  0
 44114  1  0  0  0
 45 46  2  0  0  0
 45115  1  0  0  0
 46116  1  0  0  0
 47117  1  0  0  0
 47118  1  0  0  0
 48 56  1  0  0  0
 48 65  1  0  0  0
 48119  1  0  0  0
 49 50  1  0  0  0
 49 53  1  0  0  0
 49 64  1  0  0  0
 49120  1  0  0  0
 50 51  1  0  0  0
 50121  1  0  0  0
 50122  1  0  0  0
 51 52  1  0  0  0
 51123  1  0  0  0
 51124  1  0  0  0
 52125  1  0  0  0
 52126  1  0  0  0
 53 54  1  0  0  0
 54 55  2  0  0  0
 54127  1  0  0  0
 55 57  1  0  0  0
 55128  1  0  0  0
 56 69  2  0  0  0
 57 58  2  0  0  0
 57129  1  0  0  0
 58130  1  0  0  0
 59 60  1  0  0  0
 59 61  1  0  0  0
 59 62  1  0  0  0
 60131  1  0  0  0
 60132  1  0  0  0
 60133  1  0  0  0
 61134  1  0  0  0
 61135  1  0  0  0
 61136  1  0  0  0
 62137  1  0  0  0
 62138  1  0  0  0
 62139  1  0  0  0
 63 65  1  0  0  0
 63140  1  0  0  0
 63141  1  0  0  0
 63142  1  0  0  0
 64143  1  0  0  0
 65144  1  0  0  0
 68 79  1  0  0  0
 71 73  2  0  0  0
 71 75  1  0  0  0
 71145  1  0  0  0
 72 74  2  0  0  0
 72 82  1  0  0  0
 72146  1  0  0  0
 73 74  1  0  0  0
 73 77  1  0  0  0
 74 78  1  0  0  0
 75 80  1  0  0  0
 75 82  2  0  0  0
 76147  1  0  0  0
 76148  1  0  0  0
 76149  1  0  0  0
 76 81  1  0  0  0
 77 81  1  0  0  0
 77150  1  0  0  0
 77151  1  0  0  0
 78 83  1  0  0  0
 78152  1  0  0  0
 78153  1  0  0  0
 79 80  1  0  0  0
 79154  1  0  0  0
 79155  1  0  0  0
 80 85  1  0  0  0
 80156  1  0  0  0
 81 84  1  0  0  0
 81157  1  0  0  0
 83158  1  0  0  0
 84159  1  0  0  0
 84160  1  0  0  0
 84161  1  0  0  0
 85162  1  0  0  0
M  CHG  1  84   1
M  ISO  4   1 100  68 101  79 101  83 100
M  END
> <chiral flag>
0

> <version>
0

> <s_m_source_file>
/data/baiqing/PycharmProjects/Reinvent-master-3.2/result/LINK_invent/BTK/process_docking_weight1_custom_sum_contain_oxygen_bond_distance_aromatic_linkinvent_7_9_3/rearranged_h_0111.sdf

> <i_m_source_file_index>
14

> <r_mmod_Potential_Energy-OPLS-2005>
72.7230529785156

> <r_mmod_Stretch_Energy-OPLS-2005>
206.526947021484

> <r_mmod_Bend_Energy-OPLS-2005>
250.915588378906

> <r_mmod_Torsional_Energy-OPLS-2005>
255.484558105469

> <r_mmod_Improper_Torsional_Energy-OPLS-2005>
12.728476524353

> <r_mmod_Van_der_Waal_Energy-OPLS-2005>
136.683471679688

> <r_mmod_Electrostatic_Energy-OPLS-2005>
-391.814849853516

> <r_mmod_Solvation_Energy-OPLS-2005>
-540.726806640625

> <b_mmod_Minimization_Converged-OPLS-2005>
0

> <r_mmod_RMS_Derivative-OPLS-2005>
4.46635341644287

$$$$
14
                    3D
 Structure written by MMmdl.
167176  0  0  1  0            999 V2000
  -30.6458  -14.7281   20.3957 C   0  0  0  0  0  0
  -30.4283  -12.4326   19.4571 C   0  0  0  0  0  0
  -29.4990  -12.4425   18.2247 C   0  0  0  0  0  0
  -28.0219  -12.3031   18.6496 C   0  0  0  0  0  0
  -27.6297  -13.2153   19.8443 C   0  0  2  0  0  0
  -28.6912  -13.1961   20.9644 C   0  0  0  0  0  0
  -25.2498  -13.8149   20.5759 C   0  0  0  0  0  0
  -24.1771  -13.0421   20.9244 C   0  0  0  0  0  0
  -24.6341  -11.6893   20.8794 C   0  0  0  0  0  0
  -23.9021  -10.4283   21.0432 C   0  0  0  0  0  0
  -24.3591   -9.4199   21.9196 C   0  0  0  0  0  0
  -23.6285   -8.2224   22.0752 C   0  0  0  0  0  0
  -22.4268   -8.0262   21.3536 C   0  0  0  0  0  0
  -21.9893   -9.0234   20.4644 C   0  0  0  0  0  0
  -22.7204  -10.2122   20.3067 C   0  0  0  0  0  0
  -21.6848   -6.0728   22.5271 C   0  0  0  0  0  0
  -21.4004   -6.5637   23.8202 C   0  0  0  0  0  0
  -21.3665   -5.6792   24.9167 C   0  0  0  0  0  0
  -21.6047   -4.3054   24.7220 C   0  0  0  0  0  0
  -21.8823   -3.8143   23.4344 C   0  0  0  0  0  0
  -21.9191   -4.6957   22.3398 C   0  0  0  0  0  0
  -22.7804  -13.5227   21.1885 C   0  0  0  0  0  0
  -22.1665   -4.2144   21.0977 F   0  0  0  0  0  0
  -21.5641   -3.4540   25.7735 F   0  0  0  0  0  0
  -29.9827  -13.5234   20.3467 N   0  0  0  0  0  0
  -26.2890  -12.9302   20.3357 N   0  0  0  0  0  0
  -25.9264  -11.6468   20.5825 N   0  0  0  0  0  0
  -22.0442  -12.8220   22.0434 N   0  0  0  0  0  0
  -25.4235  -15.1871   20.4186 N   0  0  0  0  0  0
  -31.8704  -14.7620   20.2624 O   0  0  0  0  0  0
  -21.6636   -6.8859   21.4229 O   0  0  0  0  0  0
  -22.3502  -14.5532   20.6718 O   0  0  0  0  0  0
  -24.6290  -31.8584   23.2009 C   0  0  0  0  0  0
  -25.9130  -32.4772   23.8348 C   0  0  1  0  0  0
  -27.2216  -27.2967   20.1312 C   0  0  0  0  0  0
  -25.5940  -33.8572   24.2275 N   0  0  0  0  0  0
  -23.4250  -30.4808   21.5436 C   0  0  2  0  0  0
  -24.8755  -28.9354   20.1083 C   0  0  0  0  0  0
  -22.7500  -29.4612   22.4924 C   0  0  0  0  0  0
  -18.0294  -28.1388   22.8491 C   0  0  0  0  0  0
  -24.1488  -36.7283   23.2635 C   0  0  0  0  0  0
  -25.9688  -30.7828   21.3769 C   0  0  0  0  0  0
  -26.0454  -29.4083   20.7192 C   0  0  0  0  0  0
  -27.2258  -28.6013   20.7207 C   0  0  0  0  0  0
  -26.0372  -26.8894   19.4811 C   0  0  0  0  0  0
  -24.8747  -27.6825   19.4765 C   0  0  0  0  0  0
  -23.6426  -29.8161   20.1587 C   0  0  0  0  0  0
  -25.4110  -36.3077   24.0335 C   0  0  1  0  0  0
  -20.5898  -28.3694   23.1284 C   0  0  2  0  0  0
  -20.6782  -26.9415   22.5414 C   0  0  0  0  0  0
  -19.5755  -26.6385   21.5221 C   0  0  0  0  0  0
  -18.1935  -26.7934   22.1629 C   0  0  0  0  0  0
  -19.1546  -28.8859   23.2882 C   0  0  0  0  0  0
  -18.9465  -30.1461   23.8894 C   0  0  0  0  0  0
  -17.6461  -30.6589   24.0562 C   0  0  0  0  0  0
  -25.9056  -34.9449   23.5103 C   0  0  0  0  0  0
  -16.5354  -29.9082   23.6331 C   0  0  0  0  0  0
  -16.7280  -28.6502   23.0354 C   0  0  0  0  0  0
  -26.4507  -31.6585   25.0725 C   0  0  0  0  0  0
  -25.3730  -31.3727   26.1446 C   0  0  0  0  0  0
  -27.0346  -30.3001   24.6197 C   0  0  0  0  0  0
  -27.6069  -32.4316   25.7490 C   0  0  0  0  0  0
  -27.5591  -37.1777   24.8453 C   0  0  0  0  0  0
  -21.4210  -29.3039   22.3672 N   0  0  0  0  0  0
  -26.4278  -37.3785   23.9437 N   0  0  0  0  0  0
  -24.6930  -31.0576   22.0971 N   0  0  0  0  0  0
  -23.4214  -28.8158   23.3018 O   0  0  0  0  0  0
  -28.2856  -26.3773   20.1823 O   0  0  0  0  0  0
  -26.5617  -34.8924   22.4664 O   0  0  0  0  0  0
  -23.5445  -32.1389   23.7322 O   0  0  0  0  0  0
  -30.0020  -23.4736   20.4323 C   0  0  0  0  0  0
  -30.5477  -22.1504   20.3999 C   0  0  0  0  0  0
  -27.8199  -22.5080   20.6943 C   0  0  0  0  0  0
  -28.1742  -18.7254   20.8853 C   0  0  0  0  0  0
  -28.3680  -21.1762   20.6755 C   0  0  0  0  0  0
  -28.6131  -23.6965   20.5988 C   0  0  0  0  0  0
  -27.5647  -20.0089   20.8259 C   0  0  0  0  0  0
  -29.7670  -20.9700   20.5452 C   0  0  0  0  0  0
  -29.5731  -18.5826   20.7737 C   0  0  0  0  0  0
  -26.0539  -20.1070   20.9544 C   0  0  0  0  0  0
  -27.9637  -25.1153   20.9064 C   0  0  0  0  0  0
  -30.2966  -17.1843   21.0010 C   0  0  0  0  0  0
  -30.3576  -16.9046   17.9365 C   0  0  0  0  0  0
  -29.3712  -16.2127   18.9160 C   0  0  0  0  0  0
  -31.1696  -15.9384   17.0462 C   0  0  0  0  0  0
  -30.3337  -19.7102   20.5887 N   0  0  0  0  0  0
  -29.9211  -15.9093   20.2585 N   0  0  0  0  0  0
  -32.0596  -16.6495   16.1120 N   0  3  0  0  0  0
  -31.4678  -12.5505   19.1452 H   0  0  0  0  0  0
  -30.3754  -11.4736   19.9749 H   0  0  0  0  0  0
  -29.7648  -11.6240   17.5540 H   0  0  0  0  0  0
  -29.6411  -13.3530   17.6460 H   0  0  0  0  0  0
  -27.8671  -11.2596   18.9254 H   0  0  0  0  0  0
  -27.3631  -12.4892   17.8005 H   0  0  0  0  0  0
  -27.5797  -14.2241   19.4531 H   0  0  0  0  0  0
  -28.7313  -12.2193   21.4479 H   0  0  0  0  0  0
  -28.4399  -13.9214   21.7409 H   0  0  0  0  0  0
  -25.2733   -9.5692   22.4771 H   0  0  0  0  0  0
  -24.0005   -7.4617   22.7467 H   0  0  0  0  0  0
  -21.0827   -8.8744   19.8948 H   0  0  0  0  0  0
  -22.3655  -10.9665   19.6187 H   0  0  0  0  0  0
  -21.1978   -7.6143   23.9702 H   0  0  0  0  0  0
  -21.1497   -6.0523   25.9070 H   0  0  0  0  0  0
  -22.0599   -2.7604   23.2839 H   0  0  0  0  0  0
  -22.4058  -11.9884   22.4818 H   0  0  0  0  0  0
  -21.1052  -13.1231   22.2632 H   0  0  0  0  0  0
  -24.6609  -15.8453   20.5321 H   0  0  0  0  0  0
  -26.2826  -15.6230   20.1105 H   0  0  0  0  0  0
  -26.7202  -32.5441   23.1100 H   0  0  0  0  0  0
  -25.0088  -33.9711   25.0421 H   0  0  0  0  0  0
  -22.7196  -31.3018   21.3994 H   0  0  0  0  0  0
  -23.3774  -35.9587   23.3248 H   0  0  0  0  0  0
  -24.3596  -36.8950   22.2060 H   0  0  0  0  0  0
  -23.7201  -37.6457   23.6683 H   0  0  0  0  0  0
  -26.1044  -31.5457   20.6089 H   0  0  0  0  0  0
  -26.8471  -30.8314   22.0086 H   0  0  0  0  0  0
  -28.1198  -28.9546   21.2154 H   0  0  0  0  0  0
  -25.9999  -25.9232   18.9973 H   0  0  0  0  0  0
  -23.9812  -27.3162   18.9891 H   0  0  0  0  0  0
  -23.7616  -30.5933   19.4033 H   0  0  0  0  0  0
  -22.7632  -29.2458   19.8550 H   0  0  0  0  0  0
  -25.1280  -36.1914   25.0824 H   0  0  0  0  0  0
  -20.9991  -28.3264   24.1406 H   0  0  0  0  0  0
  -20.5692  -26.2301   23.3615 H   0  0  0  0  0  0
  -21.6647  -26.7450   22.1196 H   0  0  0  0  0  0
  -19.6912  -25.6296   21.1250 H   0  0  0  0  0  0
  -19.6692  -27.3195   20.6752 H   0  0  0  0  0  0
  -17.4210  -26.6695   21.4024 H   0  0  0  0  0  0
  -18.0324  -26.0075   22.9020 H   0  0  0  0  0  0
  -19.7938  -30.7280   24.2263 H   0  0  0  0  0  0
  -17.5014  -31.6268   24.5159 H   0  0  0  0  0  0
  -15.5352  -30.2977   23.7663 H   0  0  0  0  0  0
  -15.8684  -28.0817   22.7068 H   0  0  0  0  0  0
  -24.5909  -30.7077   25.7768 H   0  0  0  0  0  0
  -24.8918  -32.2893   26.4866 H   0  0  0  0  0  0
  -25.8044  -30.8903   27.0225 H   0  0  0  0  0  0
  -26.2922  -29.6748   24.1225 H   0  0  0  0  0  0
  -27.4036  -29.7264   25.4709 H   0  0  0  0  0  0
  -27.8798  -30.4275   23.9429 H   0  0  0  0  0  0
  -27.2692  -33.3621   26.2061 H   0  0  0  0  0  0
  -28.3878  -32.6864   25.0314 H   0  0  0  0  0  0
  -28.0742  -31.8446   26.5406 H   0  0  0  0  0  0
  -28.2546  -38.0139   24.7603 H   0  0  0  0  0  0
  -28.1150  -36.2679   24.6135 H   0  0  0  0  0  0
  -27.2335  -37.1248   25.8857 H   0  0  0  0  0  0
  -20.9397  -29.8748   21.6864 H   0  0  0  0  0  0
  -26.0153  -38.2845   24.1498 H   0  0  0  0  0  0
  -30.6698  -24.3234   20.3803 H   0  0  0  0  0  0
  -31.6173  -22.0366   20.2994 H   0  0  0  0  0  0
  -26.7580  -22.6311   20.8490 H   0  0  0  0  0  0
  -27.5675  -17.8431   21.0498 H   0  0  0  0  0  0
  -25.5900  -19.1217   21.0020 H   0  0  0  0  0  0
  -25.6308  -20.6298   20.0964 H   0  0  0  0  0  0
  -25.7783  -20.6476   21.8600 H   0  0  0  0  0  0
  -28.2136  -25.3194   21.9485 H   0  0  0  0  0  0
  -26.8861  -24.9527   20.9275 H   0  0  0  0  0  0
  -30.1944  -16.9632   22.0642 H   0  0  0  0  0  0
  -31.3661  -17.3457   20.8555 H   0  0  0  0  0  0
  -31.0305  -17.5799   18.4643 H   0  0  0  0  0  0
  -29.7678  -17.5455   17.2798 H   0  0  0  0  0  0
  -29.0052  -15.3202   18.4198 H   0  0  0  0  0  0
  -28.4801  -16.8280   19.0306 H   0  0  0  0  0  0
  -30.4935  -15.3106   16.4639 H   0  0  0  0  0  0
  -31.7748  -15.2683   17.6557 H   0  0  0  0  0  0
  -31.5359  -17.2334   15.4840 H   0  0  0  0  0  0
  -32.5731  -15.9862   15.5585 H   0  0  0  0  0  0
  -32.7240  -17.2182   16.6063 H   0  0  0  0  0  0
  1 25  1  0  0  0
  1 30  2  0  0  0
  1 87  1  0  0  0
  2  3  1  0  0  0
  2 25  1  0  0  0
  2 89  1  0  0  0
  2 90  1  0  0  0
  3  4  1  0  0  0
  3 91  1  0  0  0
  3 92  1  0  0  0
  4  5  1  0  0  0
  4 93  1  0  0  0
  4 94  1  0  0  0
  5  6  1  0  0  0
  5 26  1  0  0  0
  5 95  1  0  0  0
  6 25  1  0  0  0
  6 96  1  0  0  0
  6 97  1  0  0  0
  7  8  2  0  0  0
  7 26  1  0  0  0
  7 29  1  0  0  0
  8  9  1  0  0  0
  8 22  1  0  0  0
  9 10  1  0  0  0
  9 27  2  0  0  0
 10 11  2  0  0  0
 10 15  1  0  0  0
 11 12  1  0  0  0
 11 98  1  0  0  0
 12 13  2  0  0  0
 12 99  1  0  0  0
 13 14  1  0  0  0
 13 31  1  0  0  0
 14 15  2  0  0  0
 14100  1  0  0  0
 15101  1  0  0  0
 16 17  2  0  0  0
 16 21  1  0  0  0
 16 31  1  0  0  0
 17 18  1  0  0  0
 17102  1  0  0  0
 18 19  2  0  0  0
 18103  1  0  0  0
 19 20  1  0  0  0
 19 24  1  0  0  0
 20 21  2  0  0  0
 20104  1  0  0  0
 21 23  1  0  0  0
 22 28  1  0  0  0
 22 32  2  0  0  0
 26 27  1  0  0  0
 28105  1  0  0  0
 28106  1  0  0  0
 29107  1  0  0  0
 29108  1  0  0  0
 33 34  1  0  0  0
 33 66  1  0  0  0
 33 70  2  0  0  0
 34 36  1  0  0  0
 34 59  1  0  0  0
 34109  1  0  0  0
 35 44  2  0  0  0
 35 45  1  0  0  0
 35 68  1  0  0  0
 36 56  1  0  0  0
 36110  1  0  0  0
 37 39  1  0  0  0
 37 47  1  0  0  0
 37 66  1  0  0  0
 37111  1  0  0  0
 38 43  2  0  0  0
 38 46  1  0  0  0
 38 47  1  0  0  0
 39 64  1  0  0  0
 39 67  2  0  0  0
 40 52  1  0  0  0
 40 53  2  0  0  0
 40 58  1  0  0  0
 41112  1  0  0  0
 41113  1  0  0  0
 41114  1  0  0  0
 41 48  1  0  0  0
 42 43  1  0  0  0
 42 66  1  0  0  0
 42115  1  0  0  0
 42116  1  0  0  0
 43 44  1  0  0  0
 44117  1  0  0  0
 45 46  2  0  0  0
 45118  1  0  0  0
 46119  1  0  0  0
 47120  1  0  0  0
 47121  1  0  0  0
 48 56  1  0  0  0
 48 65  1  0  0  0
 48122  1  0  0  0
 49 50  1  0  0  0
 49 53  1  0  0  0
 49 64  1  0  0  0
 49123  1  0  0  0
 50 51  1  0  0  0
 50124  1  0  0  0
 50125  1  0  0  0
 51 52  1  0  0  0
 51126  1  0  0  0
 51127  1  0  0  0
 52128  1  0  0  0
 52129  1  0  0  0
 53 54  1  0  0  0
 54 55  2  0  0  0
 54130  1  0  0  0
 55 57  1  0  0  0
 55131  1  0  0  0
 56 69  2  0  0  0
 57 58  2  0  0  0
 57132  1  0  0  0
 58133  1  0  0  0
 59 60  1  0  0  0
 59 61  1  0  0  0
 59 62  1  0  0  0
 60134  1  0  0  0
 60135  1  0  0  0
 60136  1  0  0  0
 61137  1  0  0  0
 61138  1  0  0  0
 61139  1  0  0  0
 62140  1  0  0  0
 62141  1  0  0  0
 62142  1  0  0  0
 63 65  1  0  0  0
 63143  1  0  0  0
 63144  1  0  0  0
 63145  1  0  0  0
 64146  1  0  0  0
 65147  1  0  0  0
 68 81  1  0  0  0
 71 72  2  0  0  0
 71 76  1  0  0  0
 71148  1  0  0  0
 72 78  1  0  0  0
 72149  1  0  0  0
 73 75  1  0  0  0
 73 76  2  0  0  0
 73150  1  0  0  0
 74 77  2  0  0  0
 74 79  1  0  0  0
 74151  1  0  0  0
 75 77  1  0  0  0
 75 78  2  0  0  0
 76 81  1  0  0  0
 77 80  1  0  0  0
 78 86  1  0  0  0
 79 82  1  0  0  0
 79 86  2  0  0  0
 80152  1  0  0  0
 80153  1  0  0  0
 80154  1  0  0  0
 81155  1  0  0  0
 81156  1  0  0  0
 82 87  1  0  0  0
 82157  1  0  0  0
 82158  1  0  0  0
 83 84  1  0  0  0
 83 85  1  0  0  0
 83159  1  0  0  0
 83160  1  0  0  0
 84 87  1  0  0  0
 84161  1  0  0  0
 84162  1  0  0  0
 85 88  1  0  0  0
 85163  1  0  0  0
 85164  1  0  0  0
 88165  1  0  0  0
 88166  1  0  0  0
 88167  1  0  0  0
M  CHG  1  88   1
M  ISO  4   1 100  68 101  81 101  87 100
M  END
> <chiral flag>
0

> <version>
0

> <s_m_source_file>
/data/baiqing/PycharmProjects/Reinvent-master-3.2/result/LINK_invent/BTK/process_docking_weight1_custom_sum_contain_oxygen_bond_distance_aromatic_linkinvent_7_9_3/rearranged_h_0111.sdf

> <i_m_source_file_index>
15

> <r_mmod_Potential_Energy-OPLS-2005>
-41.3226318359375

> <r_mmod_Stretch_Energy-OPLS-2005>
100.045104980469

> <r_mmod_Bend_Energy-OPLS-2005>
155.412994384766

> <r_mmod_Torsional_Energy-OPLS-2005>
340.732849121094

> <r_mmod_Improper_Torsional_Energy-OPLS-2005>
12.6101884841919

> <r_mmod_Van_der_Waal_Energy-OPLS-2005>
154.104431152344

> <r_mmod_Electrostatic_Energy-OPLS-2005>
-409.758697509766

> <r_mmod_Solvation_Energy-OPLS-2005>
-481.230621337891

> <b_mmod_Minimization_Converged-OPLS-2005>
0

> <r_mmod_RMS_Derivative-OPLS-2005>
0.967299282550812

$$$$
15
                    3D
 Structure written by MMmdl.
170178  0  0  1  0            999 V2000
  -30.6082  -14.7450   20.4403 C   0  0  0  0  0  0
  -30.4407  -12.4445   19.4857 C   0  0  0  0  0  0
  -29.5180  -12.4903   18.2467 C   0  0  0  0  0  0
  -28.0423  -12.3276   18.6563 C   0  0  0  0  0  0
  -27.6469  -13.2320   19.8548 C   0  0  2  0  0  0
  -28.6913  -13.1652   20.9937 C   0  0  0  0  0  0
  -25.2540  -13.8209   20.5707 C   0  0  0  0  0  0
  -24.1830  -13.0459   20.9221 C   0  0  0  0  0  0
  -24.6423  -11.6931   20.8769 C   0  0  0  0  0  0
  -23.9105  -10.4293   21.0407 C   0  0  0  0  0  0
  -24.3636   -9.4201   21.9195 C   0  0  0  0  0  0
  -23.6307   -8.2242   22.0760 C   0  0  0  0  0  0
  -22.4291   -8.0279   21.3536 C   0  0  0  0  0  0
  -21.9923   -9.0256   20.4642 C   0  0  0  0  0  0
  -22.7260  -10.2136   20.3064 C   0  0  0  0  0  0
  -21.6861   -6.0739   22.5280 C   0  0  0  0  0  0
  -21.4008   -6.5636   23.8211 C   0  0  0  0  0  0
  -21.3661   -5.6789   24.9171 C   0  0  0  0  0  0
  -21.6049   -4.3056   24.7228 C   0  0  0  0  0  0
  -21.8817   -3.8155   23.4350 C   0  0  0  0  0  0
  -21.9192   -4.6965   22.3402 C   0  0  0  0  0  0
  -22.7841  -13.5223   21.1852 C   0  0  0  0  0  0
  -22.1658   -4.2145   21.0983 F   0  0  0  0  0  0
  -21.5632   -3.4538   25.7746 F   0  0  0  0  0  0
  -29.9965  -13.5096   20.4154 N   0  0  0  0  0  0
  -26.2969  -12.9415   20.3308 N   0  0  0  0  0  0
  -25.9358  -11.6556   20.5781 N   0  0  0  0  0  0
  -22.0481  -12.8217   22.0403 N   0  0  0  0  0  0
  -25.4242  -15.1935   20.4086 N   0  0  0  0  0  0
  -31.7850  -14.8551   20.0933 O   0  0  0  0  0  0
  -21.6639   -6.8881   21.4244 O   0  0  0  0  0  0
  -22.3514  -14.5531   20.6686 O   0  0  0  0  0  0
  -24.6327  -31.8521   23.1967 C   0  0  0  0  0  0
  -25.9141  -32.4748   23.8345 C   0  0  1  0  0  0
  -27.2264  -27.2455   20.1346 C   0  0  0  0  0  0
  -25.5935  -33.8548   24.2271 N   0  0  0  0  0  0
  -23.4335  -30.4713   21.5391 C   0  0  2  0  0  0
  -24.8825  -28.9129   20.1105 C   0  0  0  0  0  0
  -22.7539  -29.4555   22.4897 C   0  0  0  0  0  0
  -18.0291  -28.1375   22.8487 C   0  0  0  0  0  0
  -24.1486  -36.7267   23.2648 C   0  0  0  0  0  0
  -25.9778  -30.7602   21.3795 C   0  0  0  0  0  0
  -26.0521  -29.3793   20.7243 C   0  0  0  0  0  0
  -27.2252  -28.5571   20.7226 C   0  0  0  0  0  0
  -26.0357  -26.8499   19.4852 C   0  0  0  0  0  0
  -24.8810  -27.6586   19.4792 C   0  0  0  0  0  0
  -23.6555  -29.8042   20.1556 C   0  0  0  0  0  0
  -25.4112  -36.3060   24.0335 C   0  0  1  0  0  0
  -20.5904  -28.3671   23.1262 C   0  0  2  0  0  0
  -20.6764  -26.9379   22.5401 C   0  0  0  0  0  0
  -19.5727  -26.6373   21.5209 C   0  0  0  0  0  0
  -18.1912  -26.7921   22.1623 C   0  0  0  0  0  0
  -19.1548  -28.8840   23.2874 C   0  0  0  0  0  0
  -18.9466  -30.1448   23.8888 C   0  0  0  0  0  0
  -17.6458  -30.6572   24.0559 C   0  0  0  0  0  0
  -25.9048  -34.9427   23.5107 C   0  0  0  0  0  0
  -16.5352  -29.9060   23.6344 C   0  0  0  0  0  0
  -16.7277  -28.6487   23.0353 C   0  0  0  0  0  0
  -26.4511  -31.6576   25.0738 C   0  0  0  0  0  0
  -25.3749  -31.3675   26.1469 C   0  0  0  0  0  0
  -27.0392  -30.3016   24.6219 C   0  0  0  0  0  0
  -27.6066  -32.4329   25.7510 C   0  0  0  0  0  0
  -27.5571  -37.1786   24.8473 C   0  0  0  0  0  0
  -21.4229  -29.3024   22.3668 N   0  0  0  0  0  0
  -26.4284  -37.3760   23.9416 N   0  0  0  0  0  0
  -24.7010  -31.0458   22.0959 N   0  0  0  0  0  0
  -23.4239  -28.8102   23.2994 O   0  0  0  0  0  0
  -28.3445  -26.3793   20.1670 O   0  0  0  0  0  0
  -26.5611  -34.8894   22.4666 O   0  0  0  0  0  0
  -23.5459  -32.1373   23.7221 O   0  0  0  0  0  0
  -30.1687  -22.1429   18.1145 C   0  0  0  0  0  0
  -30.4590  -23.0241   17.0652 C   0  0  0  0  0  0
  -29.4244  -22.5435   19.2578 C   0  0  0  0  0  0
  -30.0166  -24.3416   17.1638 C   0  0  0  0  0  0
  -29.0303  -23.9767   19.2721 C   0  0  0  0  0  0
  -30.2667  -25.3477   16.0623 C   0  0  0  0  0  0
  -27.2771  -17.4801   23.7609 C   0  0  0  0  0  0
  -29.3870  -18.8333   23.9521 C   0  0  0  0  0  0
  -29.2109  -21.3611   20.3234 C   0  0  0  0  0  0
  -28.2126  -24.8699   20.2963 C   0  0  0  0  0  0
  -28.2946  -18.4703   21.6530 C   0  0  0  0  0  0
  -29.9608  -17.2649   19.9858 C   0  0  0  0  0  0
  -28.5856  -17.8737   23.0551 C   0  0  0  0  0  0
  -29.5359  -18.6569   20.7395 C   0  0  1  0  0  0
  -29.3435  -24.7875   18.2309 N   0  0  0  0  0  0
  -29.8141  -15.8680   20.6117 N   0  0  0  0  0  0
  -29.3821  -19.8953   19.8228 N   0  3  0  0  0  0
  -31.4820  -12.5672   19.1821 H   0  0  0  0  0  0
  -30.3908  -11.4696   19.9713 H   0  0  0  0  0  0
  -29.7972  -11.7088   17.5370 H   0  0  0  0  0  0
  -29.6503  -13.4399   17.7278 H   0  0  0  0  0  0
  -27.8894  -11.2801   18.9179 H   0  0  0  0  0  0
  -27.3943  -12.5209   17.8008 H   0  0  0  0  0  0
  -27.6408  -14.2524   19.4715 H   0  0  0  0  0  0
  -28.7243  -12.1663   21.4281 H   0  0  0  0  0  0
  -28.4296  -13.8426   21.8095 H   0  0  0  0  0  0
  -25.2780   -9.5672   22.4777 H   0  0  0  0  0  0
  -24.0008   -7.4631   22.7483 H   0  0  0  0  0  0
  -21.0856   -8.8781   19.8946 H   0  0  0  0  0  0
  -22.3729  -10.9671   19.6181 H   0  0  0  0  0  0
  -21.1993   -7.6145   23.9706 H   0  0  0  0  0  0
  -21.1492   -6.0525   25.9068 H   0  0  0  0  0  0
  -22.0602   -2.7619   23.2850 H   0  0  0  0  0  0
  -22.4067  -11.9890   22.4836 H   0  0  0  0  0  0
  -21.1086  -13.1217   22.2564 H   0  0  0  0  0  0
  -24.6612  -15.8487   20.5280 H   0  0  0  0  0  0
  -26.2579  -15.6203   20.0311 H   0  0  0  0  0  0
  -26.7204  -32.5395   23.1085 H   0  0  0  0  0  0
  -25.0110  -33.9701   25.0434 H   0  0  0  0  0  0
  -22.7289  -31.2915   21.3902 H   0  0  0  0  0  0
  -23.3768  -35.9580   23.3295 H   0  0  0  0  0  0
  -24.3591  -36.8916   22.2071 H   0  0  0  0  0  0
  -23.7217  -37.6451   23.6676 H   0  0  0  0  0  0
  -26.1150  -31.5199   20.6085 H   0  0  0  0  0  0
  -26.8534  -30.8102   22.0150 H   0  0  0  0  0  0
  -28.1243  -28.9048   21.2129 H   0  0  0  0  0  0
  -25.9799  -25.9000   18.9728 H   0  0  0  0  0  0
  -23.9873  -27.3050   18.9835 H   0  0  0  0  0  0
  -23.7817  -30.5787   19.3969 H   0  0  0  0  0  0
  -22.7726  -29.2383   19.8533 H   0  0  0  0  0  0
  -25.1286  -36.1933   25.0828 H   0  0  0  0  0  0
  -20.9983  -28.3223   24.1386 H   0  0  0  0  0  0
  -20.5639  -26.2262   23.3596 H   0  0  0  0  0  0
  -21.6624  -26.7364   22.1196 H   0  0  0  0  0  0
  -19.6866  -25.6290   21.1211 H   0  0  0  0  0  0
  -19.6676  -27.3204   20.6754 H   0  0  0  0  0  0
  -17.4179  -26.6678   21.4025 H   0  0  0  0  0  0
  -18.0309  -26.0067   22.9015 H   0  0  0  0  0  0
  -19.7935  -30.7281   24.2243 H   0  0  0  0  0  0
  -17.4996  -31.6253   24.5153 H   0  0  0  0  0  0
  -15.5343  -30.2936   23.7672 H   0  0  0  0  0  0
  -15.8687  -28.0801   22.7048 H   0  0  0  0  0  0
  -24.5929  -30.7040   25.7771 H   0  0  0  0  0  0
  -24.8939  -32.2807   26.4970 H   0  0  0  0  0  0
  -25.8088  -30.8798   27.0212 H   0  0  0  0  0  0
  -26.2983  -29.6739   24.1264 H   0  0  0  0  0  0
  -27.4124  -29.7320   25.4740 H   0  0  0  0  0  0
  -27.8823  -30.4343   23.9444 H   0  0  0  0  0  0
  -27.2689  -33.3636   26.2085 H   0  0  0  0  0  0
  -28.3857  -32.6893   25.0317 H   0  0  0  0  0  0
  -28.0759  -31.8475   26.5430 H   0  0  0  0  0  0
  -28.2567  -38.0101   24.7529 H   0  0  0  0  0  0
  -28.1074  -36.2624   24.6276 H   0  0  0  0  0  0
  -27.2286  -37.1424   25.8876 H   0  0  0  0  0  0
  -20.9407  -29.8807   21.6936 H   0  0  0  0  0  0
  -26.0167  -38.2827   24.1449 H   0  0  0  0  0  0
  -30.5408  -21.1356   18.0013 H   0  0  0  0  0  0
  -31.0116  -22.6840   16.1988 H   0  0  0  0  0  0
  -30.5042  -24.8536   15.1195 H   0  0  0  0  0  0
  -31.0967  -26.0000   16.3350 H   0  0  0  0  0  0
  -29.3836  -25.9648   15.8974 H   0  0  0  0  0  0
  -27.4669  -17.0533   24.7486 H   0  0  0  0  0  0
  -26.7254  -16.7370   23.1852 H   0  0  0  0  0  0
  -26.6213  -18.3406   23.8927 H   0  0  0  0  0  0
  -29.5858  -18.3748   24.9217 H   0  0  0  0  0  0
  -28.8531  -19.7699   24.1223 H   0  0  0  0  0  0
  -30.3577  -19.0780   23.5252 H   0  0  0  0  0  0
  -28.2249  -21.4746   20.7729 H   0  0  0  0  0  0
  -29.9286  -21.5303   21.1287 H   0  0  0  0  0  0
  -28.5169  -24.5896   21.3057 H   0  0  0  0  0  0
  -27.1699  -24.5656   20.2224 H   0  0  0  0  0  0
  -27.7819  -19.4194   21.8054 H   0  0  0  0  0  0
  -27.5718  -17.8476   21.1237 H   0  0  0  0  0  0
  -30.9941  -17.3655   19.6502 H   0  0  0  0  0  0
  -29.3832  -17.2138   19.0631 H   0  0  0  0  0  0
  -29.1762  -16.9637   22.9474 H   0  0  0  0  0  0
  -30.3874  -18.9110   21.3680 H   0  0  0  0  0  0
  -28.8883  -15.6547   20.9498 H   0  0  0  0  0  0
  -30.2198  -19.8951   19.2661 H   0  0  0  0  0  0
  -28.6190  -19.7110   19.1915 H   0  0  0  0  0  0
  1 25  1  0  0  0
  1 30  2  0  0  0
  1 86  1  0  0  0
  2  3  1  0  0  0
  2 25  1  0  0  0
  2 88  1  0  0  0
  2 89  1  0  0  0
  3  4  1  0  0  0
  3 90  1  0  0  0
  3 91  1  0  0  0
  4  5  1  0  0  0
  4 92  1  0  0  0
  4 93  1  0  0  0
  5  6  1  0  0  0
  5 26  1  0  0  0
  5 94  1  0  0  0
  6 25  1  0  0  0
  6 95  1  0  0  0
  6 96  1  0  0  0
  7  8  2  0  0  0
  7 26  1  0  0  0
  7 29  1  0  0  0
  8  9  1  0  0  0
  8 22  1  0  0  0
  9 10  1  0  0  0
  9 27  2  0  0  0
 10 11  2  0  0  0
 10 15  1  0  0  0
 11 12  1  0  0  0
 11 97  1  0  0  0
 12 13  2  0  0  0
 12 98  1  0  0  0
 13 14  1  0  0  0
 13 31  1  0  0  0
 14 15  2  0  0  0
 14 99  1  0  0  0
 15100  1  0  0  0
 16 17  2  0  0  0
 16 21  1  0  0  0
 16 31  1  0  0  0
 17 18  1  0  0  0
 17101  1  0  0  0
 18 19  2  0  0  0
 18102  1  0  0  0
 19 20  1  0  0  0
 19 24  1  0  0  0
 20 21  2  0  0  0
 20103  1  0  0  0
 21 23  1  0  0  0
 22 28  1  0  0  0
 22 32  2  0  0  0
 26 27  1  0  0  0
 28104  1  0  0  0
 28105  1  0  0  0
 29106  1  0  0  0
 29107  1  0  0  0
 33 34  1  0  0  0
 33 66  1  0  0  0
 33 70  2  0  0  0
 34 36  1  0  0  0
 34 59  1  0  0  0
 34108  1  0  0  0
 35 44  2  0  0  0
 35 45  1  0  0  0
 35 68  1  0  0  0
 36 56  1  0  0  0
 36109  1  0  0  0
 37 39  1  0  0  0
 37 47  1  0  0  0
 37 66  1  0  0  0
 37110  1  0  0  0
 38 43  2  0  0  0
 38 46  1  0  0  0
 38 47  1  0  0  0
 39 64  1  0  0  0
 39 67  2  0  0  0
 40 52  1  0  0  0
 40 53  2  0  0  0
 40 58  1  0  0  0
 41111  1  0  0  0
 41112  1  0  0  0
 41113  1  0  0  0
 41 48  1  0  0  0
 42 43  1  0  0  0
 42 66  1  0  0  0
 42114  1  0  0  0
 42115  1  0  0  0
 43 44  1  0  0  0
 44116  1  0  0  0
 45 46  2  0  0  0
 45117  1  0  0  0
 46118  1  0  0  0
 47119  1  0  0  0
 47120  1  0  0  0
 48 56  1  0  0  0
 48 65  1  0  0  0
 48121  1  0  0  0
 49 50  1  0  0  0
 49 53  1  0  0  0
 49 64  1  0  0  0
 49122  1  0  0  0
 50 51  1  0  0  0
 50123  1  0  0  0
 50124  1  0  0  0
 51 52  1  0  0  0
 51125  1  0  0  0
 51126  1  0  0  0
 52127  1  0  0  0
 52128  1  0  0  0
 53 54  1  0  0  0
 54 55  2  0  0  0
 54129  1  0  0  0
 55 57  1  0  0  0
 55130  1  0  0  0
 56 69  2  0  0  0
 57 58  2  0  0  0
 57131  1  0  0  0
 58132  1  0  0  0
 59 60  1  0  0  0
 59 61  1  0  0  0
 59 62  1  0  0  0
 60133  1  0  0  0
 60134  1  0  0  0
 60135  1  0  0  0
 61136  1  0  0  0
 61137  1  0  0  0
 61138  1  0  0  0
 62139  1  0  0  0
 62140  1  0  0  0
 62141  1  0  0  0
 63 65  1  0  0  0
 63142  1  0  0  0
 63143  1  0  0  0
 63144  1  0  0  0
 64145  1  0  0  0
 65146  1  0  0  0
 68 80  1  0  0  0
 71 72  2  0  0  0
 71 73  1  0  0  0
 71147  1  0  0  0
 72 74  1  0  0  0
 72148  1  0  0  0
 73 75  2  0  0  0
 73 79  1  0  0  0
 74 76  1  0  0  0
 74 85  2  0  0  0
 75 80  1  0  0  0
 75 85  1  0  0  0
 76149  1  0  0  0
 76150  1  0  0  0
 76151  1  0  0  0
 77152  1  0  0  0
 77153  1  0  0  0
 77154  1  0  0  0
 77 83  1  0  0  0
 78 83  1  0  0  0
 78155  1  0  0  0
 78156  1  0  0  0
 78157  1  0  0  0
 79 87  1  0  0  0
 79158  1  0  0  0
 79159  1  0  0  0
 80160  1  0  0  0
 80161  1  0  0  0
 81 83  1  0  0  0
 81162  1  0  0  0
 81163  1  0  0  0
 81 84  1  0  0  0
 82 84  1  0  0  0
 82 86  1  0  0  0
 82164  1  0  0  0
 82165  1  0  0  0
 83166  1  0  0  0
 84 87  1  0  0  0
 84167  1  0  0  0
 86168  1  0  0  0
 87169  1  0  0  0
 87170  1  0  0  0
M  CHG  1  87   1
M  ISO  4   1 100  68 101  80 101  86 100
M  END
> <chiral flag>
0

> <version>
0

> <s_m_source_file>
/data/baiqing/PycharmProjects/Reinvent-master-3.2/result/LINK_invent/BTK/process_docking_weight1_custom_sum_contain_oxygen_bond_distance_aromatic_linkinvent_7_9_3/rearranged_h_0111.sdf

> <i_m_source_file_index>
16

> <r_mmod_Potential_Energy-OPLS-2005>
-59.529109954834

> <r_mmod_Stretch_Energy-OPLS-2005>
148.944976806641

> <r_mmod_Bend_Energy-OPLS-2005>
208.366653442383

> <r_mmod_Torsional_Energy-OPLS-2005>
244.217575073242

> <r_mmod_Improper_Torsional_Energy-OPLS-2005>
7.07368278503418

> <r_mmod_Van_der_Waal_Energy-OPLS-2005>
133.788452148438

> <r_mmod_Electrostatic_Energy-OPLS-2005>
-391.603118896484

> <r_mmod_Solvation_Energy-OPLS-2005>
-496.692138671875

> <b_mmod_Minimization_Converged-OPLS-2005>
0

> <r_mmod_RMS_Derivative-OPLS-2005>
3.43017959594727

$$$$
16
                    3D
 Structure written by MMmdl.
168176  0  0  1  0            999 V2000
  -30.6551  -14.5817   20.5172 C   0  0  0  0  0  0
  -30.4350  -12.3620   19.4419 C   0  0  0  0  0  0
  -29.5034  -12.4959   18.2176 C   0  0  0  0  0  0
  -28.0252  -12.3473   18.6309 C   0  0  0  0  0  0
  -27.6548  -13.2117   19.8659 C   0  0  2  0  0  0
  -28.7012  -13.0537   20.9930 C   0  0  0  0  0  0
  -25.2559  -13.8154   20.5687 C   0  0  0  0  0  0
  -24.1828  -13.0421   20.9191 C   0  0  0  0  0  0
  -24.6394  -11.6893   20.8742 C   0  0  0  0  0  0
  -23.9066  -10.4281   21.0407 C   0  0  0  0  0  0
  -24.3616   -9.4196   21.9187 C   0  0  0  0  0  0
  -23.6288   -8.2236   22.0757 C   0  0  0  0  0  0
  -22.4273   -8.0277   21.3542 C   0  0  0  0  0  0
  -21.9908   -9.0247   20.4648 C   0  0  0  0  0  0
  -22.7235  -10.2127   20.3057 C   0  0  0  0  0  0
  -21.6852   -6.0731   22.5278 C   0  0  0  0  0  0
  -21.4012   -6.5635   23.8209 C   0  0  0  0  0  0
  -21.3657   -5.6791   24.9173 C   0  0  0  0  0  0
  -21.6045   -4.3055   24.7227 C   0  0  0  0  0  0
  -21.8819   -3.8144   23.4348 C   0  0  0  0  0  0
  -21.9192   -4.6960   22.3401 C   0  0  0  0  0  0
  -22.7850  -13.5219   21.1852 C   0  0  0  0  0  0
  -22.1662   -4.2141   21.0980 F   0  0  0  0  0  0
  -21.5629   -3.4543   25.7742 F   0  0  0  0  0  0
  -30.0203  -13.3759   20.4276 N   0  0  0  0  0  0
  -26.2995  -12.9334   20.3337 N   0  0  0  0  0  0
  -25.9323  -11.6493   20.5770 N   0  0  0  0  0  0
  -22.0490  -12.8214   22.0410 N   0  0  0  0  0  0
  -25.4247  -15.1877   20.4095 N   0  0  0  0  0  0
  -31.8109  -14.7487   20.1230 O   0  0  0  0  0  0
  -21.6637   -6.8872   21.4241 O   0  0  0  0  0  0
  -22.3542  -14.5530   20.6700 O   0  0  0  0  0  0
  -24.6192  -31.8629   23.2051 C   0  0  0  0  0  0
  -25.9067  -32.4791   23.8358 C   0  0  1  0  0  0
  -27.2305  -27.3720   20.1251 C   0  0  0  0  0  0
  -25.5910  -33.8587   24.2287 N   0  0  0  0  0  0
  -23.4115  -30.4850   21.5459 C   0  0  2  0  0  0
  -24.8605  -28.9421   20.1132 C   0  0  0  0  0  0
  -22.7443  -29.4627   22.4961 C   0  0  0  0  0  0
  -18.0285  -28.1388   22.8477 C   0  0  0  0  0  0
  -24.1492  -36.7289   23.2638 C   0  0  0  0  0  0
  -25.9455  -30.8101   21.3689 C   0  0  0  0  0  0
  -26.0220  -29.4389   20.7183 C   0  0  0  0  0  0
  -27.2109  -28.6636   20.7166 C   0  0  0  0  0  0
  -26.0602  -26.9177   19.4829 C   0  0  0  0  0  0
  -24.8775  -27.6829   19.4886 C   0  0  0  0  0  0
  -23.6247  -29.8155   20.1613 C   0  0  0  0  0  0
  -25.4102  -36.3074   24.0345 C   0  0  1  0  0  0
  -20.5875  -28.3665   23.1313 C   0  0  2  0  0  0
  -20.6779  -26.9402   22.5410 C   0  0  0  0  0  0
  -19.5757  -26.6373   21.5212 C   0  0  0  0  0  0
  -18.1934  -26.7931   22.1611 C   0  0  0  0  0  0
  -19.1536  -28.8842   23.2888 C   0  0  0  0  0  0
  -18.9469  -30.1449   23.8899 C   0  0  0  0  0  0
  -17.6470  -30.6586   24.0565 C   0  0  0  0  0  0
  -25.9042  -34.9451   23.5108 C   0  0  0  0  0  0
  -16.5356  -29.9090   23.6338 C   0  0  0  0  0  0
  -16.7273  -28.6515   23.0340 C   0  0  0  0  0  0
  -26.4473  -31.6590   25.0706 C   0  0  0  0  0  0
  -25.3723  -31.3729   26.1447 C   0  0  0  0  0  0
  -27.0314  -30.3035   24.6093 C   0  0  0  0  0  0
  -27.6035  -32.4321   25.7475 C   0  0  0  0  0  0
  -27.5593  -37.1769   24.8449 C   0  0  0  0  0  0
  -21.4167  -29.3029   22.3716 N   0  0  0  0  0  0
  -26.4273  -37.3773   23.9440 N   0  0  0  0  0  0
  -24.6768  -31.0686   22.0975 N   0  0  0  0  0  0
  -23.4194  -28.8176   23.3024 O   0  0  0  0  0  0
  -28.3793  -26.5861   20.1252 O   0  0  0  0  0  0
  -26.5609  -34.8924   22.4675 O   0  0  0  0  0  0
  -23.5374  -32.1403   23.7414 O   0  0  0  0  0  0
  -28.9068  -21.8125   18.7117 C   0  0  0  0  0  0
  -29.5615  -21.9180   21.1032 C   0  0  0  0  0  0
  -28.6760  -20.2868   18.8362 C   0  0  0  0  0  0
  -29.3615  -20.3634   21.2204 C   0  0  0  0  0  0
  -28.6708  -22.5997   20.0221 C   0  0  1  0  0  0
  -29.5791  -19.5791   19.8912 C   0  0  1  0  0  0
  -27.1109  -24.8504   21.4958 C   0  0  0  0  0  0
  -29.5046  -25.4671   21.8456 C   0  0  0  0  0  0
  -28.8684  -24.1543   19.7495 C   0  0  0  0  0  0
  -30.2018  -17.1041   20.8831 C   0  0  0  0  0  0
  -29.3149  -18.0053   19.9400 C   0  0  2  0  0  0
  -28.4166  -25.2641   20.7770 C   0  0  0  0  0  0
  -29.8708  -15.6411   20.8542 N   0  0  0  0  0  0
  -29.3924  -17.4468   18.5769 N   0  3  0  0  0  0
  -31.4771  -12.4800   19.1383 H   0  0  0  0  0  0
  -30.3618  -11.3637   19.8756 H   0  0  0  0  0  0
  -29.7574  -11.7439   17.4692 H   0  0  0  0  0  0
  -29.6563  -13.4645   17.7395 H   0  0  0  0  0  0
  -27.8519  -11.2941   18.8539 H   0  0  0  0  0  0
  -27.3723  -12.5897   17.7917 H   0  0  0  0  0  0
  -27.6763  -14.2489   19.5327 H   0  0  0  0  0  0
  -28.7007  -12.0323   21.3768 H   0  0  0  0  0  0
  -28.4574  -13.6902   21.8450 H   0  0  0  0  0  0
  -25.2764   -9.5672   22.4758 H   0  0  0  0  0  0
  -23.9996   -7.4629   22.7480 H   0  0  0  0  0  0
  -21.0840   -8.8762   19.8956 H   0  0  0  0  0  0
  -22.3692  -10.9666   19.6167 H   0  0  0  0  0  0
  -21.2001   -7.6145   23.9709 H   0  0  0  0  0  0
  -21.1481   -6.0525   25.9073 H   0  0  0  0  0  0
  -22.0601   -2.7607   23.2852 H   0  0  0  0  0  0
  -22.4111  -11.9872   22.4789 H   0  0  0  0  0  0
  -21.1110  -13.1236   22.2615 H   0  0  0  0  0  0
  -24.6512  -15.8352   20.5159 H   0  0  0  0  0  0
  -26.2641  -15.6310   20.0640 H   0  0  0  0  0  0
  -26.7132  -32.5480   23.1114 H   0  0  0  0  0  0
  -25.0093  -33.9731   25.0451 H   0  0  0  0  0  0
  -22.7021  -31.3023   21.4030 H   0  0  0  0  0  0
  -23.3770  -35.9602   23.3237 H   0  0  0  0  0  0
  -24.3621  -36.8961   22.2068 H   0  0  0  0  0  0
  -23.7220  -37.6467   23.6689 H   0  0  0  0  0  0
  -26.0659  -31.5729   20.5983 H   0  0  0  0  0  0
  -26.8303  -30.8634   21.9914 H   0  0  0  0  0  0
  -28.1067  -29.0418   21.1882 H   0  0  0  0  0  0
  -26.0594  -25.9574   18.9873 H   0  0  0  0  0  0
  -23.9891  -27.2973   19.0084 H   0  0  0  0  0  0
  -23.7406  -30.5910   19.4034 H   0  0  0  0  0  0
  -22.7465  -29.2410   19.8612 H   0  0  0  0  0  0
  -25.1271  -36.1916   25.0839 H   0  0  0  0  0  0
  -20.9954  -28.3221   24.1436 H   0  0  0  0  0  0
  -20.5693  -26.2267   23.3595 H   0  0  0  0  0  0
  -21.6650  -26.7450   22.1201 H   0  0  0  0  0  0
  -19.6927  -25.6282   21.1248 H   0  0  0  0  0  0
  -19.6718  -27.3177   20.6747 H   0  0  0  0  0  0
  -17.4206  -26.6681   21.4010 H   0  0  0  0  0  0
  -18.0331  -26.0071   22.9008 H   0  0  0  0  0  0
  -19.7951  -30.7263   24.2260 H   0  0  0  0  0  0
  -17.5034  -31.6281   24.5150 H   0  0  0  0  0  0
  -15.5360  -30.2994   23.7675 H   0  0  0  0  0  0
  -15.8671  -28.0847   22.7044 H   0  0  0  0  0  0
  -24.5885  -30.7089   25.7779 H   0  0  0  0  0  0
  -24.8930  -32.2906   26.4868 H   0  0  0  0  0  0
  -25.8051  -30.8907   27.0220 H   0  0  0  0  0  0
  -26.2870  -29.6794   24.1130 H   0  0  0  0  0  0
  -27.4085  -29.7267   25.4546 H   0  0  0  0  0  0
  -27.8699  -30.4368   23.9254 H   0  0  0  0  0  0
  -27.2643  -33.3613   26.2068 H   0  0  0  0  0  0
  -28.3841  -32.6892   25.0302 H   0  0  0  0  0  0
  -28.0708  -31.8438   26.5382 H   0  0  0  0  0  0
  -28.2512  -38.0159   24.7618 H   0  0  0  0  0  0
  -28.1184  -36.2698   24.6101 H   0  0  0  0  0  0
  -27.2352  -37.1218   25.8855 H   0  0  0  0  0  0
  -20.9325  -29.8743   21.6935 H   0  0  0  0  0  0
  -26.0150  -38.2826   24.1516 H   0  0  0  0  0  0
  -28.2457  -22.1983   17.9349 H   0  0  0  0  0  0
  -29.9230  -21.9936   18.3565 H   0  0  0  0  0  0
  -30.6114  -22.1297   20.8935 H   0  0  0  0  0  0
  -29.3533  -22.3620   22.0764 H   0  0  0  0  0  0
  -28.8340  -19.8613   17.8449 H   0  0  0  0  0  0
  -27.6259  -20.1082   19.0758 H   0  0  0  0  0  0
  -28.3529  -20.1697   21.5890 H   0  0  0  0  0  0
  -30.0351  -19.9750   21.9850 H   0  0  0  0  0  0
  -27.6294  -22.4401   20.3037 H   0  0  0  0  0  0
  -30.6189  -19.7267   19.5936 H   0  0  0  0  0  0
  -27.2724  -23.9702   22.1183 H   0  0  0  0  0  0
  -26.3168  -24.5925   20.7955 H   0  0  0  0  0  0
  -26.7430  -25.6355   22.1564 H   0  0  0  0  0  0
  -29.6704  -24.5694   22.4389 H   0  0  0  0  0  0
  -29.2306  -26.2654   22.5365 H   0  0  0  0  0  0
  -30.4606  -25.7398   21.3974 H   0  0  0  0  0  0
  -28.3089  -24.3722   18.8389 H   0  0  0  0  0  0
  -29.9088  -24.3316   19.4731 H   0  0  0  0  0  0
  -30.0857  -17.4493   21.9108 H   0  0  0  0  0  0
  -31.2561  -17.2538   20.6439 H   0  0  0  0  0  0
  -28.2796  -17.8766   20.2611 H   0  0  0  0  0  0
  -28.9464  -15.3921   21.1757 H   0  0  0  0  0  0
  -30.3404  -17.4637   18.2426 H   0  0  0  0  0  0
  -28.8255  -17.9913   17.9508 H   0  0  0  0  0  0
  -29.0630  -16.5000   18.5579 H   0  0  0  0  0  0
  1 25  1  0  0  0
  1 30  2  0  0  0
  1 83  1  0  0  0
  2  3  1  0  0  0
  2 25  1  0  0  0
  2 85  1  0  0  0
  2 86  1  0  0  0
  3  4  1  0  0  0
  3 87  1  0  0  0
  3 88  1  0  0  0
  4  5  1  0  0  0
  4 89  1  0  0  0
  4 90  1  0  0  0
  5  6  1  0  0  0
  5 26  1  0  0  0
  5 91  1  0  0  0
  6 25  1  0  0  0
  6 92  1  0  0  0
  6 93  1  0  0  0
  7  8  2  0  0  0
  7 26  1  0  0  0
  7 29  1  0  0  0
  8  9  1  0  0  0
  8 22  1  0  0  0
  9 10  1  0  0  0
  9 27  2  0  0  0
 10 11  2  0  0  0
 10 15  1  0  0  0
 11 12  1  0  0  0
 11 94  1  0  0  0
 12 13  2  0  0  0
 12 95  1  0  0  0
 13 14  1  0  0  0
 13 31  1  0  0  0
 14 15  2  0  0  0
 14 96  1  0  0  0
 15 97  1  0  0  0
 16 17  2  0  0  0
 16 21  1  0  0  0
 16 31  1  0  0  0
 17 18  1  0  0  0
 17 98  1  0  0  0
 18 19  2  0  0  0
 18 99  1  0  0  0
 19 20  1  0  0  0
 19 24  1  0  0  0
 20 21  2  0  0  0
 20100  1  0  0  0
 21 23  1  0  0  0
 22 28  1  0  0  0
 22 32  2  0  0  0
 26 27  1  0  0  0
 28101  1  0  0  0
 28102  1  0  0  0
 29103  1  0  0  0
 29104  1  0  0  0
 33 34  1  0  0  0
 33 66  1  0  0  0
 33 70  2  0  0  0
 34 36  1  0  0  0
 34 59  1  0  0  0
 34105  1  0  0  0
 35 44  2  0  0  0
 35 45  1  0  0  0
 35 68  1  0  0  0
 36 56  1  0  0  0
 36106  1  0  0  0
 37 39  1  0  0  0
 37 47  1  0  0  0
 37 66  1  0  0  0
 37107  1  0  0  0
 38 43  2  0  0  0
 38 46  1  0  0  0
 38 47  1  0  0  0
 39 64  1  0  0  0
 39 67  2  0  0  0
 40 52  1  0  0  0
 40 53  2  0  0  0
 40 58  1  0  0  0
 41108  1  0  0  0
 41109  1  0  0  0
 41110  1  0  0  0
 41 48  1  0  0  0
 42 43  1  0  0  0
 42 66  1  0  0  0
 42111  1  0  0  0
 42112  1  0  0  0
 43 44  1  0  0  0
 44113  1  0  0  0
 45 46  2  0  0  0
 45114  1  0  0  0
 46115  1  0  0  0
 47116  1  0  0  0
 47117  1  0  0  0
 48 56  1  0  0  0
 48 65  1  0  0  0
 48118  1  0  0  0
 49 50  1  0  0  0
 49 53  1  0  0  0
 49 64  1  0  0  0
 49119  1  0  0  0
 50 51  1  0  0  0
 50120  1  0  0  0
 50121  1  0  0  0
 51 52  1  0  0  0
 51122  1  0  0  0
 51123  1  0  0  0
 52124  1  0  0  0
 52125  1  0  0  0
 53 54  1  0  0  0
 54 55  2  0  0  0
 54126  1  0  0  0
 55 57  1  0  0  0
 55127  1  0  0  0
 56 69  2  0  0  0
 57 58  2  0  0  0
 57128  1  0  0  0
 58129  1  0  0  0
 59 60  1  0  0  0
 59 61  1  0  0  0
 59 62  1  0  0  0
 60130  1  0  0  0
 60131  1  0  0  0
 60132  1  0  0  0
 61133  1  0  0  0
 61134  1  0  0  0
 61135  1  0  0  0
 62136  1  0  0  0
 62137  1  0  0  0
 62138  1  0  0  0
 63 65  1  0  0  0
 63139  1  0  0  0
 63140  1  0  0  0
 63141  1  0  0  0
 64142  1  0  0  0
 65143  1  0  0  0
 68 82  1  0  0  0
 71 73  1  0  0  0
 71 75  1  0  0  0
 71144  1  0  0  0
 71145  1  0  0  0
 72 74  1  0  0  0
 72 75  1  0  0  0
 72146  1  0  0  0
 72147  1  0  0  0
 73148  1  0  0  0
 73149  1  0  0  0
 73 76  1  0  0  0
 74 76  1  0  0  0
 74150  1  0  0  0
 74151  1  0  0  0
 75 79  1  0  0  0
 75152  1  0  0  0
 76 81  1  0  0  0
 76153  1  0  0  0
 77154  1  0  0  0
 77155  1  0  0  0
 77156  1  0  0  0
 77 82  1  0  0  0
 78 82  1  0  0  0
 78157  1  0  0  0
 78158  1  0  0  0
 78159  1  0  0  0
 79 82  1  0  0  0
 79160  1  0  0  0
 79161  1  0  0  0
 80 81  1  0  0  0
 80 83  1  0  0  0
 80162  1  0  0  0
 80163  1  0  0  0
 81 84  1  0  0  0
 81164  1  0  0  0
 83165  1  0  0  0
 84166  1  0  0  0
 84167  1  0  0  0
 84168  1  0  0  0
M  CHG  1  84   1
M  ISO  4   1 100  68 101  82 101  83 100
M  END
> <chiral flag>
0

> <version>
0

> <s_m_source_file>
/data/baiqing/PycharmProjects/Reinvent-master-3.2/result/LINK_invent/BTK/process_docking_weight1_custom_sum_contain_oxygen_bond_distance_aromatic_linkinvent_7_9_3/rearranged_h_0111.sdf

> <i_m_source_file_index>
17

> <r_mmod_Potential_Energy-OPLS-2005>
-207.895217895508

> <r_mmod_Stretch_Energy-OPLS-2005>
64.1288070678711

> <r_mmod_Bend_Energy-OPLS-2005>
140.738220214844

> <r_mmod_Torsional_Energy-OPLS-2005>
294.013000488281

> <r_mmod_Improper_Torsional_Energy-OPLS-2005>
5.01584625244141

> <r_mmod_Van_der_Waal_Energy-OPLS-2005>
128.321731567383

> <r_mmod_Electrostatic_Energy-OPLS-2005>
-382.863342285156

> <r_mmod_Solvation_Energy-OPLS-2005>
-486.815582275391

> <b_mmod_Minimization_Converged-OPLS-2005>
0

> <r_mmod_RMS_Derivative-OPLS-2005>
1.33533453941345

$$$$
17
                    3D
 Structure written by MMmdl.
167175  0  0  1  0            999 V2000
  -30.7670  -14.3642   20.6801 C   0  0  0  0  0  0
  -30.4171  -12.2775   19.4098 C   0  0  0  0  0  0
  -29.4905  -12.5131   18.2018 C   0  0  0  0  0  0
  -28.0131  -12.3721   18.6134 C   0  0  0  0  0  0
  -27.6669  -13.2005   19.8778 C   0  0  2  0  0  0
  -28.7006  -12.9488   20.9984 C   0  0  0  0  0  0
  -25.2613  -13.8158   20.5672 C   0  0  0  0  0  0
  -24.1838  -13.0447   20.9145 C   0  0  0  0  0  0
  -24.6368  -11.6907   20.8688 C   0  0  0  0  0  0
  -23.9028  -10.4297   21.0374 C   0  0  0  0  0  0
  -24.3587   -9.4216   21.9161 C   0  0  0  0  0  0
  -23.6265   -8.2255   22.0751 C   0  0  0  0  0  0
  -22.4250   -8.0288   21.3545 C   0  0  0  0  0  0
  -21.9866   -9.0255   20.4655 C   0  0  0  0  0  0
  -22.7192  -10.2130   20.3045 C   0  0  0  0  0  0
  -21.6858   -6.0721   22.5269 C   0  0  0  0  0  0
  -21.4025   -6.5624   23.8202 C   0  0  0  0  0  0
  -21.3659   -5.6781   24.9161 C   0  0  0  0  0  0
  -21.6042   -4.3040   24.7220 C   0  0  0  0  0  0
  -21.8818   -3.8135   23.4345 C   0  0  0  0  0  0
  -21.9196   -4.6949   22.3396 C   0  0  0  0  0  0
  -22.7862  -13.5261   21.1827 C   0  0  0  0  0  0
  -22.1664   -4.2132   21.0972 F   0  0  0  0  0  0
  -21.5623   -3.4524   25.7737 F   0  0  0  0  0  0
  -30.0508  -13.2276   20.4711 N   0  0  0  0  0  0
  -26.3035  -12.9314   20.3340 N   0  0  0  0  0  0
  -25.9293  -11.6474   20.5710 N   0  0  0  0  0  0
  -22.0511  -12.8273   22.0403 N   0  0  0  0  0  0
  -25.4378  -15.1877   20.4141 N   0  0  0  0  0  0
  -31.7791  -14.6424   20.0258 O   0  0  0  0  0  0
  -21.6640   -6.8866   21.4235 O   0  0  0  0  0  0
  -22.3544  -14.5563   20.6673 O   0  0  0  0  0  0
  -24.6080  -31.8713   23.2118 C   0  0  0  0  0  0
  -25.8999  -32.4834   23.8404 C   0  0  1  0  0  0
  -27.2548  -27.4821   20.1075 C   0  0  0  0  0  0
  -25.5879  -33.8630   24.2347 N   0  0  0  0  0  0
  -23.3937  -30.4923   21.5511 C   0  0  2  0  0  0
  -24.8448  -28.9630   20.1156 C   0  0  0  0  0  0
  -22.7373  -29.4670   22.5014 C   0  0  0  0  0  0
  -18.0261  -28.1367   22.8497 C   0  0  0  0  0  0
  -24.1487  -36.7334   23.2634 C   0  0  0  0  0  0
  -25.9126  -30.8593   21.3498 C   0  0  0  0  0  0
  -25.9970  -29.4937   20.7061 C   0  0  0  0  0  0
  -27.2031  -28.7668   20.6989 C   0  0  0  0  0  0
  -26.0859  -26.9599   19.5160 C   0  0  0  0  0  0
  -24.8818  -27.6918   19.5150 C   0  0  0  0  0  0
  -23.5996  -29.8190   20.1661 C   0  0  0  0  0  0
  -25.4097  -36.3117   24.0344 C   0  0  1  0  0  0
  -20.5848  -28.3646   23.1337 C   0  0  2  0  0  0
  -20.6753  -26.9391   22.5421 C   0  0  0  0  0  0
  -19.5732  -26.6383   21.5214 C   0  0  0  0  0  0
  -18.1913  -26.7915   22.1629 C   0  0  0  0  0  0
  -19.1511  -28.8823   23.2917 C   0  0  0  0  0  0
  -18.9442  -30.1430   23.8919 C   0  0  0  0  0  0
  -17.6447  -30.6577   24.0568 C   0  0  0  0  0  0
  -25.9019  -34.9479   23.5141 C   0  0  0  0  0  0
  -16.5337  -29.9081   23.6324 C   0  0  0  0  0  0
  -16.7255  -28.6498   23.0349 C   0  0  0  0  0  0
  -26.4461  -31.6591   25.0698 C   0  0  0  0  0  0
  -25.3774  -31.3718   26.1495 C   0  0  0  0  0  0
  -27.0242  -30.3027   24.6014 C   0  0  0  0  0  0
  -27.6086  -32.4273   25.7416 C   0  0  0  0  0  0
  -27.5580  -37.1804   24.8463 C   0  0  0  0  0  0
  -21.4110  -29.3018   22.3752 N   0  0  0  0  0  0
  -26.4293  -37.3791   23.9408 N   0  0  0  0  0  0
  -24.6567  -31.0868   22.0980 N   0  0  0  0  0  0
  -23.4173  -28.8220   23.3046 O   0  0  0  0  0  0
  -28.3808  -26.6881   20.0716 O   0  0  0  0  0  0
  -26.5583  -34.8927   22.4702 O   0  0  0  0  0  0
  -23.5296  -32.1431   23.7561 O   0  0  0  0  0  0
  -30.5380  -16.8279   23.3728 C   0  0  0  0  0  0
  -31.2645  -18.6291   21.4429 C   0  0  0  0  0  0
  -30.8059  -18.1543   23.7665 C   0  0  0  0  0  0
  -31.1720  -19.0872   22.7691 C   0  0  0  0  0  0
  -30.6640  -16.4499   22.0211 C   0  0  0  0  0  0
  -30.6974  -18.5406   25.2310 C   0  0  0  0  0  0
  -32.3332  -23.9587   22.2909 C   0  0  0  0  0  0
  -31.4637  -20.5533   23.0733 C   0  0  0  0  0  0
  -30.1943  -21.4265   23.0069 C   0  0  0  0  0  0
  -30.4944  -25.9305   20.9514 C   0  0  0  0  0  0
  -30.3798  -22.9134   23.3884 C   0  0  0  0  0  0
  -30.0985  -25.0446   22.1568 C   0  0  0  0  0  0
  -29.5520  -27.1271   20.7539 C   0  0  0  0  0  0
  -31.0149  -17.3555   21.0794 N   0  0  0  0  0  0
  -30.3511  -15.1030   21.7201 N   0  0  0  0  0  0
  -30.8608  -23.7654   22.2617 N   0  3  1  0  0  0
  -31.4625  -12.3667   19.1086 H   0  0  0  0  0  0
  -30.3088  -11.2575   19.7821 H   0  0  0  0  0  0
  -29.7239  -11.8048   17.4059 H   0  0  0  0  0  0
  -29.6670  -13.5085   17.7917 H   0  0  0  0  0  0
  -27.8185  -11.3147   18.8008 H   0  0  0  0  0  0
  -27.3651  -12.6587   17.7845 H   0  0  0  0  0  0
  -27.7253  -14.2531   19.5992 H   0  0  0  0  0  0
  -28.6538  -11.9074   21.3204 H   0  0  0  0  0  0
  -28.4394  -13.5327   21.8805 H   0  0  0  0  0  0
  -25.2735   -9.5686   22.4722 H   0  0  0  0  0  0
  -23.9982   -7.4640   22.7454 H   0  0  0  0  0  0
  -21.0792   -8.8754   19.8960 H   0  0  0  0  0  0
  -22.3636  -10.9660   19.6146 H   0  0  0  0  0  0
  -21.2027   -7.6134   23.9699 H   0  0  0  0  0  0
  -21.1485   -6.0512   25.9061 H   0  0  0  0  0  0
  -22.0602   -2.7598   23.2851 H   0  0  0  0  0  0
  -22.4125  -11.9947   22.4823 H   0  0  0  0  0  0
  -21.1140  -13.1318   22.2632 H   0  0  0  0  0  0
  -24.6823  -15.8523   20.5452 H   0  0  0  0  0  0
  -26.3026  -15.6232   20.1183 H   0  0  0  0  0  0
  -26.7078  -32.5588   23.1191 H   0  0  0  0  0  0
  -25.0042  -33.9796   25.0501 H   0  0  0  0  0  0
  -22.6794  -31.3064   21.4118 H   0  0  0  0  0  0
  -23.3728  -35.9689   23.3304 H   0  0  0  0  0  0
  -24.3593  -36.8935   22.2048 H   0  0  0  0  0  0
  -23.7264  -37.6554   23.6640 H   0  0  0  0  0  0
  -26.0030  -31.6230   20.5759 H   0  0  0  0  0  0
  -26.8077  -30.9289   21.9558 H   0  0  0  0  0  0
  -28.0754  -29.2165   21.1482 H   0  0  0  0  0  0
  -26.1089  -25.9800   19.0600 H   0  0  0  0  0  0
  -23.9960  -27.2735   19.0566 H   0  0  0  0  0  0
  -23.6948  -30.5902   19.4011 H   0  0  0  0  0  0
  -22.7280  -29.2281   19.8785 H   0  0  0  0  0  0
  -25.1270  -36.1991   25.0836 H   0  0  0  0  0  0
  -20.9939  -28.3205   24.1459 H   0  0  0  0  0  0
  -20.5658  -26.2251   23.3597 H   0  0  0  0  0  0
  -21.6625  -26.7440   22.1211 H   0  0  0  0  0  0
  -19.6894  -25.6305   21.1216 H   0  0  0  0  0  0
  -19.6666  -27.3214   20.6762 H   0  0  0  0  0  0
  -17.4181  -26.6658   21.4037 H   0  0  0  0  0  0
  -18.0320  -26.0053   22.9021 H   0  0  0  0  0  0
  -19.7918  -30.7244   24.2300 H   0  0  0  0  0  0
  -17.5001  -31.6262   24.5158 H   0  0  0  0  0  0
  -15.5339  -30.2993   23.7630 H   0  0  0  0  0  0
  -15.8651  -28.0826   22.7053 H   0  0  0  0  0  0
  -24.5868  -30.7145   25.7860 H   0  0  0  0  0  0
  -24.9072  -32.2900   26.5025 H   0  0  0  0  0  0
  -25.8156  -30.8812   27.0195 H   0  0  0  0  0  0
  -26.2720  -29.6785   24.1170 H   0  0  0  0  0  0
  -27.4128  -29.7267   25.4424 H   0  0  0  0  0  0
  -27.8518  -30.4337   23.9035 H   0  0  0  0  0  0
  -27.2761  -33.3582   26.2019 H   0  0  0  0  0  0
  -28.3865  -32.6802   25.0200 H   0  0  0  0  0  0
  -28.0773  -31.8365   26.5295 H   0  0  0  0  0  0
  -28.2619  -38.0080   24.7488 H   0  0  0  0  0  0
  -28.1057  -36.2617   24.6307 H   0  0  0  0  0  0
  -27.2310  -37.1480   25.8871 H   0  0  0  0  0  0
  -20.9260  -29.8742   21.6981 H   0  0  0  0  0  0
  -26.0192  -38.2874   24.1407 H   0  0  0  0  0  0
  -30.2480  -16.0960   24.1146 H   0  0  0  0  0  0
  -31.5376  -19.3038   20.6445 H   0  0  0  0  0  0
  -30.3852  -17.6931   25.8416 H   0  0  0  0  0  0
  -29.9651  -19.3354   25.3666 H   0  0  0  0  0  0
  -31.6576  -18.8846   25.6149 H   0  0  0  0  0  0
  -32.8621  -23.0117   22.3728 H   0  0  0  0  0  0
  -32.6342  -24.5793   23.1354 H   0  0  0  0  0  0
  -32.6943  -24.4299   21.3776 H   0  0  0  0  0  0
  -32.1967  -20.9009   22.3463 H   0  0  0  0  0  0
  -31.9476  -20.6482   24.0463 H   0  0  0  0  0  0
  -29.4703  -21.0040   23.7050 H   0  0  0  0  0  0
  -29.7236  -21.3460   22.0261 H   0  0  0  0  0  0
  -30.5316  -25.3426   20.0335 H   0  0  0  0  0  0
  -31.4973  -26.3270   21.1099 H   0  0  0  0  0  0
  -31.0173  -23.0216   24.2678 H   0  0  0  0  0  0
  -29.4008  -23.2704   23.7128 H   0  0  0  0  0  0
  -29.0354  -24.8089   22.0746 H   0  0  0  0  0  0
  -30.2123  -25.6128   23.0824 H   0  0  0  0  0  0
  -30.0397  -27.8946   20.1508 H   0  0  0  0  0  0
  -29.3307  -27.5598   21.7309 H   0  0  0  0  0  0
  -29.6655  -14.6641   22.3125 H   0  0  0  0  0  0
  -30.6476  -23.2554   21.4176 H   0  0  0  0  0  0
  1 25  1  0  0  0
  1 30  2  0  0  0
  1 85  1  0  0  0
  2  3  1  0  0  0
  2 25  1  0  0  0
  2 87  1  0  0  0
  2 88  1  0  0  0
  3  4  1  0  0  0
  3 89  1  0  0  0
  3 90  1  0  0  0
  4  5  1  0  0  0
  4 91  1  0  0  0
  4 92  1  0  0  0
  5  6  1  0  0  0
  5 26  1  0  0  0
  5 93  1  0  0  0
  6 25  1  0  0  0
  6 94  1  0  0  0
  6 95  1  0  0  0
  7  8  2  0  0  0
  7 26  1  0  0  0
  7 29  1  0  0  0
  8  9  1  0  0  0
  8 22  1  0  0  0
  9 10  1  0  0  0
  9 27  2  0  0  0
 10 11  2  0  0  0
 10 15  1  0  0  0
 11 12  1  0  0  0
 11 96  1  0  0  0
 12 13  2  0  0  0
 12 97  1  0  0  0
 13 14  1  0  0  0
 13 31  1  0  0  0
 14 15  2  0  0  0
 14 98  1  0  0  0
 15 99  1  0  0  0
 16 17  2  0  0  0
 16 21  1  0  0  0
 16 31  1  0  0  0
 17 18  1  0  0  0
 17100  1  0  0  0
 18 19  2  0  0  0
 18101  1  0  0  0
 19 20  1  0  0  0
 19 24  1  0  0  0
 20 21  2  0  0  0
 20102  1  0  0  0
 21 23  1  0  0  0
 22 28  1  0  0  0
 22 32  2  0  0  0
 26 27  1  0  0  0
 28103  1  0  0  0
 28104  1  0  0  0
 29105  1  0  0  0
 29106  1  0  0  0
 33 34  1  0  0  0
 33 66  1  0  0  0
 33 70  2  0  0  0
 34 36  1  0  0  0
 34 59  1  0  0  0
 34107  1  0  0  0
 35 44  2  0  0  0
 35 45  1  0  0  0
 35 68  1  0  0  0
 36 56  1  0  0  0
 36108  1  0  0  0
 37 39  1  0  0  0
 37 47  1  0  0  0
 37 66  1  0  0  0
 37109  1  0  0  0
 38 43  2  0  0  0
 38 46  1  0  0  0
 38 47  1  0  0  0
 39 64  1  0  0  0
 39 67  2  0  0  0
 40 52  1  0  0  0
 40 53  2  0  0  0
 40 58  1  0  0  0
 41110  1  0  0  0
 41111  1  0  0  0
 41112  1  0  0  0
 41 48  1  0  0  0
 42 43  1  0  0  0
 42 66  1  0  0  0
 42113  1  0  0  0
 42114  1  0  0  0
 43 44  1  0  0  0
 44115  1  0  0  0
 45 46  2  0  0  0
 45116  1  0  0  0
 46117  1  0  0  0
 47118  1  0  0  0
 47119  1  0  0  0
 48 56  1  0  0  0
 48 65  1  0  0  0
 48120  1  0  0  0
 49 50  1  0  0  0
 49 53  1  0  0  0
 49 64  1  0  0  0
 49121  1  0  0  0
 50 51  1  0  0  0
 50122  1  0  0  0
 50123  1  0  0  0
 51 52  1  0  0  0
 51124  1  0  0  0
 51125  1  0  0  0
 52126  1  0  0  0
 52127  1  0  0  0
 53 54  1  0  0  0
 54 55  2  0  0  0
 54128  1  0  0  0
 55 57  1  0  0  0
 55129  1  0  0  0
 56 69  2  0  0  0
 57 58  2  0  0  0
 57130  1  0  0  0
 58131  1  0  0  0
 59 60  1  0  0  0
 59 61  1  0  0  0
 59 62  1  0  0  0
 60132  1  0  0  0
 60133  1  0  0  0
 60134  1  0  0  0
 61135  1  0  0  0
 61136  1  0  0  0
 61137  1  0  0  0
 62138  1  0  0  0
 62139  1  0  0  0
 62140  1  0  0  0
 63 65  1  0  0  0
 63141  1  0  0  0
 63142  1  0  0  0
 63143  1  0  0  0
 64144  1  0  0  0
 65145  1  0  0  0
 68 83  1  0  0  0
 71 73  2  0  0  0
 71 75  1  0  0  0
 71146  1  0  0  0
 72 74  2  0  0  0
 72 84  1  0  0  0
 72147  1  0  0  0
 73 74  1  0  0  0
 73 76  1  0  0  0
 74 78  1  0  0  0
 75 84  2  0  0  0
 75 85  1  0  0  0
 76148  1  0  0  0
 76149  1  0  0  0
 76150  1  0  0  0
 77151  1  0  0  0
 77152  1  0  0  0
 77153  1  0  0  0
 77 86  1  0  0  0
 78 79  1  0  0  0
 78154  1  0  0  0
 78155  1  0  0  0
 79 81  1  0  0  0
 79156  1  0  0  0
 79157  1  0  0  0
 80 82  1  0  0  0
 80 83  1  0  0  0
 80158  1  0  0  0
 80159  1  0  0  0
 81 86  1  0  0  0
 81160  1  0  0  0
 81161  1  0  0  0
 82 86  1  0  0  0
 82162  1  0  0  0
 82163  1  0  0  0
 83164  1  0  0  0
 83165  1  0  0  0
 85166  1  0  0  0
 86167  1  0  0  0
M  CHG  1  86   1
M  ISO  4   1 100  68 101  83 101  85 100
M  END
> <chiral flag>
0

> <version>
0

> <s_m_source_file>
/data/baiqing/PycharmProjects/Reinvent-master-3.2/result/LINK_invent/BTK/process_docking_weight1_custom_sum_contain_oxygen_bond_distance_aromatic_linkinvent_7_9_3/rearranged_h_0111.sdf

> <i_m_source_file_index>
18

> <r_mmod_Potential_Energy-OPLS-2005>
-305.474090576172

> <r_mmod_Stretch_Energy-OPLS-2005>
34.044548034668

> <r_mmod_Bend_Energy-OPLS-2005>
102.762763977051

> <r_mmod_Torsional_Energy-OPLS-2005>
218.041259765625

> <r_mmod_Improper_Torsional_Energy-OPLS-2005>
2.54004812240601

> <r_mmod_Van_der_Waal_Energy-OPLS-2005>
164.286376953125

> <r_mmod_Electrostatic_Energy-OPLS-2005>
-362.964569091797

> <r_mmod_Solvation_Energy-OPLS-2005>
-470.556579589844

> <b_mmod_Minimization_Converged-OPLS-2005>
0

> <r_mmod_RMS_Derivative-OPLS-2005>
1.83868026733398

$$$$
18
                    3D
 Structure written by MMmdl.
151159  0  0  1  0            999 V2000
  -30.4356  -15.3461   20.3067 C   0  0  0  0  0  0
  -30.4442  -12.8587   19.5104 C   0  0  0  0  0  0
  -29.5372  -12.5601   18.2891 C   0  0  0  0  0  0
  -28.0988  -12.2405   18.7370 C   0  0  0  0  0  0
  -27.5996  -13.2300   19.8128 C   0  0  2  0  0  0
  -28.6450  -13.5053   20.9244 C   0  0  0  0  0  0
  -25.2336  -13.8047   20.5798 C   0  0  0  0  0  0
  -24.1680  -13.0297   20.9314 C   0  0  0  0  0  0
  -24.6329  -11.6804   20.8830 C   0  0  0  0  0  0
  -23.9024  -10.4214   21.0452 C   0  0  0  0  0  0
  -24.3585   -9.4137   21.9217 C   0  0  0  0  0  0
  -23.6264   -8.2180   22.0767 C   0  0  0  0  0  0
  -22.4250   -8.0239   21.3546 C   0  0  0  0  0  0
  -21.9884   -9.0213   20.4651 C   0  0  0  0  0  0
  -22.7213  -10.2083   20.3075 C   0  0  0  0  0  0
  -21.6833   -6.0717   22.5281 C   0  0  0  0  0  0
  -21.4001   -6.5626   23.8214 C   0  0  0  0  0  0
  -21.3656   -5.6780   24.9177 C   0  0  0  0  0  0
  -21.6048   -4.3044   24.7229 C   0  0  0  0  0  0
  -21.8820   -3.8134   23.4351 C   0  0  0  0  0  0
  -21.9188   -4.6948   22.3406 C   0  0  0  0  0  0
  -22.7708  -13.5116   21.1919 C   0  0  0  0  0  0
  -22.1657   -4.2138   21.0982 F   0  0  0  0  0  0
  -21.5632   -3.4531   25.7743 F   0  0  0  0  0  0
  -29.8660  -14.0273   20.2724 N   0  0  0  0  0  0
  -26.2762  -12.9256   20.3291 N   0  0  0  0  0  0
  -25.9254  -11.6413   20.5803 N   0  0  0  0  0  0
  -22.0334  -12.8151   22.0482 N   0  0  0  0  0  0
  -25.3788  -15.1779   20.4216 N   0  0  0  0  0  0
  -31.6735  -15.3125   20.2350 O   0  0  0  0  0  0
  -21.6609   -6.8849   21.4242 O   0  0  0  0  0  0
  -22.3430  -14.5431   20.6740 O   0  0  0  0  0  0
  -24.6628  -31.8223   23.1680 C   0  0  0  0  0  0
  -25.9307  -32.4583   23.8152 C   0  0  1  0  0  0
  -27.2382  -26.9300   20.1838 C   0  0  0  0  0  0
  -25.5968  -33.8396   24.2061 N   0  0  0  0  0  0
  -23.4791  -30.4302   21.5173 C   0  0  2  0  0  0
  -24.9370  -28.8141   20.1104 C   0  0  0  0  0  0
  -22.7670  -29.4425   22.4781 C   0  0  0  0  0  0
  -18.0322  -28.1409   22.8466 C   0  0  0  0  0  0
  -24.1495  -36.7209   23.2647 C   0  0  0  0  0  0
  -26.0469  -30.6284   21.3988 C   0  0  0  0  0  0
  -26.1179  -29.2172   20.7452 C   0  0  0  0  0  0
  -27.2585  -28.2952   20.7593 C   0  0  0  0  0  0
  -26.0291  -26.6792   19.4946 C   0  0  0  0  0  0
  -24.9181  -27.5656   19.4649 C   0  0  0  0  0  0
  -23.7197  -29.7396   20.1451 C   0  0  0  0  0  0
  -25.4136  -36.2967   24.0299 C   0  0  1  0  0  0
  -20.5946  -28.3753   23.1190 C   0  0  2  0  0  0
  -20.6798  -26.9433   22.5407 C   0  0  0  0  0  0
  -19.5773  -26.6372   21.5219 C   0  0  0  0  0  0
  -18.1954  -26.7940   22.1624 C   0  0  0  0  0  0
  -19.1583  -28.8903   23.2812 C   0  0  0  0  0  0
  -18.9494  -30.1492   23.8846 C   0  0  0  0  0  0
  -17.6486  -30.6598   24.0555 C   0  0  0  0  0  0
  -25.9099  -34.9349   23.5008 C   0  0  0  0  0  0
  -16.5376  -29.9085   23.6341 C   0  0  0  0  0  0
  -16.7304  -28.6506   23.0360 C   0  0  0  0  0  0
  -26.4557  -31.6529   25.0684 C   0  0  0  0  0  0
  -25.3676  -31.3782   26.1335 C   0  0  0  0  0  0
  -27.0458  -30.2895   24.6420 C   0  0  0  0  0  0
  -27.6045  -32.4339   25.7488 C   0  0  0  0  0  0
  -27.5572  -37.1760   24.8465 C   0  0  0  0  0  0
  -21.4337  -29.3038   22.3534 N   0  0  0  0  0  0
  -26.4283  -37.3702   23.9405 N   0  0  0  0  0  0
  -24.7507  -30.9876   22.0820 N   0  0  0  0  0  0
  -23.4212  -28.8007   23.3036 O   0  0  0  0  0  0
  -28.2584  -25.8428   20.2977 O   0  0  0  0  0  0
  -26.5719  -34.8890   22.4610 O   0  0  0  0  0  0
  -23.5694  -32.1198   23.6767 O   0  0  0  0  0  0
  -29.3814  -19.7970   20.6341 C   0  0  0  0  0  0
  -28.0473  -17.6993   18.6333 C   0  0  0  0  0  0
  -29.3699  -18.4080   18.4492 C   0  0  0  0  0  0
  -28.4731  -16.4161   19.3431 C   0  0  0  0  0  0
  -29.9053  -18.2965   19.8731 C   0  0  2  0  0  0
  -28.9136  -22.7207   20.6321 C   0  0  0  0  0  0
  -28.1668  -24.2248   19.9539 C   0  0  0  0  0  0
  -29.6777  -16.6430   20.1563 N   0  0  0  0  0  0
  -29.1543  -21.1563   20.0699 N   0  0  0  0  0  0
  -29.2079  -19.6993   21.8486 O   0  0  0  0  0  0
  -31.4548  -13.0774   19.1630 H   0  0  0  0  0  0
  -30.5384  -11.9806   20.1512 H   0  0  0  0  0  0
  -29.9422  -11.7291   17.7095 H   0  0  0  0  0  0
  -29.5315  -13.4239   17.6226 H   0  0  0  0  0  0
  -28.0936  -11.2289   19.1444 H   0  0  0  0  0  0
  -27.4240  -12.2290   17.8798 H   0  0  0  0  0  0
  -27.4401  -14.1229   19.2307 H   0  0  0  0  0  0
  -28.8475  -12.6080   21.5109 H   0  0  0  0  0  0
  -28.2640  -14.2511   21.6234 H   0  0  0  0  0  0
  -25.2728   -9.5616   22.4794 H   0  0  0  0  0  0
  -23.9971   -7.4566   22.7480 H   0  0  0  0  0  0
  -21.0816   -8.8736   19.8953 H   0  0  0  0  0  0
  -22.3690  -10.9631   19.6188 H   0  0  0  0  0  0
  -21.1987   -7.6133   23.9715 H   0  0  0  0  0  0
  -21.1479   -6.0508   25.9079 H   0  0  0  0  0  0
  -22.0607   -2.7598   23.2849 H   0  0  0  0  0  0
  -22.3922  -11.9821   22.4906 H   0  0  0  0  0  0
  -21.0958  -13.1209   22.2667 H   0  0  0  0  0  0
  -24.5989  -15.8149   20.5433 H   0  0  0  0  0  0
  -26.2151  -15.6368   20.0912 H   0  0  0  0  0  0
  -26.7378  -32.5126   23.0868 H   0  0  0  0  0  0
  -25.0044  -33.9469   25.0164 H   0  0  0  0  0  0
  -22.7924  -31.2612   21.3433 H   0  0  0  0  0  0
  -23.3769  -35.9529   23.3281 H   0  0  0  0  0  0
  -24.3568  -36.8886   22.2067 H   0  0  0  0  0  0
  -23.7244  -37.6385   23.6724 H   0  0  0  0  0  0
  -26.2253  -31.3681   20.6172 H   0  0  0  0  0  0
  -26.9075  -30.6879   22.0534 H   0  0  0  0  0  0
  -28.1498  -28.6010   21.2891 H   0  0  0  0  0  0
  -25.9075  -25.7257   19.0014 H   0  0  0  0  0  0
  -24.0219  -27.2499   18.9487 H   0  0  0  0  0  0
  -23.8709  -30.5058   19.3839 H   0  0  0  0  0  0
  -22.8307  -29.1897   19.8312 H   0  0  0  0  0  0
  -25.1335  -36.1764   25.0791 H   0  0  0  0  0  0
  -21.0034  -28.3366   24.1314 H   0  0  0  0  0  0
  -20.5680  -26.2372   23.3650 H   0  0  0  0  0  0
  -21.6660  -26.7408   22.1213 H   0  0  0  0  0  0
  -19.6932  -25.6270   21.1278 H   0  0  0  0  0  0
  -19.6713  -27.3156   20.6730 H   0  0  0  0  0  0
  -17.4224  -26.6684   21.4026 H   0  0  0  0  0  0
  -18.0348  -26.0094   22.9031 H   0  0  0  0  0  0
  -19.7968  -30.7324   24.2189 H   0  0  0  0  0  0
  -17.5037  -31.6271   24.5170 H   0  0  0  0  0  0
  -15.5374  -30.2972   23.7693 H   0  0  0  0  0  0
  -15.8704  -28.0810   22.7102 H   0  0  0  0  0  0
  -24.5869  -30.7126   25.7633 H   0  0  0  0  0  0
  -24.8852  -32.2985   26.4634 H   0  0  0  0  0  0
  -25.7896  -30.9019   27.0194 H   0  0  0  0  0  0
  -26.3128  -29.6561   24.1413 H   0  0  0  0  0  0
  -27.3980  -29.7270   25.5077 H   0  0  0  0  0  0
  -27.9071  -30.4079   23.9843 H   0  0  0  0  0  0
  -27.2611  -33.3684   26.1939 H   0  0  0  0  0  0
  -28.3919  -32.6830   25.0362 H   0  0  0  0  0  0
  -28.0643  -31.8547   26.5506 H   0  0  0  0  0  0
  -28.2571  -38.0072   24.7511 H   0  0  0  0  0  0
  -28.1087  -36.2597   24.6298 H   0  0  0  0  0  0
  -27.2285  -37.1408   25.8867 H   0  0  0  0  0  0
  -20.9602  -29.8714   21.6643 H   0  0  0  0  0  0
  -26.0133  -38.2764   24.1404 H   0  0  0  0  0  0
  -27.5433  -17.4999   17.6861 H   0  0  0  0  0  0
  -27.3622  -18.2827   19.2518 H   0  0  0  0  0  0
  -29.2529  -19.4235   18.0703 H   0  0  0  0  0  0
  -30.0097  -17.8721   17.7458 H   0  0  0  0  0  0
  -28.6640  -15.6788   18.5605 H   0  0  0  0  0  0
  -27.6813  -16.0873   20.0027 H   0  0  0  0  0  0
  -30.9890  -18.4141   19.8299 H   0  0  0  0  0  0
  -28.4474  -22.5864   21.6084 H   0  0  0  0  0  0
  -29.9299  -23.0291   20.8778 H   0  0  0  0  0  0
  -27.0987  -24.0104   19.9529 H   0  0  0  0  0  0
  -28.4353  -24.2007   18.8978 H   0  0  0  0  0  0
  -29.2758  -21.1503   19.0653 H   0  0  0  0  0  0
  1 25  1  0  0  0
  1 30  2  0  0  0
  1 78  1  0  0  0
  2  3  1  0  0  0
  2 25  1  0  0  0
  2 81  1  0  0  0
  2 82  1  0  0  0
  3  4  1  0  0  0
  3 83  1  0  0  0
  3 84  1  0  0  0
  4  5  1  0  0  0
  4 85  1  0  0  0
  4 86  1  0  0  0
  5  6  1  0  0  0
  5 26  1  0  0  0
  5 87  1  0  0  0
  6 25  1  0  0  0
  6 88  1  0  0  0
  6 89  1  0  0  0
  7  8  2  0  0  0
  7 26  1  0  0  0
  7 29  1  0  0  0
  8  9  1  0  0  0
  8 22  1  0  0  0
  9 10  1  0  0  0
  9 27  2  0  0  0
 10 11  2  0  0  0
 10 15  1  0  0  0
 11 12  1  0  0  0
 11 90  1  0  0  0
 12 13  2  0  0  0
 12 91  1  0  0  0
 13 14  1  0  0  0
 13 31  1  0  0  0
 14 15  2  0  0  0
 14 92  1  0  0  0
 15 93  1  0  0  0
 16 17  2  0  0  0
 16 21  1  0  0  0
 16 31  1  0  0  0
 17 18  1  0  0  0
 17 94  1  0  0  0
 18 19  2  0  0  0
 18 95  1  0  0  0
 19 20  1  0  0  0
 19 24  1  0  0  0
 20 21  2  0  0  0
 20 96  1  0  0  0
 21 23  1  0  0  0
 22 28  1  0  0  0
 22 32  2  0  0  0
 26 27  1  0  0  0
 28 97  1  0  0  0
 28 98  1  0  0  0
 29 99  1  0  0  0
 29100  1  0  0  0
 33 34  1  0  0  0
 33 66  1  0  0  0
 33 70  2  0  0  0
 34 36  1  0  0  0
 34 59  1  0  0  0
 34101  1  0  0  0
 35 44  2  0  0  0
 35 45  1  0  0  0
 35 68  1  0  0  0
 36 56  1  0  0  0
 36102  1  0  0  0
 37 39  1  0  0  0
 37 47  1  0  0  0
 37 66  1  0  0  0
 37103  1  0  0  0
 38 43  2  0  0  0
 38 46  1  0  0  0
 38 47  1  0  0  0
 39 64  1  0  0  0
 39 67  2  0  0  0
 40 52  1  0  0  0
 40 53  2  0  0  0
 40 58  1  0  0  0
 41104  1  0  0  0
 41105  1  0  0  0
 41106  1  0  0  0
 41 48  1  0  0  0
 42 43  1  0  0  0
 42 66  1  0  0  0
 42107  1  0  0  0
 42108  1  0  0  0
 43 44  1  0  0  0
 44109  1  0  0  0
 45 46  2  0  0  0
 45110  1  0  0  0
 46111  1  0  0  0
 47112  1  0  0  0
 47113  1  0  0  0
 48 56  1  0  0  0
 48 65  1  0  0  0
 48114  1  0  0  0
 49 50  1  0  0  0
 49 53  1  0  0  0
 49 64  1  0  0  0
 49115  1  0  0  0
 50 51  1  0  0  0
 50116  1  0  0  0
 50117  1  0  0  0
 51 52  1  0  0  0
 51118  1  0  0  0
 51119  1  0  0  0
 52120  1  0  0  0
 52121  1  0  0  0
 53 54  1  0  0  0
 54 55  2  0  0  0
 54122  1  0  0  0
 55 57  1  0  0  0
 55123  1  0  0  0
 56 69  2  0  0  0
 57 58  2  0  0  0
 57124  1  0  0  0
 58125  1  0  0  0
 59 60  1  0  0  0
 59 61  1  0  0  0
 59 62  1  0  0  0
 60126  1  0  0  0
 60127  1  0  0  0
 60128  1  0  0  0
 61129  1  0  0  0
 61130  1  0  0  0
 61131  1  0  0  0
 62132  1  0  0  0
 62133  1  0  0  0
 62134  1  0  0  0
 63 65  1  0  0  0
 63135  1  0  0  0
 63136  1  0  0  0
 63137  1  0  0  0
 64138  1  0  0  0
 65139  1  0  0  0
 68 77  1  0  0  0
 71 79  1  0  0  0
 71 80  2  0  0  0
 71 75  1  0  0  0
 72 73  1  0  0  0
 72 74  1  0  0  0
 72140  1  0  0  0
 72141  1  0  0  0
 73 75  1  0  0  0
 73142  1  0  0  0
 73143  1  0  0  0
 74 78  1  0  0  0
 74144  1  0  0  0
 74145  1  0  0  0
 75 78  1  0  0  0
 75146  1  0  0  0
 76 77  1  0  0  0
 76 79  1  0  0  0
 76147  1  0  0  0
 76148  1  0  0  0
 77149  1  0  0  0
 77150  1  0  0  0
 79151  1  0  0  0
M  ISO  4   1 100  68 101  77 101  78 100
M  END
> <chiral flag>
0

> <version>
0

> <s_m_source_file>
/data/baiqing/PycharmProjects/Reinvent-master-3.2/result/LINK_invent/BTK/process_docking_weight1_custom_sum_contain_oxygen_bond_distance_aromatic_linkinvent_7_9_3/rearranged_h_0111.sdf

> <i_m_source_file_index>
19

> <r_mmod_Potential_Energy-OPLS-2005>
1428.60339355469

> <r_mmod_Stretch_Energy-OPLS-2005>
636.473327636719

> <r_mmod_Bend_Energy-OPLS-2005>
507.500549316406

> <r_mmod_Torsional_Energy-OPLS-2005>
270.4462890625

> <r_mmod_Improper_Torsional_Energy-OPLS-2005>
10.1523065567017

> <r_mmod_Van_der_Waal_Energy-OPLS-2005>
120.580345153809

> <r_mmod_Electrostatic_Energy-OPLS-2005>
-379.536407470703

> <r_mmod_Solvation_Energy-OPLS-2005>
-247.910186767578

> <b_mmod_Minimization_Converged-OPLS-2005>
0

> <r_mmod_RMS_Derivative-OPLS-2005>
0.772704601287842

$$$$
19
                    3D
 Structure written by MMmdl.
158166  0  0  1  0            999 V2000
  -30.4092  -15.3427   20.3734 C   0  0  0  0  0  0
  -30.4383  -12.8715   19.5154 C   0  0  0  0  0  0
  -29.5363  -12.5906   18.2863 C   0  0  0  0  0  0
  -28.0901  -12.2972   18.7218 C   0  0  0  0  0  0
  -27.6066  -13.2799   19.8161 C   0  0  2  0  0  0
  -28.6408  -13.4893   20.9420 C   0  0  0  0  0  0
  -25.2374  -13.8246   20.5750 C   0  0  0  0  0  0
  -24.1737  -13.0430   20.9267 C   0  0  0  0  0  0
  -24.6401  -11.6931   20.8765 C   0  0  0  0  0  0
  -23.9097  -10.4290   21.0408 C   0  0  0  0  0  0
  -24.3639   -9.4202   21.9186 C   0  0  0  0  0  0
  -23.6304   -8.2243   22.0756 C   0  0  0  0  0  0
  -22.4285   -8.0285   21.3546 C   0  0  0  0  0  0
  -21.9930   -9.0259   20.4647 C   0  0  0  0  0  0
  -22.7268  -10.2134   20.3055 C   0  0  0  0  0  0
  -21.6856   -6.0738   22.5279 C   0  0  0  0  0  0
  -21.4018   -6.5641   23.8213 C   0  0  0  0  0  0
  -21.3660   -5.6792   24.9173 C   0  0  0  0  0  0
  -21.6042   -4.3055   24.7223 C   0  0  0  0  0  0
  -21.8819   -3.8148   23.4344 C   0  0  0  0  0  0
  -21.9194   -4.6965   22.3400 C   0  0  0  0  0  0
  -22.7753  -13.5182   21.1910 C   0  0  0  0  0  0
  -22.1661   -4.2150   21.0978 F   0  0  0  0  0  0
  -21.5627   -3.4539   25.7735 F   0  0  0  0  0  0
  -29.8534  -14.0257   20.2987 N   0  0  0  0  0  0
  -26.2801  -12.9530   20.3209 N   0  0  0  0  0  0
  -25.9339  -11.6631   20.5715 N   0  0  0  0  0  0
  -22.0409  -12.8163   22.0463 N   0  0  0  0  0  0
  -25.3984  -15.1983   20.4181 N   0  0  0  0  0  0
  -31.6419  -15.3270   20.2340 O   0  0  0  0  0  0
  -21.6645   -6.8884   21.4242 O   0  0  0  0  0  0
  -22.3431  -14.5480   20.6745 O   0  0  0  0  0  0
  -24.6678  -31.8189   23.1672 C   0  0  0  0  0  0
  -25.9336  -32.4564   23.8156 C   0  0  1  0  0  0
  -27.2150  -26.8724   20.2076 C   0  0  0  0  0  0
  -25.5986  -33.8382   24.2055 N   0  0  0  0  0  0
  -23.4857  -30.4290   21.5176 C   0  0  2  0  0  0
  -24.9396  -28.8034   20.1216 C   0  0  0  0  0  0
  -22.7694  -29.4416   22.4767 C   0  0  0  0  0  0
  -18.0329  -28.1413   22.8461 C   0  0  0  0  0  0
  -24.1494  -36.7196   23.2650 C   0  0  0  0  0  0
  -26.0582  -30.6080   21.4069 C   0  0  0  0  0  0
  -26.1256  -29.1899   20.7590 C   0  0  0  0  0  0
  -27.2597  -28.2490   20.7717 C   0  0  0  0  0  0
  -26.0022  -26.6569   19.5138 C   0  0  0  0  0  0
  -24.9055  -27.5571   19.4778 C   0  0  0  0  0  0
  -23.7306  -29.7403   20.1471 C   0  0  0  0  0  0
  -25.4136  -36.2952   24.0298 C   0  0  1  0  0  0
  -20.5958  -28.3760   23.1174 C   0  0  2  0  0  0
  -20.6806  -26.9436   22.5400 C   0  0  0  0  0  0
  -19.5779  -26.6373   21.5216 C   0  0  0  0  0  0
  -18.1960  -26.7946   22.1621 C   0  0  0  0  0  0
  -19.1592  -28.8907   23.2802 C   0  0  0  0  0  0
  -18.9501  -30.1494   23.8840 C   0  0  0  0  0  0
  -17.6493  -30.6598   24.0553 C   0  0  0  0  0  0
  -25.9103  -34.9337   23.4998 C   0  0  0  0  0  0
  -16.5382  -29.9083   23.6344 C   0  0  0  0  0  0
  -16.7311  -28.6506   23.0360 C   0  0  0  0  0  0
  -26.4568  -31.6529   25.0705 C   0  0  0  0  0  0
  -25.3676  -31.3798   26.1347 C   0  0  0  0  0  0
  -27.0480  -30.2891   24.6485 C   0  0  0  0  0  0
  -27.6048  -32.4353   25.7509 C   0  0  0  0  0  0
  -27.5567  -37.1757   24.8468 C   0  0  0  0  0  0
  -21.4360  -29.3041   22.3517 N   0  0  0  0  0  0
  -26.4279  -37.3692   23.9406 N   0  0  0  0  0  0
  -24.7591  -30.9803   22.0840 N   0  0  0  0  0  0
  -23.4214  -28.7989   23.3032 O   0  0  0  0  0  0
  -28.2156  -25.7437   20.1908 O   0  0  0  0  0  0
  -26.5719  -34.8879   22.4598 O   0  0  0  0  0  0
  -23.5732  -32.1187   23.6724 O   0  0  0  0  0  0
  -29.0298  -21.2296   20.7535 C   0  0  0  0  0  0
  -28.4210  -20.9446   18.2015 C   0  0  0  0  0  0
  -28.5440  -22.5559   20.1056 C   0  0  0  0  0  0
  -28.2655  -22.2575   18.7468 C   0  0  0  0  0  0
  -29.1867  -19.8159   20.1357 C   0  0  0  0  0  0
  -27.7409  -23.3553   17.8365 C   0  0  0  0  0  0
  -27.2917  -22.9400   23.6637 C   0  0  0  0  0  0
  -29.8749  -18.2810   20.6917 C   0  0  0  0  0  0
  -26.4581  -22.8878   22.3752 C   0  0  0  0  0  0
  -26.7102  -24.0697   21.4164 C   0  0  0  0  0  0
  -28.1048  -24.1608   20.7453 C   0  0  2  0  0  0
  -28.8401  -19.8058   18.8306 N   0  0  0  0  0  0
  -29.6401  -16.6285   20.4124 N   0  0  0  0  0  0
  -31.4485  -13.0992   19.1721 H   0  0  0  0  0  0
  -30.5354  -11.9815   20.1396 H   0  0  0  0  0  0
  -29.9317  -11.7574   17.7038 H   0  0  0  0  0  0
  -29.5474  -13.4591   17.6263 H   0  0  0  0  0  0
  -28.0626  -11.2781   19.1093 H   0  0  0  0  0  0
  -27.4190  -12.3168   17.8621 H   0  0  0  0  0  0
  -27.5085  -14.2368   19.3021 H   0  0  0  0  0  0
  -28.8350  -12.5652   21.4887 H   0  0  0  0  0  0
  -28.2666  -14.2100   21.6709 H   0  0  0  0  0  0
  -25.2780   -9.5677   22.4769 H   0  0  0  0  0  0
  -24.0005   -7.4636   22.7480 H   0  0  0  0  0  0
  -21.0859   -8.8788   19.8953 H   0  0  0  0  0  0
  -22.3728  -10.9677   19.6168 H   0  0  0  0  0  0
  -21.2013   -7.6149   23.9716 H   0  0  0  0  0  0
  -21.1481   -6.0522   25.9076 H   0  0  0  0  0  0
  -22.0597   -2.7610   23.2844 H   0  0  0  0  0  0
  -22.4041  -11.9832   22.4853 H   0  0  0  0  0  0
  -21.1024  -13.1177   22.2669 H   0  0  0  0  0  0
  -24.6240  -15.8440   20.5274 H   0  0  0  0  0  0
  -26.2327  -15.6413   20.0573 H   0  0  0  0  0  0
  -26.7408  -32.5088   23.0869 H   0  0  0  0  0  0
  -25.0085  -33.9458   25.0175 H   0  0  0  0  0  0
  -22.8020  -31.2621   21.3415 H   0  0  0  0  0  0
  -23.3766  -35.9518   23.3283 H   0  0  0  0  0  0
  -24.3567  -36.8874   22.2070 H   0  0  0  0  0  0
  -23.7246  -37.6373   23.6728 H   0  0  0  0  0  0
  -26.2437  -31.3434   20.6228 H   0  0  0  0  0  0
  -26.9162  -30.6698   22.0643 H   0  0  0  0  0  0
  -28.1623  -28.5517   21.2832 H   0  0  0  0  0  0
  -25.8762  -25.7135   19.0038 H   0  0  0  0  0  0
  -24.0087  -27.2555   18.9544 H   0  0  0  0  0  0
  -23.8961  -30.5066   19.3888 H   0  0  0  0  0  0
  -22.8389  -29.2004   19.8240 H   0  0  0  0  0  0
  -25.1338  -36.1742   25.0791 H   0  0  0  0  0  0
  -21.0045  -28.3365   24.1299 H   0  0  0  0  0  0
  -20.5689  -26.2379   23.3644 H   0  0  0  0  0  0
  -21.6667  -26.7408   22.1205 H   0  0  0  0  0  0
  -19.6939  -25.6270   21.1281 H   0  0  0  0  0  0
  -19.6717  -27.3153   20.6722 H   0  0  0  0  0  0
  -17.4230  -26.6688   21.4021 H   0  0  0  0  0  0
  -18.0343  -26.0103   22.9032 H   0  0  0  0  0  0
  -19.7977  -30.7325   24.2182 H   0  0  0  0  0  0
  -17.5045  -31.6273   24.5163 H   0  0  0  0  0  0
  -15.5379  -30.2963   23.7705 H   0  0  0  0  0  0
  -15.8715  -28.0806   22.7104 H   0  0  0  0  0  0
  -24.5876  -30.7132   25.7645 H   0  0  0  0  0  0
  -24.8845  -32.3006   26.4626 H   0  0  0  0  0  0
  -25.7885  -30.9055   27.0221 H   0  0  0  0  0  0
  -26.3169  -29.6539   24.1470 H   0  0  0  0  0  0
  -27.3971  -29.7285   25.5166 H   0  0  0  0  0  0
  -27.9122  -30.4062   23.9942 H   0  0  0  0  0  0
  -27.2615  -33.3709   26.1938 H   0  0  0  0  0  0
  -28.3932  -32.6827   25.0387 H   0  0  0  0  0  0
  -28.0638  -31.8583   26.5547 H   0  0  0  0  0  0
  -28.2565  -38.0068   24.7504 H   0  0  0  0  0  0
  -28.1082  -36.2592   24.6309 H   0  0  0  0  0  0
  -27.2282  -37.1414   25.8871 H   0  0  0  0  0  0
  -20.9625  -29.8726   21.6637 H   0  0  0  0  0  0
  -26.0119  -38.2751   24.1407 H   0  0  0  0  0  0
  -29.2858  -21.2974   21.8022 H   0  0  0  0  0  0
  -28.1758  -20.7892   17.1611 H   0  0  0  0  0  0
  -28.3589  -24.2506   17.9083 H   0  0  0  0  0  0
  -26.7182  -23.6173   18.1078 H   0  0  0  0  0  0
  -27.7381  -23.0431   16.7915 H   0  0  0  0  0  0
  -27.0177  -22.1239   24.3335 H   0  0  0  0  0  0
  -27.1316  -23.8743   24.2027 H   0  0  0  0  0  0
  -28.3586  -22.8496   23.4607 H   0  0  0  0  0  0
  -29.7910  -18.3591   21.7756 H   0  0  0  0  0  0
  -30.9417  -18.4126   20.5111 H   0  0  0  0  0  0
  -25.4038  -22.9003   22.6553 H   0  0  0  0  0  0
  -26.6039  -21.9339   21.8691 H   0  0  0  0  0  0
  -26.5041  -24.9902   21.9622 H   0  0  0  0  0  0
  -25.9619  -24.0126   20.6267 H   0  0  0  0  0  0
  -28.8123  -24.2221   21.5721 H   0  0  0  0  0  0
  -28.6515  -16.4354   20.3623 H   0  0  0  0  0  0
  1 25  1  0  0  0
  1 30  2  0  0  0
  1 83  1  0  0  0
  2  3  1  0  0  0
  2 25  1  0  0  0
  2 84  1  0  0  0
  2 85  1  0  0  0
  3  4  1  0  0  0
  3 86  1  0  0  0
  3 87  1  0  0  0
  4  5  1  0  0  0
  4 88  1  0  0  0
  4 89  1  0  0  0
  5  6  1  0  0  0
  5 26  1  0  0  0
  5 90  1  0  0  0
  6 25  1  0  0  0
  6 91  1  0  0  0
  6 92  1  0  0  0
  7  8  2  0  0  0
  7 26  1  0  0  0
  7 29  1  0  0  0
  8  9  1  0  0  0
  8 22  1  0  0  0
  9 10  1  0  0  0
  9 27  2  0  0  0
 10 11  2  0  0  0
 10 15  1  0  0  0
 11 12  1  0  0  0
 11 93  1  0  0  0
 12 13  2  0  0  0
 12 94  1  0  0  0
 13 14  1  0  0  0
 13 31  1  0  0  0
 14 15  2  0  0  0
 14 95  1  0  0  0
 15 96  1  0  0  0
 16 17  2  0  0  0
 16 21  1  0  0  0
 16 31  1  0  0  0
 17 18  1  0  0  0
 17 97  1  0  0  0
 18 19  2  0  0  0
 18 98  1  0  0  0
 19 20  1  0  0  0
 19 24  1  0  0  0
 20 21  2  0  0  0
 20 99  1  0  0  0
 21 23  1  0  0  0
 22 28  1  0  0  0
 22 32  2  0  0  0
 26 27  1  0  0  0
 28100  1  0  0  0
 28101  1  0  0  0
 29102  1  0  0  0
 29103  1  0  0  0
 33 34  1  0  0  0
 33 66  1  0  0  0
 33 70  2  0  0  0
 34 36  1  0  0  0
 34 59  1  0  0  0
 34104  1  0  0  0
 35 44  2  0  0  0
 35 45  1  0  0  0
 35 68  1  0  0  0
 36 56  1  0  0  0
 36105  1  0  0  0
 37 39  1  0  0  0
 37 47  1  0  0  0
 37 66  1  0  0  0
 37106  1  0  0  0
 38 43  2  0  0  0
 38 46  1  0  0  0
 38 47  1  0  0  0
 39 64  1  0  0  0
 39 67  2  0  0  0
 40 52  1  0  0  0
 40 53  2  0  0  0
 40 58  1  0  0  0
 41107  1  0  0  0
 41108  1  0  0  0
 41109  1  0  0  0
 41 48  1  0  0  0
 42 43  1  0  0  0
 42 66  1  0  0  0
 42110  1  0  0  0
 42111  1  0  0  0
 43 44  1  0  0  0
 44112  1  0  0  0
 45 46  2  0  0  0
 45113  1  0  0  0
 46114  1  0  0  0
 47115  1  0  0  0
 47116  1  0  0  0
 48 56  1  0  0  0
 48 65  1  0  0  0
 48117  1  0  0  0
 49 50  1  0  0  0
 49 53  1  0  0  0
 49 64  1  0  0  0
 49118  1  0  0  0
 50 51  1  0  0  0
 50119  1  0  0  0
 50120  1  0  0  0
 51 52  1  0  0  0
 51121  1  0  0  0
 51122  1  0  0  0
 52123  1  0  0  0
 52124  1  0  0  0
 53 54  1  0  0  0
 54 55  2  0  0  0
 54125  1  0  0  0
 55 57  1  0  0  0
 55126  1  0  0  0
 56 69  2  0  0  0
 57 58  2  0  0  0
 57127  1  0  0  0
 58128  1  0  0  0
 59 60  1  0  0  0
 59 61  1  0  0  0
 59 62  1  0  0  0
 60129  1  0  0  0
 60130  1  0  0  0
 60131  1  0  0  0
 61132  1  0  0  0
 61133  1  0  0  0
 61134  1  0  0  0
 62135  1  0  0  0
 62136  1  0  0  0
 62137  1  0  0  0
 63 65  1  0  0  0
 63138  1  0  0  0
 63139  1  0  0  0
 63140  1  0  0  0
 64141  1  0  0  0
 65142  1  0  0  0
 68 81  1  0  0  0
 71 73  2  0  0  0
 71 75  1  0  0  0
 71143  1  0  0  0
 72 74  2  0  0  0
 72 82  1  0  0  0
 72144  1  0  0  0
 73 74  1  0  0  0
 73 81  1  0  0  0
 74 76  1  0  0  0
 75 78  1  0  0  0
 75 82  2  0  0  0
 76145  1  0  0  0
 76146  1  0  0  0
 76147  1  0  0  0
 77 79  1  0  0  0
 77148  1  0  0  0
 77149  1  0  0  0
 77150  1  0  0  0
 78 83  1  0  0  0
 78151  1  0  0  0
 78152  1  0  0  0
 79 80  1  0  0  0
 79153  1  0  0  0
 79154  1  0  0  0
 80155  1  0  0  0
 80156  1  0  0  0
 80 81  1  0  0  0
 81157  1  0  0  0
 83158  1  0  0  0
M  ISO  4   1 100  68 101  81 101  83 100
M  END
> <chiral flag>
0

> <version>
0

> <s_m_source_file>
/data/baiqing/PycharmProjects/Reinvent-master-3.2/result/LINK_invent/BTK/process_docking_weight1_custom_sum_contain_oxygen_bond_distance_aromatic_linkinvent_7_9_3/rearranged_h_0111.sdf

> <i_m_source_file_index>
20

> <r_mmod_Potential_Energy-OPLS-2005>
1225.91687011719

> <r_mmod_Stretch_Energy-OPLS-2005>
650.132141113281

> <r_mmod_Bend_Energy-OPLS-2005>
460.513397216797

> <r_mmod_Torsional_Energy-OPLS-2005>
247.77734375

> <r_mmod_Improper_Torsional_Energy-OPLS-2005>
5.53541946411133

> <r_mmod_Van_der_Waal_Energy-OPLS-2005>
123.683731079102

> <r_mmod_Electrostatic_Energy-OPLS-2005>
-577.167419433594

> <r_mmod_Solvation_Energy-OPLS-2005>
-225.880905151367

> <b_mmod_Minimization_Converged-OPLS-2005>
0

> <r_mmod_RMS_Derivative-OPLS-2005>
0.551694333553314

$$$$
20
                    3D
 Structure written by MMmdl.
167175  0  0  1  0            999 V2000
  -30.5125  -15.1114   20.4117 C   0  0  0  0  0  0
  -30.4379  -12.7016   19.5265 C   0  0  0  0  0  0
  -29.5350  -12.5303   18.2822 C   0  0  0  0  0  0
  -28.0815  -12.2691   18.7148 C   0  0  0  0  0  0
  -27.6163  -13.2538   19.8165 C   0  0  2  0  0  0
  -28.6440  -13.3968   20.9565 C   0  0  0  0  0  0
  -25.2436  -13.8214   20.5698 C   0  0  0  0  0  0
  -24.1748  -13.0429   20.9209 C   0  0  0  0  0  0
  -24.6370  -11.6928   20.8748 C   0  0  0  0  0  0
  -23.9059  -10.4295   21.0418 C   0  0  0  0  0  0
  -24.3615   -9.4212   21.9198 C   0  0  0  0  0  0
  -23.6281   -8.2250   22.0772 C   0  0  0  0  0  0
  -22.4256   -8.0295   21.3562 C   0  0  0  0  0  0
  -21.9887   -9.0270   20.4668 C   0  0  0  0  0  0
  -22.7227  -10.2147   20.3070 C   0  0  0  0  0  0
  -21.6845   -6.0735   22.5286 C   0  0  0  0  0  0
  -21.4010   -6.5640   23.8224 C   0  0  0  0  0  0
  -21.3665   -5.6792   24.9189 C   0  0  0  0  0  0
  -21.6041   -4.3052   24.7234 C   0  0  0  0  0  0
  -21.8822   -3.8143   23.4350 C   0  0  0  0  0  0
  -21.9183   -4.6958   22.3408 C   0  0  0  0  0  0
  -22.7776  -13.5238   21.1844 C   0  0  0  0  0  0
  -22.1656   -4.2155   21.0982 F   0  0  0  0  0  0
  -21.5632   -3.4530   25.7740 F   0  0  0  0  0  0
  -29.9000  -13.8438   20.3412 N   0  0  0  0  0  0
  -26.2823  -12.9432   20.3144 N   0  0  0  0  0  0
  -25.9292  -11.6568   20.5703 N   0  0  0  0  0  0
  -22.0408  -12.8268   22.0432 N   0  0  0  0  0  0
  -25.4116  -15.1942   20.4194 N   0  0  0  0  0  0
  -31.7309  -15.0925   20.1847 O   0  0  0  0  0  0
  -21.6623   -6.8878   21.4251 O   0  0  0  0  0  0
  -22.3478  -14.5532   20.6676 O   0  0  0  0  0  0
  -24.6547  -31.8350   23.1773 C   0  0  0  0  0  0
  -25.9271  -32.4652   23.8203 C   0  0  1  0  0  0
  -27.2078  -27.0181   20.1871 C   0  0  0  0  0  0
  -25.5978  -33.8454   24.2138 N   0  0  0  0  0  0
  -23.4637  -30.4518   21.5222 C   0  0  2  0  0  0
  -24.9162  -28.8590   20.1040 C   0  0  0  0  0  0
  -22.7625  -29.4516   22.4775 C   0  0  0  0  0  0
  -18.0320  -28.1382   22.8478 C   0  0  0  0  0  0
  -24.1488  -36.7228   23.2644 C   0  0  0  0  0  0
  -26.0263  -30.6722   21.3943 C   0  0  0  0  0  0
  -26.0937  -29.2713   20.7397 C   0  0  0  0  0  0
  -27.2377  -28.3698   20.7580 C   0  0  0  0  0  0
  -26.0052  -26.7353   19.5014 C   0  0  0  0  0  0
  -24.8944  -27.6115   19.4616 C   0  0  0  0  0  0
  -23.6983  -29.7756   20.1424 C   0  0  0  0  0  0
  -25.4125  -36.3009   24.0318 C   0  0  1  0  0  0
  -20.5936  -28.3734   23.1187 C   0  0  2  0  0  0
  -20.6779  -26.9408   22.5408 C   0  0  0  0  0  0
  -19.5752  -26.6349   21.5220 C   0  0  0  0  0  0
  -18.1942  -26.7917   22.1633 C   0  0  0  0  0  0
  -19.1575  -28.8878   23.2830 C   0  0  0  0  0  0
  -18.9489  -30.1463   23.8869 C   0  0  0  0  0  0
  -17.6478  -30.6578   24.0550 C   0  0  0  0  0  0
  -25.9084  -34.9388   23.5044 C   0  0  0  0  0  0
  -16.5375  -29.9065   23.6315 C   0  0  0  0  0  0
  -16.7303  -28.6476   23.0365 C   0  0  0  0  0  0
  -26.4553  -31.6553   25.0689 C   0  0  0  0  0  0
  -25.3686  -31.3777   26.1349 C   0  0  0  0  0  0
  -27.0427  -30.2934   24.6344 C   0  0  0  0  0  0
  -27.6092  -32.4317   25.7458 C   0  0  0  0  0  0
  -27.5575  -37.1776   24.8472 C   0  0  0  0  0  0
  -21.4299  -29.3067   22.3553 N   0  0  0  0  0  0
  -26.4285  -37.3735   23.9412 N   0  0  0  0  0  0
  -24.7354  -31.0108   22.0860 N   0  0  0  0  0  0
  -23.4234  -28.8075   23.2968 O   0  0  0  0  0  0
  -28.2195  -25.9570   20.2878 O   0  0  0  0  0  0
  -26.5676  -34.8911   22.4628 O   0  0  0  0  0  0
  -23.5635  -32.1282   23.6916 O   0  0  0  0  0  0
  -29.1126  -18.8643   21.6046 C   0  0  0  0  0  0
  -29.1575  -18.8756   19.2829 C   0  0  0  0  0  0
  -29.8952  -17.4025   21.5999 C   0  0  0  0  0  0
  -29.9346  -17.4144   19.3110 C   0  0  0  0  0  0
  -29.3131  -19.9761   20.4495 C   0  0  0  0  0  0
  -24.0146  -21.9826   22.8672 C   0  0  0  0  0  0
  -24.8143  -21.2357   21.7852 C   0  0  0  0  0  0
  -28.8296  -22.9212   20.5409 C   0  0  0  0  0  0
  -27.0072  -21.0940   20.4772 C   0  0  0  0  0  0
  -27.9244  -24.3826   20.1362 C   0  0  0  0  0  0
  -26.3224  -21.5740   21.7850 C   0  0  2  0  0  0
  -29.8041  -16.3980   20.4482 N   0  0  0  0  0  0
  -28.4535  -21.3529   20.3949 N   0  0  0  0  0  0
  -26.9956  -21.0284   22.9743 N   0  3  0  0  0  0
  -31.4659  -12.8796   19.2058 H   0  0  0  0  0  0
  -30.4655  -11.7858   20.1206 H   0  0  0  0  0  0
  -29.8975  -11.7128   17.6552 H   0  0  0  0  0  0
  -29.5831  -13.4287   17.6655 H   0  0  0  0  0  0
  -28.0381  -11.2497   19.1040 H   0  0  0  0  0  0
  -27.4118  -12.2981   17.8555 H   0  0  0  0  0  0
  -27.5484  -14.2229   19.3207 H   0  0  0  0  0  0
  -28.7664  -12.4586   21.5000 H   0  0  0  0  0  0
  -28.3030  -14.1399   21.6792 H   0  0  0  0  0  0
  -25.2775   -9.5678   22.4759 H   0  0  0  0  0  0
  -23.9990   -7.4633   22.7487 H   0  0  0  0  0  0
  -21.0812   -8.8792   19.8978 H   0  0  0  0  0  0
  -22.3692  -10.9680   19.6175 H   0  0  0  0  0  0
  -21.2016   -7.6152   23.9734 H   0  0  0  0  0  0
  -21.1469   -6.0520   25.9095 H   0  0  0  0  0  0
  -22.0586   -2.7599   23.2848 H   0  0  0  0  0  0
  -22.3996  -11.9970   22.4905 H   0  0  0  0  0  0
  -21.1048  -13.1363   22.2616 H   0  0  0  0  0  0
  -24.6430  -15.8445   20.5380 H   0  0  0  0  0  0
  -26.2706  -15.6426   20.1266 H   0  0  0  0  0  0
  -26.7335  -32.5220   23.0916 H   0  0  0  0  0  0
  -25.0098  -33.9532   25.0273 H   0  0  0  0  0  0
  -22.7724  -31.2813   21.3591 H   0  0  0  0  0  0
  -23.3773  -35.9537   23.3293 H   0  0  0  0  0  0
  -24.3567  -36.8874   22.2057 H   0  0  0  0  0  0
  -23.7217  -37.6412   23.6687 H   0  0  0  0  0  0
  -26.1947  -31.4164   20.6137 H   0  0  0  0  0  0
  -26.8915  -30.7259   22.0437 H   0  0  0  0  0  0
  -28.1263  -28.6790   21.2900 H   0  0  0  0  0  0
  -25.8849  -25.7771   19.0181 H   0  0  0  0  0  0
  -23.9994  -27.2989   18.9411 H   0  0  0  0  0  0
  -23.8399  -30.5461   19.3838 H   0  0  0  0  0  0
  -22.8116  -29.2216   19.8293 H   0  0  0  0  0  0
  -25.1314  -36.1833   25.0812 H   0  0  0  0  0  0
  -21.0053  -28.3338   24.1297 H   0  0  0  0  0  0
  -20.5580  -26.2383   23.3668 H   0  0  0  0  0  0
  -21.6656  -26.7313   22.1273 H   0  0  0  0  0  0
  -19.6887  -25.6240   21.1296 H   0  0  0  0  0  0
  -19.6685  -27.3120   20.6715 H   0  0  0  0  0  0
  -17.4215  -26.6675   21.4038 H   0  0  0  0  0  0
  -18.0317  -26.0055   22.9013 H   0  0  0  0  0  0
  -19.7967  -30.7274   24.2251 H   0  0  0  0  0  0
  -17.5031  -31.6259   24.5152 H   0  0  0  0  0  0
  -15.5375  -30.2963   23.7623 H   0  0  0  0  0  0
  -15.8710  -28.0762   22.7111 H   0  0  0  0  0  0
  -24.5901  -30.7103   25.7644 H   0  0  0  0  0  0
  -24.8835  -32.2964   26.4644 H   0  0  0  0  0  0
  -25.7913  -30.9026   27.0207 H   0  0  0  0  0  0
  -26.3066  -29.6630   24.1347 H   0  0  0  0  0  0
  -27.4006  -29.7274   25.4955 H   0  0  0  0  0  0
  -27.8989  -30.4157   23.9706 H   0  0  0  0  0  0
  -27.2730  -33.3669   26.1933 H   0  0  0  0  0  0
  -28.3934  -32.6780   25.0290 H   0  0  0  0  0  0
  -28.0721  -31.8500   26.5437 H   0  0  0  0  0  0
  -28.2602  -38.0065   24.7518 H   0  0  0  0  0  0
  -28.1068  -36.2602   24.6307 H   0  0  0  0  0  0
  -27.2295  -37.1424   25.8877 H   0  0  0  0  0  0
  -20.9517  -29.8818   21.6753 H   0  0  0  0  0  0
  -26.0157  -38.2810   24.1411 H   0  0  0  0  0  0
  -29.3574  -19.3398   22.5547 H   0  0  0  0  0  0
  -28.0503  -18.6307   21.6694 H   0  0  0  0  0  0
  -28.0981  -18.6482   19.1757 H   0  0  0  0  0  0
  -29.4212  -19.3606   18.3423 H   0  0  0  0  0  0
  -30.9572  -17.6000   21.7621 H   0  0  0  0  0  0
  -29.5801  -16.8644   22.4953 H   0  0  0  0  0  0
  -31.0020  -17.5948   19.1732 H   0  0  0  0  0  0
  -29.6333  -16.8824   18.4081 H   0  0  0  0  0  0
  -30.3595  -20.2855   20.4653 H   0  0  0  0  0  0
  -24.4161  -21.8199   23.8672 H   0  0  0  0  0  0
  -22.9745  -21.6543   22.8849 H   0  0  0  0  0  0
  -24.0122  -23.0566   22.6773 H   0  0  0  0  0  0
  -24.3918  -21.5022   20.8137 H   0  0  0  0  0  0
  -24.6613  -20.1609   21.8804 H   0  0  0  0  0  0
  -29.0652  -23.0341   21.5996 H   0  0  0  0  0  0
  -29.7947  -23.0228   20.0449 H   0  0  0  0  0  0
  -26.5352  -21.6097   19.6402 H   0  0  0  0  0  0
  -26.7969  -20.0363   20.3184 H   0  0  0  0  0  0
  -26.9688  -24.2866   20.6432 H   0  0  0  0  0  0
  -27.6782  -24.2621   19.0817 H   0  0  0  0  0  0
  -26.4058  -22.6529   21.8530 H   0  0  0  0  0  0
  -26.8621  -20.0368   23.0585 H   0  0  0  0  0  0
  -26.6571  -21.4756   23.8083 H   0  0  0  0  0  0
  -27.9779  -21.2208   22.8900 H   0  0  0  0  0  0
  1 25  1  0  0  0
  1 30  2  0  0  0
  1 82  1  0  0  0
  2  3  1  0  0  0
  2 25  1  0  0  0
  2 85  1  0  0  0
  2 86  1  0  0  0
  3  4  1  0  0  0
  3 87  1  0  0  0
  3 88  1  0  0  0
  4  5  1  0  0  0
  4 89  1  0  0  0
  4 90  1  0  0  0
  5  6  1  0  0  0
  5 26  1  0  0  0
  5 91  1  0  0  0
  6 25  1  0  0  0
  6 92  1  0  0  0
  6 93  1  0  0  0
  7  8  2  0  0  0
  7 26  1  0  0  0
  7 29  1  0  0  0
  8  9  1  0  0  0
  8 22  1  0  0  0
  9 10  1  0  0  0
  9 27  2  0  0  0
 10 11  2  0  0  0
 10 15  1  0  0  0
 11 12  1  0  0  0
 11 94  1  0  0  0
 12 13  2  0  0  0
 12 95  1  0  0  0
 13 14  1  0  0  0
 13 31  1  0  0  0
 14 15  2  0  0  0
 14 96  1  0  0  0
 15 97  1  0  0  0
 16 17  2  0  0  0
 16 21  1  0  0  0
 16 31  1  0  0  0
 17 18  1  0  0  0
 17 98  1  0  0  0
 18 19  2  0  0  0
 18 99  1  0  0  0
 19 20  1  0  0  0
 19 24  1  0  0  0
 20 21  2  0  0  0
 20100  1  0  0  0
 21 23  1  0  0  0
 22 28  1  0  0  0
 22 32  2  0  0  0
 26 27  1  0  0  0
 28101  1  0  0  0
 28102  1  0  0  0
 29103  1  0  0  0
 29104  1  0  0  0
 33 34  1  0  0  0
 33 66  1  0  0  0
 33 70  2  0  0  0
 34 36  1  0  0  0
 34 59  1  0  0  0
 34105  1  0  0  0
 35 44  2  0  0  0
 35 45  1  0  0  0
 35 68  1  0  0  0
 36 56  1  0  0  0
 36106  1  0  0  0
 37 39  1  0  0  0
 37 47  1  0  0  0
 37 66  1  0  0  0
 37107  1  0  0  0
 38 43  2  0  0  0
 38 46  1  0  0  0
 38 47  1  0  0  0
 39 64  1  0  0  0
 39 67  2  0  0  0
 40 52  1  0  0  0
 40 53  2  0  0  0
 40 58  1  0  0  0
 41108  1  0  0  0
 41109  1  0  0  0
 41110  1  0  0  0
 41 48  1  0  0  0
 42 43  1  0  0  0
 42 66  1  0  0  0
 42111  1  0  0  0
 42112  1  0  0  0
 43 44  1  0  0  0
 44113  1  0  0  0
 45 46  2  0  0  0
 45114  1  0  0  0
 46115  1  0  0  0
 47116  1  0  0  0
 47117  1  0  0  0
 48 56  1  0  0  0
 48 65  1  0  0  0
 48118  1  0  0  0
 49 50  1  0  0  0
 49 53  1  0  0  0
 49 64  1  0  0  0
 49119  1  0  0  0
 50 51  1  0  0  0
 50120  1  0  0  0
 50121  1  0  0  0
 51 52  1  0  0  0
 51122  1  0  0  0
 51123  1  0  0  0
 52124  1  0  0  0
 52125  1  0  0  0
 53 54  1  0  0  0
 54 55  2  0  0  0
 54126  1  0  0  0
 55 57  1  0  0  0
 55127  1  0  0  0
 56 69  2  0  0  0
 57 58  2  0  0  0
 57128  1  0  0  0
 58129  1  0  0  0
 59 60  1  0  0  0
 59 61  1  0  0  0
 59 62  1  0  0  0
 60130  1  0  0  0
 60131  1  0  0  0
 60132  1  0  0  0
 61133  1  0  0  0
 61134  1  0  0  0
 61135  1  0  0  0
 62136  1  0  0  0
 62137  1  0  0  0
 62138  1  0  0  0
 63 65  1  0  0  0
 63139  1  0  0  0
 63140  1  0  0  0
 63141  1  0  0  0
 64142  1  0  0  0
 65143  1  0  0  0
 68 80  1  0  0  0
 71 73  1  0  0  0
 71 75  1  0  0  0
 71144  1  0  0  0
 71145  1  0  0  0
 72 74  1  0  0  0
 72 75  1  0  0  0
 72146  1  0  0  0
 72147  1  0  0  0
 73 82  1  0  0  0
 73148  1  0  0  0
 73149  1  0  0  0
 74 82  1  0  0  0
 74150  1  0  0  0
 74151  1  0  0  0
 75 83  1  0  0  0
 75152  1  0  0  0
 76 77  1  0  0  0
 76153  1  0  0  0
 76154  1  0  0  0
 76155  1  0  0  0
 77 81  1  0  0  0
 77156  1  0  0  0
 77157  1  0  0  0
 78 80  1  0  0  0
 78 83  1  0  0  0
 78158  1  0  0  0
 78159  1  0  0  0
 79 81  1  0  0  0
 79 83  1  0  0  0
 79160  1  0  0  0
 79161  1  0  0  0
 80162  1  0  0  0
 80163  1  0  0  0
 81 84  1  0  0  0
 81164  1  0  0  0
 84165  1  0  0  0
 84166  1  0  0  0
 84167  1  0  0  0
M  CHG  1  84   1
M  ISO  4   1 100  68 101  80 101  82 100
M  END
> <chiral flag>
0

> <version>
0

> <s_m_source_file>
/data/baiqing/PycharmProjects/Reinvent-master-3.2/result/LINK_invent/BTK/process_docking_weight1_custom_sum_contain_oxygen_bond_distance_aromatic_linkinvent_7_9_3/rearranged_h_0111.sdf

> <i_m_source_file_index>
21

> <r_mmod_Potential_Energy-OPLS-2005>
931.382934570312

> <r_mmod_Stretch_Energy-OPLS-2005>
407.938629150391

> <r_mmod_Bend_Energy-OPLS-2005>
434.804504394531

> <r_mmod_Torsional_Energy-OPLS-2005>
351.540222167969

> <r_mmod_Improper_Torsional_Energy-OPLS-2005>
11.8624410629272

> <r_mmod_Van_der_Waal_Energy-OPLS-2005>
114.643241882324

> <r_mmod_Electrostatic_Energy-OPLS-2005>
-249.441909790039

> <r_mmod_Solvation_Energy-OPLS-2005>
-465.080047607422

> <b_mmod_Minimization_Converged-OPLS-2005>
0

> <r_mmod_RMS_Derivative-OPLS-2005>
3.35520648956299

$$$$
21
                    3D
 Structure written by MMmdl.
155163  0  0  1  0            999 V2000
  -30.7489  -14.5549   20.5412 C   0  0  0  0  0  0
  -30.4142  -12.3564   19.4475 C   0  0  0  0  0  0
  -29.4935  -12.4840   18.2173 C   0  0  0  0  0  0
  -28.0210  -12.3245   18.6367 C   0  0  0  0  0  0
  -27.6502  -13.2104   19.8543 C   0  0  2  0  0  0
  -28.7011  -13.1132   20.9867 C   0  0  0  0  0  0
  -25.2571  -13.8127   20.5702 C   0  0  0  0  0  0
  -24.1834  -13.0416   20.9175 C   0  0  0  0  0  0
  -24.6385  -11.6876   20.8719 C   0  0  0  0  0  0
  -23.9053  -10.4277   21.0388 C   0  0  0  0  0  0
  -24.3609   -9.4217   21.9182 C   0  0  0  0  0  0
  -23.6306   -8.2245   22.0750 C   0  0  0  0  0  0
  -22.4290   -8.0271   21.3539 C   0  0  0  0  0  0
  -21.9905   -9.0234   20.4639 C   0  0  0  0  0  0
  -22.7214  -10.2122   20.3050 C   0  0  0  0  0  0
  -21.6865   -6.0737   22.5281 C   0  0  0  0  0  0
  -21.4024   -6.5640   23.8205 C   0  0  0  0  0  0
  -21.3664   -5.6789   24.9172 C   0  0  0  0  0  0
  -21.6056   -4.3050   24.7231 C   0  0  0  0  0  0
  -21.8824   -3.8147   23.4351 C   0  0  0  0  0  0
  -21.9202   -4.6969   22.3411 C   0  0  0  0  0  0
  -22.7871  -13.5233   21.1848 C   0  0  0  0  0  0
  -22.1656   -4.2149   21.0993 F   0  0  0  0  0  0
  -21.5638   -3.4536   25.7743 F   0  0  0  0  0  0
  -30.0220  -13.4033   20.4100 N   0  0  0  0  0  0
  -26.2995  -12.9303   20.3339 N   0  0  0  0  0  0
  -25.9324  -11.6464   20.5785 N   0  0  0  0  0  0
  -22.0488  -12.8246   22.0409 N   0  0  0  0  0  0
  -25.4287  -15.1843   20.4170 N   0  0  0  0  0  0
  -31.9103  -14.6357   20.1456 O   0  0  0  0  0  0
  -21.6652   -6.8872   21.4244 O   0  0  0  0  0  0
  -22.3592  -14.5576   20.6716 O   0  0  0  0  0  0
  -24.6229  -31.8651   23.2086 C   0  0  0  0  0  0
  -25.9109  -32.4806   23.8381 C   0  0  1  0  0  0
  -27.2160  -27.3712   20.1126 C   0  0  0  0  0  0
  -25.5968  -33.8600   24.2323 N   0  0  0  0  0  0
  -23.4113  -30.4936   21.5511 C   0  0  2  0  0  0
  -24.8523  -28.9614   20.1103 C   0  0  0  0  0  0
  -22.7452  -29.4647   22.4949 C   0  0  0  0  0  0
  -18.0288  -28.1379   22.8498 C   0  0  0  0  0  0
  -24.1488  -36.7287   23.2629 C   0  0  0  0  0  0
  -25.9487  -30.8142   21.3691 C   0  0  0  0  0  0
  -26.0207  -29.4495   20.7077 C   0  0  0  0  0  0
  -27.2068  -28.6665   20.6997 C   0  0  0  0  0  0
  -26.0273  -26.9299   19.4809 C   0  0  0  0  0  0
  -24.8532  -27.7032   19.4907 C   0  0  0  0  0  0
  -23.6215  -29.8393   20.1618 C   0  0  0  0  0  0
  -25.4114  -36.3095   24.0332 C   0  0  1  0  0  0
  -20.5887  -28.3669   23.1295 C   0  0  2  0  0  0
  -20.6781  -26.9394   22.5411 C   0  0  0  0  0  0
  -19.5745  -26.6385   21.5221 C   0  0  0  0  0  0
  -18.1928  -26.7932   22.1632 C   0  0  0  0  0  0
  -19.1540  -28.8844   23.2897 C   0  0  0  0  0  0
  -18.9456  -30.1458   23.8892 C   0  0  0  0  0  0
  -17.6452  -30.6574   24.0566 C   0  0  0  0  0  0
  -25.9050  -34.9461   23.5113 C   0  0  0  0  0  0
  -16.5346  -29.9068   23.6330 C   0  0  0  0  0  0
  -16.7278  -28.6494   23.0341 C   0  0  0  0  0  0
  -26.4512  -31.6585   25.0713 C   0  0  0  0  0  0
  -25.3773  -31.3691   26.1454 C   0  0  0  0  0  0
  -27.0329  -30.3021   24.6110 C   0  0  0  0  0  0
  -27.6087  -32.4295   25.7485 C   0  0  0  0  0  0
  -27.5580  -37.1803   24.8468 C   0  0  0  0  0  0
  -21.4176  -29.3025   22.3690 N   0  0  0  0  0  0
  -26.4295  -37.3784   23.9412 N   0  0  0  0  0  0
  -24.6803  -31.0722   22.1006 N   0  0  0  0  0  0
  -23.4205  -28.8166   23.2985 O   0  0  0  0  0  0
  -28.3405  -26.5467   20.1898 O   0  0  0  0  0  0
  -26.5579  -34.8923   22.4657 O   0  0  0  0  0  0
  -23.5415  -32.1406   23.7475 O   0  0  0  0  0  0
  -29.7407  -18.9919   20.9762 C   0  0  0  0  0  0
  -28.3409  -19.9554   19.5313 C   0  0  0  0  0  0
  -29.2363  -20.2681   20.5126 C   0  0  0  0  0  0
  -29.1139  -17.9581   20.2940 C   0  0  0  0  0  0
  -27.3370  -17.9536   18.4563 C   0  0  0  0  0  0
  -29.1185  -16.4158   20.3231 C   0  0  0  0  0  0
  -29.1373  -24.1105   20.7043 C   0  0  0  0  0  0
  -28.0954  -25.1096   20.0962 C   0  0  0  0  0  0
  -28.6236  -22.6256   20.6850 C   0  0  0  0  0  0
  -28.2470  -18.5861   19.4007 N   0  0  0  0  0  0
  -30.1688  -15.6737   21.0445 N   0  0  0  0  0  0
  -29.5850  -21.5567   20.9342 O   0  0  0  0  0  0
  -31.4598  -12.4324   19.1461 H   0  0  0  0  0  0
  -30.3073  -11.3713   19.9030 H   0  0  0  0  0  0
  -29.7507  -11.7262   17.4735 H   0  0  0  0  0  0
  -29.6394  -13.4523   17.7363 H   0  0  0  0  0  0
  -27.8608  -11.2733   18.8783 H   0  0  0  0  0  0
  -27.3628  -12.5435   17.7952 H   0  0  0  0  0  0
  -27.6518  -14.2309   19.4815 H   0  0  0  0  0  0
  -28.7011  -12.1177   21.4303 H   0  0  0  0  0  0
  -28.4591  -13.8073   21.7931 H   0  0  0  0  0  0
  -25.2734   -9.5731   22.4775 H   0  0  0  0  0  0
  -24.0023   -7.4660   22.7475 H   0  0  0  0  0  0
  -21.0835   -8.8757   19.8961 H   0  0  0  0  0  0
  -22.3657  -10.9675   19.6187 H   0  0  0  0  0  0
  -21.2001   -7.6138   23.9704 H   0  0  0  0  0  0
  -21.1482   -6.0522   25.9075 H   0  0  0  0  0  0
  -22.0593   -2.7607   23.2858 H   0  0  0  0  0  0
  -22.4060  -11.9923   22.4839 H   0  0  0  0  0  0
  -21.1110  -13.1306   22.2559 H   0  0  0  0  0  0
  -24.6655  -15.8390   20.5536 H   0  0  0  0  0  0
  -26.2940  -15.6252   20.1429 H   0  0  0  0  0  0
  -26.7176  -32.5478   23.1128 H   0  0  0  0  0  0
  -25.0222  -33.9765   25.0543 H   0  0  0  0  0  0
  -22.7030  -31.3145   21.4189 H   0  0  0  0  0  0
  -23.3759  -35.9611   23.3306 H   0  0  0  0  0  0
  -24.3572  -36.8882   22.2037 H   0  0  0  0  0  0
  -23.7243  -37.6500   23.6627 H   0  0  0  0  0  0
  -26.0775  -31.5831   20.6069 H   0  0  0  0  0  0
  -26.8307  -30.8553   21.9958 H   0  0  0  0  0  0
  -28.1032  -29.0395   21.1757 H   0  0  0  0  0  0
  -25.9724  -25.9719   18.9850 H   0  0  0  0  0  0
  -23.9544  -27.3214   19.0261 H   0  0  0  0  0  0
  -23.7496  -30.6249   19.4161 H   0  0  0  0  0  0
  -22.7396  -29.2790   19.8484 H   0  0  0  0  0  0
  -25.1300  -36.1952   25.0826 H   0  0  0  0  0  0
  -20.9999  -28.3246   24.1411 H   0  0  0  0  0  0
  -20.5707  -26.2273   23.3608 H   0  0  0  0  0  0
  -21.6645  -26.7444   22.1180 H   0  0  0  0  0  0
  -19.6897  -25.6304   21.1235 H   0  0  0  0  0  0
  -19.6686  -27.3210   20.6759 H   0  0  0  0  0  0
  -17.4210  -26.6704   21.4021 H   0  0  0  0  0  0
  -18.0303  -26.0069   22.9014 H   0  0  0  0  0  0
  -19.7925  -30.7293   24.2242 H   0  0  0  0  0  0
  -17.4991  -31.6251   24.5171 H   0  0  0  0  0  0
  -15.5339  -30.2951   23.7654 H   0  0  0  0  0  0
  -15.8693  -28.0814   22.7024 H   0  0  0  0  0  0
  -24.5964  -30.7026   25.7782 H   0  0  0  0  0  0
  -24.8946  -32.2836   26.4901 H   0  0  0  0  0  0
  -25.8123  -30.8866   27.0213 H   0  0  0  0  0  0
  -26.2858  -29.6785   24.1186 H   0  0  0  0  0  0
  -27.4107  -29.7261   25.4566 H   0  0  0  0  0  0
  -27.8704  -30.4321   23.9250 H   0  0  0  0  0  0
  -27.2718  -33.3594   26.2073 H   0  0  0  0  0  0
  -28.3894  -32.6843   25.0307 H   0  0  0  0  0  0
  -28.0755  -31.8412   26.5398 H   0  0  0  0  0  0
  -28.2612  -38.0081   24.7506 H   0  0  0  0  0  0
  -28.1065  -36.2624   24.6315 H   0  0  0  0  0  0
  -27.2290  -37.1467   25.8865 H   0  0  0  0  0  0
  -20.9348  -29.8764   21.6923 H   0  0  0  0  0  0
  -26.0186  -38.2866   24.1401 H   0  0  0  0  0  0
  -30.4753  -18.8475   21.7562 H   0  0  0  0  0  0
  -27.7334  -20.5838   18.8950 H   0  0  0  0  0  0
  -27.8398  -17.1773   17.8809 H   0  0  0  0  0  0
  -26.9591  -18.6925   17.7480 H   0  0  0  0  0  0
  -26.4891  -17.5260   18.9908 H   0  0  0  0  0  0
  -28.1674  -16.0903   20.7402 H   0  0  0  0  0  0
  -29.1344  -16.0595   19.2920 H   0  0  0  0  0  0
  -29.3617  -24.4038   21.7303 H   0  0  0  0  0  0
  -30.0700  -24.1850   20.1468 H   0  0  0  0  0  0
  -27.1469  -24.8699   20.5798 H   0  0  0  0  0  0
  -27.9739  -24.8627   19.0402 H   0  0  0  0  0  0
  -27.8290  -22.5231   21.4256 H   0  0  0  0  0  0
  -28.1436  -22.4936   19.7181 H   0  0  0  0  0  0
  -30.8622  -16.3047   21.4175 H   0  0  0  0  0  0
  1 25  1  0  0  0
  1 30  2  0  0  0
  1 81  1  0  0  0
  2  3  1  0  0  0
  2 25  1  0  0  0
  2 83  1  0  0  0
  2 84  1  0  0  0
  3  4  1  0  0  0
  3 85  1  0  0  0
  3 86  1  0  0  0
  4  5  1  0  0  0
  4 87  1  0  0  0
  4 88  1  0  0  0
  5  6  1  0  0  0
  5 26  1  0  0  0
  5 89  1  0  0  0
  6 25  1  0  0  0
  6 90  1  0  0  0
  6 91  1  0  0  0
  7  8  2  0  0  0
  7 26  1  0  0  0
  7 29  1  0  0  0
  8  9  1  0  0  0
  8 22  1  0  0  0
  9 10  1  0  0  0
  9 27  2  0  0  0
 10 11  2  0  0  0
 10 15  1  0  0  0
 11 12  1  0  0  0
 11 92  1  0  0  0
 12 13  2  0  0  0
 12 93  1  0  0  0
 13 14  1  0  0  0
 13 31  1  0  0  0
 14 15  2  0  0  0
 14 94  1  0  0  0
 15 95  1  0  0  0
 16 17  2  0  0  0
 16 21  1  0  0  0
 16 31  1  0  0  0
 17 18  1  0  0  0
 17 96  1  0  0  0
 18 19  2  0  0  0
 18 97  1  0  0  0
 19 20  1  0  0  0
 19 24  1  0  0  0
 20 21  2  0  0  0
 20 98  1  0  0  0
 21 23  1  0  0  0
 22 28  1  0  0  0
 22 32  2  0  0  0
 26 27  1  0  0  0
 28 99  1  0  0  0
 28100  1  0  0  0
 29101  1  0  0  0
 29102  1  0  0  0
 33 34  1  0  0  0
 33 66  1  0  0  0
 33 70  2  0  0  0
 34 36  1  0  0  0
 34 59  1  0  0  0
 34103  1  0  0  0
 35 44  2  0  0  0
 35 45  1  0  0  0
 35 68  1  0  0  0
 36 56  1  0  0  0
 36104  1  0  0  0
 37 39  1  0  0  0
 37 47  1  0  0  0
 37 66  1  0  0  0
 37105  1  0  0  0
 38 43  2  0  0  0
 38 46  1  0  0  0
 38 47  1  0  0  0
 39 64  1  0  0  0
 39 67  2  0  0  0
 40 52  1  0  0  0
 40 53  2  0  0  0
 40 58  1  0  0  0
 41106  1  0  0  0
 41107  1  0  0  0
 41108  1  0  0  0
 41 48  1  0  0  0
 42 43  1  0  0  0
 42 66  1  0  0  0
 42109  1  0  0  0
 42110  1  0  0  0
 43 44  1  0  0  0
 44111  1  0  0  0
 45 46  2  0  0  0
 45112  1  0  0  0
 46113  1  0  0  0
 47114  1  0  0  0
 47115  1  0  0  0
 48 56  1  0  0  0
 48 65  1  0  0  0
 48116  1  0  0  0
 49 50  1  0  0  0
 49 53  1  0  0  0
 49 64  1  0  0  0
 49117  1  0  0  0
 50 51  1  0  0  0
 50118  1  0  0  0
 50119  1  0  0  0
 51 52  1  0  0  0
 51120  1  0  0  0
 51121  1  0  0  0
 52122  1  0  0  0
 52123  1  0  0  0
 53 54  1  0  0  0
 54 55  2  0  0  0
 54124  1  0  0  0
 55 57  1  0  0  0
 55125  1  0  0  0
 56 69  2  0  0  0
 57 58  2  0  0  0
 57126  1  0  0  0
 58127  1  0  0  0
 59 60  1  0  0  0
 59 61  1  0  0  0
 59 62  1  0  0  0
 60128  1  0  0  0
 60129  1  0  0  0
 60130  1  0  0  0
 61131  1  0  0  0
 61132  1  0  0  0
 61133  1  0  0  0
 62134  1  0  0  0
 62135  1  0  0  0
 62136  1  0  0  0
 63 65  1  0  0  0
 63137  1  0  0  0
 63138  1  0  0  0
 63139  1  0  0  0
 64140  1  0  0  0
 65141  1  0  0  0
 68 78  1  0  0  0
 71 73  1  0  0  0
 71 74  2  0  0  0
 71142  1  0  0  0
 72 73  2  0  0  0
 72 80  1  0  0  0
 72143  1  0  0  0
 73 82  1  0  0  0
 74 76  1  0  0  0
 74 80  1  0  0  0
 75 80  1  0  0  0
 75144  1  0  0  0
 75145  1  0  0  0
 75146  1  0  0  0
 76 81  1  0  0  0
 76147  1  0  0  0
 76148  1  0  0  0
 77 78  1  0  0  0
 77 79  1  0  0  0
 77149  1  0  0  0
 77150  1  0  0  0
 78151  1  0  0  0
 78152  1  0  0  0
 79 82  1  0  0  0
 79153  1  0  0  0
 79154  1  0  0  0
 81155  1  0  0  0
M  ISO  4   1 100  68 101  78 101  81 100
M  END
> <chiral flag>
0

> <version>
0

> <s_m_source_file>
/data/baiqing/PycharmProjects/Reinvent-master-3.2/result/LINK_invent/BTK/process_docking_weight1_custom_sum_contain_oxygen_bond_distance_aromatic_linkinvent_7_9_3/rearranged_h_0111.sdf

> <i_m_source_file_index>
22

> <r_mmod_Potential_Energy-OPLS-2005>
-35.219123840332

> <r_mmod_Stretch_Energy-OPLS-2005>
54.3801536560059

> <r_mmod_Bend_Energy-OPLS-2005>
134.600128173828

> <r_mmod_Torsional_Energy-OPLS-2005>
256.621337890625

> <r_mmod_Improper_Torsional_Energy-OPLS-2005>
6.17393398284912

> <r_mmod_Van_der_Waal_Energy-OPLS-2005>
134.513031005859

> <r_mmod_Electrostatic_Energy-OPLS-2005>
-429.796142578125

> <r_mmod_Solvation_Energy-OPLS-2005>
-226.716217041016

> <b_mmod_Minimization_Converged-OPLS-2005>
0

> <r_mmod_RMS_Derivative-OPLS-2005>
3.24257898330688

$$$$
22
                    3D
 Structure written by MMmdl.
155162  0  0  1  0            999 V2000
  -30.5049  -14.9643   20.3959 C   0  0  0  0  0  0
  -30.4429  -12.5989   19.4708 C   0  0  0  0  0  0
  -29.5169  -12.5245   18.2368 C   0  0  0  0  0  0
  -28.0527  -12.2983   18.6643 C   0  0  0  0  0  0
  -27.6234  -13.2376   19.8217 C   0  0  2  0  0  0
  -28.6700  -13.2743   20.9520 C   0  0  0  0  0  0
  -25.2449  -13.8203   20.5656 C   0  0  0  0  0  0
  -24.1777  -13.0435   20.9244 C   0  0  0  0  0  0
  -24.6393  -11.6922   20.8768 C   0  0  0  0  0  0
  -23.9072  -10.4298   21.0417 C   0  0  0  0  0  0
  -24.3628   -9.4204   21.9169 C   0  0  0  0  0  0
  -23.6316   -8.2233   22.0736 C   0  0  0  0  0  0
  -22.4279   -8.0274   21.3544 C   0  0  0  0  0  0
  -21.9930   -9.0239   20.4634 C   0  0  0  0  0  0
  -22.7249  -10.2124   20.3053 C   0  0  0  0  0  0
  -21.6851   -6.0739   22.5292 C   0  0  0  0  0  0
  -21.4013   -6.5643   23.8224 C   0  0  0  0  0  0
  -21.3669   -5.6789   24.9179 C   0  0  0  0  0  0
  -21.6057   -4.3058   24.7229 C   0  0  0  0  0  0
  -21.8818   -3.8157   23.4354 C   0  0  0  0  0  0
  -21.9195   -4.6968   22.3406 C   0  0  0  0  0  0
  -22.7797  -13.5203   21.1912 C   0  0  0  0  0  0
  -22.1653   -4.2163   21.0977 F   0  0  0  0  0  0
  -21.5641   -3.4540   25.7740 F   0  0  0  0  0  0
  -29.9322  -13.6960   20.3338 N   0  0  0  0  0  0
  -26.2843  -12.9398   20.3155 N   0  0  0  0  0  0
  -25.9310  -11.6551   20.5726 N   0  0  0  0  0  0
  -22.0415  -12.8199   22.0447 N   0  0  0  0  0  0
  -25.4106  -15.1935   20.4001 N   0  0  0  0  0  0
  -31.7278  -15.0473   20.2563 O   0  0  0  0  0  0
  -21.6647   -6.8871   21.4247 O   0  0  0  0  0  0
  -22.3465  -14.5488   20.6733 O   0  0  0  0  0  0
  -24.6432  -31.8402   23.1839 C   0  0  0  0  0  0
  -25.9188  -32.4672   23.8246 C   0  0  1  0  0  0
  -27.2222  -27.1239   20.1720 C   0  0  0  0  0  0
  -25.5927  -33.8479   24.2170 N   0  0  0  0  0  0
  -23.4488  -30.4567   21.5263 C   0  0  2  0  0  0
  -24.9009  -28.8670   20.1186 C   0  0  0  0  0  0
  -22.7561  -29.4529   22.4827 C   0  0  0  0  0  0
  -18.0302  -28.1379   22.8453 C   0  0  0  0  0  0
  -24.1493  -36.7272   23.2642 C   0  0  0  0  0  0
  -26.0040  -30.7109   21.3809 C   0  0  0  0  0  0
  -26.0758  -29.3151   20.7370 C   0  0  0  0  0  0
  -27.2408  -28.4607   20.7393 C   0  0  0  0  0  0
  -26.0242  -26.7654   19.5268 C   0  0  0  0  0  0
  -24.8885  -27.6066   19.4960 C   0  0  0  0  0  0
  -23.6803  -29.7744   20.1499 C   0  0  0  0  0  0
  -25.4120  -36.3026   24.0315 C   0  0  1  0  0  0
  -20.5903  -28.3719   23.1213 C   0  0  2  0  0  0
  -20.6776  -26.9418   22.5389 C   0  0  0  0  0  0
  -19.5761  -26.6371   21.5187 C   0  0  0  0  0  0
  -18.1942  -26.7921   22.1595 C   0  0  0  0  0  0
  -19.1549  -28.8869   23.2829 C   0  0  0  0  0  0
  -18.9479  -30.1455   23.8868 C   0  0  0  0  0  0
  -17.6472  -30.6577   24.0560 C   0  0  0  0  0  0
  -25.9070  -34.9400   23.5069 C   0  0  0  0  0  0
  -16.5365  -29.9077   23.6323 C   0  0  0  0  0  0
  -16.7279  -28.6494   23.0346 C   0  0  0  0  0  0
  -26.4527  -31.6535   25.0686 C   0  0  0  0  0  0
  -25.3731  -31.3699   26.1397 C   0  0  0  0  0  0
  -27.0373  -30.2926   24.6246 C   0  0  0  0  0  0
  -27.6043  -32.4302   25.7478 C   0  0  0  0  0  0
  -27.5589  -37.1777   24.8448 C   0  0  0  0  0  0
  -21.4251  -29.3048   22.3590 N   0  0  0  0  0  0
  -26.4276  -37.3749   23.9421 N   0  0  0  0  0  0
  -24.7183  -31.0251   22.0865 N   0  0  0  0  0  0
  -23.4207  -28.8066   23.2972 O   0  0  0  0  0  0
  -28.3212  -26.1986   20.0992 O   0  0  0  0  0  0
  -26.5672  -34.8905   22.4653 O   0  0  0  0  0  0
  -23.5544  -32.1261   23.7070 O   0  0  0  0  0  0
  -26.7681  -22.7270   20.4029 C   0  0  0  0  0  0
  -28.5392  -18.6275   18.7053 C   0  0  0  0  0  0
  -29.7369  -17.6399   20.8281 C   0  0  0  0  0  0
  -29.2481  -21.8718   20.1397 C   0  0  0  0  0  0
  -28.3980  -24.7572   20.6918 C   0  0  0  0  0  0
  -28.1844  -23.2039   20.0377 C   0  0  2  0  0  0
  -29.4158  -19.0238   19.9021 C   0  0  2  0  0  0
  -29.6612  -16.1123   20.3921 N   0  0  0  0  0  0
  -28.8526  -20.3781   20.5378 N   0  3  0  0  0  0
  -31.4688  -12.7847   19.1526 H   0  0  0  0  0  0
  -30.4537  -11.6476   20.0089 H   0  0  0  0  0  0
  -29.8411  -11.7285   17.5645 H   0  0  0  0  0  0
  -29.5928  -13.4518   17.6677 H   0  0  0  0  0  0
  -27.9593  -11.2571   18.9798 H   0  0  0  0  0  0
  -27.3844  -12.4180   17.8104 H   0  0  0  0  0  0
  -27.5799  -14.2368   19.3852 H   0  0  0  0  0  0
  -28.7749  -12.3013   21.4345 H   0  0  0  0  0  0
  -28.3710  -13.9806   21.7274 H   0  0  0  0  0  0
  -25.2770   -9.5717   22.4738 H   0  0  0  0  0  0
  -24.0061   -7.4645   22.7457 H   0  0  0  0  0  0
  -21.0860   -8.8740   19.8936 H   0  0  0  0  0  0
  -22.3688  -10.9659   19.6174 H   0  0  0  0  0  0
  -21.1978   -7.6147   23.9728 H   0  0  0  0  0  0
  -21.1494   -6.0511   25.9074 H   0  0  0  0  0  0
  -22.0584   -2.7626   23.2839 H   0  0  0  0  0  0
  -22.4031  -11.9899   22.4914 H   0  0  0  0  0  0
  -21.1006  -13.1194   22.2598 H   0  0  0  0  0  0
  -24.6379  -15.8420   20.5008 H   0  0  0  0  0  0
  -26.2446  -15.6322   20.0346 H   0  0  0  0  0  0
  -26.7256  -32.5279   23.0970 H   0  0  0  0  0  0
  -25.0042  -33.9588   25.0304 H   0  0  0  0  0  0
  -22.7504  -31.2811   21.3615 H   0  0  0  0  0  0
  -23.3760  -35.9595   23.3237 H   0  0  0  0  0  0
  -24.3609  -36.8973   22.2071 H   0  0  0  0  0  0
  -23.7220  -37.6441   23.6722 H   0  0  0  0  0  0
  -26.1506  -31.4544   20.5962 H   0  0  0  0  0  0
  -26.8786  -30.7730   22.0178 H   0  0  0  0  0  0
  -28.1487  -28.8108   21.2114 H   0  0  0  0  0  0
  -25.9665  -25.8044   19.0356 H   0  0  0  0  0  0
  -23.9964  -27.2601   18.9941 H   0  0  0  0  0  0
  -23.8254  -30.5407   19.3870 H   0  0  0  0  0  0
  -22.7959  -29.2157   19.8393 H   0  0  0  0  0  0
  -25.1304  -36.1849   25.0804 H   0  0  0  0  0  0
  -21.0006  -28.3310   24.1328 H   0  0  0  0  0  0
  -20.5624  -26.2351   23.3623 H   0  0  0  0  0  0
  -21.6655  -26.7386   22.1213 H   0  0  0  0  0  0
  -19.6934  -25.6275   21.1245 H   0  0  0  0  0  0
  -19.6705  -27.3165   20.6704 H   0  0  0  0  0  0
  -17.4211  -26.6645   21.4004 H   0  0  0  0  0  0
  -18.0348  -26.0066   22.8996 H   0  0  0  0  0  0
  -19.7960  -30.7267   24.2240 H   0  0  0  0  0  0
  -17.5035  -31.6263   24.5155 H   0  0  0  0  0  0
  -15.5368  -30.2983   23.7659 H   0  0  0  0  0  0
  -15.8675  -28.0815   22.7081 H   0  0  0  0  0  0
  -24.5890  -30.7078   25.7715 H   0  0  0  0  0  0
  -24.8967  -32.2876   26.4851 H   0  0  0  0  0  0
  -25.8048  -30.8835   27.0157 H   0  0  0  0  0  0
  -26.2968  -29.6635   24.1293 H   0  0  0  0  0  0
  -27.4023  -29.7228   25.4802 H   0  0  0  0  0  0
  -27.8867  -30.4146   23.9520 H   0  0  0  0  0  0
  -27.2610  -33.3584   26.2060 H   0  0  0  0  0  0
  -28.3867  -32.6889   25.0329 H   0  0  0  0  0  0
  -28.0711  -31.8430   26.5400 H   0  0  0  0  0  0
  -28.2532  -38.0150   24.7576 H   0  0  0  0  0  0
  -28.1155  -36.2673   24.6154 H   0  0  0  0  0  0
  -27.2333  -37.1287   25.8858 H   0  0  0  0  0  0
  -20.9468  -29.8816   21.6806 H   0  0  0  0  0  0
  -26.0134  -38.2805   24.1468 H   0  0  0  0  0  0
  -26.4634  -21.8694   19.8011 H   0  0  0  0  0  0
  -26.0301  -23.5121   20.2349 H   0  0  0  0  0  0
  -26.7071  -22.4418   21.4547 H   0  0  0  0  0  0
  -28.9527  -17.7630   18.1858 H   0  0  0  0  0  0
  -28.4700  -19.4374   17.9775 H   0  0  0  0  0  0
  -27.5298  -18.3628   19.0193 H   0  0  0  0  0  0
  -29.0408  -17.6837   21.6656 H   0  0  0  0  0  0
  -30.7178  -17.7778   21.2833 H   0  0  0  0  0  0
  -30.0705  -22.1481   20.7974 H   0  0  0  0  0  0
  -29.7206  -21.7949   19.1598 H   0  0  0  0  0  0
  -29.4154  -24.7328   21.0791 H   0  0  0  0  0  0
  -27.8002  -24.7977   21.6033 H   0  0  0  0  0  0
  -28.1495  -23.4059   18.9672 H   0  0  0  0  0  0
  -30.3857  -19.3026   19.4878 H   0  0  0  0  0  0
  -28.7065  -15.8280   20.2398 H   0  0  0  0  0  0
  -27.8523  -20.3175   20.4455 H   0  0  0  0  0  0
  -29.0325  -20.3216   21.5277 H   0  0  0  0  0  0
  1 25  1  0  0  0
  1 30  2  0  0  0
  1 78  1  0  0  0
  2  3  1  0  0  0
  2 25  1  0  0  0
  2 80  1  0  0  0
  2 81  1  0  0  0
  3  4  1  0  0  0
  3 82  1  0  0  0
  3 83  1  0  0  0
  4  5  1  0  0  0
  4 84  1  0  0  0
  4 85  1  0  0  0
  5  6  1  0  0  0
  5 26  1  0  0  0
  5 86  1  0  0  0
  6 25  1  0  0  0
  6 87  1  0  0  0
  6 88  1  0  0  0
  7  8  2  0  0  0
  7 26  1  0  0  0
  7 29  1  0  0  0
  8  9  1  0  0  0
  8 22  1  0  0  0
  9 10  1  0  0  0
  9 27  2  0  0  0
 10 11  2  0  0  0
 10 15  1  0  0  0
 11 12  1  0  0  0
 11 89  1  0  0  0
 12 13  2  0  0  0
 12 90  1  0  0  0
 13 14  1  0  0  0
 13 31  1  0  0  0
 14 15  2  0  0  0
 14 91  1  0  0  0
 15 92  1  0  0  0
 16 17  2  0  0  0
 16 21  1  0  0  0
 16 31  1  0  0  0
 17 18  1  0  0  0
 17 93  1  0  0  0
 18 19  2  0  0  0
 18 94  1  0  0  0
 19 20  1  0  0  0
 19 24  1  0  0  0
 20 21  2  0  0  0
 20 95  1  0  0  0
 21 23  1  0  0  0
 22 28  1  0  0  0
 22 32  2  0  0  0
 26 27  1  0  0  0
 28 96  1  0  0  0
 28 97  1  0  0  0
 29 98  1  0  0  0
 29 99  1  0  0  0
 33 34  1  0  0  0
 33 66  1  0  0  0
 33 70  2  0  0  0
 34 36  1  0  0  0
 34 59  1  0  0  0
 34100  1  0  0  0
 35 44  2  0  0  0
 35 45  1  0  0  0
 35 68  1  0  0  0
 36 56  1  0  0  0
 36101  1  0  0  0
 37 39  1  0  0  0
 37 47  1  0  0  0
 37 66  1  0  0  0
 37102  1  0  0  0
 38 43  2  0  0  0
 38 46  1  0  0  0
 38 47  1  0  0  0
 39 64  1  0  0  0
 39 67  2  0  0  0
 40 52  1  0  0  0
 40 53  2  0  0  0
 40 58  1  0  0  0
 41103  1  0  0  0
 41104  1  0  0  0
 41105  1  0  0  0
 41 48  1  0  0  0
 42 43  1  0  0  0
 42 66  1  0  0  0
 42106  1  0  0  0
 42107  1  0  0  0
 43 44  1  0  0  0
 44108  1  0  0  0
 45 46  2  0  0  0
 45109  1  0  0  0
 46110  1  0  0  0
 47111  1  0  0  0
 47112  1  0  0  0
 48 56  1  0  0  0
 48 65  1  0  0  0
 48113  1  0  0  0
 49 50  1  0  0  0
 49 53  1  0  0  0
 49 64  1  0  0  0
 49114  1  0  0  0
 50 51  1  0  0  0
 50115  1  0  0  0
 50116  1  0  0  0
 51 52  1  0  0  0
 51117  1  0  0  0
 51118  1  0  0  0
 52119  1  0  0  0
 52120  1  0  0  0
 53 54  1  0  0  0
 54 55  2  0  0  0
 54121  1  0  0  0
 55 57  1  0  0  0
 55122  1  0  0  0
 56 69  2  0  0  0
 57 58  2  0  0  0
 57123  1  0  0  0
 58124  1  0  0  0
 59 60  1  0  0  0
 59 61  1  0  0  0
 59 62  1  0  0  0
 60125  1  0  0  0
 60126  1  0  0  0
 60127  1  0  0  0
 61128  1  0  0  0
 61129  1  0  0  0
 61130  1  0  0  0
 62131  1  0  0  0
 62132  1  0  0  0
 62133  1  0  0  0
 63 65  1  0  0  0
 63134  1  0  0  0
 63135  1  0  0  0
 63136  1  0  0  0
 64137  1  0  0  0
 65138  1  0  0  0
 68 75  1  0  0  0
 71139  1  0  0  0
 71140  1  0  0  0
 71141  1  0  0  0
 71 76  1  0  0  0
 72142  1  0  0  0
 72143  1  0  0  0
 72144  1  0  0  0
 72 77  1  0  0  0
 73 77  1  0  0  0
 73 78  1  0  0  0
 73145  1  0  0  0
 73146  1  0  0  0
 74 76  1  0  0  0
 74 79  1  0  0  0
 74147  1  0  0  0
 74148  1  0  0  0
 75 76  1  0  0  0
 75149  1  0  0  0
 75150  1  0  0  0
 76151  1  0  0  0
 77 79  1  0  0  0
 77152  1  0  0  0
 78153  1  0  0  0
 79154  1  0  0  0
 79155  1  0  0  0
M  CHG  1  79   1
M  ISO  4   1 100  68 101  75 101  78 100
M  END
> <chiral flag>
0

> <version>
0

> <s_m_source_file>
/data/baiqing/PycharmProjects/Reinvent-master-3.2/result/LINK_invent/BTK/process_docking_weight1_custom_sum_contain_oxygen_bond_distance_aromatic_linkinvent_7_9_3/rearranged_h_0111.sdf

> <i_m_source_file_index>
23

> <r_mmod_Potential_Energy-OPLS-2005>
431.036285400391

> <r_mmod_Stretch_Energy-OPLS-2005>
282.8173828125

> <r_mmod_Bend_Energy-OPLS-2005>
326.088043212891

> <r_mmod_Torsional_Energy-OPLS-2005>
302.300231933594

> <r_mmod_Improper_Torsional_Energy-OPLS-2005>
5.5903844833374

> <r_mmod_Van_der_Waal_Energy-OPLS-2005>
102.673126220703

> <r_mmod_Electrostatic_Energy-OPLS-2005>
-300.662109375

> <r_mmod_Solvation_Energy-OPLS-2005>
-488.129150390625

> <b_mmod_Minimization_Converged-OPLS-2005>
0

> <r_mmod_RMS_Derivative-OPLS-2005>
3.66290903091431

$$$$
23
                    3D
 Structure written by MMmdl.
164172  0  0  1  0            999 V2000
  -30.6449  -14.7607   20.4803 C   0  0  0  0  0  0
  -30.4439  -12.4820   19.4726 C   0  0  0  0  0  0
  -29.5142  -12.5195   18.2418 C   0  0  0  0  0  0
  -28.0463  -12.3287   18.6626 C   0  0  0  0  0  0
  -27.6459  -13.2372   19.8567 C   0  0  2  0  0  0
  -28.6943  -13.1853   20.9898 C   0  0  0  0  0  0
  -25.2503  -13.8191   20.5675 C   0  0  0  0  0  0
  -24.1791  -13.0414   20.9182 C   0  0  0  0  0  0
  -24.6409  -11.6908   20.8772 C   0  0  0  0  0  0
  -23.9098  -10.4271   21.0440 C   0  0  0  0  0  0
  -24.3629   -9.4173   21.9214 C   0  0  0  0  0  0
  -23.6282   -8.2223   22.0764 C   0  0  0  0  0  0
  -22.4273   -8.0279   21.3553 C   0  0  0  0  0  0
  -21.9921   -9.0262   20.4664 C   0  0  0  0  0  0
  -22.7276  -10.2131   20.3078 C   0  0  0  0  0  0
  -21.6846   -6.0729   22.5273 C   0  0  0  0  0  0
  -21.4016   -6.5623   23.8213 C   0  0  0  0  0  0
  -21.3644   -5.6777   24.9172 C   0  0  0  0  0  0
  -21.6042   -4.3049   24.7231 C   0  0  0  0  0  0
  -21.8815   -3.8134   23.4353 C   0  0  0  0  0  0
  -21.9186   -4.6949   22.3401 C   0  0  0  0  0  0
  -22.7802  -13.5217   21.1828 C   0  0  0  0  0  0
  -22.1656   -4.2129   21.0991 F   0  0  0  0  0  0
  -21.5626   -3.4525   25.7741 F   0  0  0  0  0  0
  -29.9949  -13.5456   20.4021 N   0  0  0  0  0  0
  -26.2966  -12.9413   20.3341 N   0  0  0  0  0  0
  -25.9356  -11.6554   20.5819 N   0  0  0  0  0  0
  -22.0419  -12.8225   22.0379 N   0  0  0  0  0  0
  -25.4163  -15.1912   20.4039 N   0  0  0  0  0  0
  -31.8355  -14.8328   20.1696 O   0  0  0  0  0  0
  -21.6629   -6.8880   21.4246 O   0  0  0  0  0  0
  -22.3483  -14.5507   20.6657 O   0  0  0  0  0  0
  -24.6319  -31.8575   23.2023 C   0  0  0  0  0  0
  -25.9145  -32.4783   23.8365 C   0  0  1  0  0  0
  -27.2077  -27.2443   20.1133 C   0  0  0  0  0  0
  -25.5949  -33.8586   24.2285 N   0  0  0  0  0  0
  -23.4285  -30.4817   21.5482 C   0  0  2  0  0  0
  -24.8744  -28.9412   20.1049 C   0  0  0  0  0  0
  -22.7506  -29.4618   22.4947 C   0  0  0  0  0  0
  -18.0281  -28.1422   22.8493 C   0  0  0  0  0  0
  -24.1471  -36.7241   23.2640 C   0  0  0  0  0  0
  -25.9809  -30.7608   21.3930 C   0  0  0  0  0  0
  -26.0476  -29.3865   20.7258 C   0  0  0  0  0  0
  -27.2125  -28.5470   20.7280 C   0  0  0  0  0  0
  -26.0178  -26.9096   19.4202 C   0  0  0  0  0  0
  -24.8669  -27.7125   19.4396 C   0  0  0  0  0  0
  -23.6430  -29.8217   20.1636 C   0  0  0  0  0  0
  -25.4110  -36.3088   24.0335 C   0  0  1  0  0  0
  -20.5893  -28.3711   23.1283 C   0  0  2  0  0  0
  -20.6778  -26.9435   22.5421 C   0  0  0  0  0  0
  -19.5753  -26.6413   21.5224 C   0  0  0  0  0  0
  -18.1924  -26.7970   22.1628 C   0  0  0  0  0  0
  -19.1544  -28.8886   23.2886 C   0  0  0  0  0  0
  -18.9462  -30.1484   23.8906 C   0  0  0  0  0  0
  -17.6466  -30.6624   24.0572 C   0  0  0  0  0  0
  -25.9061  -34.9459   23.5107 C   0  0  0  0  0  0
  -16.5351  -29.9117   23.6365 C   0  0  0  0  0  0
  -16.7266  -28.6536   23.0380 C   0  0  0  0  0  0
  -26.4488  -31.6632   25.0764 C   0  0  0  0  0  0
  -25.3688  -31.3792   26.1461 C   0  0  0  0  0  0
  -27.0317  -30.3030   24.6307 C   0  0  0  0  0  0
  -27.6043  -32.4385   25.7524 C   0  0  0  0  0  0
  -27.5570  -37.1772   24.8476 C   0  0  0  0  0  0
  -21.4215  -29.3044   22.3659 N   0  0  0  0  0  0
  -26.4283  -37.3795   23.9420 N   0  0  0  0  0  0
  -24.6995  -31.0525   22.1020 N   0  0  0  0  0  0
  -23.4204  -28.8166   23.3056 O   0  0  0  0  0  0
  -28.2780  -26.3073   20.2208 O   0  0  0  0  0  0
  -26.5639  -34.8923   22.4678 O   0  0  0  0  0  0
  -23.5466  -32.1402   23.7298 O   0  0  0  0  0  0
  -29.7772  -20.0171   20.5648 C   0  0  0  0  0  0
  -28.4541  -19.9664   18.8093 C   0  0  0  0  0  0
  -29.6628  -18.6520   20.2207 C   0  0  0  0  0  0
  -28.8094  -18.6618   19.0726 C   0  0  0  0  0  0
  -29.5341  -17.1379   17.2104 C   0  0  0  0  0  0
  -27.0628  -17.5948   17.5531 C   0  0  0  0  0  0
  -28.0929  -23.3120   21.6484 C   0  0  0  0  0  0
  -30.4063  -17.3709   20.8389 C   0  0  0  0  0  0
  -28.9973  -22.3797   19.3741 C   0  0  0  0  0  0
  -28.4320  -17.4562   18.2317 C   0  0  0  0  0  0
  -28.8680  -23.6633   20.3672 C   0  0  1  0  0  0
  -28.1479  -24.9506   19.6377 C   0  0  2  0  0  0
  -29.0578  -20.8666   19.6794 N   0  0  0  0  0  0
  -29.9177  -15.9183   20.7206 N   0  0  0  0  0  0
  -28.5422  -25.0075   18.2849 O   0  0  0  0  0  0
  -31.4769  -12.6198   19.1496 H   0  0  0  0  0  0
  -30.4167  -11.5070   19.9612 H   0  0  0  0  0  0
  -29.8048  -11.7477   17.5277 H   0  0  0  0  0  0
  -29.6248  -13.4772   17.7279 H   0  0  0  0  0  0
  -27.9227  -11.2804   18.9383 H   0  0  0  0  0  0
  -27.3848  -12.5059   17.8139 H   0  0  0  0  0  0
  -27.6370  -14.2577   19.4732 H   0  0  0  0  0  0
  -28.7351  -12.1901   21.4371 H   0  0  0  0  0  0
  -28.4250  -13.8677   21.7973 H   0  0  0  0  0  0
  -25.2773   -9.5601   22.4804 H   0  0  0  0  0  0
  -23.9958   -7.4589   22.7470 H   0  0  0  0  0  0
  -21.0859   -8.8815   19.8963 H   0  0  0  0  0  0
  -22.3770  -10.9679   19.6178 H   0  0  0  0  0  0
  -21.2027   -7.6128   23.9717 H   0  0  0  0  0  0
  -21.1473   -6.0510   25.9077 H   0  0  0  0  0  0
  -22.0617   -2.7590   23.2868 H   0  0  0  0  0  0
  -22.4038  -11.9951   22.4872 H   0  0  0  0  0  0
  -21.1040  -13.1287   22.2551 H   0  0  0  0  0  0
  -24.6436  -15.8417   20.4926 H   0  0  0  0  0  0
  -26.2733  -15.6368   20.1030 H   0  0  0  0  0  0
  -26.7210  -32.5407   23.1107 H   0  0  0  0  0  0
  -25.0122  -33.9767   25.0446 H   0  0  0  0  0  0
  -22.7244  -31.3048   21.4074 H   0  0  0  0  0  0
  -23.3785  -35.9526   23.3327 H   0  0  0  0  0  0
  -24.3550  -36.8828   22.2048 H   0  0  0  0  0  0
  -23.7158  -37.6417   23.6643 H   0  0  0  0  0  0
  -26.1352  -31.5272   20.6327 H   0  0  0  0  0  0
  -26.8528  -30.7998   22.0356 H   0  0  0  0  0  0
  -28.1041  -28.8788   21.2401 H   0  0  0  0  0  0
  -25.9162  -26.0094   18.8396 H   0  0  0  0  0  0
  -23.9785  -27.3803   18.9194 H   0  0  0  0  0  0
  -23.7490  -30.5951   19.4024 H   0  0  0  0  0  0
  -22.7648  -29.2416   19.8730 H   0  0  0  0  0  0
  -25.1291  -36.1948   25.0833 H   0  0  0  0  0  0
  -20.9984  -28.3295   24.1402 H   0  0  0  0  0  0
  -20.5689  -26.2321   23.3624 H   0  0  0  0  0  0
  -21.6642  -26.7478   22.1197 H   0  0  0  0  0  0
  -19.6912  -25.6322   21.1255 H   0  0  0  0  0  0
  -19.6703  -27.3223   20.6757 H   0  0  0  0  0  0
  -17.4197  -26.6727   21.4026 H   0  0  0  0  0  0
  -18.0307  -26.0124   22.9031 H   0  0  0  0  0  0
  -19.7935  -30.7307   24.2277 H   0  0  0  0  0  0
  -17.5016  -31.6302   24.5177 H   0  0  0  0  0  0
  -15.5354  -30.3019   23.7709 H   0  0  0  0  0  0
  -15.8658  -28.0859   22.7113 H   0  0  0  0  0  0
  -24.5895  -30.7116   25.7776 H   0  0  0  0  0  0
  -24.8832  -32.2950   26.4842 H   0  0  0  0  0  0
  -25.7983  -30.9006   27.0268 H   0  0  0  0  0  0
  -26.2908  -29.6799   24.1283 H   0  0  0  0  0  0
  -27.3875  -29.7299   25.4875 H   0  0  0  0  0  0
  -27.8861  -30.4268   23.9650 H   0  0  0  0  0  0
  -27.2679  -33.3713   26.2068 H   0  0  0  0  0  0
  -28.3869  -32.6901   25.0354 H   0  0  0  0  0  0
  -28.0697  -31.8529   26.5463 H   0  0  0  0  0  0
  -28.2620  -38.0043   24.7550 H   0  0  0  0  0  0
  -28.1039  -36.2580   24.6304 H   0  0  0  0  0  0
  -27.2287  -37.1429   25.8880 H   0  0  0  0  0  0
  -20.9418  -29.8719   21.6810 H   0  0  0  0  0  0
  -26.0163  -38.2864   24.1460 H   0  0  0  0  0  0
  -30.3771  -20.4758   21.3424 H   0  0  0  0  0  0
  -27.8562  -20.3467   17.9912 H   0  0  0  0  0  0
  -30.4940  -16.9765   17.7042 H   0  0  0  0  0  0
  -29.6664  -17.9524   16.4970 H   0  0  0  0  0  0
  -29.2995  -16.2359   16.6453 H   0  0  0  0  0  0
  -26.2900  -17.8122   18.2899 H   0  0  0  0  0  0
  -26.7903  -16.6641   17.0531 H   0  0  0  0  0  0
  -27.0511  -18.3865   16.8042 H   0  0  0  0  0  0
  -28.5858  -22.5132   22.2032 H   0  0  0  0  0  0
  -27.0812  -22.9764   21.4175 H   0  0  0  0  0  0
  -28.0087  -24.1704   22.3149 H   0  0  0  0  0  0
  -31.4142  -17.4072   20.4250 H   0  0  0  0  0  0
  -30.5381  -17.5760   21.9020 H   0  0  0  0  0  0
  -29.8325  -22.5828   18.7021 H   0  0  0  0  0  0
  -28.1240  -22.4750   18.7273 H   0  0  0  0  0  0
  -28.3421  -16.6028   18.8975 H   0  0  0  0  0  0
  -29.8736  -23.9707   20.6504 H   0  0  0  0  0  0
  -27.1010  -24.6558   19.6426 H   0  0  0  0  0  0
  -28.9384  -15.7742   20.9108 H   0  0  0  0  0  0
  -29.4757  -25.1898   18.2638 H   0  0  0  0  0  0
  1 25  1  0  0  0
  1 30  2  0  0  0
  1 84  1  0  0  0
  2  3  1  0  0  0
  2 25  1  0  0  0
  2 86  1  0  0  0
  2 87  1  0  0  0
  3  4  1  0  0  0
  3 88  1  0  0  0
  3 89  1  0  0  0
  4  5  1  0  0  0
  4 90  1  0  0  0
  4 91  1  0  0  0
  5  6  1  0  0  0
  5 26  1  0  0  0
  5 92  1  0  0  0
  6 25  1  0  0  0
  6 93  1  0  0  0
  6 94  1  0  0  0
  7  8  2  0  0  0
  7 26  1  0  0  0
  7 29  1  0  0  0
  8  9  1  0  0  0
  8 22  1  0  0  0
  9 10  1  0  0  0
  9 27  2  0  0  0
 10 11  2  0  0  0
 10 15  1  0  0  0
 11 12  1  0  0  0
 11 95  1  0  0  0
 12 13  2  0  0  0
 12 96  1  0  0  0
 13 14  1  0  0  0
 13 31  1  0  0  0
 14 15  2  0  0  0
 14 97  1  0  0  0
 15 98  1  0  0  0
 16 17  2  0  0  0
 16 21  1  0  0  0
 16 31  1  0  0  0
 17 18  1  0  0  0
 17 99  1  0  0  0
 18 19  2  0  0  0
 18100  1  0  0  0
 19 20  1  0  0  0
 19 24  1  0  0  0
 20 21  2  0  0  0
 20101  1  0  0  0
 21 23  1  0  0  0
 22 28  1  0  0  0
 22 32  2  0  0  0
 26 27  1  0  0  0
 28102  1  0  0  0
 28103  1  0  0  0
 29104  1  0  0  0
 29105  1  0  0  0
 33 34  1  0  0  0
 33 66  1  0  0  0
 33 70  2  0  0  0
 34 36  1  0  0  0
 34 59  1  0  0  0
 34106  1  0  0  0
 35 44  2  0  0  0
 35 45  1  0  0  0
 35 68  1  0  0  0
 36 56  1  0  0  0
 36107  1  0  0  0
 37 39  1  0  0  0
 37 47  1  0  0  0
 37 66  1  0  0  0
 37108  1  0  0  0
 38 43  2  0  0  0
 38 46  1  0  0  0
 38 47  1  0  0  0
 39 64  1  0  0  0
 39 67  2  0  0  0
 40 52  1  0  0  0
 40 53  2  0  0  0
 40 58  1  0  0  0
 41109  1  0  0  0
 41110  1  0  0  0
 41111  1  0  0  0
 41 48  1  0  0  0
 42 43  1  0  0  0
 42 66  1  0  0  0
 42112  1  0  0  0
 42113  1  0  0  0
 43 44  1  0  0  0
 44114  1  0  0  0
 45 46  2  0  0  0
 45115  1  0  0  0
 46116  1  0  0  0
 47117  1  0  0  0
 47118  1  0  0  0
 48 56  1  0  0  0
 48 65  1  0  0  0
 48119  1  0  0  0
 49 50  1  0  0  0
 49 53  1  0  0  0
 49 64  1  0  0  0
 49120  1  0  0  0
 50 51  1  0  0  0
 50121  1  0  0  0
 50122  1  0  0  0
 51 52  1  0  0  0
 51123  1  0  0  0
 51124  1  0  0  0
 52125  1  0  0  0
 52126  1  0  0  0
 53 54  1  0  0  0
 54 55  2  0  0  0
 54127  1  0  0  0
 55 57  1  0  0  0
 55128  1  0  0  0
 56 69  2  0  0  0
 57 58  2  0  0  0
 57129  1  0  0  0
 58130  1  0  0  0
 59 60  1  0  0  0
 59 61  1  0  0  0
 59 62  1  0  0  0
 60131  1  0  0  0
 60132  1  0  0  0
 60133  1  0  0  0
 61134  1  0  0  0
 61135  1  0  0  0
 61136  1  0  0  0
 62137  1  0  0  0
 62138  1  0  0  0
 62139  1  0  0  0
 63 65  1  0  0  0
 63140  1  0  0  0
 63141  1  0  0  0
 63142  1  0  0  0
 64143  1  0  0  0
 65144  1  0  0  0
 68 82  1  0  0  0
 71 73  2  0  0  0
 71 83  1  0  0  0
 71145  1  0  0  0
 72 74  2  0  0  0
 72 83  1  0  0  0
 72146  1  0  0  0
 73 74  1  0  0  0
 73 78  1  0  0  0
 74 80  1  0  0  0
 75147  1  0  0  0
 75148  1  0  0  0
 75149  1  0  0  0
 75 80  1  0  0  0
 76 80  1  0  0  0
 76150  1  0  0  0
 76151  1  0  0  0
 76152  1  0  0  0
 77153  1  0  0  0
 77154  1  0  0  0
 77155  1  0  0  0
 77 81  1  0  0  0
 78 84  1  0  0  0
 78156  1  0  0  0
 78157  1  0  0  0
 79 81  1  0  0  0
 79 83  1  0  0  0
 79158  1  0  0  0
 79159  1  0  0  0
 80160  1  0  0  0
 81 82  1  0  0  0
 81161  1  0  0  0
 82 85  1  0  0  0
 82162  1  0  0  0
 84163  1  0  0  0
 85164  1  0  0  0
M  ISO  4   1 100  68 101  82 101  84 100
M  END
> <chiral flag>
0

> <version>
0

> <s_m_source_file>
/data/baiqing/PycharmProjects/Reinvent-master-3.2/result/LINK_invent/BTK/process_docking_weight1_custom_sum_contain_oxygen_bond_distance_aromatic_linkinvent_7_9_3/rearranged_h_0111.sdf

> <i_m_source_file_index>
24

> <r_mmod_Potential_Energy-OPLS-2005>
128.116973876953

> <r_mmod_Stretch_Energy-OPLS-2005>
139.091094970703

> <r_mmod_Bend_Energy-OPLS-2005>
223.724258422852

> <r_mmod_Torsional_Energy-OPLS-2005>
209.414566040039

> <r_mmod_Improper_Torsional_Energy-OPLS-2005>
6.31120443344116

> <r_mmod_Van_der_Waal_Energy-OPLS-2005>
118.34171295166

> <r_mmod_Electrostatic_Energy-OPLS-2005>
-452.249389648438

> <r_mmod_Solvation_Energy-OPLS-2005>
-216.110534667969

> <b_mmod_Minimization_Converged-OPLS-2005>
0

> <r_mmod_RMS_Derivative-OPLS-2005>
3.13968467712402

$$$$
24
                    3D
 Structure written by MMmdl.
159167  0  0  1  0            999 V2000
  -30.5570  -14.8096   20.4680 C   0  0  0  0  0  0
  -30.4474  -12.5006   19.4857 C   0  0  0  0  0  0
  -29.5247  -12.5411   18.2457 C   0  0  0  0  0  0
  -28.0521  -12.3400   18.6504 C   0  0  0  0  0  0
  -27.6457  -13.2330   19.8524 C   0  0  2  0  0  0
  -28.6856  -13.1680   20.9935 C   0  0  0  0  0  0
  -25.2530  -13.8187   20.5670 C   0  0  0  0  0  0
  -24.1824  -13.0431   20.9185 C   0  0  0  0  0  0
  -24.6405  -11.6899   20.8711 C   0  0  0  0  0  0
  -23.9071  -10.4285   21.0382 C   0  0  0  0  0  0
  -24.3630   -9.4202   21.9155 C   0  0  0  0  0  0
  -23.6301   -8.2246   22.0739 C   0  0  0  0  0  0
  -22.4283   -8.0280   21.3535 C   0  0  0  0  0  0
  -21.9913   -9.0247   20.4626 C   0  0  0  0  0  0
  -22.7250  -10.2121   20.3030 C   0  0  0  0  0  0
  -21.6863   -6.0730   22.5276 C   0  0  0  0  0  0
  -21.4021   -6.5629   23.8211 C   0  0  0  0  0  0
  -21.3664   -5.6782   24.9167 C   0  0  0  0  0  0
  -21.6052   -4.3049   24.7218 C   0  0  0  0  0  0
  -21.8824   -3.8139   23.4339 C   0  0  0  0  0  0
  -21.9201   -4.6957   22.3397 C   0  0  0  0  0  0
  -22.7841  -13.5208   21.1846 C   0  0  0  0  0  0
  -22.1665   -4.2142   21.0972 F   0  0  0  0  0  0
  -21.5635   -3.4523   25.7728 F   0  0  0  0  0  0
  -29.9882  -13.5507   20.4312 N   0  0  0  0  0  0
  -26.2954  -12.9392   20.3242 N   0  0  0  0  0  0
  -25.9338  -11.6523   20.5686 N   0  0  0  0  0  0
  -22.0496  -12.8200   22.0411 N   0  0  0  0  0  0
  -25.4205  -15.1914   20.4075 N   0  0  0  0  0  0
  -31.7132  -14.9636   20.0643 O   0  0  0  0  0  0
  -21.6657   -6.8872   21.4231 O   0  0  0  0  0  0
  -22.3519  -14.5503   20.6684 O   0  0  0  0  0  0
  -24.6348  -31.8519   23.1942 C   0  0  0  0  0  0
  -25.9156  -32.4746   23.8294 C   0  0  1  0  0  0
  -27.2102  -27.2076   20.1405 C   0  0  0  0  0  0
  -25.5915  -33.8544   24.2212 N   0  0  0  0  0  0
  -23.4358  -30.4763   21.5371 C   0  0  2  0  0  0
  -24.8861  -28.9224   20.1030 C   0  0  0  0  0  0
  -22.7532  -29.4585   22.4848 C   0  0  0  0  0  0
  -18.0301  -28.1393   22.8475 C   0  0  0  0  0  0
  -24.1490  -36.7285   23.2642 C   0  0  0  0  0  0
  -25.9870  -30.7504   21.3828 C   0  0  0  0  0  0
  -26.0598  -29.3679   20.7256 C   0  0  0  0  0  0
  -27.2234  -28.5230   20.7362 C   0  0  0  0  0  0
  -26.0274  -26.8713   19.4425 C   0  0  0  0  0  0
  -24.8783  -27.6841   19.4491 C   0  0  0  0  0  0
  -23.6605  -29.8164   20.1516 C   0  0  0  0  0  0
  -25.4117  -36.3065   24.0320 C   0  0  1  0  0  0
  -20.5912  -28.3716   23.1243 C   0  0  2  0  0  0
  -20.6792  -26.9427   22.5409 C   0  0  0  0  0  0
  -19.5765  -26.6385   21.5215 C   0  0  0  0  0  0
  -18.1943  -26.7938   22.1630 C   0  0  0  0  0  0
  -19.1559  -28.8871   23.2861 C   0  0  0  0  0  0
  -18.9481  -30.1467   23.8894 C   0  0  0  0  0  0
  -17.6477  -30.6595   24.0566 C   0  0  0  0  0  0
  -25.9063  -34.9439   23.5082 C   0  0  0  0  0  0
  -16.5362  -29.9100   23.6326 C   0  0  0  0  0  0
  -16.7285  -28.6518   23.0339 C   0  0  0  0  0  0
  -26.4487  -31.6567   25.0685 C   0  0  0  0  0  0
  -25.3675  -31.3750   26.1381 C   0  0  0  0  0  0
  -27.0324  -30.2963   24.6205 C   0  0  0  0  0  0
  -27.6029  -32.4299   25.7477 C   0  0  0  0  0  0
  -27.5580  -37.1804   24.8465 C   0  0  0  0  0  0
  -21.4231  -29.3051   22.3610 N   0  0  0  0  0  0
  -26.4290  -37.3767   23.9412 N   0  0  0  0  0  0
  -24.7051  -31.0447   22.0939 N   0  0  0  0  0  0
  -23.4222  -28.8109   23.2950 O   0  0  0  0  0  0
  -28.2507  -26.2303   20.2584 O   0  0  0  0  0  0
  -26.5656  -34.8918   22.4667 O   0  0  0  0  0  0
  -23.5490  -32.1353   23.7206 O   0  0  0  0  0  0
  -28.3424  -18.0841   21.0037 C   0  0  0  0  0  0
  -30.6795  -18.4752   20.5962 C   0  0  0  0  0  0
  -27.9873  -19.5480   20.4929 C   0  0  0  0  0  0
  -30.3250  -19.9609   20.0620 C   0  0  0  0  0  0
  -29.5779  -17.3784   20.3480 C   0  0  1  0  0  0
  -26.8421  -24.4950   21.3573 C   0  0  0  0  0  0
  -28.9866  -23.4885   20.4612 C   0  0  0  0  0  0
  -28.5865  -21.9691   19.9520 C   0  0  0  0  0  0
  -27.9116  -24.7287   20.2599 C   0  0  2  0  0  0
  -29.7275  -15.8900   20.7806 N   0  0  0  0  0  0
  -29.0595  -20.6112   20.5893 N   0  3  1  0  0  0
  -31.4853  -12.6537   19.1838 H   0  0  0  0  0  0
  -30.4154  -11.5191   19.9611 H   0  0  0  0  0  0
  -29.8244  -11.7803   17.5246 H   0  0  0  0  0  0
  -29.6372  -13.5016   17.7397 H   0  0  0  0  0  0
  -27.9210  -11.2874   18.9056 H   0  0  0  0  0  0
  -27.3986  -12.5315   17.7976 H   0  0  0  0  0  0
  -27.6378  -14.2553   19.4721 H   0  0  0  0  0  0
  -28.7337  -12.1649   21.4180 H   0  0  0  0  0  0
  -28.3976  -13.8305   21.8110 H   0  0  0  0  0  0
  -25.2780   -9.5694   22.4704 H   0  0  0  0  0  0
  -24.0022   -7.4650   22.7470 H   0  0  0  0  0  0
  -21.0842   -8.8757   19.8937 H   0  0  0  0  0  0
  -22.3706  -10.9643   19.6131 H   0  0  0  0  0  0
  -21.2007   -7.6135   23.9704 H   0  0  0  0  0  0
  -21.1486   -6.0511   25.9073 H   0  0  0  0  0  0
  -22.0601   -2.7592   23.2842 H   0  0  0  0  0  0
  -22.4119  -11.9887   22.4833 H   0  0  0  0  0  0
  -21.1085  -13.1181   22.2555 H   0  0  0  0  0  0
  -24.6431  -15.8364   20.4992 H   0  0  0  0  0  0
  -26.2541  -15.6256   20.0337 H   0  0  0  0  0  0
  -26.7213  -32.5381   23.1020 H   0  0  0  0  0  0
  -24.9980  -33.9655   25.0304 H   0  0  0  0  0  0
  -22.7347  -31.3013   21.3894 H   0  0  0  0  0  0
  -23.3743  -35.9624   23.3284 H   0  0  0  0  0  0
  -24.3591  -36.8936   22.2066 H   0  0  0  0  0  0
  -23.7244  -37.6483   23.6672 H   0  0  0  0  0  0
  -26.1286  -31.5066   20.6095 H   0  0  0  0  0  0
  -26.8640  -30.8045   22.0151 H   0  0  0  0  0  0
  -28.1101  -28.8519   21.2605 H   0  0  0  0  0  0
  -25.9442  -25.9310   18.9192 H   0  0  0  0  0  0
  -23.9847  -27.3436   18.9438 H   0  0  0  0  0  0
  -23.8000  -30.5980   19.4039 H   0  0  0  0  0  0
  -22.7762  -29.2630   19.8328 H   0  0  0  0  0  0
  -25.1306  -36.1904   25.0808 H   0  0  0  0  0  0
  -21.0019  -28.3300   24.1352 H   0  0  0  0  0  0
  -20.5698  -26.2325   23.3617 H   0  0  0  0  0  0
  -21.6657  -26.7440   22.1198 H   0  0  0  0  0  0
  -19.6935  -25.6291   21.1255 H   0  0  0  0  0  0
  -19.6703  -27.3191   20.6738 H   0  0  0  0  0  0
  -17.4213  -26.6658   21.4030 H   0  0  0  0  0  0
  -18.0349  -26.0078   22.9030 H   0  0  0  0  0  0
  -19.7947  -30.7281   24.2261 H   0  0  0  0  0  0
  -17.5030  -31.6278   24.5160 H   0  0  0  0  0  0
  -15.5368  -30.3019   23.7638 H   0  0  0  0  0  0
  -15.8674  -28.0856   22.7042 H   0  0  0  0  0  0
  -24.5856  -30.7097   25.7684 H   0  0  0  0  0  0
  -24.8851  -32.2943   26.4718 H   0  0  0  0  0  0
  -25.7951  -30.8970   27.0202 H   0  0  0  0  0  0
  -26.2906  -29.6706   24.1218 H   0  0  0  0  0  0
  -27.3967  -29.7229   25.4738 H   0  0  0  0  0  0
  -27.8802  -30.4196   23.9462 H   0  0  0  0  0  0
  -27.2622  -33.3602   26.2027 H   0  0  0  0  0  0
  -28.3862  -32.6854   25.0327 H   0  0  0  0  0  0
  -28.0649  -31.8430   26.5423 H   0  0  0  0  0  0
  -28.2586  -38.0114   24.7515 H   0  0  0  0  0  0
  -28.1088  -36.2642   24.6277 H   0  0  0  0  0  0
  -27.2303  -37.1447   25.8871 H   0  0  0  0  0  0
  -20.9398  -29.8787   21.6832 H   0  0  0  0  0  0
  -26.0158  -38.2835   24.1416 H   0  0  0  0  0  0
  -27.4618  -17.4597   20.8469 H   0  0  0  0  0  0
  -28.4793  -18.1169   22.0857 H   0  0  0  0  0  0
  -30.9003  -18.5286   21.6622 H   0  0  0  0  0  0
  -31.6076  -18.1508   20.1241 H   0  0  0  0  0  0
  -27.1098  -19.8956   21.0402 H   0  0  0  0  0  0
  -27.6744  -19.4726   19.4504 H   0  0  0  0  0  0
  -30.2442  -19.9145   18.9745 H   0  0  0  0  0  0
  -31.1621  -20.6288   20.2669 H   0  0  0  0  0  0
  -29.3990  -17.3423   19.2721 H   0  0  0  0  0  0
  -26.5351  -23.4505   21.4068 H   0  0  0  0  0  0
  -25.9244  -25.0615   21.2190 H   0  0  0  0  0  0
  -27.2356  -24.7609   22.3385 H   0  0  0  0  0  0
  -29.9175  -23.7641   19.9645 H   0  0  0  0  0  0
  -29.2455  -23.4398   21.5192 H   0  0  0  0  0  0
  -28.7718  -21.9126   18.8781 H   0  0  0  0  0  0
  -27.5004  -21.9444   20.0181 H   0  0  0  0  0  0
  -27.4724  -24.5282   19.2829 H   0  0  0  0  0  0
  -28.8722  -15.5421   21.1898 H   0  0  0  0  0  0
  -29.1952  -20.7849   21.5743 H   0  0  0  0  0  0
  1 25  1  0  0  0
  1 30  2  0  0  0
  1 80  1  0  0  0
  2  3  1  0  0  0
  2 25  1  0  0  0
  2 82  1  0  0  0
  2 83  1  0  0  0
  3  4  1  0  0  0
  3 84  1  0  0  0
  3 85  1  0  0  0
  4  5  1  0  0  0
  4 86  1  0  0  0
  4 87  1  0  0  0
  5  6  1  0  0  0
  5 26  1  0  0  0
  5 88  1  0  0  0
  6 25  1  0  0  0
  6 89  1  0  0  0
  6 90  1  0  0  0
  7  8  2  0  0  0
  7 26  1  0  0  0
  7 29  1  0  0  0
  8  9  1  0  0  0
  8 22  1  0  0  0
  9 10  1  0  0  0
  9 27  2  0  0  0
 10 11  2  0  0  0
 10 15  1  0  0  0
 11 12  1  0  0  0
 11 91  1  0  0  0
 12 13  2  0  0  0
 12 92  1  0  0  0
 13 14  1  0  0  0
 13 31  1  0  0  0
 14 15  2  0  0  0
 14 93  1  0  0  0
 15 94  1  0  0  0
 16 17  2  0  0  0
 16 21  1  0  0  0
 16 31  1  0  0  0
 17 18  1  0  0  0
 17 95  1  0  0  0
 18 19  2  0  0  0
 18 96  1  0  0  0
 19 20  1  0  0  0
 19 24  1  0  0  0
 20 21  2  0  0  0
 20 97  1  0  0  0
 21 23  1  0  0  0
 22 28  1  0  0  0
 22 32  2  0  0  0
 26 27  1  0  0  0
 28 98  1  0  0  0
 28 99  1  0  0  0
 29100  1  0  0  0
 29101  1  0  0  0
 33 34  1  0  0  0
 33 66  1  0  0  0
 33 70  2  0  0  0
 34 36  1  0  0  0
 34 59  1  0  0  0
 34102  1  0  0  0
 35 44  2  0  0  0
 35 45  1  0  0  0
 35 68  1  0  0  0
 36 56  1  0  0  0
 36103  1  0  0  0
 37 39  1  0  0  0
 37 47  1  0  0  0
 37 66  1  0  0  0
 37104  1  0  0  0
 38 43  2  0  0  0
 38 46  1  0  0  0
 38 47  1  0  0  0
 39 64  1  0  0  0
 39 67  2  0  0  0
 40 52  1  0  0  0
 40 53  2  0  0  0
 40 58  1  0  0  0
 41105  1  0  0  0
 41106  1  0  0  0
 41107  1  0  0  0
 41 48  1  0  0  0
 42 43  1  0  0  0
 42 66  1  0  0  0
 42108  1  0  0  0
 42109  1  0  0  0
 43 44  1  0  0  0
 44110  1  0  0  0
 45 46  2  0  0  0
 45111  1  0  0  0
 46112  1  0  0  0
 47113  1  0  0  0
 47114  1  0  0  0
 48 56  1  0  0  0
 48 65  1  0  0  0
 48115  1  0  0  0
 49 50  1  0  0  0
 49 53  1  0  0  0
 49 64  1  0  0  0
 49116  1  0  0  0
 50 51  1  0  0  0
 50117  1  0  0  0
 50118  1  0  0  0
 51 52  1  0  0  0
 51119  1  0  0  0
 51120  1  0  0  0
 52121  1  0  0  0
 52122  1  0  0  0
 53 54  1  0  0  0
 54 55  2  0  0  0
 54123  1  0  0  0
 55 57  1  0  0  0
 55124  1  0  0  0
 56 69  2  0  0  0
 57 58  2  0  0  0
 57125  1  0  0  0
 58126  1  0  0  0
 59 60  1  0  0  0
 59 61  1  0  0  0
 59 62  1  0  0  0
 60127  1  0  0  0
 60128  1  0  0  0
 60129  1  0  0  0
 61130  1  0  0  0
 61131  1  0  0  0
 61132  1  0  0  0
 62133  1  0  0  0
 62134  1  0  0  0
 62135  1  0  0  0
 63 65  1  0  0  0
 63136  1  0  0  0
 63137  1  0  0  0
 63138  1  0  0  0
 64139  1  0  0  0
 65140  1  0  0  0
 68 79  1  0  0  0
 71 73  1  0  0  0
 71 75  1  0  0  0
 71141  1  0  0  0
 71142  1  0  0  0
 72 74  1  0  0  0
 72 75  1  0  0  0
 72143  1  0  0  0
 72144  1  0  0  0
 73 81  1  0  0  0
 73145  1  0  0  0
 73146  1  0  0  0
 74 81  1  0  0  0
 74147  1  0  0  0
 74148  1  0  0  0
 75 80  1  0  0  0
 75149  1  0  0  0
 76150  1  0  0  0
 76151  1  0  0  0
 76152  1  0  0  0
 76 79  1  0  0  0
 77 78  1  0  0  0
 77 79  1  0  0  0
 77153  1  0  0  0
 77154  1  0  0  0
 78155  1  0  0  0
 78156  1  0  0  0
 78 81  1  0  0  0
 79157  1  0  0  0
 80158  1  0  0  0
 81159  1  0  0  0
M  CHG  1  81   1
M  ISO  4   1 100  68 101  79 101  80 100
M  END
> <chiral flag>
0

> <version>
0

> <s_m_source_file>
/data/baiqing/PycharmProjects/Reinvent-master-3.2/result/LINK_invent/BTK/process_docking_weight1_custom_sum_contain_oxygen_bond_distance_aromatic_linkinvent_7_9_3/rearranged_h_0111.sdf

> <i_m_source_file_index>
25

> <r_mmod_Potential_Energy-OPLS-2005>
235.135162353516

> <r_mmod_Stretch_Energy-OPLS-2005>
171.486709594727

> <r_mmod_Bend_Energy-OPLS-2005>
234.74885559082

> <r_mmod_Torsional_Energy-OPLS-2005>
254.519836425781

> <r_mmod_Improper_Torsional_Energy-OPLS-2005>
5.81223297119141

> <r_mmod_Van_der_Waal_Energy-OPLS-2005>
127.31901550293

> <r_mmod_Electrostatic_Energy-OPLS-2005>
-224.118545532227

> <r_mmod_Solvation_Energy-OPLS-2005>
-461.411834716797

> <b_mmod_Minimization_Converged-OPLS-2005>
0

> <r_mmod_RMS_Derivative-OPLS-2005>
2.40217065811157

$$$$
25
                    3D
 Structure written by MMmdl.
153161  0  0  1  0            999 V2000
  -30.4795  -15.1823   20.3781 C   0  0  0  0  0  0
  -30.4371  -12.7486   19.5286 C   0  0  0  0  0  0
  -29.5351  -12.5598   18.2846 C   0  0  0  0  0  0
  -28.0800  -12.2982   18.7105 C   0  0  0  0  0  0
  -27.6161  -13.2685   19.8258 C   0  0  2  0  0  0
  -28.6490  -13.4170   20.9639 C   0  0  0  0  0  0
  -25.2415  -13.8242   20.5736 C   0  0  0  0  0  0
  -24.1759  -13.0440   20.9252 C   0  0  0  0  0  0
  -24.6395  -11.6931   20.8757 C   0  0  0  0  0  0
  -23.9086  -10.4294   21.0412 C   0  0  0  0  0  0
  -24.3634   -9.4207   21.9185 C   0  0  0  0  0  0
  -23.6306   -8.2238   22.0750 C   0  0  0  0  0  0
  -22.4285   -8.0280   21.3544 C   0  0  0  0  0  0
  -21.9925   -9.0254   20.4643 C   0  0  0  0  0  0
  -22.7254  -10.2132   20.3056 C   0  0  0  0  0  0
  -21.6856   -6.0740   22.5283 C   0  0  0  0  0  0
  -21.4016   -6.5644   23.8213 C   0  0  0  0  0  0
  -21.3657   -5.6794   24.9176 C   0  0  0  0  0  0
  -21.6044   -4.3059   24.7228 C   0  0  0  0  0  0
  -21.8818   -3.8150   23.4347 C   0  0  0  0  0  0
  -21.9196   -4.6967   22.3404 C   0  0  0  0  0  0
  -22.7778  -13.5198   21.1900 C   0  0  0  0  0  0
  -22.1664   -4.2153   21.0981 F   0  0  0  0  0  0
  -21.5625   -3.4541   25.7739 F   0  0  0  0  0  0
  -29.8950  -13.8923   20.3459 N   0  0  0  0  0  0
  -26.2836  -12.9499   20.3210 N   0  0  0  0  0  0
  -25.9331  -11.6613   20.5718 N   0  0  0  0  0  0
  -22.0422  -12.8181   22.0448 N   0  0  0  0  0  0
  -25.4079  -15.1971   20.4172 N   0  0  0  0  0  0
  -31.6945  -15.1744   20.1420 O   0  0  0  0  0  0
  -21.6642   -6.8884   21.4242 O   0  0  0  0  0  0
  -22.3459  -14.5495   20.6734 O   0  0  0  0  0  0
  -24.6596  -31.8290   23.1755 C   0  0  0  0  0  0
  -25.9297  -32.4619   23.8198 C   0  0  1  0  0  0
  -27.2098  -26.9716   20.1721 C   0  0  0  0  0  0
  -25.5987  -33.8430   24.2108 N   0  0  0  0  0  0
  -23.4712  -30.4450   21.5246 C   0  0  2  0  0  0
  -24.9234  -28.8459   20.1096 C   0  0  0  0  0  0
  -22.7647  -29.4466   22.4790 C   0  0  0  0  0  0
  -18.0324  -28.1409   22.8471 C   0  0  0  0  0  0
  -24.1492  -36.7221   23.2639 C   0  0  0  0  0  0
  -26.0391  -30.6502   21.3988 C   0  0  0  0  0  0
  -26.1075  -29.2453   20.7419 C   0  0  0  0  0  0
  -27.2480  -28.3277   20.7531 C   0  0  0  0  0  0
  -25.9980  -26.7229   19.4859 C   0  0  0  0  0  0
  -24.8915  -27.6041   19.4614 C   0  0  0  0  0  0
  -23.7079  -29.7682   20.1474 C   0  0  0  0  0  0
  -25.4127  -36.2982   24.0302 C   0  0  1  0  0  0
  -20.5949  -28.3744   23.1197 C   0  0  2  0  0  0
  -20.6801  -26.9431   22.5396 C   0  0  0  0  0  0
  -19.5770  -26.6385   21.5211 C   0  0  0  0  0  0
  -18.1955  -26.7944   22.1627 C   0  0  0  0  0  0
  -19.1585  -28.8898   23.2825 C   0  0  0  0  0  0
  -18.9491  -30.1489   23.8858 C   0  0  0  0  0  0
  -17.6482  -30.6595   24.0558 C   0  0  0  0  0  0
  -25.9092  -34.9366   23.5019 C   0  0  0  0  0  0
  -16.5372  -29.9081   23.6344 C   0  0  0  0  0  0
  -16.7307  -28.6505   23.0361 C   0  0  0  0  0  0
  -26.4558  -31.6542   25.0700 C   0  0  0  0  0  0
  -25.3698  -31.3801   26.1369 C   0  0  0  0  0  0
  -27.0433  -30.2910   24.6396 C   0  0  0  0  0  0
  -27.6065  -32.4332   25.7498 C   0  0  0  0  0  0
  -27.5570  -37.1764   24.8460 C   0  0  0  0  0  0
  -21.4322  -29.3046   22.3550 N   0  0  0  0  0  0
  -26.4272  -37.3715   23.9409 N   0  0  0  0  0  0
  -24.7447  -30.9997   22.0872 N   0  0  0  0  0  0
  -23.4218  -28.8026   23.3003 O   0  0  0  0  0  0
  -28.1919  -25.8614   20.2577 O   0  0  0  0  0  0
  -26.5684  -34.8894   22.4601 O   0  0  0  0  0  0
  -23.5678  -32.1233   23.6882 O   0  0  0  0  0  0
  -27.7339  -21.5210   19.8480 C   0  0  0  0  0  0
  -28.1709  -20.1077   19.8912 C   0  0  0  0  0  0
  -29.7638  -22.2342   20.6493 C   0  0  0  0  0  0
  -28.4769  -22.7271   20.1978 C   0  0  0  0  0  0
  -29.4628  -19.6079   20.3163 C   0  0  0  0  0  0
  -30.2267  -20.8120   20.7083 C   0  0  0  0  0  0
  -30.4199  -17.9776   18.5671 C   0  0  0  0  0  0
  -27.7784  -24.3085   20.0242 C   0  0  0  0  0  0
  -30.1323  -18.0148   20.0782 C   0  0  2  0  0  0
  -31.6608  -20.5949   21.1974 C   0  0  0  0  0  0
  -29.7425  -16.4566   20.4500 N   0  0  0  0  0  0
  -32.2331  -21.7180   21.6344 F   0  0  0  0  0  0
  -31.6682  -19.7287   22.2111 F   0  0  0  0  0  0
  -32.4183  -20.1166   20.2105 F   0  0  0  0  0  0
  -31.4630  -12.9303   19.2060 H   0  0  0  0  0  0
  -30.4748  -11.8329   20.1206 H   0  0  0  0  0  0
  -29.9015  -11.7359   17.6699 H   0  0  0  0  0  0
  -29.5820  -13.4535   17.6610 H   0  0  0  0  0  0
  -28.0279  -11.2729   19.0784 H   0  0  0  0  0  0
  -27.4121  -12.3500   17.8502 H   0  0  0  0  0  0
  -27.5429  -14.2408   19.3376 H   0  0  0  0  0  0
  -28.7940  -12.4777   21.4993 H   0  0  0  0  0  0
  -28.3018  -14.1456   21.6984 H   0  0  0  0  0  0
  -25.2776   -9.5688   22.4761 H   0  0  0  0  0  0
  -24.0020   -7.4633   22.7467 H   0  0  0  0  0  0
  -21.0855   -8.8780   19.8948 H   0  0  0  0  0  0
  -22.3715  -10.9676   19.6168 H   0  0  0  0  0  0
  -21.2006   -7.6152   23.9719 H   0  0  0  0  0  0
  -21.1479   -6.0524   25.9079 H   0  0  0  0  0  0
  -22.0597   -2.7612   23.2845 H   0  0  0  0  0  0
  -22.4058  -11.9865   22.4869 H   0  0  0  0  0  0
  -21.1027  -13.1187   22.2625 H   0  0  0  0  0  0
  -24.6387  -15.8492   20.5275 H   0  0  0  0  0  0
  -26.2476  -15.6343   20.0611 H   0  0  0  0  0  0
  -26.7366  -32.5171   23.0916 H   0  0  0  0  0  0
  -25.0123  -33.9522   25.0252 H   0  0  0  0  0  0
  -22.7818  -31.2756   21.3598 H   0  0  0  0  0  0
  -23.3759  -35.9548   23.3276 H   0  0  0  0  0  0
  -24.3573  -36.8881   22.2057 H   0  0  0  0  0  0
  -23.7246  -37.6408   23.6696 H   0  0  0  0  0  0
  -26.2107  -31.3949   20.6204 H   0  0  0  0  0  0
  -26.9029  -30.7074   22.0483 H   0  0  0  0  0  0
  -28.1422  -28.6281   21.2810 H   0  0  0  0  0  0
  -25.8560  -25.7804   18.9810 H   0  0  0  0  0  0
  -23.9923  -27.2949   18.9464 H   0  0  0  0  0  0
  -23.8598  -30.5400   19.3916 H   0  0  0  0  0  0
  -22.8183  -29.2212   19.8302 H   0  0  0  0  0  0
  -25.1323  -36.1784   25.0795 H   0  0  0  0  0  0
  -21.0041  -28.3341   24.1317 H   0  0  0  0  0  0
  -20.5682  -26.2362   23.3632 H   0  0  0  0  0  0
  -21.6668  -26.7411   22.1202 H   0  0  0  0  0  0
  -19.6922  -25.6284   21.1268 H   0  0  0  0  0  0
  -19.6709  -27.3178   20.6728 H   0  0  0  0  0  0
  -17.4225  -26.6697   21.4027 H   0  0  0  0  0  0
  -18.0343  -26.0092   22.9033 H   0  0  0  0  0  0
  -19.7963  -30.7324   24.2203 H   0  0  0  0  0  0
  -17.5034  -31.6272   24.5169 H   0  0  0  0  0  0
  -15.5370  -30.2970   23.7687 H   0  0  0  0  0  0
  -15.8711  -28.0812   22.7086 H   0  0  0  0  0  0
  -24.5898  -30.7118   25.7699 H   0  0  0  0  0  0
  -24.8868  -32.3013   26.4636 H   0  0  0  0  0  0
  -25.7947  -30.9086   27.0240 H   0  0  0  0  0  0
  -26.3087  -29.6608   24.1371 H   0  0  0  0  0  0
  -27.3945  -29.7243   25.5029 H   0  0  0  0  0  0
  -27.9042  -30.4089   23.9813 H   0  0  0  0  0  0
  -27.2646  -33.3671   26.1971 H   0  0  0  0  0  0
  -28.3938  -32.6827   25.0372 H   0  0  0  0  0  0
  -28.0670  -31.8526   26.5503 H   0  0  0  0  0  0
  -28.2564  -38.0082   24.7515 H   0  0  0  0  0  0
  -28.1091  -36.2608   24.6272 H   0  0  0  0  0  0
  -27.2297  -37.1399   25.8867 H   0  0  0  0  0  0
  -20.9558  -29.8751   21.6705 H   0  0  0  0  0  0
  -26.0124  -38.2773   24.1429 H   0  0  0  0  0  0
  -26.7295  -21.6843   19.4812 H   0  0  0  0  0  0
  -27.4707  -19.3727   19.5188 H   0  0  0  0  0  0
  -30.4590  -23.0007   20.9550 H   0  0  0  0  0  0
  -30.9951  -18.8487   18.2530 H   0  0  0  0  0  0
  -29.4904  -17.9776   17.9973 H   0  0  0  0  0  0
  -30.9892  -17.0986   18.2670 H   0  0  0  0  0  0
  -26.8452  -24.2106   20.5797 H   0  0  0  0  0  0
  -27.4754  -24.2919   18.9771 H   0  0  0  0  0  0
  -31.1062  -18.0736   20.5573 H   0  0  0  0  0  0
  -28.7656  -16.3302   20.6683 H   0  0  0  0  0  0
  1 25  1  0  0  0
  1 30  2  0  0  0
  1 81  1  0  0  0
  2  3  1  0  0  0
  2 25  1  0  0  0
  2 85  1  0  0  0
  2 86  1  0  0  0
  3  4  1  0  0  0
  3 87  1  0  0  0
  3 88  1  0  0  0
  4  5  1  0  0  0
  4 89  1  0  0  0
  4 90  1  0  0  0
  5  6  1  0  0  0
  5 26  1  0  0  0
  5 91  1  0  0  0
  6 25  1  0  0  0
  6 92  1  0  0  0
  6 93  1  0  0  0
  7  8  2  0  0  0
  7 26  1  0  0  0
  7 29  1  0  0  0
  8  9  1  0  0  0
  8 22  1  0  0  0
  9 10  1  0  0  0
  9 27  2  0  0  0
 10 11  2  0  0  0
 10 15  1  0  0  0
 11 12  1  0  0  0
 11 94  1  0  0  0
 12 13  2  0  0  0
 12 95  1  0  0  0
 13 14  1  0  0  0
 13 31  1  0  0  0
 14 15  2  0  0  0
 14 96  1  0  0  0
 15 97  1  0  0  0
 16 17  2  0  0  0
 16 21  1  0  0  0
 16 31  1  0  0  0
 17 18  1  0  0  0
 17 98  1  0  0  0
 18 19  2  0  0  0
 18 99  1  0  0  0
 19 20  1  0  0  0
 19 24  1  0  0  0
 20 21  2  0  0  0
 20100  1  0  0  0
 21 23  1  0  0  0
 22 28  1  0  0  0
 22 32  2  0  0  0
 26 27  1  0  0  0
 28101  1  0  0  0
 28102  1  0  0  0
 29103  1  0  0  0
 29104  1  0  0  0
 33 34  1  0  0  0
 33 66  1  0  0  0
 33 70  2  0  0  0
 34 36  1  0  0  0
 34 59  1  0  0  0
 34105  1  0  0  0
 35 44  2  0  0  0
 35 45  1  0  0  0
 35 68  1  0  0  0
 36 56  1  0  0  0
 36106  1  0  0  0
 37 39  1  0  0  0
 37 47  1  0  0  0
 37 66  1  0  0  0
 37107  1  0  0  0
 38 43  2  0  0  0
 38 46  1  0  0  0
 38 47  1  0  0  0
 39 64  1  0  0  0
 39 67  2  0  0  0
 40 52  1  0  0  0
 40 53  2  0  0  0
 40 58  1  0  0  0
 41108  1  0  0  0
 41109  1  0  0  0
 41110  1  0  0  0
 41 48  1  0  0  0
 42 43  1  0  0  0
 42 66  1  0  0  0
 42111  1  0  0  0
 42112  1  0  0  0
 43 44  1  0  0  0
 44113  1  0  0  0
 45 46  2  0  0  0
 45114  1  0  0  0
 46115  1  0  0  0
 47116  1  0  0  0
 47117  1  0  0  0
 48 56  1  0  0  0
 48 65  1  0  0  0
 48118  1  0  0  0
 49 50  1  0  0  0
 49 53  1  0  0  0
 49 64  1  0  0  0
 49119  1  0  0  0
 50 51  1  0  0  0
 50120  1  0  0  0
 50121  1  0  0  0
 51 52  1  0  0  0
 51122  1  0  0  0
 51123  1  0  0  0
 52124  1  0  0  0
 52125  1  0  0  0
 53 54  1  0  0  0
 54 55  2  0  0  0
 54126  1  0  0  0
 55 57  1  0  0  0
 55127  1  0  0  0
 56 69  2  0  0  0
 57 58  2  0  0  0
 57128  1  0  0  0
 58129  1  0  0  0
 59 60  1  0  0  0
 59 61  1  0  0  0
 59 62  1  0  0  0
 60130  1  0  0  0
 60131  1  0  0  0
 60132  1  0  0  0
 61133  1  0  0  0
 61134  1  0  0  0
 61135  1  0  0  0
 62136  1  0  0  0
 62137  1  0  0  0
 62138  1  0  0  0
 63 65  1  0  0  0
 63139  1  0  0  0
 63140  1  0  0  0
 63141  1  0  0  0
 64142  1  0  0  0
 65143  1  0  0  0
 68 78  1  0  0  0
 71 72  2  0  0  0
 71 74  1  0  0  0
 71144  1  0  0  0
 72 75  1  0  0  0
 72145  1  0  0  0
 73 74  2  0  0  0
 73 76  1  0  0  0
 73146  1  0  0  0
 74 78  1  0  0  0
 75 76  2  0  0  0
 75 79  1  0  0  0
 76 80  1  0  0  0
 77147  1  0  0  0
 77148  1  0  0  0
 77149  1  0  0  0
 77 79  1  0  0  0
 78150  1  0  0  0
 78151  1  0  0  0
 79 81  1  0  0  0
 79152  1  0  0  0
 80 82  1  0  0  0
 80 83  1  0  0  0
 80 84  1  0  0  0
 81153  1  0  0  0
M  ISO  4   1 100  68 101  78 101  81 100
M  END
> <chiral flag>
0

> <version>
0

> <s_m_source_file>
/data/baiqing/PycharmProjects/Reinvent-master-3.2/result/LINK_invent/BTK/process_docking_weight1_custom_sum_contain_oxygen_bond_distance_aromatic_linkinvent_7_9_3/rearranged_h_0111.sdf

> <i_m_source_file_index>
26

> <r_mmod_Potential_Energy-OPLS-2005>
1078.09851074219

> <r_mmod_Stretch_Energy-OPLS-2005>
458.297424316406

> <r_mmod_Bend_Energy-OPLS-2005>
429.549774169922

> <r_mmod_Torsional_Energy-OPLS-2005>
218.533599853516

> <r_mmod_Improper_Torsional_Energy-OPLS-2005>
7.27879810333252

> <r_mmod_Van_der_Waal_Energy-OPLS-2005>
137.976974487305

> <r_mmod_Electrostatic_Energy-OPLS-2005>
-354.891723632812

> <r_mmod_Solvation_Energy-OPLS-2005>
-206.569244384766

> <b_mmod_Minimization_Converged-OPLS-2005>
0

> <r_mmod_RMS_Derivative-OPLS-2005>
1.14138209819794

$$$$
26
                    3D
 Structure written by MMmdl.
161168  0  0  1  0            999 V2000
  -30.7444  -14.4317   20.6477 C   0  0  0  0  0  0
  -30.4230  -12.3091   19.4172 C   0  0  0  0  0  0
  -29.4963  -12.5209   18.2037 C   0  0  0  0  0  0
  -28.0184  -12.3712   18.6124 C   0  0  0  0  0  0
  -27.6641  -13.2086   19.8688 C   0  0  2  0  0  0
  -28.7022  -12.9840   20.9923 C   0  0  0  0  0  0
  -25.2615  -13.8169   20.5672 C   0  0  0  0  0  0
  -24.1860  -13.0457   20.9165 C   0  0  0  0  0  0
  -24.6395  -11.6919   20.8696 C   0  0  0  0  0  0
  -23.9052  -10.4306   21.0375 C   0  0  0  0  0  0
  -24.3609   -9.4235   21.9170 C   0  0  0  0  0  0
  -23.6286   -8.2262   22.0747 C   0  0  0  0  0  0
  -22.4269   -8.0288   21.3543 C   0  0  0  0  0  0
  -21.9893   -9.0250   20.4644 C   0  0  0  0  0  0
  -22.7212  -10.2140   20.3041 C   0  0  0  0  0  0
  -21.6858   -6.0742   22.5270 C   0  0  0  0  0  0
  -21.4014   -6.5635   23.8204 C   0  0  0  0  0  0
  -21.3663   -5.6791   24.9165 C   0  0  0  0  0  0
  -21.6042   -4.3046   24.7210 C   0  0  0  0  0  0
  -21.8823   -3.8146   23.4329 C   0  0  0  0  0  0
  -21.9199   -4.6962   22.3389 C   0  0  0  0  0  0
  -22.7876  -13.5245   21.1832 C   0  0  0  0  0  0
  -22.1668   -4.2151   21.0967 F   0  0  0  0  0  0
  -21.5636   -3.4532   25.7724 F   0  0  0  0  0  0
  -30.0434  -13.2815   20.4551 N   0  0  0  0  0  0
  -26.3042  -12.9336   20.3311 N   0  0  0  0  0  0
  -25.9319  -11.6492   20.5696 N   0  0  0  0  0  0
  -22.0514  -12.8243   22.0386 N   0  0  0  0  0  0
  -25.4378  -15.1888   20.4099 N   0  0  0  0  0  0
  -31.8167  -14.6691   20.0849 O   0  0  0  0  0  0
  -21.6640   -6.8876   21.4233 O   0  0  0  0  0  0
  -22.3550  -14.5538   20.6671 O   0  0  0  0  0  0
  -24.6161  -31.8706   23.2077 C   0  0  0  0  0  0
  -25.9047  -32.4843   23.8382 C   0  0  1  0  0  0
  -27.2292  -27.4184   20.0999 C   0  0  0  0  0  0
  -25.5887  -33.8638   24.2315 N   0  0  0  0  0  0
  -23.4038  -30.4932   21.5507 C   0  0  2  0  0  0
  -24.8490  -28.9618   20.1115 C   0  0  0  0  0  0
  -22.7413  -29.4669   22.4987 C   0  0  0  0  0  0
  -18.0272  -28.1380   22.8489 C   0  0  0  0  0  0
  -24.1487  -36.7349   23.2630 C   0  0  0  0  0  0
  -25.9353  -30.8305   21.3614 C   0  0  0  0  0  0
  -26.0118  -29.4629   20.7101 C   0  0  0  0  0  0
  -27.2048  -28.6992   20.7022 C   0  0  0  0  0  0
  -26.0500  -26.9518   19.4705 C   0  0  0  0  0  0
  -24.8638  -27.7057   19.4873 C   0  0  0  0  0  0
  -23.6096  -29.8268   20.1656 C   0  0  0  0  0  0
  -25.4105  -36.3134   24.0334 C   0  0  1  0  0  0
  -20.5858  -28.3664   23.1320 C   0  0  2  0  0  0
  -20.6757  -26.9397   22.5415 C   0  0  0  0  0  0
  -19.5739  -26.6389   21.5206 C   0  0  0  0  0  0
  -18.1919  -26.7925   22.1622 C   0  0  0  0  0  0
  -19.1524  -28.8832   23.2906 C   0  0  0  0  0  0
  -18.9451  -30.1433   23.8925 C   0  0  0  0  0  0
  -17.6455  -30.6581   24.0559 C   0  0  0  0  0  0
  -25.9035  -34.9496   23.5134 C   0  0  0  0  0  0
  -16.5344  -29.9089   23.6309 C   0  0  0  0  0  0
  -16.7267  -28.6507   23.0336 C   0  0  0  0  0  0
  -26.4442  -31.6597   25.0701 C   0  0  0  0  0  0
  -25.3692  -31.3721   26.1439 C   0  0  0  0  0  0
  -27.0232  -30.3040   24.6031 C   0  0  0  0  0  0
  -27.6053  -32.4252   25.7454 C   0  0  0  0  0  0
  -27.5586  -37.1811   24.8446 C   0  0  0  0  0  0
  -21.4135  -29.3044   22.3727 N   0  0  0  0  0  0
  -26.4300  -37.3815   23.9393 N   0  0  0  0  0  0
  -24.6703  -31.0781   22.0990 N   0  0  0  0  0  0
  -23.4195  -28.8202   23.3016 O   0  0  0  0  0  0
  -28.3760  -26.6420   20.1561 O   0  0  0  0  0  0
  -26.5602  -34.8942   22.4697 O   0  0  0  0  0  0
  -23.5348  -32.1446   23.7466 O   0  0  0  0  0  0
  -30.2960  -17.8051   20.8065 C   0  0  0  0  0  0
  -29.1405  -17.4838   19.8600 C   0  0  0  0  0  0
  -31.3248  -24.8030   19.7058 C   0  0  0  0  0  0
  -30.6901  -16.6779   21.7825 C   0  0  0  0  0  0
  -30.0016  -21.2448   20.3515 C   0  0  0  0  0  0
  -30.7515  -19.9756   19.8340 C   0  0  0  0  0  0
  -30.8925  -22.5159   20.5286 C   0  0  0  0  0  0
  -29.2346  -24.3801   20.9134 C   0  0  0  0  0  0
  -28.1658  -25.2107   20.1517 C   0  0  0  0  0  0
  -30.9328  -18.9218   20.8404 N   0  0  0  0  0  0
  -30.1755  -15.3339   21.4622 N   0  0  0  0  0  0
  -30.2858  -23.7960   20.0304 N   0  3  1  0  0  0
  -31.4691  -12.4023   19.1184 H   0  0  0  0  0  0
  -30.3151  -11.2933   19.8012 H   0  0  0  0  0  0
  -29.7382  -11.8072   17.4152 H   0  0  0  0  0  0
  -29.6625  -13.5132   17.7826 H   0  0  0  0  0  0
  -27.8343  -11.3130   18.8039 H   0  0  0  0  0  0
  -27.3662  -12.6473   17.7821 H   0  0  0  0  0  0
  -27.7085  -14.2568   19.5720 H   0  0  0  0  0  0
  -28.6711  -11.9462   21.3282 H   0  0  0  0  0  0
  -28.4470  -13.5805   21.8689 H   0  0  0  0  0  0
  -25.2760   -9.5714   22.4729 H   0  0  0  0  0  0
  -24.0015   -7.4647   22.7447 H   0  0  0  0  0  0
  -21.0841   -8.8745   19.8932 H   0  0  0  0  0  0
  -22.3660  -10.9671   19.6137 H   0  0  0  0  0  0
  -21.1999   -7.6142   23.9704 H   0  0  0  0  0  0
  -21.1490   -6.0519   25.9072 H   0  0  0  0  0  0
  -22.0603   -2.7599   23.2823 H   0  0  0  0  0  0
  -22.4136  -11.9916   22.4800 H   0  0  0  0  0  0
  -21.1119  -13.1264   22.2552 H   0  0  0  0  0  0
  -24.6773  -15.8507   20.5176 H   0  0  0  0  0  0
  -26.2958  -15.6220   20.0942 H   0  0  0  0  0  0
  -26.7123  -32.5543   23.1155 H   0  0  0  0  0  0
  -24.9967  -33.9787   25.0402 H   0  0  0  0  0  0
  -22.6961  -31.3120   21.4117 H   0  0  0  0  0  0
  -23.3741  -35.9689   23.3297 H   0  0  0  0  0  0
  -24.3590  -36.8966   22.2045 H   0  0  0  0  0  0
  -23.7250  -37.6568   23.6636 H   0  0  0  0  0  0
  -26.0401  -31.5906   20.5854 H   0  0  0  0  0  0
  -26.8281  -30.8944   21.9726 H   0  0  0  0  0  0
  -28.0974  -29.0761   21.1797 H   0  0  0  0  0  0
  -26.0194  -25.9974   18.9653 H   0  0  0  0  0  0
  -23.9721  -27.3180   19.0140 H   0  0  0  0  0  0
  -23.7143  -30.6003   19.4046 H   0  0  0  0  0  0
  -22.7341  -29.2443   19.8730 H   0  0  0  0  0  0
  -25.1282  -36.2004   25.0835 H   0  0  0  0  0  0
  -20.9953  -28.3218   24.1439 H   0  0  0  0  0  0
  -20.5637  -26.2276   23.3606 H   0  0  0  0  0  0
  -21.6634  -26.7424   22.1221 H   0  0  0  0  0  0
  -19.6898  -25.6307   21.1223 H   0  0  0  0  0  0
  -19.6677  -27.3207   20.6743 H   0  0  0  0  0  0
  -17.4181  -26.6655   21.4028 H   0  0  0  0  0  0
  -18.0328  -26.0063   22.9023 H   0  0  0  0  0  0
  -19.7929  -30.7222   24.2324 H   0  0  0  0  0  0
  -17.5020  -31.6267   24.5153 H   0  0  0  0  0  0
  -15.5350  -30.3011   23.7624 H   0  0  0  0  0  0
  -15.8657  -28.0841   22.7043 H   0  0  0  0  0  0
  -24.5850  -30.7092   25.7762 H   0  0  0  0  0  0
  -24.8900  -32.2896   26.4875 H   0  0  0  0  0  0
  -25.8009  -30.8886   27.0207 H   0  0  0  0  0  0
  -26.2836  -29.6960   24.0803 H   0  0  0  0  0  0
  -27.3706  -29.7097   25.4485 H   0  0  0  0  0  0
  -27.8793  -30.4385   23.9405 H   0  0  0  0  0  0
  -27.2717  -33.3536   26.2087 H   0  0  0  0  0  0
  -28.3843  -32.6820   25.0264 H   0  0  0  0  0  0
  -28.0727  -31.8306   26.5306 H   0  0  0  0  0  0
  -28.2614  -38.0098   24.7499 H   0  0  0  0  0  0
  -28.1080  -36.2640   24.6262 H   0  0  0  0  0  0
  -27.2310  -37.1451   25.8851 H   0  0  0  0  0  0
  -20.9284  -29.8818   21.6990 H   0  0  0  0  0  0
  -26.0204  -38.2907   24.1397 H   0  0  0  0  0  0
  -29.5154  -16.9895   18.9634 H   0  0  0  0  0  0
  -28.5856  -18.3746   19.5722 H   0  0  0  0  0  0
  -28.4142  -16.8280   20.3405 H   0  0  0  0  0  0
  -30.8845  -25.7162   19.3049 H   0  0  0  0  0  0
  -32.0208  -24.4244   18.9553 H   0  0  0  0  0  0
  -31.8969  -25.0701   20.5943 H   0  0  0  0  0  0
  -30.3459  -16.9472   22.7822 H   0  0  0  0  0  0
  -31.7799  -16.6374   21.8516 H   0  0  0  0  0  0
  -29.2140  -21.4711   19.6321 H   0  0  0  0  0  0
  -29.4714  -21.0310   21.2795 H   0  0  0  0  0  0
  -31.7374  -20.2587   19.4648 H   0  0  0  0  0  0
  -30.2649  -19.6110   18.9292 H   0  0  0  0  0  0
  -31.8227  -22.3651   19.9804 H   0  0  0  0  0  0
  -31.1934  -22.6229   21.5716 H   0  0  0  0  0  0
  -28.7045  -23.5500   21.3788 H   0  0  0  0  0  0
  -29.6667  -24.9455   21.7410 H   0  0  0  0  0  0
  -27.2208  -24.9865   20.6509 H   0  0  0  0  0  0
  -28.0545  -24.8508   19.1272 H   0  0  0  0  0  0
  -29.2968  -15.0712   21.8816 H   0  0  0  0  0  0
  -29.8495  -23.5688   19.1481 H   0  0  0  0  0  0
  1 25  1  0  0  0
  1 30  2  0  0  0
  1 81  1  0  0  0
  2  3  1  0  0  0
  2 25  1  0  0  0
  2 83  1  0  0  0
  2 84  1  0  0  0
  3  4  1  0  0  0
  3 85  1  0  0  0
  3 86  1  0  0  0
  4  5  1  0  0  0
  4 87  1  0  0  0
  4 88  1  0  0  0
  5  6  1  0  0  0
  5 26  1  0  0  0
  5 89  1  0  0  0
  6 25  1  0  0  0
  6 90  1  0  0  0
  6 91  1  0  0  0
  7  8  2  0  0  0
  7 26  1  0  0  0
  7 29  1  0  0  0
  8  9  1  0  0  0
  8 22  1  0  0  0
  9 10  1  0  0  0
  9 27  2  0  0  0
 10 11  2  0  0  0
 10 15  1  0  0  0
 11 12  1  0  0  0
 11 92  1  0  0  0
 12 13  2  0  0  0
 12 93  1  0  0  0
 13 14  1  0  0  0
 13 31  1  0  0  0
 14 15  2  0  0  0
 14 94  1  0  0  0
 15 95  1  0  0  0
 16 17  2  0  0  0
 16 21  1  0  0  0
 16 31  1  0  0  0
 17 18  1  0  0  0
 17 96  1  0  0  0
 18 19  2  0  0  0
 18 97  1  0  0  0
 19 20  1  0  0  0
 19 24  1  0  0  0
 20 21  2  0  0  0
 20 98  1  0  0  0
 21 23  1  0  0  0
 22 28  1  0  0  0
 22 32  2  0  0  0
 26 27  1  0  0  0
 28 99  1  0  0  0
 28100  1  0  0  0
 29101  1  0  0  0
 29102  1  0  0  0
 33 34  1  0  0  0
 33 66  1  0  0  0
 33 70  2  0  0  0
 34 36  1  0  0  0
 34 59  1  0  0  0
 34103  1  0  0  0
 35 44  2  0  0  0
 35 45  1  0  0  0
 35 68  1  0  0  0
 36 56  1  0  0  0
 36104  1  0  0  0
 37 39  1  0  0  0
 37 47  1  0  0  0
 37 66  1  0  0  0
 37105  1  0  0  0
 38 43  2  0  0  0
 38 46  1  0  0  0
 38 47  1  0  0  0
 39 64  1  0  0  0
 39 67  2  0  0  0
 40 52  1  0  0  0
 40 53  2  0  0  0
 40 58  1  0  0  0
 41106  1  0  0  0
 41107  1  0  0  0
 41108  1  0  0  0
 41 48  1  0  0  0
 42 43  1  0  0  0
 42 66  1  0  0  0
 42109  1  0  0  0
 42110  1  0  0  0
 43 44  1  0  0  0
 44111  1  0  0  0
 45 46  2  0  0  0
 45112  1  0  0  0
 46113  1  0  0  0
 47114  1  0  0  0
 47115  1  0  0  0
 48 56  1  0  0  0
 48 65  1  0  0  0
 48116  1  0  0  0
 49 50  1  0  0  0
 49 53  1  0  0  0
 49 64  1  0  0  0
 49117  1  0  0  0
 50 51  1  0  0  0
 50118  1  0  0  0
 50119  1  0  0  0
 51 52  1  0  0  0
 51120  1  0  0  0
 51121  1  0  0  0
 52122  1  0  0  0
 52123  1  0  0  0
 53 54  1  0  0  0
 54 55  2  0  0  0
 54124  1  0  0  0
 55 57  1  0  0  0
 55125  1  0  0  0
 56 69  2  0  0  0
 57 58  2  0  0  0
 57126  1  0  0  0
 58127  1  0  0  0
 59 60  1  0  0  0
 59 61  1  0  0  0
 59 62  1  0  0  0
 60128  1  0  0  0
 60129  1  0  0  0
 60130  1  0  0  0
 61131  1  0  0  0
 61132  1  0  0  0
 61133  1  0  0  0
 62134  1  0  0  0
 62135  1  0  0  0
 62136  1  0  0  0
 63 65  1  0  0  0
 63137  1  0  0  0
 63138  1  0  0  0
 63139  1  0  0  0
 64140  1  0  0  0
 65141  1  0  0  0
 68 79  1  0  0  0
 71 72  1  0  0  0
 71 74  1  0  0  0
 71 80  2  0  0  0
 72142  1  0  0  0
 72143  1  0  0  0
 72144  1  0  0  0
 73145  1  0  0  0
 73146  1  0  0  0
 73147  1  0  0  0
 73 82  1  0  0  0
 74 81  1  0  0  0
 74148  1  0  0  0
 74149  1  0  0  0
 75 76  1  0  0  0
 75 77  1  0  0  0
 75150  1  0  0  0
 75151  1  0  0  0
 76 80  1  0  0  0
 76152  1  0  0  0
 76153  1  0  0  0
 77 82  1  0  0  0
 77154  1  0  0  0
 77155  1  0  0  0
 78 79  1  0  0  0
 78 82  1  0  0  0
 78156  1  0  0  0
 78157  1  0  0  0
 79158  1  0  0  0
 79159  1  0  0  0
 81160  1  0  0  0
 82161  1  0  0  0
M  CHG  1  82   1
M  ISO  4   1 100  68 101  79 101  81 100
M  END
> <chiral flag>
0

> <version>
0

> <s_m_source_file>
/data/baiqing/PycharmProjects/Reinvent-master-3.2/result/LINK_invent/BTK/process_docking_weight1_custom_sum_contain_oxygen_bond_distance_aromatic_linkinvent_7_9_3/rearranged_h_0111.sdf

> <i_m_source_file_index>
27

> <r_mmod_Potential_Energy-OPLS-2005>
-219.224716186523

> <r_mmod_Stretch_Energy-OPLS-2005>
43.6786346435547

> <r_mmod_Bend_Energy-OPLS-2005>
111.646903991699

> <r_mmod_Torsional_Energy-OPLS-2005>
232.001800537109

> <r_mmod_Improper_Torsional_Energy-OPLS-2005>
1.88051307201385

> <r_mmod_Van_der_Waal_Energy-OPLS-2005>
148.601379394531

> <r_mmod_Electrostatic_Energy-OPLS-2005>
-334.256744384766

> <r_mmod_Solvation_Energy-OPLS-2005>
-435.709197998047

> <b_mmod_Minimization_Converged-OPLS-2005>
0

> <r_mmod_RMS_Derivative-OPLS-2005>
2.29222798347473

$$$$
27
                    3D
 Structure written by MMmdl.
165174  0  0  1  0            999 V2000
  -30.6568  -14.8143   20.5022 C   0  0  0  0  0  0
  -30.4378  -12.5102   19.5128 C   0  0  0  0  0  0
  -29.5247  -12.5437   18.2687 C   0  0  0  0  0  0
  -28.0516  -12.3521   18.6714 C   0  0  0  0  0  0
  -27.6438  -13.2547   19.8647 C   0  0  2  0  0  0
  -28.6882  -13.2358   21.0058 C   0  0  0  0  0  0
  -25.2494  -13.8250   20.5777 C   0  0  0  0  0  0
  -24.1786  -13.0476   20.9191 C   0  0  0  0  0  0
  -24.6405  -11.6953   20.8724 C   0  0  0  0  0  0
  -23.9091  -10.4319   21.0388 C   0  0  0  0  0  0
  -24.3628   -9.4207   21.9159 C   0  0  0  0  0  0
  -23.6295   -8.2251   22.0741 C   0  0  0  0  0  0
  -22.4271   -8.0299   21.3549 C   0  0  0  0  0  0
  -21.9925   -9.0271   20.4636 C   0  0  0  0  0  0
  -22.7265  -10.2137   20.3036 C   0  0  0  0  0  0
  -21.6868   -6.0723   22.5271 C   0  0  0  0  0  0
  -21.4021   -6.5624   23.8205 C   0  0  0  0  0  0
  -21.3662   -5.6769   24.9172 C   0  0  0  0  0  0
  -21.6077   -4.3037   24.7208 C   0  0  0  0  0  0
  -21.8812   -3.8131   23.4325 C   0  0  0  0  0  0
  -21.9198   -4.6948   22.3392 C   0  0  0  0  0  0
  -22.7791  -13.5215   21.1842 C   0  0  0  0  0  0
  -22.1663   -4.2126   21.0961 F   0  0  0  0  0  0
  -21.5627   -3.4521   25.7724 F   0  0  0  0  0  0
  -29.9927  -13.5975   20.4293 N   0  0  0  0  0  0
  -26.2948  -12.9503   20.3365 N   0  0  0  0  0  0
  -25.9346  -11.6608   20.5766 N   0  0  0  0  0  0
  -22.0436  -12.8236   22.0383 N   0  0  0  0  0  0
  -25.4192  -15.1984   20.4228 N   0  0  0  0  0  0
  -31.8388  -14.8580   20.1409 O   0  0  0  0  0  0
  -21.6654   -6.8876   21.4245 O   0  0  0  0  0  0
  -22.3433  -14.5524   20.6702 O   0  0  0  0  0  0
  -24.6344  -31.8517   23.1852 C   0  0  0  0  0  0
  -25.9145  -32.4735   23.8218 C   0  0  1  0  0  0
  -27.2298  -27.2051   20.1404 C   0  0  0  0  0  0
  -25.5982  -33.8537   24.2167 N   0  0  0  0  0  0
  -23.4382  -30.4625   21.5334 C   0  0  2  0  0  0
  -24.8895  -28.8974   20.1169 C   0  0  0  0  0  0
  -22.7530  -29.4568   22.4919 C   0  0  0  0  0  0
  -18.0280  -28.1471   22.8481 C   0  0  0  0  0  0
  -24.1483  -36.7173   23.2637 C   0  0  0  0  0  0
  -25.9893  -30.7528   21.3739 C   0  0  0  0  0  0
  -26.0667  -29.3726   20.7072 C   0  0  0  0  0  0
  -27.2403  -28.5407   20.6943 C   0  0  0  0  0  0
  -26.0127  -26.7974   19.5634 C   0  0  0  0  0  0
  -24.8686  -27.6215   19.5347 C   0  0  0  0  0  0
  -23.6644  -29.7865   20.1563 C   0  0  0  0  0  0
  -25.4155  -36.3016   24.0279 C   0  0  1  0  0  0
  -20.5903  -28.3772   23.1299 C   0  0  2  0  0  0
  -20.6784  -26.9485   22.5444 C   0  0  0  0  0  0
  -19.5748  -26.6432   21.5248 C   0  0  0  0  0  0
  -18.1917  -26.8018   22.1629 C   0  0  0  0  0  0
  -19.1539  -28.8925   23.2883 C   0  0  0  0  0  0
  -18.9460  -30.1517   23.8912 C   0  0  0  0  0  0
  -17.6465  -30.6657   24.0589 C   0  0  0  0  0  0
  -25.9116  -34.9431   23.5018 C   0  0  0  0  0  0
  -16.5348  -29.9163   23.6373 C   0  0  0  0  0  0
  -16.7270  -28.6595   23.0367 C   0  0  0  0  0  0
  -26.4503  -31.6597   25.0634 C   0  0  0  0  0  0
  -25.3664  -31.3802   26.1277 C   0  0  0  0  0  0
  -27.0348  -30.2975   24.6222 C   0  0  0  0  0  0
  -27.6049  -32.4337   25.7437 C   0  0  0  0  0  0
  -27.5563  -37.1758   24.8476 C   0  0  0  0  0  0
  -21.4237  -29.3073   22.3652 N   0  0  0  0  0  0
  -26.4300  -37.3746   23.9395 N   0  0  0  0  0  0
  -24.7055  -31.0444   22.0842 N   0  0  0  0  0  0
  -23.4209  -28.8135   23.3063 O   0  0  0  0  0  0
  -28.3353  -26.3085   20.2446 O   0  0  0  0  0  0
  -26.5693  -34.8918   22.4596 O   0  0  0  0  0  0
  -23.5492  -32.1359   23.7141 O   0  0  0  0  0  0
  -27.8461  -21.7876   21.9545 C   0  0  0  0  0  0
  -27.7897  -23.1180   21.4193 C   0  0  0  0  0  0
  -28.9353  -19.3310   21.5977 C   0  0  0  0  0  0
  -28.6558  -20.7605   21.3838 C   0  0  0  0  0  0
  -28.5783  -23.4944   20.3037 C   0  0  0  0  0  0
  -29.8646  -18.8791   20.6680 C   0  0  0  0  0  0
  -29.4266  -21.2077   20.2881 C   0  0  0  0  0  0
  -27.9924  -24.8582   18.1215 C   0  0  0  0  0  0
  -33.0732  -21.2365   17.5639 C   0  0  0  0  0  0
  -33.0529  -21.4056   20.1040 C   0  0  0  0  0  0
  -30.5734  -17.4352   20.4836 C   0  0  0  0  0  0
  -31.1826  -20.1139   18.8138 C   0  0  0  0  0  0
  -28.5148  -24.9468   19.5726 C   0  0  1  0  0  0
  -32.1976  -21.2944   18.8244 C   0  0  0  0  0  0
  -29.3990  -22.5182   19.7556 N   0  0  0  0  0  0
  -30.2067  -20.0699   19.9105 N   0  0  0  0  0  0
  -29.9942  -16.0223   20.7634 N   0  0  0  0  0  0
  -31.4752  -12.6343   19.2001 H   0  0  0  0  0  0
  -30.3952  -11.5365   20.0075 H   0  0  0  0  0  0
  -29.8221  -11.7769   17.5538 H   0  0  0  0  0  0
  -29.6422  -13.5020   17.7642 H   0  0  0  0  0  0
  -27.9171  -11.3013   18.9322 H   0  0  0  0  0  0
  -27.4041  -12.5468   17.8140 H   0  0  0  0  0  0
  -27.6293  -14.2703   19.4669 H   0  0  0  0  0  0
  -28.7258  -12.2548   21.4856 H   0  0  0  0  0  0
  -28.4110  -13.9447   21.7854 H   0  0  0  0  0  0
  -25.2770   -9.5675   22.4719 H   0  0  0  0  0  0
  -24.0006   -7.4638   22.7463 H   0  0  0  0  0  0
  -21.0867   -8.8793   19.8933 H   0  0  0  0  0  0
  -22.3739  -10.9669   19.6128 H   0  0  0  0  0  0
  -21.2016   -7.6121   23.9713 H   0  0  0  0  0  0
  -21.1504   -6.0489   25.9073 H   0  0  0  0  0  0
  -22.0596   -2.7591   23.2831 H   0  0  0  0  0  0
  -22.4086  -11.9936   22.4799 H   0  0  0  0  0  0
  -21.1043  -13.1250   22.2594 H   0  0  0  0  0  0
  -24.6649  -15.8650   20.5526 H   0  0  0  0  0  0
  -26.2850  -15.6356   20.1327 H   0  0  0  0  0  0
  -26.7231  -32.5384   23.0991 H   0  0  0  0  0  0
  -25.0183  -33.9706   25.0333 H   0  0  0  0  0  0
  -22.7339  -31.2806   21.3702 H   0  0  0  0  0  0
  -23.3786  -35.9459   23.3347 H   0  0  0  0  0  0
  -24.3562  -36.8762   22.2041 H   0  0  0  0  0  0
  -23.7166  -37.6345   23.6665 H   0  0  0  0  0  0
  -26.1626  -31.5169   20.6136 H   0  0  0  0  0  0
  -26.8497  -30.7909   22.0316 H   0  0  0  0  0  0
  -28.1536  -28.9018   21.1460 H   0  0  0  0  0  0
  -25.8892  -25.7914   19.1957 H   0  0  0  0  0  0
  -23.9533  -27.2295   19.1125 H   0  0  0  0  0  0
  -23.8137  -30.5496   19.3910 H   0  0  0  0  0  0
  -22.7810  -29.2264   19.8443 H   0  0  0  0  0  0
  -25.1352  -36.1836   25.0763 H   0  0  0  0  0  0
  -20.9960  -28.3366   24.1435 H   0  0  0  0  0  0
  -20.5747  -26.2351   23.3632 H   0  0  0  0  0  0
  -21.6645  -26.7585   22.1169 H   0  0  0  0  0  0
  -19.6909  -25.6335   21.1256 H   0  0  0  0  0  0
  -19.6690  -27.3268   20.6790 H   0  0  0  0  0  0
  -17.4185  -26.6763   21.4010 H   0  0  0  0  0  0
  -18.0322  -26.0205   22.9069 H   0  0  0  0  0  0
  -19.7937  -30.7329   24.2266 H   0  0  0  0  0  0
  -17.5048  -31.6334   24.5205 H   0  0  0  0  0  0
  -15.5361  -30.3085   23.7726 H   0  0  0  0  0  0
  -15.8656  -28.0925   22.7104 H   0  0  0  0  0  0
  -24.5863  -30.7158   25.7546 H   0  0  0  0  0  0
  -24.8795  -32.2987   26.4558 H   0  0  0  0  0  0
  -25.7851  -30.9019   27.0128 H   0  0  0  0  0  0
  -26.2956  -29.6686   24.1230 H   0  0  0  0  0  0
  -27.3939  -29.7283   25.4809 H   0  0  0  0  0  0
  -27.8875  -30.4136   23.9518 H   0  0  0  0  0  0
  -27.2670  -33.3677   26.1936 H   0  0  0  0  0  0
  -28.3915  -32.6831   25.0309 H   0  0  0  0  0  0
  -28.0664  -31.8492   26.5402 H   0  0  0  0  0  0
  -28.2601  -38.0048   24.7591 H   0  0  0  0  0  0
  -28.1016  -36.2576   24.6239 H   0  0  0  0  0  0
  -27.2296  -37.1377   25.8887 H   0  0  0  0  0  0
  -20.9457  -29.8659   21.6714 H   0  0  0  0  0  0
  -26.0123  -38.2765   24.1495 H   0  0  0  0  0  0
  -27.2402  -21.5389   22.8154 H   0  0  0  0  0  0
  -27.1214  -23.8518   21.8561 H   0  0  0  0  0  0
  -28.4969  -18.7183   22.3774 H   0  0  0  0  0  0
  -27.7686  -25.8436   17.7133 H   0  0  0  0  0  0
  -28.7355  -24.4097   17.4573 H   0  0  0  0  0  0
  -27.0968  -24.2403   18.0465 H   0  0  0  0  0  0
  -33.5072  -22.2128   17.3389 H   0  0  0  0  0  0
  -32.4906  -20.9385   16.6855 H   0  0  0  0  0  0
  -33.8921  -20.5264   17.6737 H   0  0  0  0  0  0
  -32.4660  -21.7905   20.9365 H   0  0  0  0  0  0
  -33.4714  -20.4415   20.3949 H   0  0  0  0  0  0
  -33.8860  -22.0974   19.9550 H   0  0  0  0  0  0
  -31.5224  -17.4905   21.0181 H   0  0  0  0  0  0
  -30.8651  -17.3521   19.4378 H   0  0  0  0  0  0
  -31.7315  -19.1783   18.7668 H   0  0  0  0  0  0
  -30.6079  -20.1700   17.8878 H   0  0  0  0  0  0
  -29.5796  -25.0800   19.3890 H   0  0  0  0  0  0
  -31.6499  -22.2323   18.7356 H   0  0  0  0  0  0
  -29.0270  -15.9693   21.0443 H   0  0  0  0  0  0
  1 25  1  0  0  0
  1 30  2  0  0  0
  1 87  1  0  0  0
  2  3  1  0  0  0
  2 25  1  0  0  0
  2 88  1  0  0  0
  2 89  1  0  0  0
  3  4  1  0  0  0
  3 90  1  0  0  0
  3 91  1  0  0  0
  4  5  1  0  0  0
  4 92  1  0  0  0
  4 93  1  0  0  0
  5  6  1  0  0  0
  5 26  1  0  0  0
  5 94  1  0  0  0
  6 25  1  0  0  0
  6 95  1  0  0  0
  6 96  1  0  0  0
  7  8  2  0  0  0
  7 26  1  0  0  0
  7 29  1  0  0  0
  8  9  1  0  0  0
  8 22  1  0  0  0
  9 10  1  0  0  0
  9 27  2  0  0  0
 10 11  2  0  0  0
 10 15  1  0  0  0
 11 12  1  0  0  0
 11 97  1  0  0  0
 12 13  2  0  0  0
 12 98  1  0  0  0
 13 14  1  0  0  0
 13 31  1  0  0  0
 14 15  2  0  0  0
 14 99  1  0  0  0
 15100  1  0  0  0
 16 17  2  0  0  0
 16 21  1  0  0  0
 16 31  1  0  0  0
 17 18  1  0  0  0
 17101  1  0  0  0
 18 19  2  0  0  0
 18102  1  0  0  0
 19 20  1  0  0  0
 19 24  1  0  0  0
 20 21  2  0  0  0
 20103  1  0  0  0
 21 23  1  0  0  0
 22 28  1  0  0  0
 22 32  2  0  0  0
 26 27  1  0  0  0
 28104  1  0  0  0
 28105  1  0  0  0
 29106  1  0  0  0
 29107  1  0  0  0
 33 34  1  0  0  0
 33 66  1  0  0  0
 33 70  2  0  0  0
 34 36  1  0  0  0
 34 59  1  0  0  0
 34108  1  0  0  0
 35 44  2  0  0  0
 35 45  1  0  0  0
 35 68  1  0  0  0
 36 56  1  0  0  0
 36109  1  0  0  0
 37 39  1  0  0  0
 37 47  1  0  0  0
 37 66  1  0  0  0
 37110  1  0  0  0
 38 43  2  0  0  0
 38 46  1  0  0  0
 38 47  1  0  0  0
 39 64  1  0  0  0
 39 67  2  0  0  0
 40 52  1  0  0  0
 40 53  2  0  0  0
 40 58  1  0  0  0
 41111  1  0  0  0
 41112  1  0  0  0
 41113  1  0  0  0
 41 48  1  0  0  0
 42 43  1  0  0  0
 42 66  1  0  0  0
 42114  1  0  0  0
 42115  1  0  0  0
 43 44  1  0  0  0
 44116  1  0  0  0
 45 46  2  0  0  0
 45117  1  0  0  0
 46118  1  0  0  0
 47119  1  0  0  0
 47120  1  0  0  0
 48 56  1  0  0  0
 48 65  1  0  0  0
 48121  1  0  0  0
 49 50  1  0  0  0
 49 53  1  0  0  0
 49 64  1  0  0  0
 49122  1  0  0  0
 50 51  1  0  0  0
 50123  1  0  0  0
 50124  1  0  0  0
 51 52  1  0  0  0
 51125  1  0  0  0
 51126  1  0  0  0
 52127  1  0  0  0
 52128  1  0  0  0
 53 54  1  0  0  0
 54 55  2  0  0  0
 54129  1  0  0  0
 55 57  1  0  0  0
 55130  1  0  0  0
 56 69  2  0  0  0
 57 58  2  0  0  0
 57131  1  0  0  0
 58132  1  0  0  0
 59 60  1  0  0  0
 59 61  1  0  0  0
 59 62  1  0  0  0
 60133  1  0  0  0
 60134  1  0  0  0
 60135  1  0  0  0
 61136  1  0  0  0
 61137  1  0  0  0
 61138  1  0  0  0
 62139  1  0  0  0
 62140  1  0  0  0
 62141  1  0  0  0
 63 65  1  0  0  0
 63142  1  0  0  0
 63143  1  0  0  0
 63144  1  0  0  0
 64145  1  0  0  0
 65146  1  0  0  0
 68 83  1  0  0  0
 71 72  2  0  0  0
 71 74  1  0  0  0
 71147  1  0  0  0
 72 75  1  0  0  0
 72148  1  0  0  0
 73 74  1  0  0  0
 73 76  2  0  0  0
 73149  1  0  0  0
 74 77  2  0  0  0
 75 83  1  0  0  0
 75 85  2  0  0  0
 76 81  1  0  0  0
 76 86  1  0  0  0
 77 85  1  0  0  0
 77 86  1  0  0  0
 78150  1  0  0  0
 78151  1  0  0  0
 78152  1  0  0  0
 78 83  1  0  0  0
 79153  1  0  0  0
 79154  1  0  0  0
 79155  1  0  0  0
 79 84  1  0  0  0
 80 84  1  0  0  0
 80156  1  0  0  0
 80157  1  0  0  0
 80158  1  0  0  0
 81 87  1  0  0  0
 81159  1  0  0  0
 81160  1  0  0  0
 82 84  1  0  0  0
 82 86  1  0  0  0
 82161  1  0  0  0
 82162  1  0  0  0
 83163  1  0  0  0
 84164  1  0  0  0
 87165  1  0  0  0
M  ISO  4   1 100  68 101  83 101  87 100
M  END
> <chiral flag>
0

> <version>
0

> <s_m_source_file>
/data/baiqing/PycharmProjects/Reinvent-master-3.2/result/LINK_invent/BTK/process_docking_weight1_custom_sum_contain_oxygen_bond_distance_aromatic_linkinvent_7_9_3/rearranged_h_0111.sdf

> <i_m_source_file_index>
28

> <r_mmod_Potential_Energy-OPLS-2005>
155.758590698242

> <r_mmod_Stretch_Energy-OPLS-2005>
169.335952758789

> <r_mmod_Bend_Energy-OPLS-2005>
249.743499755859

> <r_mmod_Torsional_Energy-OPLS-2005>
219.39794921875

> <r_mmod_Improper_Torsional_Energy-OPLS-2005>
5.39847660064697

> <r_mmod_Van_der_Waal_Energy-OPLS-2005>
135.361694335938

> <r_mmod_Electrostatic_Energy-OPLS-2005>
-528.960998535156

> <r_mmod_Solvation_Energy-OPLS-2005>
-213.773696899414

> <b_mmod_Minimization_Converged-OPLS-2005>
0

> <r_mmod_RMS_Derivative-OPLS-2005>
7.63691520690918

$$$$
28
                    3D
 Structure written by MMmdl.
154162  0  0  1  0            999 V2000
  -30.5077  -15.0225   20.4078 C   0  0  0  0  0  0
  -30.4464  -12.6362   19.5052 C   0  0  0  0  0  0
  -29.5288  -12.5455   18.2623 C   0  0  0  0  0  0
  -28.0654  -12.3107   18.6819 C   0  0  0  0  0  0
  -27.6277  -13.2517   19.8350 C   0  0  2  0  0  0
  -28.6695  -13.3066   20.9732 C   0  0  0  0  0  0
  -25.2446  -13.8207   20.5711 C   0  0  0  0  0  0
  -24.1768  -13.0428   20.9233 C   0  0  0  0  0  0
  -24.6383  -11.6913   20.8738 C   0  0  0  0  0  0
  -23.9064  -10.4288   21.0391 C   0  0  0  0  0  0
  -24.3616   -9.4208   21.9169 C   0  0  0  0  0  0
  -23.6302   -8.2238   22.0744 C   0  0  0  0  0  0
  -22.4280   -8.0272   21.3541 C   0  0  0  0  0  0
  -21.9907   -9.0237   20.4636 C   0  0  0  0  0  0
  -22.7233  -10.2118   20.3041 C   0  0  0  0  0  0
  -21.6855   -6.0730   22.5277 C   0  0  0  0  0  0
  -21.4010   -6.5632   23.8213 C   0  0  0  0  0  0
  -21.3666   -5.6786   24.9178 C   0  0  0  0  0  0
  -21.6049   -4.3050   24.7220 C   0  0  0  0  0  0
  -21.8823   -3.8139   23.4342 C   0  0  0  0  0  0
  -21.9191   -4.6956   22.3398 C   0  0  0  0  0  0
  -22.7788  -13.5192   21.1886 C   0  0  0  0  0  0
  -22.1666   -4.2140   21.0977 F   0  0  0  0  0  0
  -21.5631   -3.4533   25.7735 F   0  0  0  0  0  0
  -29.9383  -13.7416   20.3733 N   0  0  0  0  0  0
  -26.2873  -12.9442   20.3227 N   0  0  0  0  0  0
  -25.9317  -11.6565   20.5714 N   0  0  0  0  0  0
  -22.0440  -12.8181   22.0440 N   0  0  0  0  0  0
  -25.4081  -15.1945   20.4151 N   0  0  0  0  0  0
  -31.7144  -15.0903   20.1461 O   0  0  0  0  0  0
  -21.6645   -6.8869   21.4240 O   0  0  0  0  0  0
  -22.3474  -14.5498   20.6736 O   0  0  0  0  0  0
  -24.6493  -31.8389   23.1829 C   0  0  0  0  0  0
  -25.9246  -32.4668   23.8235 C   0  0  1  0  0  0
  -27.2201  -27.0846   20.1607 C   0  0  0  0  0  0
  -25.5989  -33.8473   24.2146 N   0  0  0  0  0  0
  -23.4555  -30.4560   21.5294 C   0  0  2  0  0  0
  -24.9063  -28.8726   20.1126 C   0  0  0  0  0  0
  -22.7609  -29.4501   22.4828 C   0  0  0  0  0  0
  -18.0315  -28.1383   22.8460 C   0  0  0  0  0  0
  -24.1487  -36.7231   23.2635 C   0  0  0  0  0  0
  -26.0153  -30.6956   21.3909 C   0  0  0  0  0  0
  -26.0855  -29.3009   20.7349 C   0  0  0  0  0  0
  -27.2422  -28.4253   20.7380 C   0  0  0  0  0  0
  -26.0155  -26.7754   19.4908 C   0  0  0  0  0  0
  -24.8870  -27.6248   19.4728 C   0  0  0  0  0  0
  -23.6861  -29.7810   20.1512 C   0  0  0  0  0  0
  -25.4119  -36.3001   24.0303 C   0  0  1  0  0  0
  -20.5930  -28.3708   23.1220 C   0  0  2  0  0  0
  -20.6778  -26.9403   22.5392 C   0  0  0  0  0  0
  -19.5760  -26.6367   21.5193 C   0  0  0  0  0  0
  -18.1946  -26.7929   22.1603 C   0  0  0  0  0  0
  -19.1570  -28.8868   23.2830 C   0  0  0  0  0  0
  -18.9477  -30.1466   23.8850 C   0  0  0  0  0  0
  -17.6469  -30.6571   24.0549 C   0  0  0  0  0  0
  -25.9081  -34.9391   23.5023 C   0  0  0  0  0  0
  -16.5362  -29.9059   23.6337 C   0  0  0  0  0  0
  -16.7295  -28.6486   23.0345 C   0  0  0  0  0  0
  -26.4549  -31.6571   25.0713 C   0  0  0  0  0  0
  -25.3726  -31.3791   26.1407 C   0  0  0  0  0  0
  -27.0423  -30.2955   24.6350 C   0  0  0  0  0  0
  -27.6055  -32.4368   25.7516 C   0  0  0  0  0  0
  -27.5564  -37.1770   24.8453 C   0  0  0  0  0  0
  -21.4292  -29.3042   22.3609 N   0  0  0  0  0  0
  -26.4257  -37.3736   23.9425 N   0  0  0  0  0  0
  -24.7267  -31.0201   22.0886 N   0  0  0  0  0  0
  -23.4243  -28.8031   23.2976 O   0  0  0  0  0  0
  -28.2692  -26.0762   20.1978 O   0  0  0  0  0  0
  -26.5653  -34.8906   22.4594 O   0  0  0  0  0  0
  -23.5602  -32.1279   23.7022 O   0  0  0  0  0  0
  -31.0365  -18.5169   20.3878 C   0  0  0  0  0  0
  -28.8533  -18.7751   20.4784 C   0  0  0  0  0  0
  -29.8344  -17.7420   20.4560 C   0  0  0  0  0  0
  -30.7589  -19.8892   20.4093 C   0  0  0  0  0  0
  -31.7477  -21.0128   20.4489 C   0  0  0  0  0  0
  -29.3321  -23.1234   18.6192 C   0  0  0  0  0  0
  -28.5776  -21.5456   20.5899 C   0  0  0  0  0  0
  -27.9868  -24.5275   20.3748 C   0  0  0  0  0  0
  -28.9792  -23.1473   20.1145 C   0  0  2  0  0  0
  -29.3735  -20.1433   20.4412 N   0  0  0  0  0  0
  -29.6814  -16.1933   20.5331 N   0  0  0  0  0  0
  -31.4779  -12.8088   19.1928 H   0  0  0  0  0  0
  -30.4562  -11.6898   20.0488 H   0  0  0  0  0  0
  -29.8657  -11.7478   17.5988 H   0  0  0  0  0  0
  -29.5996  -13.4717   17.6894 H   0  0  0  0  0  0
  -27.9810  -11.2729   19.0066 H   0  0  0  0  0  0
  -27.3989  -12.4176   17.8253 H   0  0  0  0  0  0
  -27.5824  -14.2481   19.3944 H   0  0  0  0  0  0
  -28.7731  -12.3382   21.4638 H   0  0  0  0  0  0
  -28.3545  -14.0114   21.7446 H   0  0  0  0  0  0
  -25.2762   -9.5702   22.4737 H   0  0  0  0  0  0
  -24.0026   -7.4623   22.7455 H   0  0  0  0  0  0
  -21.0842   -8.8746   19.8937 H   0  0  0  0  0  0
  -22.3688  -10.9647   19.6147 H   0  0  0  0  0  0
  -21.2005   -7.6142   23.9716 H   0  0  0  0  0  0
  -21.1490   -6.0515   25.9084 H   0  0  0  0  0  0
  -22.0596   -2.7600   23.2838 H   0  0  0  0  0  0
  -22.4074  -11.9863   22.4852 H   0  0  0  0  0  0
  -21.1034  -13.1169   22.2596 H   0  0  0  0  0  0
  -24.6304  -15.8370   20.5232 H   0  0  0  0  0  0
  -26.2415  -15.6415   20.0560 H   0  0  0  0  0  0
  -26.7307  -32.5257   23.0954 H   0  0  0  0  0  0
  -25.0222  -33.9579   25.0355 H   0  0  0  0  0  0
  -22.7605  -31.2827   21.3704 H   0  0  0  0  0  0
  -23.3772  -35.9537   23.3258 H   0  0  0  0  0  0
  -24.3574  -36.8913   22.2056 H   0  0  0  0  0  0
  -23.7218  -37.6402   23.6703 H   0  0  0  0  0  0
  -26.1794  -31.4466   20.6168 H   0  0  0  0  0  0
  -26.8817  -30.7443   22.0382 H   0  0  0  0  0  0
  -28.1405  -28.7513   21.2428 H   0  0  0  0  0  0
  -25.9176  -25.8363   18.9689 H   0  0  0  0  0  0
  -23.9927  -27.2962   18.9610 H   0  0  0  0  0  0
  -23.8305  -30.5536   19.3950 H   0  0  0  0  0  0
  -22.8002  -29.2272   19.8358 H   0  0  0  0  0  0
  -25.1305  -36.1785   25.0789 H   0  0  0  0  0  0
  -21.0014  -28.3264   24.1343 H   0  0  0  0  0  0
  -20.5623  -26.2318   23.3606 H   0  0  0  0  0  0
  -21.6644  -26.7364   22.1213 H   0  0  0  0  0  0
  -19.6913  -25.6272   21.1238 H   0  0  0  0  0  0
  -19.6704  -27.3161   20.6712 H   0  0  0  0  0  0
  -17.4209  -26.6674   21.4010 H   0  0  0  0  0  0
  -18.0336  -26.0064   22.8987 H   0  0  0  0  0  0
  -19.7947  -30.7297   24.2192 H   0  0  0  0  0  0
  -17.5013  -31.6245   24.5159 H   0  0  0  0  0  0
  -15.5354  -30.2931   23.7694 H   0  0  0  0  0  0
  -15.8702  -28.0794   22.7072 H   0  0  0  0  0  0
  -24.5878  -30.7171   25.7732 H   0  0  0  0  0  0
  -24.8960  -32.2994   26.4794 H   0  0  0  0  0  0
  -25.7994  -30.8979   27.0215 H   0  0  0  0  0  0
  -26.3052  -29.6675   24.1331 H   0  0  0  0  0  0
  -27.3984  -29.7266   25.4951 H   0  0  0  0  0  0
  -27.8988  -30.4189   23.9718 H   0  0  0  0  0  0
  -27.2610  -33.3683   26.2028 H   0  0  0  0  0  0
  -28.3905  -32.6921   25.0383 H   0  0  0  0  0  0
  -28.0688  -31.8554   26.5499 H   0  0  0  0  0  0
  -28.2531  -38.0111   24.7527 H   0  0  0  0  0  0
  -28.1096  -36.2637   24.6215 H   0  0  0  0  0  0
  -27.2296  -37.1343   25.8857 H   0  0  0  0  0  0
  -20.9495  -29.8825   21.6854 H   0  0  0  0  0  0
  -26.0103  -38.2784   24.1472 H   0  0  0  0  0  0
  -32.0396  -18.1114   20.3673 H   0  0  0  0  0  0
  -27.7786  -18.6646   20.5470 H   0  0  0  0  0  0
  -32.7435  -20.6439   20.6971 H   0  0  0  0  0  0
  -31.4795  -21.7466   21.2084 H   0  0  0  0  0  0
  -31.8213  -21.5227   19.4885 H   0  0  0  0  0  0
  -30.0044  -22.3035   18.3718 H   0  0  0  0  0  0
  -29.8126  -24.0524   18.3109 H   0  0  0  0  0  0
  -28.4354  -22.9970   18.0111 H   0  0  0  0  0  0
  -27.6042  -21.3546   20.1376 H   0  0  0  0  0  0
  -28.3578  -21.6186   21.6561 H   0  0  0  0  0  0
  -27.6786  -24.4527   21.4184 H   0  0  0  0  0  0
  -27.0754  -24.3057   19.8247 H   0  0  0  0  0  0
  -29.9020  -23.3713   20.6500 H   0  0  0  0  0  0
  -28.7258  -15.9129   20.6916 H   0  0  0  0  0  0
  1 25  1  0  0  0
  1 30  2  0  0  0
  1 81  1  0  0  0
  2  3  1  0  0  0
  2 25  1  0  0  0
  2 82  1  0  0  0
  2 83  1  0  0  0
  3  4  1  0  0  0
  3 84  1  0  0  0
  3 85  1  0  0  0
  4  5  1  0  0  0
  4 86  1  0  0  0
  4 87  1  0  0  0
  5  6  1  0  0  0
  5 26  1  0  0  0
  5 88  1  0  0  0
  6 25  1  0  0  0
  6 89  1  0  0  0
  6 90  1  0  0  0
  7  8  2  0  0  0
  7 26  1  0  0  0
  7 29  1  0  0  0
  8  9  1  0  0  0
  8 22  1  0  0  0
  9 10  1  0  0  0
  9 27  2  0  0  0
 10 11  2  0  0  0
 10 15  1  0  0  0
 11 12  1  0  0  0
 11 91  1  0  0  0
 12 13  2  0  0  0
 12 92  1  0  0  0
 13 14  1  0  0  0
 13 31  1  0  0  0
 14 15  2  0  0  0
 14 93  1  0  0  0
 15 94  1  0  0  0
 16 17  2  0  0  0
 16 21  1  0  0  0
 16 31  1  0  0  0
 17 18  1  0  0  0
 17 95  1  0  0  0
 18 19  2  0  0  0
 18 96  1  0  0  0
 19 20  1  0  0  0
 19 24  1  0  0  0
 20 21  2  0  0  0
 20 97  1  0  0  0
 21 23  1  0  0  0
 22 28  1  0  0  0
 22 32  2  0  0  0
 26 27  1  0  0  0
 28 98  1  0  0  0
 28 99  1  0  0  0
 29100  1  0  0  0
 29101  1  0  0  0
 33 34  1  0  0  0
 33 66  1  0  0  0
 33 70  2  0  0  0
 34 36  1  0  0  0
 34 59  1  0  0  0
 34102  1  0  0  0
 35 44  2  0  0  0
 35 45  1  0  0  0
 35 68  1  0  0  0
 36 56  1  0  0  0
 36103  1  0  0  0
 37 39  1  0  0  0
 37 47  1  0  0  0
 37 66  1  0  0  0
 37104  1  0  0  0
 38 43  2  0  0  0
 38 46  1  0  0  0
 38 47  1  0  0  0
 39 64  1  0  0  0
 39 67  2  0  0  0
 40 52  1  0  0  0
 40 53  2  0  0  0
 40 58  1  0  0  0
 41105  1  0  0  0
 41106  1  0  0  0
 41107  1  0  0  0
 41 48  1  0  0  0
 42 43  1  0  0  0
 42 66  1  0  0  0
 42108  1  0  0  0
 42109  1  0  0  0
 43 44  1  0  0  0
 44110  1  0  0  0
 45 46  2  0  0  0
 45111  1  0  0  0
 46112  1  0  0  0
 47113  1  0  0  0
 47114  1  0  0  0
 48 56  1  0  0  0
 48 65  1  0  0  0
 48115  1  0  0  0
 49 50  1  0  0  0
 49 53  1  0  0  0
 49 64  1  0  0  0
 49116  1  0  0  0
 50 51  1  0  0  0
 50117  1  0  0  0
 50118  1  0  0  0
 51 52  1  0  0  0
 51119  1  0  0  0
 51120  1  0  0  0
 52121  1  0  0  0
 52122  1  0  0  0
 53 54  1  0  0  0
 54 55  2  0  0  0
 54123  1  0  0  0
 55 57  1  0  0  0
 55124  1  0  0  0
 56 69  2  0  0  0
 57 58  2  0  0  0
 57125  1  0  0  0
 58126  1  0  0  0
 59 60  1  0  0  0
 59 61  1  0  0  0
 59 62  1  0  0  0
 60127  1  0  0  0
 60128  1  0  0  0
 60129  1  0  0  0
 61130  1  0  0  0
 61131  1  0  0  0
 61132  1  0  0  0
 62133  1  0  0  0
 62134  1  0  0  0
 62135  1  0  0  0
 63 65  1  0  0  0
 63136  1  0  0  0
 63137  1  0  0  0
 63138  1  0  0  0
 64139  1  0  0  0
 65140  1  0  0  0
 68 78  1  0  0  0
 71 73  1  0  0  0
 71 74  2  0  0  0
 71141  1  0  0  0
 72 73  2  0  0  0
 72 80  1  0  0  0
 72142  1  0  0  0
 73 81  1  0  0  0
 74 75  1  0  0  0
 74 80  1  0  0  0
 75143  1  0  0  0
 75144  1  0  0  0
 75145  1  0  0  0
 76146  1  0  0  0
 76147  1  0  0  0
 76148  1  0  0  0
 76 79  1  0  0  0
 77 79  1  0  0  0
 77 80  1  0  0  0
 77149  1  0  0  0
 77150  1  0  0  0
 78 79  1  0  0  0
 78151  1  0  0  0
 78152  1  0  0  0
 79153  1  0  0  0
 81154  1  0  0  0
M  ISO  4   1 100  68 101  78 101  81 100
M  END
> <chiral flag>
0

> <version>
0

> <s_m_source_file>
/data/baiqing/PycharmProjects/Reinvent-master-3.2/result/LINK_invent/BTK/process_docking_weight1_custom_sum_contain_oxygen_bond_distance_aromatic_linkinvent_7_9_3/rearranged_h_0111.sdf

> <i_m_source_file_index>
29

> <r_mmod_Potential_Energy-OPLS-2005>
637.429809570312

> <r_mmod_Stretch_Energy-OPLS-2005>
317.025787353516

> <r_mmod_Bend_Energy-OPLS-2005>
303.636749267578

> <r_mmod_Torsional_Energy-OPLS-2005>
230.864562988281

> <r_mmod_Improper_Torsional_Energy-OPLS-2005>
5.23313045501709

> <r_mmod_Van_der_Waal_Energy-OPLS-2005>
104.566955566406

> <r_mmod_Electrostatic_Energy-OPLS-2005>
-350.620727539062

> <r_mmod_Solvation_Energy-OPLS-2005>
-216.050170898438

> <b_mmod_Minimization_Converged-OPLS-2005>
0

> <r_mmod_RMS_Derivative-OPLS-2005>
1.75894010066986

$$$$
29
                    3D
 Structure written by MMmdl.
181189  0  0  1  0            999 V2000
  -31.0797  -14.7402   19.5848 C   0  0  0  0  0  0
  -30.9201  -12.4082   19.9337 C   0  0  0  0  0  0
  -29.6616  -11.2304   19.1583 C   0  0  0  0  0  0
  -27.9144  -11.7317   18.8330 C   0  0  0  0  0  0
  -27.2724  -13.3630   19.4169 C   0  0  2  0  0  0
  -28.5139  -14.6657   20.0794 C   0  0  0  0  0  0
  -25.1162  -13.8993   20.5904 C   0  0  0  0  0  0
  -24.0910  -13.0862   20.9750 C   0  0  0  0  0  0
  -24.5542  -11.7408   20.9099 C   0  0  0  0  0  0
  -23.8670  -10.4464   21.0529 C   0  0  0  0  0  0
  -24.3511   -9.4304   21.9067 C   0  0  0  0  0  0
  -23.6441   -8.2131   22.0477 C   0  0  0  0  0  0
  -22.4335   -8.0113   21.3381 C   0  0  0  0  0  0
  -21.9881   -9.0041   20.4460 C   0  0  0  0  0  0
  -22.7019  -10.2043   20.3005 C   0  0  0  0  0  0
  -21.6902   -6.0594   22.5192 C   0  0  0  0  0  0
  -21.4119   -6.5576   23.8110 C   0  0  0  0  0  0
  -21.3754   -5.6813   24.9160 C   0  0  0  0  0  0
  -21.6066   -4.3052   24.7198 C   0  0  0  0  0  0
  -21.8907   -3.8010   23.4369 C   0  0  0  0  0  0
  -21.9268   -4.6798   22.3376 C   0  0  0  0  0  0
  -22.7055  -13.5423   21.2340 C   0  0  0  0  0  0
  -22.1635   -4.1959   21.0961 F   0  0  0  0  0  0
  -21.5732   -3.4595   25.7750 F   0  0  0  0  0  0
  -30.3332  -14.0776   20.3224 N   0  0  0  0  0  0
  -26.1197  -13.0544   20.2487 N   0  0  0  0  0  0
  -25.7973  -11.7522   20.5193 N   0  0  0  0  0  0
  -21.9842  -12.8094   22.0719 N   0  0  0  0  0  0
  -25.2536  -15.2673   20.3897 N   0  0  0  0  0  0
  -32.1773  -15.1538   19.8938 O   0  0  0  0  0  0
  -21.6687   -6.8713   21.4131 O   0  0  0  0  0  0
  -22.2795  -14.5755   20.7220 O   0  0  0  0  0  0
  -24.6442  -31.8445   23.1932 C   0  0  0  0  0  0
  -25.9183  -32.4749   23.8368 C   0  0  1  0  0  0
  -27.1626  -27.1011   20.2927 C   0  0  0  0  0  0
  -25.5936  -33.8568   24.2266 N   0  0  0  0  0  0
  -23.4511  -30.4601   21.5390 C   0  0  2  0  0  0
  -24.9019  -28.8902   20.1161 C   0  0  0  0  0  0
  -22.7609  -29.4475   22.4883 C   0  0  0  0  0  0
  -18.0310  -28.1403   22.8483 C   0  0  0  0  0  0
  -24.1454  -36.7286   23.2646 C   0  0  0  0  0  0
  -26.0012  -30.7280   21.3836 C   0  0  0  0  0  0
  -26.0704  -29.3292   20.7533 C   0  0  0  0  0  0
  -27.2094  -28.4504   20.8219 C   0  0  0  0  0  0
  -26.0006  -26.7742   19.5668 C   0  0  0  0  0  0
  -24.8846  -27.6334   19.4907 C   0  0  0  0  0  0
  -23.6866  -29.7964   20.1564 C   0  0  0  0  0  0
  -25.4089  -36.3073   24.0326 C   0  0  1  0  0  0
  -20.5922  -28.3692   23.1279 C   0  0  2  0  0  0
  -20.6779  -26.9404   22.5422 C   0  0  0  0  0  0
  -19.5723  -26.6383   21.5245 C   0  0  0  0  0  0
  -18.1923  -26.7954   22.1648 C   0  0  0  0  0  0
  -19.1566  -28.8878   23.2864 C   0  0  0  0  0  0
  -18.9470  -30.1496   23.8870 C   0  0  0  0  0  0
  -17.6451  -30.6591   24.0588 C   0  0  0  0  0  0
  -25.9049  -34.9456   23.5085 C   0  0  0  0  0  0
  -16.5351  -29.9086   23.6331 C   0  0  0  0  0  0
  -16.7301  -28.6511   23.0346 C   0  0  0  0  0  0
  -26.4526  -31.6615   25.0797 C   0  0  0  0  0  0
  -25.3733  -31.3806   26.1505 C   0  0  0  0  0  0
  -27.0358  -30.3040   24.6247 C   0  0  0  0  0  0
  -27.6043  -32.4374   25.7611 C   0  0  0  0  0  0
  -27.5531  -37.1810   24.8469 C   0  0  0  0  0  0
  -21.4297  -29.3012   22.3668 N   0  0  0  0  0  0
  -26.4253  -37.3766   23.9406 N   0  0  0  0  0  0
  -24.7204  -31.0308   22.0982 N   0  0  0  0  0  0
  -23.4234  -28.8019   23.3035 O   0  0  0  0  0  0
  -28.1493  -26.0682   20.4304 O   0  0  0  0  0  0
  -26.5589  -34.8912   22.4640 O   0  0  0  0  0  0
  -23.5530  -32.1324   23.7115 O   0  0  0  0  0  0
  -29.1692  -15.0804   22.6042 C   0  0  0  0  0  0
  -28.1997  -15.9583   23.1004 C   0  0  0  0  0  0
  -27.5410  -14.9390   23.9018 C   0  0  0  0  0  0
  -27.9917  -13.6405   23.5713 C   0  0  0  0  0  0
  -26.5526  -15.2574   24.9961 C   0  0  0  0  0  0
  -26.7748  -11.4583   24.0999 C   0  0  0  0  0  0
  -28.3444  -12.5250   25.8128 C   0  0  0  0  0  0
  -26.3351  -20.3678   21.8456 C   0  0  0  0  0  0
  -31.0279  -15.0984   17.1206 C   0  0  0  0  0  0
  -27.7813  -17.5973   22.9167 C   0  0  0  0  0  0
  -28.5889  -19.0395   22.4701 C   0  0  0  0  0  0
  -28.8068  -12.5684   21.0276 C   0  0  0  0  0  0
  -29.4689  -13.4518   18.4146 C   0  0  0  0  0  0
  -28.0701  -23.1374   20.9077 C   0  0  0  0  0  0
  -27.8885  -24.7828   21.2892 C   0  0  0  0  0  0
  -28.0018  -12.3313   24.3193 C   0  0  0  0  0  0
  -27.8689  -20.4310   21.7319 C   0  0  2  0  0  0
  -28.6538  -13.6966   22.3541 N   0  0  0  0  0  0
  -30.5421  -14.5261   18.3739 N   0  0  0  0  0  0
  -28.2872  -21.9572   21.9671 N   0  3  0  0  0  0
  -31.7934  -12.4219   19.2731 H   0  0  0  0  0  0
  -31.3741  -11.9673   20.8264 H   0  0  0  0  0  0
  -29.6107  -10.3416   19.7891 H   0  0  0  0  0  0
  -30.0709  -10.8108   18.2341 H   0  0  0  0  0  0
  -27.3017  -10.8553   19.0212 H   0  0  0  0  0  0
  -27.7858  -11.7495   17.7483 H   0  0  0  0  0  0
  -26.7791  -13.8272   18.5581 H   0  0  0  0  0  0
  -27.9755  -15.3823   20.6904 H   0  0  0  0  0  0
  -28.5356  -15.4428   19.3076 H   0  0  0  0  0  0
  -25.2662   -9.5873   22.4633 H   0  0  0  0  0  0
  -24.0397   -7.4381   22.6856 H   0  0  0  0  0  0
  -21.0859   -8.8421   19.8692 H   0  0  0  0  0  0
  -22.3504  -10.9551   19.6083 H   0  0  0  0  0  0
  -21.2084   -7.6110   23.9430 H   0  0  0  0  0  0
  -21.1493   -6.0641   25.9030 H   0  0  0  0  0  0
  -22.0641   -2.7431   23.2961 H   0  0  0  0  0  0
  -22.3428  -11.9445   22.4507 H   0  0  0  0  0  0
  -21.0571  -13.1161   22.3374 H   0  0  0  0  0  0
  -24.4622  -15.8880   20.5164 H   0  0  0  0  0  0
  -26.0466  -15.7065   19.9485 H   0  0  0  0  0  0
  -26.7278  -32.5379   23.1121 H   0  0  0  0  0  0
  -25.0152  -33.9732   25.0457 H   0  0  0  0  0  0
  -22.7534  -31.2846   21.3837 H   0  0  0  0  0  0
  -23.3698  -35.9632   23.3337 H   0  0  0  0  0  0
  -24.3517  -36.8890   22.2052 H   0  0  0  0  0  0
  -23.7234  -37.6507   23.6665 H   0  0  0  0  0  0
  -26.1113  -31.4654   20.5871 H   0  0  0  0  0  0
  -26.8921  -30.8227   21.9953 H   0  0  0  0  0  0
  -28.0934  -28.7706   21.3568 H   0  0  0  0  0  0
  -25.9282  -25.8021   19.1010 H   0  0  0  0  0  0
  -23.9959  -27.2993   18.9746 H   0  0  0  0  0  0
  -23.8541  -30.5746   19.4156 H   0  0  0  0  0  0
  -22.8069  -29.2526   19.8190 H   0  0  0  0  0  0
  -25.1264  -36.1920   25.0820 H   0  0  0  0  0  0
  -21.0000  -28.3268   24.1401 H   0  0  0  0  0  0
  -20.5701  -26.2311   23.3629 H   0  0  0  0  0  0
  -21.6647  -26.7432   22.1190 H   0  0  0  0  0  0
  -19.6901  -25.6294   21.1273 H   0  0  0  0  0  0
  -19.6684  -27.3202   20.6779 H   0  0  0  0  0  0
  -17.4212  -26.6734   21.4046 H   0  0  0  0  0  0
  -18.0293  -26.0109   22.9033 H   0  0  0  0  0  0
  -19.7953  -30.7349   24.2207 H   0  0  0  0  0  0
  -17.5007  -31.6274   24.5198 H   0  0  0  0  0  0
  -15.5350  -30.2978   23.7684 H   0  0  0  0  0  0
  -15.8705  -28.0860   22.7014 H   0  0  0  0  0  0
  -24.5913  -30.7111   25.7891 H   0  0  0  0  0  0
  -24.8908  -32.2997   26.4853 H   0  0  0  0  0  0
  -25.8057  -30.9094   27.0334 H   0  0  0  0  0  0
  -26.2939  -29.6814   24.1221 H   0  0  0  0  0  0
  -27.4014  -29.7267   25.4741 H   0  0  0  0  0  0
  -27.8827  -30.4344   23.9503 H   0  0  0  0  0  0
  -27.2610  -33.3669   26.2137 H   0  0  0  0  0  0
  -28.3920  -32.6915   25.0527 H   0  0  0  0  0  0
  -28.0616  -31.8537   26.5591 H   0  0  0  0  0  0
  -28.2583  -38.0061   24.7423 H   0  0  0  0  0  0
  -28.0973  -36.2585   24.6397 H   0  0  0  0  0  0
  -27.2238  -37.1604   25.8869 H   0  0  0  0  0  0
  -20.9529  -29.8771   21.6871 H   0  0  0  0  0  0
  -26.0115  -38.2824   24.1424 H   0  0  0  0  0  0
  -30.0017  -15.4983   22.0657 H   0  0  0  0  0  0
  -27.0764  -15.6128   25.8839 H   0  0  0  0  0  0
  -25.9797  -14.3776   25.2730 H   0  0  0  0  0  0
  -25.8426  -16.0211   24.6694 H   0  0  0  0  0  0
  -26.6988  -11.2091   23.0442 H   0  0  0  0  0  0
  -25.8574  -11.9530   24.4145 H   0  0  0  0  0  0
  -26.8593  -10.5259   24.6588 H   0  0  0  0  0  0
  -29.1798  -13.2266   25.9245 H   0  0  0  0  0  0
  -28.6618  -11.5894   26.2769 H   0  0  0  0  0  0
  -27.5042  -12.9001   26.3947 H   0  0  0  0  0  0
  -25.9216  -19.5485   21.2543 H   0  0  0  0  0  0
  -25.8769  -21.2894   21.4837 H   0  0  0  0  0  0
  -26.0258  -20.2395   22.8840 H   0  0  0  0  0  0
  -30.4458  -14.7448   16.2698 H   0  0  0  0  0  0
  -32.0762  -14.8245   16.9658 H   0  0  0  0  0  0
  -30.9631  -16.1905   17.1367 H   0  0  0  0  0  0
  -27.3579  -17.8406   23.8950 H   0  0  0  0  0  0
  -26.9055  -17.5565   22.2712 H   0  0  0  0  0  0
  -29.3839  -18.7480   21.7803 H   0  0  0  0  0  0
  -29.1291  -19.3731   23.3599 H   0  0  0  0  0  0
  -28.0265  -11.8270   21.1763 H   0  0  0  0  0  0
  -29.4600  -11.8504   21.5282 H   0  0  0  0  0  0
  -28.7204  -13.8942   17.7434 H   0  0  0  0  0  0
  -29.9020  -12.8191   17.6258 H   0  0  0  0  0  0
  -28.9192  -23.0787   20.2320 H   0  0  0  0  0  0
  -27.2158  -22.8561   20.2906 H   0  0  0  0  0  0
  -28.5567  -24.9386   22.1350 H   0  0  0  0  0  0
  -26.8947  -24.8861   21.7276 H   0  0  0  0  0  0
  -28.8370  -11.7495   23.9133 H   0  0  0  0  0  0
  -28.0650  -20.2865   20.6679 H   0  0  0  0  0  0
  -27.7933  -22.2426   22.8010 H   0  0  0  0  0  0
  -29.2675  -21.9745   22.2142 H   0  0  0  0  0  0
  1 25  1  0  0  0
  1 30  2  0  0  0
  1 89  1  0  0  0
  2  3  1  0  0  0
  2 25  1  0  0  0
  2 91  1  0  0  0
  2 92  1  0  0  0
  3  4  1  0  0  0
  3 93  1  0  0  0
  3 94  1  0  0  0
  4  5  1  0  0  0
  4 95  1  0  0  0
  4 96  1  0  0  0
  5  6  1  0  0  0
  5 26  1  0  0  0
  5 97  1  0  0  0
  6 25  1  0  0  0
  6 98  1  0  0  0
  6 99  1  0  0  0
  7  8  2  0  0  0
  7 26  1  0  0  0
  7 29  1  0  0  0
  8  9  1  0  0  0
  8 22  1  0  0  0
  9 10  1  0  0  0
  9 27  2  0  0  0
 10 11  2  0  0  0
 10 15  1  0  0  0
 11 12  1  0  0  0
 11100  1  0  0  0
 12 13  2  0  0  0
 12101  1  0  0  0
 13 14  1  0  0  0
 13 31  1  0  0  0
 14 15  2  0  0  0
 14102  1  0  0  0
 15103  1  0  0  0
 16 17  2  0  0  0
 16 21  1  0  0  0
 16 31  1  0  0  0
 17 18  1  0  0  0
 17104  1  0  0  0
 18 19  2  0  0  0
 18105  1  0  0  0
 19 20  1  0  0  0
 19 24  1  0  0  0
 20 21  2  0  0  0
 20106  1  0  0  0
 21 23  1  0  0  0
 22 28  1  0  0  0
 22 32  2  0  0  0
 26 27  1  0  0  0
 28107  1  0  0  0
 28108  1  0  0  0
 29109  1  0  0  0
 29110  1  0  0  0
 33 34  1  0  0  0
 33 66  1  0  0  0
 33 70  2  0  0  0
 34 36  1  0  0  0
 34 59  1  0  0  0
 34111  1  0  0  0
 35 44  2  0  0  0
 35 45  1  0  0  0
 35 68  1  0  0  0
 36 56  1  0  0  0
 36112  1  0  0  0
 37 39  1  0  0  0
 37 47  1  0  0  0
 37 66  1  0  0  0
 37113  1  0  0  0
 38 43  2  0  0  0
 38 46  1  0  0  0
 38 47  1  0  0  0
 39 64  1  0  0  0
 39 67  2  0  0  0
 40 52  1  0  0  0
 40 53  2  0  0  0
 40 58  1  0  0  0
 41114  1  0  0  0
 41115  1  0  0  0
 41116  1  0  0  0
 41 48  1  0  0  0
 42 43  1  0  0  0
 42 66  1  0  0  0
 42117  1  0  0  0
 42118  1  0  0  0
 43 44  1  0  0  0
 44119  1  0  0  0
 45 46  2  0  0  0
 45120  1  0  0  0
 46121  1  0  0  0
 47122  1  0  0  0
 47123  1  0  0  0
 48 56  1  0  0  0
 48 65  1  0  0  0
 48124  1  0  0  0
 49 50  1  0  0  0
 49 53  1  0  0  0
 49 64  1  0  0  0
 49125  1  0  0  0
 50 51  1  0  0  0
 50126  1  0  0  0
 50127  1  0  0  0
 51 52  1  0  0  0
 51128  1  0  0  0
 51129  1  0  0  0
 52130  1  0  0  0
 52131  1  0  0  0
 53 54  1  0  0  0
 54 55  2  0  0  0
 54132  1  0  0  0
 55 57  1  0  0  0
 55133  1  0  0  0
 56 69  2  0  0  0
 57 58  2  0  0  0
 57134  1  0  0  0
 58135  1  0  0  0
 59 60  1  0  0  0
 59 61  1  0  0  0
 59 62  1  0  0  0
 60136  1  0  0  0
 60137  1  0  0  0
 60138  1  0  0  0
 61139  1  0  0  0
 61140  1  0  0  0
 61141  1  0  0  0
 62142  1  0  0  0
 62143  1  0  0  0
 62144  1  0  0  0
 63 65  1  0  0  0
 63145  1  0  0  0
 63146  1  0  0  0
 63147  1  0  0  0
 64148  1  0  0  0
 65149  1  0  0  0
 68 85  1  0  0  0
 71 72  2  0  0  0
 71 88  1  0  0  0
 71150  1  0  0  0
 72 73  1  0  0  0
 72 80  1  0  0  0
 73 74  2  0  0  0
 73 75  1  0  0  0
 74 86  1  0  0  0
 74 88  1  0  0  0
 75151  1  0  0  0
 75152  1  0  0  0
 75153  1  0  0  0
 76154  1  0  0  0
 76155  1  0  0  0
 76156  1  0  0  0
 76 86  1  0  0  0
 77 86  1  0  0  0
 77157  1  0  0  0
 77158  1  0  0  0
 77159  1  0  0  0
 78160  1  0  0  0
 78161  1  0  0  0
 78162  1  0  0  0
 78 87  1  0  0  0
 79 89  1  0  0  0
 79163  1  0  0  0
 79164  1  0  0  0
 79165  1  0  0  0
 80 81  1  0  0  0
 80166  1  0  0  0
 80167  1  0  0  0
 81 87  1  0  0  0
 81168  1  0  0  0
 81169  1  0  0  0
 82 83  1  0  0  0
 82 88  1  0  0  0
 82170  1  0  0  0
 82171  1  0  0  0
 83 89  1  0  0  0
 83172  1  0  0  0
 83173  1  0  0  0
 84 85  1  0  0  0
 84 90  1  0  0  0
 84174  1  0  0  0
 84175  1  0  0  0
 85176  1  0  0  0
 85177  1  0  0  0
 86178  1  0  0  0
 87 90  1  0  0  0
 87179  1  0  0  0
 90180  1  0  0  0
 90181  1  0  0  0
M  CHG  1  90   1
M  ISO  4   1 100  68 101  85 101  89 100
M  END
> <chiral flag>
0

> <version>
0

> <s_m_source_file>
/data/baiqing/PycharmProjects/Reinvent-master-3.2/result/LINK_invent/BTK/process_docking_weight1_custom_sum_contain_oxygen_bond_distance_aromatic_linkinvent_7_9_3/rearranged_h_0111.sdf

> <i_m_source_file_index>
30

> <r_mmod_Potential_Energy-OPLS-2005>
6964.6787109375

> <r_mmod_Stretch_Energy-OPLS-2005>
3450.41479492188

> <r_mmod_Bend_Energy-OPLS-2005>
594.3603515625

> <r_mmod_Torsional_Energy-OPLS-2005>
558.862548828125

> <r_mmod_Improper_Torsional_Energy-OPLS-2005>
20.0270957946777

> <r_mmod_Van_der_Waal_Energy-OPLS-2005>
1835.70812988281

> <r_mmod_Electrostatic_Energy-OPLS-2005>
-273.919647216797

> <r_mmod_Solvation_Energy-OPLS-2005>
-427.938262939453

> <b_mmod_Minimization_Converged-OPLS-2005>
0

> <r_mmod_RMS_Derivative-OPLS-2005>
15.9848518371582

$$$$
30
                    3D
 Structure written by MMmdl.
170178  0  0  1  0            999 V2000
  -30.5208  -14.9667   20.4071 C   0  0  0  0  0  0
  -30.4370  -12.5921   19.4973 C   0  0  0  0  0  0
  -29.5135  -12.5447   18.2567 C   0  0  0  0  0  0
  -28.0577  -12.2992   18.6912 C   0  0  0  0  0  0
  -27.6329  -13.2394   19.8474 C   0  0  2  0  0  0
  -28.6800  -13.2558   20.9850 C   0  0  0  0  0  0
  -25.2481  -13.8173   20.5673 C   0  0  0  0  0  0
  -24.1813  -13.0435   20.9225 C   0  0  0  0  0  0
  -24.6426  -11.6900   20.8790 C   0  0  0  0  0  0
  -23.9121  -10.4271   21.0427 C   0  0  0  0  0  0
  -24.3632   -9.4200   21.9238 C   0  0  0  0  0  0
  -23.6310   -8.2244   22.0797 C   0  0  0  0  0  0
  -22.4301   -8.0280   21.3560 C   0  0  0  0  0  0
  -21.9968   -9.0256   20.4662 C   0  0  0  0  0  0
  -22.7303  -10.2140   20.3074 C   0  0  0  0  0  0
  -21.6823   -6.0779   22.5289 C   0  0  0  0  0  0
  -21.4005   -6.5701   23.8224 C   0  0  0  0  0  0
  -21.3663   -5.6856   24.9191 C   0  0  0  0  0  0
  -21.6024   -4.3120   24.7243 C   0  0  0  0  0  0
  -21.8804   -3.8211   23.4364 C   0  0  0  0  0  0
  -21.9188   -4.7008   22.3419 C   0  0  0  0  0  0
  -22.7817  -13.5177   21.1842 C   0  0  0  0  0  0
  -22.1664   -4.2200   21.0990 F   0  0  0  0  0  0
  -21.5604   -3.4605   25.7763 F   0  0  0  0  0  0
  -29.9457  -13.6918   20.3784 N   0  0  0  0  0  0
  -26.2928  -12.9418   20.3310 N   0  0  0  0  0  0
  -25.9355  -11.6542   20.5818 N   0  0  0  0  0  0
  -22.0518  -12.8155   22.0406 N   0  0  0  0  0  0
  -25.4132  -15.1901   20.4023 N   0  0  0  0  0  0
  -31.7262  -15.0345   20.1570 O   0  0  0  0  0  0
  -21.6631   -6.8912   21.4255 O   0  0  0  0  0  0
  -22.3486  -14.5467   20.6667 O   0  0  0  0  0  0
  -24.6479  -31.8345   23.1729 C   0  0  0  0  0  0
  -25.9254  -32.4616   23.8124 C   0  0  1  0  0  0
  -27.2317  -27.0979   20.1197 C   0  0  0  0  0  0
  -25.5965  -33.8413   24.2048 N   0  0  0  0  0  0
  -23.4510  -30.4488   21.5205 C   0  0  2  0  0  0
  -24.9028  -28.8631   20.1093 C   0  0  0  0  0  0
  -22.7580  -29.4487   22.4805 C   0  0  0  0  0  0
  -18.0319  -28.1357   22.8499 C   0  0  0  0  0  0
  -24.1524  -36.7238   23.2632 C   0  0  0  0  0  0
  -26.0110  -30.6939   21.3774 C   0  0  0  0  0  0
  -26.0843  -29.3001   20.7222 C   0  0  0  0  0  0
  -27.2434  -28.4303   20.7137 C   0  0  0  0  0  0
  -26.0163  -26.7690   19.4787 C   0  0  0  0  0  0
  -24.8828  -27.6095   19.4838 C   0  0  0  0  0  0
  -23.6781  -29.7633   20.1471 C   0  0  0  0  0  0
  -25.4152  -36.2949   24.0266 C   0  0  1  0  0  0
  -20.5943  -28.3684   23.1237 C   0  0  2  0  0  0
  -20.6784  -26.9376   22.5415 C   0  0  0  0  0  0
  -19.5749  -26.6345   21.5218 C   0  0  0  0  0  0
  -18.1936  -26.7897   22.1644 C   0  0  0  0  0  0
  -19.1581  -28.8830   23.2864 C   0  0  0  0  0  0
  -18.9487  -30.1443   23.8867 C   0  0  0  0  0  0
  -17.6478  -30.6555   24.0541 C   0  0  0  0  0  0
  -25.9108  -34.9351   23.4960 C   0  0  0  0  0  0
  -16.5371  -29.9041   23.6334 C   0  0  0  0  0  0
  -16.7304  -28.6459   23.0364 C   0  0  0  0  0  0
  -26.4572  -31.6517   25.0589 C   0  0  0  0  0  0
  -25.3728  -31.3758   26.1257 C   0  0  0  0  0  0
  -27.0457  -30.2894   24.6233 C   0  0  0  0  0  0
  -27.6044  -32.4324   25.7421 C   0  0  0  0  0  0
  -27.5580  -37.1758   24.8454 C   0  0  0  0  0  0
  -21.4262  -29.3014   22.3593 N   0  0  0  0  0  0
  -26.4297  -37.3678   23.9381 N   0  0  0  0  0  0
  -24.7231  -31.0164   22.0777 N   0  0  0  0  0  0
  -23.4230  -28.8048   23.2963 O   0  0  0  0  0  0
  -28.3019  -26.1197   20.1941 O   0  0  0  0  0  0
  -26.5715  -34.8883   22.4561 O   0  0  0  0  0  0
  -23.5589  -32.1250   23.6937 O   0  0  0  0  0  0
  -27.5606  -20.7074   21.8131 C   0  0  0  0  0  0
  -28.5986  -20.2960   20.9524 C   0  0  0  0  0  0
  -29.0768  -18.8542   21.1757 C   0  0  0  0  0  0
  -28.7178  -18.3419   22.4692 C   0  0  0  0  0  0
  -27.6765  -18.9206   23.2225 C   0  0  0  0  0  0
  -29.4740  -17.2015   23.1474 C   0  0  0  0  0  0
  -27.1058  -18.3002   24.4915 C   0  0  0  0  0  0
  -29.0553  -17.4596   16.4534 C   0  0  0  0  0  0
  -27.3065  -17.6031   18.2876 C   0  0  0  0  0  0
  -28.8826  -21.5763   19.9479 C   0  0  0  0  0  0
  -28.8126  -23.2178   20.4781 C   0  0  0  0  0  0
  -29.7951  -18.0538   18.7848 C   0  0  0  0  0  0
  -28.2841  -24.6283   19.6806 C   0  0  0  0  0  0
  -29.8973  -17.7218   20.2893 C   0  0  2  0  0  0
  -28.7662  -17.2516   17.9464 C   0  0  0  0  0  0
  -27.0768  -20.0490   22.8658 N   0  0  0  0  0  0
  -29.7112  -16.1415   20.5028 N   0  0  0  0  0  0
  -31.4744  -12.7371   19.2005 H   0  0  0  0  0  0
  -30.4131  -11.6342   20.0224 H   0  0  0  0  0  0
  -29.8371  -11.7690   17.5639 H   0  0  0  0  0  0
  -29.5779  -13.4919   17.7174 H   0  0  0  0  0  0
  -27.9923  -11.2622   19.0275 H   0  0  0  0  0  0
  -27.3754  -12.3852   17.8449 H   0  0  0  0  0  0
  -27.5990  -14.2410   19.4188 H   0  0  0  0  0  0
  -28.7815  -12.2655   21.4376 H   0  0  0  0  0  0
  -28.3859  -13.9295   21.7894 H   0  0  0  0  0  0
  -25.2749   -9.5664   22.4856 H   0  0  0  0  0  0
  -23.9985   -7.4617   22.7516 H   0  0  0  0  0  0
  -21.0916   -8.8786   19.8921 H   0  0  0  0  0  0
  -22.3794  -10.9691   19.6186 H   0  0  0  0  0  0
  -21.2011   -7.6206   23.9737 H   0  0  0  0  0  0
  -21.1482   -6.0605   25.9084 H   0  0  0  0  0  0
  -22.0572   -2.7678   23.2857 H   0  0  0  0  0  0
  -22.4267  -11.9866   22.4753 H   0  0  0  0  0  0
  -21.1111  -13.1121   22.2593 H   0  0  0  0  0  0
  -24.6302  -15.8279   20.4796 H   0  0  0  0  0  0
  -26.2514  -15.6398   20.0641 H   0  0  0  0  0  0
  -26.7302  -32.5201   23.0825 H   0  0  0  0  0  0
  -24.9994  -33.9501   25.0111 H   0  0  0  0  0  0
  -22.7559  -31.2719   21.3529 H   0  0  0  0  0  0
  -23.3747  -35.9610   23.3263 H   0  0  0  0  0  0
  -24.3599  -36.8930   22.2055 H   0  0  0  0  0  0
  -23.7373  -37.6440   23.6739 H   0  0  0  0  0  0
  -26.1720  -31.4438   20.6006 H   0  0  0  0  0  0
  -26.8791  -30.7427   22.0228 H   0  0  0  0  0  0
  -28.1437  -28.7589   21.2173 H   0  0  0  0  0  0
  -25.8817  -25.8201   18.9878 H   0  0  0  0  0  0
  -23.9777  -27.2584   19.0068 H   0  0  0  0  0  0
  -23.8079  -30.5206   19.3748 H   0  0  0  0  0  0
  -22.7952  -29.1949   19.8475 H   0  0  0  0  0  0
  -25.1375  -36.1685   25.0753 H   0  0  0  0  0  0
  -21.0070  -28.3247   24.1346 H   0  0  0  0  0  0
  -20.5627  -26.2272   23.3623 H   0  0  0  0  0  0
  -21.6638  -26.7315   22.1227 H   0  0  0  0  0  0
  -19.6884  -25.6247   21.1239 H   0  0  0  0  0  0
  -19.6682  -27.3152   20.6738 H   0  0  0  0  0  0
  -17.4208  -26.6663   21.4052 H   0  0  0  0  0  0
  -18.0337  -26.0031   22.9027 H   0  0  0  0  0  0
  -19.7954  -30.7283   24.2207 H   0  0  0  0  0  0
  -17.5014  -31.6239   24.5128 H   0  0  0  0  0  0
  -15.5365  -30.2913   23.7640 H   0  0  0  0  0  0
  -15.8725  -28.0741   22.7092 H   0  0  0  0  0  0
  -24.5839  -30.7212   25.7545 H   0  0  0  0  0  0
  -24.9016  -32.2983   26.4645 H   0  0  0  0  0  0
  -25.7951  -30.8887   27.0050 H   0  0  0  0  0  0
  -26.3072  -29.6541   24.1323 H   0  0  0  0  0  0
  -27.4149  -29.7269   25.4823 H   0  0  0  0  0  0
  -27.8950  -30.4089   23.9495 H   0  0  0  0  0  0
  -27.2548  -33.3589   26.1992 H   0  0  0  0  0  0
  -28.3882  -32.6966   25.0306 H   0  0  0  0  0  0
  -28.0705  -31.8475   26.5363 H   0  0  0  0  0  0
  -28.2553  -38.0088   24.7462 H   0  0  0  0  0  0
  -28.1116  -36.2601   24.6318 H   0  0  0  0  0  0
  -27.2272  -37.1433   25.8849 H   0  0  0  0  0  0
  -20.9437  -29.8755   21.6824 H   0  0  0  0  0  0
  -26.0115  -38.2717   24.1387 H   0  0  0  0  0  0
  -27.0260  -21.6263   21.6437 H   0  0  0  0  0  0
  -30.4867  -17.0868   22.7646 H   0  0  0  0  0  0
  -28.9329  -16.2619   23.0356 H   0  0  0  0  0  0
  -29.5931  -17.4059   24.2159 H   0  0  0  0  0  0
  -26.0191  -18.2398   24.4204 H   0  0  0  0  0  0
  -27.3596  -18.9112   25.3594 H   0  0  0  0  0  0
  -27.4429  -17.2827   24.6756 H   0  0  0  0  0  0
  -28.4675  -16.7900   15.8264 H   0  0  0  0  0  0
  -30.1068  -17.2658   16.2349 H   0  0  0  0  0  0
  -28.8408  -18.4822   16.1525 H   0  0  0  0  0  0
  -26.6102  -16.9912   17.7117 H   0  0  0  0  0  0
  -27.0774  -18.6463   18.0652 H   0  0  0  0  0  0
  -27.0958  -17.4414   19.3441 H   0  0  0  0  0  0
  -28.1601  -21.4722   19.1353 H   0  0  0  0  0  0
  -29.8496  -21.4149   19.4684 H   0  0  0  0  0  0
  -29.8388  -23.4353   20.7685 H   0  0  0  0  0  0
  -28.2931  -23.2457   21.4301 H   0  0  0  0  0  0
  -30.7815  -17.8779   18.3620 H   0  0  0  0  0  0
  -29.6389  -19.1241   18.6465 H   0  0  0  0  0  0
  -27.3131  -24.3869   19.2612 H   0  0  0  0  0  0
  -28.9238  -24.6844   18.7998 H   0  0  0  0  0  0
  -30.9356  -17.9267   20.5540 H   0  0  0  0  0  0
  -28.9000  -16.1835   18.1206 H   0  0  0  0  0  0
  -28.7464  -15.9174   20.6783 H   0  0  0  0  0  0
  1 25  1  0  0  0
  1 30  2  0  0  0
  1 87  1  0  0  0
  2  3  1  0  0  0
  2 25  1  0  0  0
  2 88  1  0  0  0
  2 89  1  0  0  0
  3  4  1  0  0  0
  3 90  1  0  0  0
  3 91  1  0  0  0
  4  5  1  0  0  0
  4 92  1  0  0  0
  4 93  1  0  0  0
  5  6  1  0  0  0
  5 26  1  0  0  0
  5 94  1  0  0  0
  6 25  1  0  0  0
  6 95  1  0  0  0
  6 96  1  0  0  0
  7  8  2  0  0  0
  7 26  1  0  0  0
  7 29  1  0  0  0
  8  9  1  0  0  0
  8 22  1  0  0  0
  9 10  1  0  0  0
  9 27  2  0  0  0
 10 11  2  0  0  0
 10 15  1  0  0  0
 11 12  1  0  0  0
 11 97  1  0  0  0
 12 13  2  0  0  0
 12 98  1  0  0  0
 13 14  1  0  0  0
 13 31  1  0  0  0
 14 15  2  0  0  0
 14 99  1  0  0  0
 15100  1  0  0  0
 16 17  2  0  0  0
 16 21  1  0  0  0
 16 31  1  0  0  0
 17 18  1  0  0  0
 17101  1  0  0  0
 18 19  2  0  0  0
 18102  1  0  0  0
 19 20  1  0  0  0
 19 24  1  0  0  0
 20 21  2  0  0  0
 20103  1  0  0  0
 21 23  1  0  0  0
 22 28  1  0  0  0
 22 32  2  0  0  0
 26 27  1  0  0  0
 28104  1  0  0  0
 28105  1  0  0  0
 29106  1  0  0  0
 29107  1  0  0  0
 33 34  1  0  0  0
 33 66  1  0  0  0
 33 70  2  0  0  0
 34 36  1  0  0  0
 34 59  1  0  0  0
 34108  1  0  0  0
 35 44  2  0  0  0
 35 45  1  0  0  0
 35 68  1  0  0  0
 36 56  1  0  0  0
 36109  1  0  0  0
 37 39  1  0  0  0
 37 47  1  0  0  0
 37 66  1  0  0  0
 37110  1  0  0  0
 38 43  2  0  0  0
 38 46  1  0  0  0
 38 47  1  0  0  0
 39 64  1  0  0  0
 39 67  2  0  0  0
 40 52  1  0  0  0
 40 53  2  0  0  0
 40 58  1  0  0  0
 41111  1  0  0  0
 41112  1  0  0  0
 41113  1  0  0  0
 41 48  1  0  0  0
 42 43  1  0  0  0
 42 66  1  0  0  0
 42114  1  0  0  0
 42115  1  0  0  0
 43 44  1  0  0  0
 44116  1  0  0  0
 45 46  2  0  0  0
 45117  1  0  0  0
 46118  1  0  0  0
 47119  1  0  0  0
 47120  1  0  0  0
 48 56  1  0  0  0
 48 65  1  0  0  0
 48121  1  0  0  0
 49 50  1  0  0  0
 49 53  1  0  0  0
 49 64  1  0  0  0
 49122  1  0  0  0
 50 51  1  0  0  0
 50123  1  0  0  0
 50124  1  0  0  0
 51 52  1  0  0  0
 51125  1  0  0  0
 51126  1  0  0  0
 52127  1  0  0  0
 52128  1  0  0  0
 53 54  1  0  0  0
 54 55  2  0  0  0
 54129  1  0  0  0
 55 57  1  0  0  0
 55130  1  0  0  0
 56 69  2  0  0  0
 57 58  2  0  0  0
 57131  1  0  0  0
 58132  1  0  0  0
 59 60  1  0  0  0
 59 61  1  0  0  0
 59 62  1  0  0  0
 60133  1  0  0  0
 60134  1  0  0  0
 60135  1  0  0  0
 61136  1  0  0  0
 61137  1  0  0  0
 61138  1  0  0  0
 62139  1  0  0  0
 62140  1  0  0  0
 62141  1  0  0  0
 63 65  1  0  0  0
 63142  1  0  0  0
 63143  1  0  0  0
 63144  1  0  0  0
 64145  1  0  0  0
 65146  1  0  0  0
 68 83  1  0  0  0
 71 72  2  0  0  0
 71 86  1  0  0  0
 71147  1  0  0  0
 72 73  1  0  0  0
 72 80  1  0  0  0
 73 74  2  0  0  0
 73 84  1  0  0  0
 74 75  1  0  0  0
 74 76  1  0  0  0
 75 77  1  0  0  0
 75 86  2  0  0  0
 76148  1  0  0  0
 76149  1  0  0  0
 76150  1  0  0  0
 77151  1  0  0  0
 77152  1  0  0  0
 77153  1  0  0  0
 78154  1  0  0  0
 78155  1  0  0  0
 78156  1  0  0  0
 78 85  1  0  0  0
 79 85  1  0  0  0
 79157  1  0  0  0
 79158  1  0  0  0
 79159  1  0  0  0
 80 81  1  0  0  0
 80160  1  0  0  0
 80161  1  0  0  0
 81 83  1  0  0  0
 81162  1  0  0  0
 81163  1  0  0  0
 82 85  1  0  0  0
 82164  1  0  0  0
 82165  1  0  0  0
 82 84  1  0  0  0
 83166  1  0  0  0
 83167  1  0  0  0
 84 87  1  0  0  0
 84168  1  0  0  0
 85169  1  0  0  0
 87170  1  0  0  0
M  ISO  4   1 100  68 101  83 101  87 100
M  END
> <chiral flag>
0

> <version>
0

> <s_m_source_file>
/data/baiqing/PycharmProjects/Reinvent-master-3.2/result/LINK_invent/BTK/process_docking_weight1_custom_sum_contain_oxygen_bond_distance_aromatic_linkinvent_7_9_3/rearranged_h_0111.sdf

> <i_m_source_file_index>
31

> <r_mmod_Potential_Energy-OPLS-2005>
493.671539306641

> <r_mmod_Stretch_Energy-OPLS-2005>
333.303497314453

> <r_mmod_Bend_Energy-OPLS-2005>
351.470245361328

> <r_mmod_Torsional_Energy-OPLS-2005>
256.278411865234

> <r_mmod_Improper_Torsional_Energy-OPLS-2005>
5.06332397460938

> <r_mmod_Van_der_Waal_Energy-OPLS-2005>
145.869232177734

> <r_mmod_Electrostatic_Energy-OPLS-2005>
-594.705139160156

> <r_mmod_Solvation_Energy-OPLS-2005>
-214.588348388672

> <b_mmod_Minimization_Converged-OPLS-2005>
0

> <r_mmod_RMS_Derivative-OPLS-2005>
6.03946876525879

$$$$
31
                    3D
 Structure written by MMmdl.
157166  0  0  1  0            999 V2000
  -30.5132  -15.1231   20.3796 C   0  0  0  0  0  0
  -30.4242  -12.7087   19.5137 C   0  0  0  0  0  0
  -29.5144  -12.5489   18.2726 C   0  0  0  0  0  0
  -28.0656  -12.2864   18.7129 C   0  0  0  0  0  0
  -27.6122  -13.2612   19.8277 C   0  0  2  0  0  0
  -28.6499  -13.4085   20.9629 C   0  0  0  0  0  0
  -25.2426  -13.8276   20.5799 C   0  0  0  0  0  0
  -24.1740  -13.0474   20.9273 C   0  0  0  0  0  0
  -24.6367  -11.6955   20.8790 C   0  0  0  0  0  0
  -23.9083  -10.4317   21.0433 C   0  0  0  0  0  0
  -24.3631   -9.4218   21.9196 C   0  0  0  0  0  0
  -23.6306   -8.2255   22.0757 C   0  0  0  0  0  0
  -22.4292   -8.0293   21.3546 C   0  0  0  0  0  0
  -21.9923   -9.0270   20.4653 C   0  0  0  0  0  0
  -22.7259  -10.2152   20.3074 C   0  0  0  0  0  0
  -21.6843   -6.0748   22.5272 C   0  0  0  0  0  0
  -21.4011   -6.5659   23.8205 C   0  0  0  0  0  0
  -21.3654   -5.6813   24.9168 C   0  0  0  0  0  0
  -21.6042   -4.3077   24.7217 C   0  0  0  0  0  0
  -21.8810   -3.8164   23.4342 C   0  0  0  0  0  0
  -21.9203   -4.6979   22.3402 C   0  0  0  0  0  0
  -22.7756  -13.5220   21.1925 C   0  0  0  0  0  0
  -22.1671   -4.2152   21.0978 F   0  0  0  0  0  0
  -21.5634   -3.4563   25.7736 F   0  0  0  0  0  0
  -29.8997  -13.8534   20.3331 N   0  0  0  0  0  0
  -26.2798  -12.9487   20.3274 N   0  0  0  0  0  0
  -25.9293  -11.6606   20.5788 N   0  0  0  0  0  0
  -22.0438  -12.8166   22.0477 N   0  0  0  0  0  0
  -25.4208  -15.2021   20.4285 N   0  0  0  0  0  0
  -31.7260  -15.0964   20.1266 O   0  0  0  0  0  0
  -21.6659   -6.8884   21.4232 O   0  0  0  0  0  0
  -22.3422  -14.5523   20.6787 O   0  0  0  0  0  0
  -24.6559  -31.8333   23.1791 C   0  0  0  0  0  0
  -25.9277  -32.4629   23.8214 C   0  0  1  0  0  0
  -27.1895  -26.9896   20.1617 C   0  0  0  0  0  0
  -25.5971  -33.8452   24.2115 N   0  0  0  0  0  0
  -23.4647  -30.4508   21.5282 C   0  0  2  0  0  0
  -24.9090  -28.8538   20.1091 C   0  0  0  0  0  0
  -22.7622  -29.4499   22.4822 C   0  0  0  0  0  0
  -18.0347  -28.1390   22.8562 C   0  0  0  0  0  0
  -24.1497  -36.7232   23.2641 C   0  0  0  0  0  0
  -26.0306  -30.6547   21.4011 C   0  0  0  0  0  0
  -26.0927  -29.2520   20.7425 C   0  0  0  0  0  0
  -27.2334  -28.3401   20.7477 C   0  0  0  0  0  0
  -25.9792  -26.7299   19.4839 C   0  0  0  0  0  0
  -24.8759  -27.6113   19.4585 C   0  0  0  0  0  0
  -23.6939  -29.7741   20.1507 C   0  0  0  0  0  0
  -25.4142  -36.3006   24.0297 C   0  0  1  0  0  0
  -20.5982  -28.3739   23.1274 C   0  0  2  0  0  0
  -20.6767  -26.9397   22.5553 C   0  0  0  0  0  0
  -19.5803  -26.6461   21.5259 C   0  0  0  0  0  0
  -18.2027  -26.7856   22.1817 C   0  0  0  0  0  0
  -19.1633  -28.8892   23.2878 C   0  0  0  0  0  0
  -18.9589  -30.1493   23.8878 C   0  0  0  0  0  0
  -17.6606  -30.6624   24.0657 C   0  0  0  0  0  0
  -25.9088  -34.9374   23.5031 C   0  0  0  0  0  0
  -16.5457  -29.9132   23.6500 C   0  0  0  0  0  0
  -16.7349  -28.6556   23.0476 C   0  0  0  0  0  0
  -26.4533  -31.6558   25.0720 C   0  0  0  0  0  0
  -25.3657  -31.3819   26.1379 C   0  0  0  0  0  0
  -27.0409  -30.2919   24.6421 C   0  0  0  0  0  0
  -27.6032  -32.4353   25.7517 C   0  0  0  0  0  0
  -27.5578  -37.1780   24.8454 C   0  0  0  0  0  0
  -21.4326  -29.2951   22.3522 N   0  0  0  0  0  0
  -26.4287  -37.3732   23.9391 N   0  0  0  0  0  0
  -24.7389  -31.0055   22.0884 N   0  0  0  0  0  0
  -23.4212  -28.8141   23.3092 O   0  0  0  0  0  0
  -28.2012  -25.9184   20.1851 O   0  0  0  0  0  0
  -26.5710  -34.8871   22.4625 O   0  0  0  0  0  0
  -23.5657  -32.1247   23.6945 O   0  0  0  0  0  0
  -30.3118  -23.1980   19.7226 C   0  0  0  0  0  0
  -29.4160  -22.9479   18.5476 C   0  0  0  0  0  0
  -29.9745  -17.4568   19.2214 C   0  0  0  0  0  0
  -29.3030  -17.2767   21.4603 C   0  0  0  0  0  0
  -29.0904  -18.8558   19.1999 C   0  0  0  0  0  0
  -29.4343  -18.9437   21.5319 C   0  0  0  0  0  0
  -28.8412  -22.9062   19.9516 C   0  0  0  0  0  0
  -28.4460  -21.2818   20.4210 C   0  0  0  0  0  0
  -27.8993  -24.3285   20.2936 C   0  0  0  0  0  0
  -29.8031  -16.4037   20.3135 N   0  0  0  0  0  0
  -29.3134  -19.8794   20.3104 N   0  3  0  0  0  0
  -31.4553  -12.8656   19.1916 H   0  0  0  0  0  0
  -30.4341  -11.7921   20.1035 H   0  0  0  0  0  0
  -29.8681  -11.7386   17.6332 H   0  0  0  0  0  0
  -29.5477  -13.4564   17.6686 H   0  0  0  0  0  0
  -28.0215  -11.2616   19.0819 H   0  0  0  0  0  0
  -27.3853  -12.3356   17.8619 H   0  0  0  0  0  0
  -27.5392  -14.2311   19.3369 H   0  0  0  0  0  0
  -28.7808  -12.4793   21.5178 H   0  0  0  0  0  0
  -28.3120  -14.1553   21.6843 H   0  0  0  0  0  0
  -25.2775   -9.5693   22.4754 H   0  0  0  0  0  0
  -24.0020   -7.4648   22.7459 H   0  0  0  0  0  0
  -21.0858   -8.8780   19.8951 H   0  0  0  0  0  0
  -22.3718  -10.9683   19.6183 H   0  0  0  0  0  0
  -21.1984   -7.6167   23.9694 H   0  0  0  0  0  0
  -21.1490   -6.0560   25.9067 H   0  0  0  0  0  0
  -22.0595   -2.7624   23.2850 H   0  0  0  0  0  0
  -22.4087  -11.9791   22.4768 H   0  0  0  0  0  0
  -21.1046  -13.1123   22.2749 H   0  0  0  0  0  0
  -24.6692  -15.8748   20.5416 H   0  0  0  0  0  0
  -26.2834  -15.6266   20.1136 H   0  0  0  0  0  0
  -26.7334  -32.5156   23.0923 H   0  0  0  0  0  0
  -25.0049  -33.9554   25.0218 H   0  0  0  0  0  0
  -22.7741  -31.2823   21.3660 H   0  0  0  0  0  0
  -23.3767  -35.9556   23.3289 H   0  0  0  0  0  0
  -24.3550  -36.8895   22.2056 H   0  0  0  0  0  0
  -23.7251  -37.6416   23.6692 H   0  0  0  0  0  0
  -26.2066  -31.4002   20.6246 H   0  0  0  0  0  0
  -26.8941  -30.7034   22.0526 H   0  0  0  0  0  0
  -28.1288  -28.6384   21.2737 H   0  0  0  0  0  0
  -25.8475  -25.7893   18.9702 H   0  0  0  0  0  0
  -23.9795  -27.3031   18.9367 H   0  0  0  0  0  0
  -23.8325  -30.5457   19.3928 H   0  0  0  0  0  0
  -22.8054  -29.2201   19.8399 H   0  0  0  0  0  0
  -25.1346  -36.1829   25.0790 H   0  0  0  0  0  0
  -21.0147  -28.3436   24.1385 H   0  0  0  0  0  0
  -20.5449  -26.2424   23.3825 H   0  0  0  0  0  0
  -21.6660  -26.7258   22.1527 H   0  0  0  0  0  0
  -19.6697  -27.3447   20.6930 H   0  0  0  0  0  0
  -19.7080  -25.6475   21.1073 H   0  0  0  0  0  0
  -18.0785  -26.0056   22.9351 H   0  0  0  0  0  0
  -17.4130  -26.6291   21.4450 H   0  0  0  0  0  0
  -19.8121  -30.7289   24.2118 H   0  0  0  0  0  0
  -17.5231  -31.6274   24.5332 H   0  0  0  0  0  0
  -15.5479  -30.3071   23.7960 H   0  0  0  0  0  0
  -15.8694  -28.0920   22.7232 H   0  0  0  0  0  0
  -24.5830  -30.7182   25.7686 H   0  0  0  0  0  0
  -24.8850  -32.3032   26.4674 H   0  0  0  0  0  0
  -25.7875  -30.9059   27.0244 H   0  0  0  0  0  0
  -26.3069  -29.6620   24.1381 H   0  0  0  0  0  0
  -27.3901  -29.7244   25.5068 H   0  0  0  0  0  0
  -27.9027  -30.4100   23.9848 H   0  0  0  0  0  0
  -27.2596  -33.3670   26.2018 H   0  0  0  0  0  0
  -28.3875  -32.6911   25.0378 H   0  0  0  0  0  0
  -28.0646  -31.8535   26.5506 H   0  0  0  0  0  0
  -28.2601  -38.0072   24.7499 H   0  0  0  0  0  0
  -28.1067  -36.2609   24.6297 H   0  0  0  0  0  0
  -27.2258  -37.1430   25.8839 H   0  0  0  0  0  0
  -20.9528  -29.8441   21.6517 H   0  0  0  0  0  0
  -26.0153  -38.2797   24.1380 H   0  0  0  0  0  0
  -30.6504  -24.2209   19.8831 H   0  0  0  0  0  0
  -31.0364  -22.4263   19.9675 H   0  0  0  0  0  0
  -29.5320  -22.0034   18.0186 H   0  0  0  0  0  0
  -29.1243  -23.7888   17.9200 H   0  0  0  0  0  0
  -31.0327  -17.7088   19.1586 H   0  0  0  0  0  0
  -29.7608  -16.9331   18.2887 H   0  0  0  0  0  0
  -28.2414  -17.0402   21.5311 H   0  0  0  0  0  0
  -29.7284  -16.8702   22.3799 H   0  0  0  0  0  0
  -28.0339  -18.5827   19.1995 H   0  0  0  0  0  0
  -29.2555  -19.3600   18.2474 H   0  0  0  0  0  0
  -30.4158  -19.1615   21.9550 H   0  0  0  0  0  0
  -28.7344  -19.2843   22.2979 H   0  0  0  0  0  0
  -27.4829  -21.0663   19.9575 H   0  0  0  0  0  0
  -28.2009  -21.3692   21.4778 H   0  0  0  0  0  0
  -26.9964  -24.1614   19.7129 H   0  0  0  0  0  0
  -27.5608  -24.2058   21.3233 H   0  0  0  0  0  0
  -30.2588  -20.1965   20.1674 H   0  0  0  0  0  0
  1 25  1  0  0  0
  1 30  2  0  0  0
  1 80  1  0  0  0
  2  3  1  0  0  0
  2 25  1  0  0  0
  2 82  1  0  0  0
  2 83  1  0  0  0
  3  4  1  0  0  0
  3 84  1  0  0  0
  3 85  1  0  0  0
  4  5  1  0  0  0
  4 86  1  0  0  0
  4 87  1  0  0  0
  5  6  1  0  0  0
  5 26  1  0  0  0
  5 88  1  0  0  0
  6 25  1  0  0  0
  6 89  1  0  0  0
  6 90  1  0  0  0
  7  8  2  0  0  0
  7 26  1  0  0  0
  7 29  1  0  0  0
  8  9  1  0  0  0
  8 22  1  0  0  0
  9 10  1  0  0  0
  9 27  2  0  0  0
 10 11  2  0  0  0
 10 15  1  0  0  0
 11 12  1  0  0  0
 11 91  1  0  0  0
 12 13  2  0  0  0
 12 92  1  0  0  0
 13 14  1  0  0  0
 13 31  1  0  0  0
 14 15  2  0  0  0
 14 93  1  0  0  0
 15 94  1  0  0  0
 16 17  2  0  0  0
 16 21  1  0  0  0
 16 31  1  0  0  0
 17 18  1  0  0  0
 17 95  1  0  0  0
 18 19  2  0  0  0
 18 96  1  0  0  0
 19 20  1  0  0  0
 19 24  1  0  0  0
 20 21  2  0  0  0
 20 97  1  0  0  0
 21 23  1  0  0  0
 22 28  1  0  0  0
 22 32  2  0  0  0
 26 27  1  0  0  0
 28 98  1  0  0  0
 28 99  1  0  0  0
 29100  1  0  0  0
 29101  1  0  0  0
 33 34  1  0  0  0
 33 66  1  0  0  0
 33 70  2  0  0  0
 34 36  1  0  0  0
 34 59  1  0  0  0
 34102  1  0  0  0
 35 44  2  0  0  0
 35 45  1  0  0  0
 35 68  1  0  0  0
 36 56  1  0  0  0
 36103  1  0  0  0
 37 39  1  0  0  0
 37 47  1  0  0  0
 37 66  1  0  0  0
 37104  1  0  0  0
 38 43  2  0  0  0
 38 46  1  0  0  0
 38 47  1  0  0  0
 39 64  1  0  0  0
 39 67  2  0  0  0
 40 52  1  0  0  0
 40 53  2  0  0  0
 40 58  1  0  0  0
 41105  1  0  0  0
 41106  1  0  0  0
 41107  1  0  0  0
 41 48  1  0  0  0
 42 43  1  0  0  0
 42 66  1  0  0  0
 42108  1  0  0  0
 42109  1  0  0  0
 43 44  1  0  0  0
 44110  1  0  0  0
 45 46  2  0  0  0
 45111  1  0  0  0
 46112  1  0  0  0
 47113  1  0  0  0
 47114  1  0  0  0
 48 56  1  0  0  0
 48 65  1  0  0  0
 48115  1  0  0  0
 49 50  1  0  0  0
 49 53  1  0  0  0
 49 64  1  0  0  0
 49116  1  0  0  0
 50 51  1  0  0  0
 50117  1  0  0  0
 50118  1  0  0  0
 51 52  1  0  0  0
 51119  1  0  0  0
 51120  1  0  0  0
 52121  1  0  0  0
 52122  1  0  0  0
 53 54  1  0  0  0
 54 55  2  0  0  0
 54123  1  0  0  0
 55 57  1  0  0  0
 55124  1  0  0  0
 56 69  2  0  0  0
 57 58  2  0  0  0
 57125  1  0  0  0
 58126  1  0  0  0
 59 60  1  0  0  0
 59 61  1  0  0  0
 59 62  1  0  0  0
 60127  1  0  0  0
 60128  1  0  0  0
 60129  1  0  0  0
 61130  1  0  0  0
 61131  1  0  0  0
 61132  1  0  0  0
 62133  1  0  0  0
 62134  1  0  0  0
 62135  1  0  0  0
 63 65  1  0  0  0
 63136  1  0  0  0
 63137  1  0  0  0
 63138  1  0  0  0
 64139  1  0  0  0
 65140  1  0  0  0
 68 79  1  0  0  0
 71 72  1  0  0  0
 71 77  1  0  0  0
 71141  1  0  0  0
 71142  1  0  0  0
 72 77  1  0  0  0
 72143  1  0  0  0
 72144  1  0  0  0
 73 75  1  0  0  0
 73 80  1  0  0  0
 73145  1  0  0  0
 73146  1  0  0  0
 74 76  1  0  0  0
 74 80  1  0  0  0
 74147  1  0  0  0
 74148  1  0  0  0
 75 81  1  0  0  0
 75149  1  0  0  0
 75150  1  0  0  0
 76 81  1  0  0  0
 76151  1  0  0  0
 76152  1  0  0  0
 77 78  1  0  0  0
 77 79  1  0  0  0
 78153  1  0  0  0
 78154  1  0  0  0
 78 81  1  0  0  0
 79155  1  0  0  0
 79156  1  0  0  0
 81157  1  0  0  0
M  CHG  1  81   1
M  ISO  4   1 100  68 101  79 101  80 100
M  END
> <chiral flag>
0

> <version>
0

> <s_m_source_file>
/data/baiqing/PycharmProjects/Reinvent-master-3.2/result/LINK_invent/BTK/process_docking_weight1_custom_sum_contain_oxygen_bond_distance_aromatic_linkinvent_7_9_3/rearranged_h_0111.sdf

> <i_m_source_file_index>
32

> <r_mmod_Potential_Energy-OPLS-2005>
1113.12683105469

> <r_mmod_Stretch_Energy-OPLS-2005>
426.190093994141

> <r_mmod_Bend_Energy-OPLS-2005>
399.297088623047

> <r_mmod_Torsional_Energy-OPLS-2005>
465.939514160156

> <r_mmod_Improper_Torsional_Energy-OPLS-2005>
12.9234590530396

> <r_mmod_Van_der_Waal_Energy-OPLS-2005>
113.477325439453

> <r_mmod_Electrostatic_Energy-OPLS-2005>
-197.115570068359

> <r_mmod_Solvation_Energy-OPLS-2005>
-447.812286376953

> <b_mmod_Minimization_Converged-OPLS-2005>
0

> <r_mmod_RMS_Derivative-OPLS-2005>
4.63766098022461

$$$$
32
                    3D
 Structure written by MMmdl.
155164  0  0  1  0            999 V2000
  -30.2064  -15.8617   20.3134 C   0  0  0  0  0  0
  -30.4097  -13.2483   19.5542 C   0  0  0  0  0  0
  -29.5646  -12.7171   18.3531 C   0  0  0  0  0  0
  -28.1545  -12.3088   18.8009 C   0  0  0  0  0  0
  -27.5899  -13.3296   19.8111 C   0  0  2  0  0  0
  -28.5869  -13.7525   20.9219 C   0  0  0  0  0  0
  -25.2285  -13.8280   20.5781 C   0  0  0  0  0  0
  -24.1704  -13.0420   20.9303 C   0  0  0  0  0  0
  -24.6438  -11.6942   20.8768 C   0  0  0  0  0  0
  -23.9140  -10.4288   21.0391 C   0  0  0  0  0  0
  -24.3663   -9.4201   21.9177 C   0  0  0  0  0  0
  -23.6316   -8.2247   22.0757 C   0  0  0  0  0  0
  -22.4295   -8.0294   21.3549 C   0  0  0  0  0  0
  -21.9948   -9.0272   20.4645 C   0  0  0  0  0  0
  -22.7302  -10.2138   20.3046 C   0  0  0  0  0  0
  -21.6858   -6.0744   22.5279 C   0  0  0  0  0  0
  -21.4023   -6.5643   23.8215 C   0  0  0  0  0  0
  -21.3659   -5.6791   24.9174 C   0  0  0  0  0  0
  -21.6044   -4.3055   24.7221 C   0  0  0  0  0  0
  -21.8816   -3.8150   23.4340 C   0  0  0  0  0  0
  -21.9192   -4.6972   22.3400 C   0  0  0  0  0  0
  -22.7715  -13.5156   21.1918 C   0  0  0  0  0  0
  -22.1659   -4.2159   21.0978 F   0  0  0  0  0  0
  -21.5626   -3.4535   25.7730 F   0  0  0  0  0  0
  -29.7278  -14.4483   20.2615 N   0  0  0  0  0  0
  -26.2764  -12.9665   20.3240 N   0  0  0  0  0  0
  -25.9395  -11.6717   20.5692 N   0  0  0  0  0  0
  -22.0364  -12.8150   22.0469 N   0  0  0  0  0  0
  -25.3828  -15.1991   20.4119 N   0  0  0  0  0  0
  -31.4452  -15.7745   20.1511 O   0  0  0  0  0  0
  -21.6647   -6.8893   21.4244 O   0  0  0  0  0  0
  -22.3403  -14.5456   20.6749 O   0  0  0  0  0  0
  -24.6999  -31.7813   23.1378 C   0  0  0  0  0  0
  -25.9500  -32.4372   23.7988 C   0  0  1  0  0  0
  -27.2341  -26.5375   20.2381 C   0  0  0  0  0  0
  -25.6010  -33.8205   24.1856 N   0  0  0  0  0  0
  -23.5338  -30.3757   21.4959 C   0  0  2  0  0  0
  -24.9941  -28.6820   20.1257 C   0  0  0  0  0  0
  -22.7839  -29.4218   22.4668 C   0  0  0  0  0  0
  -18.0348  -28.1434   22.8439 C   0  0  0  0  0  0
  -24.1503  -36.7110   23.2656 C   0  0  0  0  0  0
  -26.1222  -30.4604   21.4288 C   0  0  0  0  0  0
  -26.1862  -29.0062   20.7838 C   0  0  0  0  0  0
  -27.2842  -27.9683   20.8011 C   0  0  0  0  0  0
  -26.0065  -26.4655   19.5193 C   0  0  0  0  0  0
  -24.9535  -27.4393   19.4680 C   0  0  0  0  0  0
  -23.7978  -29.6571   20.1390 C   0  0  0  0  0  0
  -25.4157  -36.2835   24.0270 C   0  0  1  0  0  0
  -20.5993  -28.3803   23.1109 C   0  0  2  0  0  0
  -20.6810  -26.9446   22.5407 C   0  0  0  0  0  0
  -19.5790  -26.6370   21.5218 C   0  0  0  0  0  0
  -18.1971  -26.7957   22.1613 C   0  0  0  0  0  0
  -19.1618  -28.8945   23.2751 C   0  0  0  0  0  0
  -18.9520  -30.1525   23.8804 C   0  0  0  0  0  0
  -17.6507  -30.6611   24.0545 C   0  0  0  0  0  0
  -25.9144  -34.9229   23.4912 C   0  0  0  0  0  0
  -16.5396  -29.9088   23.6357 C   0  0  0  0  0  0
  -16.7327  -28.6514   23.0367 C   0  0  0  0  0  0
  -26.4624  -31.6473   25.0678 C   0  0  0  0  0  0
  -25.3643  -31.3839   26.1263 C   0  0  0  0  0  0
  -27.0581  -30.2791   24.6698 C   0  0  0  0  0  0
  -27.6048  -32.4363   25.7501 C   0  0  0  0  0  0
  -27.5564  -37.1709   24.8464 C   0  0  0  0  0  0
  -21.4472  -29.3015   22.3408 N   0  0  0  0  0  0
  -26.4265  -37.3615   23.9405 N   0  0  0  0  0  0
  -24.8106  -30.9095   22.0726 N   0  0  0  0  0  0
  -23.4199  -28.7842   23.3090 O   0  0  0  0  0  0
  -28.1700  -25.2377   20.2952 O   0  0  0  0  0  0
  -26.5808  -34.8836   22.4545 O   0  0  0  0  0  0
  -23.5984  -32.0967   23.6228 O   0  0  0  0  0  0
  -30.1126  -21.2482   19.9196 C   0  0  0  0  0  0
  -30.4435  -19.7785   19.9484 C   0  0  0  0  0  0
  -28.8161  -21.6873   20.2475 C   0  0  0  0  0  0
  -29.4172  -18.9021   20.2978 C   0  0  0  0  0  0
  -25.1106  -18.6454   21.4704 C   0  0  0  0  0  0
  -24.6966  -19.6147   20.3548 C   0  0  0  0  0  0
  -26.6306  -18.5338   21.3482 C   0  0  0  0  0  0
  -25.9716  -20.3750   19.9498 C   0  0  0  0  0  0
  -27.0461  -19.9552   20.9628 C   0  0  0  0  0  0
  -27.8926  -23.4232   20.2436 C   0  0  0  0  0  0
  -28.4195  -20.1488   20.4910 N   0  0  0  0  0  0
  -29.4142  -17.2670   20.3880 N   0  0  0  0  0  0
  -31.3870  -13.5429   19.1701 H   0  0  0  0  0  0
  -30.6235  -12.4442   20.2606 H   0  0  0  0  0  0
  -30.0679  -11.8780   17.8710 H   0  0  0  0  0  0
  -29.4891  -13.5027   17.5990 H   0  0  0  0  0  0
  -28.2205  -11.3290   19.2753 H   0  0  0  0  0  0
  -27.4917  -12.1946   17.9424 H   0  0  0  0  0  0
  -27.4253  -14.2225   19.2060 H   0  0  0  0  0  0
  -28.8948  -12.9043   21.5358 H   0  0  0  0  0  0
  -28.1068  -14.4565   21.6032 H   0  0  0  0  0  0
  -25.2804   -9.5674   22.4760 H   0  0  0  0  0  0
  -24.0013   -7.4642   22.7489 H   0  0  0  0  0  0
  -21.0876   -8.8808   19.8955 H   0  0  0  0  0  0
  -22.3768  -10.9680   19.6156 H   0  0  0  0  0  0
  -21.2021   -7.6152   23.9724 H   0  0  0  0  0  0
  -21.1484   -6.0518   25.9078 H   0  0  0  0  0  0
  -22.0593   -2.7614   23.2834 H   0  0  0  0  0  0
  -22.3992  -11.9838   22.4899 H   0  0  0  0  0  0
  -21.0969  -13.1160   22.2629 H   0  0  0  0  0  0
  -24.5980  -15.8345   20.4999 H   0  0  0  0  0  0
  -26.2027  -15.6317   20.0112 H   0  0  0  0  0  0
  -26.7595  -32.4803   23.0705 H   0  0  0  0  0  0
  -25.0033  -33.9213   24.9928 H   0  0  0  0  0  0
  -22.8686  -31.2173   21.2910 H   0  0  0  0  0  0
  -23.3786  -35.9417   23.3252 H   0  0  0  0  0  0
  -24.3568  -36.8849   22.2085 H   0  0  0  0  0  0
  -23.7245  -37.6256   23.6792 H   0  0  0  0  0  0
  -26.3418  -31.1743   20.6339 H   0  0  0  0  0  0
  -26.9667  -30.5355   22.1012 H   0  0  0  0  0  0
  -28.1781  -28.2312   21.3491 H   0  0  0  0  0  0
  -25.8121  -25.5354   19.0043 H   0  0  0  0  0  0
  -24.0600  -27.1778   18.9180 H   0  0  0  0  0  0
  -23.9859  -30.4103   19.3729 H   0  0  0  0  0  0
  -22.8999  -29.1300   19.8108 H   0  0  0  0  0  0
  -25.1377  -36.1574   25.0761 H   0  0  0  0  0  0
  -21.0065  -28.3447   24.1241 H   0  0  0  0  0  0
  -20.5665  -26.2431   23.3684 H   0  0  0  0  0  0
  -21.6672  -26.7368   22.1233 H   0  0  0  0  0  0
  -19.6948  -25.6256   21.1308 H   0  0  0  0  0  0
  -19.6745  -27.3129   20.6707 H   0  0  0  0  0  0
  -17.4243  -26.6694   21.4014 H   0  0  0  0  0  0
  -18.0355  -26.0127   22.9035 H   0  0  0  0  0  0
  -19.7995  -30.7366   24.2136 H   0  0  0  0  0  0
  -17.5056  -31.6280   24.5167 H   0  0  0  0  0  0
  -15.5390  -30.2959   23.7743 H   0  0  0  0  0  0
  -15.8726  -28.0805   22.7134 H   0  0  0  0  0  0
  -24.5867  -30.7150   25.7554 H   0  0  0  0  0  0
  -24.8794  -32.3075   26.4430 H   0  0  0  0  0  0
  -25.7784  -30.9169   27.0209 H   0  0  0  0  0  0
  -26.3337  -29.6356   24.1699 H   0  0  0  0  0  0
  -27.3950  -29.7300   25.5501 H   0  0  0  0  0  0
  -27.9338  -30.3877   24.0297 H   0  0  0  0  0  0
  -27.2578  -33.3756   26.1818 H   0  0  0  0  0  0
  -28.3989  -32.6772   25.0420 H   0  0  0  0  0  0
  -28.0572  -31.8665   26.5628 H   0  0  0  0  0  0
  -28.2532  -38.0047   24.7513 H   0  0  0  0  0  0
  -28.1107  -36.2567   24.6288 H   0  0  0  0  0  0
  -27.2276  -37.1334   25.8862 H   0  0  0  0  0  0
  -20.9820  -29.8632   21.6413 H   0  0  0  0  0  0
  -26.0082  -38.2657   24.1413 H   0  0  0  0  0  0
  -30.8570  -21.9787   19.6332 H   0  0  0  0  0  0
  -31.4265  -19.4035   19.6966 H   0  0  0  0  0  0
  -24.6072  -17.6813   21.3994 H   0  0  0  0  0  0
  -24.8524  -19.0731   22.4408 H   0  0  0  0  0  0
  -23.9159  -20.2937   20.7015 H   0  0  0  0  0  0
  -24.2966  -19.0709   19.4975 H   0  0  0  0  0  0
  -26.8588  -17.8327   20.5466 H   0  0  0  0  0  0
  -27.1033  -18.1837   22.2670 H   0  0  0  0  0  0
  -25.8085  -21.4521   19.9455 H   0  0  0  0  0  0
  -26.2704  -20.0856   18.9411 H   0  0  0  0  0  0
  -26.9328  -20.5769   21.8531 H   0  0  0  0  0  0
  -27.1692  -23.3166   21.0518 H   0  0  0  0  0  0
  -27.2676  -23.3596   19.3531 H   0  0  0  0  0  0
  -28.4609  -16.9753   20.5464 H   0  0  0  0  0  0
  1 25  1  0  0  0
  1 30  2  0  0  0
  1 82  1  0  0  0
  2  3  1  0  0  0
  2 25  1  0  0  0
  2 83  1  0  0  0
  2 84  1  0  0  0
  3  4  1  0  0  0
  3 85  1  0  0  0
  3 86  1  0  0  0
  4  5  1  0  0  0
  4 87  1  0  0  0
  4 88  1  0  0  0
  5  6  1  0  0  0
  5 26  1  0  0  0
  5 89  1  0  0  0
  6 25  1  0  0  0
  6 90  1  0  0  0
  6 91  1  0  0  0
  7  8  2  0  0  0
  7 26  1  0  0  0
  7 29  1  0  0  0
  8  9  1  0  0  0
  8 22  1  0  0  0
  9 10  1  0  0  0
  9 27  2  0  0  0
 10 11  2  0  0  0
 10 15  1  0  0  0
 11 12  1  0  0  0
 11 92  1  0  0  0
 12 13  2  0  0  0
 12 93  1  0  0  0
 13 14  1  0  0  0
 13 31  1  0  0  0
 14 15  2  0  0  0
 14 94  1  0  0  0
 15 95  1  0  0  0
 16 17  2  0  0  0
 16 21  1  0  0  0
 16 31  1  0  0  0
 17 18  1  0  0  0
 17 96  1  0  0  0
 18 19  2  0  0  0
 18 97  1  0  0  0
 19 20  1  0  0  0
 19 24  1  0  0  0
 20 21  2  0  0  0
 20 98  1  0  0  0
 21 23  1  0  0  0
 22 28  1  0  0  0
 22 32  2  0  0  0
 26 27  1  0  0  0
 28 99  1  0  0  0
 28100  1  0  0  0
 29101  1  0  0  0
 29102  1  0  0  0
 33 34  1  0  0  0
 33 66  1  0  0  0
 33 70  2  0  0  0
 34 36  1  0  0  0
 34 59  1  0  0  0
 34103  1  0  0  0
 35 44  2  0  0  0
 35 45  1  0  0  0
 35 68  1  0  0  0
 36 56  1  0  0  0
 36104  1  0  0  0
 37 39  1  0  0  0
 37 47  1  0  0  0
 37 66  1  0  0  0
 37105  1  0  0  0
 38 43  2  0  0  0
 38 46  1  0  0  0
 38 47  1  0  0  0
 39 64  1  0  0  0
 39 67  2  0  0  0
 40 52  1  0  0  0
 40 53  2  0  0  0
 40 58  1  0  0  0
 41106  1  0  0  0
 41107  1  0  0  0
 41108  1  0  0  0
 41 48  1  0  0  0
 42 43  1  0  0  0
 42 66  1  0  0  0
 42109  1  0  0  0
 42110  1  0  0  0
 43 44  1  0  0  0
 44111  1  0  0  0
 45 46  2  0  0  0
 45112  1  0  0  0
 46113  1  0  0  0
 47114  1  0  0  0
 47115  1  0  0  0
 48 56  1  0  0  0
 48 65  1  0  0  0
 48116  1  0  0  0
 49 50  1  0  0  0
 49 53  1  0  0  0
 49 64  1  0  0  0
 49117  1  0  0  0
 50 51  1  0  0  0
 50118  1  0  0  0
 50119  1  0  0  0
 51 52  1  0  0  0
 51120  1  0  0  0
 51121  1  0  0  0
 52122  1  0  0  0
 52123  1  0  0  0
 53 54  1  0  0  0
 54 55  2  0  0  0
 54124  1  0  0  0
 55 57  1  0  0  0
 55125  1  0  0  0
 56 69  2  0  0  0
 57 58  2  0  0  0
 57126  1  0  0  0
 58127  1  0  0  0
 59 60  1  0  0  0
 59 61  1  0  0  0
 59 62  1  0  0  0
 60128  1  0  0  0
 60129  1  0  0  0
 60130  1  0  0  0
 61131  1  0  0  0
 61132  1  0  0  0
 61133  1  0  0  0
 62134  1  0  0  0
 62135  1  0  0  0
 62136  1  0  0  0
 63 65  1  0  0  0
 63137  1  0  0  0
 63138  1  0  0  0
 63139  1  0  0  0
 64140  1  0  0  0
 65141  1  0  0  0
 68 80  1  0  0  0
 71 72  1  0  0  0
 71 73  2  0  0  0
 71142  1  0  0  0
 72 74  2  0  0  0
 72143  1  0  0  0
 73 80  1  0  0  0
 73 81  1  0  0  0
 74 81  1  0  0  0
 74 82  1  0  0  0
 75 76  1  0  0  0
 75 77  1  0  0  0
 75144  1  0  0  0
 75145  1  0  0  0
 76 78  1  0  0  0
 76146  1  0  0  0
 76147  1  0  0  0
 77 79  1  0  0  0
 77148  1  0  0  0
 77149  1  0  0  0
 78 79  1  0  0  0
 78150  1  0  0  0
 78151  1  0  0  0
 79 81  1  0  0  0
 79152  1  0  0  0
 80153  1  0  0  0
 80154  1  0  0  0
 82155  1  0  0  0
M  ISO  4   1 100  68 101  80 101  82 100
M  END
> <chiral flag>
0

> <version>
0

> <s_m_source_file>
/data/baiqing/PycharmProjects/Reinvent-master-3.2/result/LINK_invent/BTK/process_docking_weight1_custom_sum_contain_oxygen_bond_distance_aromatic_linkinvent_7_9_3/rearranged_h_0111.sdf

> <i_m_source_file_index>
33

> <r_mmod_Potential_Energy-OPLS-2005>
3309.08032226562

> <r_mmod_Stretch_Energy-OPLS-2005>
1354.77844238281

> <r_mmod_Bend_Energy-OPLS-2005>
812.454772949219

> <r_mmod_Torsional_Energy-OPLS-2005>
300.819183349609

> <r_mmod_Improper_Torsional_Energy-OPLS-2005>
3.69650936126709

> <r_mmod_Van_der_Waal_Energy-OPLS-2005>
100.660224914551

> <r_mmod_Electrostatic_Energy-OPLS-2005>
-329.133178710938

> <r_mmod_Solvation_Energy-OPLS-2005>
-213.118606567383

> <b_mmod_Minimization_Converged-OPLS-2005>
0

> <r_mmod_RMS_Derivative-OPLS-2005>
0.968605816364288

$$$$
33
                    3D
 Structure written by MMmdl.
179188  0  0  1  0            999 V2000
  -30.7260  -14.4832   20.6026 C   0  0  0  0  0  0
  -30.4147  -12.3298   19.4215 C   0  0  0  0  0  0
  -29.4868  -12.5114   18.2042 C   0  0  0  0  0  0
  -28.0119  -12.3605   18.6224 C   0  0  0  0  0  0
  -27.6561  -13.2125   19.8702 C   0  0  2  0  0  0
  -28.6989  -13.0179   20.9932 C   0  0  0  0  0  0
  -25.2561  -13.8179   20.5697 C   0  0  0  0  0  0
  -24.1821  -13.0442   20.9183 C   0  0  0  0  0  0
  -24.6381  -11.6912   20.8731 C   0  0  0  0  0  0
  -23.9056  -10.4294   21.0401 C   0  0  0  0  0  0
  -24.3612   -9.4216   21.9186 C   0  0  0  0  0  0
  -23.6291   -8.2251   22.0760 C   0  0  0  0  0  0
  -22.4272   -8.0287   21.3554 C   0  0  0  0  0  0
  -21.9907   -9.0253   20.4652 C   0  0  0  0  0  0
  -22.7230  -10.2133   20.3056 C   0  0  0  0  0  0
  -21.6855   -6.0739   22.5282 C   0  0  0  0  0  0
  -21.4010   -6.5642   23.8214 C   0  0  0  0  0  0
  -21.3661   -5.6800   24.9179 C   0  0  0  0  0  0
  -21.6045   -4.3061   24.7234 C   0  0  0  0  0  0
  -21.8819   -3.8150   23.4354 C   0  0  0  0  0  0
  -21.9188   -4.6965   22.3407 C   0  0  0  0  0  0
  -22.7846  -13.5239   21.1846 C   0  0  0  0  0  0
  -22.1660   -4.2149   21.0986 F   0  0  0  0  0  0
  -21.5632   -3.4547   25.7750 F   0  0  0  0  0  0
  -30.0267  -13.3251   20.4364 N   0  0  0  0  0  0
  -26.2995  -12.9355   20.3360 N   0  0  0  0  0  0
  -25.9308  -11.6507   20.5765 N   0  0  0  0  0  0
  -22.0482  -12.8225   22.0395 N   0  0  0  0  0  0
  -25.4283  -15.1902   20.4133 N   0  0  0  0  0  0
  -31.8319  -14.6634   20.0867 O   0  0  0  0  0  0
  -21.6640   -6.8885   21.4245 O   0  0  0  0  0  0
  -22.3542  -14.5558   20.6713 O   0  0  0  0  0  0
  -24.6160  -31.8677   23.2083 C   0  0  0  0  0  0
  -25.9045  -32.4812   23.8391 C   0  0  1  0  0  0
  -27.2272  -27.4032   20.0990 C   0  0  0  0  0  0
  -25.5901  -33.8613   24.2320 N   0  0  0  0  0  0
  -23.4056  -30.4922   21.5507 C   0  0  2  0  0  0
  -24.8486  -28.9564   20.1171 C   0  0  0  0  0  0
  -22.7420  -29.4663   22.4975 C   0  0  0  0  0  0
  -18.0278  -28.1374   22.8488 C   0  0  0  0  0  0
  -24.1488  -36.7318   23.2637 C   0  0  0  0  0  0
  -25.9382  -30.8226   21.3662 C   0  0  0  0  0  0
  -26.0135  -29.4561   20.7124 C   0  0  0  0  0  0
  -27.2054  -28.6899   20.6963 C   0  0  0  0  0  0
  -26.0359  -26.9274   19.5007 C   0  0  0  0  0  0
  -24.8576  -27.6928   19.5070 C   0  0  0  0  0  0
  -23.6136  -29.8277   20.1656 C   0  0  0  0  0  0
  -25.4110  -36.3110   24.0332 C   0  0  1  0  0  0
  -20.5874  -28.3672   23.1304 C   0  0  2  0  0  0
  -20.6784  -26.9402   22.5411 C   0  0  0  0  0  0
  -19.5758  -26.6382   21.5209 C   0  0  0  0  0  0
  -18.1929  -26.7922   22.1609 C   0  0  0  0  0  0
  -19.1530  -28.8833   23.2895 C   0  0  0  0  0  0
  -18.9457  -30.1442   23.8899 C   0  0  0  0  0  0
  -17.6464  -30.6579   24.0564 C   0  0  0  0  0  0
  -25.9043  -34.9471   23.5124 C   0  0  0  0  0  0
  -16.5352  -29.9084   23.6329 C   0  0  0  0  0  0
  -16.7272  -28.6501   23.0348 C   0  0  0  0  0  0
  -26.4464  -31.6597   25.0727 C   0  0  0  0  0  0
  -25.3712  -31.3721   26.1470 C   0  0  0  0  0  0
  -27.0305  -30.3033   24.6133 C   0  0  0  0  0  0
  -27.6073  -32.4298   25.7462 C   0  0  0  0  0  0
  -27.5583  -37.1805   24.8457 C   0  0  0  0  0  0
  -21.4145  -29.3044   22.3710 N   0  0  0  0  0  0
  -26.4293  -37.3797   23.9402 N   0  0  0  0  0  0
  -24.6719  -31.0759   22.0996 N   0  0  0  0  0  0
  -23.4180  -28.8195   23.3020 O   0  0  0  0  0  0
  -28.3933  -26.6518   20.1079 O   0  0  0  0  0  0
  -26.5609  -34.8927   22.4691 O   0  0  0  0  0  0
  -23.5342  -32.1448   23.7451 O   0  0  0  0  0  0
  -29.0358  -18.4353   21.4785 C   0  0  0  0  0  0
  -28.7134  -19.8120   21.3334 C   0  0  0  0  0  0
  -29.7717  -20.7556   21.1996 C   0  0  0  0  0  0
  -30.3866  -18.0332   21.4755 C   0  0  0  0  0  0
  -31.0922  -20.2386   21.1480 C   0  0  0  0  0  0
  -26.2098  -19.3283   20.8593 C   0  0  0  0  0  0
  -26.8734  -20.6680   22.8660 C   0  0  0  0  0  0
  -24.8126  -19.9772   20.9101 C   0  0  0  0  0  0
  -25.4680  -21.2950   22.9015 C   0  0  0  0  0  0
  -27.2638  -20.2957   21.4267 C   0  0  1  0  0  0
  -32.2968  -21.1534   21.0020 C   0  0  0  0  0  0
  -30.4684  -24.8755   21.3709 C   0  0  0  0  0  0
  -23.0913  -21.0015   22.3427 C   0  0  0  0  0  0
  -30.8397  -16.6210   21.8881 C   0  0  0  0  0  0
  -29.4955  -22.8995   19.9934 C   0  0  0  0  0  0
  -28.2569  -25.2095   20.1068 C   0  0  0  0  0  0
  -29.6149  -24.4565   20.1579 C   0  0  1  0  0  0
  -31.3834  -18.9234   21.2752 N   0  0  0  0  0  0
  -29.5386  -22.1525   21.2564 N   0  0  0  0  0  0
  -30.1373  -15.4501   21.3323 N   0  0  0  0  0  0
  -24.4462  -20.4063   22.2871 N   0  3  1  0  0  0
  -31.4585  -12.4224   19.1174 H   0  0  0  0  0  0
  -30.3150  -11.3231   19.8313 H   0  0  0  0  0  0
  -29.7309  -11.7826   17.4299 H   0  0  0  0  0  0
  -29.6450  -13.4963   17.7602 H   0  0  0  0  0  0
  -27.8349  -11.3048   18.8333 H   0  0  0  0  0  0
  -27.3552  -12.6185   17.7905 H   0  0  0  0  0  0
  -27.6941  -14.2571   19.5597 H   0  0  0  0  0  0
  -28.6821  -11.9876   21.3516 H   0  0  0  0  0  0
  -28.4504  -13.6307   21.8601 H   0  0  0  0  0  0
  -25.2753   -9.5693   22.4762 H   0  0  0  0  0  0
  -24.0003   -7.4646   22.7479 H   0  0  0  0  0  0
  -21.0844   -8.8768   19.8957 H   0  0  0  0  0  0
  -22.3690  -10.9671   19.6165 H   0  0  0  0  0  0
  -21.2002   -7.6149   23.9719 H   0  0  0  0  0  0
  -21.1485   -6.0532   25.9084 H   0  0  0  0  0  0
  -22.0594   -2.7610   23.2866 H   0  0  0  0  0  0
  -22.4099  -11.9877   22.4766 H   0  0  0  0  0  0
  -21.1101  -13.1250   22.2608 H   0  0  0  0  0  0
  -24.6571  -15.8404   20.5122 H   0  0  0  0  0  0
  -26.2819  -15.6265   20.0888 H   0  0  0  0  0  0
  -26.7114  -32.5514   23.1155 H   0  0  0  0  0  0
  -25.0033  -33.9775   25.0454 H   0  0  0  0  0  0
  -22.6961  -31.3105   21.4132 H   0  0  0  0  0  0
  -23.3756  -35.9640   23.3270 H   0  0  0  0  0  0
  -24.3593  -36.8983   22.2059 H   0  0  0  0  0  0
  -23.7238  -37.6511   23.6684 H   0  0  0  0  0  0
  -26.0569  -31.5847   20.5953 H   0  0  0  0  0  0
  -26.8244  -30.8758   21.9867 H   0  0  0  0  0  0
  -28.1057  -29.0723   21.1567 H   0  0  0  0  0  0
  -25.9876  -25.9662   19.0141 H   0  0  0  0  0  0
  -23.9615  -27.3043   19.0403 H   0  0  0  0  0  0
  -23.7247  -30.6045   19.4084 H   0  0  0  0  0  0
  -22.7352  -29.2526   19.8673 H   0  0  0  0  0  0
  -25.1286  -36.1977   25.0823 H   0  0  0  0  0  0
  -20.9966  -28.3247   24.1428 H   0  0  0  0  0  0
  -20.5708  -26.2268   23.3598 H   0  0  0  0  0  0
  -21.6655  -26.7456   22.1192 H   0  0  0  0  0  0
  -19.6930  -25.6298   21.1237 H   0  0  0  0  0  0
  -19.6696  -27.3194   20.6738 H   0  0  0  0  0  0
  -17.4202  -26.6654   21.4006 H   0  0  0  0  0  0
  -18.0331  -26.0059   22.8993 H   0  0  0  0  0  0
  -19.7938  -30.7253   24.2261 H   0  0  0  0  0  0
  -17.5027  -31.6262   24.5163 H   0  0  0  0  0  0
  -15.5359  -30.2995   23.7654 H   0  0  0  0  0  0
  -15.8665  -28.0844   22.7039 H   0  0  0  0  0  0
  -24.5850  -30.7120   25.7789 H   0  0  0  0  0  0
  -24.8924  -32.2879   26.4944 H   0  0  0  0  0  0
  -25.8030  -30.8845   27.0217 H   0  0  0  0  0  0
  -26.2863  -29.6762   24.1207 H   0  0  0  0  0  0
  -27.4112  -29.7308   25.4606 H   0  0  0  0  0  0
  -27.8678  -30.4358   23.9275 H   0  0  0  0  0  0
  -27.2781  -33.3663   26.1976 H   0  0  0  0  0  0
  -28.3898  -32.6736   25.0262 H   0  0  0  0  0  0
  -28.0706  -31.8433   26.5410 H   0  0  0  0  0  0
  -28.2589  -38.0110   24.7538 H   0  0  0  0  0  0
  -28.1104  -36.2653   24.6265 H   0  0  0  0  0  0
  -27.2307  -37.1437   25.8860 H   0  0  0  0  0  0
  -20.9296  -29.8771   21.6939 H   0  0  0  0  0  0
  -26.0188  -38.2877   24.1420 H   0  0  0  0  0  0
  -28.2724  -17.6973   21.6724 H   0  0  0  0  0  0
  -26.4559  -19.0759   19.8272 H   0  0  0  0  0  0
  -26.1945  -18.3907   21.4150 H   0  0  0  0  0  0
  -26.9180  -19.7885   23.5101 H   0  0  0  0  0  0
  -27.5919  -21.3827   23.2699 H   0  0  0  0  0  0
  -24.0703  -19.2714   20.5353 H   0  0  0  0  0  0
  -24.7831  -20.8406   20.2431 H   0  0  0  0  0  0
  -25.4810  -22.2506   22.3743 H   0  0  0  0  0  0
  -25.1928  -21.5159   23.9338 H   0  0  0  0  0  0
  -27.1981  -21.1981   20.8182 H   0  0  0  0  0  0
  -32.3590  -21.5355   19.9833 H   0  0  0  0  0  0
  -33.2277  -20.6320   21.2217 H   0  0  0  0  0  0
  -32.2303  -22.0023   21.6823 H   0  0  0  0  0  0
  -31.4409  -24.3819   21.3574 H   0  0  0  0  0  0
  -29.9763  -24.6366   22.3142 H   0  0  0  0  0  0
  -30.6520  -25.9501   21.3659 H   0  0  0  0  0  0
  -22.3478  -20.3207   21.9272 H   0  0  0  0  0  0
  -23.0470  -21.9339   21.7783 H   0  0  0  0  0  0
  -22.8020  -21.2167   23.3719 H   0  0  0  0  0  0
  -30.7250  -16.5651   22.9706 H   0  0  0  0  0  0
  -31.9160  -16.5375   21.7249 H   0  0  0  0  0  0
  -30.3218  -22.5585   19.3685 H   0  0  0  0  0  0
  -28.5891  -22.6454   19.4411 H   0  0  0  0  0  0
  -27.6327  -24.9019   20.9470 H   0  0  0  0  0  0
  -27.7610  -24.8810   19.1942 H   0  0  0  0  0  0
  -30.1515  -24.7988   19.2719 H   0  0  0  0  0  0
  -30.1871  -22.6110   21.8908 H   0  0  0  0  0  0
  -29.2100  -15.2679   21.6806 H   0  0  0  0  0  0
  -24.4031  -19.5713   22.8532 H   0  0  0  0  0  0
  1 25  1  0  0  0
  1 30  2  0  0  0
  1 90  1  0  0  0
  2  3  1  0  0  0
  2 25  1  0  0  0
  2 92  1  0  0  0
  2 93  1  0  0  0
  3  4  1  0  0  0
  3 94  1  0  0  0
  3 95  1  0  0  0
  4  5  1  0  0  0
  4 96  1  0  0  0
  4 97  1  0  0  0
  5  6  1  0  0  0
  5 26  1  0  0  0
  5 98  1  0  0  0
  6 25  1  0  0  0
  6 99  1  0  0  0
  6100  1  0  0  0
  7  8  2  0  0  0
  7 26  1  0  0  0
  7 29  1  0  0  0
  8  9  1  0  0  0
  8 22  1  0  0  0
  9 10  1  0  0  0
  9 27  2  0  0  0
 10 11  2  0  0  0
 10 15  1  0  0  0
 11 12  1  0  0  0
 11101  1  0  0  0
 12 13  2  0  0  0
 12102  1  0  0  0
 13 14  1  0  0  0
 13 31  1  0  0  0
 14 15  2  0  0  0
 14103  1  0  0  0
 15104  1  0  0  0
 16 17  2  0  0  0
 16 21  1  0  0  0
 16 31  1  0  0  0
 17 18  1  0  0  0
 17105  1  0  0  0
 18 19  2  0  0  0
 18106  1  0  0  0
 19 20  1  0  0  0
 19 24  1  0  0  0
 20 21  2  0  0  0
 20107  1  0  0  0
 21 23  1  0  0  0
 22 28  1  0  0  0
 22 32  2  0  0  0
 26 27  1  0  0  0
 28108  1  0  0  0
 28109  1  0  0  0
 29110  1  0  0  0
 29111  1  0  0  0
 33 34  1  0  0  0
 33 66  1  0  0  0
 33 70  2  0  0  0
 34 36  1  0  0  0
 34 59  1  0  0  0
 34112  1  0  0  0
 35 44  2  0  0  0
 35 45  1  0  0  0
 35 68  1  0  0  0
 36 56  1  0  0  0
 36113  1  0  0  0
 37 39  1  0  0  0
 37 47  1  0  0  0
 37 66  1  0  0  0
 37114  1  0  0  0
 38 43  2  0  0  0
 38 46  1  0  0  0
 38 47  1  0  0  0
 39 64  1  0  0  0
 39 67  2  0  0  0
 40 52  1  0  0  0
 40 53  2  0  0  0
 40 58  1  0  0  0
 41115  1  0  0  0
 41116  1  0  0  0
 41117  1  0  0  0
 41 48  1  0  0  0
 42 43  1  0  0  0
 42 66  1  0  0  0
 42118  1  0  0  0
 42119  1  0  0  0
 43 44  1  0  0  0
 44120  1  0  0  0
 45 46  2  0  0  0
 45121  1  0  0  0
 46122  1  0  0  0
 47123  1  0  0  0
 47124  1  0  0  0
 48 56  1  0  0  0
 48 65  1  0  0  0
 48125  1  0  0  0
 49 50  1  0  0  0
 49 53  1  0  0  0
 49 64  1  0  0  0
 49126  1  0  0  0
 50 51  1  0  0  0
 50127  1  0  0  0
 50128  1  0  0  0
 51 52  1  0  0  0
 51129  1  0  0  0
 51130  1  0  0  0
 52131  1  0  0  0
 52132  1  0  0  0
 53 54  1  0  0  0
 54 55  2  0  0  0
 54133  1  0  0  0
 55 57  1  0  0  0
 55134  1  0  0  0
 56 69  2  0  0  0
 57 58  2  0  0  0
 57135  1  0  0  0
 58136  1  0  0  0
 59 60  1  0  0  0
 59 61  1  0  0  0
 59 62  1  0  0  0
 60137  1  0  0  0
 60138  1  0  0  0
 60139  1  0  0  0
 61140  1  0  0  0
 61141  1  0  0  0
 61142  1  0  0  0
 62143  1  0  0  0
 62144  1  0  0  0
 62145  1  0  0  0
 63 65  1  0  0  0
 63146  1  0  0  0
 63147  1  0  0  0
 63148  1  0  0  0
 64149  1  0  0  0
 65150  1  0  0  0
 68 86  1  0  0  0
 71 72  2  0  0  0
 71 74  1  0  0  0
 71151  1  0  0  0
 72 73  1  0  0  0
 72 80  1  0  0  0
 73 75  2  0  0  0
 73 89  1  0  0  0
 74 84  1  0  0  0
 74 88  2  0  0  0
 75 81  1  0  0  0
 75 88  1  0  0  0
 76 78  1  0  0  0
 76 80  1  0  0  0
 76152  1  0  0  0
 76153  1  0  0  0
 77 79  1  0  0  0
 77 80  1  0  0  0
 77154  1  0  0  0
 77155  1  0  0  0
 78 91  1  0  0  0
 78156  1  0  0  0
 78157  1  0  0  0
 79 91  1  0  0  0
 79158  1  0  0  0
 79159  1  0  0  0
 80160  1  0  0  0
 81161  1  0  0  0
 81162  1  0  0  0
 81163  1  0  0  0
 82164  1  0  0  0
 82165  1  0  0  0
 82166  1  0  0  0
 82 87  1  0  0  0
 83167  1  0  0  0
 83168  1  0  0  0
 83169  1  0  0  0
 83 91  1  0  0  0
 84 90  1  0  0  0
 84170  1  0  0  0
 84171  1  0  0  0
 85 87  1  0  0  0
 85 89  1  0  0  0
 85172  1  0  0  0
 85173  1  0  0  0
 86 87  1  0  0  0
 86174  1  0  0  0
 86175  1  0  0  0
 87176  1  0  0  0
 89177  1  0  0  0
 90178  1  0  0  0
 91179  1  0  0  0
M  CHG  1  91   1
M  ISO  4   1 100  68 101  86 101  90 100
M  END
> <chiral flag>
0

> <version>
0

> <s_m_source_file>
/data/baiqing/PycharmProjects/Reinvent-master-3.2/result/LINK_invent/BTK/process_docking_weight1_custom_sum_contain_oxygen_bond_distance_aromatic_linkinvent_7_9_3/rearranged_h_0111.sdf

> <i_m_source_file_index>
34

> <r_mmod_Potential_Energy-OPLS-2005>
-377.104370117188

> <r_mmod_Stretch_Energy-OPLS-2005>
45.8919868469238

> <r_mmod_Bend_Energy-OPLS-2005>
114.645881652832

> <r_mmod_Torsional_Energy-OPLS-2005>
274.472503662109

> <r_mmod_Improper_Torsional_Energy-OPLS-2005>
8.98025226593018

> <r_mmod_Van_der_Waal_Energy-OPLS-2005>
160.408004760742

> <r_mmod_Electrostatic_Energy-OPLS-2005>
-527.333251953125

> <r_mmod_Solvation_Energy-OPLS-2005>
-469.732360839844

> <b_mmod_Minimization_Converged-OPLS-2005>
0

> <r_mmod_RMS_Derivative-OPLS-2005>
1.60646367073059

$$$$
34
                    3D
 Structure written by MMmdl.
172180  0  0  1  0            999 V2000
  -30.7361  -14.4310   20.6327 C   0  0  0  0  0  0
  -30.4192  -12.2889   19.4420 C   0  0  0  0  0  0
  -29.5068  -12.4832   18.2151 C   0  0  0  0  0  0
  -28.0249  -12.3625   18.6204 C   0  0  0  0  0  0
  -27.6616  -13.2106   19.8696 C   0  0  2  0  0  0
  -28.6891  -12.9932   21.0023 C   0  0  0  0  0  0
  -25.2542  -13.8165   20.5627 C   0  0  0  0  0  0
  -24.1809  -13.0416   20.9137 C   0  0  0  0  0  0
  -24.6387  -11.6898   20.8671 C   0  0  0  0  0  0
  -23.9073  -10.4275   21.0349 C   0  0  0  0  0  0
  -24.3630   -9.4204   21.9144 C   0  0  0  0  0  0
  -23.6298   -8.2249   22.0743 C   0  0  0  0  0  0
  -22.4270   -8.0294   21.3545 C   0  0  0  0  0  0
  -21.9887   -9.0262   20.4651 C   0  0  0  0  0  0
  -22.7222  -10.2134   20.3040 C   0  0  0  0  0  0
  -21.6852   -6.0752   22.5299 C   0  0  0  0  0  0
  -21.4014   -6.5651   23.8236 C   0  0  0  0  0  0
  -21.3645   -5.6797   24.9196 C   0  0  0  0  0  0
  -21.6032   -4.3060   24.7226 C   0  0  0  0  0  0
  -21.8812   -3.8160   23.4345 C   0  0  0  0  0  0
  -21.9184   -4.6985   22.3410 C   0  0  0  0  0  0
  -22.7860  -13.5237   21.1855 C   0  0  0  0  0  0
  -22.1659   -4.2170   21.0996 F   0  0  0  0  0  0
  -21.5608   -3.4546   25.7736 F   0  0  0  0  0  0
  -30.0360  -13.2762   20.4649 N   0  0  0  0  0  0
  -26.2994  -12.9352   20.3282 N   0  0  0  0  0  0
  -25.9303  -11.6505   20.5668 N   0  0  0  0  0  0
  -22.0509  -12.8217   22.0411 N   0  0  0  0  0  0
  -25.4181  -15.1885   20.4126 N   0  0  0  0  0  0
  -31.8096  -14.6643   20.0714 O   0  0  0  0  0  0
  -21.6631   -6.8895   21.4265 O   0  0  0  0  0  0
  -22.3547  -14.5569   20.6765 O   0  0  0  0  0  0
  -24.6134  -31.8659   23.2089 C   0  0  0  0  0  0
  -25.9031  -32.4820   23.8373 C   0  0  1  0  0  0
  -27.2295  -27.4303   20.0949 C   0  0  0  0  0  0
  -25.5885  -33.8617   24.2315 N   0  0  0  0  0  0
  -23.4023  -30.4892   21.5493 C   0  0  2  0  0  0
  -24.8490  -28.9563   20.1113 C   0  0  0  0  0  0
  -22.7418  -29.4636   22.4991 C   0  0  0  0  0  0
  -18.0270  -28.1375   22.8488 C   0  0  0  0  0  0
  -24.1480  -36.7331   23.2639 C   0  0  0  0  0  0
  -25.9281  -30.8321   21.3590 C   0  0  0  0  0  0
  -26.0060  -29.4618   20.7173 C   0  0  0  0  0  0
  -27.1993  -28.7033   20.7150 C   0  0  0  0  0  0
  -26.0631  -26.9486   19.4679 C   0  0  0  0  0  0
  -24.8712  -27.6972   19.4871 C   0  0  0  0  0  0
  -23.6087  -29.8196   20.1636 C   0  0  0  0  0  0
  -25.4096  -36.3112   24.0335 C   0  0  1  0  0  0
  -20.5863  -28.3652   23.1324 C   0  0  2  0  0  0
  -20.6769  -26.9392   22.5411 C   0  0  0  0  0  0
  -19.5749  -26.6386   21.5201 C   0  0  0  0  0  0
  -18.1925  -26.7921   22.1621 C   0  0  0  0  0  0
  -19.1520  -28.8825   23.2906 C   0  0  0  0  0  0
  -18.9450  -30.1432   23.8903 C   0  0  0  0  0  0
  -17.6454  -30.6576   24.0563 C   0  0  0  0  0  0
  -25.9017  -34.9475   23.5128 C   0  0  0  0  0  0
  -16.5346  -29.9074   23.6332 C   0  0  0  0  0  0
  -16.7259  -28.6502   23.0337 C   0  0  0  0  0  0
  -26.4470  -31.6589   25.0694 C   0  0  0  0  0  0
  -25.3747  -31.3694   26.1467 C   0  0  0  0  0  0
  -27.0276  -30.3026   24.6026 C   0  0  0  0  0  0
  -27.6057  -32.4286   25.7455 C   0  0  0  0  0  0
  -27.5575  -37.1819   24.8467 C   0  0  0  0  0  0
  -21.4142  -29.3014   22.3735 N   0  0  0  0  0  0
  -26.4291  -37.3789   23.9407 N   0  0  0  0  0  0
  -24.6667  -31.0782   22.0975 N   0  0  0  0  0  0
  -23.4189  -28.8175   23.3029 O   0  0  0  0  0  0
  -28.3560  -26.6347   20.0546 O   0  0  0  0  0  0
  -26.5592  -34.8933   22.4691 O   0  0  0  0  0  0
  -23.5337  -32.1408   23.7493 O   0  0  0  0  0  0
  -30.5650  -21.5454   20.4823 C   0  0  0  0  0  0
  -28.3255  -18.7194   19.3215 C   0  0  0  0  0  0
  -28.6740  -17.6660   20.3703 C   0  0  0  0  0  0
  -28.6242  -20.1532   19.7913 C   0  0  0  0  0  0
  -30.4890  -19.2024   21.2279 C   0  0  0  0  0  0
  -30.1615  -17.7768   20.7167 C   0  0  2  0  0  0
  -26.2599  -24.8528   22.4670 C   0  0  0  0  0  0
  -30.3770  -23.5324   18.9088 C   0  0  0  0  0  0
  -30.6405  -16.6975   21.7266 C   0  0  0  0  0  0
  -27.3298  -24.2143   21.5704 C   0  0  0  0  0  0
  -29.9122  -23.8323   21.4109 C   0  0  0  0  0  0
  -28.9281  -26.2935   21.3232 C   0  0  0  0  0  0
  -29.8061  -22.8740   20.1791 C   0  0  2  0  0  0
  -28.7451  -24.8077   21.7640 C   0  0  1  0  0  0
  -29.9416  -20.3338   20.4315 N   0  0  0  0  0  0
  -30.1584  -15.3427   21.4292 N   0  0  0  0  0  0
  -31.7410  -21.6439   20.8500 O   0  0  0  0  0  0
  -31.4709  -12.3643   19.1589 H   0  0  0  0  0  0
  -30.2968  -11.2851   19.8483 H   0  0  0  0  0  0
  -29.7493  -11.7374   17.4541 H   0  0  0  0  0  0
  -29.6943  -13.4556   17.7586 H   0  0  0  0  0  0
  -27.8229  -11.3108   18.8264 H   0  0  0  0  0  0
  -27.3918  -12.6313   17.7745 H   0  0  0  0  0  0
  -27.7075  -14.2581   19.5691 H   0  0  0  0  0  0
  -28.6381  -11.9627   21.3560 H   0  0  0  0  0  0
  -28.4307  -13.6007   21.8714 H   0  0  0  0  0  0
  -25.2778   -9.5694   22.4723 H   0  0  0  0  0  0
  -24.0005   -7.4641   22.7465 H   0  0  0  0  0  0
  -21.0790   -8.8780   19.8989 H   0  0  0  0  0  0
  -22.3638  -10.9680   19.6173 H   0  0  0  0  0  0
  -21.2032   -7.6164   23.9742 H   0  0  0  0  0  0
  -21.1459   -6.0535   25.9094 H   0  0  0  0  0  0
  -22.0593   -2.7630   23.2848 H   0  0  0  0  0  0
  -22.4115  -11.9892   22.4823 H   0  0  0  0  0  0
  -21.1151  -13.1284   22.2620 H   0  0  0  0  0  0
  -24.6451  -15.8304   20.5525 H   0  0  0  0  0  0
  -26.2642  -15.6476   20.1013 H   0  0  0  0  0  0
  -26.7095  -32.5546   23.1137 H   0  0  0  0  0  0
  -25.0036  -33.9763   25.0465 H   0  0  0  0  0  0
  -22.6896  -31.3039   21.4083 H   0  0  0  0  0  0
  -23.3727  -35.9684   23.3325 H   0  0  0  0  0  0
  -24.3572  -36.8927   22.2051 H   0  0  0  0  0  0
  -23.7264  -37.6557   23.6635 H   0  0  0  0  0  0
  -26.0271  -31.5884   20.5790 H   0  0  0  0  0  0
  -26.8196  -30.8969   21.9686 H   0  0  0  0  0  0
  -28.0935  -29.0943   21.1803 H   0  0  0  0  0  0
  -26.0735  -25.9853   18.9765 H   0  0  0  0  0  0
  -23.9815  -27.3074   19.0106 H   0  0  0  0  0  0
  -23.7102  -30.5895   19.3977 H   0  0  0  0  0  0
  -22.7343  -29.2320   19.8768 H   0  0  0  0  0  0
  -25.1278  -36.1981   25.0828 H   0  0  0  0  0  0
  -20.9946  -28.3211   24.1447 H   0  0  0  0  0  0
  -20.5662  -26.2256   23.3583 H   0  0  0  0  0  0
  -21.6648  -26.7433   22.1204 H   0  0  0  0  0  0
  -19.6923  -25.6298   21.1200 H   0  0  0  0  0  0
  -19.6698  -27.3226   20.6740 H   0  0  0  0  0  0
  -17.4198  -26.6658   21.4014 H   0  0  0  0  0  0
  -18.0352  -26.0045   22.8994 H   0  0  0  0  0  0
  -19.7922  -30.7245   24.2282 H   0  0  0  0  0  0
  -17.5005  -31.6259   24.5160 H   0  0  0  0  0  0
  -15.5346  -30.2980   23.7626 H   0  0  0  0  0  0
  -15.8671  -28.0813   22.7041 H   0  0  0  0  0  0
  -24.5937  -30.7008   25.7836 H   0  0  0  0  0  0
  -24.8920  -32.2844   26.4900 H   0  0  0  0  0  0
  -25.8127  -30.8903   27.0231 H   0  0  0  0  0  0
  -26.2790  -29.6814   24.1092 H   0  0  0  0  0  0
  -27.4086  -29.7236   25.4450 H   0  0  0  0  0  0
  -27.8607  -30.4371   23.9123 H   0  0  0  0  0  0
  -27.2688  -33.3583   26.2049 H   0  0  0  0  0  0
  -28.3855  -32.6842   25.0267 H   0  0  0  0  0  0
  -28.0725  -31.8386   26.5356 H   0  0  0  0  0  0
  -28.2610  -38.0098   24.7484 H   0  0  0  0  0  0
  -28.1043  -36.2626   24.6310 H   0  0  0  0  0  0
  -27.2292  -37.1511   25.8872 H   0  0  0  0  0  0
  -20.9306  -29.8732   21.6953 H   0  0  0  0  0  0
  -26.0188  -38.2869   24.1402 H   0  0  0  0  0  0
  -27.2714  -18.6332   19.0511 H   0  0  0  0  0  0
  -28.8911  -18.5123   18.4120 H   0  0  0  0  0  0
  -28.4493  -16.6799   19.9655 H   0  0  0  0  0  0
  -28.0573  -17.7849   21.2624 H   0  0  0  0  0  0
  -27.8510  -20.4826   20.4864 H   0  0  0  0  0  0
  -28.5506  -20.7916   18.9090 H   0  0  0  0  0  0
  -31.5740  -19.2675   21.3151 H   0  0  0  0  0  0
  -30.1072  -19.3190   22.2447 H   0  0  0  0  0  0
  -30.7261  -17.6245   19.7942 H   0  0  0  0  0  0
  -25.2962  -24.3608   22.3242 H   0  0  0  0  0  0
  -26.1258  -25.9099   22.2473 H   0  0  0  0  0  0
  -26.5228  -24.7554   23.5197 H   0  0  0  0  0  0
  -30.1574  -22.9291   18.0268 H   0  0  0  0  0  0
  -31.4615  -23.6372   18.9640 H   0  0  0  0  0  0
  -29.9543  -24.5247   18.7449 H   0  0  0  0  0  0
  -30.2827  -16.9515   22.7261 H   0  0  0  0  0  0
  -31.7319  -16.7043   21.7857 H   0  0  0  0  0  0
  -27.0343  -24.2846   20.5238 H   0  0  0  0  0  0
  -27.3510  -23.1506   21.8070 H   0  0  0  0  0  0
  -30.8529  -24.3835   21.3657 H   0  0  0  0  0  0
  -30.0275  -23.2035   22.2969 H   0  0  0  0  0  0
  -29.9904  -26.5374   21.2919 H   0  0  0  0  0  0
  -28.5216  -26.9291   22.1116 H   0  0  0  0  0  0
  -28.7546  -22.6694   19.9988 H   0  0  0  0  0  0
  -28.8511  -24.8810   22.8490 H   0  0  0  0  0  0
  -29.2848  -15.0762   21.8573 H   0  0  0  0  0  0
  1 25  1  0  0  0
  1 30  2  0  0  0
  1 86  1  0  0  0
  2  3  1  0  0  0
  2 25  1  0  0  0
  2 88  1  0  0  0
  2 89  1  0  0  0
  3  4  1  0  0  0
  3 90  1  0  0  0
  3 91  1  0  0  0
  4  5  1  0  0  0
  4 92  1  0  0  0
  4 93  1  0  0  0
  5  6  1  0  0  0
  5 26  1  0  0  0
  5 94  1  0  0  0
  6 25  1  0  0  0
  6 95  1  0  0  0
  6 96  1  0  0  0
  7  8  2  0  0  0
  7 26  1  0  0  0
  7 29  1  0  0  0
  8  9  1  0  0  0
  8 22  1  0  0  0
  9 10  1  0  0  0
  9 27  2  0  0  0
 10 11  2  0  0  0
 10 15  1  0  0  0
 11 12  1  0  0  0
 11 97  1  0  0  0
 12 13  2  0  0  0
 12 98  1  0  0  0
 13 14  1  0  0  0
 13 31  1  0  0  0
 14 15  2  0  0  0
 14 99  1  0  0  0
 15100  1  0  0  0
 16 17  2  0  0  0
 16 21  1  0  0  0
 16 31  1  0  0  0
 17 18  1  0  0  0
 17101  1  0  0  0
 18 19  2  0  0  0
 18102  1  0  0  0
 19 20  1  0  0  0
 19 24  1  0  0  0
 20 21  2  0  0  0
 20103  1  0  0  0
 21 23  1  0  0  0
 22 28  1  0  0  0
 22 32  2  0  0  0
 26 27  1  0  0  0
 28104  1  0  0  0
 28105  1  0  0  0
 29106  1  0  0  0
 29107  1  0  0  0
 33 34  1  0  0  0
 33 66  1  0  0  0
 33 70  2  0  0  0
 34 36  1  0  0  0
 34 59  1  0  0  0
 34108  1  0  0  0
 35 44  2  0  0  0
 35 45  1  0  0  0
 35 68  1  0  0  0
 36 56  1  0  0  0
 36109  1  0  0  0
 37 39  1  0  0  0
 37 47  1  0  0  0
 37 66  1  0  0  0
 37110  1  0  0  0
 38 43  2  0  0  0
 38 46  1  0  0  0
 38 47  1  0  0  0
 39 64  1  0  0  0
 39 67  2  0  0  0
 40 52  1  0  0  0
 40 53  2  0  0  0
 40 58  1  0  0  0
 41111  1  0  0  0
 41112  1  0  0  0
 41113  1  0  0  0
 41 48  1  0  0  0
 42 43  1  0  0  0
 42 66  1  0  0  0
 42114  1  0  0  0
 42115  1  0  0  0
 43 44  1  0  0  0
 44116  1  0  0  0
 45 46  2  0  0  0
 45117  1  0  0  0
 46118  1  0  0  0
 47119  1  0  0  0
 47120  1  0  0  0
 48 56  1  0  0  0
 48 65  1  0  0  0
 48121  1  0  0  0
 49 50  1  0  0  0
 49 53  1  0  0  0
 49 64  1  0  0  0
 49122  1  0  0  0
 50 51  1  0  0  0
 50123  1  0  0  0
 50124  1  0  0  0
 51 52  1  0  0  0
 51125  1  0  0  0
 51126  1  0  0  0
 52127  1  0  0  0
 52128  1  0  0  0
 53 54  1  0  0  0
 54 55  2  0  0  0
 54129  1  0  0  0
 55 57  1  0  0  0
 55130  1  0  0  0
 56 69  2  0  0  0
 57 58  2  0  0  0
 57131  1  0  0  0
 58132  1  0  0  0
 59 60  1  0  0  0
 59 61  1  0  0  0
 59 62  1  0  0  0
 60133  1  0  0  0
 60134  1  0  0  0
 60135  1  0  0  0
 61136  1  0  0  0
 61137  1  0  0  0
 61138  1  0  0  0
 62139  1  0  0  0
 62140  1  0  0  0
 62141  1  0  0  0
 63 65  1  0  0  0
 63142  1  0  0  0
 63143  1  0  0  0
 63144  1  0  0  0
 64145  1  0  0  0
 65146  1  0  0  0
 68 82  1  0  0  0
 71 83  1  0  0  0
 71 85  1  0  0  0
 71 87  2  0  0  0
 72 73  1  0  0  0
 72 74  1  0  0  0
 72147  1  0  0  0
 72148  1  0  0  0
 73 76  1  0  0  0
 73149  1  0  0  0
 73150  1  0  0  0
 74 85  1  0  0  0
 74151  1  0  0  0
 74152  1  0  0  0
 75 76  1  0  0  0
 75 85  1  0  0  0
 75153  1  0  0  0
 75154  1  0  0  0
 76 79  1  0  0  0
 76155  1  0  0  0
 77 80  1  0  0  0
 77156  1  0  0  0
 77157  1  0  0  0
 77158  1  0  0  0
 78159  1  0  0  0
 78160  1  0  0  0
 78161  1  0  0  0
 78 83  1  0  0  0
 79 86  1  0  0  0
 79162  1  0  0  0
 79163  1  0  0  0
 80164  1  0  0  0
 80165  1  0  0  0
 80 84  1  0  0  0
 81 83  1  0  0  0
 81 84  1  0  0  0
 81166  1  0  0  0
 81167  1  0  0  0
 82 84  1  0  0  0
 82168  1  0  0  0
 82169  1  0  0  0
 83170  1  0  0  0
 84171  1  0  0  0
 86172  1  0  0  0
M  ISO  4   1 100  68 101  82 101  86 100
M  END
> <chiral flag>
0

> <version>
0

> <s_m_source_file>
/data/baiqing/PycharmProjects/Reinvent-master-3.2/result/LINK_invent/BTK/process_docking_weight1_custom_sum_contain_oxygen_bond_distance_aromatic_linkinvent_7_9_3/rearranged_h_0111.sdf

> <i_m_source_file_index>
35

> <r_mmod_Potential_Energy-OPLS-2005>
54.4590530395508

> <r_mmod_Stretch_Energy-OPLS-2005>
43.8224716186523

> <r_mmod_Bend_Energy-OPLS-2005>
125.299156188965

> <r_mmod_Torsional_Energy-OPLS-2005>
319.069519042969

> <r_mmod_Improper_Torsional_Energy-OPLS-2005>
2.57520318031311

> <r_mmod_Van_der_Waal_Energy-OPLS-2005>
137.494140625

> <r_mmod_Electrostatic_Energy-OPLS-2005>
-364.601806640625

> <r_mmod_Solvation_Energy-OPLS-2005>
-220.093704223633

> <b_mmod_Minimization_Converged-OPLS-2005>
0

> <r_mmod_RMS_Derivative-OPLS-2005>
3.82712960243225

$$$$
35
                    3D
 Structure written by MMmdl.
165173  0  0  1  0            999 V2000
  -30.6695  -14.4465   20.5706 C   0  0  0  0  0  0
  -30.4359  -12.2848   19.4173 C   0  0  0  0  0  0
  -29.5036  -12.5057   18.2039 C   0  0  0  0  0  0
  -28.0207  -12.3710   18.6107 C   0  0  0  0  0  0
  -27.6707  -13.1912   19.8812 C   0  0  2  0  0  0
  -28.7091  -12.9252   20.9971 C   0  0  0  0  0  0
  -25.2630  -13.8119   20.5635 C   0  0  0  0  0  0
  -24.1857  -13.0432   20.9147 C   0  0  0  0  0  0
  -24.6392  -11.6883   20.8718 C   0  0  0  0  0  0
  -23.9047  -10.4288   21.0407 C   0  0  0  0  0  0
  -24.3600   -9.4201   21.9186 C   0  0  0  0  0  0
  -23.6277   -8.2240   22.0767 C   0  0  0  0  0  0
  -22.4254   -8.0287   21.3554 C   0  0  0  0  0  0
  -21.9889   -9.0258   20.4653 C   0  0  0  0  0  0
  -22.7225  -10.2134   20.3052 C   0  0  0  0  0  0
  -21.6850   -6.0731   22.5273 C   0  0  0  0  0  0
  -21.4023   -6.5634   23.8210 C   0  0  0  0  0  0
  -21.3656   -5.6787   24.9172 C   0  0  0  0  0  0
  -21.6031   -4.3048   24.7220 C   0  0  0  0  0  0
  -21.8819   -3.8143   23.4345 C   0  0  0  0  0  0
  -21.9195   -4.6959   22.3401 C   0  0  0  0  0  0
  -22.7891  -13.5256   21.1808 C   0  0  0  0  0  0
  -22.1660   -4.2143   21.0982 F   0  0  0  0  0  0
  -21.5629   -3.4533   25.7735 F   0  0  0  0  0  0
  -30.0488  -13.2421   20.4627 N   0  0  0  0  0  0
  -26.3053  -12.9257   20.3350 N   0  0  0  0  0  0
  -25.9312  -11.6428   20.5756 N   0  0  0  0  0  0
  -22.0497  -12.8272   22.0362 N   0  0  0  0  0  0
  -25.4379  -15.1840   20.4000 N   0  0  0  0  0  0
  -31.7591  -14.7114   20.0530 O   0  0  0  0  0  0
  -21.6637   -6.8870   21.4237 O   0  0  0  0  0  0
  -22.3573  -14.5555   20.6647 O   0  0  0  0  0  0
  -24.6132  -31.8688   23.2079 C   0  0  0  0  0  0
  -25.9028  -32.4834   23.8375 C   0  0  1  0  0  0
  -27.2484  -27.4415   20.0943 C   0  0  0  0  0  0
  -25.5872  -33.8630   24.2316 N   0  0  0  0  0  0
  -23.4038  -30.4893   21.5493 C   0  0  2  0  0  0
  -24.8553  -28.9491   20.1216 C   0  0  0  0  0  0
  -22.7415  -29.4664   22.5001 C   0  0  0  0  0  0
  -18.0276  -28.1383   22.8517 C   0  0  0  0  0  0
  -24.1484  -36.7323   23.2639 C   0  0  0  0  0  0
  -25.9320  -30.8327   21.3639 C   0  0  0  0  0  0
  -26.0144  -29.4657   20.7149 C   0  0  0  0  0  0
  -27.2171  -28.7200   20.6962 C   0  0  0  0  0  0
  -26.0740  -26.9352   19.4995 C   0  0  0  0  0  0
  -24.8785  -27.6813   19.5122 C   0  0  0  0  0  0
  -23.6148  -29.8139   20.1671 C   0  0  0  0  0  0
  -25.4106  -36.3137   24.0342 C   0  0  1  0  0  0
  -20.5863  -28.3678   23.1324 C   0  0  2  0  0  0
  -20.6764  -26.9419   22.5418 C   0  0  0  0  0  0
  -19.5733  -26.6405   21.5216 C   0  0  0  0  0  0
  -18.1914  -26.7930   22.1634 C   0  0  0  0  0  0
  -19.1523  -28.8844   23.2913 C   0  0  0  0  0  0
  -18.9442  -30.1444   23.8933 C   0  0  0  0  0  0
  -17.6445  -30.6590   24.0579 C   0  0  0  0  0  0
  -25.9028  -34.9488   23.5136 C   0  0  0  0  0  0
  -16.5342  -29.9097   23.6332 C   0  0  0  0  0  0
  -16.7262  -28.6506   23.0374 C   0  0  0  0  0  0
  -26.4443  -31.6609   25.0710 C   0  0  0  0  0  0
  -25.3706  -31.3714   26.1470 C   0  0  0  0  0  0
  -27.0268  -30.3049   24.6088 C   0  0  0  0  0  0
  -27.6031  -32.4323   25.7462 C   0  0  0  0  0  0
  -27.5592  -37.1817   24.8466 C   0  0  0  0  0  0
  -21.4144  -29.3039   22.3718 N   0  0  0  0  0  0
  -26.4303  -37.3818   23.9410 N   0  0  0  0  0  0
  -24.6674  -31.0774   22.0997 N   0  0  0  0  0  0
  -23.4189  -28.8223   23.3051 O   0  0  0  0  0  0
  -28.4064  -26.6926   20.0538 O   0  0  0  0  0  0
  -26.5616  -34.8942   22.4712 O   0  0  0  0  0  0
  -23.5312  -32.1447   23.7463 O   0  0  0  0  0  0
  -29.3230  -21.1706   19.5804 C   0  0  0  0  0  0
  -30.0644  -21.6213   21.9485 C   0  0  0  0  0  0
  -29.7872  -19.6814   19.6867 C   0  0  0  0  0  0
  -30.7869  -20.2469   21.8748 C   0  0  0  0  0  0
  -28.8942  -21.7452   20.9471 C   0  0  1  0  0  0
  -29.3882  -25.9895   22.1144 C   0  0  0  0  0  0
  -29.7072  -16.7596   20.5855 C   0  0  0  0  0  0
  -30.5701  -17.8465   21.2682 C   0  0  0  0  0  0
  -28.9132  -24.2558   20.3029 C   0  0  0  0  0  0
  -28.4489  -25.5845   20.9703 C   0  0  2  0  0  0
  -29.8945  -15.3992   21.1051 N   0  0  0  0  0  0
  -30.0294  -19.2314   21.0942 N   0  3  2  0  0  0
  -28.2410  -23.0873   20.9380 N   0  3  0  0  0  0
  -31.4825  -12.3923   19.1246 H   0  0  0  0  0  0
  -30.3371  -11.2647   19.7916 H   0  0  0  0  0  0
  -29.7379  -11.7908   17.4136 H   0  0  0  0  0  0
  -29.6786  -13.4957   17.7800 H   0  0  0  0  0  0
  -27.8195  -11.3134   18.7871 H   0  0  0  0  0  0
  -27.3742  -12.6676   17.7836 H   0  0  0  0  0  0
  -27.7296  -14.2448   19.6068 H   0  0  0  0  0  0
  -28.6768  -11.8755   21.2929 H   0  0  0  0  0  0
  -28.4688  -13.4843   21.9021 H   0  0  0  0  0  0
  -25.2750   -9.5679   22.4750 H   0  0  0  0  0  0
  -23.9987   -7.4627   22.7479 H   0  0  0  0  0  0
  -21.0823   -8.8768   19.8959 H   0  0  0  0  0  0
  -22.3684  -10.9666   19.6151 H   0  0  0  0  0  0
  -21.2023   -7.6139   23.9711 H   0  0  0  0  0  0
  -21.1474   -6.0517   25.9071 H   0  0  0  0  0  0
  -22.0604   -2.7607   23.2846 H   0  0  0  0  0  0
  -22.4103  -11.9955   22.4781 H   0  0  0  0  0  0
  -21.1113  -13.1327   22.2532 H   0  0  0  0  0  0
  -24.6654  -15.8367   20.4777 H   0  0  0  0  0  0
  -26.2750  -15.6060   20.0211 H   0  0  0  0  0  0
  -26.7117  -32.5566   23.1151 H   0  0  0  0  0  0
  -24.9957  -33.9778   25.0416 H   0  0  0  0  0  0
  -22.6924  -31.3042   21.4049 H   0  0  0  0  0  0
  -23.3746  -35.9656   23.3315 H   0  0  0  0  0  0
  -24.3574  -36.8927   22.2051 H   0  0  0  0  0  0
  -23.7221  -37.6524   23.6643 H   0  0  0  0  0  0
  -26.0436  -31.5956   20.5919 H   0  0  0  0  0  0
  -26.8199  -30.8895   21.9830 H   0  0  0  0  0  0
  -28.1178  -29.1198   21.1417 H   0  0  0  0  0  0
  -26.0898  -25.9689   19.0160 H   0  0  0  0  0  0
  -23.9882  -27.2770   19.0509 H   0  0  0  0  0  0
  -23.7199  -30.5846   19.4023 H   0  0  0  0  0  0
  -22.7408  -29.2289   19.8759 H   0  0  0  0  0  0
  -25.1276  -36.2026   25.0838 H   0  0  0  0  0  0
  -20.9958  -28.3250   24.1444 H   0  0  0  0  0  0
  -20.5665  -26.2290   23.3605 H   0  0  0  0  0  0
  -21.6629  -26.7466   22.1200 H   0  0  0  0  0  0
  -19.6891  -25.6320   21.1230 H   0  0  0  0  0  0
  -19.6656  -27.3226   20.6752 H   0  0  0  0  0  0
  -17.4182  -26.6699   21.4045 H   0  0  0  0  0  0
  -18.0319  -26.0038   22.8999 H   0  0  0  0  0  0
  -19.7909  -30.7253   24.2332 H   0  0  0  0  0  0
  -17.4997  -31.6276   24.5160 H   0  0  0  0  0  0
  -15.5337  -30.3021   23.7611 H   0  0  0  0  0  0
  -15.8665  -28.0827   22.7106 H   0  0  0  0  0  0
  -24.5873  -30.7077   25.7795 H   0  0  0  0  0  0
  -24.8892  -32.2868   26.4920 H   0  0  0  0  0  0
  -25.8037  -30.8868   27.0234 H   0  0  0  0  0  0
  -26.2823  -29.6832   24.1108 H   0  0  0  0  0  0
  -27.3994  -29.7271   25.4552 H   0  0  0  0  0  0
  -27.8673  -30.4344   23.9268 H   0  0  0  0  0  0
  -27.2671  -33.3615   26.2074 H   0  0  0  0  0  0
  -28.3809  -32.6921   25.0273 H   0  0  0  0  0  0
  -28.0731  -31.8421   26.5334 H   0  0  0  0  0  0
  -28.2619  -38.0115   24.7559 H   0  0  0  0  0  0
  -28.1092  -36.2659   24.6246 H   0  0  0  0  0  0
  -27.2325  -37.1405   25.8875 H   0  0  0  0  0  0
  -20.9308  -29.8754   21.6933 H   0  0  0  0  0  0
  -26.0201  -38.2904   24.1412 H   0  0  0  0  0  0
  -28.5049  -21.2434   18.8625 H   0  0  0  0  0  0
  -30.1349  -21.7717   19.1705 H   0  0  0  0  0  0
  -30.8046  -22.4043   21.7794 H   0  0  0  0  0  0
  -29.6893  -21.7797   22.9611 H   0  0  0  0  0  0
  -30.6923  -19.5385   19.0945 H   0  0  0  0  0  0
  -29.0293  -19.0441   19.2307 H   0  0  0  0  0  0
  -30.9648  -19.8842   22.8884 H   0  0  0  0  0  0
  -31.7711  -20.3649   21.4181 H   0  0  0  0  0  0
  -28.0951  -21.0996   21.3167 H   0  0  0  0  0  0
  -29.5180  -25.1795   22.8327 H   0  0  0  0  0  0
  -28.9983  -26.8520   22.6531 H   0  0  0  0  0  0
  -30.3751  -26.2540   21.7354 H   0  0  0  0  0  0
  -29.8851  -16.7670   19.5076 H   0  0  0  0  0  0
  -28.6478  -16.9841   20.7193 H   0  0  0  0  0  0
  -31.5963  -17.7954   20.9008 H   0  0  0  0  0  0
  -30.6143  -17.6333   22.3385 H   0  0  0  0  0  0
  -29.9989  -24.1617   20.3450 H   0  0  0  0  0  0
  -28.6466  -24.2578   19.2456 H   0  0  0  0  0  0
  -27.4505  -25.4248   21.3862 H   0  0  0  0  0  0
  -29.1077  -15.0335   21.6226 H   0  0  0  0  0  0
  -29.1222  -19.1797   21.5329 H   0  0  0  0  0  0
  -28.0494  -23.3206   21.9005 H   0  0  0  0  0  0
  -27.3368  -22.9867   20.5014 H   0  0  0  0  0  0
  1 25  1  0  0  0
  1 30  2  0  0  0
  1 81  1  0  0  0
  2  3  1  0  0  0
  2 25  1  0  0  0
  2 84  1  0  0  0
  2 85  1  0  0  0
  3  4  1  0  0  0
  3 86  1  0  0  0
  3 87  1  0  0  0
  4  5  1  0  0  0
  4 88  1  0  0  0
  4 89  1  0  0  0
  5  6  1  0  0  0
  5 26  1  0  0  0
  5 90  1  0  0  0
  6 25  1  0  0  0
  6 91  1  0  0  0
  6 92  1  0  0  0
  7  8  2  0  0  0
  7 26  1  0  0  0
  7 29  1  0  0  0
  8  9  1  0  0  0
  8 22  1  0  0  0
  9 10  1  0  0  0
  9 27  2  0  0  0
 10 11  2  0  0  0
 10 15  1  0  0  0
 11 12  1  0  0  0
 11 93  1  0  0  0
 12 13  2  0  0  0
 12 94  1  0  0  0
 13 14  1  0  0  0
 13 31  1  0  0  0
 14 15  2  0  0  0
 14 95  1  0  0  0
 15 96  1  0  0  0
 16 17  2  0  0  0
 16 21  1  0  0  0
 16 31  1  0  0  0
 17 18  1  0  0  0
 17 97  1  0  0  0
 18 19  2  0  0  0
 18 98  1  0  0  0
 19 20  1  0  0  0
 19 24  1  0  0  0
 20 21  2  0  0  0
 20 99  1  0  0  0
 21 23  1  0  0  0
 22 28  1  0  0  0
 22 32  2  0  0  0
 26 27  1  0  0  0
 28100  1  0  0  0
 28101  1  0  0  0
 29102  1  0  0  0
 29103  1  0  0  0
 33 34  1  0  0  0
 33 66  1  0  0  0
 33 70  2  0  0  0
 34 36  1  0  0  0
 34 59  1  0  0  0
 34104  1  0  0  0
 35 44  2  0  0  0
 35 45  1  0  0  0
 35 68  1  0  0  0
 36 56  1  0  0  0
 36105  1  0  0  0
 37 39  1  0  0  0
 37 47  1  0  0  0
 37 66  1  0  0  0
 37106  1  0  0  0
 38 43  2  0  0  0
 38 46  1  0  0  0
 38 47  1  0  0  0
 39 64  1  0  0  0
 39 67  2  0  0  0
 40 52  1  0  0  0
 40 53  2  0  0  0
 40 58  1  0  0  0
 41107  1  0  0  0
 41108  1  0  0  0
 41109  1  0  0  0
 41 48  1  0  0  0
 42 43  1  0  0  0
 42 66  1  0  0  0
 42110  1  0  0  0
 42111  1  0  0  0
 43 44  1  0  0  0
 44112  1  0  0  0
 45 46  2  0  0  0
 45113  1  0  0  0
 46114  1  0  0  0
 47115  1  0  0  0
 47116  1  0  0  0
 48 56  1  0  0  0
 48 65  1  0  0  0
 48117  1  0  0  0
 49 50  1  0  0  0
 49 53  1  0  0  0
 49 64  1  0  0  0
 49118  1  0  0  0
 50 51  1  0  0  0
 50119  1  0  0  0
 50120  1  0  0  0
 51 52  1  0  0  0
 51121  1  0  0  0
 51122  1  0  0  0
 52123  1  0  0  0
 52124  1  0  0  0
 53 54  1  0  0  0
 54 55  2  0  0  0
 54125  1  0  0  0
 55 57  1  0  0  0
 55126  1  0  0  0
 56 69  2  0  0  0
 57 58  2  0  0  0
 57127  1  0  0  0
 58128  1  0  0  0
 59 60  1  0  0  0
 59 61  1  0  0  0
 59 62  1  0  0  0
 60129  1  0  0  0
 60130  1  0  0  0
 60131  1  0  0  0
 61132  1  0  0  0
 61133  1  0  0  0
 61134  1  0  0  0
 62135  1  0  0  0
 62136  1  0  0  0
 62137  1  0  0  0
 63 65  1  0  0  0
 63138  1  0  0  0
 63139  1  0  0  0
 63140  1  0  0  0
 64141  1  0  0  0
 65142  1  0  0  0
 68 80  1  0  0  0
 71 73  1  0  0  0
 71 75  1  0  0  0
 71143  1  0  0  0
 71144  1  0  0  0
 72 74  1  0  0  0
 72 75  1  0  0  0
 72145  1  0  0  0
 72146  1  0  0  0
 73 82  1  0  0  0
 73147  1  0  0  0
 73148  1  0  0  0
 74 82  1  0  0  0
 74149  1  0  0  0
 74150  1  0  0  0
 75 83  1  0  0  0
 75151  1  0  0  0
 76152  1  0  0  0
 76153  1  0  0  0
 76154  1  0  0  0
 76 80  1  0  0  0
 77 78  1  0  0  0
 77 81  1  0  0  0
 77155  1  0  0  0
 77156  1  0  0  0
 78157  1  0  0  0
 78158  1  0  0  0
 78 82  1  0  0  0
 79 80  1  0  0  0
 79 83  1  0  0  0
 79159  1  0  0  0
 79160  1  0  0  0
 80161  1  0  0  0
 81162  1  0  0  0
 82163  1  0  0  0
 83164  1  0  0  0
 83165  1  0  0  0
M  CHG  2  82   1  83   1
M  ISO  4   1 100  68 101  80 101  81 100
M  END
> <chiral flag>
0

> <version>
0

> <s_m_source_file>
/data/baiqing/PycharmProjects/Reinvent-master-3.2/result/LINK_invent/BTK/process_docking_weight1_custom_sum_contain_oxygen_bond_distance_aromatic_linkinvent_7_9_3/rearranged_h_0111.sdf

> <i_m_source_file_index>
36

> <r_mmod_Potential_Energy-OPLS-2005>
-272.470855712891

> <r_mmod_Stretch_Energy-OPLS-2005>
39.6219444274902

> <r_mmod_Bend_Energy-OPLS-2005>
108.707046508789

> <r_mmod_Torsional_Energy-OPLS-2005>
325.897552490234

> <r_mmod_Improper_Torsional_Energy-OPLS-2005>
7.21663331985474

> <r_mmod_Van_der_Waal_Energy-OPLS-2005>
134.733840942383

> <r_mmod_Electrostatic_Energy-OPLS-2005>
81.2742385864258

> <r_mmod_Solvation_Energy-OPLS-2005>
-980.580932617188

> <b_mmod_Minimization_Converged-OPLS-2005>
0

> <r_mmod_RMS_Derivative-OPLS-2005>
2.51660466194153

$$$$
36
                    3D
 Structure written by MMmdl.
151159  0  0  1  0            999 V2000
  -30.5295  -15.0138   20.3692 C   0  0  0  0  0  0
  -30.4352  -12.6209   19.4976 C   0  0  0  0  0  0
  -29.5248  -12.5435   18.2511 C   0  0  0  0  0  0
  -28.0505  -12.3452   18.6554 C   0  0  0  0  0  0
  -27.6252  -13.2652   19.8307 C   0  0  2  0  0  0
  -28.6727  -13.3171   20.9606 C   0  0  0  0  0  0
  -25.2477  -13.8246   20.5719 C   0  0  0  0  0  0
  -24.1813  -13.0445   20.9229 C   0  0  0  0  0  0
  -24.6437  -11.6929   20.8719 C   0  0  0  0  0  0
  -23.9106  -10.4290   21.0411 C   0  0  0  0  0  0
  -24.3642   -9.4237   21.9211 C   0  0  0  0  0  0
  -23.6317   -8.2268   22.0763 C   0  0  0  0  0  0
  -22.4305   -8.0286   21.3553 C   0  0  0  0  0  0
  -21.9927   -9.0244   20.4656 C   0  0  0  0  0  0
  -22.7259  -10.2129   20.3087 C   0  0  0  0  0  0
  -21.6847   -6.0735   22.5286 C   0  0  0  0  0  0
  -21.4004   -6.5630   23.8206 C   0  0  0  0  0  0
  -21.3695   -5.6786   24.9180 C   0  0  0  0  0  0
  -21.6079   -4.3059   24.7234 C   0  0  0  0  0  0
  -21.8814   -3.8140   23.4338 C   0  0  0  0  0  0
  -21.9196   -4.6948   22.3401 C   0  0  0  0  0  0
  -22.7831  -13.5220   21.1892 C   0  0  0  0  0  0
  -22.1688   -4.2141   21.0973 F   0  0  0  0  0  0
  -21.5646   -3.4550   25.7747 F   0  0  0  0  0  0
  -29.9351  -13.7469   20.3460 N   0  0  0  0  0  0
  -26.2902  -12.9502   20.3227 N   0  0  0  0  0  0
  -25.9396  -11.6609   20.5683 N   0  0  0  0  0  0
  -22.0497  -12.8193   22.0451 N   0  0  0  0  0  0
  -25.4121  -15.1972   20.4115 N   0  0  0  0  0  0
  -31.7465  -15.0431   20.1474 O   0  0  0  0  0  0
  -21.6681   -6.8880   21.4243 O   0  0  0  0  0  0
  -22.3506  -14.5500   20.6710 O   0  0  0  0  0  0
  -24.6489  -31.8404   23.1827 C   0  0  0  0  0  0
  -25.9235  -32.4663   23.8245 C   0  0  1  0  0  0
  -27.2192  -27.0962   20.1357 C   0  0  0  0  0  0
  -25.5981  -33.8476   24.2174 N   0  0  0  0  0  0
  -23.4535  -30.4557   21.5350 C   0  0  2  0  0  0
  -24.9024  -28.8736   20.1140 C   0  0  0  0  0  0
  -22.7592  -29.4523   22.4918 C   0  0  0  0  0  0
  -18.0320  -28.1374   22.8489 C   0  0  0  0  0  0
  -24.1502  -36.7238   23.2644 C   0  0  0  0  0  0
  -26.0152  -30.7006   21.3878 C   0  0  0  0  0  0
  -26.0855  -29.3073   20.7267 C   0  0  0  0  0  0
  -27.2433  -28.4341   20.7202 C   0  0  0  0  0  0
  -26.0092  -26.7736   19.4874 C   0  0  0  0  0  0
  -24.8796  -27.6211   19.4807 C   0  0  0  0  0  0
  -23.6802  -29.7830   20.1550 C   0  0  0  0  0  0
  -25.4135  -36.3029   24.0323 C   0  0  1  0  0  0
  -20.5927  -28.3719   23.1278 C   0  0  2  0  0  0
  -20.6827  -26.9435   22.5423 C   0  0  0  0  0  0
  -19.5788  -26.6366   21.5243 C   0  0  0  0  0  0
  -18.1959  -26.7919   22.1631 C   0  0  0  0  0  0
  -19.1570  -28.8869   23.2862 C   0  0  0  0  0  0
  -18.9472  -30.1457   23.8885 C   0  0  0  0  0  0
  -17.6463  -30.6569   24.0552 C   0  0  0  0  0  0
  -25.9082  -34.9398   23.5054 C   0  0  0  0  0  0
  -16.5363  -29.9059   23.6323 C   0  0  0  0  0  0
  -16.7299  -28.6465   23.0375 C   0  0  0  0  0  0
  -26.4519  -31.6542   25.0702 C   0  0  0  0  0  0
  -25.3673  -31.3733   26.1375 C   0  0  0  0  0  0
  -27.0405  -30.2962   24.6260 C   0  0  0  0  0  0
  -27.6076  -32.4288   25.7465 C   0  0  0  0  0  0
  -27.5583  -37.1789   24.8463 C   0  0  0  0  0  0
  -21.4281  -29.3032   22.3653 N   0  0  0  0  0  0
  -26.4305  -37.3732   23.9380 N   0  0  0  0  0  0
  -24.7267  -31.0192   22.0906 N   0  0  0  0  0  0
  -23.4210  -28.8092   23.3117 O   0  0  0  0  0  0
  -28.2637  -26.0896   20.1821 O   0  0  0  0  0  0
  -26.5671  -34.8905   22.4633 O   0  0  0  0  0  0
  -23.5583  -32.1334   23.6975 O   0  0  0  0  0  0
  -28.1173  -19.5256   19.6101 C   0  0  0  0  0  0
  -29.8171  -20.5737   20.4318 C   0  0  0  0  0  0
  -29.4144  -19.2308   20.1625 C   0  0  0  0  0  0
  -27.8307  -20.8949   19.5638 C   0  0  0  0  0  0
  -26.5976  -21.5691   19.0441 C   0  0  0  0  0  0
  -30.2491  -17.7696   20.3538 C   0  0  0  0  0  0
  -29.0981  -23.2461   20.2116 C   0  0  0  0  0  0
  -28.0129  -24.5449   19.9566 C   0  0  0  0  0  0
  -28.8938  -21.6480   20.0818 N   0  0  0  0  0  0
  -29.7806  -16.2431   20.4194 N   0  0  0  0  0  0
  -31.4692  -12.7782   19.1855 H   0  0  0  0  0  0
  -30.4262  -11.6748   20.0424 H   0  0  0  0  0  0
  -29.8408  -11.7363   17.5915 H   0  0  0  0  0  0
  -29.6316  -13.4674   17.6782 H   0  0  0  0  0  0
  -27.9270  -11.2989   18.9395 H   0  0  0  0  0  0
  -27.4003  -12.5135   17.7985 H   0  0  0  0  0  0
  -27.5733  -14.2669   19.4020 H   0  0  0  0  0  0
  -28.7741  -12.3434   21.4406 H   0  0  0  0  0  0
  -28.3711  -14.0205   21.7377 H   0  0  0  0  0  0
  -25.2798   -9.5714   22.4785 H   0  0  0  0  0  0
  -24.0050   -7.4647   22.7454 H   0  0  0  0  0  0
  -21.0880   -8.8764   19.8921 H   0  0  0  0  0  0
  -22.3743  -10.9673   19.6191 H   0  0  0  0  0  0
  -21.1980   -7.6131   23.9706 H   0  0  0  0  0  0
  -21.1546   -6.0530   25.9084 H   0  0  0  0  0  0
  -22.0558   -2.7600   23.2852 H   0  0  0  0  0  0
  -22.4095  -11.9869   22.4863 H   0  0  0  0  0  0
  -21.1098  -13.1214   22.2599 H   0  0  0  0  0  0
  -24.6418  -15.8476   20.5179 H   0  0  0  0  0  0
  -26.2541  -15.6342   20.0602 H   0  0  0  0  0  0
  -26.7331  -32.5250   23.0996 H   0  0  0  0  0  0
  -25.0212  -33.9581   25.0377 H   0  0  0  0  0  0
  -22.7608  -31.2850   21.3748 H   0  0  0  0  0  0
  -23.3791  -35.9537   23.3277 H   0  0  0  0  0  0
  -24.3636  -36.8873   22.2063 H   0  0  0  0  0  0
  -23.7205  -37.6413   23.6695 H   0  0  0  0  0  0
  -26.1808  -31.4614   20.6228 H   0  0  0  0  0  0
  -26.8832  -30.7453   22.0341 H   0  0  0  0  0  0
  -28.1445  -28.7621   21.2184 H   0  0  0  0  0  0
  -25.9067  -25.8188   18.9966 H   0  0  0  0  0  0
  -23.9806  -27.2786   18.9886 H   0  0  0  0  0  0
  -23.8239  -30.5578   19.4007 H   0  0  0  0  0  0
  -22.7934  -29.2319   19.8394 H   0  0  0  0  0  0
  -25.1326  -36.1884   25.0824 H   0  0  0  0  0  0
  -21.0011  -28.3300   24.1406 H   0  0  0  0  0  0
  -20.5802  -26.2327   23.3631 H   0  0  0  0  0  0
  -21.6697  -26.7487   22.1180 H   0  0  0  0  0  0
  -19.6980  -25.6264   21.1302 H   0  0  0  0  0  0
  -19.6725  -27.3168   20.6767 H   0  0  0  0  0  0
  -17.4261  -26.6702   21.3997 H   0  0  0  0  0  0
  -18.0311  -26.0039   22.9000 H   0  0  0  0  0  0
  -19.7945  -30.7280   24.2268 H   0  0  0  0  0  0
  -17.5003  -31.6260   24.5132 H   0  0  0  0  0  0
  -15.5360  -30.2956   23.7610 H   0  0  0  0  0  0
  -15.8713  -28.0742   22.7151 H   0  0  0  0  0  0
  -24.5863  -30.7077   25.7672 H   0  0  0  0  0  0
  -24.8840  -32.2912   26.4747 H   0  0  0  0  0  0
  -25.7930  -30.8925   27.0189 H   0  0  0  0  0  0
  -26.3037  -29.6666   24.1266 H   0  0  0  0  0  0
  -27.4088  -29.7263   25.4796 H   0  0  0  0  0  0
  -27.8899  -30.4247   23.9546 H   0  0  0  0  0  0
  -27.2727  -33.3624   26.1984 H   0  0  0  0  0  0
  -28.3911  -32.6763   25.0293 H   0  0  0  0  0  0
  -28.0720  -31.8432   26.5399 H   0  0  0  0  0  0
  -28.2597  -38.0092   24.7559 H   0  0  0  0  0  0
  -28.1101  -36.2644   24.6267 H   0  0  0  0  0  0
  -27.2334  -37.1396   25.8876 H   0  0  0  0  0  0
  -20.9544  -29.8669   21.6737 H   0  0  0  0  0  0
  -26.0189  -38.2812   24.1365 H   0  0  0  0  0  0
  -27.4375  -18.7726   19.2342 H   0  0  0  0  0  0
  -30.7626  -20.8848   20.8581 H   0  0  0  0  0  0
  -25.8731  -20.8454   18.6663 H   0  0  0  0  0  0
  -26.8369  -22.2569   18.2330 H   0  0  0  0  0  0
  -26.0978  -22.1338   19.8296 H   0  0  0  0  0  0
  -30.8212  -17.9113   21.2724 H   0  0  0  0  0  0
  -31.0077  -17.7922   19.5680 H   0  0  0  0  0  0
  -29.5054  -23.3946   21.2094 H   0  0  0  0  0  0
  -29.9446  -23.4681   19.5600 H   0  0  0  0  0  0
  -27.1100  -24.3007   20.5177 H   0  0  0  0  0  0
  -27.7338  -24.4745   18.9041 H   0  0  0  0  0  0
  -28.7871  -16.1170   20.5379 H   0  0  0  0  0  0
  1 25  1  0  0  0
  1 30  2  0  0  0
  1 80  1  0  0  0
  2  3  1  0  0  0
  2 25  1  0  0  0
  2 81  1  0  0  0
  2 82  1  0  0  0
  3  4  1  0  0  0
  3 83  1  0  0  0
  3 84  1  0  0  0
  4  5  1  0  0  0
  4 85  1  0  0  0
  4 86  1  0  0  0
  5  6  1  0  0  0
  5 26  1  0  0  0
  5 87  1  0  0  0
  6 25  1  0  0  0
  6 88  1  0  0  0
  6 89  1  0  0  0
  7  8  2  0  0  0
  7 26  1  0  0  0
  7 29  1  0  0  0
  8  9  1  0  0  0
  8 22  1  0  0  0
  9 10  1  0  0  0
  9 27  2  0  0  0
 10 11  2  0  0  0
 10 15  1  0  0  0
 11 12  1  0  0  0
 11 90  1  0  0  0
 12 13  2  0  0  0
 12 91  1  0  0  0
 13 14  1  0  0  0
 13 31  1  0  0  0
 14 15  2  0  0  0
 14 92  1  0  0  0
 15 93  1  0  0  0
 16 17  2  0  0  0
 16 21  1  0  0  0
 16 31  1  0  0  0
 17 18  1  0  0  0
 17 94  1  0  0  0
 18 19  2  0  0  0
 18 95  1  0  0  0
 19 20  1  0  0  0
 19 24  1  0  0  0
 20 21  2  0  0  0
 20 96  1  0  0  0
 21 23  1  0  0  0
 22 28  1  0  0  0
 22 32  2  0  0  0
 26 27  1  0  0  0
 28 97  1  0  0  0
 28 98  1  0  0  0
 29 99  1  0  0  0
 29100  1  0  0  0
 33 34  1  0  0  0
 33 66  1  0  0  0
 33 70  2  0  0  0
 34 36  1  0  0  0
 34 59  1  0  0  0
 34101  1  0  0  0
 35 44  2  0  0  0
 35 45  1  0  0  0
 35 68  1  0  0  0
 36 56  1  0  0  0
 36102  1  0  0  0
 37 39  1  0  0  0
 37 47  1  0  0  0
 37 66  1  0  0  0
 37103  1  0  0  0
 38 43  2  0  0  0
 38 46  1  0  0  0
 38 47  1  0  0  0
 39 64  1  0  0  0
 39 67  2  0  0  0
 40 52  1  0  0  0
 40 53  2  0  0  0
 40 58  1  0  0  0
 41104  1  0  0  0
 41105  1  0  0  0
 41106  1  0  0  0
 41 48  1  0  0  0
 42 43  1  0  0  0
 42 66  1  0  0  0
 42107  1  0  0  0
 42108  1  0  0  0
 43 44  1  0  0  0
 44109  1  0  0  0
 45 46  2  0  0  0
 45110  1  0  0  0
 46111  1  0  0  0
 47112  1  0  0  0
 47113  1  0  0  0
 48 56  1  0  0  0
 48 65  1  0  0  0
 48114  1  0  0  0
 49 50  1  0  0  0
 49 53  1  0  0  0
 49 64  1  0  0  0
 49115  1  0  0  0
 50 51  1  0  0  0
 50116  1  0  0  0
 50117  1  0  0  0
 51 52  1  0  0  0
 51118  1  0  0  0
 51119  1  0  0  0
 52120  1  0  0  0
 52121  1  0  0  0
 53 54  1  0  0  0
 54 55  2  0  0  0
 54122  1  0  0  0
 55 57  1  0  0  0
 55123  1  0  0  0
 56 69  2  0  0  0
 57 58  2  0  0  0
 57124  1  0  0  0
 58125  1  0  0  0
 59 60  1  0  0  0
 59 61  1  0  0  0
 59 62  1  0  0  0
 60126  1  0  0  0
 60127  1  0  0  0
 60128  1  0  0  0
 61129  1  0  0  0
 61130  1  0  0  0
 61131  1  0  0  0
 62132  1  0  0  0
 62133  1  0  0  0
 62134  1  0  0  0
 63 65  1  0  0  0
 63135  1  0  0  0
 63136  1  0  0  0
 63137  1  0  0  0
 64138  1  0  0  0
 65139  1  0  0  0
 68 78  1  0  0  0
 71 73  1  0  0  0
 71 74  2  0  0  0
 71140  1  0  0  0
 72 73  2  0  0  0
 72 79  1  0  0  0
 72141  1  0  0  0
 73 76  1  0  0  0
 74 75  1  0  0  0
 74 79  1  0  0  0
 75142  1  0  0  0
 75143  1  0  0  0
 75144  1  0  0  0
 76 80  1  0  0  0
 76145  1  0  0  0
 76146  1  0  0  0
 77 78  1  0  0  0
 77 79  1  0  0  0
 77147  1  0  0  0
 77148  1  0  0  0
 78149  1  0  0  0
 78150  1  0  0  0
 80151  1  0  0  0
M  ISO  4   1 100  68 101  78 101  80 100
M  END
> <chiral flag>
0

> <version>
0

> <s_m_source_file>
/data/baiqing/PycharmProjects/Reinvent-master-3.2/result/LINK_invent/BTK/process_docking_weight1_custom_sum_contain_oxygen_bond_distance_aromatic_linkinvent_7_9_3/rearranged_h_0111.sdf

> <i_m_source_file_index>
37

> <r_mmod_Potential_Energy-OPLS-2005>
547.011047363281

> <r_mmod_Stretch_Energy-OPLS-2005>
307.745941162109

> <r_mmod_Bend_Energy-OPLS-2005>
298.696716308594

> <r_mmod_Torsional_Energy-OPLS-2005>
212.8681640625

> <r_mmod_Improper_Torsional_Energy-OPLS-2005>
4.76523160934448

> <r_mmod_Van_der_Waal_Energy-OPLS-2005>
108.011108398438

> <r_mmod_Electrostatic_Energy-OPLS-2005>
-398.117706298828

> <r_mmod_Solvation_Energy-OPLS-2005>
-220.714309692383

> <b_mmod_Minimization_Converged-OPLS-2005>
0

> <r_mmod_RMS_Derivative-OPLS-2005>
4.72852325439453

$$$$
37
                    3D
 Structure written by MMmdl.
157165  0  0  1  0            999 V2000
  -30.3792  -15.3805   20.3692 C   0  0  0  0  0  0
  -30.4436  -12.8971   19.5159 C   0  0  0  0  0  0
  -29.5423  -12.5845   18.2932 C   0  0  0  0  0  0
  -28.1038  -12.2748   18.7409 C   0  0  0  0  0  0
  -27.6084  -13.2731   19.8147 C   0  0  2  0  0  0
  -28.6394  -13.5032   20.9385 C   0  0  0  0  0  0
  -25.2396  -13.8232   20.5746 C   0  0  0  0  0  0
  -24.1742  -13.0428   20.9264 C   0  0  0  0  0  0
  -24.6393  -11.6921   20.8765 C   0  0  0  0  0  0
  -23.9086  -10.4280   21.0406 C   0  0  0  0  0  0
  -24.3629   -9.4200   21.9186 C   0  0  0  0  0  0
  -23.6302   -8.2236   22.0754 C   0  0  0  0  0  0
  -22.4282   -8.0274   21.3545 C   0  0  0  0  0  0
  -21.9922   -9.0249   20.4641 C   0  0  0  0  0  0
  -22.7255  -10.2125   20.3053 C   0  0  0  0  0  0
  -21.6848   -6.0729   22.5275 C   0  0  0  0  0  0
  -21.4015   -6.5637   23.8211 C   0  0  0  0  0  0
  -21.3657   -5.6794   24.9173 C   0  0  0  0  0  0
  -21.6044   -4.3056   24.7226 C   0  0  0  0  0  0
  -21.8820   -3.8144   23.4351 C   0  0  0  0  0  0
  -21.9199   -4.6960   22.3405 C   0  0  0  0  0  0
  -22.7758  -13.5189   21.1920 C   0  0  0  0  0  0
  -22.1660   -4.2148   21.0980 F   0  0  0  0  0  0
  -21.5637   -3.4537   25.7737 F   0  0  0  0  0  0
  -29.8446  -14.0527   20.2893 N   0  0  0  0  0  0
  -26.2809  -12.9494   20.3201 N   0  0  0  0  0  0
  -25.9328  -11.6600   20.5703 N   0  0  0  0  0  0
  -22.0405  -12.8159   22.0457 N   0  0  0  0  0  0
  -25.4067  -15.1961   20.4185 N   0  0  0  0  0  0
  -31.6168  -15.3754   20.2525 O   0  0  0  0  0  0
  -21.6640   -6.8873   21.4238 O   0  0  0  0  0  0
  -22.3433  -14.5493   20.6763 O   0  0  0  0  0  0
  -24.6698  -31.8163   23.1621 C   0  0  0  0  0  0
  -25.9341  -32.4552   23.8104 C   0  0  1  0  0  0
  -27.2156  -26.8467   20.2083 C   0  0  0  0  0  0
  -25.5975  -33.8366   24.2023 N   0  0  0  0  0  0
  -23.4868  -30.4261   21.5129 C   0  0  2  0  0  0
  -24.9395  -28.7909   20.1194 C   0  0  0  0  0  0
  -22.7704  -29.4422   22.4755 C   0  0  0  0  0  0
  -18.0344  -28.1437   22.8475 C   0  0  0  0  0  0
  -24.1489  -36.7193   23.2643 C   0  0  0  0  0  0
  -26.0589  -30.5989   21.3997 C   0  0  0  0  0  0
  -26.1266  -29.1765   20.7550 C   0  0  0  0  0  0
  -27.2585  -28.2304   20.7667 C   0  0  0  0  0  0
  -25.9960  -26.6307   19.5242 C   0  0  0  0  0  0
  -24.9033  -27.5400   19.4823 C   0  0  0  0  0  0
  -23.7317  -29.7323   20.1428 C   0  0  0  0  0  0
  -25.4132  -36.2946   24.0296 C   0  0  1  0  0  0
  -20.5970  -28.3790   23.1181 C   0  0  2  0  0  0
  -20.6820  -26.9466   22.5396 C   0  0  0  0  0  0
  -19.5795  -26.6408   21.5217 C   0  0  0  0  0  0
  -18.1973  -26.7972   22.1621 C   0  0  0  0  0  0
  -19.1605  -28.8935   23.2814 C   0  0  0  0  0  0
  -18.9506  -30.1522   23.8858 C   0  0  0  0  0  0
  -17.6498  -30.6616   24.0583 C   0  0  0  0  0  0
  -25.9106  -34.9337   23.4990 C   0  0  0  0  0  0
  -16.5391  -29.9110   23.6353 C   0  0  0  0  0  0
  -16.7324  -28.6534   23.0369 C   0  0  0  0  0  0
  -26.4567  -31.6520   25.0651 C   0  0  0  0  0  0
  -25.3690  -31.3798   26.1317 C   0  0  0  0  0  0
  -27.0460  -30.2881   24.6413 C   0  0  0  0  0  0
  -27.6064  -32.4325   25.7459 C   0  0  0  0  0  0
  -27.5571  -37.1748   24.8464 C   0  0  0  0  0  0
  -21.4369  -29.3053   22.3510 N   0  0  0  0  0  0
  -26.4264  -37.3697   23.9423 N   0  0  0  0  0  0
  -24.7606  -30.9766   22.0777 N   0  0  0  0  0  0
  -23.4228  -28.8008   23.3029 O   0  0  0  0  0  0
  -28.2209  -25.7158   20.2387 O   0  0  0  0  0  0
  -26.5721  -34.8895   22.4593 O   0  0  0  0  0  0
  -23.5745  -32.1148   23.6691 O   0  0  0  0  0  0
  -30.0379  -18.9904   21.6592 C   0  0  0  0  0  0
  -29.0298  -19.4766   19.8103 C   0  0  0  0  0  0
  -29.5800  -18.2902   20.4910 C   0  0  0  0  0  0
  -29.7731  -20.3795   21.6451 C   0  0  0  0  0  0
  -31.6375  -21.6557   22.7458 C   0  0  0  0  0  0
  -29.6728  -20.8458   24.1142 C   0  0  0  0  0  0
  -27.6118  -23.9532   21.9110 C   0  0  0  0  0  0
  -28.9435  -22.5069   19.9717 C   0  0  0  0  0  0
  -30.1358  -21.3437   22.7359 C   0  0  0  0  0  0
  -28.0124  -24.0460   20.4349 C   0  0  2  0  0  0
  -29.1456  -20.8530   20.4604 N   0  0  0  0  0  0
  -29.5656  -16.6488   20.2738 N   0  0  0  0  0  0
  -31.4486  -13.1409   19.1691 H   0  0  0  0  0  0
  -30.5561  -12.0154   20.1496 H   0  0  0  0  0  0
  -29.9480  -11.7446   17.7265 H   0  0  0  0  0  0
  -29.5422  -13.4397   17.6168 H   0  0  0  0  0  0
  -28.1038  -11.2682   19.1620 H   0  0  0  0  0  0
  -27.4277  -12.2512   17.8852 H   0  0  0  0  0  0
  -27.5061  -14.2195   19.2839 H   0  0  0  0  0  0
  -28.8425  -12.5873   21.4943 H   0  0  0  0  0  0
  -28.2564  -14.2254   21.6607 H   0  0  0  0  0  0
  -25.2765   -9.5680   22.4773 H   0  0  0  0  0  0
  -24.0006   -7.4623   22.7474 H   0  0  0  0  0  0
  -21.0859   -8.8768   19.8946 H   0  0  0  0  0  0
  -22.3711  -10.9666   19.6166 H   0  0  0  0  0  0
  -21.1992   -7.6138   23.9708 H   0  0  0  0  0  0
  -21.1483   -6.0519   25.9077 H   0  0  0  0  0  0
  -22.0604   -2.7605   23.2847 H   0  0  0  0  0  0
  -22.4028  -11.9821   22.4834 H   0  0  0  0  0  0
  -21.1013  -13.1168   22.2663 H   0  0  0  0  0  0
  -24.6444  -15.8538   20.5444 H   0  0  0  0  0  0
  -26.2501  -15.6348   20.0745 H   0  0  0  0  0  0
  -26.7419  -32.5083   23.0815 H   0  0  0  0  0  0
  -25.0058  -33.9412   25.0138 H   0  0  0  0  0  0
  -22.8023  -31.2580   21.3357 H   0  0  0  0  0  0
  -23.3753  -35.9512   23.3254 H   0  0  0  0  0  0
  -24.3556  -36.8894   22.2060 H   0  0  0  0  0  0
  -23.7243  -37.6368   23.6735 H   0  0  0  0  0  0
  -26.2382  -31.3272   20.6081 H   0  0  0  0  0  0
  -26.9203  -30.6677   22.0528 H   0  0  0  0  0  0
  -28.1595  -28.5331   21.2813 H   0  0  0  0  0  0
  -25.8573  -25.6810   19.0281 H   0  0  0  0  0  0
  -24.0040  -27.2413   18.9615 H   0  0  0  0  0  0
  -23.9040  -30.4955   19.3824 H   0  0  0  0  0  0
  -22.8377  -29.1973   19.8184 H   0  0  0  0  0  0
  -25.1334  -36.1710   25.0781 H   0  0  0  0  0  0
  -21.0063  -28.3401   24.1303 H   0  0  0  0  0  0
  -20.5701  -26.2410   23.3646 H   0  0  0  0  0  0
  -21.6689  -26.7453   22.1208 H   0  0  0  0  0  0
  -19.6936  -25.6302   21.1284 H   0  0  0  0  0  0
  -19.6723  -27.3188   20.6718 H   0  0  0  0  0  0
  -17.4251  -26.6738   21.4019 H   0  0  0  0  0  0
  -18.0369  -26.0116   22.9018 H   0  0  0  0  0  0
  -19.7974  -30.7371   24.2186 H   0  0  0  0  0  0
  -17.5045  -31.6285   24.5205 H   0  0  0  0  0  0
  -15.5388  -30.3007   23.7684 H   0  0  0  0  0  0
  -15.8733  -28.0842   22.7093 H   0  0  0  0  0  0
  -24.5908  -30.7088   25.7660 H   0  0  0  0  0  0
  -24.8819  -32.3001   26.4551 H   0  0  0  0  0  0
  -25.7923  -30.9122   27.0218 H   0  0  0  0  0  0
  -26.3126  -29.6546   24.1405 H   0  0  0  0  0  0
  -27.3965  -29.7248   25.5067 H   0  0  0  0  0  0
  -27.9086  -30.4044   23.9848 H   0  0  0  0  0  0
  -27.2651  -33.3694   26.1873 H   0  0  0  0  0  0
  -28.3970  -32.6761   25.0351 H   0  0  0  0  0  0
  -28.0625  -31.8536   26.5498 H   0  0  0  0  0  0
  -28.2572  -38.0064   24.7543 H   0  0  0  0  0  0
  -28.1091  -36.2597   24.6260 H   0  0  0  0  0  0
  -27.2294  -37.1366   25.8868 H   0  0  0  0  0  0
  -20.9630  -29.8721   21.6619 H   0  0  0  0  0  0
  -26.0092  -38.2744   24.1456 H   0  0  0  0  0  0
  -30.5148  -18.5054   22.4995 H   0  0  0  0  0  0
  -28.5521  -19.4747   18.8395 H   0  0  0  0  0  0
  -31.9664  -22.0460   21.7825 H   0  0  0  0  0  0
  -31.8740  -22.4051   23.5033 H   0  0  0  0  0  0
  -32.2279  -20.7641   22.9639 H   0  0  0  0  0  0
  -28.6025  -20.6377   24.1166 H   0  0  0  0  0  0
  -29.8589  -21.5932   24.8861 H   0  0  0  0  0  0
  -30.1880  -19.9318   24.4080 H   0  0  0  0  0  0
  -27.2993  -22.9419   22.1728 H   0  0  0  0  0  0
  -26.7771  -24.6195   22.1329 H   0  0  0  0  0  0
  -28.4392  -24.2392   22.5611 H   0  0  0  0  0  0
  -29.9690  -22.8688   20.0308 H   0  0  0  0  0  0
  -28.7860  -22.4351   18.8952 H   0  0  0  0  0  0
  -29.6224  -22.2840   22.5629 H   0  0  0  0  0  0
  -27.0803  -23.8810   19.8945 H   0  0  0  0  0  0
  -28.6333  -16.3527   20.0251 H   0  0  0  0  0  0
  1 25  1  0  0  0
  1 30  2  0  0  0
  1 82  1  0  0  0
  2  3  1  0  0  0
  2 25  1  0  0  0
  2 83  1  0  0  0
  2 84  1  0  0  0
  3  4  1  0  0  0
  3 85  1  0  0  0
  3 86  1  0  0  0
  4  5  1  0  0  0
  4 87  1  0  0  0
  4 88  1  0  0  0
  5  6  1  0  0  0
  5 26  1  0  0  0
  5 89  1  0  0  0
  6 25  1  0  0  0
  6 90  1  0  0  0
  6 91  1  0  0  0
  7  8  2  0  0  0
  7 26  1  0  0  0
  7 29  1  0  0  0
  8  9  1  0  0  0
  8 22  1  0  0  0
  9 10  1  0  0  0
  9 27  2  0  0  0
 10 11  2  0  0  0
 10 15  1  0  0  0
 11 12  1  0  0  0
 11 92  1  0  0  0
 12 13  2  0  0  0
 12 93  1  0  0  0
 13 14  1  0  0  0
 13 31  1  0  0  0
 14 15  2  0  0  0
 14 94  1  0  0  0
 15 95  1  0  0  0
 16 17  2  0  0  0
 16 21  1  0  0  0
 16 31  1  0  0  0
 17 18  1  0  0  0
 17 96  1  0  0  0
 18 19  2  0  0  0
 18 97  1  0  0  0
 19 20  1  0  0  0
 19 24  1  0  0  0
 20 21  2  0  0  0
 20 98  1  0  0  0
 21 23  1  0  0  0
 22 28  1  0  0  0
 22 32  2  0  0  0
 26 27  1  0  0  0
 28 99  1  0  0  0
 28100  1  0  0  0
 29101  1  0  0  0
 29102  1  0  0  0
 33 34  1  0  0  0
 33 66  1  0  0  0
 33 70  2  0  0  0
 34 36  1  0  0  0
 34 59  1  0  0  0
 34103  1  0  0  0
 35 44  2  0  0  0
 35 45  1  0  0  0
 35 68  1  0  0  0
 36 56  1  0  0  0
 36104  1  0  0  0
 37 39  1  0  0  0
 37 47  1  0  0  0
 37 66  1  0  0  0
 37105  1  0  0  0
 38 43  2  0  0  0
 38 46  1  0  0  0
 38 47  1  0  0  0
 39 64  1  0  0  0
 39 67  2  0  0  0
 40 52  1  0  0  0
 40 53  2  0  0  0
 40 58  1  0  0  0
 41106  1  0  0  0
 41107  1  0  0  0
 41108  1  0  0  0
 41 48  1  0  0  0
 42 43  1  0  0  0
 42 66  1  0  0  0
 42109  1  0  0  0
 42110  1  0  0  0
 43 44  1  0  0  0
 44111  1  0  0  0
 45 46  2  0  0  0
 45112  1  0  0  0
 46113  1  0  0  0
 47114  1  0  0  0
 47115  1  0  0  0
 48 56  1  0  0  0
 48 65  1  0  0  0
 48116  1  0  0  0
 49 50  1  0  0  0
 49 53  1  0  0  0
 49 64  1  0  0  0
 49117  1  0  0  0
 50 51  1  0  0  0
 50118  1  0  0  0
 50119  1  0  0  0
 51 52  1  0  0  0
 51120  1  0  0  0
 51121  1  0  0  0
 52122  1  0  0  0
 52123  1  0  0  0
 53 54  1  0  0  0
 54 55  2  0  0  0
 54124  1  0  0  0
 55 57  1  0  0  0
 55125  1  0  0  0
 56 69  2  0  0  0
 57 58  2  0  0  0
 57126  1  0  0  0
 58127  1  0  0  0
 59 60  1  0  0  0
 59 61  1  0  0  0
 59 62  1  0  0  0
 60128  1  0  0  0
 60129  1  0  0  0
 60130  1  0  0  0
 61131  1  0  0  0
 61132  1  0  0  0
 61133  1  0  0  0
 62134  1  0  0  0
 62135  1  0  0  0
 62136  1  0  0  0
 63 65  1  0  0  0
 63137  1  0  0  0
 63138  1  0  0  0
 63139  1  0  0  0
 64140  1  0  0  0
 65141  1  0  0  0
 68 80  1  0  0  0
 71 73  1  0  0  0
 71 74  2  0  0  0
 71142  1  0  0  0
 72 73  2  0  0  0
 72 81  1  0  0  0
 72143  1  0  0  0
 73 82  1  0  0  0
 74 79  1  0  0  0
 74 81  1  0  0  0
 75144  1  0  0  0
 75145  1  0  0  0
 75146  1  0  0  0
 75 79  1  0  0  0
 76 79  1  0  0  0
 76147  1  0  0  0
 76148  1  0  0  0
 76149  1  0  0  0
 77150  1  0  0  0
 77151  1  0  0  0
 77152  1  0  0  0
 77 80  1  0  0  0
 78 80  1  0  0  0
 78 81  1  0  0  0
 78153  1  0  0  0
 78154  1  0  0  0
 79155  1  0  0  0
 80156  1  0  0  0
 82157  1  0  0  0
M  ISO  4   1 100  68 101  80 101  82 100
M  END
> <chiral flag>
0

> <version>
0

> <s_m_source_file>
/data/baiqing/PycharmProjects/Reinvent-master-3.2/result/LINK_invent/BTK/process_docking_weight1_custom_sum_contain_oxygen_bond_distance_aromatic_linkinvent_7_9_3/rearranged_h_0111.sdf

> <i_m_source_file_index>
38

> <r_mmod_Potential_Energy-OPLS-2005>
1612.3173828125

> <r_mmod_Stretch_Energy-OPLS-2005>
710.557983398438

> <r_mmod_Bend_Energy-OPLS-2005>
521.277221679688

> <r_mmod_Torsional_Energy-OPLS-2005>
263.83837890625

> <r_mmod_Improper_Torsional_Energy-OPLS-2005>
10.6854410171509

> <r_mmod_Van_der_Waal_Energy-OPLS-2005>
100.014350891113

> <r_mmod_Electrostatic_Energy-OPLS-2005>
-368.802703857422

> <r_mmod_Solvation_Energy-OPLS-2005>
-213.279891967773

> <b_mmod_Minimization_Converged-OPLS-2005>
0

> <r_mmod_RMS_Derivative-OPLS-2005>
2.2616708278656

$$$$
38
                    3D
 Structure written by MMmdl.
166174  0  0  1  0            999 V2000
  -30.6439  -14.6764   20.5430 C   0  0  0  0  0  0
  -30.4325  -12.4410   19.4414 C   0  0  0  0  0  0
  -29.4969  -12.5312   18.2149 C   0  0  0  0  0  0
  -28.0190  -12.3651   18.6230 C   0  0  0  0  0  0
  -27.6460  -13.2198   19.8632 C   0  0  2  0  0  0
  -28.6945  -13.0351   20.9762 C   0  0  0  0  0  0
  -25.2519  -13.8171   20.5679 C   0  0  0  0  0  0
  -24.1799  -13.0429   20.9184 C   0  0  0  0  0  0
  -24.6377  -11.6902   20.8737 C   0  0  0  0  0  0
  -23.9062  -10.4282   21.0407 C   0  0  0  0  0  0
  -24.3622   -9.4200   21.9183 C   0  0  0  0  0  0
  -23.6298   -8.2234   22.0753 C   0  0  0  0  0  0
  -22.4274   -8.0276   21.3547 C   0  0  0  0  0  0
  -21.9913   -9.0247   20.4647 C   0  0  0  0  0  0
  -22.7241  -10.2125   20.3051 C   0  0  0  0  0  0
  -21.6844   -6.0744   22.5289 C   0  0  0  0  0  0
  -21.4007   -6.5651   23.8225 C   0  0  0  0  0  0
  -21.3659   -5.6800   24.9188 C   0  0  0  0  0  0
  -21.6041   -4.3061   24.7234 C   0  0  0  0  0  0
  -21.8814   -3.8157   23.4354 C   0  0  0  0  0  0
  -21.9192   -4.6973   22.3412 C   0  0  0  0  0  0
  -22.7831  -13.5219   21.1861 C   0  0  0  0  0  0
  -22.1655   -4.2162   21.0988 F   0  0  0  0  0  0
  -21.5638   -3.4542   25.7744 F   0  0  0  0  0  0
  -29.9916  -13.4624   20.4237 N   0  0  0  0  0  0
  -26.2947  -12.9358   20.3325 N   0  0  0  0  0  0
  -25.9302  -11.6502   20.5743 N   0  0  0  0  0  0
  -22.0493  -12.8197   22.0423 N   0  0  0  0  0  0
  -25.4201  -15.1897   20.4094 N   0  0  0  0  0  0
  -31.7998  -14.7711   20.1144 O   0  0  0  0  0  0
  -21.6636   -6.8880   21.4246 O   0  0  0  0  0  0
  -22.3514  -14.5526   20.6717 O   0  0  0  0  0  0
  -24.6268  -31.8598   23.2013 C   0  0  0  0  0  0
  -25.9113  -32.4779   23.8345 C   0  0  1  0  0  0
  -27.2301  -27.3176   20.1032 C   0  0  0  0  0  0
  -25.5933  -33.8579   24.2278 N   0  0  0  0  0  0
  -23.4200  -30.4828   21.5449 C   0  0  2  0  0  0
  -24.8653  -28.9365   20.1106 C   0  0  0  0  0  0
  -22.7477  -29.4624   22.4940 C   0  0  0  0  0  0
  -18.0287  -28.1377   22.8492 C   0  0  0  0  0  0
  -24.1494  -36.7295   23.2637 C   0  0  0  0  0  0
  -25.9610  -30.7893   21.3713 C   0  0  0  0  0  0
  -26.0342  -29.4159   20.7129 C   0  0  0  0  0  0
  -27.2151  -28.6162   20.7029 C   0  0  0  0  0  0
  -26.0248  -26.8788   19.5064 C   0  0  0  0  0  0
  -24.8619  -27.6721   19.5029 C   0  0  0  0  0  0
  -23.6332  -29.8168   20.1603 C   0  0  0  0  0  0
  -25.4118  -36.3083   24.0329 C   0  0  1  0  0  0
  -20.5888  -28.3686   23.1286 C   0  0  2  0  0  0
  -20.6776  -26.9408   22.5414 C   0  0  0  0  0  0
  -19.5753  -26.6383   21.5214 C   0  0  0  0  0  0
  -18.1932  -26.7925   22.1623 C   0  0  0  0  0  0
  -19.1539  -28.8847   23.2888 C   0  0  0  0  0  0
  -18.9458  -30.1450   23.8904 C   0  0  0  0  0  0
  -17.6457  -30.6582   24.0561 C   0  0  0  0  0  0
  -25.9055  -34.9454   23.5106 C   0  0  0  0  0  0
  -16.5349  -29.9077   23.6331 C   0  0  0  0  0  0
  -16.7273  -28.6493   23.0358 C   0  0  0  0  0  0
  -26.4493  -31.6585   25.0714 C   0  0  0  0  0  0
  -25.3724  -31.3723   26.1443 C   0  0  0  0  0  0
  -27.0322  -30.3005   24.6163 C   0  0  0  0  0  0
  -27.6058  -32.4309   25.7489 C   0  0  0  0  0  0
  -27.5588  -37.1798   24.8458 C   0  0  0  0  0  0
  -21.4188  -29.3040   22.3682 N   0  0  0  0  0  0
  -26.4296  -37.3781   23.9410 N   0  0  0  0  0  0
  -24.6883  -31.0604   22.0961 N   0  0  0  0  0  0
  -23.4202  -28.8167   23.3022 O   0  0  0  0  0  0
  -28.3676  -26.4933   20.1673 O   0  0  0  0  0  0
  -26.5623  -34.8922   22.4670 O   0  0  0  0  0  0
  -23.5430  -32.1398   23.7340 O   0  0  0  0  0  0
  -28.8886  -22.7834   18.9168 C   0  0  0  0  0  0
  -29.1568  -21.4159   19.2231 C   0  0  0  0  0  0
  -29.1604  -21.9951   21.5425 C   0  0  0  0  0  0
  -28.7416  -23.8112   19.8949 C   0  0  0  0  0  0
  -28.8574  -23.3714   21.2539 C   0  0  0  0  0  0
  -29.3230  -20.9796   20.5593 C   0  0  0  0  0  0
  -27.6354  -23.8140   23.4472 C   0  0  0  0  0  0
  -29.1042  -15.9069   22.0718 C   0  0  0  0  0  0
  -30.9794  -25.2994   22.2812 C   0  0  0  0  0  0
  -28.5178  -25.2819   19.3339 C   0  0  0  0  0  0
  -30.4615  -17.2376   20.5467 C   0  0  0  0  0  0
  -29.4447  -18.4388   20.2292 C   0  0  0  0  0  0
  -28.6841  -24.3275   22.4422 C   0  0  1  0  0  0
  -29.9447  -15.8421   20.8695 N   0  0  0  0  0  0
  -29.9755  -24.6017   23.1102 N   0  3  0  0  0  0
  -29.7017  -19.6804   20.9749 O   0  0  0  0  0  0
  -31.4670  -12.5777   19.1231 H   0  0  0  0  0  0
  -30.3966  -11.4417   19.8790 H   0  0  0  0  0  0
  -29.7658  -11.7762   17.4752 H   0  0  0  0  0  0
  -29.6306  -13.4968   17.7250 H   0  0  0  0  0  0
  -27.8516  -11.3089   18.8373 H   0  0  0  0  0  0
  -27.3660  -12.6112   17.7847 H   0  0  0  0  0  0
  -27.6694  -14.2634   19.5482 H   0  0  0  0  0  0
  -28.7411  -11.9847   21.2660 H   0  0  0  0  0  0
  -28.4039  -13.5355   21.8918 H   0  0  0  0  0  0
  -25.2773   -9.5676   22.4753 H   0  0  0  0  0  0
  -24.0015   -7.4626   22.7464 H   0  0  0  0  0  0
  -21.0849   -8.8758   19.8953 H   0  0  0  0  0  0
  -22.3702  -10.9663   19.6155 H   0  0  0  0  0  0
  -21.1977   -7.6154   23.9738 H   0  0  0  0  0  0
  -21.1491   -6.0526   25.9093 H   0  0  0  0  0  0
  -22.0585   -2.7620   23.2852 H   0  0  0  0  0  0
  -22.4120  -11.9845   22.4779 H   0  0  0  0  0  0
  -21.1112  -13.1204   22.2651 H   0  0  0  0  0  0
  -24.6500  -15.8413   20.5138 H   0  0  0  0  0  0
  -26.2754  -15.6327   20.0987 H   0  0  0  0  0  0
  -26.7182  -32.5443   23.1092 H   0  0  0  0  0  0
  -25.0084  -33.9727   25.0426 H   0  0  0  0  0  0
  -22.7138  -31.3032   21.4017 H   0  0  0  0  0  0
  -23.3765  -35.9614   23.3276 H   0  0  0  0  0  0
  -24.3596  -36.8940   22.2058 H   0  0  0  0  0  0
  -23.7232  -37.6484   23.6671 H   0  0  0  0  0  0
  -26.0921  -31.5530   20.6030 H   0  0  0  0  0  0
  -26.8420  -30.8384   21.9997 H   0  0  0  0  0  0
  -28.1133  -28.9837   21.1792 H   0  0  0  0  0  0
  -25.9291  -25.8975   19.0705 H   0  0  0  0  0  0
  -23.9595  -27.2885   19.0473 H   0  0  0  0  0  0
  -23.7491  -30.5927   19.4025 H   0  0  0  0  0  0
  -22.7535  -29.2444   19.8609 H   0  0  0  0  0  0
  -25.1297  -36.1938   25.0820 H   0  0  0  0  0  0
  -20.9984  -28.3258   24.1405 H   0  0  0  0  0  0
  -20.5680  -26.2292   23.3615 H   0  0  0  0  0  0
  -21.6645  -26.7440   22.1203 H   0  0  0  0  0  0
  -19.6915  -25.6296   21.1241 H   0  0  0  0  0  0
  -19.6699  -27.3197   20.6748 H   0  0  0  0  0  0
  -17.4211  -26.6694   21.4013 H   0  0  0  0  0  0
  -18.0316  -26.0056   22.9005 H   0  0  0  0  0  0
  -19.7933  -30.7265   24.2284 H   0  0  0  0  0  0
  -17.5007  -31.6267   24.5157 H   0  0  0  0  0  0
  -15.5347  -30.2978   23.7650 H   0  0  0  0  0  0
  -15.8674  -28.0808   22.7074 H   0  0  0  0  0  0
  -24.5901  -30.7070   25.7769 H   0  0  0  0  0  0
  -24.8911  -32.2885   26.4868 H   0  0  0  0  0  0
  -25.8046  -30.8899   27.0219 H   0  0  0  0  0  0
  -26.2883  -29.6767   24.1193 H   0  0  0  0  0  0
  -27.4023  -29.7255   25.4661 H   0  0  0  0  0  0
  -27.8754  -30.4288   23.9373 H   0  0  0  0  0  0
  -27.2678  -33.3616   26.2056 H   0  0  0  0  0  0
  -28.3877  -32.6856   25.0319 H   0  0  0  0  0  0
  -28.0712  -31.8433   26.5413 H   0  0  0  0  0  0
  -28.2581  -38.0119   24.7535 H   0  0  0  0  0  0
  -28.1108  -36.2653   24.6238 H   0  0  0  0  0  0
  -27.2309  -37.1390   25.8860 H   0  0  0  0  0  0
  -20.9359  -29.8767   21.6900 H   0  0  0  0  0  0
  -26.0178  -38.2852   24.1417 H   0  0  0  0  0  0
  -28.8145  -23.0566   17.8730 H   0  0  0  0  0  0
  -29.2792  -20.7221   18.4045 H   0  0  0  0  0  0
  -29.2823  -21.6931   22.5726 H   0  0  0  0  0  0
  -26.6779  -23.6526   22.9506 H   0  0  0  0  0  0
  -27.4649  -24.5374   24.2448 H   0  0  0  0  0  0
  -27.9258  -22.8748   23.9173 H   0  0  0  0  0  0
  -29.1378  -16.8844   22.5551 H   0  0  0  0  0  0
  -29.4274  -15.1961   22.8341 H   0  0  0  0  0  0
  -28.0599  -15.7230   21.8180 H   0  0  0  0  0  0
  -31.8817  -25.4837   22.8644 H   0  0  0  0  0  0
  -30.6031  -26.2620   21.9337 H   0  0  0  0  0  0
  -31.2636  -24.7066   21.4112 H   0  0  0  0  0  0
  -27.7818  -25.2263   18.5360 H   0  0  0  0  0  0
  -29.4350  -25.4867   18.7816 H   0  0  0  0  0  0
  -31.1011  -17.5398   21.3771 H   0  0  0  0  0  0
  -31.1417  -17.1779   19.6954 H   0  0  0  0  0  0
  -28.4237  -18.1312   20.4566 H   0  0  0  0  0  0
  -29.4584  -18.6311   19.1574 H   0  0  0  0  0  0
  -28.2921  -25.2801   22.1050 H   0  0  0  0  0  0
  -29.7970  -25.1761   23.9182 H   0  0  0  0  0  0
  -30.3745  -23.7381   23.4381 H   0  0  0  0  0  0
  1 25  1  0  0  0
  1 30  2  0  0  0
  1 84  1  0  0  0
  2  3  1  0  0  0
  2 25  1  0  0  0
  2 87  1  0  0  0
  2 88  1  0  0  0
  3  4  1  0  0  0
  3 89  1  0  0  0
  3 90  1  0  0  0
  4  5  1  0  0  0
  4 91  1  0  0  0
  4 92  1  0  0  0
  5  6  1  0  0  0
  5 26  1  0  0  0
  5 93  1  0  0  0
  6 25  1  0  0  0
  6 94  1  0  0  0
  6 95  1  0  0  0
  7  8  2  0  0  0
  7 26  1  0  0  0
  7 29  1  0  0  0
  8  9  1  0  0  0
  8 22  1  0  0  0
  9 10  1  0  0  0
  9 27  2  0  0  0
 10 11  2  0  0  0
 10 15  1  0  0  0
 11 12  1  0  0  0
 11 96  1  0  0  0
 12 13  2  0  0  0
 12 97  1  0  0  0
 13 14  1  0  0  0
 13 31  1  0  0  0
 14 15  2  0  0  0
 14 98  1  0  0  0
 15 99  1  0  0  0
 16 17  2  0  0  0
 16 21  1  0  0  0
 16 31  1  0  0  0
 17 18  1  0  0  0
 17100  1  0  0  0
 18 19  2  0  0  0
 18101  1  0  0  0
 19 20  1  0  0  0
 19 24  1  0  0  0
 20 21  2  0  0  0
 20102  1  0  0  0
 21 23  1  0  0  0
 22 28  1  0  0  0
 22 32  2  0  0  0
 26 27  1  0  0  0
 28103  1  0  0  0
 28104  1  0  0  0
 29105  1  0  0  0
 29106  1  0  0  0
 33 34  1  0  0  0
 33 66  1  0  0  0
 33 70  2  0  0  0
 34 36  1  0  0  0
 34 59  1  0  0  0
 34107  1  0  0  0
 35 44  2  0  0  0
 35 45  1  0  0  0
 35 68  1  0  0  0
 36 56  1  0  0  0
 36108  1  0  0  0
 37 39  1  0  0  0
 37 47  1  0  0  0
 37 66  1  0  0  0
 37109  1  0  0  0
 38 43  2  0  0  0
 38 46  1  0  0  0
 38 47  1  0  0  0
 39 64  1  0  0  0
 39 67  2  0  0  0
 40 52  1  0  0  0
 40 53  2  0  0  0
 40 58  1  0  0  0
 41110  1  0  0  0
 41111  1  0  0  0
 41112  1  0  0  0
 41 48  1  0  0  0
 42 43  1  0  0  0
 42 66  1  0  0  0
 42113  1  0  0  0
 42114  1  0  0  0
 43 44  1  0  0  0
 44115  1  0  0  0
 45 46  2  0  0  0
 45116  1  0  0  0
 46117  1  0  0  0
 47118  1  0  0  0
 47119  1  0  0  0
 48 56  1  0  0  0
 48 65  1  0  0  0
 48120  1  0  0  0
 49 50  1  0  0  0
 49 53  1  0  0  0
 49 64  1  0  0  0
 49121  1  0  0  0
 50 51  1  0  0  0
 50122  1  0  0  0
 50123  1  0  0  0
 51 52  1  0  0  0
 51124  1  0  0  0
 51125  1  0  0  0
 52126  1  0  0  0
 52127  1  0  0  0
 53 54  1  0  0  0
 54 55  2  0  0  0
 54128  1  0  0  0
 55 57  1  0  0  0
 55129  1  0  0  0
 56 69  2  0  0  0
 57 58  2  0  0  0
 57130  1  0  0  0
 58131  1  0  0  0
 59 60  1  0  0  0
 59 61  1  0  0  0
 59 62  1  0  0  0
 60132  1  0  0  0
 60133  1  0  0  0
 60134  1  0  0  0
 61135  1  0  0  0
 61136  1  0  0  0
 61137  1  0  0  0
 62138  1  0  0  0
 62139  1  0  0  0
 62140  1  0  0  0
 63 65  1  0  0  0
 63141  1  0  0  0
 63142  1  0  0  0
 63143  1  0  0  0
 64144  1  0  0  0
 65145  1  0  0  0
 68 80  1  0  0  0
 71 72  2  0  0  0
 71 74  1  0  0  0
 71146  1  0  0  0
 72 76  1  0  0  0
 72147  1  0  0  0
 73 75  1  0  0  0
 73 76  2  0  0  0
 73148  1  0  0  0
 74 75  2  0  0  0
 74 80  1  0  0  0
 75 83  1  0  0  0
 76 86  1  0  0  0
 77149  1  0  0  0
 77150  1  0  0  0
 77151  1  0  0  0
 77 83  1  0  0  0
 78 84  1  0  0  0
 78152  1  0  0  0
 78153  1  0  0  0
 78154  1  0  0  0
 79 85  1  0  0  0
 79155  1  0  0  0
 79156  1  0  0  0
 79157  1  0  0  0
 80158  1  0  0  0
 80159  1  0  0  0
 81 82  1  0  0  0
 81 84  1  0  0  0
 81160  1  0  0  0
 81161  1  0  0  0
 82 86  1  0  0  0
 82162  1  0  0  0
 82163  1  0  0  0
 83 85  1  0  0  0
 83164  1  0  0  0
 85165  1  0  0  0
 85166  1  0  0  0
M  CHG  1  85   1
M  ISO  4   1 100  68 101  80 101  84 100
M  END
> <chiral flag>
0

> <version>
0

> <s_m_source_file>
/data/baiqing/PycharmProjects/Reinvent-master-3.2/result/LINK_invent/BTK/process_docking_weight1_custom_sum_contain_oxygen_bond_distance_aromatic_linkinvent_7_9_3/rearranged_h_0111.sdf

> <i_m_source_file_index>
39

> <r_mmod_Potential_Energy-OPLS-2005>
48.4733924865723

> <r_mmod_Stretch_Energy-OPLS-2005>
98.8767166137695

> <r_mmod_Bend_Energy-OPLS-2005>
201.008270263672

> <r_mmod_Torsional_Energy-OPLS-2005>
275.006408691406

> <r_mmod_Improper_Torsional_Energy-OPLS-2005>
9.15974807739258

> <r_mmod_Van_der_Waal_Energy-OPLS-2005>
155.197525024414

> <r_mmod_Electrostatic_Energy-OPLS-2005>
-310.938049316406

> <r_mmod_Solvation_Energy-OPLS-2005>
-430.265625

> <b_mmod_Minimization_Converged-OPLS-2005>
0

> <r_mmod_RMS_Derivative-OPLS-2005>
1.24200880527496

$$$$
39
                    3D
 Structure written by MMmdl.
168176  0  0  1  0            999 V2000
  -30.3966  -15.4968   20.3587 C   0  0  0  0  0  0
  -30.4090  -12.9999   19.5074 C   0  0  0  0  0  0
  -29.5226  -12.6047   18.2972 C   0  0  0  0  0  0
  -28.0910  -12.2859   18.7479 C   0  0  0  0  0  0
  -27.5894  -13.2931   19.8084 C   0  0  2  0  0  0
  -28.6148  -13.5926   20.9246 C   0  0  0  0  0  0
  -25.2333  -13.8271   20.5838 C   0  0  0  0  0  0
  -24.1683  -13.0447   20.9262 C   0  0  0  0  0  0
  -24.6354  -11.6949   20.8772 C   0  0  0  0  0  0
  -23.9057  -10.4300   21.0395 C   0  0  0  0  0  0
  -24.3609   -9.4221   21.9178 C   0  0  0  0  0  0
  -23.6283   -8.2253   22.0769 C   0  0  0  0  0  0
  -22.4264   -8.0277   21.3545 C   0  0  0  0  0  0
  -21.9891   -9.0256   20.4658 C   0  0  0  0  0  0
  -22.7225  -10.2132   20.3056 C   0  0  0  0  0  0
  -21.6845   -6.0729   22.5276 C   0  0  0  0  0  0
  -21.4005   -6.5638   23.8207 C   0  0  0  0  0  0
  -21.3656   -5.6793   24.9178 C   0  0  0  0  0  0
  -21.6031   -4.3053   24.7227 C   0  0  0  0  0  0
  -21.8830   -3.8143   23.4349 C   0  0  0  0  0  0
  -21.9187   -4.6956   22.3398 C   0  0  0  0  0  0
  -22.7708  -13.5196   21.1888 C   0  0  0  0  0  0
  -22.1666   -4.2141   21.0980 F   0  0  0  0  0  0
  -21.5624   -3.4538   25.7758 F   0  0  0  0  0  0
  -29.7919  -14.1824   20.2544 N   0  0  0  0  0  0
  -26.2727  -12.9567   20.3253 N   0  0  0  0  0  0
  -25.9293  -11.6651   20.5721 N   0  0  0  0  0  0
  -22.0341  -12.8206   22.0437 N   0  0  0  0  0  0
  -25.4042  -15.2008   20.4381 N   0  0  0  0  0  0
  -31.6281  -15.3600   20.2355 O   0  0  0  0  0  0
  -21.6623   -6.8876   21.4250 O   0  0  0  0  0  0
  -22.3407  -14.5490   20.6724 O   0  0  0  0  0  0
  -24.6793  -31.8066   23.1579 C   0  0  0  0  0  0
  -25.9406  -32.4489   23.8079 C   0  0  1  0  0  0
  -27.2155  -26.7719   20.2033 C   0  0  0  0  0  0
  -25.6016  -33.8303   24.1982 N   0  0  0  0  0  0
  -23.5013  -30.4123   21.5102 C   0  0  2  0  0  0
  -24.9536  -28.7664   20.1192 C   0  0  0  0  0  0
  -22.7742  -29.4343   22.4713 C   0  0  0  0  0  0
  -18.0332  -28.1415   22.8437 C   0  0  0  0  0  0
  -24.1474  -36.7157   23.2649 C   0  0  0  0  0  0
  -26.0785  -30.5632   21.4106 C   0  0  0  0  0  0
  -26.1436  -29.1364   20.7573 C   0  0  0  0  0  0
  -27.2662  -28.1667   20.7618 C   0  0  0  0  0  0
  -25.9945  -26.5936   19.5090 C   0  0  0  0  0  0
  -24.9142  -27.5209   19.4712 C   0  0  0  0  0  0
  -23.7495  -29.7157   20.1423 C   0  0  0  0  0  0
  -25.4129  -36.2877   24.0258 C   0  0  1  0  0  0
  -20.5971  -28.3771   23.1139 C   0  0  2  0  0  0
  -20.6786  -26.9424   22.5390 C   0  0  0  0  0  0
  -19.5762  -26.6372   21.5191 C   0  0  0  0  0  0
  -18.1958  -26.7948   22.1597 C   0  0  0  0  0  0
  -19.1602  -28.8912   23.2767 C   0  0  0  0  0  0
  -18.9508  -30.1508   23.8798 C   0  0  0  0  0  0
  -17.6501  -30.6590   24.0549 C   0  0  0  0  0  0
  -25.9114  -34.9274   23.4948 C   0  0  0  0  0  0
  -16.5392  -29.9081   23.6336 C   0  0  0  0  0  0
  -16.7322  -28.6514   23.0331 C   0  0  0  0  0  0
  -26.4601  -31.6510   25.0683 C   0  0  0  0  0  0
  -25.3676  -31.3808   26.1306 C   0  0  0  0  0  0
  -27.0537  -30.2847   24.6572 C   0  0  0  0  0  0
  -27.6039  -32.4390   25.7500 C   0  0  0  0  0  0
  -27.5546  -37.1710   24.8460 C   0  0  0  0  0  0
  -21.4384  -29.3043   22.3469 N   0  0  0  0  0  0
  -26.4243  -37.3648   23.9411 N   0  0  0  0  0  0
  -24.7751  -30.9561   22.0796 N   0  0  0  0  0  0
  -23.4198  -28.7902   23.3020 O   0  0  0  0  0  0
  -28.2058  -25.6022   20.2335 O   0  0  0  0  0  0
  -26.5732  -34.8836   22.4544 O   0  0  0  0  0  0
  -23.5826  -32.1108   23.6565 O   0  0  0  0  0  0
  -30.6664  -18.2585   20.4057 C   0  0  0  0  0  0
  -30.2091  -19.8312   20.9305 C   0  0  0  0  0  0
  -28.2608  -19.3769   19.8034 C   0  0  0  0  0  0
  -28.4613  -17.7265   20.3412 C   0  0  2  0  0  0
  -27.7532  -17.5655   21.6995 C   0  0  0  0  0  0
  -32.2450  -21.7701   17.4756 C   0  0  0  0  0  0
  -32.6907  -24.0890   18.1094 C   0  0  0  0  0  0
  -29.3038  -22.2833   18.4959 C   0  0  0  0  0  0
  -30.3526  -23.3160   18.0082 C   0  0  0  0  0  0
  -28.0007  -23.8874   20.3465 C   0  0  0  0  0  0
  -28.9815  -22.2968   20.0128 C   0  0  1  0  0  0
  -29.8252  -16.9376   20.4034 N   0  0  0  0  0  0
  -28.9205  -20.6218   20.5112 N   0  3  2  0  0  0
  -31.7737  -22.9357   18.2656 N   0  3  0  0  0  0
  -31.4013  -13.2418   19.1256 H   0  0  0  0  0  0
  -30.5626  -12.1495   20.1730 H   0  0  0  0  0  0
  -29.9489  -11.7470   17.7750 H   0  0  0  0  0  0
  -29.5024  -13.4233   17.5750 H   0  0  0  0  0  0
  -28.0939  -11.2800   19.1718 H   0  0  0  0  0  0
  -27.4160  -12.2555   17.8905 H   0  0  0  0  0  0
  -27.4615  -14.2235   19.2524 H   0  0  0  0  0  0
  -28.8609  -12.6983   21.5005 H   0  0  0  0  0  0
  -28.2072  -14.3142   21.6331 H   0  0  0  0  0  0
  -25.2748   -9.5722   22.4751 H   0  0  0  0  0  0
  -24.0003   -7.4650   22.7488 H   0  0  0  0  0  0
  -21.0819   -8.8761   19.8966 H   0  0  0  0  0  0
  -22.3655  -10.9671   19.6172 H   0  0  0  0  0  0
  -21.2005   -7.6144   23.9718 H   0  0  0  0  0  0
  -21.1453   -6.0519   25.9078 H   0  0  0  0  0  0
  -22.0606   -2.7594   23.2860 H   0  0  0  0  0  0
  -22.3941  -11.9871   22.4857 H   0  0  0  0  0  0
  -21.0981  -13.1285   22.2630 H   0  0  0  0  0  0
  -24.6524  -15.8643   20.5885 H   0  0  0  0  0  0
  -26.2839  -15.6387   20.2067 H   0  0  0  0  0  0
  -26.7482  -32.4978   23.0783 H   0  0  0  0  0  0
  -25.0068  -33.9355   25.0072 H   0  0  0  0  0  0
  -22.8225  -31.2459   21.3260 H   0  0  0  0  0  0
  -23.3739  -35.9483   23.3255 H   0  0  0  0  0  0
  -24.3536  -36.8899   22.2083 H   0  0  0  0  0  0
  -23.7256  -37.6311   23.6791 H   0  0  0  0  0  0
  -26.2737  -31.2939   20.6263 H   0  0  0  0  0  0
  -26.9327  -30.6284   22.0725 H   0  0  0  0  0  0
  -28.1745  -28.4562   21.2694 H   0  0  0  0  0  0
  -25.8443  -25.6537   18.9987 H   0  0  0  0  0  0
  -24.0142  -27.2313   18.9459 H   0  0  0  0  0  0
  -23.9248  -30.4802   19.3847 H   0  0  0  0  0  0
  -22.8568  -29.1790   19.8162 H   0  0  0  0  0  0
  -25.1331  -36.1614   25.0743 H   0  0  0  0  0  0
  -21.0039  -28.3405   24.1273 H   0  0  0  0  0  0
  -20.5650  -26.2381   23.3653 H   0  0  0  0  0  0
  -21.6647  -26.7362   22.1214 H   0  0  0  0  0  0
  -19.6906  -25.6265   21.1279 H   0  0  0  0  0  0
  -19.6731  -27.3103   20.6667 H   0  0  0  0  0  0
  -17.4226  -26.6672   21.4012 H   0  0  0  0  0  0
  -18.0352  -26.0127   22.9026 H   0  0  0  0  0  0
  -19.7989  -30.7336   24.2126 H   0  0  0  0  0  0
  -17.5061  -31.6249   24.5170 H   0  0  0  0  0  0
  -15.5388  -30.2940   23.7741 H   0  0  0  0  0  0
  -15.8718  -28.0821   22.7056 H   0  0  0  0  0  0
  -24.5878  -30.7136   25.7609 H   0  0  0  0  0  0
  -24.8838  -32.3026   26.4546 H   0  0  0  0  0  0
  -25.7866  -30.9097   27.0213 H   0  0  0  0  0  0
  -26.3239  -29.6447   24.1604 H   0  0  0  0  0  0
  -27.4004  -29.7304   25.5304 H   0  0  0  0  0  0
  -27.9203  -30.3945   24.0053 H   0  0  0  0  0  0
  -27.2563  -33.3774   26.1831 H   0  0  0  0  0  0
  -28.3969  -32.6856   25.0422 H   0  0  0  0  0  0
  -28.0575  -31.8717   26.5634 H   0  0  0  0  0  0
  -28.2493  -38.0063   24.7520 H   0  0  0  0  0  0
  -28.1106  -36.2583   24.6271 H   0  0  0  0  0  0
  -27.2254  -37.1328   25.8856 H   0  0  0  0  0  0
  -20.9668  -29.8791   21.6612 H   0  0  0  0  0  0
  -26.0054  -38.2660   24.1518 H   0  0  0  0  0  0
  -31.5748  -18.0220   20.9586 H   0  0  0  0  0  0
  -31.0159  -18.3688   19.3787 H   0  0  0  0  0  0
  -31.0576  -20.4878   20.7385 H   0  0  0  0  0  0
  -30.1489  -19.7753   22.0180 H   0  0  0  0  0  0
  -27.1916  -19.5871   19.7721 H   0  0  0  0  0  0
  -28.5660  -19.4000   18.7566 H   0  0  0  0  0  0
  -27.8757  -17.1384   19.6341 H   0  0  0  0  0  0
  -28.2784  -18.0957   22.4960 H   0  0  0  0  0  0
  -27.6911  -16.5213   22.0011 H   0  0  0  0  0  0
  -26.7329  -17.9513   21.6636 H   0  0  0  0  0  0
  -33.3068  -21.5803   17.6528 H   0  0  0  0  0  0
  -32.1100  -21.9320   16.4059 H   0  0  0  0  0  0
  -31.7178  -20.8564   17.7498 H   0  0  0  0  0  0
  -33.7089  -23.8206   18.3942 H   0  0  0  0  0  0
  -32.3921  -24.9234   18.7472 H   0  0  0  0  0  0
  -32.7167  -24.4386   17.0756 H   0  0  0  0  0  0
  -29.5963  -21.2907   18.1639 H   0  0  0  0  0  0
  -28.3694  -22.4678   17.9675 H   0  0  0  0  0  0
  -30.1366  -24.2799   18.4714 H   0  0  0  0  0  0
  -30.2258  -23.4703   16.9342 H   0  0  0  0  0  0
  -27.7063  -23.7829   21.3899 H   0  0  0  0  0  0
  -27.0641  -23.7240   19.8147 H   0  0  0  0  0  0
  -29.9116  -22.5649   20.5130 H   0  0  0  0  0  0
  -28.4096  -20.6885   21.3802 H   0  0  0  0  0  0
  -31.8591  -22.6716   19.2347 H   0  0  0  0  0  0
  1 25  1  0  0  0
  1 30  2  0  0  0
  1 82  1  0  0  0
  2  3  1  0  0  0
  2 25  1  0  0  0
  2 85  1  0  0  0
  2 86  1  0  0  0
  3  4  1  0  0  0
  3 87  1  0  0  0
  3 88  1  0  0  0
  4  5  1  0  0  0
  4 89  1  0  0  0
  4 90  1  0  0  0
  5  6  1  0  0  0
  5 26  1  0  0  0
  5 91  1  0  0  0
  6 25  1  0  0  0
  6 92  1  0  0  0
  6 93  1  0  0  0
  7  8  2  0  0  0
  7 26  1  0  0  0
  7 29  1  0  0  0
  8  9  1  0  0  0
  8 22  1  0  0  0
  9 10  1  0  0  0
  9 27  2  0  0  0
 10 11  2  0  0  0
 10 15  1  0  0  0
 11 12  1  0  0  0
 11 94  1  0  0  0
 12 13  2  0  0  0
 12 95  1  0  0  0
 13 14  1  0  0  0
 13 31  1  0  0  0
 14 15  2  0  0  0
 14 96  1  0  0  0
 15 97  1  0  0  0
 16 17  2  0  0  0
 16 21  1  0  0  0
 16 31  1  0  0  0
 17 18  1  0  0  0
 17 98  1  0  0  0
 18 19  2  0  0  0
 18 99  1  0  0  0
 19 20  1  0  0  0
 19 24  1  0  0  0
 20 21  2  0  0  0
 20100  1  0  0  0
 21 23  1  0  0  0
 22 28  1  0  0  0
 22 32  2  0  0  0
 26 27  1  0  0  0
 28101  1  0  0  0
 28102  1  0  0  0
 29103  1  0  0  0
 29104  1  0  0  0
 33 34  1  0  0  0
 33 66  1  0  0  0
 33 70  2  0  0  0
 34 36  1  0  0  0
 34 59  1  0  0  0
 34105  1  0  0  0
 35 44  2  0  0  0
 35 45  1  0  0  0
 35 68  1  0  0  0
 36 56  1  0  0  0
 36106  1  0  0  0
 37 39  1  0  0  0
 37 47  1  0  0  0
 37 66  1  0  0  0
 37107  1  0  0  0
 38 43  2  0  0  0
 38 46  1  0  0  0
 38 47  1  0  0  0
 39 64  1  0  0  0
 39 67  2  0  0  0
 40 52  1  0  0  0
 40 53  2  0  0  0
 40 58  1  0  0  0
 41108  1  0  0  0
 41109  1  0  0  0
 41110  1  0  0  0
 41 48  1  0  0  0
 42 43  1  0  0  0
 42 66  1  0  0  0
 42111  1  0  0  0
 42112  1  0  0  0
 43 44  1  0  0  0
 44113  1  0  0  0
 45 46  2  0  0  0
 45114  1  0  0  0
 46115  1  0  0  0
 47116  1  0  0  0
 47117  1  0  0  0
 48 56  1  0  0  0
 48 65  1  0  0  0
 48118  1  0  0  0
 49 50  1  0  0  0
 49 53  1  0  0  0
 49 64  1  0  0  0
 49119  1  0  0  0
 50 51  1  0  0  0
 50120  1  0  0  0
 50121  1  0  0  0
 51 52  1  0  0  0
 51122  1  0  0  0
 51123  1  0  0  0
 52124  1  0  0  0
 52125  1  0  0  0
 53 54  1  0  0  0
 54 55  2  0  0  0
 54126  1  0  0  0
 55 57  1  0  0  0
 55127  1  0  0  0
 56 69  2  0  0  0
 57 58  2  0  0  0
 57128  1  0  0  0
 58129  1  0  0  0
 59 60  1  0  0  0
 59 61  1  0  0  0
 59 62  1  0  0  0
 60130  1  0  0  0
 60131  1  0  0  0
 60132  1  0  0  0
 61133  1  0  0  0
 61134  1  0  0  0
 61135  1  0  0  0
 62136  1  0  0  0
 62137  1  0  0  0
 62138  1  0  0  0
 63 65  1  0  0  0
 63139  1  0  0  0
 63140  1  0  0  0
 63141  1  0  0  0
 64142  1  0  0  0
 65143  1  0  0  0
 68 80  1  0  0  0
 71 72  1  0  0  0
 71 82  1  0  0  0
 71144  1  0  0  0
 71145  1  0  0  0
 72146  1  0  0  0
 72147  1  0  0  0
 72 83  1  0  0  0
 73 74  1  0  0  0
 73 83  1  0  0  0
 73148  1  0  0  0
 73149  1  0  0  0
 74 75  1  0  0  0
 74 82  1  0  0  0
 74150  1  0  0  0
 75151  1  0  0  0
 75152  1  0  0  0
 75153  1  0  0  0
 76154  1  0  0  0
 76155  1  0  0  0
 76156  1  0  0  0
 76 84  1  0  0  0
 77 84  1  0  0  0
 77157  1  0  0  0
 77158  1  0  0  0
 77159  1  0  0  0
 78 79  1  0  0  0
 78160  1  0  0  0
 78161  1  0  0  0
 78 81  1  0  0  0
 79 84  1  0  0  0
 79162  1  0  0  0
 79163  1  0  0  0
 80 81  1  0  0  0
 80164  1  0  0  0
 80165  1  0  0  0
 81 83  1  0  0  0
 81166  1  0  0  0
 83167  1  0  0  0
 84168  1  0  0  0
M  CHG  2  83   1  84   1
M  ISO  4   1 100  68 101  80 101  82 100
M  END
> <chiral flag>
0

> <version>
0

> <s_m_source_file>
/data/baiqing/PycharmProjects/Reinvent-master-3.2/result/LINK_invent/BTK/process_docking_weight1_custom_sum_contain_oxygen_bond_distance_aromatic_linkinvent_7_9_3/rearranged_h_0111.sdf

> <i_m_source_file_index>
40

> <r_mmod_Potential_Energy-OPLS-2005>
2053.24975585938

> <r_mmod_Stretch_Energy-OPLS-2005>
842.320129394531

> <r_mmod_Bend_Energy-OPLS-2005>
681.236083984375

> <r_mmod_Torsional_Energy-OPLS-2005>
421.621643066406

> <r_mmod_Improper_Torsional_Energy-OPLS-2005>
4.01794576644897

> <r_mmod_Van_der_Waal_Energy-OPLS-2005>
111.417274475098

> <r_mmod_Electrostatic_Energy-OPLS-2005>
212.083267211914

> <r_mmod_Solvation_Energy-OPLS-2005>
-938.745300292969

> <b_mmod_Minimization_Converged-OPLS-2005>
0

> <r_mmod_RMS_Derivative-OPLS-2005>
3.39855766296387

$$$$
40
                    3D
 Structure written by MMmdl.
160168  0  0  1  0            999 V2000
  -30.5127  -15.0139   20.4044 C   0  0  0  0  0  0
  -30.4377  -12.6329   19.5106 C   0  0  0  0  0  0
  -29.5256  -12.5442   18.2655 C   0  0  0  0  0  0
  -28.0606  -12.3137   18.6810 C   0  0  0  0  0  0
  -27.6222  -13.2521   19.8350 C   0  0  2  0  0  0
  -28.6610  -13.3106   20.9749 C   0  0  0  0  0  0
  -25.2438  -13.8198   20.5744 C   0  0  0  0  0  0
  -24.1758  -13.0424   20.9268 C   0  0  0  0  0  0
  -24.6377  -11.6907   20.8746 C   0  0  0  0  0  0
  -23.9070  -10.4278   21.0396 C   0  0  0  0  0  0
  -24.3620   -9.4189   21.9177 C   0  0  0  0  0  0
  -23.6293   -8.2223   22.0755 C   0  0  0  0  0  0
  -22.4278   -8.0261   21.3540 C   0  0  0  0  0  0
  -21.9910   -9.0237   20.4644 C   0  0  0  0  0  0
  -22.7239  -10.2115   20.3049 C   0  0  0  0  0  0
  -21.6853   -6.0723   22.5273 C   0  0  0  0  0  0
  -21.4013   -6.5632   23.8207 C   0  0  0  0  0  0
  -21.3667   -5.6787   24.9173 C   0  0  0  0  0  0
  -21.6054   -4.3050   24.7224 C   0  0  0  0  0  0
  -21.8821   -3.8137   23.4346 C   0  0  0  0  0  0
  -21.9194   -4.6952   22.3399 C   0  0  0  0  0  0
  -22.7784  -13.5203   21.1911 C   0  0  0  0  0  0
  -22.1658   -4.2141   21.0974 F   0  0  0  0  0  0
  -21.5641   -3.4535   25.7739 F   0  0  0  0  0  0
  -29.9301  -13.7423   20.3735 N   0  0  0  0  0  0
  -26.2845  -12.9430   20.3224 N   0  0  0  0  0  0
  -25.9304  -11.6559   20.5716 N   0  0  0  0  0  0
  -22.0427  -12.8180   22.0451 N   0  0  0  0  0  0
  -25.4102  -15.1924   20.4211 N   0  0  0  0  0  0
  -31.7182  -15.0720   20.1351 O   0  0  0  0  0  0
  -21.6643   -6.8860   21.4235 O   0  0  0  0  0  0
  -22.3480  -14.5496   20.6724 O   0  0  0  0  0  0
  -24.6489  -31.8397   23.1852 C   0  0  0  0  0  0
  -25.9232  -32.4679   23.8262 C   0  0  1  0  0  0
  -27.2198  -27.0853   20.1692 C   0  0  0  0  0  0
  -25.5958  -33.8488   24.2178 N   0  0  0  0  0  0
  -23.4575  -30.4570   21.5314 C   0  0  2  0  0  0
  -24.9110  -28.8744   20.1146 C   0  0  0  0  0  0
  -22.7603  -29.4522   22.4839 C   0  0  0  0  0  0
  -18.0311  -28.1413   22.8474 C   0  0  0  0  0  0
  -24.1488  -36.7236   23.2636 C   0  0  0  0  0  0
  -26.0170  -30.6993   21.3921 C   0  0  0  0  0  0
  -26.0907  -29.3040   20.7372 C   0  0  0  0  0  0
  -27.2479  -28.4274   20.7438 C   0  0  0  0  0  0
  -26.0173  -26.7761   19.4995 C   0  0  0  0  0  0
  -24.8895  -27.6253   19.4778 C   0  0  0  0  0  0
  -23.6906  -29.7841   20.1524 C   0  0  0  0  0  0
  -25.4122  -36.3025   24.0312 C   0  0  1  0  0  0
  -20.5927  -28.3744   23.1219 C   0  0  2  0  0  0
  -20.6793  -26.9443   22.5405 C   0  0  0  0  0  0
  -19.5769  -26.6389   21.5215 C   0  0  0  0  0  0
  -18.1946  -26.7950   22.1624 C   0  0  0  0  0  0
  -19.1571  -28.8898   23.2835 C   0  0  0  0  0  0
  -18.9483  -30.1488   23.8869 C   0  0  0  0  0  0
  -17.6478  -30.6602   24.0567 C   0  0  0  0  0  0
  -25.9083  -34.9400   23.5059 C   0  0  0  0  0  0
  -16.5369  -29.9102   23.6336 C   0  0  0  0  0  0
  -16.7297  -28.6523   23.0353 C   0  0  0  0  0  0
  -26.4529  -31.6548   25.0714 C   0  0  0  0  0  0
  -25.3694  -31.3765   26.1395 C   0  0  0  0  0  0
  -27.0381  -30.2930   24.6325 C   0  0  0  0  0  0
  -27.6064  -32.4301   25.7508 C   0  0  0  0  0  0
  -27.5589  -37.1759   24.8451 C   0  0  0  0  0  0
  -21.4286  -29.3059   22.3585 N   0  0  0  0  0  0
  -26.4273  -37.3754   23.9432 N   0  0  0  0  0  0
  -24.7286  -31.0200   22.0919 N   0  0  0  0  0  0
  -23.4212  -28.8074   23.3020 O   0  0  0  0  0  0
  -28.2384  -26.0442   20.2004 O   0  0  0  0  0  0
  -26.5678  -34.8911   22.4647 O   0  0  0  0  0  0
  -23.5589  -32.1291   23.7026 O   0  0  0  0  0  0
  -29.6676  -22.7184   19.4805 C   0  0  0  0  0  0
  -29.9010  -21.3421   19.4536 C   0  0  0  0  0  0
  -28.6008  -23.0822   20.3738 C   0  0  0  0  0  0
  -28.2898  -21.7700   20.8742 C   0  0  0  0  0  0
  -27.2519  -21.4799   21.9182 C   0  0  0  0  0  0
  -27.8794  -24.8010   22.2365 C   0  0  0  0  0  0
  -26.4645  -18.7510   19.7526 C   0  0  0  0  0  0
  -30.0407  -17.7858   20.4141 C   0  0  0  0  0  0
  -27.8907  -24.5912   20.7120 C   0  0  1  0  0  0
  -28.8703  -19.0337   20.4440 C   0  0  1  0  0  0
  -29.0510  -20.6437   20.3120 N   0  0  0  0  0  0
  -29.7298  -16.2107   20.5335 N   0  0  0  0  0  0
  -27.8947  -18.7018   19.3844 N   0  3  0  0  0  0
  -31.4718  -12.7957   19.2037 H   0  0  0  0  0  0
  -30.4366  -11.6900   20.0589 H   0  0  0  0  0  0
  -29.8602  -11.7442   17.6052 H   0  0  0  0  0  0
  -29.6021  -13.4697   17.6926 H   0  0  0  0  0  0
  -27.9693  -11.2739   18.9971 H   0  0  0  0  0  0
  -27.3984  -12.4307   17.8228 H   0  0  0  0  0  0
  -27.5727  -14.2474   19.3938 H   0  0  0  0  0  0
  -28.7637  -12.3409   21.4614 H   0  0  0  0  0  0
  -28.3452  -14.0142   21.7466 H   0  0  0  0  0  0
  -25.2760   -9.5677   22.4755 H   0  0  0  0  0  0
  -24.0012   -7.4618   22.7466 H   0  0  0  0  0  0
  -21.0852   -8.8747   19.8934 H   0  0  0  0  0  0
  -22.3689  -10.9657   19.6164 H   0  0  0  0  0  0
  -21.1981   -7.6139   23.9710 H   0  0  0  0  0  0
  -21.1504   -6.0515   25.9084 H   0  0  0  0  0  0
  -22.0591   -2.7599   23.2846 H   0  0  0  0  0  0
  -22.4075  -11.9850   22.4836 H   0  0  0  0  0  0
  -21.1032  -13.1170   22.2645 H   0  0  0  0  0  0
  -24.6334  -15.8346   20.5285 H   0  0  0  0  0  0
  -26.2362  -15.6173   20.0299 H   0  0  0  0  0  0
  -26.7303  -32.5278   23.0996 H   0  0  0  0  0  0
  -25.0076  -33.9601   25.0308 H   0  0  0  0  0  0
  -22.7628  -31.2837   21.3707 H   0  0  0  0  0  0
  -23.3792  -35.9517   23.3221 H   0  0  0  0  0  0
  -24.3592  -36.8953   22.2067 H   0  0  0  0  0  0
  -23.7175  -37.6378   23.6727 H   0  0  0  0  0  0
  -26.1748  -31.4515   20.6178 H   0  0  0  0  0  0
  -26.8856  -30.7553   22.0365 H   0  0  0  0  0  0
  -28.1465  -28.7526   21.2481 H   0  0  0  0  0  0
  -25.9282  -25.8234   18.9975 H   0  0  0  0  0  0
  -23.9926  -27.2925   18.9746 H   0  0  0  0  0  0
  -23.8370  -30.5581   19.3982 H   0  0  0  0  0  0
  -22.8050  -29.2305   19.8352 H   0  0  0  0  0  0
  -25.1308  -36.1843   25.0798 H   0  0  0  0  0  0
  -21.0012  -28.3340   24.1342 H   0  0  0  0  0  0
  -20.5689  -26.2361   23.3633 H   0  0  0  0  0  0
  -21.6661  -26.7441   22.1205 H   0  0  0  0  0  0
  -19.6933  -25.6290   21.1276 H   0  0  0  0  0  0
  -19.6715  -27.3175   20.6729 H   0  0  0  0  0  0
  -17.4219  -26.6685   21.4026 H   0  0  0  0  0  0
  -18.0348  -26.0107   22.9037 H   0  0  0  0  0  0
  -19.7953  -30.7312   24.2229 H   0  0  0  0  0  0
  -17.5031  -31.6280   24.5176 H   0  0  0  0  0  0
  -15.5371  -30.3001   23.7676 H   0  0  0  0  0  0
  -15.8691  -28.0842   22.7079 H   0  0  0  0  0  0
  -24.5884  -30.7106   25.7708 H   0  0  0  0  0  0
  -24.8869  -32.2954   26.4737 H   0  0  0  0  0  0
  -25.7950  -30.8986   27.0227 H   0  0  0  0  0  0
  -26.2996  -29.6654   24.1323 H   0  0  0  0  0  0
  -27.3953  -29.7245   25.4921 H   0  0  0  0  0  0
  -27.8933  -30.4147   23.9676 H   0  0  0  0  0  0
  -27.2676  -33.3628   26.2036 H   0  0  0  0  0  0
  -28.3917  -32.6807   25.0361 H   0  0  0  0  0  0
  -28.0685  -31.8442   26.5466 H   0  0  0  0  0  0
  -28.2535  -38.0128   24.7606 H   0  0  0  0  0  0
  -28.1157  -36.2664   24.6142 H   0  0  0  0  0  0
  -27.2323  -37.1242   25.8852 H   0  0  0  0  0  0
  -20.9509  -29.8766   21.6752 H   0  0  0  0  0  0
  -26.0135  -38.2801   24.1515 H   0  0  0  0  0  0
  -30.2200  -23.4182   18.8676 H   0  0  0  0  0  0
  -30.6095  -20.7845   18.8541 H   0  0  0  0  0  0
  -26.3542  -22.0780   21.7600 H   0  0  0  0  0  0
  -27.6376  -21.7129   22.9107 H   0  0  0  0  0  0
  -26.9409  -20.4393   21.9453 H   0  0  0  0  0  0
  -27.3525  -25.7139   22.5130 H   0  0  0  0  0  0
  -28.8925  -24.8778   22.6299 H   0  0  0  0  0  0
  -27.3771  -23.9942   22.7617 H   0  0  0  0  0  0
  -25.8596  -18.3379   18.9454 H   0  0  0  0  0  0
  -26.1302  -19.7745   19.9153 H   0  0  0  0  0  0
  -26.2575  -18.1657   20.6491 H   0  0  0  0  0  0
  -30.7687  -18.0106   21.1937 H   0  0  0  0  0  0
  -30.5988  -17.9029   19.4844 H   0  0  0  0  0  0
  -26.8568  -24.4139   20.4211 H   0  0  0  0  0  0
  -28.3876  -18.8770   21.4073 H   0  0  0  0  0  0
  -28.7738  -16.0047   20.7800 H   0  0  0  0  0  0
  -28.0549  -19.3182   18.6043 H   0  0  0  0  0  0
  -28.1078  -17.7711   19.0723 H   0  0  0  0  0  0
  1 25  1  0  0  0
  1 30  2  0  0  0
  1 82  1  0  0  0
  2  3  1  0  0  0
  2 25  1  0  0  0
  2 84  1  0  0  0
  2 85  1  0  0  0
  3  4  1  0  0  0
  3 86  1  0  0  0
  3 87  1  0  0  0
  4  5  1  0  0  0
  4 88  1  0  0  0
  4 89  1  0  0  0
  5  6  1  0  0  0
  5 26  1  0  0  0
  5 90  1  0  0  0
  6 25  1  0  0  0
  6 91  1  0  0  0
  6 92  1  0  0  0
  7  8  2  0  0  0
  7 26  1  0  0  0
  7 29  1  0  0  0
  8  9  1  0  0  0
  8 22  1  0  0  0
  9 10  1  0  0  0
  9 27  2  0  0  0
 10 11  2  0  0  0
 10 15  1  0  0  0
 11 12  1  0  0  0
 11 93  1  0  0  0
 12 13  2  0  0  0
 12 94  1  0  0  0
 13 14  1  0  0  0
 13 31  1  0  0  0
 14 15  2  0  0  0
 14 95  1  0  0  0
 15 96  1  0  0  0
 16 17  2  0  0  0
 16 21  1  0  0  0
 16 31  1  0  0  0
 17 18  1  0  0  0
 17 97  1  0  0  0
 18 19  2  0  0  0
 18 98  1  0  0  0
 19 20  1  0  0  0
 19 24  1  0  0  0
 20 21  2  0  0  0
 20 99  1  0  0  0
 21 23  1  0  0  0
 22 28  1  0  0  0
 22 32  2  0  0  0
 26 27  1  0  0  0
 28100  1  0  0  0
 28101  1  0  0  0
 29102  1  0  0  0
 29103  1  0  0  0
 33 34  1  0  0  0
 33 66  1  0  0  0
 33 70  2  0  0  0
 34 36  1  0  0  0
 34 59  1  0  0  0
 34104  1  0  0  0
 35 44  2  0  0  0
 35 45  1  0  0  0
 35 68  1  0  0  0
 36 56  1  0  0  0
 36105  1  0  0  0
 37 39  1  0  0  0
 37 47  1  0  0  0
 37 66  1  0  0  0
 37106  1  0  0  0
 38 43  2  0  0  0
 38 46  1  0  0  0
 38 47  1  0  0  0
 39 64  1  0  0  0
 39 67  2  0  0  0
 40 52  1  0  0  0
 40 53  2  0  0  0
 40 58  1  0  0  0
 41107  1  0  0  0
 41108  1  0  0  0
 41109  1  0  0  0
 41 48  1  0  0  0
 42 43  1  0  0  0
 42 66  1  0  0  0
 42110  1  0  0  0
 42111  1  0  0  0
 43 44  1  0  0  0
 44112  1  0  0  0
 45 46  2  0  0  0
 45113  1  0  0  0
 46114  1  0  0  0
 47115  1  0  0  0
 47116  1  0  0  0
 48 56  1  0  0  0
 48 65  1  0  0  0
 48117  1  0  0  0
 49 50  1  0  0  0
 49 53  1  0  0  0
 49 64  1  0  0  0
 49118  1  0  0  0
 50 51  1  0  0  0
 50119  1  0  0  0
 50120  1  0  0  0
 51 52  1  0  0  0
 51121  1  0  0  0
 51122  1  0  0  0
 52123  1  0  0  0
 52124  1  0  0  0
 53 54  1  0  0  0
 54 55  2  0  0  0
 54125  1  0  0  0
 55 57  1  0  0  0
 55126  1  0  0  0
 56 69  2  0  0  0
 57 58  2  0  0  0
 57127  1  0  0  0
 58128  1  0  0  0
 59 60  1  0  0  0
 59 61  1  0  0  0
 59 62  1  0  0  0
 60129  1  0  0  0
 60130  1  0  0  0
 60131  1  0  0  0
 61132  1  0  0  0
 61133  1  0  0  0
 61134  1  0  0  0
 62135  1  0  0  0
 62136  1  0  0  0
 62137  1  0  0  0
 63 65  1  0  0  0
 63138  1  0  0  0
 63139  1  0  0  0
 63140  1  0  0  0
 64141  1  0  0  0
 65142  1  0  0  0
 68 79  1  0  0  0
 71 72  2  0  0  0
 71 73  1  0  0  0
 71143  1  0  0  0
 72 81  1  0  0  0
 72144  1  0  0  0
 73 74  2  0  0  0
 73 79  1  0  0  0
 74 75  1  0  0  0
 74 81  1  0  0  0
 75145  1  0  0  0
 75146  1  0  0  0
 75147  1  0  0  0
 76148  1  0  0  0
 76149  1  0  0  0
 76150  1  0  0  0
 76 79  1  0  0  0
 77 83  1  0  0  0
 77151  1  0  0  0
 77152  1  0  0  0
 77153  1  0  0  0
 78 82  1  0  0  0
 78154  1  0  0  0
 78155  1  0  0  0
 78 80  1  0  0  0
 79156  1  0  0  0
 80 81  1  0  0  0
 80 83  1  0  0  0
 80157  1  0  0  0
 82158  1  0  0  0
 83159  1  0  0  0
 83160  1  0  0  0
M  CHG  1  83   1
M  ISO  4   1 100  68 101  79 101  82 100
M  END
> <chiral flag>
0

> <version>
0

> <s_m_source_file>
/data/baiqing/PycharmProjects/Reinvent-master-3.2/result/LINK_invent/BTK/process_docking_weight1_custom_sum_contain_oxygen_bond_distance_aromatic_linkinvent_7_9_3/rearranged_h_0111.sdf

> <i_m_source_file_index>
41

> <r_mmod_Potential_Energy-OPLS-2005>
423.075927734375

> <r_mmod_Stretch_Energy-OPLS-2005>
325.637939453125

> <r_mmod_Bend_Energy-OPLS-2005>
294.388793945312

> <r_mmod_Torsional_Energy-OPLS-2005>
289.281005859375

> <r_mmod_Improper_Torsional_Energy-OPLS-2005>
5.33401775360107

> <r_mmod_Van_der_Waal_Energy-OPLS-2005>
103.998344421387

> <r_mmod_Electrostatic_Energy-OPLS-2005>
-326.638153076172

> <r_mmod_Solvation_Energy-OPLS-2005>
-514.0546875

> <b_mmod_Minimization_Converged-OPLS-2005>
0

> <r_mmod_RMS_Derivative-OPLS-2005>
2.0442042350769

$$$$
41
                    3D
 Structure written by MMmdl.
171179  0  0  1  0            999 V2000
  -30.3810  -15.4166   20.3891 C   0  0  0  0  0  0
  -30.4424  -12.9219   19.5569 C   0  0  0  0  0  0
  -29.5288  -12.6117   18.3346 C   0  0  0  0  0  0
  -28.0952  -12.2946   18.7846 C   0  0  0  0  0  0
  -27.6290  -13.2598   19.8991 C   0  0  2  0  0  0
  -28.6762  -13.4725   21.0204 C   0  0  0  0  0  0
  -25.2294  -13.7975   20.5637 C   0  0  0  0  0  0
  -24.1648  -13.0223   20.9179 C   0  0  0  0  0  0
  -24.6393  -11.6800   20.8874 C   0  0  0  0  0  0
  -23.9081  -10.4190   21.0470 C   0  0  0  0  0  0
  -24.3603   -9.4108   21.9252 C   0  0  0  0  0  0
  -23.6250   -8.2156   22.0773 C   0  0  0  0  0  0
  -22.4250   -8.0249   21.3550 C   0  0  0  0  0  0
  -21.9910   -9.0217   20.4662 C   0  0  0  0  0  0
  -22.7246  -10.2093   20.3102 C   0  0  0  0  0  0
  -21.6800   -6.0735   22.5276 C   0  0  0  0  0  0
  -21.3970   -6.5612   23.8215 C   0  0  0  0  0  0
  -21.3647   -5.6764   24.9166 C   0  0  0  0  0  0
  -21.6031   -4.3032   24.7214 C   0  0  0  0  0  0
  -21.8825   -3.8146   23.4335 C   0  0  0  0  0  0
  -21.9173   -4.6962   22.3399 C   0  0  0  0  0  0
  -22.7726  -13.5145   21.1746 C   0  0  0  0  0  0
  -22.1653   -4.2167   21.0981 F   0  0  0  0  0  0
  -21.5630   -3.4506   25.7731 F   0  0  0  0  0  0
  -29.8711  -14.0624   20.3811 N   0  0  0  0  0  0
  -26.2919  -12.9365   20.3717 N   0  0  0  0  0  0
  -25.9407  -11.6486   20.6129 N   0  0  0  0  0  0
  -22.0279  -12.8265   22.0343 N   0  0  0  0  0  0
  -25.3602  -15.1604   20.3716 N   0  0  0  0  0  0
  -31.5813  -15.4355   20.0796 O   0  0  0  0  0  0
  -21.6544   -6.8889   21.4260 O   0  0  0  0  0  0
  -22.3590  -14.5513   20.6621 O   0  0  0  0  0  0
  -24.6713  -31.8165   23.1637 C   0  0  0  0  0  0
  -25.9325  -32.4565   23.8182 C   0  0  1  0  0  0
  -27.2520  -26.8756   20.1998 C   0  0  0  0  0  0
  -25.5967  -33.8380   24.2090 N   0  0  0  0  0  0
  -23.4939  -30.4177   21.5154 C   0  0  2  0  0  0
  -24.9547  -28.7884   20.1242 C   0  0  0  0  0  0
  -22.7772  -29.4335   22.4790 C   0  0  0  0  0  0
  -18.0344  -28.1385   22.8484 C   0  0  0  0  0  0
  -24.1489  -36.7176   23.2655 C   0  0  0  0  0  0
  -26.0657  -30.6044   21.4035 C   0  0  0  0  0  0
  -26.1406  -29.1854   20.7537 C   0  0  0  0  0  0
  -27.2815  -28.2535   20.7595 C   0  0  0  0  0  0
  -26.0339  -26.6419   19.5160 C   0  0  0  0  0  0
  -24.9277  -27.5370   19.4819 C   0  0  0  0  0  0
  -23.7434  -29.7236   20.1487 C   0  0  0  0  0  0
  -25.4124  -36.2973   24.0337 C   0  0  1  0  0  0
  -20.5993  -28.3672   23.1184 C   0  0  2  0  0  0
  -20.6806  -26.9350   22.5403 C   0  0  0  0  0  0
  -19.5743  -26.6292   21.5258 C   0  0  0  0  0  0
  -18.1928  -26.7929   22.1634 C   0  0  0  0  0  0
  -19.1634  -28.8852   23.2815 C   0  0  0  0  0  0
  -18.9557  -30.1427   23.8887 C   0  0  0  0  0  0
  -17.6546  -30.6554   24.0612 C   0  0  0  0  0  0
  -25.9090  -34.9345   23.5046 C   0  0  0  0  0  0
  -16.5421  -29.9089   23.6366 C   0  0  0  0  0  0
  -16.7341  -28.6502   23.0387 C   0  0  0  0  0  0
  -26.4563  -31.6517   25.0724 C   0  0  0  0  0  0
  -25.3695  -31.3767   26.1401 C   0  0  0  0  0  0
  -27.0468  -30.2888   24.6465 C   0  0  0  0  0  0
  -27.6082  -32.4320   25.7497 C   0  0  0  0  0  0
  -27.5584  -37.1755   24.8479 C   0  0  0  0  0  0
  -21.4425  -29.2969   22.3570 N   0  0  0  0  0  0
  -26.4285  -37.3704   23.9439 N   0  0  0  0  0  0
  -24.7652  -30.9772   22.0790 N   0  0  0  0  0  0
  -23.4318  -28.7910   23.3035 O   0  0  0  0  0  0
  -28.2821  -25.7730   20.2361 O   0  0  0  0  0  0
  -26.5697  -34.8893   22.4647 O   0  0  0  0  0  0
  -23.5753  -32.1133   23.6670 O   0  0  0  0  0  0
  -28.8822  -20.8056   20.1963 C   0  0  0  0  0  0
  -27.7053  -20.0591   20.0801 C   0  0  0  0  0  0
  -29.2458  -18.2736   20.3277 C   0  0  0  0  0  0
  -29.5169  -22.7672   18.5363 C   0  0  0  0  0  0
  -25.9698  -21.6647   19.0173 C   0  0  0  0  0  0
  -25.9184  -21.0730   21.5206 C   0  0  0  0  0  0
  -24.8503  -16.5211   16.7283 C   0  0  0  0  0  0
  -26.9781  -15.4581   17.1552 C   0  0  0  0  0  0
  -26.9190  -17.6368   19.6969 C   0  0  0  0  0  0
  -26.5457  -17.6496   18.1874 C   0  0  0  0  0  0
  -28.0922  -24.1052   20.3486 C   0  0  0  0  0  0
  -29.1017  -22.5867   20.0153 C   0  0  1  0  0  0
  -26.2907  -20.6127   20.0986 C   0  0  0  0  0  0
  -29.8312  -19.5959   20.3803 N   0  0  0  0  0  0
  -27.9474  -18.6221   20.0262 N   0  0  0  0  0  0
  -29.5741  -16.6672   20.6611 N   0  0  0  0  0  0
  -25.9528  -16.3673   17.7084 N   0  3  0  0  0  0
  -31.4384  -13.1714   19.1985 H   0  0  0  0  0  0
  -30.5800  -12.0344   20.1759 H   0  0  0  0  0  0
  -29.9353  -11.7825   17.7516 H   0  0  0  0  0  0
  -29.5078  -13.4739   17.6651 H   0  0  0  0  0  0
  -28.0763  -11.2704   19.1667 H   0  0  0  0  0  0
  -27.4045  -12.3174   17.9408 H   0  0  0  0  0  0
  -27.5495  -14.2288   19.4294 H   0  0  0  0  0  0
  -28.9165  -12.5353   21.5314 H   0  0  0  0  0  0
  -28.3046  -14.1599   21.7849 H   0  0  0  0  0  0
  -25.2727   -9.5496   22.4874 H   0  0  0  0  0  0
  -23.9876   -7.4516   22.7500 H   0  0  0  0  0  0
  -21.0822   -8.8706   19.9025 H   0  0  0  0  0  0
  -22.3667  -10.9609   19.6213 H   0  0  0  0  0  0
  -21.1952   -7.6114   23.9714 H   0  0  0  0  0  0
  -21.1460   -6.0492   25.9064 H   0  0  0  0  0  0
  -22.0639   -2.7612   23.2800 H   0  0  0  0  0  0
  -22.3617  -11.9857   22.4761 H   0  0  0  0  0  0
  -21.0970  -13.1530   22.2486 H   0  0  0  0  0  0
  -24.4751  -15.5855   20.6323 H   0  0  0  0  0  0
  -26.0666  -15.4938   21.0151 H   0  0  0  0  0  0
  -26.7429  -32.5129   23.0939 H   0  0  0  0  0  0
  -25.0142  -33.9423   25.0270 H   0  0  0  0  0  0
  -22.8082  -31.2468   21.3367 H   0  0  0  0  0  0
  -23.3801  -35.9458   23.3273 H   0  0  0  0  0  0
  -24.3585  -36.8841   22.2083 H   0  0  0  0  0  0
  -23.7175  -37.6333   23.6699 H   0  0  0  0  0  0
  -26.2526  -31.3400   20.6196 H   0  0  0  0  0  0
  -26.9233  -30.6751   22.0602 H   0  0  0  0  0  0
  -28.1888  -28.5593   21.2643 H   0  0  0  0  0  0
  -25.9085  -25.6983   19.0043 H   0  0  0  0  0  0
  -24.0321  -27.2266   18.9625 H   0  0  0  0  0  0
  -23.9098  -30.4873   19.3897 H   0  0  0  0  0  0
  -22.8546  -29.1813   19.8253 H   0  0  0  0  0  0
  -25.1315  -36.1811   25.0829 H   0  0  0  0  0  0
  -21.0051  -28.3234   24.1315 H   0  0  0  0  0  0
  -20.5741  -26.2274   23.3646 H   0  0  0  0  0  0
  -21.6641  -26.7337   22.1125 H   0  0  0  0  0  0
  -19.6847  -25.6188   21.1309 H   0  0  0  0  0  0
  -19.6700  -27.3077   20.6765 H   0  0  0  0  0  0
  -17.4239  -26.6758   21.3971 H   0  0  0  0  0  0
  -18.0234  -26.0067   22.9034 H   0  0  0  0  0  0
  -19.8067  -30.7207   24.2235 H   0  0  0  0  0  0
  -17.5130  -31.6204   24.5265 H   0  0  0  0  0  0
  -15.5415  -30.2997   23.7654 H   0  0  0  0  0  0
  -15.8740  -28.0807   22.7143 H   0  0  0  0  0  0
  -24.5924  -30.7034   25.7758 H   0  0  0  0  0  0
  -24.8818  -32.2941   26.4698 H   0  0  0  0  0  0
  -25.7945  -30.9077   27.0277 H   0  0  0  0  0  0
  -26.3137  -29.6575   24.1418 H   0  0  0  0  0  0
  -27.3953  -29.7243   25.5122 H   0  0  0  0  0  0
  -27.9102  -30.4097   23.9922 H   0  0  0  0  0  0
  -27.2691  -33.3697   26.1905 H   0  0  0  0  0  0
  -28.3937  -32.6735   25.0324 H   0  0  0  0  0  0
  -28.0684  -31.8551   26.5527 H   0  0  0  0  0  0
  -28.2588  -38.0069   24.7568 H   0  0  0  0  0  0
  -28.1087  -36.2603   24.6246 H   0  0  0  0  0  0
  -27.2312  -37.1342   25.8882 H   0  0  0  0  0  0
  -20.9684  -29.8800   21.6823 H   0  0  0  0  0  0
  -26.0151  -38.2774   24.1437 H   0  0  0  0  0  0
  -30.1940  -21.9784   18.2074 H   0  0  0  0  0  0
  -30.0061  -23.7266   18.3656 H   0  0  0  0  0  0
  -28.6642  -22.7407   17.8586 H   0  0  0  0  0  0
  -26.8548  -22.1666   18.6604 H   0  0  0  0  0  0
  -25.2926  -22.4382   19.3808 H   0  0  0  0  0  0
  -25.4969  -21.2173   18.1433 H   0  0  0  0  0  0
  -26.0494  -20.2576   22.2348 H   0  0  0  0  0  0
  -24.8772  -21.3855   21.5997 H   0  0  0  0  0  0
  -26.5314  -21.9080   21.8585 H   0  0  0  0  0  0
  -24.4053  -15.5440   16.5296 H   0  0  0  0  0  0
  -25.2169  -16.9141   15.7759 H   0  0  0  0  0  0
  -24.0587  -17.1773   17.0872 H   0  0  0  0  0  0
  -26.5999  -14.4330   17.1174 H   0  0  0  0  0  0
  -27.8881  -15.4753   17.7503 H   0  0  0  0  0  0
  -27.2586  -15.7645   16.1460 H   0  0  0  0  0  0
  -27.2819  -16.6504   19.9535 H   0  0  0  0  0  0
  -26.0518  -17.7874   20.3416 H   0  0  0  0  0  0
  -27.4267  -17.8834   17.5859 H   0  0  0  0  0  0
  -25.8480  -18.4644   18.0144 H   0  0  0  0  0  0
  -27.7945  -23.9840   21.3908 H   0  0  0  0  0  0
  -27.1699  -23.9619   19.8002 H   0  0  0  0  0  0
  -30.0125  -22.7915   20.5766 H   0  0  0  0  0  0
  -25.5853  -19.8148   19.8910 H   0  0  0  0  0  0
  -28.7537  -16.3124   21.1262 H   0  0  0  0  0  0
  -25.5456  -15.9080   18.5208 H   0  0  0  0  0  0
  1 25  1  0  0  0
  1 30  2  0  0  0
  1 86  1  0  0  0
  2  3  1  0  0  0
  2 25  1  0  0  0
  2 88  1  0  0  0
  2 89  1  0  0  0
  3  4  1  0  0  0
  3 90  1  0  0  0
  3 91  1  0  0  0
  4  5  1  0  0  0
  4 92  1  0  0  0
  4 93  1  0  0  0
  5  6  1  0  0  0
  5 26  1  0  0  0
  5 94  1  0  0  0
  6 25  1  0  0  0
  6 95  1  0  0  0
  6 96  1  0  0  0
  7  8  2  0  0  0
  7 26  1  0  0  0
  7 29  1  0  0  0
  8  9  1  0  0  0
  8 22  1  0  0  0
  9 10  1  0  0  0
  9 27  2  0  0  0
 10 11  2  0  0  0
 10 15  1  0  0  0
 11 12  1  0  0  0
 11 97  1  0  0  0
 12 13  2  0  0  0
 12 98  1  0  0  0
 13 14  1  0  0  0
 13 31  1  0  0  0
 14 15  2  0  0  0
 14 99  1  0  0  0
 15100  1  0  0  0
 16 17  2  0  0  0
 16 21  1  0  0  0
 16 31  1  0  0  0
 17 18  1  0  0  0
 17101  1  0  0  0
 18 19  2  0  0  0
 18102  1  0  0  0
 19 20  1  0  0  0
 19 24  1  0  0  0
 20 21  2  0  0  0
 20103  1  0  0  0
 21 23  1  0  0  0
 22 28  1  0  0  0
 22 32  2  0  0  0
 26 27  1  0  0  0
 28104  1  0  0  0
 28105  1  0  0  0
 29106  1  0  0  0
 29107  1  0  0  0
 33 34  1  0  0  0
 33 66  1  0  0  0
 33 70  2  0  0  0
 34 36  1  0  0  0
 34 59  1  0  0  0
 34108  1  0  0  0
 35 44  2  0  0  0
 35 45  1  0  0  0
 35 68  1  0  0  0
 36 56  1  0  0  0
 36109  1  0  0  0
 37 39  1  0  0  0
 37 47  1  0  0  0
 37 66  1  0  0  0
 37110  1  0  0  0
 38 43  2  0  0  0
 38 46  1  0  0  0
 38 47  1  0  0  0
 39 64  1  0  0  0
 39 67  2  0  0  0
 40 52  1  0  0  0
 40 53  2  0  0  0
 40 58  1  0  0  0
 41111  1  0  0  0
 41112  1  0  0  0
 41113  1  0  0  0
 41 48  1  0  0  0
 42 43  1  0  0  0
 42 66  1  0  0  0
 42114  1  0  0  0
 42115  1  0  0  0
 43 44  1  0  0  0
 44116  1  0  0  0
 45 46  2  0  0  0
 45117  1  0  0  0
 46118  1  0  0  0
 47119  1  0  0  0
 47120  1  0  0  0
 48 56  1  0  0  0
 48 65  1  0  0  0
 48121  1  0  0  0
 49 50  1  0  0  0
 49 53  1  0  0  0
 49 64  1  0  0  0
 49122  1  0  0  0
 50 51  1  0  0  0
 50123  1  0  0  0
 50124  1  0  0  0
 51 52  1  0  0  0
 51125  1  0  0  0
 51126  1  0  0  0
 52127  1  0  0  0
 52128  1  0  0  0
 53 54  1  0  0  0
 54 55  2  0  0  0
 54129  1  0  0  0
 55 57  1  0  0  0
 55130  1  0  0  0
 56 69  2  0  0  0
 57 58  2  0  0  0
 57131  1  0  0  0
 58132  1  0  0  0
 59 60  1  0  0  0
 59 61  1  0  0  0
 59 62  1  0  0  0
 60133  1  0  0  0
 60134  1  0  0  0
 60135  1  0  0  0
 61136  1  0  0  0
 61137  1  0  0  0
 61138  1  0  0  0
 62139  1  0  0  0
 62140  1  0  0  0
 62141  1  0  0  0
 63 65  1  0  0  0
 63142  1  0  0  0
 63143  1  0  0  0
 63144  1  0  0  0
 64145  1  0  0  0
 65146  1  0  0  0
 68 81  1  0  0  0
 71 72  2  0  0  0
 71 82  1  0  0  0
 71 84  1  0  0  0
 72 83  1  0  0  0
 72 85  1  0  0  0
 73 84  2  0  0  0
 73 85  1  0  0  0
 73 86  1  0  0  0
 74147  1  0  0  0
 74148  1  0  0  0
 74149  1  0  0  0
 74 82  1  0  0  0
 75150  1  0  0  0
 75151  1  0  0  0
 75152  1  0  0  0
 75 83  1  0  0  0
 76 83  1  0  0  0
 76153  1  0  0  0
 76154  1  0  0  0
 76155  1  0  0  0
 77156  1  0  0  0
 77157  1  0  0  0
 77158  1  0  0  0
 77 87  1  0  0  0
 78 87  1  0  0  0
 78159  1  0  0  0
 78160  1  0  0  0
 78161  1  0  0  0
 79 80  1  0  0  0
 79 85  1  0  0  0
 79162  1  0  0  0
 79163  1  0  0  0
 80 87  1  0  0  0
 80164  1  0  0  0
 80165  1  0  0  0
 81 82  1  0  0  0
 81166  1  0  0  0
 81167  1  0  0  0
 82168  1  0  0  0
 83169  1  0  0  0
 86170  1  0  0  0
 87171  1  0  0  0
M  CHG  1  87   1
M  ISO  4   1 100  68 101  81 101  86 100
M  END
> <chiral flag>
0

> <version>
0

> <s_m_source_file>
/data/baiqing/PycharmProjects/Reinvent-master-3.2/result/LINK_invent/BTK/process_docking_weight1_custom_sum_contain_oxygen_bond_distance_aromatic_linkinvent_7_9_3/rearranged_h_0111.sdf

> <i_m_source_file_index>
42

> <r_mmod_Potential_Energy-OPLS-2005>
1493.31787109375

> <r_mmod_Stretch_Energy-OPLS-2005>
733.509399414062

> <r_mmod_Bend_Energy-OPLS-2005>
561.5966796875

> <r_mmod_Torsional_Energy-OPLS-2005>
313.449645996094

> <r_mmod_Improper_Torsional_Energy-OPLS-2005>
10.9451751708984

> <r_mmod_Van_der_Waal_Energy-OPLS-2005>
115.413154602051

> <r_mmod_Electrostatic_Energy-OPLS-2005>
-344.550201416016

> <r_mmod_Solvation_Energy-OPLS-2005>
-478.838562011719

> <b_mmod_Minimization_Converged-OPLS-2005>
0

> <r_mmod_RMS_Derivative-OPLS-2005>
8.31933116912842

$$$$
42
                    3D
 Structure written by MMmdl.
174182  0  0  1  0            999 V2000
  -30.7760  -14.4143   20.5982 C   0  0  0  0  0  0
  -30.4040  -12.2843   19.4303 C   0  0  0  0  0  0
  -29.4923  -12.5047   18.2094 C   0  0  0  0  0  0
  -28.0137  -12.3796   18.6184 C   0  0  0  0  0  0
  -27.6626  -13.2199   19.8764 C   0  0  2  0  0  0
  -28.7028  -13.0178   21.0033 C   0  0  0  0  0  0
  -25.2585  -13.8199   20.5695 C   0  0  0  0  0  0
  -24.1840  -13.0460   20.9178 C   0  0  0  0  0  0
  -24.6415  -11.6934   20.8737 C   0  0  0  0  0  0
  -23.9074  -10.4316   21.0413 C   0  0  0  0  0  0
  -24.3626   -9.4226   21.9189 C   0  0  0  0  0  0
  -23.6307   -8.2257   22.0748 C   0  0  0  0  0  0
  -22.4285   -8.0291   21.3542 C   0  0  0  0  0  0
  -21.9924   -9.0264   20.4640 C   0  0  0  0  0  0
  -22.7250  -10.2149   20.3062 C   0  0  0  0  0  0
  -21.6861   -6.0747   22.5277 C   0  0  0  0  0  0
  -21.4020   -6.5647   23.8214 C   0  0  0  0  0  0
  -21.3663   -5.6789   24.9172 C   0  0  0  0  0  0
  -21.6044   -4.3056   24.7214 C   0  0  0  0  0  0
  -21.8815   -3.8155   23.4336 C   0  0  0  0  0  0
  -21.9195   -4.6977   22.3393 C   0  0  0  0  0  0
  -22.7854  -13.5249   21.1815 C   0  0  0  0  0  0
  -22.1658   -4.2166   21.0971 F   0  0  0  0  0  0
  -21.5628   -3.4531   25.7731 F   0  0  0  0  0  0
  -30.0408  -13.2805   20.4536 N   0  0  0  0  0  0
  -26.3038  -12.9397   20.3386 N   0  0  0  0  0  0
  -25.9354  -11.6539   20.5780 N   0  0  0  0  0  0
  -22.0474  -12.8263   22.0382 N   0  0  0  0  0  0
  -25.4271  -15.1921   20.4122 N   0  0  0  0  0  0
  -31.8651  -14.5631   20.0381 O   0  0  0  0  0  0
  -21.6642   -6.8898   21.4245 O   0  0  0  0  0  0
  -22.3539  -14.5535   20.6631 O   0  0  0  0  0  0
  -24.6115  -31.8678   23.2116 C   0  0  0  0  0  0
  -25.9018  -32.4816   23.8394 C   0  0  1  0  0  0
  -27.2488  -27.4593   20.0689 C   0  0  0  0  0  0
  -25.5912  -33.8619   24.2352 N   0  0  0  0  0  0
  -23.3995  -30.4900   21.5516 C   0  0  2  0  0  0
  -24.8455  -28.9554   20.1173 C   0  0  0  0  0  0
  -22.7392  -29.4656   22.5006 C   0  0  0  0  0  0
  -18.0256  -28.1390   22.8482 C   0  0  0  0  0  0
  -24.1494  -36.7318   23.2646 C   0  0  0  0  0  0
  -25.9271  -30.8347   21.3646 C   0  0  0  0  0  0
  -26.0016  -29.4706   20.7131 C   0  0  0  0  0  0
  -27.1993  -28.7254   20.6923 C   0  0  0  0  0  0
  -26.0679  -26.9473   19.4806 C   0  0  0  0  0  0
  -24.8713  -27.6900   19.5065 C   0  0  0  0  0  0
  -23.6052  -29.8180   20.1669 C   0  0  0  0  0  0
  -25.4113  -36.3117   24.0345 C   0  0  1  0  0  0
  -20.5843  -28.3649   23.1294 C   0  0  2  0  0  0
  -20.6732  -26.9379   22.5411 C   0  0  0  0  0  0
  -19.5710  -26.6356   21.5204 C   0  0  0  0  0  0
  -18.1880  -26.7944   22.1594 C   0  0  0  0  0  0
  -19.1515  -28.8834   23.2880 C   0  0  0  0  0  0
  -18.9461  -30.1441   23.8891 C   0  0  0  0  0  0
  -17.6475  -30.6591   24.0575 C   0  0  0  0  0  0
  -25.9028  -34.9475   23.5143 C   0  0  0  0  0  0
  -16.5349  -29.9117   23.6337 C   0  0  0  0  0  0
  -16.7246  -28.6538   23.0340 C   0  0  0  0  0  0
  -26.4476  -31.6564   25.0694 C   0  0  0  0  0  0
  -25.3780  -31.3666   26.1480 C   0  0  0  0  0  0
  -27.0248  -30.2975   24.6061 C   0  0  0  0  0  0
  -27.6110  -32.4244   25.7397 C   0  0  0  0  0  0
  -27.5593  -37.1818   24.8465 C   0  0  0  0  0  0
  -21.4121  -29.3028   22.3729 N   0  0  0  0  0  0
  -26.4310  -37.3793   23.9401 N   0  0  0  0  0  0
  -24.6633  -31.0811   22.0992 N   0  0  0  0  0  0
  -23.4167  -28.8183   23.3029 O   0  0  0  0  0  0
  -28.4618  -26.8020   20.0876 O   0  0  0  0  0  0
  -26.5571  -34.8926   22.4689 O   0  0  0  0  0  0
  -23.5330  -32.1407   23.7547 O   0  0  0  0  0  0
  -29.9916  -20.3297   22.0991 C   0  0  0  0  0  0
  -30.2884  -19.1425   21.4099 C   0  0  0  0  0  0
  -29.7027  -19.0460   24.1432 C   0  0  0  0  0  0
  -29.7184  -20.2967   23.4830 C   0  0  0  0  0  0
  -30.3500  -17.9009   22.0810 C   0  0  0  0  0  0
  -30.0332  -17.8518   23.4611 C   0  0  0  0  0  0
  -30.1116  -16.5585   24.2541 C   0  0  0  0  0  0
  -30.8449  -21.8761   25.0648 C   0  0  0  0  0  0
  -27.2290  -25.0911   22.7591 C   0  0  0  0  0  0
  -30.9466  -16.7235   21.3131 C   0  0  0  0  0  0
  -28.8837  -24.3910   20.1916 C   0  0  0  0  0  0
  -27.5650  -23.6917   20.5892 C   0  0  0  0  0  0
  -29.0741  -22.8234   23.5095 C   0  0  0  0  0  0
  -28.7074  -25.6381   19.2996 C   0  0  0  0  0  0
  -29.5434  -21.5771   24.3055 C   0  0  1  0  0  0
  -27.1559  -23.7065   22.0830 C   0  0  1  0  0  0
  -30.2481  -15.4307   21.3019 N   0  0  0  0  0  0
  -27.7548  -22.6018   22.8778 N   0  3  0  0  0  0
  -31.4521  -12.3427   19.1305 H   0  0  0  0  0  0
  -30.2706  -11.2770   19.8286 H   0  0  0  0  0  0
  -29.7249  -11.7765   17.4303 H   0  0  0  0  0  0
  -29.6787  -13.4879   17.7751 H   0  0  0  0  0  0
  -27.8139  -11.3244   18.8068 H   0  0  0  0  0  0
  -27.3701  -12.6649   17.7856 H   0  0  0  0  0  0
  -27.7041  -14.2676   19.5768 H   0  0  0  0  0  0
  -28.6623  -11.9955   21.3796 H   0  0  0  0  0  0
  -28.4721  -13.6574   21.8558 H   0  0  0  0  0  0
  -25.2787   -9.5692   22.4745 H   0  0  0  0  0  0
  -24.0014   -7.4654   22.7473 H   0  0  0  0  0  0
  -21.0845   -8.8792   19.8959 H   0  0  0  0  0  0
  -22.3720  -10.9679   19.6157 H   0  0  0  0  0  0
  -21.2014   -7.6157   23.9721 H   0  0  0  0  0  0
  -21.1486   -6.0520   25.9074 H   0  0  0  0  0  0
  -22.0592   -2.7614   23.2821 H   0  0  0  0  0  0
  -22.4082  -11.9975   22.4855 H   0  0  0  0  0  0
  -21.1070  -13.1276   22.2507 H   0  0  0  0  0  0
  -24.6596  -15.8458   20.5198 H   0  0  0  0  0  0
  -26.2869  -15.6365   20.1124 H   0  0  0  0  0  0
  -26.7076  -32.5533   23.1157 H   0  0  0  0  0  0
  -25.0131  -33.9795   25.0548 H   0  0  0  0  0  0
  -22.6868  -31.3052   21.4122 H   0  0  0  0  0  0
  -23.3757  -35.9649   23.3318 H   0  0  0  0  0  0
  -24.3588  -36.8920   22.2057 H   0  0  0  0  0  0
  -23.7233  -37.6526   23.6642 H   0  0  0  0  0  0
  -26.0420  -31.6016   20.5971 H   0  0  0  0  0  0
  -26.8126  -30.8846   21.9860 H   0  0  0  0  0  0
  -28.0956  -29.1273   21.1426 H   0  0  0  0  0  0
  -26.0389  -25.9840   18.9988 H   0  0  0  0  0  0
  -23.9797  -27.2832   19.0499 H   0  0  0  0  0  0
  -23.7056  -30.5904   19.4038 H   0  0  0  0  0  0
  -22.7319  -29.2275   19.8789 H   0  0  0  0  0  0
  -25.1281  -36.2015   25.0829 H   0  0  0  0  0  0
  -20.9922  -28.3200   24.1415 H   0  0  0  0  0  0
  -20.5616  -26.2263   23.3610 H   0  0  0  0  0  0
  -21.6596  -26.7396   22.1182 H   0  0  0  0  0  0
  -19.6847  -25.6258   21.1268 H   0  0  0  0  0  0
  -19.6687  -27.3139   20.6715 H   0  0  0  0  0  0
  -17.4173  -26.6751   21.3971 H   0  0  0  0  0  0
  -18.0222  -26.0065   22.8952 H   0  0  0  0  0  0
  -19.7950  -30.7230   24.2262 H   0  0  0  0  0  0
  -17.5060  -31.6266   24.5179 H   0  0  0  0  0  0
  -15.5365  -30.3053   23.7662 H   0  0  0  0  0  0
  -15.8637  -28.0888   22.7040 H   0  0  0  0  0  0
  -24.5960  -30.6995   25.7837 H   0  0  0  0  0  0
  -24.8996  -32.2807   26.4991 H   0  0  0  0  0  0
  -25.8202  -30.8851   27.0217 H   0  0  0  0  0  0
  -26.2799  -29.6772   24.1062 H   0  0  0  0  0  0
  -27.8673  -30.4241   23.9265 H   0  0  0  0  0  0
  -27.3921  -29.7165   25.4530 H   0  0  0  0  0  0
  -27.2747  -33.3459   26.2153 H   0  0  0  0  0  0
  -28.3793  -32.6954   25.0146 H   0  0  0  0  0  0
  -28.0937  -31.8294   26.5159 H   0  0  0  0  0  0
  -28.2622  -38.0106   24.7521 H   0  0  0  0  0  0
  -28.1075  -36.2642   24.6286 H   0  0  0  0  0  0
  -27.2306  -37.1468   25.8867 H   0  0  0  0  0  0
  -20.9296  -29.8727   21.6924 H   0  0  0  0  0  0
  -26.0215  -38.2881   24.1379 H   0  0  0  0  0  0
  -30.0358  -21.2593   21.5490 H   0  0  0  0  0  0
  -30.5494  -19.2122   20.3634 H   0  0  0  0  0  0
  -29.4974  -19.0149   25.2058 H   0  0  0  0  0  0
  -30.1222  -16.7530   25.3273 H   0  0  0  0  0  0
  -31.0202  -16.0015   24.0210 H   0  0  0  0  0  0
  -29.2498  -15.9290   24.0352 H   0  0  0  0  0  0
  -30.7479  -22.7541   25.7035 H   0  0  0  0  0  0
  -31.6729  -22.0547   24.3789 H   0  0  0  0  0  0
  -31.1263  -21.0406   25.7059 H   0  0  0  0  0  0
  -26.5892  -25.8044   22.2411 H   0  0  0  0  0  0
  -28.2383  -25.5022   22.7650 H   0  0  0  0  0  0
  -26.8813  -25.0494   23.7899 H   0  0  0  0  0  0
  -31.9555  -16.5775   21.7061 H   0  0  0  0  0  0
  -31.0860  -17.0329   20.2748 H   0  0  0  0  0  0
  -29.4810  -23.6720   19.6304 H   0  0  0  0  0  0
  -29.4955  -24.6391   21.0561 H   0  0  0  0  0  0
  -27.6001  -22.6595   20.2358 H   0  0  0  0  0  0
  -26.7522  -24.1359   20.0178 H   0  0  0  0  0  0
  -29.8181  -23.1121   22.7664 H   0  0  0  0  0  0
  -28.9953  -23.6640   24.2010 H   0  0  0  0  0  0
  -28.0054  -25.4661   18.4852 H   0  0  0  0  0  0
  -29.6572  -25.8274   18.7980 H   0  0  0  0  0  0
  -28.7809  -21.3658   25.0577 H   0  0  0  0  0  0
  -26.0968  -23.4408   22.0766 H   0  0  0  0  0  0
  -29.3477  -15.3378   21.7447 H   0  0  0  0  0  0
  -27.1093  -22.3931   23.6223 H   0  0  0  0  0  0
  -27.8034  -21.7729   22.3065 H   0  0  0  0  0  0
  1 25  1  0  0  0
  1 30  2  0  0  0
  1 87  1  0  0  0
  2  3  1  0  0  0
  2 25  1  0  0  0
  2 89  1  0  0  0
  2 90  1  0  0  0
  3  4  1  0  0  0
  3 91  1  0  0  0
  3 92  1  0  0  0
  4  5  1  0  0  0
  4 93  1  0  0  0
  4 94  1  0  0  0
  5  6  1  0  0  0
  5 26  1  0  0  0
  5 95  1  0  0  0
  6 25  1  0  0  0
  6 96  1  0  0  0
  6 97  1  0  0  0
  7  8  2  0  0  0
  7 26  1  0  0  0
  7 29  1  0  0  0
  8  9  1  0  0  0
  8 22  1  0  0  0
  9 10  1  0  0  0
  9 27  2  0  0  0
 10 11  2  0  0  0
 10 15  1  0  0  0
 11 12  1  0  0  0
 11 98  1  0  0  0
 12 13  2  0  0  0
 12 99  1  0  0  0
 13 14  1  0  0  0
 13 31  1  0  0  0
 14 15  2  0  0  0
 14100  1  0  0  0
 15101  1  0  0  0
 16 17  2  0  0  0
 16 21  1  0  0  0
 16 31  1  0  0  0
 17 18  1  0  0  0
 17102  1  0  0  0
 18 19  2  0  0  0
 18103  1  0  0  0
 19 20  1  0  0  0
 19 24  1  0  0  0
 20 21  2  0  0  0
 20104  1  0  0  0
 21 23  1  0  0  0
 22 28  1  0  0  0
 22 32  2  0  0  0
 26 27  1  0  0  0
 28105  1  0  0  0
 28106  1  0  0  0
 29107  1  0  0  0
 29108  1  0  0  0
 33 34  1  0  0  0
 33 66  1  0  0  0
 33 70  2  0  0  0
 34 36  1  0  0  0
 34 59  1  0  0  0
 34109  1  0  0  0
 35 44  2  0  0  0
 35 45  1  0  0  0
 35 68  1  0  0  0
 36 56  1  0  0  0
 36110  1  0  0  0
 37 39  1  0  0  0
 37 47  1  0  0  0
 37 66  1  0  0  0
 37111  1  0  0  0
 38 43  2  0  0  0
 38 46  1  0  0  0
 38 47  1  0  0  0
 39 64  1  0  0  0
 39 67  2  0  0  0
 40 52  1  0  0  0
 40 53  2  0  0  0
 40 58  1  0  0  0
 41112  1  0  0  0
 41113  1  0  0  0
 41114  1  0  0  0
 41 48  1  0  0  0
 42 43  1  0  0  0
 42 66  1  0  0  0
 42115  1  0  0  0
 42116  1  0  0  0
 43 44  1  0  0  0
 44117  1  0  0  0
 45 46  2  0  0  0
 45118  1  0  0  0
 46119  1  0  0  0
 47120  1  0  0  0
 47121  1  0  0  0
 48 56  1  0  0  0
 48 65  1  0  0  0
 48122  1  0  0  0
 49 50  1  0  0  0
 49 53  1  0  0  0
 49 64  1  0  0  0
 49123  1  0  0  0
 50 51  1  0  0  0
 50124  1  0  0  0
 50125  1  0  0  0
 51 52  1  0  0  0
 51126  1  0  0  0
 51127  1  0  0  0
 52128  1  0  0  0
 52129  1  0  0  0
 53 54  1  0  0  0
 54 55  2  0  0  0
 54130  1  0  0  0
 55 57  1  0  0  0
 55131  1  0  0  0
 56 69  2  0  0  0
 57 58  2  0  0  0
 57132  1  0  0  0
 58133  1  0  0  0
 59 60  1  0  0  0
 59 61  1  0  0  0
 59 62  1  0  0  0
 60134  1  0  0  0
 60135  1  0  0  0
 60136  1  0  0  0
 61137  1  0  0  0
 61138  1  0  0  0
 61139  1  0  0  0
 62140  1  0  0  0
 62141  1  0  0  0
 62142  1  0  0  0
 63 65  1  0  0  0
 63143  1  0  0  0
 63144  1  0  0  0
 63145  1  0  0  0
 64146  1  0  0  0
 65147  1  0  0  0
 68 84  1  0  0  0
 71 72  2  0  0  0
 71 74  1  0  0  0
 71148  1  0  0  0
 72 75  1  0  0  0
 72149  1  0  0  0
 73 74  2  0  0  0
 73 76  1  0  0  0
 73150  1  0  0  0
 74 85  1  0  0  0
 75 76  2  0  0  0
 75 80  1  0  0  0
 76 77  1  0  0  0
 77151  1  0  0  0
 77152  1  0  0  0
 77153  1  0  0  0
 78154  1  0  0  0
 78155  1  0  0  0
 78156  1  0  0  0
 78 85  1  0  0  0
 79157  1  0  0  0
 79158  1  0  0  0
 79159  1  0  0  0
 79 86  1  0  0  0
 80 87  1  0  0  0
 80160  1  0  0  0
 80161  1  0  0  0
 81 82  1  0  0  0
 81 84  1  0  0  0
 81162  1  0  0  0
 81163  1  0  0  0
 82 86  1  0  0  0
 82164  1  0  0  0
 82165  1  0  0  0
 83 85  1  0  0  0
 83 88  1  0  0  0
 83166  1  0  0  0
 83167  1  0  0  0
 84168  1  0  0  0
 84169  1  0  0  0
 85170  1  0  0  0
 86 88  1  0  0  0
 86171  1  0  0  0
 87172  1  0  0  0
 88173  1  0  0  0
 88174  1  0  0  0
M  CHG  1  88   1
M  ISO  4   1 100  68 101  84 101  87 100
M  END
> <chiral flag>
0

> <version>
0

> <s_m_source_file>
/data/baiqing/PycharmProjects/Reinvent-master-3.2/result/LINK_invent/BTK/process_docking_weight1_custom_sum_contain_oxygen_bond_distance_aromatic_linkinvent_7_9_3/rearranged_h_0111.sdf

> <i_m_source_file_index>
43

> <r_mmod_Potential_Energy-OPLS-2005>
-224.340057373047

> <r_mmod_Stretch_Energy-OPLS-2005>
35.8745574951172

> <r_mmod_Bend_Energy-OPLS-2005>
132.846145629883

> <r_mmod_Torsional_Energy-OPLS-2005>
241.175537109375

> <r_mmod_Improper_Torsional_Energy-OPLS-2005>
3.56728291511536

> <r_mmod_Van_der_Waal_Energy-OPLS-2005>
152.063461303711

> <r_mmod_Electrostatic_Energy-OPLS-2005>
-370.923889160156

> <r_mmod_Solvation_Energy-OPLS-2005>
-430.908111572266

> <b_mmod_Minimization_Converged-OPLS-2005>
0

> <r_mmod_RMS_Derivative-OPLS-2005>
2.63712501525879

$$$$
43
                    3D
 Structure written by MMmdl.
153161  0  0  1  0            999 V2000
  -30.3275  -15.5914   20.3498 C   0  0  0  0  0  0
  -30.4385  -13.0443   19.5110 C   0  0  0  0  0  0
  -29.5505  -12.6640   18.2868 C   0  0  0  0  0  0
  -28.1096  -12.3219   18.7132 C   0  0  0  0  0  0
  -27.6059  -13.2913   19.8079 C   0  0  2  0  0  0
  -28.6480  -13.5466   20.9225 C   0  0  0  0  0  0
  -25.2384  -13.8213   20.5776 C   0  0  0  0  0  0
  -24.1771  -13.0404   20.9314 C   0  0  0  0  0  0
  -24.6447  -11.6901   20.8762 C   0  0  0  0  0  0
  -23.9109  -10.4296   21.0385 C   0  0  0  0  0  0
  -24.3653   -9.4220   21.9155 C   0  0  0  0  0  0
  -23.6338   -8.2247   22.0716 C   0  0  0  0  0  0
  -22.4304   -8.0302   21.3534 C   0  0  0  0  0  0
  -21.9945   -9.0264   20.4601 C   0  0  0  0  0  0
  -22.7294  -10.2132   20.3008 C   0  0  0  0  0  0
  -21.6880   -6.0735   22.5290 C   0  0  0  0  0  0
  -21.4032   -6.5621   23.8230 C   0  0  0  0  0  0
  -21.3643   -5.6772   24.9187 C   0  0  0  0  0  0
  -21.6037   -4.3039   24.7232 C   0  0  0  0  0  0
  -21.8824   -3.8124   23.4355 C   0  0  0  0  0  0
  -21.9213   -4.6950   22.3414 C   0  0  0  0  0  0
  -22.7792  -13.5158   21.1953 C   0  0  0  0  0  0
  -22.1681   -4.2128   21.0997 F   0  0  0  0  0  0
  -21.5619   -3.4522   25.7735 F   0  0  0  0  0  0
  -29.8087  -14.2170   20.2740 N   0  0  0  0  0  0
  -26.2848  -12.9512   20.3207 N   0  0  0  0  0  0
  -25.9395  -11.6599   20.5670 N   0  0  0  0  0  0
  -22.0386  -12.8155   22.0454 N   0  0  0  0  0  0
  -25.3910  -15.1939   20.4188 N   0  0  0  0  0  0
  -31.5657  -15.5237   20.2129 O   0  0  0  0  0  0
  -21.6669   -6.8895   21.4260 O   0  0  0  0  0  0
  -22.3481  -14.5474   20.6797 O   0  0  0  0  0  0
  -24.6838  -31.7983   23.1450 C   0  0  0  0  0  0
  -25.9418  -32.4443   23.7996 C   0  0  1  0  0  0
  -27.2440  -26.7172   20.2172 C   0  0  0  0  0  0
  -25.6000  -33.8263   24.1891 N   0  0  0  0  0  0
  -23.5092  -30.3957   21.5017 C   0  0  2  0  0  0
  -24.9681  -28.7344   20.1147 C   0  0  0  0  0  0
  -22.7765  -29.4309   22.4716 C   0  0  0  0  0  0
  -18.0341  -28.1418   22.8471 C   0  0  0  0  0  0
  -24.1512  -36.7139   23.2653 C   0  0  0  0  0  0
  -26.0896  -30.5309   21.4133 C   0  0  0  0  0  0
  -26.1548  -29.0990   20.7647 C   0  0  0  0  0  0
  -27.2739  -28.1171   20.7853 C   0  0  0  0  0  0
  -26.0242  -26.5510   19.5155 C   0  0  0  0  0  0
  -24.9426  -27.4848   19.4670 C   0  0  0  0  0  0
  -23.7602  -29.6851   20.1374 C   0  0  0  0  0  0
  -25.4166  -36.2868   24.0274 C   0  0  1  0  0  0
  -20.5971  -28.3765   23.1163 C   0  0  2  0  0  0
  -20.6802  -26.9426   22.5400 C   0  0  0  0  0  0
  -19.5779  -26.6370   21.5217 C   0  0  0  0  0  0
  -18.1966  -26.7950   22.1621 C   0  0  0  0  0  0
  -19.1600  -28.8918   23.2800 C   0  0  0  0  0  0
  -18.9502  -30.1513   23.8835 C   0  0  0  0  0  0
  -17.6490  -30.6607   24.0539 C   0  0  0  0  0  0
  -25.9151  -34.9277   23.4913 C   0  0  0  0  0  0
  -16.5386  -29.9071   23.6362 C   0  0  0  0  0  0
  -16.7317  -28.6488   23.0388 C   0  0  0  0  0  0
  -26.4586  -31.6492   25.0647 C   0  0  0  0  0  0
  -25.3629  -31.3819   26.1238 C   0  0  0  0  0  0
  -27.0520  -30.2826   24.6589 C   0  0  0  0  0  0
  -27.6056  -32.4364   25.7449 C   0  0  0  0  0  0
  -27.5578  -37.1723   24.8474 C   0  0  0  0  0  0
  -21.4405  -29.3027   22.3472 N   0  0  0  0  0  0
  -26.4283  -37.3640   23.9422 N   0  0  0  0  0  0
  -24.7849  -30.9442   22.0707 N   0  0  0  0  0  0
  -23.4207  -28.7954   23.3106 O   0  0  0  0  0  0
  -28.2265  -25.5195   20.3060 O   0  0  0  0  0  0
  -26.5793  -34.8863   22.4541 O   0  0  0  0  0  0
  -23.5887  -32.1041   23.6444 O   0  0  0  0  0  0
  -31.3267  -20.7856   20.2142 C   0  0  0  0  0  0
  -30.4088  -21.9995   19.7562 C   0  0  0  0  0  0
  -30.9878  -19.3100   19.7578 C   0  0  0  0  0  0
  -28.6493  -20.2540   20.3071 C   0  0  0  0  0  0
  -28.9964  -22.0931   20.4205 C   0  0  2  0  0  0
  -29.7449  -18.7371   20.4740 C   0  0  1  0  0  0
  -28.1265  -16.8002   20.4640 C   0  0  0  0  0  0
  -28.0789  -23.7794   20.1167 C   0  0  0  0  0  0
  -29.5653  -16.9666   20.3833 N   0  0  0  0  0  0
  -31.4406  -13.2915   19.1556 H   0  0  0  0  0  0
  -30.5893  -12.1701   20.1527 H   0  0  0  0  0  0
  -29.9912  -11.8373   17.7303 H   0  0  0  0  0  0
  -29.5184  -13.5079   17.5938 H   0  0  0  0  0  0
  -28.0962  -11.3011   19.0911 H   0  0  0  0  0  0
  -27.4444  -12.3370   17.8484 H   0  0  0  0  0  0
  -27.4816  -14.2291   19.2704 H   0  0  0  0  0  0
  -28.9122  -12.6033   21.4076 H   0  0  0  0  0  0
  -28.2456  -14.1638   21.7202 H   0  0  0  0  0  0
  -25.2801   -9.5717   22.4726 H   0  0  0  0  0  0
  -24.0061   -7.4631   22.7431 H   0  0  0  0  0  0
  -21.0859   -8.8787   19.8912 H   0  0  0  0  0  0
  -22.3775  -10.9658   19.6090 H   0  0  0  0  0  0
  -21.2036   -7.6119   23.9741 H   0  0  0  0  0  0
  -21.1451   -6.0480   25.9088 H   0  0  0  0  0  0
  -22.0617   -2.7583   23.2869 H   0  0  0  0  0  0
  -22.3967  -11.9864   22.4975 H   0  0  0  0  0  0
  -21.0932  -13.1107   22.2440 H   0  0  0  0  0  0
  -24.6192  -15.8432   20.5255 H   0  0  0  0  0  0
  -26.2387  -15.6392   20.0951 H   0  0  0  0  0  0
  -26.7530  -32.4894   23.0718 H   0  0  0  0  0  0
  -25.0019  -33.9272   24.9954 H   0  0  0  0  0  0
  -22.8390  -31.2351   21.3102 H   0  0  0  0  0  0
  -23.3775  -35.9453   23.3248 H   0  0  0  0  0  0
  -24.3587  -36.8870   22.2080 H   0  0  0  0  0  0
  -23.7257  -37.6301   23.6773 H   0  0  0  0  0  0
  -26.3051  -31.2582   20.6293 H   0  0  0  0  0  0
  -26.9344  -30.5835   22.0849 H   0  0  0  0  0  0
  -28.1623  -28.4011   21.3305 H   0  0  0  0  0  0
  -25.8697  -25.5974   19.0295 H   0  0  0  0  0  0
  -24.0515  -27.1879   18.9332 H   0  0  0  0  0  0
  -23.9220  -30.4399   19.3689 H   0  0  0  0  0  0
  -22.8660  -29.1431   19.8251 H   0  0  0  0  0  0
  -25.1380  -36.1586   25.0764 H   0  0  0  0  0  0
  -21.0060  -28.3360   24.1288 H   0  0  0  0  0  0
  -20.5672  -26.2381   23.3643 H   0  0  0  0  0  0
  -21.6667  -26.7386   22.1220 H   0  0  0  0  0  0
  -19.6928  -25.6256   21.1302 H   0  0  0  0  0  0
  -19.6724  -27.3128   20.6710 H   0  0  0  0  0  0
  -17.4230  -26.6699   21.4025 H   0  0  0  0  0  0
  -18.0355  -26.0104   22.9036 H   0  0  0  0  0  0
  -19.7978  -30.7348   24.2172 H   0  0  0  0  0  0
  -17.5039  -31.6288   24.5120 H   0  0  0  0  0  0
  -15.5378  -30.2937   23.7745 H   0  0  0  0  0  0
  -15.8726  -28.0776   22.7165 H   0  0  0  0  0  0
  -24.5770  -30.7263   25.7468 H   0  0  0  0  0  0
  -24.8855  -32.3052   26.4548 H   0  0  0  0  0  0
  -25.7727  -30.8975   27.0103 H   0  0  0  0  0  0
  -26.3233  -29.6431   24.1599 H   0  0  0  0  0  0
  -27.3947  -29.7310   25.5356 H   0  0  0  0  0  0
  -27.9225  -30.3953   24.0116 H   0  0  0  0  0  0
  -27.2601  -33.3731   26.1831 H   0  0  0  0  0  0
  -28.3920  -32.6821   25.0297 H   0  0  0  0  0  0
  -28.0651  -31.8613   26.5493 H   0  0  0  0  0  0
  -28.2560  -38.0061   24.7542 H   0  0  0  0  0  0
  -28.1112  -36.2583   24.6258 H   0  0  0  0  0  0
  -27.2310  -37.1318   25.8883 H   0  0  0  0  0  0
  -20.9685  -29.8637   21.6507 H   0  0  0  0  0  0
  -26.0088  -38.2692   24.1391 H   0  0  0  0  0  0
  -31.3982  -20.7965   21.3017 H   0  0  0  0  0  0
  -32.3393  -20.9974   19.8664 H   0  0  0  0  0  0
  -30.2907  -21.9586   18.6730 H   0  0  0  0  0  0
  -30.9456  -22.9243   19.9621 H   0  0  0  0  0  0
  -31.8420  -18.6611   19.9606 H   0  0  0  0  0  0
  -30.8415  -19.2926   18.6765 H   0  0  0  0  0  0
  -28.1805  -20.1397   19.3282 H   0  0  0  0  0  0
  -27.8289  -20.0891   21.0040 H   0  0  0  0  0  0
  -29.1968  -22.1923   21.4881 H   0  0  0  0  0  0
  -29.9991  -18.8059   21.5317 H   0  0  0  0  0  0
  -27.5907  -17.7378   20.5896 H   0  0  0  0  0  0
  -27.8651  -16.1876   21.3238 H   0  0  0  0  0  0
  -27.7711  -16.3584   19.5374 H   0  0  0  0  0  0
  -27.1258  -23.6127   20.6212 H   0  0  0  0  0  0
  -27.8112  -23.7177   19.0610 H   0  0  0  0  0  0
  1 25  1  0  0  0
  1 30  2  0  0  0
  1 79  1  0  0  0
  2  3  1  0  0  0
  2 25  1  0  0  0
  2 80  1  0  0  0
  2 81  1  0  0  0
  3  4  1  0  0  0
  3 82  1  0  0  0
  3 83  1  0  0  0
  4  5  1  0  0  0
  4 84  1  0  0  0
  4 85  1  0  0  0
  5  6  1  0  0  0
  5 26  1  0  0  0
  5 86  1  0  0  0
  6 25  1  0  0  0
  6 87  1  0  0  0
  6 88  1  0  0  0
  7  8  2  0  0  0
  7 26  1  0  0  0
  7 29  1  0  0  0
  8  9  1  0  0  0
  8 22  1  0  0  0
  9 10  1  0  0  0
  9 27  2  0  0  0
 10 11  2  0  0  0
 10 15  1  0  0  0
 11 12  1  0  0  0
 11 89  1  0  0  0
 12 13  2  0  0  0
 12 90  1  0  0  0
 13 14  1  0  0  0
 13 31  1  0  0  0
 14 15  2  0  0  0
 14 91  1  0  0  0
 15 92  1  0  0  0
 16 17  2  0  0  0
 16 21  1  0  0  0
 16 31  1  0  0  0
 17 18  1  0  0  0
 17 93  1  0  0  0
 18 19  2  0  0  0
 18 94  1  0  0  0
 19 20  1  0  0  0
 19 24  1  0  0  0
 20 21  2  0  0  0
 20 95  1  0  0  0
 21 23  1  0  0  0
 22 28  1  0  0  0
 22 32  2  0  0  0
 26 27  1  0  0  0
 28 96  1  0  0  0
 28 97  1  0  0  0
 29 98  1  0  0  0
 29 99  1  0  0  0
 33 34  1  0  0  0
 33 66  1  0  0  0
 33 70  2  0  0  0
 34 36  1  0  0  0
 34 59  1  0  0  0
 34100  1  0  0  0
 35 44  2  0  0  0
 35 45  1  0  0  0
 35 68  1  0  0  0
 36 56  1  0  0  0
 36101  1  0  0  0
 37 39  1  0  0  0
 37 47  1  0  0  0
 37 66  1  0  0  0
 37102  1  0  0  0
 38 43  2  0  0  0
 38 46  1  0  0  0
 38 47  1  0  0  0
 39 64  1  0  0  0
 39 67  2  0  0  0
 40 52  1  0  0  0
 40 53  2  0  0  0
 40 58  1  0  0  0
 41103  1  0  0  0
 41104  1  0  0  0
 41105  1  0  0  0
 41 48  1  0  0  0
 42 43  1  0  0  0
 42 66  1  0  0  0
 42106  1  0  0  0
 42107  1  0  0  0
 43 44  1  0  0  0
 44108  1  0  0  0
 45 46  2  0  0  0
 45109  1  0  0  0
 46110  1  0  0  0
 47111  1  0  0  0
 47112  1  0  0  0
 48 56  1  0  0  0
 48 65  1  0  0  0
 48113  1  0  0  0
 49 50  1  0  0  0
 49 53  1  0  0  0
 49 64  1  0  0  0
 49114  1  0  0  0
 50 51  1  0  0  0
 50115  1  0  0  0
 50116  1  0  0  0
 51 52  1  0  0  0
 51117  1  0  0  0
 51118  1  0  0  0
 52119  1  0  0  0
 52120  1  0  0  0
 53 54  1  0  0  0
 54 55  2  0  0  0
 54121  1  0  0  0
 55 57  1  0  0  0
 55122  1  0  0  0
 56 69  2  0  0  0
 57 58  2  0  0  0
 57123  1  0  0  0
 58124  1  0  0  0
 59 60  1  0  0  0
 59 61  1  0  0  0
 59 62  1  0  0  0
 60125  1  0  0  0
 60126  1  0  0  0
 60127  1  0  0  0
 61128  1  0  0  0
 61129  1  0  0  0
 61130  1  0  0  0
 62131  1  0  0  0
 62132  1  0  0  0
 62133  1  0  0  0
 63 65  1  0  0  0
 63134  1  0  0  0
 63135  1  0  0  0
 63136  1  0  0  0
 64137  1  0  0  0
 65138  1  0  0  0
 68 78  1  0  0  0
 71 72  1  0  0  0
 71 73  1  0  0  0
 71139  1  0  0  0
 71140  1  0  0  0
 72 75  1  0  0  0
 72141  1  0  0  0
 72142  1  0  0  0
 73 76  1  0  0  0
 73143  1  0  0  0
 73144  1  0  0  0
 74 75  1  0  0  0
 74 76  1  0  0  0
 74145  1  0  0  0
 74146  1  0  0  0
 75 78  1  0  0  0
 75147  1  0  0  0
 76 79  1  0  0  0
 76148  1  0  0  0
 77 79  1  0  0  0
 77149  1  0  0  0
 77150  1  0  0  0
 77151  1  0  0  0
 78152  1  0  0  0
 78153  1  0  0  0
M  ISO  4   1 100  68 101  78 101  79 100
M  END
> <chiral flag>
0

> <version>
0

> <s_m_source_file>
/data/baiqing/PycharmProjects/Reinvent-master-3.2/result/LINK_invent/BTK/process_docking_weight1_custom_sum_contain_oxygen_bond_distance_aromatic_linkinvent_7_9_3/rearranged_h_0111.sdf

> <i_m_source_file_index>
44

> <r_mmod_Potential_Energy-OPLS-2005>
2536.50512695312

> <r_mmod_Stretch_Energy-OPLS-2005>
1107.31921386719

> <r_mmod_Bend_Energy-OPLS-2005>
649.17822265625

> <r_mmod_Torsional_Energy-OPLS-2005>
291.304565429688

> <r_mmod_Improper_Torsional_Energy-OPLS-2005>
4.01126289367676

> <r_mmod_Van_der_Waal_Energy-OPLS-2005>
119.674003601074

> <r_mmod_Electrostatic_Energy-OPLS-2005>
-264.982360839844

> <r_mmod_Solvation_Energy-OPLS-2005>
-203.33528137207

> <b_mmod_Minimization_Converged-OPLS-2005>
0

> <r_mmod_RMS_Derivative-OPLS-2005>
5.41373491287231

$$$$
44
                    3D
 Structure written by MMmdl.
168176  0  0  1  0            999 V2000
  -30.6538  -14.4612   20.5716 C   0  0  0  0  0  0
  -30.4419  -12.2946   19.4328 C   0  0  0  0  0  0
  -29.5130  -12.5126   18.2183 C   0  0  0  0  0  0
  -28.0289  -12.3722   18.6160 C   0  0  0  0  0  0
  -27.6712  -13.1904   19.8853 C   0  0  2  0  0  0
  -28.7077  -12.9312   21.0054 C   0  0  0  0  0  0
  -25.2635  -13.8110   20.5597 C   0  0  0  0  0  0
  -24.1884  -13.0412   20.9107 C   0  0  0  0  0  0
  -24.6399  -11.6874   20.8673 C   0  0  0  0  0  0
  -23.9060  -10.4262   21.0342 C   0  0  0  0  0  0
  -24.3598   -9.4203   21.9133 C   0  0  0  0  0  0
  -23.6293   -8.2234   22.0748 C   0  0  0  0  0  0
  -22.4283   -8.0251   21.3517 C   0  0  0  0  0  0
  -21.9889   -9.0231   20.4629 C   0  0  0  0  0  0
  -22.7218  -10.2109   20.3014 C   0  0  0  0  0  0
  -21.6870   -6.0700   22.5272 C   0  0  0  0  0  0
  -21.4005   -6.5615   23.8188 C   0  0  0  0  0  0
  -21.3651   -5.6775   24.9156 C   0  0  0  0  0  0
  -21.6076   -4.3041   24.7212 C   0  0  0  0  0  0
  -21.8823   -3.8115   23.4326 C   0  0  0  0  0  0
  -21.9185   -4.6926   22.3385 C   0  0  0  0  0  0
  -22.7901  -13.5235   21.1765 C   0  0  0  0  0  0
  -22.1668   -4.2104   21.0968 F   0  0  0  0  0  0
  -21.5641   -3.4539   25.7718 F   0  0  0  0  0  0
  -30.0484  -13.2494   20.4776 N   0  0  0  0  0  0
  -26.3073  -12.9243   20.3343 N   0  0  0  0  0  0
  -25.9317  -11.6422   20.5698 N   0  0  0  0  0  0
  -22.0521  -12.8263   22.0345 N   0  0  0  0  0  0
  -25.4378  -15.1831   20.3974 N   0  0  0  0  0  0
  -31.7463  -14.7267   20.0601 O   0  0  0  0  0  0
  -21.6654   -6.8853   21.4227 O   0  0  0  0  0  0
  -22.3600  -14.5525   20.6578 O   0  0  0  0  0  0
  -24.6110  -31.8670   23.2093 C   0  0  0  0  0  0
  -25.9009  -32.4813   23.8377 C   0  0  1  0  0  0
  -27.2505  -27.4582   20.1026 C   0  0  0  0  0  0
  -25.5889  -33.8608   24.2328 N   0  0  0  0  0  0
  -23.3981  -30.4896   21.5472 C   0  0  2  0  0  0
  -24.8491  -28.9517   20.1162 C   0  0  0  0  0  0
  -22.7365  -29.4663   22.4977 C   0  0  0  0  0  0
  -18.0251  -28.1366   22.8472 C   0  0  0  0  0  0
  -24.1480  -36.7323   23.2641 C   0  0  0  0  0  0
  -25.9217  -30.8429   21.3542 C   0  0  0  0  0  0
  -26.0037  -29.4768   20.7066 C   0  0  0  0  0  0
  -27.2064  -28.7405   20.6891 C   0  0  0  0  0  0
  -26.0760  -26.9351   19.5125 C   0  0  0  0  0  0
  -24.8786  -27.6796   19.5152 C   0  0  0  0  0  0
  -23.6062  -29.8122   20.1642 C   0  0  0  0  0  0
  -25.4099  -36.3111   24.0340 C   0  0  1  0  0  0
  -20.5838  -28.3650   23.1301 C   0  0  2  0  0  0
  -20.6733  -26.9388   22.5407 C   0  0  0  0  0  0
  -19.5738  -26.6375   21.5181 C   0  0  0  0  0  0
  -18.1910  -26.7917   22.1584 C   0  0  0  0  0  0
  -19.1500  -28.8814   23.2891 C   0  0  0  0  0  0
  -18.9449  -30.1426   23.8895 C   0  0  0  0  0  0
  -17.6462  -30.6584   24.0553 C   0  0  0  0  0  0
  -25.9017  -34.9472   23.5118 C   0  0  0  0  0  0
  -16.5342  -29.9086   23.6339 C   0  0  0  0  0  0
  -16.7244  -28.6500   23.0353 C   0  0  0  0  0  0
  -26.4475  -31.6586   25.0689 C   0  0  0  0  0  0
  -25.3776  -31.3678   26.1469 C   0  0  0  0  0  0
  -27.0307  -30.3036   24.6043 C   0  0  0  0  0  0
  -27.6051  -32.4296   25.7465 C   0  0  0  0  0  0
  -27.5586  -37.1805   24.8465 C   0  0  0  0  0  0
  -21.4097  -29.3040   22.3716 N   0  0  0  0  0  0
  -26.4287  -37.3797   23.9412 N   0  0  0  0  0  0
  -24.6620  -31.0785   22.0980 N   0  0  0  0  0  0
  -23.4144  -28.8187   23.2997 O   0  0  0  0  0  0
  -28.4522  -26.7823   20.1211 O   0  0  0  0  0  0
  -26.5575  -34.8931   22.4692 O   0  0  0  0  0  0
  -23.5305  -32.1399   23.7517 O   0  0  0  0  0  0
  -30.2225  -22.4863   19.5846 C   0  0  0  0  0  0
  -29.7009  -22.5893   21.8341 C   0  0  0  0  0  0
  -29.8978  -23.3303   20.6924 C   0  0  0  0  0  0
  -30.3293  -21.1469   19.8841 C   0  0  0  0  0  0
  -30.5350  -20.5118   17.4786 C   0  0  0  0  0  0
  -32.2665  -19.7665   19.1039 C   0  0  0  0  0  0
  -32.2854  -25.0680   20.0904 C   0  0  0  0  0  0
  -29.9248  -18.7253   19.0953 C   0  0  0  0  0  0
  -28.4282  -25.3515   20.1501 C   0  0  0  0  0  0
  -29.4769  -16.6127   20.2719 C   0  0  0  0  0  0
  -29.8144  -24.8456   20.6229 C   0  0  2  0  0  0
  -30.7542  -20.0399   18.9374 C   0  0  0  0  0  0
  -29.8548  -15.4262   21.0517 N   0  0  0  0  0  0
  -30.8869  -25.4365   19.7757 N   0  3  0  0  0  0
  -30.3293  -17.8263   20.2086 N   0  3  0  0  0  0
  -29.9519  -20.8818   21.5685 S   0  0  0  0  0  0
  -31.4872  -12.4170   19.1427 H   0  0  0  0  0  0
  -30.3605  -11.2717   19.8040 H   0  0  0  0  0  0
  -29.7585  -11.7995   17.4293 H   0  0  0  0  0  0
  -29.6890  -13.5052   17.8003 H   0  0  0  0  0  0
  -27.8271  -11.3158   18.7902 H   0  0  0  0  0  0
  -27.3870  -12.6684   17.7830 H   0  0  0  0  0  0
  -27.7260  -14.2399   19.6043 H   0  0  0  0  0  0
  -28.6777  -11.8802   21.3012 H   0  0  0  0  0  0
  -28.4658  -13.4909   21.9093 H   0  0  0  0  0  0
  -25.2715   -9.5718   22.4734 H   0  0  0  0  0  0
  -23.9981   -7.4648   22.7502 H   0  0  0  0  0  0
  -21.0789   -8.8743   19.8991 H   0  0  0  0  0  0
  -22.3620  -10.9636   19.6141 H   0  0  0  0  0  0
  -21.2011   -7.6126   23.9682 H   0  0  0  0  0  0
  -21.1487   -6.0502   25.9061 H   0  0  0  0  0  0
  -22.0612   -2.7578   23.2842 H   0  0  0  0  0  0
  -22.4068  -11.9929   22.4790 H   0  0  0  0  0  0
  -21.1154  -13.1353   22.2515 H   0  0  0  0  0  0
  -24.6627  -15.8307   20.4933 H   0  0  0  0  0  0
  -26.2711  -15.6114   20.0171 H   0  0  0  0  0  0
  -26.7071  -32.5547   23.1131 H   0  0  0  0  0  0
  -25.0063  -33.9769   25.0487 H   0  0  0  0  0  0
  -22.6864  -31.3061   21.4038 H   0  0  0  0  0  0
  -23.3735  -35.9669   23.3311 H   0  0  0  0  0  0
  -24.3573  -36.8927   22.2059 H   0  0  0  0  0  0
  -23.7239  -37.6534   23.6640 H   0  0  0  0  0  0
  -26.0205  -31.6066   20.5814 H   0  0  0  0  0  0
  -26.8137  -30.9020   21.9658 H   0  0  0  0  0  0
  -28.1012  -29.1521   21.1343 H   0  0  0  0  0  0
  -26.0727  -25.9657   19.0356 H   0  0  0  0  0  0
  -23.9899  -27.2699   19.0538 H   0  0  0  0  0  0
  -23.7046  -30.5813   19.3972 H   0  0  0  0  0  0
  -22.7335  -29.2219   19.8775 H   0  0  0  0  0  0
  -25.1269  -36.1981   25.0832 H   0  0  0  0  0  0
  -20.9935  -28.3226   24.1415 H   0  0  0  0  0  0
  -20.5578  -26.2269   23.3592 H   0  0  0  0  0  0
  -21.6615  -26.7401   22.1238 H   0  0  0  0  0  0
  -19.6895  -25.6282   21.1214 H   0  0  0  0  0  0
  -19.6698  -27.3168   20.6699 H   0  0  0  0  0  0
  -17.4184  -26.6670   21.3984 H   0  0  0  0  0  0
  -18.0317  -26.0042   22.8962 H   0  0  0  0  0  0
  -19.7938  -30.7222   24.2266 H   0  0  0  0  0  0
  -17.5034  -31.6270   24.5142 H   0  0  0  0  0  0
  -15.5345  -30.2992   23.7663 H   0  0  0  0  0  0
  -15.8643  -28.0820   22.7066 H   0  0  0  0  0  0
  -24.5944  -30.7015   25.7835 H   0  0  0  0  0  0
  -24.8975  -32.2829   26.4943 H   0  0  0  0  0  0
  -25.8173  -30.8852   27.0205 H   0  0  0  0  0  0
  -26.2828  -29.6769   24.1171 H   0  0  0  0  0  0
  -27.4171  -29.7293   25.4472 H   0  0  0  0  0  0
  -27.8616  -30.4357   23.9108 H   0  0  0  0  0  0
  -27.2659  -33.3567   26.2101 H   0  0  0  0  0  0
  -28.3855  -32.6902   25.0300 H   0  0  0  0  0  0
  -28.0734  -31.8383   26.5348 H   0  0  0  0  0  0
  -28.2598  -38.0107   24.7509 H   0  0  0  0  0  0
  -28.1071  -36.2631   24.6268 H   0  0  0  0  0  0
  -27.2299  -37.1444   25.8866 H   0  0  0  0  0  0
  -20.9214  -29.8812   21.7008 H   0  0  0  0  0  0
  -26.0181  -38.2875   24.1415 H   0  0  0  0  0  0
  -30.4149  -22.9049   18.6081 H   0  0  0  0  0  0
  -29.4320  -22.9381   22.8262 H   0  0  0  0  0  0
  -31.1873  -21.3478   17.2183 H   0  0  0  0  0  0
  -29.5040  -20.8375   17.3192 H   0  0  0  0  0  0
  -30.7433  -19.7270   16.7515 H   0  0  0  0  0  0
  -32.8497  -20.6533   18.8542 H   0  0  0  0  0  0
  -32.6087  -18.9614   18.4518 H   0  0  0  0  0  0
  -32.5273  -19.5026   20.1297 H   0  0  0  0  0  0
  -32.9587  -25.5634   19.3882 H   0  0  0  0  0  0
  -32.4601  -23.9961   19.9944 H   0  0  0  0  0  0
  -32.5693  -25.3759   21.0967 H   0  0  0  0  0  0
  -30.0184  -18.1371   18.1809 H   0  0  0  0  0  0
  -28.8628  -18.9684   19.1779 H   0  0  0  0  0  0
  -27.6561  -24.9998   20.8391 H   0  0  0  0  0  0
  -28.1972  -24.9620   19.1579 H   0  0  0  0  0  0
  -28.4923  -16.9336   20.6196 H   0  0  0  0  0  0
  -29.3035  -16.2638   19.2519 H   0  0  0  0  0  0
  -29.9744  -25.2420   21.6274 H   0  0  0  0  0  0
  -29.0925  -15.0570   21.6019 H   0  0  0  0  0  0
  -30.7096  -25.2162   18.8085 H   0  0  0  0  0  0
  -30.8099  -26.4387   19.8554 H   0  0  0  0  0  0
  -30.2881  -18.3323   21.0785 H   0  0  0  0  0  0
  -31.2800  -17.5408   20.0453 H   0  0  0  0  0  0
  1 25  1  0  0  0
  1 30  2  0  0  0
  1 83  1  0  0  0
  2  3  1  0  0  0
  2 25  1  0  0  0
  2 87  1  0  0  0
  2 88  1  0  0  0
  3  4  1  0  0  0
  3 89  1  0  0  0
  3 90  1  0  0  0
  4  5  1  0  0  0
  4 91  1  0  0  0
  4 92  1  0  0  0
  5  6  1  0  0  0
  5 26  1  0  0  0
  5 93  1  0  0  0
  6 25  1  0  0  0
  6 94  1  0  0  0
  6 95  1  0  0  0
  7  8  2  0  0  0
  7 26  1  0  0  0
  7 29  1  0  0  0
  8  9  1  0  0  0
  8 22  1  0  0  0
  9 10  1  0  0  0
  9 27  2  0  0  0
 10 11  2  0  0  0
 10 15  1  0  0  0
 11 12  1  0  0  0
 11 96  1  0  0  0
 12 13  2  0  0  0
 12 97  1  0  0  0
 13 14  1  0  0  0
 13 31  1  0  0  0
 14 15  2  0  0  0
 14 98  1  0  0  0
 15 99  1  0  0  0
 16 17  2  0  0  0
 16 21  1  0  0  0
 16 31  1  0  0  0
 17 18  1  0  0  0
 17100  1  0  0  0
 18 19  2  0  0  0
 18101  1  0  0  0
 19 20  1  0  0  0
 19 24  1  0  0  0
 20 21  2  0  0  0
 20102  1  0  0  0
 21 23  1  0  0  0
 22 28  1  0  0  0
 22 32  2  0  0  0
 26 27  1  0  0  0
 28103  1  0  0  0
 28104  1  0  0  0
 29105  1  0  0  0
 29106  1  0  0  0
 33 34  1  0  0  0
 33 66  1  0  0  0
 33 70  2  0  0  0
 34 36  1  0  0  0
 34 59  1  0  0  0
 34107  1  0  0  0
 35 44  2  0  0  0
 35 45  1  0  0  0
 35 68  1  0  0  0
 36 56  1  0  0  0
 36108  1  0  0  0
 37 39  1  0  0  0
 37 47  1  0  0  0
 37 66  1  0  0  0
 37109  1  0  0  0
 38 43  2  0  0  0
 38 46  1  0  0  0
 38 47  1  0  0  0
 39 64  1  0  0  0
 39 67  2  0  0  0
 40 52  1  0  0  0
 40 53  2  0  0  0
 40 58  1  0  0  0
 41110  1  0  0  0
 41111  1  0  0  0
 41112  1  0  0  0
 41 48  1  0  0  0
 42 43  1  0  0  0
 42 66  1  0  0  0
 42113  1  0  0  0
 42114  1  0  0  0
 43 44  1  0  0  0
 44115  1  0  0  0
 45 46  2  0  0  0
 45116  1  0  0  0
 46117  1  0  0  0
 47118  1  0  0  0
 47119  1  0  0  0
 48 56  1  0  0  0
 48 65  1  0  0  0
 48120  1  0  0  0
 49 50  1  0  0  0
 49 53  1  0  0  0
 49 64  1  0  0  0
 49121  1  0  0  0
 50 51  1  0  0  0
 50122  1  0  0  0
 50123  1  0  0  0
 51 52  1  0  0  0
 51124  1  0  0  0
 51125  1  0  0  0
 52126  1  0  0  0
 52127  1  0  0  0
 53 54  1  0  0  0
 54 55  2  0  0  0
 54128  1  0  0  0
 55 57  1  0  0  0
 55129  1  0  0  0
 56 69  2  0  0  0
 57 58  2  0  0  0
 57130  1  0  0  0
 58131  1  0  0  0
 59 60  1  0  0  0
 59 61  1  0  0  0
 59 62  1  0  0  0
 60132  1  0  0  0
 60133  1  0  0  0
 60134  1  0  0  0
 61135  1  0  0  0
 61136  1  0  0  0
 61137  1  0  0  0
 62138  1  0  0  0
 62139  1  0  0  0
 62140  1  0  0  0
 63 65  1  0  0  0
 63141  1  0  0  0
 63142  1  0  0  0
 63143  1  0  0  0
 64144  1  0  0  0
 65145  1  0  0  0
 68 79  1  0  0  0
 71 73  1  0  0  0
 71 74  2  0  0  0
 71146  1  0  0  0
 72 73  2  0  0  0
 72 86  1  0  0  0
 72147  1  0  0  0
 73 81  1  0  0  0
 74 82  1  0  0  0
 74 86  1  0  0  0
 75148  1  0  0  0
 75149  1  0  0  0
 75150  1  0  0  0
 75 82  1  0  0  0
 76 82  1  0  0  0
 76151  1  0  0  0
 76152  1  0  0  0
 76153  1  0  0  0
 77 84  1  0  0  0
 77154  1  0  0  0
 77155  1  0  0  0
 77156  1  0  0  0
 78 82  1  0  0  0
 78 85  1  0  0  0
 78157  1  0  0  0
 78158  1  0  0  0
 79159  1  0  0  0
 79160  1  0  0  0
 79 81  1  0  0  0
 80 83  1  0  0  0
 80 85  1  0  0  0
 80161  1  0  0  0
 80162  1  0  0  0
 81 84  1  0  0  0
 81163  1  0  0  0
 83164  1  0  0  0
 84165  1  0  0  0
 84166  1  0  0  0
 85167  1  0  0  0
 85168  1  0  0  0
M  CHG  2  84   1  85   1
M  ISO  4   1 100  68 101  79 101  83 100
M  END
> <chiral flag>
0

> <version>
0

> <s_m_source_file>
/data/baiqing/PycharmProjects/Reinvent-master-3.2/result/LINK_invent/BTK/process_docking_weight1_custom_sum_contain_oxygen_bond_distance_aromatic_linkinvent_7_9_3/rearranged_h_0111.sdf

> <i_m_source_file_index>
45

> <r_mmod_Potential_Energy-OPLS-2005>
-446.697296142578

> <r_mmod_Stretch_Energy-OPLS-2005>
36.666431427002

> <r_mmod_Bend_Energy-OPLS-2005>
115.711807250977

> <r_mmod_Torsional_Energy-OPLS-2005>
236.78125

> <r_mmod_Improper_Torsional_Energy-OPLS-2005>
9.77569675445557

> <r_mmod_Van_der_Waal_Energy-OPLS-2005>
135.214996337891

> <r_mmod_Electrostatic_Energy-OPLS-2005>
-134.492904663086

> <r_mmod_Solvation_Energy-OPLS-2005>
-858.796569824219

> <b_mmod_Minimization_Converged-OPLS-2005>
0

> <r_mmod_RMS_Derivative-OPLS-2005>
4.31941080093384

$$$$
45
                    3D
 Structure written by MMmdl.
150158  0  0  1  0            999 V2000
  -30.5418  -14.9776   20.4117 C   0  0  0  0  0  0
  -30.4373  -12.6077   19.5019 C   0  0  0  0  0  0
  -29.5232  -12.5286   18.2582 C   0  0  0  0  0  0
  -28.0567  -12.3126   18.6773 C   0  0  0  0  0  0
  -27.6262  -13.2521   19.8346 C   0  0  2  0  0  0
  -28.6679  -13.3020   20.9716 C   0  0  0  0  0  0
  -25.2450  -13.8218   20.5724 C   0  0  0  0  0  0
  -24.1773  -13.0434   20.9237 C   0  0  0  0  0  0
  -24.6396  -11.6922   20.8757 C   0  0  0  0  0  0
  -23.9087  -10.4289   21.0404 C   0  0  0  0  0  0
  -24.3636   -9.4201   21.9178 C   0  0  0  0  0  0
  -23.6304   -8.2240   22.0751 C   0  0  0  0  0  0
  -22.4281   -8.0286   21.3547 C   0  0  0  0  0  0
  -21.9921   -9.0261   20.4650 C   0  0  0  0  0  0
  -22.7257  -10.2136   20.3056 C   0  0  0  0  0  0
  -21.6854   -6.0742   22.5283 C   0  0  0  0  0  0
  -21.4016   -6.5643   23.8219 C   0  0  0  0  0  0
  -21.3657   -5.6794   24.9179 C   0  0  0  0  0  0
  -21.6043   -4.3058   24.7226 C   0  0  0  0  0  0
  -21.8817   -3.8151   23.4347 C   0  0  0  0  0  0
  -21.9192   -4.6970   22.3404 C   0  0  0  0  0  0
  -22.7793  -13.5206   21.1880 C   0  0  0  0  0  0
  -22.1657   -4.2156   21.0982 F   0  0  0  0  0  0
  -21.5620   -3.4541   25.7736 F   0  0  0  0  0  0
  -29.9379  -13.7195   20.3647 N   0  0  0  0  0  0
  -26.2870  -12.9456   20.3232 N   0  0  0  0  0  0
  -25.9326  -11.6581   20.5730 N   0  0  0  0  0  0
  -22.0440  -12.8207   22.0442 N   0  0  0  0  0  0
  -25.4104  -15.1949   20.4152 N   0  0  0  0  0  0
  -31.7517  -15.0170   20.1652 O   0  0  0  0  0  0
  -21.6641   -6.8887   21.4246 O   0  0  0  0  0  0
  -22.3479  -14.5506   20.6712 O   0  0  0  0  0  0
  -24.6474  -31.8409   23.1844 C   0  0  0  0  0  0
  -25.9226  -32.4678   23.8260 C   0  0  1  0  0  0
  -27.2166  -27.1023   20.1501 C   0  0  0  0  0  0
  -25.5951  -33.8485   24.2176 N   0  0  0  0  0  0
  -23.4524  -30.4599   21.5311 C   0  0  2  0  0  0
  -24.9011  -28.8813   20.1094 C   0  0  0  0  0  0
  -22.7591  -29.4535   22.4844 C   0  0  0  0  0  0
  -18.0309  -28.1397   22.8475 C   0  0  0  0  0  0
  -24.1487  -36.7247   23.2645 C   0  0  0  0  0  0
  -26.0116  -30.7039   21.3884 C   0  0  0  0  0  0
  -26.0806  -29.3127   20.7284 C   0  0  0  0  0  0
  -27.2376  -28.4403   20.7288 C   0  0  0  0  0  0
  -26.0038  -26.7785   19.5007 C   0  0  0  0  0  0
  -24.8773  -27.6289   19.4794 C   0  0  0  0  0  0
  -23.6802  -29.7879   20.1512 C   0  0  0  0  0  0
  -25.4121  -36.3020   24.0315 C   0  0  1  0  0  0
  -20.5927  -28.3730   23.1220 C   0  0  2  0  0  0
  -20.6787  -26.9426   22.5403 C   0  0  0  0  0  0
  -19.5761  -26.6379   21.5212 C   0  0  0  0  0  0
  -18.1945  -26.7933   22.1626 C   0  0  0  0  0  0
  -19.1568  -28.8882   23.2837 C   0  0  0  0  0  0
  -18.9484  -30.1474   23.8870 C   0  0  0  0  0  0
  -17.6480  -30.6589   24.0557 C   0  0  0  0  0  0
  -25.9077  -34.9396   23.5059 C   0  0  0  0  0  0
  -16.5371  -29.9085   23.6333 C   0  0  0  0  0  0
  -16.7294  -28.6502   23.0358 C   0  0  0  0  0  0
  -26.4527  -31.6563   25.0722 C   0  0  0  0  0  0
  -25.3695  -31.3767   26.1407 C   0  0  0  0  0  0
  -27.0405  -30.2954   24.6338 C   0  0  0  0  0  0
  -27.6044  -32.4347   25.7511 C   0  0  0  0  0  0
  -27.5573  -37.1779   24.8465 C   0  0  0  0  0  0
  -21.4280  -29.3048   22.3590 N   0  0  0  0  0  0
  -26.4280  -37.3738   23.9412 N   0  0  0  0  0  0
  -24.7238  -31.0241   22.0892 N   0  0  0  0  0  0
  -23.4217  -28.8087   23.3010 O   0  0  0  0  0  0
  -28.2690  -26.1043   20.2347 O   0  0  0  0  0  0
  -26.5674  -34.8899   22.4646 O   0  0  0  0  0  0
  -23.5583  -32.1308   23.7043 O   0  0  0  0  0  0
  -29.7932  -20.5536   20.5371 C   0  0  0  0  0  0
  -28.0267  -19.1807   20.0424 C   0  0  0  0  0  0
  -29.3634  -19.1088   20.3665 C   0  0  0  0  0  0
  -28.8692  -21.6421   20.3620 C   0  0  0  0  0  0
  -28.2181  -24.4323   18.4037 C   0  0  0  0  0  0
  -30.2530  -17.7096   20.4841 C   0  0  0  0  0  0
  -28.9814  -23.2836   20.6044 C   0  0  0  0  0  0
  -28.0914  -24.5674   19.9297 C   0  0  1  0  0  0
  -29.7900  -16.1894   20.5273 N   0  0  0  0  0  0
  -27.3616  -20.8389   19.9653 S   0  0  0  0  0  0
  -31.4714  -12.7643   19.1908 H   0  0  0  0  0  0
  -30.4322  -11.6635   20.0485 H   0  0  0  0  0  0
  -29.8477  -11.7223   17.5986 H   0  0  0  0  0  0
  -29.6100  -13.4508   17.6815 H   0  0  0  0  0  0
  -27.9565  -11.2736   18.9926 H   0  0  0  0  0  0
  -27.3950  -12.4341   17.8186 H   0  0  0  0  0  0
  -27.5838  -14.2496   19.3971 H   0  0  0  0  0  0
  -28.7630  -12.3323   21.4626 H   0  0  0  0  0  0
  -28.3628  -14.0132   21.7407 H   0  0  0  0  0  0
  -25.2776   -9.5669   22.4761 H   0  0  0  0  0  0
  -24.0005   -7.4628   22.7470 H   0  0  0  0  0  0
  -21.0845   -8.8793   19.8964 H   0  0  0  0  0  0
  -22.3713  -10.9681   19.6176 H   0  0  0  0  0  0
  -21.2016   -7.6152   23.9728 H   0  0  0  0  0  0
  -21.1474   -6.0520   25.9082 H   0  0  0  0  0  0
  -22.0597   -2.7613   23.2847 H   0  0  0  0  0  0
  -22.4062  -11.9896   22.4870 H   0  0  0  0  0  0
  -21.1052  -13.1227   22.2629 H   0  0  0  0  0  0
  -24.6378  -15.8426   20.5246 H   0  0  0  0  0  0
  -26.2474  -15.6341   20.0568 H   0  0  0  0  0  0
  -26.7297  -32.5270   23.0990 H   0  0  0  0  0  0
  -25.0050  -33.9591   25.0291 H   0  0  0  0  0  0
  -22.7560  -31.2863   21.3736 H   0  0  0  0  0  0
  -23.3752  -35.9575   23.3290 H   0  0  0  0  0  0
  -24.3573  -36.8903   22.2063 H   0  0  0  0  0  0
  -23.7240  -37.6434   23.6700 H   0  0  0  0  0  0
  -26.1747  -31.4564   20.6157 H   0  0  0  0  0  0
  -26.8786  -30.7521   22.0356 H   0  0  0  0  0  0
  -28.1361  -28.7663   21.2341 H   0  0  0  0  0  0
  -25.8802  -25.8180   19.0268 H   0  0  0  0  0  0
  -23.9751  -27.2903   18.9889 H   0  0  0  0  0  0
  -23.8209  -30.5606   19.3950 H   0  0  0  0  0  0
  -22.7938  -29.2330   19.8389 H   0  0  0  0  0  0
  -25.1307  -36.1841   25.0806 H   0  0  0  0  0  0
  -21.0018  -28.3322   24.1341 H   0  0  0  0  0  0
  -20.5666  -26.2349   23.3632 H   0  0  0  0  0  0
  -21.6653  -26.7413   22.1211 H   0  0  0  0  0  0
  -19.6915  -25.6280   21.1263 H   0  0  0  0  0  0
  -19.6690  -27.3168   20.6723 H   0  0  0  0  0  0
  -17.4209  -26.6674   21.4033 H   0  0  0  0  0  0
  -18.0341  -26.0082   22.9032 H   0  0  0  0  0  0
  -19.7960  -30.7292   24.2231 H   0  0  0  0  0  0
  -17.5034  -31.6264   24.5166 H   0  0  0  0  0  0
  -15.5370  -30.2978   23.7663 H   0  0  0  0  0  0
  -15.8698  -28.0805   22.7099 H   0  0  0  0  0  0
  -24.5864  -30.7130   25.7723 H   0  0  0  0  0  0
  -24.8892  -32.2955   26.4782 H   0  0  0  0  0  0
  -25.7957  -30.8965   27.0225 H   0  0  0  0  0  0
  -26.3042  -29.6666   24.1320 H   0  0  0  0  0  0
  -27.3974  -29.7268   25.4938 H   0  0  0  0  0  0
  -27.8966  -30.4184   23.9701 H   0  0  0  0  0  0
  -27.2618  -33.3664   26.2028 H   0  0  0  0  0  0
  -28.3878  -32.6892   25.0357 H   0  0  0  0  0  0
  -28.0687  -31.8521   26.5478 H   0  0  0  0  0  0
  -28.2576  -38.0089   24.7509 H   0  0  0  0  0  0
  -28.1082  -36.2616   24.6287 H   0  0  0  0  0  0
  -27.2292  -37.1418   25.8869 H   0  0  0  0  0  0
  -20.9502  -29.8770   21.6769 H   0  0  0  0  0  0
  -26.0141  -38.2804   24.1413 H   0  0  0  0  0  0
  -30.8210  -20.7447   20.8157 H   0  0  0  0  0  0
  -27.3643  -18.3488   19.8330 H   0  0  0  0  0  0
  -27.9283  -23.4341   18.0740 H   0  0  0  0  0  0
  -29.2492  -24.5943   18.0891 H   0  0  0  0  0  0
  -27.6028  -25.1471   17.8610 H   0  0  0  0  0  0
  -30.8871  -17.8163   21.3648 H   0  0  0  0  0  0
  -30.9676  -17.7376   19.6607 H   0  0  0  0  0  0
  -30.0228  -23.5350   20.4047 H   0  0  0  0  0  0
  -28.8959  -23.4237   21.6820 H   0  0  0  0  0  0
  -27.0611  -24.3390   20.2018 H   0  0  0  0  0  0
  -28.8020  -16.0550   20.6749 H   0  0  0  0  0  0
  1 25  1  0  0  0
  1 30  2  0  0  0
  1 79  1  0  0  0
  2  3  1  0  0  0
  2 25  1  0  0  0
  2 81  1  0  0  0
  2 82  1  0  0  0
  3  4  1  0  0  0
  3 83  1  0  0  0
  3 84  1  0  0  0
  4  5  1  0  0  0
  4 85  1  0  0  0
  4 86  1  0  0  0
  5  6  1  0  0  0
  5 26  1  0  0  0
  5 87  1  0  0  0
  6 25  1  0  0  0
  6 88  1  0  0  0
  6 89  1  0  0  0
  7  8  2  0  0  0
  7 26  1  0  0  0
  7 29  1  0  0  0
  8  9  1  0  0  0
  8 22  1  0  0  0
  9 10  1  0  0  0
  9 27  2  0  0  0
 10 11  2  0  0  0
 10 15  1  0  0  0
 11 12  1  0  0  0
 11 90  1  0  0  0
 12 13  2  0  0  0
 12 91  1  0  0  0
 13 14  1  0  0  0
 13 31  1  0  0  0
 14 15  2  0  0  0
 14 92  1  0  0  0
 15 93  1  0  0  0
 16 17  2  0  0  0
 16 21  1  0  0  0
 16 31  1  0  0  0
 17 18  1  0  0  0
 17 94  1  0  0  0
 18 19  2  0  0  0
 18 95  1  0  0  0
 19 20  1  0  0  0
 19 24  1  0  0  0
 20 21  2  0  0  0
 20 96  1  0  0  0
 21 23  1  0  0  0
 22 28  1  0  0  0
 22 32  2  0  0  0
 26 27  1  0  0  0
 28 97  1  0  0  0
 28 98  1  0  0  0
 29 99  1  0  0  0
 29100  1  0  0  0
 33 34  1  0  0  0
 33 66  1  0  0  0
 33 70  2  0  0  0
 34 36  1  0  0  0
 34 59  1  0  0  0
 34101  1  0  0  0
 35 44  2  0  0  0
 35 45  1  0  0  0
 35 68  1  0  0  0
 36 56  1  0  0  0
 36102  1  0  0  0
 37 39  1  0  0  0
 37 47  1  0  0  0
 37 66  1  0  0  0
 37103  1  0  0  0
 38 43  2  0  0  0
 38 46  1  0  0  0
 38 47  1  0  0  0
 39 64  1  0  0  0
 39 67  2  0  0  0
 40 52  1  0  0  0
 40 53  2  0  0  0
 40 58  1  0  0  0
 41104  1  0  0  0
 41105  1  0  0  0
 41106  1  0  0  0
 41 48  1  0  0  0
 42 43  1  0  0  0
 42 66  1  0  0  0
 42107  1  0  0  0
 42108  1  0  0  0
 43 44  1  0  0  0
 44109  1  0  0  0
 45 46  2  0  0  0
 45110  1  0  0  0
 46111  1  0  0  0
 47112  1  0  0  0
 47113  1  0  0  0
 48 56  1  0  0  0
 48 65  1  0  0  0
 48114  1  0  0  0
 49 50  1  0  0  0
 49 53  1  0  0  0
 49 64  1  0  0  0
 49115  1  0  0  0
 50 51  1  0  0  0
 50116  1  0  0  0
 50117  1  0  0  0
 51 52  1  0  0  0
 51118  1  0  0  0
 51119  1  0  0  0
 52120  1  0  0  0
 52121  1  0  0  0
 53 54  1  0  0  0
 54 55  2  0  0  0
 54122  1  0  0  0
 55 57  1  0  0  0
 55123  1  0  0  0
 56 69  2  0  0  0
 57 58  2  0  0  0
 57124  1  0  0  0
 58125  1  0  0  0
 59 60  1  0  0  0
 59 61  1  0  0  0
 59 62  1  0  0  0
 60126  1  0  0  0
 60127  1  0  0  0
 60128  1  0  0  0
 61129  1  0  0  0
 61130  1  0  0  0
 61131  1  0  0  0
 62132  1  0  0  0
 62133  1  0  0  0
 62134  1  0  0  0
 63 65  1  0  0  0
 63135  1  0  0  0
 63136  1  0  0  0
 63137  1  0  0  0
 64138  1  0  0  0
 65139  1  0  0  0
 68 78  1  0  0  0
 71 73  1  0  0  0
 71 74  2  0  0  0
 71140  1  0  0  0
 72 73  2  0  0  0
 72 80  1  0  0  0
 72141  1  0  0  0
 73 76  1  0  0  0
 74 77  1  0  0  0
 74 80  1  0  0  0
 75142  1  0  0  0
 75143  1  0  0  0
 75144  1  0  0  0
 75 78  1  0  0  0
 76 79  1  0  0  0
 76145  1  0  0  0
 76146  1  0  0  0
 77 78  1  0  0  0
 77147  1  0  0  0
 77148  1  0  0  0
 78149  1  0  0  0
 79150  1  0  0  0
M  ISO  4   1 100  68 101  78 101  79 100
M  END
> <chiral flag>
0

> <version>
0

> <s_m_source_file>
/data/baiqing/PycharmProjects/Reinvent-master-3.2/result/LINK_invent/BTK/process_docking_weight1_custom_sum_contain_oxygen_bond_distance_aromatic_linkinvent_7_9_3/rearranged_h_0111.sdf

> <i_m_source_file_index>
46

> <r_mmod_Potential_Energy-OPLS-2005>
441.253479003906

> <r_mmod_Stretch_Energy-OPLS-2005>
284.244659423828

> <r_mmod_Bend_Energy-OPLS-2005>
269.805419921875

> <r_mmod_Torsional_Energy-OPLS-2005>
186.782379150391

> <r_mmod_Improper_Torsional_Energy-OPLS-2005>
4.68723964691162

> <r_mmod_Van_der_Waal_Energy-OPLS-2005>
108.713554382324

> <r_mmod_Electrostatic_Energy-OPLS-2005>
-415.700622558594

> <r_mmod_Solvation_Energy-OPLS-2005>
-215.420150756836

> <b_mmod_Minimization_Converged-OPLS-2005>
0

> <r_mmod_RMS_Derivative-OPLS-2005>
1.0219978094101

$$$$
46
                    3D
 Structure written by MMmdl.
167175  0  0  1  0            999 V2000
  -30.6233  -14.5878   20.5220 C   0  0  0  0  0  0
  -30.4355  -12.3605   19.4375 C   0  0  0  0  0  0
  -29.5024  -12.5124   18.2158 C   0  0  0  0  0  0
  -28.0234  -12.3528   18.6226 C   0  0  0  0  0  0
  -27.6537  -13.2081   19.8631 C   0  0  2  0  0  0
  -28.6952  -13.0311   20.9917 C   0  0  0  0  0  0
  -25.2582  -13.8171   20.5659 C   0  0  0  0  0  0
  -24.1826  -13.0431   20.9157 C   0  0  0  0  0  0
  -24.6401  -11.6909   20.8750 C   0  0  0  0  0  0
  -23.9085  -10.4290   21.0441 C   0  0  0  0  0  0
  -24.3655   -9.4197   21.9210 C   0  0  0  0  0  0
  -23.6318   -8.2238   22.0759 C   0  0  0  0  0  0
  -22.4291   -8.0306   21.3561 C   0  0  0  0  0  0
  -21.9953   -9.0270   20.4654 C   0  0  0  0  0  0
  -22.7273  -10.2147   20.3072 C   0  0  0  0  0  0
  -21.6852   -6.0764   22.5281 C   0  0  0  0  0  0
  -21.4008   -6.5659   23.8218 C   0  0  0  0  0  0
  -21.3648   -5.6813   24.9177 C   0  0  0  0  0  0
  -21.6033   -4.3079   24.7224 C   0  0  0  0  0  0
  -21.8824   -3.8171   23.4346 C   0  0  0  0  0  0
  -21.9185   -4.6987   22.3400 C   0  0  0  0  0  0
  -22.7874  -13.5244   21.1862 C   0  0  0  0  0  0
  -22.1665   -4.2174   21.0977 F   0  0  0  0  0  0
  -21.5623   -3.4559   25.7734 F   0  0  0  0  0  0
  -30.0178  -13.3633   20.4346 N   0  0  0  0  0  0
  -26.2987  -12.9310   20.3307 N   0  0  0  0  0  0
  -25.9311  -11.6471   20.5729 N   0  0  0  0  0  0
  -22.0519  -12.8203   22.0410 N   0  0  0  0  0  0
  -25.4349  -15.1892   20.4138 N   0  0  0  0  0  0
  -31.7786  -14.7794   20.1306 O   0  0  0  0  0  0
  -21.6649   -6.8913   21.4250 O   0  0  0  0  0  0
  -22.3561  -14.5534   20.6704 O   0  0  0  0  0  0
  -24.6214  -31.8657   23.1954 C   0  0  0  0  0  0
  -25.9039  -32.4846   23.8328 C   0  0  1  0  0  0
  -27.2426  -27.3561   20.1117 C   0  0  0  0  0  0
  -25.5863  -33.8636   24.2257 N   0  0  0  0  0  0
  -23.4152  -30.4844   21.5327 C   0  0  2  0  0  0
  -24.8692  -28.9356   20.1090 C   0  0  0  0  0  0
  -22.7407  -29.4702   22.4883 C   0  0  0  0  0  0
  -18.0196  -28.1398   22.8490 C   0  0  0  0  0  0
  -24.1507  -36.7288   23.2654 C   0  0  0  0  0  0
  -25.9563  -30.7983   21.3715 C   0  0  0  0  0  0
  -26.0271  -29.4251   20.7225 C   0  0  0  0  0  0
  -27.2085  -28.6377   20.7328 C   0  0  0  0  0  0
  -26.0600  -26.8965   19.4879 C   0  0  0  0  0  0
  -24.8847  -27.6708   19.4918 C   0  0  0  0  0  0
  -23.6326  -29.8069   20.1513 C   0  0  0  0  0  0
  -25.4143  -36.3142   24.0355 C   0  0  1  0  0  0
  -20.5805  -28.3766   23.1185 C   0  0  2  0  0  0
  -20.6698  -26.9500   22.5282 C   0  0  0  0  0  0
  -19.5586  -26.6416   21.5153 C   0  0  0  0  0  0
  -18.1868  -26.7884   22.1773 C   0  0  0  0  0  0
  -19.1454  -28.8907   23.2835 C   0  0  0  0  0  0
  -18.9354  -30.1470   23.8924 C   0  0  0  0  0  0
  -17.6349  -30.6583   24.0569 C   0  0  0  0  0  0
  -25.9063  -34.9509   23.5118 C   0  0  0  0  0  0
  -16.5239  -29.9125   23.6250 C   0  0  0  0  0  0
  -16.7170  -28.6538   23.0256 C   0  0  0  0  0  0
  -26.4438  -31.6652   25.0698 C   0  0  0  0  0  0
  -25.3598  -31.3747   26.1337 C   0  0  0  0  0  0
  -27.0268  -30.3088   24.6145 C   0  0  0  0  0  0
  -27.6064  -32.4335   25.7420 C   0  0  0  0  0  0
  -27.5607  -37.1822   24.8477 C   0  0  0  0  0  0
  -21.4126  -29.3079   22.3561 N   0  0  0  0  0  0
  -26.4331  -37.3818   23.9410 N   0  0  0  0  0  0
  -24.6834  -31.0691   22.0904 N   0  0  0  0  0  0
  -23.4115  -28.8268   23.2994 O   0  0  0  0  0  0
  -28.4050  -26.5898   20.1635 O   0  0  0  0  0  0
  -26.5658  -34.8969   22.4714 O   0  0  0  0  0  0
  -23.5371  -32.1448   23.7265 O   0  0  0  0  0  0
  -29.3053  -17.9778   20.2144 C   0  0  0  0  0  0
  -30.6102  -17.7149   22.0669 C   0  0  0  0  0  0
  -29.9717  -17.0360   20.9735 C   0  0  0  0  0  0
  -30.3378  -19.0620   21.8852 C   0  0  0  0  0  0
  -30.7463  -20.2133   22.7558 C   0  0  0  0  0  0
  -32.8214  -17.5706   23.3484 C   0  0  0  0  0  0
  -27.2030  -23.1781   19.0060 C   0  0  0  0  0  0
  -28.7909  -20.4988   20.3499 C   0  0  0  0  0  0
  -29.6227  -21.7935   19.9936 C   0  0  0  0  0  0
  -28.5787  -25.3538   19.4028 C   0  0  0  0  0  0
  -31.3396  -17.1553   23.2888 C   0  0  2  0  0  0
  -28.0800  -23.9688   20.0040 C   0  0  2  0  0  0
  -29.5058  -19.2458   20.7728 N   0  0  0  0  0  0
  -29.7735  -15.6100   20.8359 N   0  0  0  0  0  0
  -29.1663  -23.1000   20.6188 N   0  3  0  0  0  0
  -31.2355  -15.7499   23.4446 O   0  0  0  0  0  0
  -31.4761  -12.4968   19.1372 H   0  0  0  0  0  0
  -30.3684  -11.3521   19.8475 H   0  0  0  0  0  0
  -29.7599  -11.7814   17.4458 H   0  0  0  0  0  0
  -29.6537  -13.4972   17.7668 H   0  0  0  0  0  0
  -27.8548  -11.2948   18.8342 H   0  0  0  0  0  0
  -27.3735  -12.6077   17.7838 H   0  0  0  0  0  0
  -27.6803  -14.2494   19.5369 H   0  0  0  0  0  0
  -28.6872  -12.0081   21.3698 H   0  0  0  0  0  0
  -28.4435  -13.6615   21.8469 H   0  0  0  0  0  0
  -25.2817   -9.5656   22.4771 H   0  0  0  0  0  0
  -24.0013   -7.4640   22.7480 H   0  0  0  0  0  0
  -21.0894   -8.8826   19.8972 H   0  0  0  0  0  0
  -22.3781  -10.9704   19.6183 H   0  0  0  0  0  0
  -21.2007   -7.6163   23.9734 H   0  0  0  0  0  0
  -21.1461   -6.0534   25.9083 H   0  0  0  0  0  0
  -22.0610   -2.7629   23.2834 H   0  0  0  0  0  0
  -22.4177  -11.9838   22.4695 H   0  0  0  0  0  0
  -21.1146  -13.1235   22.2647 H   0  0  0  0  0  0
  -24.6797  -15.8530   20.5430 H   0  0  0  0  0  0
  -26.2907  -15.6343   20.1064 H   0  0  0  0  0  0
  -26.7120  -32.5548   23.1087 H   0  0  0  0  0  0
  -24.9911  -33.9781   25.0318 H   0  0  0  0  0  0
  -22.7068  -31.3001   21.3775 H   0  0  0  0  0  0
  -23.3819  -35.9572   23.3364 H   0  0  0  0  0  0
  -24.3587  -36.8849   22.2065 H   0  0  0  0  0  0
  -23.7200  -37.6489   23.6608 H   0  0  0  0  0  0
  -26.0929  -31.5494   20.5927 H   0  0  0  0  0  0
  -26.8402  -30.8528   21.9969 H   0  0  0  0  0  0
  -28.0899  -28.9975   21.2416 H   0  0  0  0  0  0
  -26.0202  -25.9311   19.0091 H   0  0  0  0  0  0
  -23.9946  -27.2932   19.0101 H   0  0  0  0  0  0
  -23.7368  -30.5737   19.3851 H   0  0  0  0  0  0
  -22.7611  -29.2189   19.8582 H   0  0  0  0  0  0
  -25.1333  -36.2044   25.0859 H   0  0  0  0  0  0
  -20.9932  -28.3381   24.1306 H   0  0  0  0  0  0
  -20.5585  -26.2406   23.3446 H   0  0  0  0  0  0
  -21.6583  -26.7539   22.1111 H   0  0  0  0  0  0
  -19.6316  -27.3286   20.6679 H   0  0  0  0  0  0
  -19.6650  -25.6331   21.1168 H   0  0  0  0  0  0
  -17.4009  -26.6428   21.4362 H   0  0  0  0  0  0
  -18.0429  -26.0115   22.9305 H   0  0  0  0  0  0
  -19.7739  -30.7323   24.2405 H   0  0  0  0  0  0
  -17.4826  -31.6253   24.5187 H   0  0  0  0  0  0
  -15.5266  -30.3058   23.7572 H   0  0  0  0  0  0
  -15.8522  -28.0939   22.6918 H   0  0  0  0  0  0
  -24.5797  -30.7140   25.7512 H   0  0  0  0  0  0
  -24.8710  -32.2880   26.4763 H   0  0  0  0  0  0
  -25.7793  -30.8837   27.0114 H   0  0  0  0  0  0
  -26.2814  -29.6881   24.1144 H   0  0  0  0  0  0
  -27.3940  -29.7352   25.4668 H   0  0  0  0  0  0
  -27.8714  -30.4432   23.9369 H   0  0  0  0  0  0
  -27.2797  -33.3659   26.2024 H   0  0  0  0  0  0
  -28.3803  -32.6857   25.0156 H   0  0  0  0  0  0
  -28.0793  -31.8417   26.5263 H   0  0  0  0  0  0
  -28.2683  -38.0075   24.7529 H   0  0  0  0  0  0
  -28.1054  -36.2620   24.6313 H   0  0  0  0  0  0
  -27.2302  -37.1470   25.8870 H   0  0  0  0  0  0
  -20.9385  -29.8529   21.6460 H   0  0  0  0  0  0
  -26.0266  -38.2926   24.1342 H   0  0  0  0  0  0
  -28.6502  -17.8659   19.3577 H   0  0  0  0  0  0
  -30.7733  -19.9203   23.8036 H   0  0  0  0  0  0
  -30.0648  -21.0571   22.6868 H   0  0  0  0  0  0
  -31.7442  -20.5659   22.4911 H   0  0  0  0  0  0
  -32.9337  -18.6538   23.2760 H   0  0  0  0  0  0
  -33.4108  -17.1249   22.5482 H   0  0  0  0  0  0
  -33.2673  -17.2778   24.3026 H   0  0  0  0  0  0
  -27.7604  -22.8839   18.1159 H   0  0  0  0  0  0
  -26.3530  -23.7640   18.6548 H   0  0  0  0  0  0
  -26.7849  -22.2790   19.4606 H   0  0  0  0  0  0
  -28.1794  -20.2549   19.4806 H   0  0  0  0  0  0
  -28.0719  -20.7374   21.1327 H   0  0  0  0  0  0
  -29.6932  -21.9112   18.9133 H   0  0  0  0  0  0
  -30.6541  -21.6217   20.3070 H   0  0  0  0  0  0
  -28.1450  -25.5058   18.4122 H   0  0  0  0  0  0
  -29.6462  -25.2753   19.2027 H   0  0  0  0  0  0
  -30.8274  -17.5751   24.1547 H   0  0  0  0  0  0
  -27.4215  -24.2354   20.8350 H   0  0  0  0  0  0
  -28.8304  -15.2988   20.9997 H   0  0  0  0  0  0
  -29.9829  -23.6871   20.6888 H   0  0  0  0  0  0
  -28.9107  -22.9084   21.5757 H   0  0  0  0  0  0
  -31.3615  -15.5466   24.3650 H   0  0  0  0  0  0
  1 25  1  0  0  0
  1 30  2  0  0  0
  1 84  1  0  0  0
  2  3  1  0  0  0
  2 25  1  0  0  0
  2 87  1  0  0  0
  2 88  1  0  0  0
  3  4  1  0  0  0
  3 89  1  0  0  0
  3 90  1  0  0  0
  4  5  1  0  0  0
  4 91  1  0  0  0
  4 92  1  0  0  0
  5  6  1  0  0  0
  5 26  1  0  0  0
  5 93  1  0  0  0
  6 25  1  0  0  0
  6 94  1  0  0  0
  6 95  1  0  0  0
  7  8  2  0  0  0
  7 26  1  0  0  0
  7 29  1  0  0  0
  8  9  1  0  0  0
  8 22  1  0  0  0
  9 10  1  0  0  0
  9 27  2  0  0  0
 10 11  2  0  0  0
 10 15  1  0  0  0
 11 12  1  0  0  0
 11 96  1  0  0  0
 12 13  2  0  0  0
 12 97  1  0  0  0
 13 14  1  0  0  0
 13 31  1  0  0  0
 14 15  2  0  0  0
 14 98  1  0  0  0
 15 99  1  0  0  0
 16 17  2  0  0  0
 16 21  1  0  0  0
 16 31  1  0  0  0
 17 18  1  0  0  0
 17100  1  0  0  0
 18 19  2  0  0  0
 18101  1  0  0  0
 19 20  1  0  0  0
 19 24  1  0  0  0
 20 21  2  0  0  0
 20102  1  0  0  0
 21 23  1  0  0  0
 22 28  1  0  0  0
 22 32  2  0  0  0
 26 27  1  0  0  0
 28103  1  0  0  0
 28104  1  0  0  0
 29105  1  0  0  0
 29106  1  0  0  0
 33 34  1  0  0  0
 33 66  1  0  0  0
 33 70  2  0  0  0
 34 36  1  0  0  0
 34 59  1  0  0  0
 34107  1  0  0  0
 35 44  2  0  0  0
 35 45  1  0  0  0
 35 68  1  0  0  0
 36 56  1  0  0  0
 36108  1  0  0  0
 37 39  1  0  0  0
 37 47  1  0  0  0
 37 66  1  0  0  0
 37109  1  0  0  0
 38 43  2  0  0  0
 38 46  1  0  0  0
 38 47  1  0  0  0
 39 64  1  0  0  0
 39 67  2  0  0  0
 40 52  1  0  0  0
 40 53  2  0  0  0
 40 58  1  0  0  0
 41110  1  0  0  0
 41111  1  0  0  0
 41112  1  0  0  0
 41 48  1  0  0  0
 42 43  1  0  0  0
 42 66  1  0  0  0
 42113  1  0  0  0
 42114  1  0  0  0
 43 44  1  0  0  0
 44115  1  0  0  0
 45 46  2  0  0  0
 45116  1  0  0  0
 46117  1  0  0  0
 47118  1  0  0  0
 47119  1  0  0  0
 48 56  1  0  0  0
 48 65  1  0  0  0
 48120  1  0  0  0
 49 50  1  0  0  0
 49 53  1  0  0  0
 49 64  1  0  0  0
 49121  1  0  0  0
 50 51  1  0  0  0
 50122  1  0  0  0
 50123  1  0  0  0
 51 52  1  0  0  0
 51124  1  0  0  0
 51125  1  0  0  0
 52126  1  0  0  0
 52127  1  0  0  0
 53 54  1  0  0  0
 54 55  2  0  0  0
 54128  1  0  0  0
 55 57  1  0  0  0
 55129  1  0  0  0
 56 69  2  0  0  0
 57 58  2  0  0  0
 57130  1  0  0  0
 58131  1  0  0  0
 59 60  1  0  0  0
 59 61  1  0  0  0
 59 62  1  0  0  0
 60132  1  0  0  0
 60133  1  0  0  0
 60134  1  0  0  0
 61135  1  0  0  0
 61136  1  0  0  0
 61137  1  0  0  0
 62138  1  0  0  0
 62139  1  0  0  0
 62140  1  0  0  0
 63 65  1  0  0  0
 63141  1  0  0  0
 63142  1  0  0  0
 63143  1  0  0  0
 64144  1  0  0  0
 65145  1  0  0  0
 68 80  1  0  0  0
 71 73  2  0  0  0
 71 83  1  0  0  0
 71146  1  0  0  0
 72 73  1  0  0  0
 72 74  2  0  0  0
 72 81  1  0  0  0
 73 84  1  0  0  0
 74 75  1  0  0  0
 74 83  1  0  0  0
 75147  1  0  0  0
 75148  1  0  0  0
 75149  1  0  0  0
 76150  1  0  0  0
 76151  1  0  0  0
 76152  1  0  0  0
 76 81  1  0  0  0
 77153  1  0  0  0
 77154  1  0  0  0
 77155  1  0  0  0
 77 82  1  0  0  0
 78 79  1  0  0  0
 78 83  1  0  0  0
 78156  1  0  0  0
 78157  1  0  0  0
 79 85  1  0  0  0
 79158  1  0  0  0
 79159  1  0  0  0
 80 82  1  0  0  0
 80160  1  0  0  0
 80161  1  0  0  0
 81 86  1  0  0  0
 81162  1  0  0  0
 82 85  1  0  0  0
 82163  1  0  0  0
 84164  1  0  0  0
 85165  1  0  0  0
 85166  1  0  0  0
 86167  1  0  0  0
M  CHG  1  85   1
M  ISO  4   1 100  68 101  80 101  84 100
M  END
> <chiral flag>
0

> <version>
0

> <s_m_source_file>
/data/baiqing/PycharmProjects/Reinvent-master-3.2/result/LINK_invent/BTK/process_docking_weight1_custom_sum_contain_oxygen_bond_distance_aromatic_linkinvent_7_9_3/rearranged_h_0111.sdf

> <i_m_source_file_index>
47

> <r_mmod_Potential_Energy-OPLS-2005>
-53.8558616638184

> <r_mmod_Stretch_Energy-OPLS-2005>
67.0987396240234

> <r_mmod_Bend_Energy-OPLS-2005>
158.902633666992

> <r_mmod_Torsional_Energy-OPLS-2005>
282.998352050781

> <r_mmod_Improper_Torsional_Energy-OPLS-2005>
9.52639389038086

> <r_mmod_Van_der_Waal_Energy-OPLS-2005>
120.070541381836

> <r_mmod_Electrostatic_Energy-OPLS-2005>
-218.717422485352

> <r_mmod_Solvation_Energy-OPLS-2005>
-506.79052734375

> <b_mmod_Minimization_Converged-OPLS-2005>
0

> <r_mmod_RMS_Derivative-OPLS-2005>
6.67889261245728

$$$$
47
                    3D
 Structure written by MMmdl.
169177  0  0  1  0            999 V2000
  -30.7798  -14.4287   20.6591 C   0  0  0  0  0  0
  -30.4162  -12.3102   19.4329 C   0  0  0  0  0  0
  -29.4933  -12.4837   18.2125 C   0  0  0  0  0  0
  -28.0184  -12.3335   18.6231 C   0  0  0  0  0  0
  -27.6572  -13.1908   19.8599 C   0  0  2  0  0  0
  -28.6911  -13.0134   20.9926 C   0  0  0  0  0  0
  -25.2549  -13.8085   20.5585 C   0  0  0  0  0  0
  -24.1823  -13.0387   20.9186 C   0  0  0  0  0  0
  -24.6391  -11.6861   20.8757 C   0  0  0  0  0  0
  -23.9067  -10.4261   21.0412 C   0  0  0  0  0  0
  -24.3643   -9.4184   21.9179 C   0  0  0  0  0  0
  -23.6314   -8.2217   22.0747 C   0  0  0  0  0  0
  -22.4294   -8.0271   21.3546 C   0  0  0  0  0  0
  -21.9926   -9.0232   20.4644 C   0  0  0  0  0  0
  -22.7244  -10.2114   20.3052 C   0  0  0  0  0  0
  -21.6858   -6.0737   22.5279 C   0  0  0  0  0  0
  -21.4014   -6.5640   23.8208 C   0  0  0  0  0  0
  -21.3654   -5.6790   24.9167 C   0  0  0  0  0  0
  -21.6048   -4.3061   24.7224 C   0  0  0  0  0  0
  -21.8826   -3.8152   23.4341 C   0  0  0  0  0  0
  -21.9194   -4.6968   22.3402 C   0  0  0  0  0  0
  -22.7861  -13.5203   21.1848 C   0  0  0  0  0  0
  -22.1663   -4.2156   21.0976 F   0  0  0  0  0  0
  -21.5629   -3.4537   25.7739 F   0  0  0  0  0  0
  -30.0367  -13.2981   20.4613 N   0  0  0  0  0  0
  -26.2987  -12.9253   20.3263 N   0  0  0  0  0  0
  -25.9311  -11.6435   20.5776 N   0  0  0  0  0  0
  -22.0506  -12.8198   22.0407 N   0  0  0  0  0  0
  -25.4160  -15.1780   20.3843 N   0  0  0  0  0  0
  -31.8183  -14.6393   20.0225 O   0  0  0  0  0  0
  -21.6645   -6.8874   21.4240 O   0  0  0  0  0  0
  -22.3557  -14.5510   20.6678 O   0  0  0  0  0  0
  -24.6094  -31.8700   23.2129 C   0  0  0  0  0  0
  -25.9003  -32.4844   23.8412 C   0  0  1  0  0  0
  -27.2499  -27.4686   20.1049 C   0  0  0  0  0  0
  -25.5878  -33.8640   24.2354 N   0  0  0  0  0  0
  -23.3980  -30.4919   21.5506 C   0  0  2  0  0  0
  -24.8520  -28.9637   20.1154 C   0  0  0  0  0  0
  -22.7387  -29.4662   22.4998 C   0  0  0  0  0  0
  -18.0265  -28.1375   22.8493 C   0  0  0  0  0  0
  -24.1486  -36.7319   23.2641 C   0  0  0  0  0  0
  -25.9212  -30.8518   21.3584 C   0  0  0  0  0  0
  -26.0063  -29.4863   20.7117 C   0  0  0  0  0  0
  -27.2085  -28.7490   20.7061 C   0  0  0  0  0  0
  -26.0844  -26.9629   19.4956 C   0  0  0  0  0  0
  -24.8837  -27.6979   19.5042 C   0  0  0  0  0  0
  -23.6076  -29.8211   20.1660 C   0  0  0  0  0  0
  -25.4109  -36.3130   24.0346 C   0  0  1  0  0  0
  -20.5851  -28.3654   23.1328 C   0  0  2  0  0  0
  -20.6756  -26.9392   22.5416 C   0  0  0  0  0  0
  -19.5737  -26.6385   21.5210 C   0  0  0  0  0  0
  -18.1915  -26.7924   22.1616 C   0  0  0  0  0  0
  -19.1513  -28.8829   23.2914 C   0  0  0  0  0  0
  -18.9447  -30.1439   23.8922 C   0  0  0  0  0  0
  -17.6454  -30.6584   24.0570 C   0  0  0  0  0  0
  -25.9027  -34.9490   23.5148 C   0  0  0  0  0  0
  -16.5343  -29.9093   23.6328 C   0  0  0  0  0  0
  -16.7256  -28.6509   23.0347 C   0  0  0  0  0  0
  -26.4464  -31.6600   25.0707 C   0  0  0  0  0  0
  -25.3752  -31.3680   26.1473 C   0  0  0  0  0  0
  -27.0299  -30.3057   24.6025 C   0  0  0  0  0  0
  -27.6053  -32.4310   25.7454 C   0  0  0  0  0  0
  -27.5586  -37.1817   24.8469 C   0  0  0  0  0  0
  -21.4120  -29.3029   22.3742 N   0  0  0  0  0  0
  -26.4305  -37.3803   23.9406 N   0  0  0  0  0  0
  -24.6607  -31.0835   22.1005 N   0  0  0  0  0  0
  -23.4172  -28.8200   23.3026 O   0  0  0  0  0  0
  -28.3676  -26.6634   20.0692 O   0  0  0  0  0  0
  -26.5581  -34.8925   22.4703 O   0  0  0  0  0  0
  -23.5296  -32.1432   23.7545 O   0  0  0  0  0  0
  -29.8217  -18.8012   20.1347 C   0  0  0  0  0  0
  -31.6399  -17.4258   21.7629 C   0  0  0  0  0  0
  -30.9734  -19.4722   20.5910 C   0  0  0  0  0  0
  -29.5727  -17.4575   20.4833 C   0  0  0  0  0  0
  -31.8814  -18.7783   21.4313 C   0  0  0  0  0  0
  -30.5053  -16.7377   21.2729 C   0  0  0  0  0  0
  -30.4568  -23.3523   20.1015 C   0  0  0  0  0  0
  -28.2896  -16.8257   20.0004 C   0  0  0  0  0  0
  -33.1463  -19.4313   21.9605 C   0  0  0  0  0  0
  -28.6778  -26.4346   22.5061 C   0  0  0  0  0  0
  -30.3676  -14.9688   22.9887 C   0  0  0  0  0  0
  -31.2189  -20.9046   20.1115 C   0  0  0  0  0  0
  -30.1235  -21.9143   20.5263 C   0  0  0  0  0  0
  -30.4514  -25.7446   20.7937 C   0  0  0  0  0  0
  -29.3192  -26.7367   21.1334 C   0  0  1  0  0  0
  -30.0367  -24.3421   20.8997 N   0  0  0  0  0  0
  -30.3404  -15.3409   21.5676 N   0  0  0  0  0  0
  -31.1150  -23.5640   19.0808 O   0  0  0  0  0  0
  -31.4600  -12.3968   19.1282 H   0  0  0  0  0  0
  -30.3208  -11.3029   19.8407 H   0  0  0  0  0  0
  -29.7410  -11.7388   17.4545 H   0  0  0  0  0  0
  -29.6541  -13.4597   17.7525 H   0  0  0  0  0  0
  -27.8382  -11.2801   18.8376 H   0  0  0  0  0  0
  -27.3692  -12.5861   17.7843 H   0  0  0  0  0  0
  -27.6905  -14.2221   19.5250 H   0  0  0  0  0  0
  -28.6660  -11.9944   21.3814 H   0  0  0  0  0  0
  -28.4080  -13.6545   21.8244 H   0  0  0  0  0  0
  -25.2792   -9.5655   22.4760 H   0  0  0  0  0  0
  -24.0028   -7.4602   22.7456 H   0  0  0  0  0  0
  -21.0863   -8.8736   19.8949 H   0  0  0  0  0  0
  -22.3692  -10.9658   19.6174 H   0  0  0  0  0  0
  -21.2006   -7.6146   23.9716 H   0  0  0  0  0  0
  -21.1474   -6.0513   25.9068 H   0  0  0  0  0  0
  -22.0621   -2.7616   23.2828 H   0  0  0  0  0  0
  -22.4172  -11.9907   22.4854 H   0  0  0  0  0  0
  -21.1115  -13.1179   22.2604 H   0  0  0  0  0  0
  -24.6414  -15.8245   20.4842 H   0  0  0  0  0  0
  -26.2401  -15.6005   19.9804 H   0  0  0  0  0  0
  -26.7074  -32.5592   23.1191 H   0  0  0  0  0  0
  -25.0057  -33.9816   25.0517 H   0  0  0  0  0  0
  -22.6854  -31.3068   21.4102 H   0  0  0  0  0  0
  -23.3751  -35.9653   23.3335 H   0  0  0  0  0  0
  -24.3580  -36.8895   22.2050 H   0  0  0  0  0  0
  -23.7240  -37.6532   23.6629 H   0  0  0  0  0  0
  -26.0199  -31.6185   20.5886 H   0  0  0  0  0  0
  -26.8130  -30.9152   21.9695 H   0  0  0  0  0  0
  -28.0892  -29.1714   21.1661 H   0  0  0  0  0  0
  -26.1065  -25.9872   19.0302 H   0  0  0  0  0  0
  -23.9969  -27.2871   19.0405 H   0  0  0  0  0  0
  -23.7089  -30.5942   19.4036 H   0  0  0  0  0  0
  -22.7360  -29.2324   19.8725 H   0  0  0  0  0  0
  -25.1290  -36.2012   25.0841 H   0  0  0  0  0  0
  -20.9950  -28.3216   24.1449 H   0  0  0  0  0  0
  -20.5667  -26.2252   23.3600 H   0  0  0  0  0  0
  -21.6630  -26.7446   22.1208 H   0  0  0  0  0  0
  -19.6901  -25.6308   21.1223 H   0  0  0  0  0  0
  -19.6683  -27.3211   20.6758 H   0  0  0  0  0  0
  -17.4187  -26.6686   21.4014 H   0  0  0  0  0  0
  -18.0308  -26.0059   22.9002 H   0  0  0  0  0  0
  -19.7926  -30.7246   24.2301 H   0  0  0  0  0  0
  -17.5013  -31.6265   24.5168 H   0  0  0  0  0  0
  -15.5348  -30.3005   23.7642 H   0  0  0  0  0  0
  -15.8651  -28.0845   22.7045 H   0  0  0  0  0  0
  -24.5907  -30.7054   25.7805 H   0  0  0  0  0  0
  -24.8968  -32.2830   26.4970 H   0  0  0  0  0  0
  -25.8121  -30.8805   27.0196 H   0  0  0  0  0  0
  -26.2825  -29.6801   24.1129 H   0  0  0  0  0  0
  -27.4168  -29.7293   25.4440 H   0  0  0  0  0  0
  -27.8608  -30.4411   23.9098 H   0  0  0  0  0  0
  -27.2684  -33.3587   26.2086 H   0  0  0  0  0  0
  -28.3819  -32.6905   25.0250 H   0  0  0  0  0  0
  -28.0768  -31.8402   26.5315 H   0  0  0  0  0  0
  -28.2625  -38.0093   24.7506 H   0  0  0  0  0  0
  -28.1060  -36.2627   24.6318 H   0  0  0  0  0  0
  -27.2298  -37.1497   25.8869 H   0  0  0  0  0  0
  -20.9267  -29.8761   21.6982 H   0  0  0  0  0  0
  -26.0206  -38.2888   24.1394 H   0  0  0  0  0  0
  -29.1250  -19.3216   19.4921 H   0  0  0  0  0  0
  -32.3642  -16.9009   22.3700 H   0  0  0  0  0  0
  -27.5173  -17.5782   19.8341 H   0  0  0  0  0  0
  -27.9159  -16.1383   20.7579 H   0  0  0  0  0  0
  -28.4603  -16.2966   19.0630 H   0  0  0  0  0  0
  -33.6191  -18.8202   22.7301 H   0  0  0  0  0  0
  -32.9364  -20.4030   22.4075 H   0  0  0  0  0  0
  -33.8639  -19.5567   21.1496 H   0  0  0  0  0  0
  -29.4363  -26.3792   23.2866 H   0  0  0  0  0  0
  -28.1320  -25.4920   22.4993 H   0  0  0  0  0  0
  -27.9758  -27.2114   22.8064 H   0  0  0  0  0  0
  -29.5637  -15.4773   23.5195 H   0  0  0  0  0  0
  -31.3101  -15.2520   23.4570 H   0  0  0  0  0  0
  -30.2425  -13.8983   23.1556 H   0  0  0  0  0  0
  -31.2894  -20.8701   19.0229 H   0  0  0  0  0  0
  -32.1871  -21.2733   20.4477 H   0  0  0  0  0  0
  -29.1616  -21.6393   20.0923 H   0  0  0  0  0  0
  -30.0006  -21.8827   21.6097 H   0  0  0  0  0  0
  -31.2790  -25.8882   21.4907 H   0  0  0  0  0  0
  -30.8459  -25.9741   19.8016 H   0  0  0  0  0  0
  -29.7660  -27.7316   21.1507 H   0  0  0  0  0  0
  -29.4553  -24.0980   21.6905 H   0  0  0  0  0  0
  1 25  1  0  0  0
  1 30  2  0  0  0
  1 87  1  0  0  0
  2  3  1  0  0  0
  2 25  1  0  0  0
  2 89  1  0  0  0
  2 90  1  0  0  0
  3  4  1  0  0  0
  3 91  1  0  0  0
  3 92  1  0  0  0
  4  5  1  0  0  0
  4 93  1  0  0  0
  4 94  1  0  0  0
  5  6  1  0  0  0
  5 26  1  0  0  0
  5 95  1  0  0  0
  6 25  1  0  0  0
  6 96  1  0  0  0
  6 97  1  0  0  0
  7  8  2  0  0  0
  7 26  1  0  0  0
  7 29  1  0  0  0
  8  9  1  0  0  0
  8 22  1  0  0  0
  9 10  1  0  0  0
  9 27  2  0  0  0
 10 11  2  0  0  0
 10 15  1  0  0  0
 11 12  1  0  0  0
 11 98  1  0  0  0
 12 13  2  0  0  0
 12 99  1  0  0  0
 13 14  1  0  0  0
 13 31  1  0  0  0
 14 15  2  0  0  0
 14100  1  0  0  0
 15101  1  0  0  0
 16 17  2  0  0  0
 16 21  1  0  0  0
 16 31  1  0  0  0
 17 18  1  0  0  0
 17102  1  0  0  0
 18 19  2  0  0  0
 18103  1  0  0  0
 19 20  1  0  0  0
 19 24  1  0  0  0
 20 21  2  0  0  0
 20104  1  0  0  0
 21 23  1  0  0  0
 22 28  1  0  0  0
 22 32  2  0  0  0
 26 27  1  0  0  0
 28105  1  0  0  0
 28106  1  0  0  0
 29107  1  0  0  0
 29108  1  0  0  0
 33 34  1  0  0  0
 33 66  1  0  0  0
 33 70  2  0  0  0
 34 36  1  0  0  0
 34 59  1  0  0  0
 34109  1  0  0  0
 35 44  2  0  0  0
 35 45  1  0  0  0
 35 68  1  0  0  0
 36 56  1  0  0  0
 36110  1  0  0  0
 37 39  1  0  0  0
 37 47  1  0  0  0
 37 66  1  0  0  0
 37111  1  0  0  0
 38 43  2  0  0  0
 38 46  1  0  0  0
 38 47  1  0  0  0
 39 64  1  0  0  0
 39 67  2  0  0  0
 40 52  1  0  0  0
 40 53  2  0  0  0
 40 58  1  0  0  0
 41112  1  0  0  0
 41113  1  0  0  0
 41114  1  0  0  0
 41 48  1  0  0  0
 42 43  1  0  0  0
 42 66  1  0  0  0
 42115  1  0  0  0
 42116  1  0  0  0
 43 44  1  0  0  0
 44117  1  0  0  0
 45 46  2  0  0  0
 45118  1  0  0  0
 46119  1  0  0  0
 47120  1  0  0  0
 47121  1  0  0  0
 48 56  1  0  0  0
 48 65  1  0  0  0
 48122  1  0  0  0
 49 50  1  0  0  0
 49 53  1  0  0  0
 49 64  1  0  0  0
 49123  1  0  0  0
 50 51  1  0  0  0
 50124  1  0  0  0
 50125  1  0  0  0
 51 52  1  0  0  0
 51126  1  0  0  0
 51127  1  0  0  0
 52128  1  0  0  0
 52129  1  0  0  0
 53 54  1  0  0  0
 54 55  2  0  0  0
 54130  1  0  0  0
 55 57  1  0  0  0
 55131  1  0  0  0
 56 69  2  0  0  0
 57 58  2  0  0  0
 57132  1  0  0  0
 58133  1  0  0  0
 59 60  1  0  0  0
 59 61  1  0  0  0
 59 62  1  0  0  0
 60134  1  0  0  0
 60135  1  0  0  0
 60136  1  0  0  0
 61137  1  0  0  0
 61138  1  0  0  0
 61139  1  0  0  0
 62140  1  0  0  0
 62141  1  0  0  0
 62142  1  0  0  0
 63 65  1  0  0  0
 63143  1  0  0  0
 63144  1  0  0  0
 63145  1  0  0  0
 64146  1  0  0  0
 65147  1  0  0  0
 68 85  1  0  0  0
 71 73  2  0  0  0
 71 74  1  0  0  0
 71148  1  0  0  0
 72 75  2  0  0  0
 72 76  1  0  0  0
 72149  1  0  0  0
 73 75  1  0  0  0
 73 82  1  0  0  0
 74 76  2  0  0  0
 74 78  1  0  0  0
 75 79  1  0  0  0
 76 87  1  0  0  0
 77 83  1  0  0  0
 77 86  1  0  0  0
 77 88  2  0  0  0
 78150  1  0  0  0
 78151  1  0  0  0
 78152  1  0  0  0
 79153  1  0  0  0
 79154  1  0  0  0
 79155  1  0  0  0
 80156  1  0  0  0
 80157  1  0  0  0
 80158  1  0  0  0
 80 85  1  0  0  0
 81 87  1  0  0  0
 81159  1  0  0  0
 81160  1  0  0  0
 81161  1  0  0  0
 82 83  1  0  0  0
 82162  1  0  0  0
 82163  1  0  0  0
 83164  1  0  0  0
 83165  1  0  0  0
 84 85  1  0  0  0
 84 86  1  0  0  0
 84166  1  0  0  0
 84167  1  0  0  0
 85168  1  0  0  0
 86169  1  0  0  0
M  ISO  4   1 100  68 101  85 101  87 100
M  END
> <chiral flag>
0

> <version>
0

> <s_m_source_file>
/data/baiqing/PycharmProjects/Reinvent-master-3.2/result/LINK_invent/BTK/process_docking_weight1_custom_sum_contain_oxygen_bond_distance_aromatic_linkinvent_7_9_3/rearranged_h_0111.sdf

> <i_m_source_file_index>
48

> <r_mmod_Potential_Energy-OPLS-2005>
-6.59062147140503

> <r_mmod_Stretch_Energy-OPLS-2005>
38.421314239502

> <r_mmod_Bend_Energy-OPLS-2005>
105.008644104004

> <r_mmod_Torsional_Energy-OPLS-2005>
305.827331542969

> <r_mmod_Improper_Torsional_Energy-OPLS-2005>
4.44947385787964

> <r_mmod_Van_der_Waal_Energy-OPLS-2005>
159.389007568359

> <r_mmod_Electrostatic_Energy-OPLS-2005>
-412.166168212891

> <r_mmod_Solvation_Energy-OPLS-2005>
-217.327835083008

> <b_mmod_Minimization_Converged-OPLS-2005>
0

> <r_mmod_RMS_Derivative-OPLS-2005>
2.3517050743103

$$$$
48
                    3D
 Structure written by MMmdl.
155163  0  0  1  0            999 V2000
  -30.4650  -15.2031   20.3731 C   0  0  0  0  0  0
  -30.4345  -12.7643   19.5188 C   0  0  0  0  0  0
  -29.5282  -12.5609   18.2799 C   0  0  0  0  0  0
  -28.0732  -12.3006   18.7073 C   0  0  0  0  0  0
  -27.6118  -13.2707   19.8240 C   0  0  2  0  0  0
  -28.6478  -13.4242   20.9575 C   0  0  0  0  0  0
  -25.2389  -13.8245   20.5755 C   0  0  0  0  0  0
  -24.1737  -13.0438   20.9265 C   0  0  0  0  0  0
  -24.6385  -11.6932   20.8761 C   0  0  0  0  0  0
  -23.9075  -10.4293   21.0408 C   0  0  0  0  0  0
  -24.3625   -9.4208   21.9182 C   0  0  0  0  0  0
  -23.6304   -8.2238   22.0748 C   0  0  0  0  0  0
  -22.4282   -8.0274   21.3544 C   0  0  0  0  0  0
  -21.9920   -9.0247   20.4643 C   0  0  0  0  0  0
  -22.7247  -10.2130   20.3057 C   0  0  0  0  0  0
  -21.6856   -6.0736   22.5280 C   0  0  0  0  0  0
  -21.4013   -6.5640   23.8213 C   0  0  0  0  0  0
  -21.3659   -5.6792   24.9175 C   0  0  0  0  0  0
  -21.6047   -4.3056   24.7227 C   0  0  0  0  0  0
  -21.8819   -3.8147   23.4348 C   0  0  0  0  0  0
  -21.9197   -4.6963   22.3404 C   0  0  0  0  0  0
  -22.7757  -13.5192   21.1915 C   0  0  0  0  0  0
  -22.1664   -4.2148   21.0983 F   0  0  0  0  0  0
  -21.5627   -3.4538   25.7740 F   0  0  0  0  0  0
  -29.8872  -13.9088   20.3311 N   0  0  0  0  0  0
  -26.2807  -12.9513   20.3224 N   0  0  0  0  0  0
  -25.9318  -11.6619   20.5724 N   0  0  0  0  0  0
  -22.0424  -12.8164   22.0470 N   0  0  0  0  0  0
  -25.4026  -15.1980   20.4193 N   0  0  0  0  0  0
  -31.6848  -15.2028   20.1594 O   0  0  0  0  0  0
  -21.6644   -6.8877   21.4241 O   0  0  0  0  0  0
  -22.3433  -14.5490   20.6753 O   0  0  0  0  0  0
  -24.6607  -31.8278   23.1741 C   0  0  0  0  0  0
  -25.9303  -32.4609   23.8189 C   0  0  1  0  0  0
  -27.2131  -26.9592   20.1753 C   0  0  0  0  0  0
  -25.5987  -33.8421   24.2100 N   0  0  0  0  0  0
  -23.4731  -30.4423   21.5224 C   0  0  2  0  0  0
  -24.9264  -28.8394   20.1095 C   0  0  0  0  0  0
  -22.7654  -29.4465   22.4783 C   0  0  0  0  0  0
  -18.0319  -28.1411   22.8471 C   0  0  0  0  0  0
  -24.1486  -36.7200   23.2644 C   0  0  0  0  0  0
  -26.0415  -30.6444   21.4006 C   0  0  0  0  0  0
  -26.1098  -29.2382   20.7435 C   0  0  0  0  0  0
  -27.2496  -28.3179   20.7555 C   0  0  0  0  0  0
  -26.0033  -26.7133   19.4862 C   0  0  0  0  0  0
  -24.8967  -27.5964   19.4612 C   0  0  0  0  0  0
  -23.7112  -29.7633   20.1466 C   0  0  0  0  0  0
  -25.4126  -36.2972   24.0301 C   0  0  1  0  0  0
  -20.5944  -28.3752   23.1192 C   0  0  2  0  0  0
  -20.6794  -26.9436   22.5402 C   0  0  0  0  0  0
  -19.5764  -26.6385   21.5213 C   0  0  0  0  0  0
  -18.1948  -26.7945   22.1625 C   0  0  0  0  0  0
  -19.1582  -28.8901   23.2820 C   0  0  0  0  0  0
  -18.9492  -30.1492   23.8852 C   0  0  0  0  0  0
  -17.6486  -30.6601   24.0557 C   0  0  0  0  0  0
  -25.9095  -34.9359   23.5015 C   0  0  0  0  0  0
  -16.5375  -29.9088   23.6347 C   0  0  0  0  0  0
  -16.7303  -28.6510   23.0366 C   0  0  0  0  0  0
  -26.4567  -31.6542   25.0703 C   0  0  0  0  0  0
  -25.3702  -31.3794   26.1365 C   0  0  0  0  0  0
  -27.0449  -30.2908   24.6416 C   0  0  0  0  0  0
  -27.6056  -32.4347   25.7504 C   0  0  0  0  0  0
  -27.5562  -37.1757   24.8466 C   0  0  0  0  0  0
  -21.4327  -29.3048   22.3541 N   0  0  0  0  0  0
  -26.4264  -37.3714   23.9417 N   0  0  0  0  0  0
  -24.7460  -30.9973   22.0860 N   0  0  0  0  0  0
  -23.4218  -28.8030   23.3008 O   0  0  0  0  0  0
  -28.1948  -25.8449   20.2691 O   0  0  0  0  0  0
  -26.5692  -34.8891   22.4602 O   0  0  0  0  0  0
  -23.5687  -32.1228   23.6862 O   0  0  0  0  0  0
  -27.8822  -21.6192   20.9847 C   0  0  0  0  0  0
  -29.6241  -22.0487   19.5773 C   0  0  0  0  0  0
  -28.5255  -22.7100   20.2585 C   0  0  0  0  0  0
  -28.2756  -20.1835   21.0318 C   0  0  0  0  0  0
  -29.4038  -19.6304   20.3061 C   0  0  0  0  0  0
  -26.0119  -19.0834   21.3464 C   0  0  0  0  0  0
  -27.4508  -19.6302   23.3700 C   0  0  0  0  0  0
  -27.8174  -24.2816   19.9973 C   0  0  0  0  0  0
  -30.1514  -18.0565   20.3290 C   0  0  0  0  0  0
  -27.4428  -19.2302   21.8867 C   0  0  0  0  0  0
  -30.0196  -20.6793   19.6148 N   0  0  0  0  0  0
  -29.7214  -16.4709   20.4485 N   0  0  0  0  0  0
  -31.4566  -12.9557   19.1895 H   0  0  0  0  0  0
  -30.4853  -11.8527   20.1166 H   0  0  0  0  0  0
  -29.8942  -11.7338   17.6697 H   0  0  0  0  0  0
  -29.5696  -13.4503   17.6494 H   0  0  0  0  0  0
  -28.0152  -11.2729   19.0681 H   0  0  0  0  0  0
  -27.4053  -12.3606   17.8468 H   0  0  0  0  0  0
  -27.5332  -14.2427   19.3356 H   0  0  0  0  0  0
  -28.8007  -12.4844   21.4897 H   0  0  0  0  0  0
  -28.2994  -14.1484   21.6956 H   0  0  0  0  0  0
  -25.2765   -9.5686   22.4764 H   0  0  0  0  0  0
  -24.0017   -7.4627   22.7459 H   0  0  0  0  0  0
  -21.0856   -8.8762   19.8945 H   0  0  0  0  0  0
  -22.3697  -10.9668   19.6169 H   0  0  0  0  0  0
  -21.2002   -7.6149   23.9711 H   0  0  0  0  0  0
  -21.1479   -6.0526   25.9078 H   0  0  0  0  0  0
  -22.0600   -2.7609   23.2848 H   0  0  0  0  0  0
  -22.4065  -11.9831   22.4847 H   0  0  0  0  0  0
  -21.1028  -13.1151   22.2673 H   0  0  0  0  0  0
  -24.6291  -15.8443   20.5289 H   0  0  0  0  0  0
  -26.2396  -15.6397   20.0644 H   0  0  0  0  0  0
  -26.7372  -32.5163   23.0904 H   0  0  0  0  0  0
  -25.0110  -33.9510   25.0235 H   0  0  0  0  0  0
  -22.7844  -31.2734   21.3559 H   0  0  0  0  0  0
  -23.3764  -35.9515   23.3284 H   0  0  0  0  0  0
  -24.3564  -36.8865   22.2063 H   0  0  0  0  0  0
  -23.7226  -37.6379   23.6706 H   0  0  0  0  0  0
  -26.2185  -31.3893   20.6235 H   0  0  0  0  0  0
  -26.9025  -30.6994   22.0544 H   0  0  0  0  0  0
  -28.1421  -28.6176   21.2861 H   0  0  0  0  0  0
  -25.8661  -25.7676   18.9843 H   0  0  0  0  0  0
  -23.9978  -27.2856   18.9463 H   0  0  0  0  0  0
  -23.8653  -30.5343   19.3904 H   0  0  0  0  0  0
  -22.8213  -29.2173   19.8283 H   0  0  0  0  0  0
  -25.1326  -36.1761   25.0791 H   0  0  0  0  0  0
  -21.0038  -28.3355   24.1312 H   0  0  0  0  0  0
  -20.5665  -26.2375   23.3643 H   0  0  0  0  0  0
  -21.6659  -26.7406   22.1212 H   0  0  0  0  0  0
  -19.6918  -25.6286   21.1269 H   0  0  0  0  0  0
  -19.6697  -27.3171   20.6723 H   0  0  0  0  0  0
  -17.4218  -26.6695   21.4028 H   0  0  0  0  0  0
  -18.0337  -26.0098   22.9032 H   0  0  0  0  0  0
  -19.7969  -30.7325   24.2197 H   0  0  0  0  0  0
  -17.5040  -31.6275   24.5171 H   0  0  0  0  0  0
  -15.5375  -30.2977   23.7697 H   0  0  0  0  0  0
  -15.8705  -28.0815   22.7103 H   0  0  0  0  0  0
  -24.5895  -30.7126   25.7695 H   0  0  0  0  0  0
  -24.8879  -32.2999   26.4664 H   0  0  0  0  0  0
  -25.7951  -30.9058   27.0224 H   0  0  0  0  0  0
  -26.3111  -29.6600   24.1389 H   0  0  0  0  0  0
  -27.3952  -29.7257   25.5065 H   0  0  0  0  0  0
  -27.9072  -30.4095   23.9848 H   0  0  0  0  0  0
  -27.2618  -33.3690   26.1956 H   0  0  0  0  0  0
  -28.3935  -32.6840   25.0383 H   0  0  0  0  0  0
  -28.0645  -31.8553   26.5527 H   0  0  0  0  0  0
  -28.2562  -38.0070   24.7522 H   0  0  0  0  0  0
  -28.1072  -36.2597   24.6275 H   0  0  0  0  0  0
  -27.2284  -37.1385   25.8871 H   0  0  0  0  0  0
  -20.9570  -29.8756   21.6693 H   0  0  0  0  0  0
  -26.0108  -38.2766   24.1449 H   0  0  0  0  0  0
  -26.9868  -21.8893   21.5258 H   0  0  0  0  0  0
  -30.2173  -22.6459   18.9005 H   0  0  0  0  0  0
  -26.0143  -18.7462   20.3094 H   0  0  0  0  0  0
  -25.4580  -20.0213   21.3910 H   0  0  0  0  0  0
  -25.4512  -18.3462   21.9228 H   0  0  0  0  0  0
  -28.4679  -19.6679   23.7615 H   0  0  0  0  0  0
  -26.8996  -18.9050   23.9703 H   0  0  0  0  0  0
  -26.9915  -20.6049   23.5359 H   0  0  0  0  0  0
  -26.8408  -24.1763   20.4704 H   0  0  0  0  0  0
  -27.6021  -24.2599   18.9292 H   0  0  0  0  0  0
  -30.8931  -18.1617   21.1203 H   0  0  0  0  0  0
  -30.7513  -18.0646   19.4188 H   0  0  0  0  0  0
  -27.8974  -18.2408   21.8317 H   0  0  0  0  0  0
  -28.7293  -16.3421   20.5708 H   0  0  0  0  0  0
  1 25  1  0  0  0
  1 30  2  0  0  0
  1 82  1  0  0  0
  2  3  1  0  0  0
  2 25  1  0  0  0
  2 83  1  0  0  0
  2 84  1  0  0  0
  3  4  1  0  0  0
  3 85  1  0  0  0
  3 86  1  0  0  0
  4  5  1  0  0  0
  4 87  1  0  0  0
  4 88  1  0  0  0
  5  6  1  0  0  0
  5 26  1  0  0  0
  5 89  1  0  0  0
  6 25  1  0  0  0
  6 90  1  0  0  0
  6 91  1  0  0  0
  7  8  2  0  0  0
  7 26  1  0  0  0
  7 29  1  0  0  0
  8  9  1  0  0  0
  8 22  1  0  0  0
  9 10  1  0  0  0
  9 27  2  0  0  0
 10 11  2  0  0  0
 10 15  1  0  0  0
 11 12  1  0  0  0
 11 92  1  0  0  0
 12 13  2  0  0  0
 12 93  1  0  0  0
 13 14  1  0  0  0
 13 31  1  0  0  0
 14 15  2  0  0  0
 14 94  1  0  0  0
 15 95  1  0  0  0
 16 17  2  0  0  0
 16 21  1  0  0  0
 16 31  1  0  0  0
 17 18  1  0  0  0
 17 96  1  0  0  0
 18 19  2  0  0  0
 18 97  1  0  0  0
 19 20  1  0  0  0
 19 24  1  0  0  0
 20 21  2  0  0  0
 20 98  1  0  0  0
 21 23  1  0  0  0
 22 28  1  0  0  0
 22 32  2  0  0  0
 26 27  1  0  0  0
 28 99  1  0  0  0
 28100  1  0  0  0
 29101  1  0  0  0
 29102  1  0  0  0
 33 34  1  0  0  0
 33 66  1  0  0  0
 33 70  2  0  0  0
 34 36  1  0  0  0
 34 59  1  0  0  0
 34103  1  0  0  0
 35 44  2  0  0  0
 35 45  1  0  0  0
 35 68  1  0  0  0
 36 56  1  0  0  0
 36104  1  0  0  0
 37 39  1  0  0  0
 37 47  1  0  0  0
 37 66  1  0  0  0
 37105  1  0  0  0
 38 43  2  0  0  0
 38 46  1  0  0  0
 38 47  1  0  0  0
 39 64  1  0  0  0
 39 67  2  0  0  0
 40 52  1  0  0  0
 40 53  2  0  0  0
 40 58  1  0  0  0
 41106  1  0  0  0
 41107  1  0  0  0
 41108  1  0  0  0
 41 48  1  0  0  0
 42 43  1  0  0  0
 42 66  1  0  0  0
 42109  1  0  0  0
 42110  1  0  0  0
 43 44  1  0  0  0
 44111  1  0  0  0
 45 46  2  0  0  0
 45112  1  0  0  0
 46113  1  0  0  0
 47114  1  0  0  0
 47115  1  0  0  0
 48 56  1  0  0  0
 48 65  1  0  0  0
 48116  1  0  0  0
 49 50  1  0  0  0
 49 53  1  0  0  0
 49 64  1  0  0  0
 49117  1  0  0  0
 50 51  1  0  0  0
 50118  1  0  0  0
 50119  1  0  0  0
 51 52  1  0  0  0
 51120  1  0  0  0
 51121  1  0  0  0
 52122  1  0  0  0
 52123  1  0  0  0
 53 54  1  0  0  0
 54 55  2  0  0  0
 54124  1  0  0  0
 55 57  1  0  0  0
 55125  1  0  0  0
 56 69  2  0  0  0
 57 58  2  0  0  0
 57126  1  0  0  0
 58127  1  0  0  0
 59 60  1  0  0  0
 59 61  1  0  0  0
 59 62  1  0  0  0
 60128  1  0  0  0
 60129  1  0  0  0
 60130  1  0  0  0
 61131  1  0  0  0
 61132  1  0  0  0
 61133  1  0  0  0
 62134  1  0  0  0
 62135  1  0  0  0
 62136  1  0  0  0
 63 65  1  0  0  0
 63137  1  0  0  0
 63138  1  0  0  0
 63139  1  0  0  0
 64140  1  0  0  0
 65141  1  0  0  0
 68 78  1  0  0  0
 71 73  2  0  0  0
 71 74  1  0  0  0
 71142  1  0  0  0
 72 73  1  0  0  0
 72 81  2  0  0  0
 72143  1  0  0  0
 73 78  1  0  0  0
 74 75  2  0  0  0
 74 80  1  0  0  0
 75 79  1  0  0  0
 75 81  1  0  0  0
 76144  1  0  0  0
 76145  1  0  0  0
 76146  1  0  0  0
 76 80  1  0  0  0
 77 80  1  0  0  0
 77147  1  0  0  0
 77148  1  0  0  0
 77149  1  0  0  0
 78150  1  0  0  0
 78151  1  0  0  0
 79 82  1  0  0  0
 79152  1  0  0  0
 79153  1  0  0  0
 80154  1  0  0  0
 82155  1  0  0  0
M  ISO  4   1 100  68 101  78 101  82 100
M  END
> <chiral flag>
0

> <version>
0

> <s_m_source_file>
/data/baiqing/PycharmProjects/Reinvent-master-3.2/result/LINK_invent/BTK/process_docking_weight1_custom_sum_contain_oxygen_bond_distance_aromatic_linkinvent_7_9_3/rearranged_h_0111.sdf

> <i_m_source_file_index>
49

> <r_mmod_Potential_Energy-OPLS-2005>
857.618347167969

> <r_mmod_Stretch_Energy-OPLS-2005>
462.189208984375

> <r_mmod_Bend_Energy-OPLS-2005>
431.004638671875

> <r_mmod_Torsional_Energy-OPLS-2005>
218.469146728516

> <r_mmod_Improper_Torsional_Energy-OPLS-2005>
7.97792673110962

> <r_mmod_Van_der_Waal_Energy-OPLS-2005>
128.925384521484

> <r_mmod_Electrostatic_Energy-OPLS-2005>
-570.444030761719

> <r_mmod_Solvation_Energy-OPLS-2005>
-228.765045166016

> <b_mmod_Minimization_Converged-OPLS-2005>
0

> <r_mmod_RMS_Derivative-OPLS-2005>
0.858726561069489

$$$$
49
                    3D
 Structure written by MMmdl.
152160  0  0  1  0            999 V2000
  -30.4334  -15.3102   20.3634 C   0  0  0  0  0  0
  -30.4465  -12.8445   19.5321 C   0  0  0  0  0  0
  -29.5412  -12.5941   18.2966 C   0  0  0  0  0  0
  -28.0910  -12.3107   18.7181 C   0  0  0  0  0  0
  -27.6174  -13.2815   19.8285 C   0  0  2  0  0  0
  -28.6512  -13.4647   20.9651 C   0  0  0  0  0  0
  -25.2421  -13.8280   20.5756 C   0  0  0  0  0  0
  -24.1780  -13.0467   20.9269 C   0  0  0  0  0  0
  -24.6433  -11.6969   20.8755 C   0  0  0  0  0  0
  -23.9120  -10.4324   21.0386 C   0  0  0  0  0  0
  -24.3653   -9.4227   21.9161 C   0  0  0  0  0  0
  -23.6329   -8.2257   22.0725 C   0  0  0  0  0  0
  -22.4302   -8.0299   21.3521 C   0  0  0  0  0  0
  -21.9958   -9.0269   20.4613 C   0  0  0  0  0  0
  -22.7293  -10.2157   20.3031 C   0  0  0  0  0  0
  -21.6867   -6.0754   22.5275 C   0  0  0  0  0  0
  -21.4012   -6.5640   23.8211 C   0  0  0  0  0  0
  -21.3666   -5.6790   24.9176 C   0  0  0  0  0  0
  -21.6051   -4.3049   24.7210 C   0  0  0  0  0  0
  -21.8825   -3.8150   23.4330 C   0  0  0  0  0  0
  -21.9199   -4.6979   22.3389 C   0  0  0  0  0  0
  -22.7786  -13.5203   21.1907 C   0  0  0  0  0  0
  -22.1661   -4.2166   21.0972 F   0  0  0  0  0  0
  -21.5641   -3.4531   25.7717 F   0  0  0  0  0  0
  -29.8807  -13.9905   20.3451 N   0  0  0  0  0  0
  -26.2858  -12.9559   20.3233 N   0  0  0  0  0  0
  -25.9368  -11.6660   20.5710 N   0  0  0  0  0  0
  -22.0425  -12.8175   22.0448 N   0  0  0  0  0  0
  -25.4061  -15.2014   20.4159 N   0  0  0  0  0  0
  -31.6407  -15.3098   20.0888 O   0  0  0  0  0  0
  -21.6650   -6.8899   21.4237 O   0  0  0  0  0  0
  -22.3468  -14.5501   20.6748 O   0  0  0  0  0  0
  -24.6703  -31.8232   23.1753 C   0  0  0  0  0  0
  -25.9372  -32.4605   23.8207 C   0  0  1  0  0  0
  -27.2000  -26.8672   20.1641 C   0  0  0  0  0  0
  -25.6023  -33.8428   24.2102 N   0  0  0  0  0  0
  -23.4827  -30.4419   21.5282 C   0  0  2  0  0  0
  -24.9351  -28.8398   20.1134 C   0  0  0  0  0  0
  -22.7695  -29.4445   22.4784 C   0  0  0  0  0  0
  -18.0311  -28.1423   22.8410 C   0  0  0  0  0  0
  -24.1507  -36.7197   23.2623 C   0  0  0  0  0  0
  -26.0612  -30.6092   21.4230 C   0  0  0  0  0  0
  -26.1242  -29.1988   20.7566 C   0  0  0  0  0  0
  -27.2433  -28.2350   20.7643 C   0  0  0  0  0  0
  -25.9864  -26.7159   19.4442 C   0  0  0  0  0  0
  -24.8987  -27.6209   19.4366 C   0  0  0  0  0  0
  -23.7260  -29.7754   20.1502 C   0  0  0  0  0  0
  -25.4158  -36.2985   24.0283 C   0  0  1  0  0  0
  -20.5944  -28.3774   23.1148 C   0  0  2  0  0  0
  -20.6810  -26.9453   22.5383 C   0  0  0  0  0  0
  -19.5795  -26.6369   21.5192 C   0  0  0  0  0  0
  -18.1961  -26.7946   22.1577 C   0  0  0  0  0  0
  -19.1578  -28.8917   23.2756 C   0  0  0  0  0  0
  -18.9499  -30.1499   23.8801 C   0  0  0  0  0  0
  -17.6494  -30.6604   24.0542 C   0  0  0  0  0  0
  -25.9114  -34.9364   23.5003 C   0  0  0  0  0  0
  -16.5371  -29.9090   23.6360 C   0  0  0  0  0  0
  -16.7292  -28.6524   23.0345 C   0  0  0  0  0  0
  -26.4604  -31.6575   25.0763 C   0  0  0  0  0  0
  -25.3690  -31.3853   26.1380 C   0  0  0  0  0  0
  -27.0527  -30.2919   24.6621 C   0  0  0  0  0  0
  -27.6090  -32.4414   25.7563 C   0  0  0  0  0  0
  -27.5593  -37.1768   24.8453 C   0  0  0  0  0  0
  -21.4363  -29.3055   22.3509 N   0  0  0  0  0  0
  -26.4300  -37.3734   23.9396 N   0  0  0  0  0  0
  -24.7597  -30.9856   22.0929 N   0  0  0  0  0  0
  -23.4230  -28.7980   23.3009 O   0  0  0  0  0  0
  -28.1740  -25.7072   20.2992 O   0  0  0  0  0  0
  -26.5692  -34.8873   22.4585 O   0  0  0  0  0  0
  -23.5764  -32.1223   23.6821 O   0  0  0  0  0  0
  -28.9547  -21.1471   19.9150 C   0  0  0  0  0  0
  -28.9370  -22.4560   21.9011 C   0  0  0  0  0  0
  -28.7240  -22.5586   20.5135 C   0  0  0  0  0  0
  -29.3427  -19.8139   20.6051 C   0  0  0  0  0  0
  -29.4787  -20.0908   21.9866 C   0  0  0  0  0  0
  -29.8949  -18.9867   22.9423 C   0  0  0  0  0  0
  -26.8582  -23.7034   19.1087 C   0  0  0  0  0  0
  -29.7667  -18.2035   19.9914 C   0  0  0  0  0  0
  -28.1652  -24.0835   19.8107 C   0  0  1  0  0  0
  -29.2898  -21.3152   22.5714 N   0  0  0  0  0  0
  -29.6675  -16.5898   20.4896 N   0  0  0  0  0  0
  -31.4548  -13.0673   19.1813 H   0  0  0  0  0  0
  -30.5488  -11.9471   20.1427 H   0  0  0  0  0  0
  -29.9312  -11.7659   17.7031 H   0  0  0  0  0  0
  -29.5600  -13.4735   17.6494 H   0  0  0  0  0  0
  -28.0416  -11.2840   19.0825 H   0  0  0  0  0  0
  -27.4272  -12.3612   17.8539 H   0  0  0  0  0  0
  -27.5312  -14.2473   19.3301 H   0  0  0  0  0  0
  -28.8329  -12.5260   21.4911 H   0  0  0  0  0  0
  -28.2802  -14.1760   21.7055 H   0  0  0  0  0  0
  -25.2783   -9.5709   22.4757 H   0  0  0  0  0  0
  -24.0041   -7.4650   22.7443 H   0  0  0  0  0  0
  -21.0892   -8.8791   19.8906 H   0  0  0  0  0  0
  -22.3734  -10.9700   19.6149 H   0  0  0  0  0  0
  -21.1977   -7.6145   23.9728 H   0  0  0  0  0  0
  -21.1489   -6.0505   25.9090 H   0  0  0  0  0  0
  -22.0597   -2.7615   23.2814 H   0  0  0  0  0  0
  -22.4039  -11.9871   22.4887 H   0  0  0  0  0  0
  -21.1005  -13.1139   22.2560 H   0  0  0  0  0  0
  -24.6451  -15.8574   20.5519 H   0  0  0  0  0  0
  -26.2421  -15.6333   20.0437 H   0  0  0  0  0  0
  -26.7419  -32.5130   23.0886 H   0  0  0  0  0  0
  -25.0229  -33.9555   25.0292 H   0  0  0  0  0  0
  -22.7957  -31.2756   21.3682 H   0  0  0  0  0  0
  -23.3833  -35.9470   23.3266 H   0  0  0  0  0  0
  -24.3527  -36.8885   22.2030 H   0  0  0  0  0  0
  -23.7223  -37.6348   23.6715 H   0  0  0  0  0  0
  -26.2667  -31.3604   20.6589 H   0  0  0  0  0  0
  -26.9058  -30.6471   22.0978 H   0  0  0  0  0  0
  -28.1377  -28.5098   21.3067 H   0  0  0  0  0  0
  -25.7720  -25.8423   18.8703 H   0  0  0  0  0  0
  -24.0023  -27.3569   18.8920 H   0  0  0  0  0  0
  -23.8889  -30.5557   19.4051 H   0  0  0  0  0  0
  -22.8316  -29.2431   19.8214 H   0  0  0  0  0  0
  -25.1385  -36.1761   25.0781 H   0  0  0  0  0  0
  -20.9997  -28.3383   24.1286 H   0  0  0  0  0  0
  -20.5698  -26.2389   23.3626 H   0  0  0  0  0  0
  -21.6677  -26.7435   22.1192 H   0  0  0  0  0  0
  -19.6982  -25.6261   21.1275 H   0  0  0  0  0  0
  -19.6765  -27.3130   20.6687 H   0  0  0  0  0  0
  -17.4245  -26.6638   21.3974 H   0  0  0  0  0  0
  -18.0372  -26.0107   22.8994 H   0  0  0  0  0  0
  -19.7982  -30.7326   24.2135 H   0  0  0  0  0  0
  -17.5060  -31.6280   24.5160 H   0  0  0  0  0  0
  -15.5376  -30.2974   23.7776 H   0  0  0  0  0  0
  -15.8674  -28.0836   22.7123 H   0  0  0  0  0  0
  -24.5882  -30.7222   25.7634 H   0  0  0  0  0  0
  -24.8874  -32.3074   26.4645 H   0  0  0  0  0  0
  -25.7839  -30.9071   27.0260 H   0  0  0  0  0  0
  -26.3235  -29.6556   24.1598 H   0  0  0  0  0  0
  -27.3942  -29.7337   25.5348 H   0  0  0  0  0  0
  -27.9230  -30.4047   24.0160 H   0  0  0  0  0  0
  -27.2664  -33.3766   26.2000 H   0  0  0  0  0  0
  -28.3966  -32.6907   25.0442 H   0  0  0  0  0  0
  -28.0707  -31.8652   26.5592 H   0  0  0  0  0  0
  -28.2597  -38.0082   24.7559 H   0  0  0  0  0  0
  -28.1121  -36.2621   24.6261 H   0  0  0  0  0  0
  -27.2276  -37.1363   25.8838 H   0  0  0  0  0  0
  -20.9639  -29.8698   21.6585 H   0  0  0  0  0  0
  -26.0157  -38.2792   24.1437 H   0  0  0  0  0  0
  -28.8105  -21.0790   18.8468 H   0  0  0  0  0  0
  -28.7929  -23.3271   22.5249 H   0  0  0  0  0  0
  -30.8354  -18.5362   22.6206 H   0  0  0  0  0  0
  -29.1374  -18.2020   22.9730 H   0  0  0  0  0  0
  -30.0315  -19.3556   23.9595 H   0  0  0  0  0  0
  -26.8374  -22.6492   18.8319 H   0  0  0  0  0  0
  -26.7536  -24.2370   18.1657 H   0  0  0  0  0  0
  -25.9949  -23.8765   19.7525 H   0  0  0  0  0  0
  -30.8173  -18.3153   19.7229 H   0  0  0  0  0  0
  -29.2682  -18.1803   19.0213 H   0  0  0  0  0  0
  -28.8846  -24.1555   18.9941 H   0  0  0  0  0  0
  -28.7282  -16.3737   20.7889 H   0  0  0  0  0  0
  1 25  1  0  0  0
  1 30  2  0  0  0
  1 81  1  0  0  0
  2  3  1  0  0  0
  2 25  1  0  0  0
  2 82  1  0  0  0
  2 83  1  0  0  0
  3  4  1  0  0  0
  3 84  1  0  0  0
  3 85  1  0  0  0
  4  5  1  0  0  0
  4 86  1  0  0  0
  4 87  1  0  0  0
  5  6  1  0  0  0
  5 26  1  0  0  0
  5 88  1  0  0  0
  6 25  1  0  0  0
  6 89  1  0  0  0
  6 90  1  0  0  0
  7  8  2  0  0  0
  7 26  1  0  0  0
  7 29  1  0  0  0
  8  9  1  0  0  0
  8 22  1  0  0  0
  9 10  1  0  0  0
  9 27  2  0  0  0
 10 11  2  0  0  0
 10 15  1  0  0  0
 11 12  1  0  0  0
 11 91  1  0  0  0
 12 13  2  0  0  0
 12 92  1  0  0  0
 13 14  1  0  0  0
 13 31  1  0  0  0
 14 15  2  0  0  0
 14 93  1  0  0  0
 15 94  1  0  0  0
 16 17  2  0  0  0
 16 21  1  0  0  0
 16 31  1  0  0  0
 17 18  1  0  0  0
 17 95  1  0  0  0
 18 19  2  0  0  0
 18 96  1  0  0  0
 19 20  1  0  0  0
 19 24  1  0  0  0
 20 21  2  0  0  0
 20 97  1  0  0  0
 21 23  1  0  0  0
 22 28  1  0  0  0
 22 32  2  0  0  0
 26 27  1  0  0  0
 28 98  1  0  0  0
 28 99  1  0  0  0
 29100  1  0  0  0
 29101  1  0  0  0
 33 34  1  0  0  0
 33 66  1  0  0  0
 33 70  2  0  0  0
 34 36  1  0  0  0
 34 59  1  0  0  0
 34102  1  0  0  0
 35 44  2  0  0  0
 35 45  1  0  0  0
 35 68  1  0  0  0
 36 56  1  0  0  0
 36103  1  0  0  0
 37 39  1  0  0  0
 37 47  1  0  0  0
 37 66  1  0  0  0
 37104  1  0  0  0
 38 43  2  0  0  0
 38 46  1  0  0  0
 38 47  1  0  0  0
 39 64  1  0  0  0
 39 67  2  0  0  0
 40 52  1  0  0  0
 40 53  2  0  0  0
 40 58  1  0  0  0
 41105  1  0  0  0
 41106  1  0  0  0
 41107  1  0  0  0
 41 48  1  0  0  0
 42 43  1  0  0  0
 42 66  1  0  0  0
 42108  1  0  0  0
 42109  1  0  0  0
 43 44  1  0  0  0
 44110  1  0  0  0
 45 46  2  0  0  0
 45111  1  0  0  0
 46112  1  0  0  0
 47113  1  0  0  0
 47114  1  0  0  0
 48 56  1  0  0  0
 48 65  1  0  0  0
 48115  1  0  0  0
 49 50  1  0  0  0
 49 53  1  0  0  0
 49 64  1  0  0  0
 49116  1  0  0  0
 50 51  1  0  0  0
 50117  1  0  0  0
 50118  1  0  0  0
 51 52  1  0  0  0
 51119  1  0  0  0
 51120  1  0  0  0
 52121  1  0  0  0
 52122  1  0  0  0
 53 54  1  0  0  0
 54 55  2  0  0  0
 54123  1  0  0  0
 55 57  1  0  0  0
 55124  1  0  0  0
 56 69  2  0  0  0
 57 58  2  0  0  0
 57125  1  0  0  0
 58126  1  0  0  0
 59 60  1  0  0  0
 59 61  1  0  0  0
 59 62  1  0  0  0
 60127  1  0  0  0
 60128  1  0  0  0
 60129  1  0  0  0
 61130  1  0  0  0
 61131  1  0  0  0
 61132  1  0  0  0
 62133  1  0  0  0
 62134  1  0  0  0
 62135  1  0  0  0
 63 65  1  0  0  0
 63136  1  0  0  0
 63137  1  0  0  0
 63138  1  0  0  0
 64139  1  0  0  0
 65140  1  0  0  0
 68 79  1  0  0  0
 71 73  2  0  0  0
 71 74  1  0  0  0
 71141  1  0  0  0
 72 73  1  0  0  0
 72 80  2  0  0  0
 72142  1  0  0  0
 73 79  1  0  0  0
 74 75  2  0  0  0
 74 78  1  0  0  0
 75 76  1  0  0  0
 75 80  1  0  0  0
 76143  1  0  0  0
 76144  1  0  0  0
 76145  1  0  0  0
 77146  1  0  0  0
 77147  1  0  0  0
 77148  1  0  0  0
 77 79  1  0  0  0
 78 81  1  0  0  0
 78149  1  0  0  0
 78150  1  0  0  0
 79151  1  0  0  0
 81152  1  0  0  0
M  ISO  4   1 100  68 101  79 101  81 100
M  END
> <chiral flag>
0

> <version>
0

> <s_m_source_file>
/data/baiqing/PycharmProjects/Reinvent-master-3.2/result/LINK_invent/BTK/process_docking_weight1_custom_sum_contain_oxygen_bond_distance_aromatic_linkinvent_7_9_3/rearranged_h_0111.sdf

> <i_m_source_file_index>
50

> <r_mmod_Potential_Energy-OPLS-2005>
1326.20764160156

> <r_mmod_Stretch_Energy-OPLS-2005>
660.017150878906

> <r_mmod_Bend_Energy-OPLS-2005>
474.027740478516

> <r_mmod_Torsional_Energy-OPLS-2005>
226.760696411133

> <r_mmod_Improper_Torsional_Energy-OPLS-2005>
5.68082857131958

> <r_mmod_Van_der_Waal_Energy-OPLS-2005>
137.028335571289

> <r_mmod_Electrostatic_Energy-OPLS-2005>
-473.549163818359

> <r_mmod_Solvation_Energy-OPLS-2005>
-228.4296875

> <b_mmod_Minimization_Converged-OPLS-2005>
0

> <r_mmod_RMS_Derivative-OPLS-2005>
3.26707673072815

$$$$
50
                    3D
 Structure written by MMmdl.
171181  0  0  1  0            999 V2000
  -30.6835  -14.5288   20.4994 C   0  0  0  0  0  0
  -30.4220  -12.3099   19.4504 C   0  0  0  0  0  0
  -29.5040  -12.4890   18.2196 C   0  0  0  0  0  0
  -28.0136  -12.3776   18.6193 C   0  0  0  0  0  0
  -27.6547  -13.2203   19.8739 C   0  0  2  0  0  0
  -28.7041  -13.0390   20.9959 C   0  0  0  0  0  0
  -25.2513  -13.8191   20.5713 C   0  0  0  0  0  0
  -24.1789  -13.0443   20.9207 C   0  0  0  0  0  0
  -24.6375  -11.6920   20.8744 C   0  0  0  0  0  0
  -23.9050  -10.4306   21.0396 C   0  0  0  0  0  0
  -24.3594   -9.4238   21.9189 C   0  0  0  0  0  0
  -23.6303   -8.2258   22.0727 C   0  0  0  0  0  0
  -22.4283   -8.0283   21.3530 C   0  0  0  0  0  0
  -21.9941   -9.0247   20.4625 C   0  0  0  0  0  0
  -22.7231  -10.2148   20.3062 C   0  0  0  0  0  0
  -21.6856   -6.0744   22.5281 C   0  0  0  0  0  0
  -21.4007   -6.5631   23.8213 C   0  0  0  0  0  0
  -21.3680   -5.6770   24.9171 C   0  0  0  0  0  0
  -21.6066   -4.3039   24.7221 C   0  0  0  0  0  0
  -21.8808   -3.8145   23.4332 C   0  0  0  0  0  0
  -21.9178   -4.6972   22.3395 C   0  0  0  0  0  0
  -22.7815  -13.5241   21.1868 C   0  0  0  0  0  0
  -22.1666   -4.2165   21.0977 F   0  0  0  0  0  0
  -21.5645   -3.4526   25.7740 F   0  0  0  0  0  0
  -30.0247  -13.3362   20.4238 N   0  0  0  0  0  0
  -26.2976  -12.9400   20.3396 N   0  0  0  0  0  0
  -25.9306  -11.6530   20.5763 N   0  0  0  0  0  0
  -22.0458  -12.8252   22.0447 N   0  0  0  0  0  0
  -25.4209  -15.1921   20.4121 N   0  0  0  0  0  0
  -31.8574  -14.6601   20.1435 O   0  0  0  0  0  0
  -21.6636   -6.8900   21.4247 O   0  0  0  0  0  0
  -22.3498  -14.5559   20.6722 O   0  0  0  0  0  0
  -24.6222  -31.8635   23.2054 C   0  0  0  0  0  0
  -25.9092  -32.4781   23.8355 C   0  0  1  0  0  0
  -27.2345  -27.4027   20.0707 C   0  0  0  0  0  0
  -25.5927  -33.8582   24.2291 N   0  0  0  0  0  0
  -23.4089  -30.4887   21.5492 C   0  0  2  0  0  0
  -24.8475  -28.9457   20.1180 C   0  0  0  0  0  0
  -22.7418  -29.4659   22.4974 C   0  0  0  0  0  0
  -18.0264  -28.1388   22.8479 C   0  0  0  0  0  0
  -24.1469  -36.7286   23.2650 C   0  0  0  0  0  0
  -25.9435  -30.8192   21.3610 C   0  0  0  0  0  0
  -26.0123  -29.4524   20.7020 C   0  0  0  0  0  0
  -27.2077  -28.6903   20.6681 C   0  0  0  0  0  0
  -26.0320  -26.8958   19.5335 C   0  0  0  0  0  0
  -24.8524  -27.6669   19.5317 C   0  0  0  0  0  0
  -23.6151  -29.8223   20.1637 C   0  0  0  0  0  0
  -25.4097  -36.3091   24.0339 C   0  0  1  0  0  0
  -20.5863  -28.3690   23.1290 C   0  0  2  0  0  0
  -20.6788  -26.9414   22.5437 C   0  0  0  0  0  0
  -19.5773  -26.6389   21.5233 C   0  0  0  0  0  0
  -18.1923  -26.7929   22.1607 C   0  0  0  0  0  0
  -19.1513  -28.8849   23.2882 C   0  0  0  0  0  0
  -18.9443  -30.1448   23.8910 C   0  0  0  0  0  0
  -17.6451  -30.6589   24.0558 C   0  0  0  0  0  0
  -25.9047  -34.9454   23.5112 C   0  0  0  0  0  0
  -16.5339  -29.9099   23.6329 C   0  0  0  0  0  0
  -16.7251  -28.6519   23.0337 C   0  0  0  0  0  0
  -26.4528  -31.6570   25.0683 C   0  0  0  0  0  0
  -25.3803  -31.3650   26.1426 C   0  0  0  0  0  0
  -27.0411  -30.3007   24.6127 C   0  0  0  0  0  0
  -27.6078  -32.4314   25.7448 C   0  0  0  0  0  0
  -27.5564  -37.1794   24.8472 C   0  0  0  0  0  0
  -21.4144  -29.3033   22.3676 N   0  0  0  0  0  0
  -26.4272  -37.3793   23.9433 N   0  0  0  0  0  0
  -24.6767  -31.0724   22.0965 N   0  0  0  0  0  0
  -23.4149  -28.8192   23.3029 O   0  0  0  0  0  0
  -28.4388  -26.7107   20.0529 O   0  0  0  0  0  0
  -26.5610  -34.8922   22.4668 O   0  0  0  0  0  0
  -23.5390  -32.1400   23.7405 O   0  0  0  0  0  0
  -33.2747  -20.9331   19.8836 C   0  0  0  0  0  0
  -32.7295  -22.2214   19.9111 C   0  0  0  0  0  0
  -32.4359  -19.8160   20.0385 C   0  0  0  0  0  0
  -31.3408  -22.3824   20.0434 C   0  0  0  0  0  0
  -31.0336  -19.9483   20.2061 C   0  0  0  0  0  0
  -30.4629  -21.2711   20.1255 C   0  0  0  0  0  0
  -30.1158  -17.7241   19.2590 C   0  0  0  0  0  0
  -30.8429  -17.7836   21.6298 C   0  0  0  0  0  0
  -28.3786  -25.3813   17.8674 C   0  0  0  0  0  0
  -28.2466  -24.1438   20.1572 C   0  0  0  0  0  0
  -29.3614  -16.3979   19.5646 C   0  0  0  0  0  0
  -30.0483  -16.4752   21.9053 C   0  0  0  0  0  0
  -28.7577  -24.0200   17.2423 C   0  0  0  0  0  0
  -30.2345  -18.6468   20.4921 C   0  0  0  0  0  0
  -28.6610  -25.4367   19.3870 C   0  0  2  0  0  0
  -28.4413  -22.8369   19.3163 C   0  0  2  0  0  0
  -28.9388  -21.5520   20.0930 C   0  0  0  0  0  0
  -29.9072  -15.6310   20.7067 N   0  0  0  0  0  0
  -29.2794  -23.0896   18.1884 O   0  0  0  0  0  0
  -31.4732  -12.3819   19.1702 H   0  0  0  0  0  0
  -30.3075  -11.3154   19.8829 H   0  0  0  0  0  0
  -29.7446  -11.7410   17.4643 H   0  0  0  0  0  0
  -29.6946  -13.4580   17.7553 H   0  0  0  0  0  0
  -27.7965  -11.3253   18.8001 H   0  0  0  0  0  0
  -27.3792  -12.6834   17.7869 H   0  0  0  0  0  0
  -27.6777  -14.2607   19.5562 H   0  0  0  0  0  0
  -28.6814  -12.0168   21.3760 H   0  0  0  0  0  0
  -28.4908  -13.6837   21.8477 H   0  0  0  0  0  0
  -25.2733   -9.5744   22.4756 H   0  0  0  0  0  0
  -24.0028   -7.4667   22.7448 H   0  0  0  0  0  0
  -21.0888   -8.8755   19.8932 H   0  0  0  0  0  0
  -22.3682  -10.9669   19.6167 H   0  0  0  0  0  0
  -21.2001   -7.6131   23.9732 H   0  0  0  0  0  0
  -21.1524   -6.0488   25.9074 H   0  0  0  0  0  0
  -22.0576   -2.7608   23.2802 H   0  0  0  0  0  0
  -22.4058  -11.9944   22.4909 H   0  0  0  0  0  0
  -21.1058  -13.1284   22.2613 H   0  0  0  0  0  0
  -24.6635  -15.8551   20.5405 H   0  0  0  0  0  0
  -26.2832  -15.6334   20.1238 H   0  0  0  0  0  0
  -26.7145  -32.5498   23.1094 H   0  0  0  0  0  0
  -25.0103  -33.9740   25.0458 H   0  0  0  0  0  0
  -22.7018  -31.3094   21.4102 H   0  0  0  0  0  0
  -23.3747  -35.9613   23.3316 H   0  0  0  0  0  0
  -24.3550  -36.8908   22.2072 H   0  0  0  0  0  0
  -23.7198  -37.6471   23.6666 H   0  0  0  0  0  0
  -26.0712  -31.5861   20.5929 H   0  0  0  0  0  0
  -26.8286  -30.8610   21.9879 H   0  0  0  0  0  0
  -28.1164  -29.0877   21.0980 H   0  0  0  0  0  0
  -25.9737  -25.8967   19.1302 H   0  0  0  0  0  0
  -23.9490  -27.2626   19.0987 H   0  0  0  0  0  0
  -23.7306  -30.6009   19.4086 H   0  0  0  0  0  0
  -22.7363  -29.2495   19.8621 H   0  0  0  0  0  0
  -25.1267  -36.1958   25.0837 H   0  0  0  0  0  0
  -20.9958  -28.3327   24.1407 H   0  0  0  0  0  0
  -20.5748  -26.2295   23.3639 H   0  0  0  0  0  0
  -21.6649  -26.7502   22.1196 H   0  0  0  0  0  0
  -19.6958  -25.6313   21.1233 H   0  0  0  0  0  0
  -19.6715  -27.3233   20.6792 H   0  0  0  0  0  0
  -17.4212  -26.6666   21.3991 H   0  0  0  0  0  0
  -18.0298  -26.0074   22.9005 H   0  0  0  0  0  0
  -19.7917  -30.7247   24.2291 H   0  0  0  0  0  0
  -17.5005  -31.6265   24.5150 H   0  0  0  0  0  0
  -15.5339  -30.3007   23.7645 H   0  0  0  0  0  0
  -15.8641  -28.0853   22.7044 H   0  0  0  0  0  0
  -24.5962  -30.7020   25.7736 H   0  0  0  0  0  0
  -24.9030  -32.2800   26.4941 H   0  0  0  0  0  0
  -25.8178  -30.8748   27.0140 H   0  0  0  0  0  0
  -26.2987  -29.6650   24.1277 H   0  0  0  0  0  0
  -27.4270  -29.7338   25.4621 H   0  0  0  0  0  0
  -27.8773  -30.4292   23.9243 H   0  0  0  0  0  0
  -27.2678  -33.3618   26.2020 H   0  0  0  0  0  0
  -28.3889  -32.6879   25.0266 H   0  0  0  0  0  0
  -28.0757  -31.8451   26.5377 H   0  0  0  0  0  0
  -28.2581  -38.0087   24.7517 H   0  0  0  0  0  0
  -28.1042  -36.2613   24.6289 H   0  0  0  0  0  0
  -27.2273  -37.1443   25.8871 H   0  0  0  0  0  0
  -20.9323  -29.8689   21.6834 H   0  0  0  0  0  0
  -26.0145  -38.2864   24.1464 H   0  0  0  0  0  0
  -34.3400  -20.8005   19.7565 H   0  0  0  0  0  0
  -33.3702  -23.0874   19.8063 H   0  0  0  0  0  0
  -32.8956  -18.8365   20.0277 H   0  0  0  0  0  0
  -30.9558  -23.3901   20.0380 H   0  0  0  0  0  0
  -29.6133  -18.2608   18.4536 H   0  0  0  0  0  0
  -31.1105  -17.4809   18.8834 H   0  0  0  0  0  0
  -31.8640  -17.4916   21.3837 H   0  0  0  0  0  0
  -30.9110  -18.3712   22.5448 H   0  0  0  0  0  0
  -27.3421  -25.5807   17.6051 H   0  0  0  0  0  0
  -28.9432  -26.1730   17.3698 H   0  0  0  0  0  0
  -27.2102  -24.2095   20.4979 H   0  0  0  0  0  0
  -28.8463  -24.0828   21.0672 H   0  0  0  0  0  0
  -29.3448  -15.7761   18.6681 H   0  0  0  0  0  0
  -28.3179  -16.6290   19.7817 H   0  0  0  0  0  0
  -29.0523  -16.7257   22.2765 H   0  0  0  0  0  0
  -30.5284  -15.9111   22.7079 H   0  0  0  0  0  0
  -29.5162  -24.1612   16.4723 H   0  0  0  0  0  0
  -27.8943  -23.5779   16.7397 H   0  0  0  0  0  0
  -29.2336  -18.9306   20.8156 H   0  0  0  0  0  0
  -29.7500  -25.3897   19.4198 H   0  0  0  0  0  0
  -27.4517  -22.5893   18.9234 H   0  0  0  0  0  0
  -28.5291  -21.5271   21.1041 H   0  0  0  0  0  0
  -28.4927  -20.7017   19.5784 H   0  0  0  0  0  0
  1 25  1  0  0  0
  1 30  2  0  0  0
  1 88  1  0  0  0
  2  3  1  0  0  0
  2 25  1  0  0  0
  2 90  1  0  0  0
  2 91  1  0  0  0
  3  4  1  0  0  0
  3 92  1  0  0  0
  3 93  1  0  0  0
  4  5  1  0  0  0
  4 94  1  0  0  0
  4 95  1  0  0  0
  5  6  1  0  0  0
  5 26  1  0  0  0
  5 96  1  0  0  0
  6 25  1  0  0  0
  6 97  1  0  0  0
  6 98  1  0  0  0
  7  8  2  0  0  0
  7 26  1  0  0  0
  7 29  1  0  0  0
  8  9  1  0  0  0
  8 22  1  0  0  0
  9 10  1  0  0  0
  9 27  2  0  0  0
 10 11  2  0  0  0
 10 15  1  0  0  0
 11 12  1  0  0  0
 11 99  1  0  0  0
 12 13  2  0  0  0
 12100  1  0  0  0
 13 14  1  0  0  0
 13 31  1  0  0  0
 14 15  2  0  0  0
 14101  1  0  0  0
 15102  1  0  0  0
 16 17  2  0  0  0
 16 21  1  0  0  0
 16 31  1  0  0  0
 17 18  1  0  0  0
 17103  1  0  0  0
 18 19  2  0  0  0
 18104  1  0  0  0
 19 20  1  0  0  0
 19 24  1  0  0  0
 20 21  2  0  0  0
 20105  1  0  0  0
 21 23  1  0  0  0
 22 28  1  0  0  0
 22 32  2  0  0  0
 26 27  1  0  0  0
 28106  1  0  0  0
 28107  1  0  0  0
 29108  1  0  0  0
 29109  1  0  0  0
 33 34  1  0  0  0
 33 66  1  0  0  0
 33 70  2  0  0  0
 34 36  1  0  0  0
 34 59  1  0  0  0
 34110  1  0  0  0
 35 44  2  0  0  0
 35 45  1  0  0  0
 35 68  1  0  0  0
 36 56  1  0  0  0
 36111  1  0  0  0
 37 39  1  0  0  0
 37 47  1  0  0  0
 37 66  1  0  0  0
 37112  1  0  0  0
 38 43  2  0  0  0
 38 46  1  0  0  0
 38 47  1  0  0  0
 39 64  1  0  0  0
 39 67  2  0  0  0
 40 52  1  0  0  0
 40 53  2  0  0  0
 40 58  1  0  0  0
 41113  1  0  0  0
 41114  1  0  0  0
 41115  1  0  0  0
 41 48  1  0  0  0
 42 43  1  0  0  0
 42 66  1  0  0  0
 42116  1  0  0  0
 42117  1  0  0  0
 43 44  1  0  0  0
 44118  1  0  0  0
 45 46  2  0  0  0
 45119  1  0  0  0
 46120  1  0  0  0
 47121  1  0  0  0
 47122  1  0  0  0
 48 56  1  0  0  0
 48 65  1  0  0  0
 48123  1  0  0  0
 49 50  1  0  0  0
 49 53  1  0  0  0
 49 64  1  0  0  0
 49124  1  0  0  0
 50 51  1  0  0  0
 50125  1  0  0  0
 50126  1  0  0  0
 51 52  1  0  0  0
 51127  1  0  0  0
 51128  1  0  0  0
 52129  1  0  0  0
 52130  1  0  0  0
 53 54  1  0  0  0
 54 55  2  0  0  0
 54131  1  0  0  0
 55 57  1  0  0  0
 55132  1  0  0  0
 56 69  2  0  0  0
 57 58  2  0  0  0
 57133  1  0  0  0
 58134  1  0  0  0
 59 60  1  0  0  0
 59 61  1  0  0  0
 59 62  1  0  0  0
 60135  1  0  0  0
 60136  1  0  0  0
 60137  1  0  0  0
 61138  1  0  0  0
 61139  1  0  0  0
 61140  1  0  0  0
 62141  1  0  0  0
 62142  1  0  0  0
 62143  1  0  0  0
 63 65  1  0  0  0
 63144  1  0  0  0
 63145  1  0  0  0
 63146  1  0  0  0
 64147  1  0  0  0
 65148  1  0  0  0
 68 85  1  0  0  0
 71 72  2  0  0  0
 71 73  1  0  0  0
 71149  1  0  0  0
 72 74  1  0  0  0
 72150  1  0  0  0
 73 75  2  0  0  0
 73151  1  0  0  0
 74 76  2  0  0  0
 74152  1  0  0  0
 75 76  1  0  0  0
 75 84  1  0  0  0
 76 87  1  0  0  0
 77 81  1  0  0  0
 77 84  1  0  0  0
 77153  1  0  0  0
 77154  1  0  0  0
 78 82  1  0  0  0
 78 84  1  0  0  0
 78155  1  0  0  0
 78156  1  0  0  0
 79 83  1  0  0  0
 79 85  1  0  0  0
 79157  1  0  0  0
 79158  1  0  0  0
 80 85  1  0  0  0
 80 86  1  0  0  0
 80159  1  0  0  0
 80160  1  0  0  0
 81 88  1  0  0  0
 81161  1  0  0  0
 81162  1  0  0  0
 82 88  1  0  0  0
 82163  1  0  0  0
 82164  1  0  0  0
 83 89  1  0  0  0
 83165  1  0  0  0
 83166  1  0  0  0
 84167  1  0  0  0
 85168  1  0  0  0
 86 87  1  0  0  0
 86 89  1  0  0  0
 86169  1  0  0  0
 87170  1  0  0  0
 87171  1  0  0  0
M  ISO  4   1 100  68 101  85 101  88 100
M  END
> <chiral flag>
0

> <version>
0

> <s_m_source_file>
/data/baiqing/PycharmProjects/Reinvent-master-3.2/result/LINK_invent/BTK/process_docking_weight1_custom_sum_contain_oxygen_bond_distance_aromatic_linkinvent_7_9_3/rearranged_h_0111.sdf

> <i_m_source_file_index>
51

> <r_mmod_Potential_Energy-OPLS-2005>
276.638671875

> <r_mmod_Stretch_Energy-OPLS-2005>
57.7764320373535

> <r_mmod_Bend_Energy-OPLS-2005>
150.272476196289

> <r_mmod_Torsional_Energy-OPLS-2005>
367.535339355469

> <r_mmod_Improper_Torsional_Energy-OPLS-2005>
8.6847095489502

> <r_mmod_Van_der_Waal_Energy-OPLS-2005>
152.939392089844

> <r_mmod_Electrostatic_Energy-OPLS-2005>
-281.381256103516

> <r_mmod_Solvation_Energy-OPLS-2005>
-200.818969726562

> <b_mmod_Minimization_Converged-OPLS-2005>
0

> <r_mmod_RMS_Derivative-OPLS-2005>
4.73039388656616

$$$$
51
                    3D
 Structure written by MMmdl.
167175  0  0  1  0            999 V2000
  -30.5778  -14.8391   20.4553 C   0  0  0  0  0  0
  -30.4478  -12.5275   19.4674 C   0  0  0  0  0  0
  -29.5143  -12.5036   18.2365 C   0  0  0  0  0  0
  -28.0457  -12.3056   18.6608 C   0  0  0  0  0  0
  -27.6364  -13.2286   19.8376 C   0  0  2  0  0  0
  -28.6838  -13.2116   20.9693 C   0  0  0  0  0  0
  -25.2504  -13.8181   20.5678 C   0  0  0  0  0  0
  -24.1799  -13.0430   20.9190 C   0  0  0  0  0  0
  -24.6391  -11.6905   20.8737 C   0  0  0  0  0  0
  -23.9058  -10.4282   21.0392 C   0  0  0  0  0  0
  -24.3613   -9.4211   21.9177 C   0  0  0  0  0  0
  -23.6285   -8.2244   22.0756 C   0  0  0  0  0  0
  -22.4276   -8.0271   21.3542 C   0  0  0  0  0  0
  -21.9898   -9.0234   20.4643 C   0  0  0  0  0  0
  -22.7226  -10.2118   20.3048 C   0  0  0  0  0  0
  -21.6855   -6.0729   22.5264 C   0  0  0  0  0  0
  -21.4022   -6.5630   23.8202 C   0  0  0  0  0  0
  -21.3659   -5.6787   24.9161 C   0  0  0  0  0  0
  -21.6047   -4.3042   24.7218 C   0  0  0  0  0  0
  -21.8826   -3.8141   23.4337 C   0  0  0  0  0  0
  -21.9203   -4.6952   22.3391 C   0  0  0  0  0  0
  -22.7825  -13.5217   21.1860 C   0  0  0  0  0  0
  -22.1668   -4.2137   21.0965 F   0  0  0  0  0  0
  -21.5627   -3.4531   25.7739 F   0  0  0  0  0  0
  -29.9675  -13.6006   20.3711 N   0  0  0  0  0  0
  -26.2918  -12.9383   20.3240 N   0  0  0  0  0  0
  -25.9320  -11.6531   20.5731 N   0  0  0  0  0  0
  -22.0477  -12.8199   22.0411 N   0  0  0  0  0  0
  -25.4206  -15.1913   20.4101 N   0  0  0  0  0  0
  -31.7862  -14.9291   20.2196 O   0  0  0  0  0  0
  -21.6642   -6.8859   21.4226 O   0  0  0  0  0  0
  -22.3515  -14.5513   20.6694 O   0  0  0  0  0  0
  -24.6355  -31.8490   23.1967 C   0  0  0  0  0  0
  -25.9156  -32.4728   23.8297 C   0  0  1  0  0  0
  -27.2121  -27.2151   20.1253 C   0  0  0  0  0  0
  -25.5939  -33.8524   24.2221 N   0  0  0  0  0  0
  -23.4360  -30.4693   21.5430 C   0  0  2  0  0  0
  -24.8834  -28.9107   20.1089 C   0  0  0  0  0  0
  -22.7526  -29.4546   22.4915 C   0  0  0  0  0  0
  -18.0289  -28.1374   22.8453 C   0  0  0  0  0  0
  -24.1500  -36.7266   23.2638 C   0  0  0  0  0  0
  -25.9855  -30.7457   21.3849 C   0  0  0  0  0  0
  -26.0561  -29.3641   20.7247 C   0  0  0  0  0  0
  -27.2266  -28.5302   20.7156 C   0  0  0  0  0  0
  -26.0182  -26.8434   19.4720 C   0  0  0  0  0  0
  -24.8703  -27.6615   19.4687 C   0  0  0  0  0  0
  -23.6581  -29.8063   20.1585 C   0  0  0  0  0  0
  -25.4133  -36.3042   24.0311 C   0  0  1  0  0  0
  -20.5885  -28.3675   23.1252 C   0  0  2  0  0  0
  -20.6781  -26.9383   22.5422 C   0  0  0  0  0  0
  -19.5769  -26.6369   21.5204 C   0  0  0  0  0  0
  -18.1931  -26.7922   22.1593 C   0  0  0  0  0  0
  -19.1539  -28.8846   23.2836 C   0  0  0  0  0  0
  -18.9482  -30.1439   23.8852 C   0  0  0  0  0  0
  -17.6477  -30.6573   24.0544 C   0  0  0  0  0  0
  -25.9071  -34.9412   23.5071 C   0  0  0  0  0  0
  -16.5356  -29.9070   23.6337 C   0  0  0  0  0  0
  -16.7280  -28.6495   23.0325 C   0  0  0  0  0  0
  -26.4519  -31.6568   25.0700 C   0  0  0  0  0  0
  -25.3717  -31.3736   26.1403 C   0  0  0  0  0  0
  -27.0369  -30.2968   24.6216 C   0  0  0  0  0  0
  -27.6055  -32.4324   25.7480 C   0  0  0  0  0  0
  -27.5581  -37.1792   24.8462 C   0  0  0  0  0  0
  -21.4228  -29.3026   22.3654 N   0  0  0  0  0  0
  -26.4292  -37.3747   23.9411 N   0  0  0  0  0  0
  -24.7049  -31.0413   22.0966 N   0  0  0  0  0  0
  -23.4191  -28.8087   23.3033 O   0  0  0  0  0  0
  -28.2924  -26.2855   20.1341 O   0  0  0  0  0  0
  -26.5656  -34.8909   22.4655 O   0  0  0  0  0  0
  -23.5495  -32.1332   23.7261 O   0  0  0  0  0  0
  -30.3137  -20.0588   21.4924 C   0  0  0  0  0  0
  -28.5940  -20.8352   19.4508 C   0  0  0  0  0  0
  -28.9163  -21.9835   20.5189 C   0  0  2  0  0  0
  -29.9476  -18.9148   20.4648 C   0  0  1  0  0  0
  -32.4137  -22.2704   21.8868 C   0  0  0  0  0  0
  -30.3842  -22.2796   23.4433 C   0  0  0  0  0  0
  -28.2061  -24.9068   22.0922 C   0  0  0  0  0  0
  -28.8953  -23.5556   19.9394 C   0  0  0  0  0  0
  -30.1359  -17.4024   21.1425 C   0  0  0  0  0  0
  -30.8867  -22.4143   21.9910 C   0  0  0  0  0  0
  -28.0610  -24.8400   20.5679 C   0  0  2  0  0  0
  -30.2420  -21.4984   21.0307 N   0  0  0  0  0  0
  -29.7889  -15.9862   20.6113 N   0  0  0  0  0  0
  -28.6233  -19.3805   19.9329 N   0  3  0  0  0  0
  -31.4772  -12.6933   19.1450 H   0  0  0  0  0  0
  -30.4446  -11.5658   19.9822 H   0  0  0  0  0  0
  -29.8153  -11.7094   17.5514 H   0  0  0  0  0  0
  -29.6136  -13.4397   17.6841 H   0  0  0  0  0  0
  -27.9270  -11.2615   18.9541 H   0  0  0  0  0  0
  -27.3819  -12.4585   17.8099 H   0  0  0  0  0  0
  -27.6143  -14.2386   19.4284 H   0  0  0  0  0  0
  -28.7558  -12.2241   21.4267 H   0  0  0  0  0  0
  -28.4017  -13.8999   21.7673 H   0  0  0  0  0  0
  -25.2767   -9.5691   22.4740 H   0  0  0  0  0  0
  -23.9996   -7.4650   22.7486 H   0  0  0  0  0  0
  -21.0832   -8.8751   19.8948 H   0  0  0  0  0  0
  -22.3683  -10.9651   19.6143 H   0  0  0  0  0  0
  -21.2016   -7.6146   23.9692 H   0  0  0  0  0  0
  -21.1471   -6.0520   25.9064 H   0  0  0  0  0  0
  -22.0612   -2.7598   23.2841 H   0  0  0  0  0  0
  -22.4103  -11.9855   22.4786 H   0  0  0  0  0  0
  -21.1093  -13.1206   22.2619 H   0  0  0  0  0  0
  -24.6486  -15.8412   20.5129 H   0  0  0  0  0  0
  -26.2561  -15.6274   20.0457 H   0  0  0  0  0  0
  -26.7211  -32.5372   23.1021 H   0  0  0  0  0  0
  -25.0045  -33.9649   25.0335 H   0  0  0  0  0  0
  -22.7346  -31.2921   21.3958 H   0  0  0  0  0  0
  -23.3745  -35.9614   23.3313 H   0  0  0  0  0  0
  -24.3582  -36.8902   22.2051 H   0  0  0  0  0  0
  -23.7282  -37.6471   23.6673 H   0  0  0  0  0  0
  -26.1245  -31.5082   20.6172 H   0  0  0  0  0  0
  -26.8593  -30.7951   22.0226 H   0  0  0  0  0  0
  -28.1290  -28.8736   21.2021 H   0  0  0  0  0  0
  -25.9631  -25.8978   18.9538 H   0  0  0  0  0  0
  -23.9754  -27.3187   18.9703 H   0  0  0  0  0  0
  -23.7916  -30.5859   19.4065 H   0  0  0  0  0  0
  -22.7725  -29.2453   19.8502 H   0  0  0  0  0  0
  -25.1318  -36.1872   25.0799 H   0  0  0  0  0  0
  -20.9939  -28.3283   24.1381 H   0  0  0  0  0  0
  -20.5681  -26.2283   23.3634 H   0  0  0  0  0  0
  -21.6654  -26.7424   22.1200 H   0  0  0  0  0  0
  -19.6934  -25.6285   21.1232 H   0  0  0  0  0  0
  -19.6723  -27.3166   20.6712 H   0  0  0  0  0  0
  -17.4222  -26.6652   21.3973 H   0  0  0  0  0  0
  -18.0302  -26.0068   22.8986 H   0  0  0  0  0  0
  -19.7966  -30.7231   24.2206 H   0  0  0  0  0  0
  -17.5050  -31.6261   24.5139 H   0  0  0  0  0  0
  -15.5349  -30.2939   23.7723 H   0  0  0  0  0  0
  -15.8682  -28.0823   22.7021 H   0  0  0  0  0  0
  -24.5987  -30.6964   25.7764 H   0  0  0  0  0  0
  -24.8779  -32.2890   26.4653 H   0  0  0  0  0  0
  -25.8025  -30.9077   27.0279 H   0  0  0  0  0  0
  -26.2949  -29.6706   24.1239 H   0  0  0  0  0  0
  -27.4015  -29.7248   25.4760 H   0  0  0  0  0  0
  -27.8860  -30.4202   23.9486 H   0  0  0  0  0  0
  -27.2654  -33.3691   26.1920 H   0  0  0  0  0  0
  -28.3931  -32.6778   25.0337 H   0  0  0  0  0  0
  -28.0626  -31.8516   26.5512 H   0  0  0  0  0  0
  -28.2570  -38.0109   24.7503 H   0  0  0  0  0  0
  -28.1103  -36.2633   24.6292 H   0  0  0  0  0  0
  -27.2294  -37.1443   25.8862 H   0  0  0  0  0  0
  -20.9433  -29.8802   21.6895 H   0  0  0  0  0  0
  -26.0160  -38.2811   24.1445 H   0  0  0  0  0  0
  -31.3194  -19.8488   21.8570 H   0  0  0  0  0  0
  -29.6602  -19.9411   22.3572 H   0  0  0  0  0  0
  -29.3027  -20.9209   18.6255 H   0  0  0  0  0  0
  -27.6165  -21.0271   19.0055 H   0  0  0  0  0  0
  -28.1792  -21.9151   21.3201 H   0  0  0  0  0  0
  -30.6523  -18.9742   19.6354 H   0  0  0  0  0  0
  -32.9084  -23.1614   22.2753 H   0  0  0  0  0  0
  -32.7310  -22.1588   20.8480 H   0  0  0  0  0  0
  -32.7913  -21.4146   22.4469 H   0  0  0  0  0  0
  -30.8875  -22.9982   24.0911 H   0  0  0  0  0  0
  -30.5843  -21.2956   23.8667 H   0  0  0  0  0  0
  -29.3156  -22.4734   23.5265 H   0  0  0  0  0  0
  -27.8398  -23.9963   22.5629 H   0  0  0  0  0  0
  -27.6238  -25.7322   22.5018 H   0  0  0  0  0  0
  -29.2439  -25.0626   22.3875 H   0  0  0  0  0  0
  -28.5301  -23.4749   18.9155 H   0  0  0  0  0  0
  -29.9217  -23.8825   19.7828 H   0  0  0  0  0  0
  -29.6064  -17.4506   22.0944 H   0  0  0  0  0  0
  -31.1877  -17.3483   21.4295 H   0  0  0  0  0  0
  -30.6884  -23.4406   21.6910 H   0  0  0  0  0  0
  -27.0132  -24.6037   20.3874 H   0  0  0  0  0  0
  -28.8052  -15.7689   20.6614 H   0  0  0  0  0  0
  -28.3701  -18.7955   19.1544 H   0  0  0  0  0  0
  -27.9186  -19.2717   20.6403 H   0  0  0  0  0  0
  1 25  1  0  0  0
  1 30  2  0  0  0
  1 83  1  0  0  0
  2  3  1  0  0  0
  2 25  1  0  0  0
  2 85  1  0  0  0
  2 86  1  0  0  0
  3  4  1  0  0  0
  3 87  1  0  0  0
  3 88  1  0  0  0
  4  5  1  0  0  0
  4 89  1  0  0  0
  4 90  1  0  0  0
  5  6  1  0  0  0
  5 26  1  0  0  0
  5 91  1  0  0  0
  6 25  1  0  0  0
  6 92  1  0  0  0
  6 93  1  0  0  0
  7  8  2  0  0  0
  7 26  1  0  0  0
  7 29  1  0  0  0
  8  9  1  0  0  0
  8 22  1  0  0  0
  9 10  1  0  0  0
  9 27  2  0  0  0
 10 11  2  0  0  0
 10 15  1  0  0  0
 11 12  1  0  0  0
 11 94  1  0  0  0
 12 13  2  0  0  0
 12 95  1  0  0  0
 13 14  1  0  0  0
 13 31  1  0  0  0
 14 15  2  0  0  0
 14 96  1  0  0  0
 15 97  1  0  0  0
 16 17  2  0  0  0
 16 21  1  0  0  0
 16 31  1  0  0  0
 17 18  1  0  0  0
 17 98  1  0  0  0
 18 19  2  0  0  0
 18 99  1  0  0  0
 19 20  1  0  0  0
 19 24  1  0  0  0
 20 21  2  0  0  0
 20100  1  0  0  0
 21 23  1  0  0  0
 22 28  1  0  0  0
 22 32  2  0  0  0
 26 27  1  0  0  0
 28101  1  0  0  0
 28102  1  0  0  0
 29103  1  0  0  0
 29104  1  0  0  0
 33 34  1  0  0  0
 33 66  1  0  0  0
 33 70  2  0  0  0
 34 36  1  0  0  0
 34 59  1  0  0  0
 34105  1  0  0  0
 35 44  2  0  0  0
 35 45  1  0  0  0
 35 68  1  0  0  0
 36 56  1  0  0  0
 36106  1  0  0  0
 37 39  1  0  0  0
 37 47  1  0  0  0
 37 66  1  0  0  0
 37107  1  0  0  0
 38 43  2  0  0  0
 38 46  1  0  0  0
 38 47  1  0  0  0
 39 64  1  0  0  0
 39 67  2  0  0  0
 40 52  1  0  0  0
 40 53  2  0  0  0
 40 58  1  0  0  0
 41108  1  0  0  0
 41109  1  0  0  0
 41110  1  0  0  0
 41 48  1  0  0  0
 42 43  1  0  0  0
 42 66  1  0  0  0
 42111  1  0  0  0
 42112  1  0  0  0
 43 44  1  0  0  0
 44113  1  0  0  0
 45 46  2  0  0  0
 45114  1  0  0  0
 46115  1  0  0  0
 47116  1  0  0  0
 47117  1  0  0  0
 48 56  1  0  0  0
 48 65  1  0  0  0
 48118  1  0  0  0
 49 50  1  0  0  0
 49 53  1  0  0  0
 49 64  1  0  0  0
 49119  1  0  0  0
 50 51  1  0  0  0
 50120  1  0  0  0
 50121  1  0  0  0
 51 52  1  0  0  0
 51122  1  0  0  0
 51123  1  0  0  0
 52124  1  0  0  0
 52125  1  0  0  0
 53 54  1  0  0  0
 54 55  2  0  0  0
 54126  1  0  0  0
 55 57  1  0  0  0
 55127  1  0  0  0
 56 69  2  0  0  0
 57 58  2  0  0  0
 57128  1  0  0  0
 58129  1  0  0  0
 59 60  1  0  0  0
 59 61  1  0  0  0
 59 62  1  0  0  0
 60130  1  0  0  0
 60131  1  0  0  0
 60132  1  0  0  0
 61133  1  0  0  0
 61134  1  0  0  0
 61135  1  0  0  0
 62136  1  0  0  0
 62137  1  0  0  0
 62138  1  0  0  0
 63 65  1  0  0  0
 63139  1  0  0  0
 63140  1  0  0  0
 63141  1  0  0  0
 64142  1  0  0  0
 65143  1  0  0  0
 68 81  1  0  0  0
 71 74  1  0  0  0
 71 82  1  0  0  0
 71144  1  0  0  0
 71145  1  0  0  0
 72 73  1  0  0  0
 72 84  1  0  0  0
 72146  1  0  0  0
 72147  1  0  0  0
 73 78  1  0  0  0
 73 82  1  0  0  0
 73148  1  0  0  0
 74 79  1  0  0  0
 74 84  1  0  0  0
 74149  1  0  0  0
 75150  1  0  0  0
 75151  1  0  0  0
 75152  1  0  0  0
 75 80  1  0  0  0
 76 80  1  0  0  0
 76153  1  0  0  0
 76154  1  0  0  0
 76155  1  0  0  0
 77156  1  0  0  0
 77157  1  0  0  0
 77158  1  0  0  0
 77 81  1  0  0  0
 78 81  1  0  0  0
 78159  1  0  0  0
 78160  1  0  0  0
 79 83  1  0  0  0
 79161  1  0  0  0
 79162  1  0  0  0
 80 82  1  0  0  0
 80163  1  0  0  0
 81164  1  0  0  0
 83165  1  0  0  0
 84166  1  0  0  0
 84167  1  0  0  0
M  CHG  1  84   1
M  ISO  4   1 100  68 101  81 101  83 100
M  END
> <chiral flag>
0

> <version>
0

> <s_m_source_file>
/data/baiqing/PycharmProjects/Reinvent-master-3.2/result/LINK_invent/BTK/process_docking_weight1_custom_sum_contain_oxygen_bond_distance_aromatic_linkinvent_7_9_3/rearranged_h_0111.sdf

> <i_m_source_file_index>
52

> <r_mmod_Potential_Energy-OPLS-2005>
179.701400756836

> <r_mmod_Stretch_Energy-OPLS-2005>
182.887893676758

> <r_mmod_Bend_Energy-OPLS-2005>
254.906814575195

> <r_mmod_Torsional_Energy-OPLS-2005>
289.472839355469

> <r_mmod_Improper_Torsional_Energy-OPLS-2005>
5.06801414489746

> <r_mmod_Van_der_Waal_Energy-OPLS-2005>
128.598083496094

> <r_mmod_Electrostatic_Energy-OPLS-2005>
-325.648559570312

> <r_mmod_Solvation_Energy-OPLS-2005>
-482.317596435547

> <b_mmod_Minimization_Converged-OPLS-2005>
0

> <r_mmod_RMS_Derivative-OPLS-2005>
3.43585395812988

$$$$
52
                    3D
 Structure written by MMmdl.
169177  0  0  1  0            999 V2000
  -30.6552  -14.6133   20.4955 C   0  0  0  0  0  0
  -30.4329  -12.3772   19.4562 C   0  0  0  0  0  0
  -29.5069  -12.4991   18.2267 C   0  0  0  0  0  0
  -28.0306  -12.3404   18.6405 C   0  0  0  0  0  0
  -27.6542  -13.2172   19.8648 C   0  0  2  0  0  0
  -28.6994  -13.0847   20.9962 C   0  0  0  0  0  0
  -25.2570  -13.8174   20.5694 C   0  0  0  0  0  0
  -24.1837  -13.0450   20.9184 C   0  0  0  0  0  0
  -24.6398  -11.6918   20.8753 C   0  0  0  0  0  0
  -23.9065  -10.4297   21.0413 C   0  0  0  0  0  0
  -24.3616   -9.4206   21.9185 C   0  0  0  0  0  0
  -23.6287   -8.2244   22.0756 C   0  0  0  0  0  0
  -22.4273   -8.0282   21.3540 C   0  0  0  0  0  0
  -21.9905   -9.0258   20.4644 C   0  0  0  0  0  0
  -22.7237  -10.2140   20.3055 C   0  0  0  0  0  0
  -21.6852   -6.0730   22.5277 C   0  0  0  0  0  0
  -21.4012   -6.5635   23.8206 C   0  0  0  0  0  0
  -21.3660   -5.6793   24.9168 C   0  0  0  0  0  0
  -21.6049   -4.3054   24.7222 C   0  0  0  0  0  0
  -21.8820   -3.8144   23.4342 C   0  0  0  0  0  0
  -21.9194   -4.6958   22.3397 C   0  0  0  0  0  0
  -22.7860  -13.5245   21.1855 C   0  0  0  0  0  0
  -22.1665   -4.2151   21.0972 F   0  0  0  0  0  0
  -21.5629   -3.4537   25.7729 F   0  0  0  0  0  0
  -30.0172  -13.4050   20.4286 N   0  0  0  0  0  0
  -26.3005  -12.9363   20.3340 N   0  0  0  0  0  0
  -25.9328  -11.6518   20.5772 N   0  0  0  0  0  0
  -22.0506  -12.8228   22.0409 N   0  0  0  0  0  0
  -25.4286  -15.1888   20.4072 N   0  0  0  0  0  0
  -31.8166  -14.7552   20.1079 O   0  0  0  0  0  0
  -21.6643   -6.8876   21.4240 O   0  0  0  0  0  0
  -22.3544  -14.5559   20.6710 O   0  0  0  0  0  0
  -24.6210  -31.8611   23.2052 C   0  0  0  0  0  0
  -25.9064  -32.4792   23.8378 C   0  0  1  0  0  0
  -27.2276  -27.3433   20.1167 C   0  0  0  0  0  0
  -25.5914  -33.8598   24.2300 N   0  0  0  0  0  0
  -23.4155  -30.4803   21.5474 C   0  0  2  0  0  0
  -24.8652  -28.9403   20.1141 C   0  0  0  0  0  0
  -22.7457  -29.4579   22.4956 C   0  0  0  0  0  0
  -18.0274  -28.1360   22.8458 C   0  0  0  0  0  0
  -24.1493  -36.7307   23.2633 C   0  0  0  0  0  0
  -25.9525  -30.7978   21.3757 C   0  0  0  0  0  0
  -26.0306  -29.4263   20.7191 C   0  0  0  0  0  0
  -27.2151  -28.6370   20.7135 C   0  0  0  0  0  0
  -26.0445  -26.9065   19.4790 C   0  0  0  0  0  0
  -24.8708  -27.6840   19.4885 C   0  0  0  0  0  0
  -23.6326  -29.8161   20.1622 C   0  0  0  0  0  0
  -25.4118  -36.3089   24.0319 C   0  0  1  0  0  0
  -20.5864  -28.3651   23.1291 C   0  0  2  0  0  0
  -20.6771  -26.9378   22.5406 C   0  0  0  0  0  0
  -19.5763  -26.6360   21.5185 C   0  0  0  0  0  0
  -18.1935  -26.7904   22.1588 C   0  0  0  0  0  0
  -19.1526  -28.8818   23.2868 C   0  0  0  0  0  0
  -18.9452  -30.1424   23.8879 C   0  0  0  0  0  0
  -17.6460  -30.6570   24.0537 C   0  0  0  0  0  0
  -25.9049  -34.9454   23.5101 C   0  0  0  0  0  0
  -16.5344  -29.9069   23.6317 C   0  0  0  0  0  0
  -16.7257  -28.6481   23.0337 C   0  0  0  0  0  0
  -26.4478  -31.6604   25.0732 C   0  0  0  0  0  0
  -25.3737  -31.3721   26.1476 C   0  0  0  0  0  0
  -27.0320  -30.3035   24.6162 C   0  0  0  0  0  0
  -27.6031  -32.4349   25.7498 C   0  0  0  0  0  0
  -27.5584  -37.1806   24.8460 C   0  0  0  0  0  0
  -21.4170  -29.3014   22.3705 N   0  0  0  0  0  0
  -26.4301  -37.3772   23.9399 N   0  0  0  0  0  0
  -24.6809  -31.0624   22.1010 N   0  0  0  0  0  0
  -23.4177  -28.8100   23.3024 O   0  0  0  0  0  0
  -28.3638  -26.5302   20.1309 O   0  0  0  0  0  0
  -26.5600  -34.8894   22.4656 O   0  0  0  0  0  0
  -23.5382  -32.1408   23.7382 O   0  0  0  0  0  0
  -30.3769  -21.7701   19.9953 C   0  0  0  0  0  0
  -30.3524  -20.3612   20.2198 C   0  0  0  0  0  0
  -28.0650  -21.9365   20.6360 C   0  0  0  0  0  0
  -29.2321  -22.5946   20.1818 C   0  0  0  0  0  0
  -29.1750  -19.7032   20.6556 C   0  0  0  0  0  0
  -28.0391  -20.5311   20.8829 C   0  0  0  0  0  0
  -29.2516  -24.2724   18.2853 C   0  0  0  0  0  0
  -26.1637  -19.8682   25.0160 C   0  0  0  0  0  0
  -25.6277  -18.1038   23.2805 C   0  0  0  0  0  0
  -29.0643  -18.1603   20.9255 C   0  0  0  0  0  0
  -30.2153  -17.1459   20.5455 C   0  0  0  0  0  0
  -28.2002  -25.0966   20.4443 C   0  0  0  0  0  0
  -26.3647  -20.4306   22.5505 C   0  0  0  0  0  0
  -29.2756  -24.1232   19.8150 C   0  0  1  0  0  0
  -26.4939  -19.3287   23.6174 C   0  0  0  0  0  0
  -29.8849  -15.7001   20.7924 N   0  0  0  0  0  0
  -26.8815  -19.9383   21.3170 O   0  0  0  0  0  0
  -31.4762  -12.4843   19.1543 H   0  0  0  0  0  0
  -30.3540  -11.3856   19.9031 H   0  0  0  0  0  0
  -29.7683  -11.7447   17.4840 H   0  0  0  0  0  0
  -29.6522  -13.4674   17.7441 H   0  0  0  0  0  0
  -27.8700  -11.2875   18.8801 H   0  0  0  0  0  0
  -27.3747  -12.5627   17.7986 H   0  0  0  0  0  0
  -27.6709  -14.2504   19.5173 H   0  0  0  0  0  0
  -28.7031  -12.0726   21.4034 H   0  0  0  0  0  0
  -28.4523  -13.7428   21.8304 H   0  0  0  0  0  0
  -25.2759   -9.5691   22.4755 H   0  0  0  0  0  0
  -24.0003   -7.4640   22.7473 H   0  0  0  0  0  0
  -21.0835   -8.8771   19.8948 H   0  0  0  0  0  0
  -22.3690  -10.9675   19.6164 H   0  0  0  0  0  0
  -21.2004   -7.6144   23.9709 H   0  0  0  0  0  0
  -21.1485   -6.0518   25.9071 H   0  0  0  0  0  0
  -22.0602   -2.7610   23.2837 H   0  0  0  0  0  0
  -22.4126  -11.9882   22.4773 H   0  0  0  0  0  0
  -21.1124  -13.1261   22.2628 H   0  0  0  0  0  0
  -24.6592  -15.8415   20.5012 H   0  0  0  0  0  0
  -26.2729  -15.6231   20.0606 H   0  0  0  0  0  0
  -26.7116  -32.5457   23.1123 H   0  0  0  0  0  0
  -25.0099  -33.9785   25.0462 H   0  0  0  0  0  0
  -22.7066  -31.2979   21.4039 H   0  0  0  0  0  0
  -23.3749  -35.9646   23.3310 H   0  0  0  0  0  0
  -24.3590  -36.8929   22.2049 H   0  0  0  0  0  0
  -23.7258  -37.6512   23.6665 H   0  0  0  0  0  0
  -26.0806  -31.5624   20.6091 H   0  0  0  0  0  0
  -26.8327  -30.8490   22.0044 H   0  0  0  0  0  0
  -28.1114  -29.0006   21.1957 H   0  0  0  0  0  0
  -26.0097  -25.9589   18.9611 H   0  0  0  0  0  0
  -23.9776  -27.3092   19.0068 H   0  0  0  0  0  0
  -23.7534  -30.5923   19.4061 H   0  0  0  0  0  0
  -22.7558  -29.2433   19.8565 H   0  0  0  0  0  0
  -25.1305  -36.1953   25.0814 H   0  0  0  0  0  0
  -20.9925  -28.3206   24.1425 H   0  0  0  0  0  0
  -20.5662  -26.2239   23.3590 H   0  0  0  0  0  0
  -21.6649  -26.7436   22.1196 H   0  0  0  0  0  0
  -19.6934  -25.6265   21.1231 H   0  0  0  0  0  0
  -19.6728  -27.3150   20.6703 H   0  0  0  0  0  0
  -17.4207  -26.6612   21.3994 H   0  0  0  0  0  0
  -18.0362  -26.0050   22.8997 H   0  0  0  0  0  0
  -19.7931  -30.7229   24.2263 H   0  0  0  0  0  0
  -17.5022  -31.6260   24.5139 H   0  0  0  0  0  0
  -15.5348  -30.2973   23.7678 H   0  0  0  0  0  0
  -15.8640  -28.0815   22.7075 H   0  0  0  0  0  0
  -24.5907  -30.7074   25.7816 H   0  0  0  0  0  0
  -24.8929  -32.2879   26.4919 H   0  0  0  0  0  0
  -25.8079  -30.8891   27.0236 H   0  0  0  0  0  0
  -26.2881  -29.6795   24.1192 H   0  0  0  0  0  0
  -27.4041  -29.7285   25.4651 H   0  0  0  0  0  0
  -27.8743  -30.4337   23.9362 H   0  0  0  0  0  0
  -27.2639  -33.3650   26.2075 H   0  0  0  0  0  0
  -28.3839  -32.6919   25.0333 H   0  0  0  0  0  0
  -28.0706  -31.8488   26.5428 H   0  0  0  0  0  0
  -28.2582  -38.0116   24.7510 H   0  0  0  0  0  0
  -28.1098  -36.2641   24.6295 H   0  0  0  0  0  0
  -27.2296  -37.1471   25.8859 H   0  0  0  0  0  0
  -20.9343  -29.8775   21.6952 H   0  0  0  0  0  0
  -26.0186  -38.2841   24.1420 H   0  0  0  0  0  0
  -31.2970  -22.2183   19.6433 H   0  0  0  0  0  0
  -31.2515  -19.7864   20.0452 H   0  0  0  0  0  0
  -27.1597  -22.5060   20.7819 H   0  0  0  0  0  0
  -30.0666  -23.7184   17.8170 H   0  0  0  0  0  0
  -29.3519  -25.3175   17.9884 H   0  0  0  0  0  0
  -28.3122  -23.9036   17.8721 H   0  0  0  0  0  0
  -26.2840  -19.0956   25.7763 H   0  0  0  0  0  0
  -25.1375  -20.2320   25.0673 H   0  0  0  0  0  0
  -26.8203  -20.6966   25.2860 H   0  0  0  0  0  0
  -25.7782  -17.2986   24.0003 H   0  0  0  0  0  0
  -25.8684  -17.7047   22.2946 H   0  0  0  0  0  0
  -24.5678  -18.3580   23.2843 H   0  0  0  0  0  0
  -28.1500  -17.8295   20.4315 H   0  0  0  0  0  0
  -28.8698  -18.0494   21.9911 H   0  0  0  0  0  0
  -31.1243  -17.4013   21.0928 H   0  0  0  0  0  0
  -30.4495  -17.2567   19.4853 H   0  0  0  0  0  0
  -27.2166  -24.7211   20.1708 H   0  0  0  0  0  0
  -28.2423  -25.0076   21.5304 H   0  0  0  0  0  0
  -26.8839  -21.3249   22.8990 H   0  0  0  0  0  0
  -25.3218  -20.7171   22.4095 H   0  0  0  0  0  0
  -30.2481  -24.4813   20.1568 H   0  0  0  0  0  0
  -27.5356  -19.0082   23.6372 H   0  0  0  0  0  0
  -28.9425  -15.4934   21.0869 H   0  0  0  0  0  0
  1 25  1  0  0  0
  1 30  2  0  0  0
  1 86  1  0  0  0
  2  3  1  0  0  0
  2 25  1  0  0  0
  2 88  1  0  0  0
  2 89  1  0  0  0
  3  4  1  0  0  0
  3 90  1  0  0  0
  3 91  1  0  0  0
  4  5  1  0  0  0
  4 92  1  0  0  0
  4 93  1  0  0  0
  5  6  1  0  0  0
  5 26  1  0  0  0
  5 94  1  0  0  0
  6 25  1  0  0  0
  6 95  1  0  0  0
  6 96  1  0  0  0
  7  8  2  0  0  0
  7 26  1  0  0  0
  7 29  1  0  0  0
  8  9  1  0  0  0
  8 22  1  0  0  0
  9 10  1  0  0  0
  9 27  2  0  0  0
 10 11  2  0  0  0
 10 15  1  0  0  0
 11 12  1  0  0  0
 11 97  1  0  0  0
 12 13  2  0  0  0
 12 98  1  0  0  0
 13 14  1  0  0  0
 13 31  1  0  0  0
 14 15  2  0  0  0
 14 99  1  0  0  0
 15100  1  0  0  0
 16 17  2  0  0  0
 16 21  1  0  0  0
 16 31  1  0  0  0
 17 18  1  0  0  0
 17101  1  0  0  0
 18 19  2  0  0  0
 18102  1  0  0  0
 19 20  1  0  0  0
 19 24  1  0  0  0
 20 21  2  0  0  0
 20103  1  0  0  0
 21 23  1  0  0  0
 22 28  1  0  0  0
 22 32  2  0  0  0
 26 27  1  0  0  0
 28104  1  0  0  0
 28105  1  0  0  0
 29106  1  0  0  0
 29107  1  0  0  0
 33 34  1  0  0  0
 33 66  1  0  0  0
 33 70  2  0  0  0
 34 36  1  0  0  0
 34 59  1  0  0  0
 34108  1  0  0  0
 35 44  2  0  0  0
 35 45  1  0  0  0
 35 68  1  0  0  0
 36 56  1  0  0  0
 36109  1  0  0  0
 37 39  1  0  0  0
 37 47  1  0  0  0
 37 66  1  0  0  0
 37110  1  0  0  0
 38 43  2  0  0  0
 38 46  1  0  0  0
 38 47  1  0  0  0
 39 64  1  0  0  0
 39 67  2  0  0  0
 40 52  1  0  0  0
 40 53  2  0  0  0
 40 58  1  0  0  0
 41111  1  0  0  0
 41112  1  0  0  0
 41113  1  0  0  0
 41 48  1  0  0  0
 42 43  1  0  0  0
 42 66  1  0  0  0
 42114  1  0  0  0
 42115  1  0  0  0
 43 44  1  0  0  0
 44116  1  0  0  0
 45 46  2  0  0  0
 45117  1  0  0  0
 46118  1  0  0  0
 47119  1  0  0  0
 47120  1  0  0  0
 48 56  1  0  0  0
 48 65  1  0  0  0
 48121  1  0  0  0
 49 50  1  0  0  0
 49 53  1  0  0  0
 49 64  1  0  0  0
 49122  1  0  0  0
 50 51  1  0  0  0
 50123  1  0  0  0
 50124  1  0  0  0
 51 52  1  0  0  0
 51125  1  0  0  0
 51126  1  0  0  0
 52127  1  0  0  0
 52128  1  0  0  0
 53 54  1  0  0  0
 54 55  2  0  0  0
 54129  1  0  0  0
 55 57  1  0  0  0
 55130  1  0  0  0
 56 69  2  0  0  0
 57 58  2  0  0  0
 57131  1  0  0  0
 58132  1  0  0  0
 59 60  1  0  0  0
 59 61  1  0  0  0
 59 62  1  0  0  0
 60133  1  0  0  0
 60134  1  0  0  0
 60135  1  0  0  0
 61136  1  0  0  0
 61137  1  0  0  0
 61138  1  0  0  0
 62139  1  0  0  0
 62140  1  0  0  0
 62141  1  0  0  0
 63 65  1  0  0  0
 63142  1  0  0  0
 63143  1  0  0  0
 63144  1  0  0  0
 64145  1  0  0  0
 65146  1  0  0  0
 68 82  1  0  0  0
 71 72  2  0  0  0
 71 74  1  0  0  0
 71147  1  0  0  0
 72 75  1  0  0  0
 72148  1  0  0  0
 73 74  2  0  0  0
 73 76  1  0  0  0
 73149  1  0  0  0
 74 84  1  0  0  0
 75 76  2  0  0  0
 75 80  1  0  0  0
 76 87  1  0  0  0
 77150  1  0  0  0
 77151  1  0  0  0
 77152  1  0  0  0
 77 84  1  0  0  0
 78153  1  0  0  0
 78154  1  0  0  0
 78155  1  0  0  0
 78 85  1  0  0  0
 79 85  1  0  0  0
 79156  1  0  0  0
 79157  1  0  0  0
 79158  1  0  0  0
 80 81  1  0  0  0
 80159  1  0  0  0
 80160  1  0  0  0
 81 86  1  0  0  0
 81161  1  0  0  0
 81162  1  0  0  0
 82 84  1  0  0  0
 82163  1  0  0  0
 82164  1  0  0  0
 83 85  1  0  0  0
 83 87  1  0  0  0
 83165  1  0  0  0
 83166  1  0  0  0
 84167  1  0  0  0
 85168  1  0  0  0
 86169  1  0  0  0
M  ISO  4   1 100  68 101  82 101  86 100
M  END
> <chiral flag>
0

> <version>
0

> <s_m_source_file>
/data/baiqing/PycharmProjects/Reinvent-master-3.2/result/LINK_invent/BTK/process_docking_weight1_custom_sum_contain_oxygen_bond_distance_aromatic_linkinvent_7_9_3/rearranged_h_0111.sdf

> <i_m_source_file_index>
53

> <r_mmod_Potential_Energy-OPLS-2005>
21.4077396392822

> <r_mmod_Stretch_Energy-OPLS-2005>
69.2673721313477

> <r_mmod_Bend_Energy-OPLS-2005>
126.272727966309

> <r_mmod_Torsional_Energy-OPLS-2005>
239.251983642578

> <r_mmod_Improper_Torsional_Energy-OPLS-2005>
5.49508142471313

> <r_mmod_Van_der_Waal_Energy-OPLS-2005>
136.560821533203

> <r_mmod_Electrostatic_Energy-OPLS-2005>
-392.527282714844

> <r_mmod_Solvation_Energy-OPLS-2005>
-201.858459472656

> <b_mmod_Minimization_Converged-OPLS-2005>
0

> <r_mmod_RMS_Derivative-OPLS-2005>
2.12826538085938

$$$$
53
                    3D
 Structure written by MMmdl.
177185  0  0  1  0            999 V2000
  -30.6718  -14.4178   20.5680 C   0  0  0  0  0  0
  -30.4233  -12.2551   19.4267 C   0  0  0  0  0  0
  -29.5018  -12.4729   18.2078 C   0  0  0  0  0  0
  -28.0137  -12.3642   18.6147 C   0  0  0  0  0  0
  -27.6625  -13.1875   19.8845 C   0  0  2  0  0  0
  -28.6994  -12.9295   21.0027 C   0  0  0  0  0  0
  -25.2605  -13.8095   20.5681 C   0  0  0  0  0  0
  -24.1831  -13.0401   20.9173 C   0  0  0  0  0  0
  -24.6354  -11.6872   20.8727 C   0  0  0  0  0  0
  -23.9013  -10.4281   21.0428 C   0  0  0  0  0  0
  -24.3564   -9.4204   21.9200 C   0  0  0  0  0  0
  -23.6294   -8.2210   22.0732 C   0  0  0  0  0  0
  -22.4264   -8.0254   21.3534 C   0  0  0  0  0  0
  -21.9893   -9.0215   20.4621 C   0  0  0  0  0  0
  -22.7190  -10.2125   20.3070 C   0  0  0  0  0  0
  -21.6821   -6.0753   22.5313 C   0  0  0  0  0  0
  -21.3982   -6.5658   23.8247 C   0  0  0  0  0  0
  -21.3669   -5.6799   24.9197 C   0  0  0  0  0  0
  -21.6070   -4.3068   24.7223 C   0  0  0  0  0  0
  -21.8816   -3.8159   23.4340 C   0  0  0  0  0  0
  -21.9162   -4.6985   22.3404 C   0  0  0  0  0  0
  -22.7875  -13.5220   21.1877 C   0  0  0  0  0  0
  -22.1620   -4.2188   21.0978 F   0  0  0  0  0  0
  -21.5650   -3.4548   25.7731 F   0  0  0  0  0  0
  -30.0363  -13.2253   20.4594 N   0  0  0  0  0  0
  -26.2999  -12.9219   20.3386 N   0  0  0  0  0  0
  -25.9274  -11.6396   20.5781 N   0  0  0  0  0  0
  -22.0491  -12.8206   22.0417 N   0  0  0  0  0  0
  -25.4350  -15.1812   20.4119 N   0  0  0  0  0  0
  -31.8011  -14.6395   20.1187 O   0  0  0  0  0  0
  -21.6581   -6.8899   21.4274 O   0  0  0  0  0  0
  -22.3582  -14.5528   20.6746 O   0  0  0  0  0  0
  -24.6131  -31.8683   23.2178 C   0  0  0  0  0  0
  -25.9040  -32.4830   23.8459 C   0  0  1  0  0  0
  -27.2336  -27.4682   20.0762 C   0  0  0  0  0  0
  -25.5911  -33.8631   24.2372 N   0  0  0  0  0  0
  -23.4005  -30.4944   21.5550 C   0  0  2  0  0  0
  -24.8476  -28.9695   20.1150 C   0  0  0  0  0  0
  -22.7396  -29.4649   22.4995 C   0  0  0  0  0  0
  -18.0269  -28.1350   22.8489 C   0  0  0  0  0  0
  -24.1490  -36.7306   23.2637 C   0  0  0  0  0  0
  -25.9281  -30.8410   21.3713 C   0  0  0  0  0  0
  -26.0054  -29.4800   20.7146 C   0  0  0  0  0  0
  -27.1995  -28.7267   20.7124 C   0  0  0  0  0  0
  -26.0591  -26.9631   19.4817 C   0  0  0  0  0  0
  -24.8644  -27.7035   19.5052 C   0  0  0  0  0  0
  -23.6100  -29.8333   20.1651 C   0  0  0  0  0  0
  -25.4110  -36.3110   24.0338 C   0  0  1  0  0  0
  -20.5857  -28.3624   23.1314 C   0  0  2  0  0  0
  -20.6761  -26.9373   22.5409 C   0  0  0  0  0  0
  -19.5742  -26.6363   21.5209 C   0  0  0  0  0  0
  -18.1909  -26.7905   22.1605 C   0  0  0  0  0  0
  -19.1514  -28.8813   23.2892 C   0  0  0  0  0  0
  -18.9450  -30.1415   23.8909 C   0  0  0  0  0  0
  -17.6445  -30.6568   24.0551 C   0  0  0  0  0  0
  -25.9025  -34.9468   23.5144 C   0  0  0  0  0  0
  -16.5337  -29.9068   23.6313 C   0  0  0  0  0  0
  -16.7251  -28.6475   23.0361 C   0  0  0  0  0  0
  -26.4498  -31.6602   25.0764 C   0  0  0  0  0  0
  -25.3792  -31.3695   26.1528 C   0  0  0  0  0  0
  -27.0336  -30.3062   24.6102 C   0  0  0  0  0  0
  -27.6082  -32.4336   25.7508 C   0  0  0  0  0  0
  -27.5580  -37.1808   24.8462 C   0  0  0  0  0  0
  -21.4134  -29.3004   22.3734 N   0  0  0  0  0  0
  -26.4298  -37.3792   23.9402 N   0  0  0  0  0  0
  -24.6638  -31.0821   22.1063 N   0  0  0  0  0  0
  -23.4171  -28.8172   23.3017 O   0  0  0  0  0  0
  -28.3825  -26.7144   20.0777 O   0  0  0  0  0  0
  -26.5561  -34.8903   22.4692 O   0  0  0  0  0  0
  -23.5325  -32.1407   23.7591 O   0  0  0  0  0  0
  -28.5835  -18.4912   19.4906 C   0  0  0  0  0  0
  -29.3520  -17.3681   19.5419 C   0  0  0  0  0  0
  -28.5980  -24.4319   16.8767 C   0  0  0  0  0  0
  -28.1487  -23.7806   19.0723 C   0  0  0  0  0  0
  -27.6522  -23.2305   16.7570 C   0  0  1  0  0  0
  -27.4279  -22.7443   18.2013 C   0  0  1  0  0  0
  -28.2766  -19.3583   20.7170 C   0  0  0  0  0  0
  -29.5702  -16.4928   18.3080 C   0  0  0  0  0  0
  -26.3524  -23.5836   16.0212 C   0  0  0  0  0  0
  -30.1323  -27.9566   19.0514 C   0  0  0  0  0  0
  -27.9369  -18.9245   18.1598 C   0  0  0  0  0  0
  -30.0675  -16.8386   20.8007 C   0  0  0  0  0  0
  -29.9469  -25.4468   18.6990 C   0  0  0  0  0  0
  -27.1809  -20.2659   18.0788 C   0  0  0  0  0  0
  -29.1628  -26.7758   18.8885 C   0  0  1  0  0  0
  -29.2014  -24.2808   18.1980 N   0  0  0  0  0  0
  -29.8756  -15.4037   21.0033 N   0  0  0  0  0  0
  -28.0430  -21.4229   18.3995 N   0  3  0  0  0  0
  -31.4728  -12.3490   19.1378 H   0  0  0  0  0  0
  -30.3073  -11.2400   19.8114 H   0  0  0  0  0  0
  -29.7262  -11.7337   17.4371 H   0  0  0  0  0  0
  -29.7097  -13.4434   17.7584 H   0  0  0  0  0  0
  -27.8042  -11.3096   18.7995 H   0  0  0  0  0  0
  -27.3658  -12.6530   17.7868 H   0  0  0  0  0  0
  -27.7075  -14.2388   19.6102 H   0  0  0  0  0  0
  -28.6586  -11.8873   21.3225 H   0  0  0  0  0  0
  -28.4681  -13.5097   21.8975 H   0  0  0  0  0  0
  -25.2701   -9.5696   22.4785 H   0  0  0  0  0  0
  -24.0064   -7.4575   22.7406 H   0  0  0  0  0  0
  -21.0846   -8.8693   19.8891 H   0  0  0  0  0  0
  -22.3635  -10.9654   19.6184 H   0  0  0  0  0  0
  -21.1951   -7.6165   23.9761 H   0  0  0  0  0  0
  -21.1508   -6.0524   25.9116 H   0  0  0  0  0  0
  -22.0584   -2.7623   23.2820 H   0  0  0  0  0  0
  -22.4065  -11.9875   22.4820 H   0  0  0  0  0  0
  -21.1118  -13.1281   22.2602 H   0  0  0  0  0  0
  -24.6693  -15.8384   20.5213 H   0  0  0  0  0  0
  -26.2913  -15.6207   20.1013 H   0  0  0  0  0  0
  -26.7124  -32.5574   23.1248 H   0  0  0  0  0  0
  -25.0199  -33.9834   25.0600 H   0  0  0  0  0  0
  -22.6856  -31.3079   21.4203 H   0  0  0  0  0  0
  -23.3752  -35.9640   23.3310 H   0  0  0  0  0  0
  -24.3596  -36.8898   22.2049 H   0  0  0  0  0  0
  -23.7223  -37.6513   23.6633 H   0  0  0  0  0  0
  -26.0425  -31.6152   20.6106 H   0  0  0  0  0  0
  -26.8145  -30.8910   21.9909 H   0  0  0  0  0  0
  -28.0897  -29.1088   21.1941 H   0  0  0  0  0  0
  -26.0476  -26.0033   18.9918 H   0  0  0  0  0  0
  -23.9695  -27.2974   19.0539 H   0  0  0  0  0  0
  -23.7246  -30.6107   19.4073 H   0  0  0  0  0  0
  -22.7346  -29.2559   19.8639 H   0  0  0  0  0  0
  -25.1288  -36.2004   25.0833 H   0  0  0  0  0  0
  -20.9937  -28.3181   24.1433 H   0  0  0  0  0  0
  -20.5658  -26.2231   23.3571 H   0  0  0  0  0  0
  -21.6635  -26.7428   22.1210 H   0  0  0  0  0  0
  -19.6891  -25.6279   21.1223 H   0  0  0  0  0  0
  -19.6692  -27.3195   20.6757 H   0  0  0  0  0  0
  -17.4190  -26.6661   21.3995 H   0  0  0  0  0  0
  -18.0308  -26.0047   22.8998 H   0  0  0  0  0  0
  -19.7927  -30.7215   24.2307 H   0  0  0  0  0  0
  -17.5004  -31.6266   24.5134 H   0  0  0  0  0  0
  -15.5334  -30.2974   23.7625 H   0  0  0  0  0  0
  -15.8648  -28.0777   22.7103 H   0  0  0  0  0  0
  -24.5972  -30.7023   25.7901 H   0  0  0  0  0  0
  -24.8985  -32.2846   26.5002 H   0  0  0  0  0  0
  -25.8185  -30.8880   27.0268 H   0  0  0  0  0  0
  -26.2874  -29.6805   24.1203 H   0  0  0  0  0  0
  -27.4191  -29.7315   25.4528 H   0  0  0  0  0  0
  -27.8659  -30.4423   23.9194 H   0  0  0  0  0  0
  -27.2713  -33.3638   26.2100 H   0  0  0  0  0  0
  -28.3876  -32.6895   25.0319 H   0  0  0  0  0  0
  -28.0755  -31.8452   26.5411 H   0  0  0  0  0  0
  -28.2618  -38.0089   24.7525 H   0  0  0  0  0  0
  -28.1064  -36.2632   24.6302 H   0  0  0  0  0  0
  -27.2287  -37.1457   25.8859 H   0  0  0  0  0  0
  -20.9271  -29.8773   21.7012 H   0  0  0  0  0  0
  -26.0184  -38.2860   24.1446 H   0  0  0  0  0  0
  -28.0261  -25.3547   16.7934 H   0  0  0  0  0  0
  -29.3556  -24.4341   16.0901 H   0  0  0  0  0  0
  -28.5351  -23.3680   20.0052 H   0  0  0  0  0  0
  -27.4509  -24.5664   19.3350 H   0  0  0  0  0  0
  -28.1588  -22.4570   16.1759 H   0  0  0  0  0  0
  -26.3700  -22.7078   18.4733 H   0  0  0  0  0  0
  -28.8294  -19.0963   21.6110 H   0  0  0  0  0  0
  -27.2185  -19.2809   20.9652 H   0  0  0  0  0  0
  -28.5154  -20.4074   20.5787 H   0  0  0  0  0  0
  -29.2407  -16.9150   17.3614 H   0  0  0  0  0  0
  -29.0209  -15.5629   18.4170 H   0  0  0  0  0  0
  -30.6244  -16.2467   18.1935 H   0  0  0  0  0  0
  -25.8273  -24.4116   16.5004 H   0  0  0  0  0  0
  -25.6723  -22.7322   15.9896 H   0  0  0  0  0  0
  -26.5640  -23.8743   14.9917 H   0  0  0  0  0  0
  -30.7981  -28.0448   18.1917 H   0  0  0  0  0  0
  -30.7528  -27.8402   19.9412 H   0  0  0  0  0  0
  -29.5959  -28.9033   19.1412 H   0  0  0  0  0  0
  -27.2546  -18.1333   17.8479 H   0  0  0  0  0  0
  -28.7195  -18.9703   17.4006 H   0  0  0  0  0  0
  -29.7352  -17.3066   21.7207 H   0  0  0  0  0  0
  -31.1316  -17.0653   20.7188 H   0  0  0  0  0  0
  -30.4336  -25.1775   19.6378 H   0  0  0  0  0  0
  -30.7605  -25.6243   17.9947 H   0  0  0  0  0  0
  -26.3042  -20.2459   18.7267 H   0  0  0  0  0  0
  -26.7976  -20.3819   17.0626 H   0  0  0  0  0  0
  -28.5375  -26.9825   18.0209 H   0  0  0  0  0  0
  -28.9697  -15.1155   21.3479 H   0  0  0  0  0  0
  -28.2882  -21.3510   19.3732 H   0  0  0  0  0  0
  -28.9015  -21.3993   17.8708 H   0  0  0  0  0  0
  1 25  1  0  0  0
  1 30  2  0  0  0
  1 87  1  0  0  0
  2  3  1  0  0  0
  2 25  1  0  0  0
  2 89  1  0  0  0
  2 90  1  0  0  0
  3  4  1  0  0  0
  3 91  1  0  0  0
  3 92  1  0  0  0
  4  5  1  0  0  0
  4 93  1  0  0  0
  4 94  1  0  0  0
  5  6  1  0  0  0
  5 26  1  0  0  0
  5 95  1  0  0  0
  6 25  1  0  0  0
  6 96  1  0  0  0
  6 97  1  0  0  0
  7  8  2  0  0  0
  7 26  1  0  0  0
  7 29  1  0  0  0
  8  9  1  0  0  0
  8 22  1  0  0  0
  9 10  1  0  0  0
  9 27  2  0  0  0
 10 11  2  0  0  0
 10 15  1  0  0  0
 11 12  1  0  0  0
 11 98  1  0  0  0
 12 13  2  0  0  0
 12 99  1  0  0  0
 13 14  1  0  0  0
 13 31  1  0  0  0
 14 15  2  0  0  0
 14100  1  0  0  0
 15101  1  0  0  0
 16 17  2  0  0  0
 16 21  1  0  0  0
 16 31  1  0  0  0
 17 18  1  0  0  0
 17102  1  0  0  0
 18 19  2  0  0  0
 18103  1  0  0  0
 19 20  1  0  0  0
 19 24  1  0  0  0
 20 21  2  0  0  0
 20104  1  0  0  0
 21 23  1  0  0  0
 22 28  1  0  0  0
 22 32  2  0  0  0
 26 27  1  0  0  0
 28105  1  0  0  0
 28106  1  0  0  0
 29107  1  0  0  0
 29108  1  0  0  0
 33 34  1  0  0  0
 33 66  1  0  0  0
 33 70  2  0  0  0
 34 36  1  0  0  0
 34 59  1  0  0  0
 34109  1  0  0  0
 35 44  2  0  0  0
 35 45  1  0  0  0
 35 68  1  0  0  0
 36 56  1  0  0  0
 36110  1  0  0  0
 37 39  1  0  0  0
 37 47  1  0  0  0
 37 66  1  0  0  0
 37111  1  0  0  0
 38 43  2  0  0  0
 38 46  1  0  0  0
 38 47  1  0  0  0
 39 64  1  0  0  0
 39 67  2  0  0  0
 40 52  1  0  0  0
 40 53  2  0  0  0
 40 58  1  0  0  0
 41112  1  0  0  0
 41113  1  0  0  0
 41114  1  0  0  0
 41 48  1  0  0  0
 42 43  1  0  0  0
 42 66  1  0  0  0
 42115  1  0  0  0
 42116  1  0  0  0
 43 44  1  0  0  0
 44117  1  0  0  0
 45 46  2  0  0  0
 45118  1  0  0  0
 46119  1  0  0  0
 47120  1  0  0  0
 47121  1  0  0  0
 48 56  1  0  0  0
 48 65  1  0  0  0
 48122  1  0  0  0
 49 50  1  0  0  0
 49 53  1  0  0  0
 49 64  1  0  0  0
 49123  1  0  0  0
 50 51  1  0  0  0
 50124  1  0  0  0
 50125  1  0  0  0
 51 52  1  0  0  0
 51126  1  0  0  0
 51127  1  0  0  0
 52128  1  0  0  0
 52129  1  0  0  0
 53 54  1  0  0  0
 54 55  2  0  0  0
 54130  1  0  0  0
 55 57  1  0  0  0
 55131  1  0  0  0
 56 69  2  0  0  0
 57 58  2  0  0  0
 57132  1  0  0  0
 58133  1  0  0  0
 59 60  1  0  0  0
 59 61  1  0  0  0
 59 62  1  0  0  0
 60134  1  0  0  0
 60135  1  0  0  0
 60136  1  0  0  0
 61137  1  0  0  0
 61138  1  0  0  0
 61139  1  0  0  0
 62140  1  0  0  0
 62141  1  0  0  0
 62142  1  0  0  0
 63 65  1  0  0  0
 63143  1  0  0  0
 63144  1  0  0  0
 63145  1  0  0  0
 64146  1  0  0  0
 65147  1  0  0  0
 68 85  1  0  0  0
 71 72  2  0  0  0
 71 77  1  0  0  0
 71 81  1  0  0  0
 72 78  1  0  0  0
 72 82  1  0  0  0
 73 75  1  0  0  0
 73 86  1  0  0  0
 73148  1  0  0  0
 73149  1  0  0  0
 74 76  1  0  0  0
 74 86  1  0  0  0
 74150  1  0  0  0
 74151  1  0  0  0
 75 76  1  0  0  0
 75 79  1  0  0  0
 75152  1  0  0  0
 76 88  1  0  0  0
 76153  1  0  0  0
 77154  1  0  0  0
 77155  1  0  0  0
 77156  1  0  0  0
 78157  1  0  0  0
 78158  1  0  0  0
 78159  1  0  0  0
 79160  1  0  0  0
 79161  1  0  0  0
 79162  1  0  0  0
 80163  1  0  0  0
 80164  1  0  0  0
 80165  1  0  0  0
 80 85  1  0  0  0
 81 84  1  0  0  0
 81166  1  0  0  0
 81167  1  0  0  0
 82 87  1  0  0  0
 82168  1  0  0  0
 82169  1  0  0  0
 83 85  1  0  0  0
 83 86  1  0  0  0
 83170  1  0  0  0
 83171  1  0  0  0
 84 88  1  0  0  0
 84172  1  0  0  0
 84173  1  0  0  0
 85174  1  0  0  0
 87175  1  0  0  0
 88176  1  0  0  0
 88177  1  0  0  0
M  CHG  1  88   1
M  ISO  4   1 100  68 101  85 101  87 100
M  END
> <chiral flag>
0

> <version>
0

> <s_m_source_file>
/data/baiqing/PycharmProjects/Reinvent-master-3.2/result/LINK_invent/BTK/process_docking_weight1_custom_sum_contain_oxygen_bond_distance_aromatic_linkinvent_7_9_3/rearranged_h_0111.sdf

> <i_m_source_file_index>
54

> <r_mmod_Potential_Energy-OPLS-2005>
-123.476043701172

> <r_mmod_Stretch_Energy-OPLS-2005>
36.4627723693848

> <r_mmod_Bend_Energy-OPLS-2005>
133.833648681641

> <r_mmod_Torsional_Energy-OPLS-2005>
307.015319824219

> <r_mmod_Improper_Torsional_Energy-OPLS-2005>
5.65050029754639

> <r_mmod_Van_der_Waal_Energy-OPLS-2005>
148.878540039062

> <r_mmod_Electrostatic_Energy-OPLS-2005>
-332.489318847656

> <r_mmod_Solvation_Energy-OPLS-2005>
-433.112640380859

> <b_mmod_Minimization_Converged-OPLS-2005>
0

> <r_mmod_RMS_Derivative-OPLS-2005>
4.13048982620239

$$$$
54
                    3D
 Structure written by MMmdl.
155162  0  0  1  0            999 V2000
  -30.5629  -14.9217   20.4166 C   0  0  0  0  0  0
  -30.4350  -12.5696   19.4980 C   0  0  0  0  0  0
  -29.5188  -12.5249   18.2541 C   0  0  0  0  0  0
  -28.0510  -12.3172   18.6712 C   0  0  0  0  0  0
  -27.6298  -13.2487   19.8381 C   0  0  2  0  0  0
  -28.6722  -13.2747   20.9761 C   0  0  0  0  0  0
  -25.2461  -13.8220   20.5712 C   0  0  0  0  0  0
  -24.1778  -13.0442   20.9229 C   0  0  0  0  0  0
  -24.6396  -11.6928   20.8757 C   0  0  0  0  0  0
  -23.9081  -10.4296   21.0409 C   0  0  0  0  0  0
  -24.3629   -9.4208   21.9184 C   0  0  0  0  0  0
  -23.6302   -8.2244   22.0752 C   0  0  0  0  0  0
  -22.4283   -8.0282   21.3543 C   0  0  0  0  0  0
  -21.9922   -9.0258   20.4645 C   0  0  0  0  0  0
  -22.7253  -10.2137   20.3056 C   0  0  0  0  0  0
  -21.6856   -6.0739   22.5280 C   0  0  0  0  0  0
  -21.4016   -6.5642   23.8214 C   0  0  0  0  0  0
  -21.3660   -5.6793   24.9174 C   0  0  0  0  0  0
  -21.6044   -4.3056   24.7224 C   0  0  0  0  0  0
  -21.8818   -3.8149   23.4345 C   0  0  0  0  0  0
  -21.9193   -4.6966   22.3402 C   0  0  0  0  0  0
  -22.7797  -13.5210   21.1884 C   0  0  0  0  0  0
  -22.1661   -4.2152   21.0980 F   0  0  0  0  0  0
  -21.5629   -3.4539   25.7737 F   0  0  0  0  0  0
  -29.9512  -13.6720   20.3765 N   0  0  0  0  0  0
  -26.2885  -12.9454   20.3244 N   0  0  0  0  0  0
  -25.9329  -11.6583   20.5743 N   0  0  0  0  0  0
  -22.0448  -12.8195   22.0439 N   0  0  0  0  0  0
  -25.4125  -15.1948   20.4130 N   0  0  0  0  0  0
  -31.7707  -14.9623   20.1624 O   0  0  0  0  0  0
  -21.6642   -6.8882   21.4241 O   0  0  0  0  0  0
  -22.3481  -14.5513   20.6726 O   0  0  0  0  0  0
  -24.6433  -31.8447   23.1895 C   0  0  0  0  0  0
  -25.9209  -32.4697   23.8279 C   0  0  1  0  0  0
  -27.2101  -27.1383   20.1510 C   0  0  0  0  0  0
  -25.5959  -33.8503   24.2195 N   0  0  0  0  0  0
  -23.4462  -30.4658   21.5352 C   0  0  2  0  0  0
  -24.8945  -28.8956   20.1101 C   0  0  0  0  0  0
  -22.7568  -29.4551   22.4860 C   0  0  0  0  0  0
  -18.0306  -28.1397   22.8477 C   0  0  0  0  0  0
  -24.1492  -36.7256   23.2641 C   0  0  0  0  0  0
  -26.0026  -30.7194   21.3884 C   0  0  0  0  0  0
  -26.0725  -29.3313   20.7299 C   0  0  0  0  0  0
  -27.2327  -28.4692   20.7334 C   0  0  0  0  0  0
  -26.0095  -26.8116   19.4811 C   0  0  0  0  0  0
  -24.8759  -27.6494   19.4697 C   0  0  0  0  0  0
  -23.6720  -29.7979   20.1536 C   0  0  0  0  0  0
  -25.4123  -36.3033   24.0315 C   0  0  1  0  0  0
  -20.5918  -28.3721   23.1235 C   0  0  2  0  0  0
  -20.6790  -26.9424   22.5402 C   0  0  0  0  0  0
  -19.5763  -26.6383   21.5211 C   0  0  0  0  0  0
  -18.1945  -26.7935   22.1624 C   0  0  0  0  0  0
  -19.1563  -28.8877   23.2849 C   0  0  0  0  0  0
  -18.9478  -30.1475   23.8873 C   0  0  0  0  0  0
  -17.6475  -30.6592   24.0560 C   0  0  0  0  0  0
  -25.9074  -34.9408   23.5062 C   0  0  0  0  0  0
  -16.5366  -29.9085   23.6336 C   0  0  0  0  0  0
  -16.7290  -28.6505   23.0354 C   0  0  0  0  0  0
  -26.4529  -31.6562   25.0718 C   0  0  0  0  0  0
  -25.3715  -31.3751   26.1413 C   0  0  0  0  0  0
  -27.0393  -30.2956   24.6297 C   0  0  0  0  0  0
  -27.6059  -32.4327   25.7506 C   0  0  0  0  0  0
  -27.5574  -37.1787   24.8466 C   0  0  0  0  0  0
  -21.4259  -29.3049   22.3610 N   0  0  0  0  0  0
  -26.4286  -37.3746   23.9407 N   0  0  0  0  0  0
  -24.7173  -31.0308   22.0928 N   0  0  0  0  0  0
  -23.4214  -28.8093   23.3003 O   0  0  0  0  0  0
  -28.2555  -26.1437   20.2185 O   0  0  0  0  0  0
  -26.5654  -34.8904   22.4638 O   0  0  0  0  0  0
  -23.5554  -32.1324   23.7117 O   0  0  0  0  0  0
  -30.6954  -17.7528   18.8026 C   0  0  0  0  0  0
  -27.2703  -24.5129   21.7629 C   0  0  0  0  0  0
  -29.1581  -18.9628   20.5093 C   0  0  0  0  0  0
  -29.5861  -20.5854   20.2701 C   0  0  0  0  0  0
  -29.0275  -23.3348   20.2520 C   0  0  0  0  0  0
  -30.1816  -17.6419   20.2502 C   0  0  1  0  0  0
  -27.9419  -24.6183   20.3831 C   0  0  2  0  0  0
  -29.8041  -16.1237   20.5113 N   0  0  0  0  0  0
  -28.5964  -21.8130   20.4352 N   0  3  0  0  0  0
  -31.4712  -12.7145   19.1885 H   0  0  0  0  0  0
  -30.4150  -11.6171   20.0302 H   0  0  0  0  0  0
  -29.8340  -11.7285   17.5785 H   0  0  0  0  0  0
  -29.6133  -13.4574   17.6951 H   0  0  0  0  0  0
  -27.9421  -11.2754   18.9752 H   0  0  0  0  0  0
  -27.3888  -12.4550   17.8155 H   0  0  0  0  0  0
  -27.5947  -14.2517   19.4118 H   0  0  0  0  0  0
  -28.7515  -12.3011   21.4618 H   0  0  0  0  0  0
  -28.3781  -13.9852   21.7501 H   0  0  0  0  0  0
  -25.2772   -9.5684   22.4763 H   0  0  0  0  0  0
  -24.0010   -7.4634   22.7471 H   0  0  0  0  0  0
  -21.0853   -8.8780   19.8953 H   0  0  0  0  0  0
  -22.3710  -10.9676   19.6168 H   0  0  0  0  0  0
  -21.2009   -7.6150   23.9718 H   0  0  0  0  0  0
  -21.1483   -6.0522   25.9078 H   0  0  0  0  0  0
  -22.0597   -2.7611   23.2844 H   0  0  0  0  0  0
  -22.4073  -11.9862   22.4832 H   0  0  0  0  0  0
  -21.1061  -13.1207   22.2640 H   0  0  0  0  0  0
  -24.6413  -15.8445   20.5219 H   0  0  0  0  0  0
  -26.2516  -15.6350   20.0586 H   0  0  0  0  0  0
  -26.7276  -32.5304   23.1008 H   0  0  0  0  0  0
  -25.0091  -33.9617   25.0332 H   0  0  0  0  0  0
  -22.7485  -31.2920   21.3825 H   0  0  0  0  0  0
  -23.3756  -35.9586   23.3293 H   0  0  0  0  0  0
  -24.3577  -36.8898   22.2058 H   0  0  0  0  0  0
  -23.7245  -37.6450   23.6684 H   0  0  0  0  0  0
  -26.1575  -31.4739   20.6159 H   0  0  0  0  0  0
  -26.8735  -30.7693   22.0302 H   0  0  0  0  0  0
  -28.1286  -28.7959   21.2423 H   0  0  0  0  0  0
  -25.9072  -25.8705   18.9645 H   0  0  0  0  0  0
  -23.9796  -27.3149   18.9654 H   0  0  0  0  0  0
  -23.8097  -30.5735   19.3994 H   0  0  0  0  0  0
  -22.7865  -29.2414   19.8415 H   0  0  0  0  0  0
  -25.1312  -36.1860   25.0807 H   0  0  0  0  0  0
  -21.0011  -28.3310   24.1356 H   0  0  0  0  0  0
  -20.5682  -26.2334   23.3621 H   0  0  0  0  0  0
  -21.6656  -26.7429   22.1201 H   0  0  0  0  0  0
  -19.6921  -25.6288   21.1255 H   0  0  0  0  0  0
  -19.6699  -27.3180   20.6730 H   0  0  0  0  0  0
  -17.4212  -26.6678   21.4030 H   0  0  0  0  0  0
  -18.0346  -26.0085   22.9029 H   0  0  0  0  0  0
  -19.7954  -30.7300   24.2228 H   0  0  0  0  0  0
  -17.5026  -31.6268   24.5169 H   0  0  0  0  0  0
  -15.5364  -30.2978   23.7674 H   0  0  0  0  0  0
  -15.8692  -28.0816   22.7079 H   0  0  0  0  0  0
  -24.5904  -30.7086   25.7737 H   0  0  0  0  0  0
  -24.8892  -32.2933   26.4777 H   0  0  0  0  0  0
  -25.8001  -30.8969   27.0230 H   0  0  0  0  0  0
  -26.3010  -29.6680   24.1291 H   0  0  0  0  0  0
  -27.3990  -29.7253   25.4872 H   0  0  0  0  0  0
  -27.8926  -30.4189   23.9625 H   0  0  0  0  0  0
  -27.2649  -33.3646   26.2027 H   0  0  0  0  0  0
  -28.3901  -32.6856   25.0358 H   0  0  0  0  0  0
  -28.0692  -31.8489   26.5470 H   0  0  0  0  0  0
  -28.2586  -38.0088   24.7507 H   0  0  0  0  0  0
  -28.1074  -36.2616   24.6300 H   0  0  0  0  0  0
  -27.2289  -37.1443   25.8868 H   0  0  0  0  0  0
  -20.9466  -29.8772   21.6800 H   0  0  0  0  0  0
  -26.0151  -38.2814   24.1409 H   0  0  0  0  0  0
  -31.1184  -18.7372   18.6040 H   0  0  0  0  0  0
  -29.8915  -17.5878   18.0845 H   0  0  0  0  0  0
  -31.4849  -17.0335   18.5871 H   0  0  0  0  0  0
  -26.8866  -23.5104   21.9466 H   0  0  0  0  0  0
  -26.4243  -25.1926   21.8583 H   0  0  0  0  0  0
  -27.9772  -24.7514   22.5573 H   0  0  0  0  0  0
  -28.2693  -18.7876   19.9028 H   0  0  0  0  0  0
  -28.8053  -18.8857   21.5378 H   0  0  0  0  0  0
  -29.9809  -20.6708   19.2582 H   0  0  0  0  0  0
  -30.4367  -20.7901   20.9206 H   0  0  0  0  0  0
  -29.8361  -23.5162   20.9602 H   0  0  0  0  0  0
  -29.4898  -23.4069   19.2676 H   0  0  0  0  0  0
  -31.0412  -17.8126   20.9005 H   0  0  0  0  0  0
  -27.1906  -24.3757   19.6356 H   0  0  0  0  0  0
  -28.8274  -15.9631   20.7100 H   0  0  0  0  0  0
  -28.2049  -21.7315   21.3600 H   0  0  0  0  0  0
  -27.8347  -21.6484   19.7955 H   0  0  0  0  0  0
  1 25  1  0  0  0
  1 30  2  0  0  0
  1 78  1  0  0  0
  2  3  1  0  0  0
  2 25  1  0  0  0
  2 80  1  0  0  0
  2 81  1  0  0  0
  3  4  1  0  0  0
  3 82  1  0  0  0
  3 83  1  0  0  0
  4  5  1  0  0  0
  4 84  1  0  0  0
  4 85  1  0  0  0
  5  6  1  0  0  0
  5 26  1  0  0  0
  5 86  1  0  0  0
  6 25  1  0  0  0
  6 87  1  0  0  0
  6 88  1  0  0  0
  7  8  2  0  0  0
  7 26  1  0  0  0
  7 29  1  0  0  0
  8  9  1  0  0  0
  8 22  1  0  0  0
  9 10  1  0  0  0
  9 27  2  0  0  0
 10 11  2  0  0  0
 10 15  1  0  0  0
 11 12  1  0  0  0
 11 89  1  0  0  0
 12 13  2  0  0  0
 12 90  1  0  0  0
 13 14  1  0  0  0
 13 31  1  0  0  0
 14 15  2  0  0  0
 14 91  1  0  0  0
 15 92  1  0  0  0
 16 17  2  0  0  0
 16 21  1  0  0  0
 16 31  1  0  0  0
 17 18  1  0  0  0
 17 93  1  0  0  0
 18 19  2  0  0  0
 18 94  1  0  0  0
 19 20  1  0  0  0
 19 24  1  0  0  0
 20 21  2  0  0  0
 20 95  1  0  0  0
 21 23  1  0  0  0
 22 28  1  0  0  0
 22 32  2  0  0  0
 26 27  1  0  0  0
 28 96  1  0  0  0
 28 97  1  0  0  0
 29 98  1  0  0  0
 29 99  1  0  0  0
 33 34  1  0  0  0
 33 66  1  0  0  0
 33 70  2  0  0  0
 34 36  1  0  0  0
 34 59  1  0  0  0
 34100  1  0  0  0
 35 44  2  0  0  0
 35 45  1  0  0  0
 35 68  1  0  0  0
 36 56  1  0  0  0
 36101  1  0  0  0
 37 39  1  0  0  0
 37 47  1  0  0  0
 37 66  1  0  0  0
 37102  1  0  0  0
 38 43  2  0  0  0
 38 46  1  0  0  0
 38 47  1  0  0  0
 39 64  1  0  0  0
 39 67  2  0  0  0
 40 52  1  0  0  0
 40 53  2  0  0  0
 40 58  1  0  0  0
 41103  1  0  0  0
 41104  1  0  0  0
 41105  1  0  0  0
 41 48  1  0  0  0
 42 43  1  0  0  0
 42 66  1  0  0  0
 42106  1  0  0  0
 42107  1  0  0  0
 43 44  1  0  0  0
 44108  1  0  0  0
 45 46  2  0  0  0
 45109  1  0  0  0
 46110  1  0  0  0
 47111  1  0  0  0
 47112  1  0  0  0
 48 56  1  0  0  0
 48 65  1  0  0  0
 48113  1  0  0  0
 49 50  1  0  0  0
 49 53  1  0  0  0
 49 64  1  0  0  0
 49114  1  0  0  0
 50 51  1  0  0  0
 50115  1  0  0  0
 50116  1  0  0  0
 51 52  1  0  0  0
 51117  1  0  0  0
 51118  1  0  0  0
 52119  1  0  0  0
 52120  1  0  0  0
 53 54  1  0  0  0
 54 55  2  0  0  0
 54121  1  0  0  0
 55 57  1  0  0  0
 55122  1  0  0  0
 56 69  2  0  0  0
 57 58  2  0  0  0
 57123  1  0  0  0
 58124  1  0  0  0
 59 60  1  0  0  0
 59 61  1  0  0  0
 59 62  1  0  0  0
 60125  1  0  0  0
 60126  1  0  0  0
 60127  1  0  0  0
 61128  1  0  0  0
 61129  1  0  0  0
 61130  1  0  0  0
 62131  1  0  0  0
 62132  1  0  0  0
 62133  1  0  0  0
 63 65  1  0  0  0
 63134  1  0  0  0
 63135  1  0  0  0
 63136  1  0  0  0
 64137  1  0  0  0
 65138  1  0  0  0
 68 77  1  0  0  0
 71139  1  0  0  0
 71140  1  0  0  0
 71141  1  0  0  0
 71 76  1  0  0  0
 72142  1  0  0  0
 72143  1  0  0  0
 72144  1  0  0  0
 72 77  1  0  0  0
 73 74  1  0  0  0
 73 76  1  0  0  0
 73145  1  0  0  0
 73146  1  0  0  0
 74 79  1  0  0  0
 74147  1  0  0  0
 74148  1  0  0  0
 75 77  1  0  0  0
 75 79  1  0  0  0
 75149  1  0  0  0
 75150  1  0  0  0
 76 78  1  0  0  0
 76151  1  0  0  0
 77152  1  0  0  0
 78153  1  0  0  0
 79154  1  0  0  0
 79155  1  0  0  0
M  CHG  1  79   1
M  ISO  4   1 100  68 101  77 101  78 100
M  END
> <chiral flag>
0

> <version>
0

> <s_m_source_file>
/data/baiqing/PycharmProjects/Reinvent-master-3.2/result/LINK_invent/BTK/process_docking_weight1_custom_sum_contain_oxygen_bond_distance_aromatic_linkinvent_7_9_3/rearranged_h_0111.sdf

> <i_m_source_file_index>
55

> <r_mmod_Potential_Energy-OPLS-2005>
332.761596679688

> <r_mmod_Stretch_Energy-OPLS-2005>
267.385345458984

> <r_mmod_Bend_Energy-OPLS-2005>
246.571426391602

> <r_mmod_Torsional_Energy-OPLS-2005>
213.751205444336

> <r_mmod_Improper_Torsional_Energy-OPLS-2005>
4.99093914031982

> <r_mmod_Van_der_Waal_Energy-OPLS-2005>
115.156227111816

> <r_mmod_Electrostatic_Energy-OPLS-2005>
-234.175720214844

> <r_mmod_Solvation_Energy-OPLS-2005>
-463.961700439453

> <b_mmod_Minimization_Converged-OPLS-2005>
0

> <r_mmod_RMS_Derivative-OPLS-2005>
0.33171284198761

$$$$
55
                    3D
 Structure written by MMmdl.
143150  0  0  1  0            999 V2000
  -30.1640  -16.0036   20.2898 C   0  0  0  0  0  0
  -30.3923  -13.3526   19.5628 C   0  0  0  0  0  0
  -29.5651  -12.7616   18.3725 C   0  0  0  0  0  0
  -28.1687  -12.3226   18.8265 C   0  0  0  0  0  0
  -27.5855  -13.3502   19.8161 C   0  0  2  0  0  0
  -28.5706  -13.8335   20.9191 C   0  0  0  0  0  0
  -25.2257  -13.8350   20.5849 C   0  0  0  0  0  0
  -24.1687  -13.0444   20.9308 C   0  0  0  0  0  0
  -24.6446  -11.6972   20.8758 C   0  0  0  0  0  0
  -23.9156  -10.4301   21.0381 C   0  0  0  0  0  0
  -24.3678   -9.4213   21.9170 C   0  0  0  0  0  0
  -23.6330   -8.2258   22.0750 C   0  0  0  0  0  0
  -22.4308   -8.0298   21.3544 C   0  0  0  0  0  0
  -21.9962   -9.0273   20.4640 C   0  0  0  0  0  0
  -22.7314  -10.2141   20.3040 C   0  0  0  0  0  0
  -21.6865   -6.0748   22.5278 C   0  0  0  0  0  0
  -21.4024   -6.5647   23.8212 C   0  0  0  0  0  0
  -21.3663   -5.6797   24.9172 C   0  0  0  0  0  0
  -21.6045   -4.3059   24.7221 C   0  0  0  0  0  0
  -21.8818   -3.8153   23.4341 C   0  0  0  0  0  0
  -21.9197   -4.6973   22.3399 C   0  0  0  0  0  0
  -22.7689  -13.5140   21.1931 C   0  0  0  0  0  0
  -22.1664   -4.2158   21.0976 F   0  0  0  0  0  0
  -21.5626   -3.4541   25.7733 F   0  0  0  0  0  0
  -29.6928  -14.5675   20.2542 N   0  0  0  0  0  0
  -26.2757  -12.9763   20.3305 N   0  0  0  0  0  0
  -25.9411  -11.6785   20.5688 N   0  0  0  0  0  0
  -22.0368  -12.8104   22.0483 N   0  0  0  0  0  0
  -25.3797  -15.2099   20.4295 N   0  0  0  0  0  0
  -31.3979  -15.8838   20.0962 O   0  0  0  0  0  0
  -21.6659   -6.8900   21.4244 O   0  0  0  0  0  0
  -22.3351  -14.5434   20.6768 O   0  0  0  0  0  0
  -24.7075  -31.7691   23.1293 C   0  0  0  0  0  0
  -25.9534  -32.4313   23.7937 C   0  0  1  0  0  0
  -27.2414  -26.4435   20.2360 C   0  0  0  0  0  0
  -25.6008  -33.8155   24.1796 N   0  0  0  0  0  0
  -23.5463  -30.3579   21.4882 C   0  0  2  0  0  0
  -25.0090  -28.6452   20.1193 C   0  0  0  0  0  0
  -22.7877  -29.4145   22.4631 C   0  0  0  0  0  0
  -18.0355  -28.1433   22.8442 C   0  0  0  0  0  0
  -24.1497  -36.7087   23.2658 C   0  0  0  0  0  0
  -26.1359  -30.4146   21.4352 C   0  0  0  0  0  0
  -26.1982  -28.9510   20.7891 C   0  0  0  0  0  0
  -27.2813  -27.8840   20.8131 C   0  0  0  0  0  0
  -26.0223  -26.4167   19.4915 C   0  0  0  0  0  0
  -24.9761  -27.4078   19.4456 C   0  0  0  0  0  0
  -23.8151  -29.6302   20.1340 C   0  0  0  0  0  0
  -25.4157  -36.2807   24.0261 C   0  0  1  0  0  0
  -20.6001  -28.3805   23.1093 C   0  0  2  0  0  0
  -20.6805  -26.9439   22.5409 C   0  0  0  0  0  0
  -19.5786  -26.6360   21.5219 C   0  0  0  0  0  0
  -18.1969  -26.7955   22.1615 C   0  0  0  0  0  0
  -19.1627  -28.8950   23.2740 C   0  0  0  0  0  0
  -18.9528  -30.1527   23.8796 C   0  0  0  0  0  0
  -17.6515  -30.6609   24.0544 C   0  0  0  0  0  0
  -25.9154  -34.9203   23.4887 C   0  0  0  0  0  0
  -16.5403  -29.9085   23.6357 C   0  0  0  0  0  0
  -16.7333  -28.6509   23.0373 C   0  0  0  0  0  0
  -26.4633  -31.6463   25.0670 C   0  0  0  0  0  0
  -25.3629  -31.3854   26.1235 C   0  0  0  0  0  0
  -27.0611  -30.2773   24.6766 C   0  0  0  0  0  0
  -27.6030  -32.4392   25.7501 C   0  0  0  0  0  0
  -27.5558  -37.1696   24.8464 C   0  0  0  0  0  0
  -21.4500  -29.2997   22.3381 N   0  0  0  0  0  0
  -26.4259  -37.3599   23.9410 N   0  0  0  0  0  0
  -24.8228  -30.8874   22.0691 N   0  0  0  0  0  0
  -23.4199  -28.7794   23.3101 O   0  0  0  0  0  0
  -28.1673  -25.1091   20.3722 O   0  0  0  0  0  0
  -26.5834  -34.8833   22.4532 O   0  0  0  0  0  0
  -23.6039  -32.0891   23.6080 O   0  0  0  0  0  0
  -29.0485  -19.3496   18.4949 C   0  0  0  0  0  0
  -28.7144  -21.2637   20.5492 C   0  0  0  0  0  0
  -28.2754  -23.2522   19.9855 C   0  0  0  0  0  0
  -29.3848  -19.3459   19.9902 C   0  0  1  0  0  0
  -29.4135  -17.4701   20.3667 N   0  0  0  0  0  0
  -31.3613  -13.6551   19.1652 H   0  0  0  0  0  0
  -30.6322  -12.5718   20.2869 H   0  0  0  0  0  0
  -30.0942  -11.9250   17.9141 H   0  0  0  0  0  0
  -29.4679  -13.5245   17.5987 H   0  0  0  0  0  0
  -28.2600  -11.3545   19.3204 H   0  0  0  0  0  0
  -27.5075  -12.1774   17.9712 H   0  0  0  0  0  0
  -27.4025  -14.2239   19.1885 H   0  0  0  0  0  0
  -28.9056  -13.0128   21.5554 H   0  0  0  0  0  0
  -28.0636  -14.5352   21.5828 H   0  0  0  0  0  0
  -25.2815   -9.5685   22.4759 H   0  0  0  0  0  0
  -24.0026   -7.4653   22.7481 H   0  0  0  0  0  0
  -21.0889   -8.8806   19.8948 H   0  0  0  0  0  0
  -22.3772  -10.9681   19.6152 H   0  0  0  0  0  0
  -21.2021   -7.6156   23.9718 H   0  0  0  0  0  0
  -21.1485   -6.0527   25.9076 H   0  0  0  0  0  0
  -22.0592   -2.7615   23.2839 H   0  0  0  0  0  0
  -22.4027  -11.9788   22.4878 H   0  0  0  0  0  0
  -21.0969  -13.1079   22.2681 H   0  0  0  0  0  0
  -24.6054  -15.8559   20.5387 H   0  0  0  0  0  0
  -26.2214  -15.6540   20.0868 H   0  0  0  0  0  0
  -26.7642  -32.4721   23.0662 H   0  0  0  0  0  0
  -25.0021  -33.9149   24.9861 H   0  0  0  0  0  0
  -22.8864  -31.2015   21.2755 H   0  0  0  0  0  0
  -23.3786  -35.9386   23.3243 H   0  0  0  0  0  0
  -24.3556  -36.8845   22.2089 H   0  0  0  0  0  0
  -23.7231  -37.6223   23.6809 H   0  0  0  0  0  0
  -26.3667  -31.1217   20.6374 H   0  0  0  0  0  0
  -26.9765  -30.4913   22.1116 H   0  0  0  0  0  0
  -28.1632  -28.1298   21.3876 H   0  0  0  0  0  0
  -25.8156  -25.4961   18.9641 H   0  0  0  0  0  0
  -24.0872  -27.1612   18.8812 H   0  0  0  0  0  0
  -24.0083  -30.3792   19.3653 H   0  0  0  0  0  0
  -22.9153  -29.1072   19.8056 H   0  0  0  0  0  0
  -25.1378  -36.1529   25.0749 H   0  0  0  0  0  0
  -21.0075  -28.3451   24.1223 H   0  0  0  0  0  0
  -20.5643  -26.2437   23.3696 H   0  0  0  0  0  0
  -21.6665  -26.7339   22.1244 H   0  0  0  0  0  0
  -19.6938  -25.6245   21.1314 H   0  0  0  0  0  0
  -19.6737  -27.3116   20.6706 H   0  0  0  0  0  0
  -17.4241  -26.6700   21.4017 H   0  0  0  0  0  0
  -18.0348  -26.0120   22.9032 H   0  0  0  0  0  0
  -19.8004  -30.7367   24.2123 H   0  0  0  0  0  0
  -17.5064  -31.6279   24.5166 H   0  0  0  0  0  0
  -15.5399  -30.2957   23.7737 H   0  0  0  0  0  0
  -15.8734  -28.0793   22.7148 H   0  0  0  0  0  0
  -24.5856  -30.7165   25.7522 H   0  0  0  0  0  0
  -24.8776  -32.3097   26.4376 H   0  0  0  0  0  0
  -25.7743  -30.9198   27.0200 H   0  0  0  0  0  0
  -26.3380  -29.6302   24.1794 H   0  0  0  0  0  0
  -27.3967  -29.7331   25.5604 H   0  0  0  0  0  0
  -27.9385  -30.3839   24.0386 H   0  0  0  0  0  0
  -27.2533  -33.3792   26.1781 H   0  0  0  0  0  0
  -28.3985  -32.6798   25.0436 H   0  0  0  0  0  0
  -28.0541  -31.8730   26.5659 H   0  0  0  0  0  0
  -28.2517  -38.0044   24.7530 H   0  0  0  0  0  0
  -28.1112  -36.2564   24.6268 H   0  0  0  0  0  0
  -27.2275  -37.1296   25.8864 H   0  0  0  0  0  0
  -20.9868  -29.8610   21.6369 H   0  0  0  0  0  0
  -26.0061  -38.2631   24.1440 H   0  0  0  0  0  0
  -29.3023  -20.3074   18.0395 H   0  0  0  0  0  0
  -27.9836  -19.1799   18.3338 H   0  0  0  0  0  0
  -29.5980  -18.5769   17.9561 H   0  0  0  0  0  0
  -27.7852  -21.0066   21.0577 H   0  0  0  0  0  0
  -29.3931  -21.4550   21.3804 H   0  0  0  0  0  0
  -27.3066  -23.1182   19.5040 H   0  0  0  0  0  0
  -28.9576  -23.3382   19.1399 H   0  0  0  0  0  0
  -30.4613  -19.5173   20.0331 H   0  0  0  0  0  0
  -28.4680  -17.2311   20.6352 H   0  0  0  0  0  0
  1 25  1  0  0  0
  1 30  2  0  0  0
  1 75  1  0  0  0
  2  3  1  0  0  0
  2 25  1  0  0  0
  2 76  1  0  0  0
  2 77  1  0  0  0
  3  4  1  0  0  0
  3 78  1  0  0  0
  3 79  1  0  0  0
  4  5  1  0  0  0
  4 80  1  0  0  0
  4 81  1  0  0  0
  5  6  1  0  0  0
  5 26  1  0  0  0
  5 82  1  0  0  0
  6 25  1  0  0  0
  6 83  1  0  0  0
  6 84  1  0  0  0
  7  8  2  0  0  0
  7 26  1  0  0  0
  7 29  1  0  0  0
  8  9  1  0  0  0
  8 22  1  0  0  0
  9 10  1  0  0  0
  9 27  2  0  0  0
 10 11  2  0  0  0
 10 15  1  0  0  0
 11 12  1  0  0  0
 11 85  1  0  0  0
 12 13  2  0  0  0
 12 86  1  0  0  0
 13 14  1  0  0  0
 13 31  1  0  0  0
 14 15  2  0  0  0
 14 87  1  0  0  0
 15 88  1  0  0  0
 16 17  2  0  0  0
 16 21  1  0  0  0
 16 31  1  0  0  0
 17 18  1  0  0  0
 17 89  1  0  0  0
 18 19  2  0  0  0
 18 90  1  0  0  0
 19 20  1  0  0  0
 19 24  1  0  0  0
 20 21  2  0  0  0
 20 91  1  0  0  0
 21 23  1  0  0  0
 22 28  1  0  0  0
 22 32  2  0  0  0
 26 27  1  0  0  0
 28 92  1  0  0  0
 28 93  1  0  0  0
 29 94  1  0  0  0
 29 95  1  0  0  0
 33 34  1  0  0  0
 33 66  1  0  0  0
 33 70  2  0  0  0
 34 36  1  0  0  0
 34 59  1  0  0  0
 34 96  1  0  0  0
 35 44  2  0  0  0
 35 45  1  0  0  0
 35 68  1  0  0  0
 36 56  1  0  0  0
 36 97  1  0  0  0
 37 39  1  0  0  0
 37 47  1  0  0  0
 37 66  1  0  0  0
 37 98  1  0  0  0
 38 43  2  0  0  0
 38 46  1  0  0  0
 38 47  1  0  0  0
 39 64  1  0  0  0
 39 67  2  0  0  0
 40 52  1  0  0  0
 40 53  2  0  0  0
 40 58  1  0  0  0
 41 99  1  0  0  0
 41100  1  0  0  0
 41101  1  0  0  0
 41 48  1  0  0  0
 42 43  1  0  0  0
 42 66  1  0  0  0
 42102  1  0  0  0
 42103  1  0  0  0
 43 44  1  0  0  0
 44104  1  0  0  0
 45 46  2  0  0  0
 45105  1  0  0  0
 46106  1  0  0  0
 47107  1  0  0  0
 47108  1  0  0  0
 48 56  1  0  0  0
 48 65  1  0  0  0
 48109  1  0  0  0
 49 50  1  0  0  0
 49 53  1  0  0  0
 49 64  1  0  0  0
 49110  1  0  0  0
 50 51  1  0  0  0
 50111  1  0  0  0
 50112  1  0  0  0
 51 52  1  0  0  0
 51113  1  0  0  0
 51114  1  0  0  0
 52115  1  0  0  0
 52116  1  0  0  0
 53 54  1  0  0  0
 54 55  2  0  0  0
 54117  1  0  0  0
 55 57  1  0  0  0
 55118  1  0  0  0
 56 69  2  0  0  0
 57 58  2  0  0  0
 57119  1  0  0  0
 58120  1  0  0  0
 59 60  1  0  0  0
 59 61  1  0  0  0
 59 62  1  0  0  0
 60121  1  0  0  0
 60122  1  0  0  0
 60123  1  0  0  0
 61124  1  0  0  0
 61125  1  0  0  0
 61126  1  0  0  0
 62127  1  0  0  0
 62128  1  0  0  0
 62129  1  0  0  0
 63 65  1  0  0  0
 63130  1  0  0  0
 63131  1  0  0  0
 63132  1  0  0  0
 64133  1  0  0  0
 65134  1  0  0  0
 68 73  1  0  0  0
 71135  1  0  0  0
 71136  1  0  0  0
 71137  1  0  0  0
 71 74  1  0  0  0
 72 73  1  0  0  0
 72 74  1  0  0  0
 72138  1  0  0  0
 72139  1  0  0  0
 73140  1  0  0  0
 73141  1  0  0  0
 74 75  1  0  0  0
 74142  1  0  0  0
 75143  1  0  0  0
M  ISO  4   1 100  68 101  73 101  75 100
M  END
> <chiral flag>
0

> <version>
0

> <s_m_source_file>
/data/baiqing/PycharmProjects/Reinvent-master-3.2/result/LINK_invent/BTK/process_docking_weight1_custom_sum_contain_oxygen_bond_distance_aromatic_linkinvent_7_9_3/rearranged_h_0111.sdf

> <i_m_source_file_index>
56

> <r_mmod_Potential_Energy-OPLS-2005>
4160.39990234375

> <r_mmod_Stretch_Energy-OPLS-2005>
1938.98266601562

> <r_mmod_Bend_Energy-OPLS-2005>
891.2353515625

> <r_mmod_Torsional_Energy-OPLS-2005>
225.909072875977

> <r_mmod_Improper_Torsional_Energy-OPLS-2005>
4.00446653366089

> <r_mmod_Van_der_Waal_Energy-OPLS-2005>
112.343627929688

> <r_mmod_Electrostatic_Energy-OPLS-2005>
-332.167144775391

> <r_mmod_Solvation_Energy-OPLS-2005>
-217.999374389648

> <b_mmod_Minimization_Converged-OPLS-2005>
0

> <r_mmod_RMS_Derivative-OPLS-2005>
0.210489928722382

$$$$
56
                    3D
 Structure written by MMmdl.
163170  0  0  1  0            999 V2000
  -30.6573  -14.6580   20.4619 C   0  0  0  0  0  0
  -30.4191  -12.3918   19.4746 C   0  0  0  0  0  0
  -29.5051  -12.4855   18.2349 C   0  0  0  0  0  0
  -28.0263  -12.3428   18.6404 C   0  0  0  0  0  0
  -27.6458  -13.2305   19.8572 C   0  0  2  0  0  0
  -28.6880  -13.1364   20.9925 C   0  0  0  0  0  0
  -25.2515  -13.8206   20.5697 C   0  0  0  0  0  0
  -24.1808  -13.0463   20.9243 C   0  0  0  0  0  0
  -24.6385  -11.6931   20.8757 C   0  0  0  0  0  0
  -23.9059  -10.4308   21.0401 C   0  0  0  0  0  0
  -24.3609   -9.4221   21.9173 C   0  0  0  0  0  0
  -23.6283   -8.2260   22.0766 C   0  0  0  0  0  0
  -22.4265   -8.0293   21.3566 C   0  0  0  0  0  0
  -21.9901   -9.0265   20.4668 C   0  0  0  0  0  0
  -22.7228  -10.2144   20.3056 C   0  0  0  0  0  0
  -21.6860   -6.0721   22.5263 C   0  0  0  0  0  0
  -21.4016   -6.5631   23.8198 C   0  0  0  0  0  0
  -21.3654   -5.6785   24.9168 C   0  0  0  0  0  0
  -21.6062   -4.3049   24.7218 C   0  0  0  0  0  0
  -21.8820   -3.8137   23.4340 C   0  0  0  0  0  0
  -21.9184   -4.6949   22.3393 C   0  0  0  0  0  0
  -22.7827  -13.5246   21.1898 C   0  0  0  0  0  0
  -22.1638   -4.2136   21.0970 F   0  0  0  0  0  0
  -21.5646   -3.4528   25.7732 F   0  0  0  0  0  0
  -30.0005  -13.4539   20.4175 N   0  0  0  0  0  0
  -26.2944  -12.9409   20.3303 N   0  0  0  0  0  0
  -25.9313  -11.6552   20.5770 N   0  0  0  0  0  0
  -22.0470  -12.8229   22.0454 N   0  0  0  0  0  0
  -25.4202  -15.1931   20.4058 N   0  0  0  0  0  0
  -31.8338  -14.7198   20.1061 O   0  0  0  0  0  0
  -21.6652   -6.8872   21.4229 O   0  0  0  0  0  0
  -22.3509  -14.5535   20.6736 O   0  0  0  0  0  0
  -24.6259  -31.8585   23.2008 C   0  0  0  0  0  0
  -25.9104  -32.4768   23.8338 C   0  0  1  0  0  0
  -27.2278  -27.3010   20.1133 C   0  0  0  0  0  0
  -25.5914  -33.8569   24.2275 N   0  0  0  0  0  0
  -23.4205  -30.4799   21.5431 C   0  0  2  0  0  0
  -24.8666  -28.9305   20.1097 C   0  0  0  0  0  0
  -22.7474  -29.4609   22.4924 C   0  0  0  0  0  0
  -18.0287  -28.1389   22.8504 C   0  0  0  0  0  0
  -24.1492  -36.7271   23.2643 C   0  0  0  0  0  0
  -25.9613  -30.7824   21.3732 C   0  0  0  0  0  0
  -26.0331  -29.4066   20.7182 C   0  0  0  0  0  0
  -27.2120  -28.6033   20.7109 C   0  0  0  0  0  0
  -26.0305  -26.8755   19.4920 C   0  0  0  0  0  0
  -24.8688  -27.6718   19.4887 C   0  0  0  0  0  0
  -23.6356  -29.8115   20.1588 C   0  0  0  0  0  0
  -25.4121  -36.3070   24.0334 C   0  0  1  0  0  0
  -20.5897  -28.3683   23.1299 C   0  0  2  0  0  0
  -20.6773  -26.9412   22.5418 C   0  0  0  0  0  0
  -19.5745  -26.6400   21.5218 C   0  0  0  0  0  0
  -18.1933  -26.7939   22.1635 C   0  0  0  0  0  0
  -19.1545  -28.8853   23.2906 C   0  0  0  0  0  0
  -18.9463  -30.1465   23.8908 C   0  0  0  0  0  0
  -17.6467  -30.6593   24.0577 C   0  0  0  0  0  0
  -25.9061  -34.9445   23.5116 C   0  0  0  0  0  0
  -16.5358  -29.9092   23.6340 C   0  0  0  0  0  0
  -16.7287  -28.6511   23.0360 C   0  0  0  0  0  0
  -26.4509  -31.6570   25.0697 C   0  0  0  0  0  0
  -25.3770  -31.3665   26.1431 C   0  0  0  0  0  0
  -27.0332  -30.2998   24.6121 C   0  0  0  0  0  0
  -27.6078  -32.4285   25.7476 C   0  0  0  0  0  0
  -27.5586  -37.1795   24.8473 C   0  0  0  0  0  0
  -21.4189  -29.3024   22.3671 N   0  0  0  0  0  0
  -26.4293  -37.3769   23.9416 N   0  0  0  0  0  0
  -24.6883  -31.0584   22.0957 N   0  0  0  0  0  0
  -23.4189  -28.8180   23.3034 O   0  0  0  0  0  0
  -28.3784  -26.4926   20.1725 O   0  0  0  0  0  0
  -26.5643  -34.8914   22.4692 O   0  0  0  0  0  0
  -23.5431  -32.1380   23.7339 O   0  0  0  0  0  0
  -31.7401  -17.5968   20.4873 C   0  0  0  0  0  0
  -32.6931  -17.6398   19.2968 C   0  0  0  0  0  0
  -29.8832  -24.1454   21.5225 C   0  0  0  0  0  0
  -27.3936  -23.7949   21.5314 C   0  0  0  0  0  0
  -28.8867  -22.4326   19.9207 C   0  0  0  0  0  0
  -28.9019  -21.0575   20.7617 C   0  0  0  0  0  0
  -29.3115  -18.4420   20.7498 C   0  0  0  0  0  0
  -28.4640  -25.1029   19.6422 C   0  0  0  0  0  0
  -30.2581  -17.2441   20.2235 C   0  0  1  0  0  0
  -28.6502  -23.8583   20.6437 C   0  0  0  0  0  0
  -29.9160  -15.8104   20.6471 N   0  0  0  0  0  0
  -29.4591  -19.8129   20.0769 N   0  3  0  0  0  0
  -32.1727  -17.8288   21.6184 O   0  0  0  0  0  0
  -31.4661  -12.4777   19.1785 H   0  0  0  0  0  0
  -30.3273  -11.4124   19.9471 H   0  0  0  0  0  0
  -29.7707  -11.7116   17.5125 H   0  0  0  0  0  0
  -29.6620  -13.4394   17.7300 H   0  0  0  0  0  0
  -27.8504  -11.2941   18.8785 H   0  0  0  0  0  0
  -27.3780  -12.5714   17.7937 H   0  0  0  0  0  0
  -27.6506  -14.2578   19.4922 H   0  0  0  0  0  0
  -28.6972  -12.1358   21.4271 H   0  0  0  0  0  0
  -28.4426  -13.8192   21.8079 H   0  0  0  0  0  0
  -25.2755   -9.5689   22.4743 H   0  0  0  0  0  0
  -23.9991   -7.4645   22.7477 H   0  0  0  0  0  0
  -21.0851   -8.8776   19.8961 H   0  0  0  0  0  0
  -22.3683  -10.9676   19.6172 H   0  0  0  0  0  0
  -21.2004   -7.6137   23.9694 H   0  0  0  0  0  0
  -21.1483   -6.0516   25.9067 H   0  0  0  0  0  0
  -22.0605   -2.7598   23.2840 H   0  0  0  0  0  0
  -22.4082  -11.9904   22.4871 H   0  0  0  0  0  0
  -21.1085  -13.1252   22.2667 H   0  0  0  0  0  0
  -24.6431  -15.8376   20.5052 H   0  0  0  0  0  0
  -26.2412  -15.6213   19.9981 H   0  0  0  0  0  0
  -26.7166  -32.5446   23.1082 H   0  0  0  0  0  0
  -25.0018  -33.9709   25.0386 H   0  0  0  0  0  0
  -22.7140  -31.2997   21.3988 H   0  0  0  0  0  0
  -23.3758  -35.9597   23.3307 H   0  0  0  0  0  0
  -24.3581  -36.8886   22.2057 H   0  0  0  0  0  0
  -23.7249  -37.6474   23.6656 H   0  0  0  0  0  0
  -26.0890  -31.5411   20.5993 H   0  0  0  0  0  0
  -26.8418  -30.8360   22.0020 H   0  0  0  0  0  0
  -28.1088  -28.9674   21.1919 H   0  0  0  0  0  0
  -25.9403  -25.9141   19.0145 H   0  0  0  0  0  0
  -23.9743  -27.3002   19.0084 H   0  0  0  0  0  0
  -23.7553  -30.5860   19.4002 H   0  0  0  0  0  0
  -22.7544  -29.2408   19.8598 H   0  0  0  0  0  0
  -25.1308  -36.1910   25.0825 H   0  0  0  0  0  0
  -20.9999  -28.3261   24.1416 H   0  0  0  0  0  0
  -20.5676  -26.2301   23.3615 H   0  0  0  0  0  0
  -21.6644  -26.7447   22.1214 H   0  0  0  0  0  0
  -19.6904  -25.6313   21.1242 H   0  0  0  0  0  0
  -19.6678  -27.3212   20.6757 H   0  0  0  0  0  0
  -17.4207  -26.6714   21.4039 H   0  0  0  0  0  0
  -18.0332  -26.0068   22.9021 H   0  0  0  0  0  0
  -19.7939  -30.7300   24.2267 H   0  0  0  0  0  0
  -17.5011  -31.6274   24.5173 H   0  0  0  0  0  0
  -15.5355  -30.2998   23.7636 H   0  0  0  0  0  0
  -15.8697  -28.0832   22.7056 H   0  0  0  0  0  0
  -24.5948  -30.7021   25.7751 H   0  0  0  0  0  0
  -24.8964  -32.2800   26.4916 H   0  0  0  0  0  0
  -25.8122  -30.8800   27.0174 H   0  0  0  0  0  0
  -26.2876  -29.6755   24.1181 H   0  0  0  0  0  0
  -27.4068  -29.7240   25.4602 H   0  0  0  0  0  0
  -27.8743  -30.4278   23.9304 H   0  0  0  0  0  0
  -27.2688  -33.3561   26.2090 H   0  0  0  0  0  0
  -28.3870  -32.6868   25.0297 H   0  0  0  0  0  0
  -28.0763  -31.8391   26.5358 H   0  0  0  0  0  0
  -28.2608  -38.0087   24.7510 H   0  0  0  0  0  0
  -28.1072  -36.2621   24.6306 H   0  0  0  0  0  0
  -27.2305  -37.1465   25.8875 H   0  0  0  0  0  0
  -20.9369  -29.8706   21.6848 H   0  0  0  0  0  0
  -26.0169  -38.2840   24.1418 H   0  0  0  0  0  0
  -33.2575  -18.5722   19.2968 H   0  0  0  0  0  0
  -32.1591  -17.5561   18.3512 H   0  0  0  0  0  0
  -33.4005  -16.8128   19.3621 H   0  0  0  0  0  0
  -30.0051  -23.4068   22.3142 H   0  0  0  0  0  0
  -29.8180  -25.1213   22.0032 H   0  0  0  0  0  0
  -30.8000  -24.1447   20.9312 H   0  0  0  0  0  0
  -27.4376  -22.9794   22.2538 H   0  0  0  0  0  0
  -26.4919  -23.6644   20.9334 H   0  0  0  0  0  0
  -27.2718  -24.7186   22.0997 H   0  0  0  0  0  0
  -28.1318  -22.3239   19.1415 H   0  0  0  0  0  0
  -29.8311  -22.5014   19.3769 H   0  0  0  0  0  0
  -27.8814  -20.8391   21.0764 H   0  0  0  0  0  0
  -29.4729  -21.2022   21.6796 H   0  0  0  0  0  0
  -28.2682  -18.1393   20.6681 H   0  0  0  0  0  0
  -29.4898  -18.5787   21.8181 H   0  0  0  0  0  0
  -29.3498  -25.1205   19.0066 H   0  0  0  0  0  0
  -27.6705  -24.8661   18.9395 H   0  0  0  0  0  0
  -30.1192  -17.2199   19.1429 H   0  0  0  0  0  0
  -28.9644  -15.6588   20.9456 H   0  0  0  0  0  0
  -30.4357  -19.9965   19.9111 H   0  0  0  0  0  0
  -29.0214  -19.7411   19.1719 H   0  0  0  0  0  0
  1 25  1  0  0  0
  1 30  2  0  0  0
  1 81  1  0  0  0
  2  3  1  0  0  0
  2 25  1  0  0  0
  2 84  1  0  0  0
  2 85  1  0  0  0
  3  4  1  0  0  0
  3 86  1  0  0  0
  3 87  1  0  0  0
  4  5  1  0  0  0
  4 88  1  0  0  0
  4 89  1  0  0  0
  5  6  1  0  0  0
  5 26  1  0  0  0
  5 90  1  0  0  0
  6 25  1  0  0  0
  6 91  1  0  0  0
  6 92  1  0  0  0
  7  8  2  0  0  0
  7 26  1  0  0  0
  7 29  1  0  0  0
  8  9  1  0  0  0
  8 22  1  0  0  0
  9 10  1  0  0  0
  9 27  2  0  0  0
 10 11  2  0  0  0
 10 15  1  0  0  0
 11 12  1  0  0  0
 11 93  1  0  0  0
 12 13  2  0  0  0
 12 94  1  0  0  0
 13 14  1  0  0  0
 13 31  1  0  0  0
 14 15  2  0  0  0
 14 95  1  0  0  0
 15 96  1  0  0  0
 16 17  2  0  0  0
 16 21  1  0  0  0
 16 31  1  0  0  0
 17 18  1  0  0  0
 17 97  1  0  0  0
 18 19  2  0  0  0
 18 98  1  0  0  0
 19 20  1  0  0  0
 19 24  1  0  0  0
 20 21  2  0  0  0
 20 99  1  0  0  0
 21 23  1  0  0  0
 22 28  1  0  0  0
 22 32  2  0  0  0
 26 27  1  0  0  0
 28100  1  0  0  0
 28101  1  0  0  0
 29102  1  0  0  0
 29103  1  0  0  0
 33 34  1  0  0  0
 33 66  1  0  0  0
 33 70  2  0  0  0
 34 36  1  0  0  0
 34 59  1  0  0  0
 34104  1  0  0  0
 35 44  2  0  0  0
 35 45  1  0  0  0
 35 68  1  0  0  0
 36 56  1  0  0  0
 36105  1  0  0  0
 37 39  1  0  0  0
 37 47  1  0  0  0
 37 66  1  0  0  0
 37106  1  0  0  0
 38 43  2  0  0  0
 38 46  1  0  0  0
 38 47  1  0  0  0
 39 64  1  0  0  0
 39 67  2  0  0  0
 40 52  1  0  0  0
 40 53  2  0  0  0
 40 58  1  0  0  0
 41107  1  0  0  0
 41108  1  0  0  0
 41109  1  0  0  0
 41 48  1  0  0  0
 42 43  1  0  0  0
 42 66  1  0  0  0
 42110  1  0  0  0
 42111  1  0  0  0
 43 44  1  0  0  0
 44112  1  0  0  0
 45 46  2  0  0  0
 45113  1  0  0  0
 46114  1  0  0  0
 47115  1  0  0  0
 47116  1  0  0  0
 48 56  1  0  0  0
 48 65  1  0  0  0
 48117  1  0  0  0
 49 50  1  0  0  0
 49 53  1  0  0  0
 49 64  1  0  0  0
 49118  1  0  0  0
 50 51  1  0  0  0
 50119  1  0  0  0
 50120  1  0  0  0
 51 52  1  0  0  0
 51121  1  0  0  0
 51122  1  0  0  0
 52123  1  0  0  0
 52124  1  0  0  0
 53 54  1  0  0  0
 54 55  2  0  0  0
 54125  1  0  0  0
 55 57  1  0  0  0
 55126  1  0  0  0
 56 69  2  0  0  0
 57 58  2  0  0  0
 57127  1  0  0  0
 58128  1  0  0  0
 59 60  1  0  0  0
 59 61  1  0  0  0
 59 62  1  0  0  0
 60129  1  0  0  0
 60130  1  0  0  0
 60131  1  0  0  0
 61132  1  0  0  0
 61133  1  0  0  0
 61134  1  0  0  0
 62135  1  0  0  0
 62136  1  0  0  0
 62137  1  0  0  0
 63 65  1  0  0  0
 63138  1  0  0  0
 63139  1  0  0  0
 63140  1  0  0  0
 64141  1  0  0  0
 65142  1  0  0  0
 68 78  1  0  0  0
 71 72  1  0  0  0
 71 79  1  0  0  0
 71 83  2  0  0  0
 72143  1  0  0  0
 72144  1  0  0  0
 72145  1  0  0  0
 73146  1  0  0  0
 73147  1  0  0  0
 73148  1  0  0  0
 73 80  1  0  0  0
 74 80  1  0  0  0
 74149  1  0  0  0
 74150  1  0  0  0
 74151  1  0  0  0
 75 76  1  0  0  0
 75 80  1  0  0  0
 75152  1  0  0  0
 75153  1  0  0  0
 76 82  1  0  0  0
 76154  1  0  0  0
 76155  1  0  0  0
 77 82  1  0  0  0
 77156  1  0  0  0
 77157  1  0  0  0
 77 79  1  0  0  0
 78 80  1  0  0  0
 78158  1  0  0  0
 78159  1  0  0  0
 79 81  1  0  0  0
 79160  1  0  0  0
 81161  1  0  0  0
 82162  1  0  0  0
 82163  1  0  0  0
M  CHG  1  82   1
M  ISO  4   1 100  68 101  78 101  81 100
M  END
> <chiral flag>
0

> <version>
0

> <s_m_source_file>
/data/baiqing/PycharmProjects/Reinvent-master-3.2/result/LINK_invent/BTK/process_docking_weight1_custom_sum_contain_oxygen_bond_distance_aromatic_linkinvent_7_9_3/rearranged_h_0111.sdf

> <i_m_source_file_index>
57

> <r_mmod_Potential_Energy-OPLS-2005>
-206.043899536133

> <r_mmod_Stretch_Energy-OPLS-2005>
105.480056762695

> <r_mmod_Bend_Energy-OPLS-2005>
163.8408203125

> <r_mmod_Torsional_Energy-OPLS-2005>
206.822631835938

> <r_mmod_Improper_Torsional_Energy-OPLS-2005>
6.94419384002686

> <r_mmod_Van_der_Waal_Energy-OPLS-2005>
126.576026916504

> <r_mmod_Electrostatic_Energy-OPLS-2005>
-368.635498046875

> <r_mmod_Solvation_Energy-OPLS-2005>
-501.290802001953

> <b_mmod_Minimization_Converged-OPLS-2005>
0

> <r_mmod_RMS_Derivative-OPLS-2005>
2.85765552520752

$$$$
57
                    3D
 Structure written by MMmdl.
167175  0  0  1  0            999 V2000
  -30.6940  -14.5747   20.4977 C   0  0  0  0  0  0
  -30.4246  -12.3579   19.4439 C   0  0  0  0  0  0
  -29.5007  -12.4959   18.2174 C   0  0  0  0  0  0
  -28.0253  -12.3424   18.6350 C   0  0  0  0  0  0
  -27.6545  -13.2209   19.8612 C   0  0  2  0  0  0
  -28.7010  -13.0945   20.9932 C   0  0  0  0  0  0
  -25.2575  -13.8164   20.5683 C   0  0  0  0  0  0
  -24.1844  -13.0444   20.9181 C   0  0  0  0  0  0
  -24.6415  -11.6899   20.8765 C   0  0  0  0  0  0
  -23.9093  -10.4291   21.0416 C   0  0  0  0  0  0
  -24.3622   -9.4200   21.9198 C   0  0  0  0  0  0
  -23.6280   -8.2235   22.0771 C   0  0  0  0  0  0
  -22.4263   -8.0284   21.3542 C   0  0  0  0  0  0
  -21.9910   -9.0274   20.4647 C   0  0  0  0  0  0
  -22.7260  -10.2145   20.3070 C   0  0  0  0  0  0
  -21.6840   -6.0735   22.5290 C   0  0  0  0  0  0
  -21.4017   -6.5640   23.8229 C   0  0  0  0  0  0
  -21.3652   -5.6796   24.9176 C   0  0  0  0  0  0
  -21.6051   -4.3065   24.7238 C   0  0  0  0  0  0
  -21.8813   -3.8145   23.4359 C   0  0  0  0  0  0
  -21.9191   -4.6960   22.3405 C   0  0  0  0  0  0
  -22.7866  -13.5235   21.1831 C   0  0  0  0  0  0
  -22.1658   -4.2149   21.0997 F   0  0  0  0  0  0
  -21.5610   -3.4559   25.7746 F   0  0  0  0  0  0
  -30.0186  -13.3927   20.4151 N   0  0  0  0  0  0
  -26.3003  -12.9365   20.3329 N   0  0  0  0  0  0
  -25.9348  -11.6522   20.5774 N   0  0  0  0  0  0
  -22.0494  -12.8251   22.0379 N   0  0  0  0  0  0
  -25.4264  -15.1887   20.4077 N   0  0  0  0  0  0
  -31.8658  -14.6671   20.1245 O   0  0  0  0  0  0
  -21.6628   -6.8881   21.4245 O   0  0  0  0  0  0
  -22.3585  -14.5522   20.6622 O   0  0  0  0  0  0
  -24.6224  -31.8617   23.2058 C   0  0  0  0  0  0
  -25.9073  -32.4797   23.8380 C   0  0  1  0  0  0
  -27.2418  -27.3747   20.0879 C   0  0  0  0  0  0
  -25.5885  -33.8603   24.2309 N   0  0  0  0  0  0
  -23.4117  -30.4811   21.5510 C   0  0  2  0  0  0
  -24.8544  -28.9333   20.1111 C   0  0  0  0  0  0
  -22.7451  -29.4603   22.5005 C   0  0  0  0  0  0
  -18.0278  -28.1369   22.8509 C   0  0  0  0  0  0
  -24.1474  -36.7319   23.2644 C   0  0  0  0  0  0
  -25.9455  -30.8055   21.3647 C   0  0  0  0  0  0
  -26.0169  -29.4350   20.7090 C   0  0  0  0  0  0
  -27.2096  -28.6635   20.6878 C   0  0  0  0  0  0
  -26.0598  -26.9048   19.4741 C   0  0  0  0  0  0
  -24.8757  -27.6708   19.4880 C   0  0  0  0  0  0
  -23.6199  -29.8104   20.1652 C   0  0  0  0  0  0
  -25.4096  -36.3112   24.0351 C   0  0  1  0  0  0
  -20.5868  -28.3658   23.1329 C   0  0  2  0  0  0
  -20.6751  -26.9389   22.5429 C   0  0  0  0  0  0
  -19.5726  -26.6377   21.5224 C   0  0  0  0  0  0
  -18.1909  -26.7911   22.1640 C   0  0  0  0  0  0
  -19.1522  -28.8828   23.2908 C   0  0  0  0  0  0
  -18.9445  -30.1441   23.8919 C   0  0  0  0  0  0
  -17.6438  -30.6569   24.0562 C   0  0  0  0  0  0
  -25.9024  -34.9473   23.5135 C   0  0  0  0  0  0
  -16.5336  -29.9073   23.6318 C   0  0  0  0  0  0
  -16.7262  -28.6486   23.0349 C   0  0  0  0  0  0
  -26.4474  -31.6588   25.0734 C   0  0  0  0  0  0
  -25.3739  -31.3691   26.1486 C   0  0  0  0  0  0
  -27.0288  -30.3029   24.6103 C   0  0  0  0  0  0
  -27.6043  -32.4315   25.7494 C   0  0  0  0  0  0
  -27.5572  -37.1815   24.8474 C   0  0  0  0  0  0
  -21.4176  -29.3013   22.3743 N   0  0  0  0  0  0
  -26.4284  -37.3803   23.9419 N   0  0  0  0  0  0
  -24.6787  -31.0657   22.0989 N   0  0  0  0  0  0
  -23.4201  -28.8153   23.3068 O   0  0  0  0  0  0
  -28.4239  -26.6389   20.1293 O   0  0  0  0  0  0
  -26.5616  -34.8939   22.4711 O   0  0  0  0  0  0
  -23.5395  -32.1388   23.7413 O   0  0  0  0  0  0
  -28.2747  -18.3576   20.9600 C   0  0  0  0  0  0
  -27.8323  -19.7109   20.8252 C   0  0  0  0  0  0
  -28.9168  -20.4794   20.4670 C   0  0  0  0  0  0
  -29.6106  -18.2785   20.6972 C   0  0  0  0  0  0
  -28.9693  -21.9634   20.1150 C   0  0  0  0  0  0
  -26.4060  -20.1578   21.0281 C   0  0  0  0  0  0
  -33.6246  -20.8262   21.1427 C   0  0  0  0  0  0
  -31.8944  -19.8910   22.7049 C   0  0  0  0  0  0
  -30.5613  -17.0683   20.7271 C   0  0  0  0  0  0
  -31.4251  -19.9895   20.1576 C   0  0  0  0  0  0
  -27.7438  -24.2246   20.6951 C   0  0  0  0  0  0
  -28.5132  -25.2247   19.7673 C   0  0  0  0  0  0
  -32.1159  -20.6469   21.3821 C   0  0  0  0  0  0
  -30.0277  -19.5991   20.4148 N   0  0  0  0  0  0
  -28.1407  -22.7853   20.8027 N   0  0  0  0  0  0
  -29.9864  -15.6950   20.8041 N   0  0  0  0  0  0
  -29.7214  -22.3917   19.2395 O   0  0  0  0  0  0
  -30.3367  -11.3644   19.8894 H   0  0  0  0  0  0
  -31.4694  -12.4510   19.1360 H   0  0  0  0  0  0
  -29.7591  -11.7439   17.4715 H   0  0  0  0  0  0
  -29.6556  -13.4677   17.7447 H   0  0  0  0  0  0
  -27.8577  -11.2896   18.8692 H   0  0  0  0  0  0
  -27.3704  -12.5718   17.7943 H   0  0  0  0  0  0
  -27.6678  -14.2537   19.5141 H   0  0  0  0  0  0
  -28.6984  -12.0889   21.4157 H   0  0  0  0  0  0
  -28.4603  -13.7678   21.8174 H   0  0  0  0  0  0
  -25.2757   -9.5657   22.4791 H   0  0  0  0  0  0
  -23.9959   -7.4636   22.7508 H   0  0  0  0  0  0
  -21.0833   -8.8813   19.8968 H   0  0  0  0  0  0
  -22.3715  -10.9692   19.6189 H   0  0  0  0  0  0
  -21.2016   -7.6165   23.9727 H   0  0  0  0  0  0
  -21.1474   -6.0538   25.9087 H   0  0  0  0  0  0
  -22.0589   -2.7618   23.2878 H   0  0  0  0  0  0
  -22.4056  -11.9910   22.4788 H   0  0  0  0  0  0
  -21.1109  -13.1329   22.2553 H   0  0  0  0  0  0
  -24.6511  -15.8328   20.5122 H   0  0  0  0  0  0
  -26.2634  -15.6312   20.0504 H   0  0  0  0  0  0
  -26.7139  -32.5466   23.1130 H   0  0  0  0  0  0
  -25.0013  -33.9744   25.0435 H   0  0  0  0  0  0
  -22.7039  -31.3018   21.4119 H   0  0  0  0  0  0
  -23.3726  -35.9656   23.3319 H   0  0  0  0  0  0
  -24.3562  -36.8920   22.2049 H   0  0  0  0  0  0
  -23.7222  -37.6535   23.6643 H   0  0  0  0  0  0
  -26.0592  -31.5661   20.5904 H   0  0  0  0  0  0
  -26.8362  -30.8626   21.9800 H   0  0  0  0  0  0
  -28.1099  -29.0490   21.1431 H   0  0  0  0  0  0
  -26.0394  -25.9464   18.9743 H   0  0  0  0  0  0
  -23.9852  -27.2880   19.0064 H   0  0  0  0  0  0
  -23.7310  -30.5889   19.4099 H   0  0  0  0  0  0
  -22.7397  -29.2385   19.8681 H   0  0  0  0  0  0
  -25.1254  -36.1990   25.0845 H   0  0  0  0  0  0
  -20.9960  -28.3203   24.1448 H   0  0  0  0  0  0
  -20.5631  -26.2266   23.3620 H   0  0  0  0  0  0
  -21.6620  -26.7401   22.1223 H   0  0  0  0  0  0
  -19.6876  -25.6292   21.1232 H   0  0  0  0  0  0
  -19.6649  -27.3208   20.6769 H   0  0  0  0  0  0
  -17.4179  -26.6687   21.4042 H   0  0  0  0  0  0
  -18.0295  -26.0040   22.9021 H   0  0  0  0  0  0
  -19.7912  -30.7256   24.2300 H   0  0  0  0  0  0
  -17.4984  -31.6253   24.5158 H   0  0  0  0  0  0
  -15.5334  -30.2971   23.7617 H   0  0  0  0  0  0
  -15.8673  -28.0806   22.7051 H   0  0  0  0  0  0
  -24.5911  -30.7030   25.7844 H   0  0  0  0  0  0
  -24.8918  -32.2828   26.4973 H   0  0  0  0  0  0
  -25.8097  -30.8851   27.0233 H   0  0  0  0  0  0
  -26.2818  -29.6823   24.1144 H   0  0  0  0  0  0
  -27.4037  -29.7242   25.4551 H   0  0  0  0  0  0
  -27.8669  -30.4360   23.9261 H   0  0  0  0  0  0
  -27.2666  -33.3622   26.2077 H   0  0  0  0  0  0
  -28.3849  -32.6869   25.0313 H   0  0  0  0  0  0
  -28.0717  -31.8435   26.5405 H   0  0  0  0  0  0
  -28.2614  -38.0093   24.7499 H   0  0  0  0  0  0
  -28.1044  -36.2620   24.6312 H   0  0  0  0  0  0
  -27.2299  -37.1494   25.8885 H   0  0  0  0  0  0
  -20.9357  -29.8762   21.6970 H   0  0  0  0  0  0
  -26.0176  -38.2892   24.1391 H   0  0  0  0  0  0
  -27.6550  -17.5130   21.2336 H   0  0  0  0  0  0
  -26.1087  -20.8625   20.2522 H   0  0  0  0  0  0
  -26.2882  -20.6375   22.0015 H   0  0  0  0  0  0
  -25.7260  -19.3052   20.9823 H   0  0  0  0  0  0
  -34.0898  -21.3685   21.9681 H   0  0  0  0  0  0
  -33.8250  -21.3783   20.2251 H   0  0  0  0  0  0
  -34.1281  -19.8614   21.0650 H   0  0  0  0  0  0
  -32.3423  -20.4257   23.5424 H   0  0  0  0  0  0
  -30.8380  -19.7597   22.9420 H   0  0  0  0  0  0
  -32.3498  -18.9024   22.6768 H   0  0  0  0  0  0
  -31.2436  -17.1728   21.5698 H   0  0  0  0  0  0
  -31.1807  -17.1050   19.8324 H   0  0  0  0  0  0
  -31.9981  -19.1178   19.8478 H   0  0  0  0  0  0
  -31.4675  -20.6504   19.2956 H   0  0  0  0  0  0
  -26.6954  -24.2194   20.3938 H   0  0  0  0  0  0
  -27.7423  -24.6258   21.7095 H   0  0  0  0  0  0
  -28.2279  -25.0798   18.7230 H   0  0  0  0  0  0
  -29.5774  -24.9841   19.8100 H   0  0  0  0  0  0
  -31.6813  -21.6403   21.4961 H   0  0  0  0  0  0
  -27.6195  -22.2792   21.5014 H   0  0  0  0  0  0
  -29.0145  -15.5999   21.0523 H   0  0  0  0  0  0
  1 25  1  0  0  0
  1 30  2  0  0  0
  1 86  1  0  0  0
  2  3  1  0  0  0
  2 25  1  0  0  0
  2 88  1  0  0  0
  2 89  1  0  0  0
  3  4  1  0  0  0
  3 90  1  0  0  0
  3 91  1  0  0  0
  4  5  1  0  0  0
  4 92  1  0  0  0
  4 93  1  0  0  0
  5  6  1  0  0  0
  5 26  1  0  0  0
  5 94  1  0  0  0
  6 25  1  0  0  0
  6 95  1  0  0  0
  6 96  1  0  0  0
  7  8  2  0  0  0
  7 26  1  0  0  0
  7 29  1  0  0  0
  8  9  1  0  0  0
  8 22  1  0  0  0
  9 10  1  0  0  0
  9 27  2  0  0  0
 10 11  2  0  0  0
 10 15  1  0  0  0
 11 12  1  0  0  0
 11 97  1  0  0  0
 12 13  2  0  0  0
 12 98  1  0  0  0
 13 14  1  0  0  0
 13 31  1  0  0  0
 14 15  2  0  0  0
 14 99  1  0  0  0
 15100  1  0  0  0
 16 17  2  0  0  0
 16 21  1  0  0  0
 16 31  1  0  0  0
 17 18  1  0  0  0
 17101  1  0  0  0
 18 19  2  0  0  0
 18102  1  0  0  0
 19 20  1  0  0  0
 19 24  1  0  0  0
 20 21  2  0  0  0
 20103  1  0  0  0
 21 23  1  0  0  0
 22 28  1  0  0  0
 22 32  2  0  0  0
 26 27  1  0  0  0
 28104  1  0  0  0
 28105  1  0  0  0
 29106  1  0  0  0
 29107  1  0  0  0
 33 34  1  0  0  0
 33 66  1  0  0  0
 33 70  2  0  0  0
 34 36  1  0  0  0
 34 59  1  0  0  0
 34108  1  0  0  0
 35 44  2  0  0  0
 35 45  1  0  0  0
 35 68  1  0  0  0
 36 56  1  0  0  0
 36109  1  0  0  0
 37 39  1  0  0  0
 37 47  1  0  0  0
 37 66  1  0  0  0
 37110  1  0  0  0
 38 43  2  0  0  0
 38 46  1  0  0  0
 38 47  1  0  0  0
 39 64  1  0  0  0
 39 67  2  0  0  0
 40 52  1  0  0  0
 40 53  2  0  0  0
 40 58  1  0  0  0
 41111  1  0  0  0
 41112  1  0  0  0
 41113  1  0  0  0
 41 48  1  0  0  0
 42 43  1  0  0  0
 42 66  1  0  0  0
 42114  1  0  0  0
 42115  1  0  0  0
 43 44  1  0  0  0
 44116  1  0  0  0
 45 46  2  0  0  0
 45117  1  0  0  0
 46118  1  0  0  0
 47119  1  0  0  0
 47120  1  0  0  0
 48 56  1  0  0  0
 48 65  1  0  0  0
 48121  1  0  0  0
 49 50  1  0  0  0
 49 53  1  0  0  0
 49 64  1  0  0  0
 49122  1  0  0  0
 50 51  1  0  0  0
 50123  1  0  0  0
 50124  1  0  0  0
 51 52  1  0  0  0
 51125  1  0  0  0
 51126  1  0  0  0
 52127  1  0  0  0
 52128  1  0  0  0
 53 54  1  0  0  0
 54 55  2  0  0  0
 54129  1  0  0  0
 55 57  1  0  0  0
 55130  1  0  0  0
 56 69  2  0  0  0
 57 58  2  0  0  0
 57131  1  0  0  0
 58132  1  0  0  0
 59 60  1  0  0  0
 59 61  1  0  0  0
 59 62  1  0  0  0
 60133  1  0  0  0
 60134  1  0  0  0
 60135  1  0  0  0
 61136  1  0  0  0
 61137  1  0  0  0
 61138  1  0  0  0
 62139  1  0  0  0
 62140  1  0  0  0
 62141  1  0  0  0
 63 65  1  0  0  0
 63142  1  0  0  0
 63143  1  0  0  0
 63144  1  0  0  0
 64145  1  0  0  0
 65146  1  0  0  0
 68 82  1  0  0  0
 71 72  1  0  0  0
 71 74  2  0  0  0
 71147  1  0  0  0
 72 73  2  0  0  0
 72 76  1  0  0  0
 73 75  1  0  0  0
 73 84  1  0  0  0
 74 79  1  0  0  0
 74 84  1  0  0  0
 75 85  1  0  0  0
 75 87  2  0  0  0
 76148  1  0  0  0
 76149  1  0  0  0
 76150  1  0  0  0
 77151  1  0  0  0
 77152  1  0  0  0
 77153  1  0  0  0
 77 83  1  0  0  0
 78 83  1  0  0  0
 78154  1  0  0  0
 78155  1  0  0  0
 78156  1  0  0  0
 79 86  1  0  0  0
 79157  1  0  0  0
 79158  1  0  0  0
 80 83  1  0  0  0
 80 84  1  0  0  0
 80159  1  0  0  0
 80160  1  0  0  0
 81 82  1  0  0  0
 81 85  1  0  0  0
 81161  1  0  0  0
 81162  1  0  0  0
 82163  1  0  0  0
 82164  1  0  0  0
 83165  1  0  0  0
 85166  1  0  0  0
 86167  1  0  0  0
M  ISO  4   1 100  68 101  82 101  86 100
M  END
> <chiral flag>
0

> <version>
0

> <s_m_source_file>
/data/baiqing/PycharmProjects/Reinvent-master-3.2/result/LINK_invent/BTK/process_docking_weight1_custom_sum_contain_oxygen_bond_distance_aromatic_linkinvent_7_9_3/rearranged_h_0111.sdf

> <i_m_source_file_index>
58

> <r_mmod_Potential_Energy-OPLS-2005>
-102.751243591309

> <r_mmod_Stretch_Energy-OPLS-2005>
61.4463005065918

> <r_mmod_Bend_Energy-OPLS-2005>
151.615020751953

> <r_mmod_Torsional_Energy-OPLS-2005>
213.594741821289

> <r_mmod_Improper_Torsional_Energy-OPLS-2005>
4.76175594329834

> <r_mmod_Van_der_Waal_Energy-OPLS-2005>
119.174102783203

> <r_mmod_Electrostatic_Energy-OPLS-2005>
-461.591125488281

> <r_mmod_Solvation_Energy-OPLS-2005>
-221.839752197266

> <b_mmod_Minimization_Converged-OPLS-2005>
0

> <r_mmod_RMS_Derivative-OPLS-2005>
5.47032165527344

$$$$
58
                    3D
 Structure written by MMmdl.
168176  0  0  1  0            999 V2000
  -30.4239  -15.2632   20.3957 C   0  0  0  0  0  0
  -30.4454  -12.8199   19.5092 C   0  0  0  0  0  0
  -29.5346  -12.5859   18.2764 C   0  0  0  0  0  0
  -28.0776  -12.3125   18.6982 C   0  0  0  0  0  0
  -27.6105  -13.2734   19.8200 C   0  0  2  0  0  0
  -28.6498  -13.4339   20.9495 C   0  0  0  0  0  0
  -25.2384  -13.8242   20.5739 C   0  0  0  0  0  0
  -24.1734  -13.0427   20.9249 C   0  0  0  0  0  0
  -24.6404  -11.6933   20.8764 C   0  0  0  0  0  0
  -23.9103  -10.4290   21.0410 C   0  0  0  0  0  0
  -24.3648   -9.4214   21.9195 C   0  0  0  0  0  0
  -23.6313   -8.2250   22.0755 C   0  0  0  0  0  0
  -22.4301   -8.0289   21.3539 C   0  0  0  0  0  0
  -21.9950   -9.0256   20.4642 C   0  0  0  0  0  0
  -22.7278  -10.2139   20.3055 C   0  0  0  0  0  0
  -21.6862   -6.0764   22.5288 C   0  0  0  0  0  0
  -21.4018   -6.5653   23.8231 C   0  0  0  0  0  0
  -21.3655   -5.6788   24.9174 C   0  0  0  0  0  0
  -21.6049   -4.3058   24.7219 C   0  0  0  0  0  0
  -21.8813   -3.8165   23.4330 C   0  0  0  0  0  0
  -21.9196   -4.6988   22.3397 C   0  0  0  0  0  0
  -22.7756  -13.5185   21.1875 C   0  0  0  0  0  0
  -22.1661   -4.2186   21.0971 F   0  0  0  0  0  0
  -21.5629   -3.4536   25.7725 F   0  0  0  0  0  0
  -29.8728  -13.9557   20.3155 N   0  0  0  0  0  0
  -26.2814  -12.9512   20.3219 N   0  0  0  0  0  0
  -25.9351  -11.6625   20.5744 N   0  0  0  0  0  0
  -22.0405  -12.8178   22.0434 N   0  0  0  0  0  0
  -25.3973  -15.1971   20.4171 N   0  0  0  0  0  0
  -31.6546  -15.2807   20.2602 O   0  0  0  0  0  0
  -21.6645   -6.8905   21.4252 O   0  0  0  0  0  0
  -22.3455  -14.5490   20.6717 O   0  0  0  0  0  0
  -24.6622  -31.8215   23.1690 C   0  0  0  0  0  0
  -25.9320  -32.4553   23.8145 C   0  0  1  0  0  0
  -27.2167  -26.9132   20.2001 C   0  0  0  0  0  0
  -25.5995  -33.8367   24.2059 N   0  0  0  0  0  0
  -23.4763  -30.4333   21.5209 C   0  0  2  0  0  0
  -24.9317  -28.8184   20.1164 C   0  0  0  0  0  0
  -22.7665  -29.4411   22.4798 C   0  0  0  0  0  0
  -18.0322  -28.1413   22.8460 C   0  0  0  0  0  0
  -24.1485  -36.7187   23.2660 C   0  0  0  0  0  0
  -26.0458  -30.6284   21.3957 C   0  0  0  0  0  0
  -26.1143  -29.2146   20.7491 C   0  0  0  0  0  0
  -27.2520  -28.2860   20.7626 C   0  0  0  0  0  0
  -26.0055  -26.6756   19.5107 C   0  0  0  0  0  0
  -24.9037  -27.5715   19.4739 C   0  0  0  0  0  0
  -23.7189  -29.7483   20.1487 C   0  0  0  0  0  0
  -25.4133  -36.2937   24.0298 C   0  0  1  0  0  0
  -20.5948  -28.3723   23.1215 C   0  0  2  0  0  0
  -20.6802  -26.9401   22.5421 C   0  0  0  0  0  0
  -19.5773  -26.6360   21.5238 C   0  0  0  0  0  0
  -18.1951  -26.7956   22.1613 C   0  0  0  0  0  0
  -19.1590  -28.8889   23.2823 C   0  0  0  0  0  0
  -18.9504  -30.1495   23.8833 C   0  0  0  0  0  0
  -17.6503  -30.6597   24.0534 C   0  0  0  0  0  0
  -25.9095  -34.9319   23.4990 C   0  0  0  0  0  0
  -16.5389  -29.9079   23.6331 C   0  0  0  0  0  0
  -16.7312  -28.6500   23.0340 C   0  0  0  0  0  0
  -26.4547  -31.6507   25.0674 C   0  0  0  0  0  0
  -25.3683  -31.3742   26.1331 C   0  0  0  0  0  0
  -27.0440  -30.2884   24.6386 C   0  0  0  0  0  0
  -27.6031  -32.4307   25.7517 C   0  0  0  0  0  0
  -27.5544  -37.1744   24.8480 C   0  0  0  0  0  0
  -21.4324  -29.3023   22.3568 N   0  0  0  0  0  0
  -26.4255  -37.3693   23.9427 N   0  0  0  0  0  0
  -24.7503  -30.9875   22.0836 N   0  0  0  0  0  0
  -23.4225  -28.7980   23.3024 O   0  0  0  0  0  0
  -28.2344  -25.8127   20.2379 O   0  0  0  0  0  0
  -26.5698  -34.8858   22.4570 O   0  0  0  0  0  0
  -23.5690  -32.1175   23.6795 O   0  0  0  0  0  0
  -31.1376  -20.0960   21.6709 C   0  0  0  0  0  0
  -30.8929  -18.5525   21.6067 C   0  0  0  0  0  0
  -29.8762  -20.9985   21.9000 C   0  0  0  0  0  0
  -29.1131  -19.6299   19.9691 C   0  0  0  0  0  0
  -29.6378  -18.1447   20.8014 C   0  0  1  0  0  0
  -26.3146  -23.0639   24.5941 C   0  0  0  0  0  0
  -24.0763  -23.3884   23.4438 C   0  0  0  0  0  0
  -28.9570  -22.6689   20.0693 C   0  0  0  0  0  0
  -27.5615  -24.1109   21.9516 C   0  0  0  0  0  0
  -25.5631  -23.7921   23.4607 C   0  0  0  0  0  0
  -28.0084  -24.1749   20.4648 C   0  0  1  0  0  0
  -29.6140  -16.5061   20.4262 N   0  0  0  0  0  0
  -28.9718  -21.1050   20.7105 N   0  3  2  0  0  0
  -26.1850  -23.5640   22.1309 N   0  3  0  0  0  0
  -31.4586  -13.0455   19.1723 H   0  0  0  0  0  0
  -30.5316  -11.9168   20.1139 H   0  0  0  0  0  0
  -29.9124  -11.7587   17.6763 H   0  0  0  0  0  0
  -29.5634  -13.4690   17.6370 H   0  0  0  0  0  0
  -28.0177  -11.2805   19.0441 H   0  0  0  0  0  0
  -27.4132  -12.3799   17.8357 H   0  0  0  0  0  0
  -27.5278  -14.2446   19.3327 H   0  0  0  0  0  0
  -28.8232  -12.4903   21.4686 H   0  0  0  0  0  0
  -28.2899  -14.1360   21.7036 H   0  0  0  0  0  0
  -25.2796   -9.5684   22.4780 H   0  0  0  0  0  0
  -24.0030   -7.4645   22.7472 H   0  0  0  0  0  0
  -21.0892   -8.8764   19.8938 H   0  0  0  0  0  0
  -22.3736  -10.9671   19.6163 H   0  0  0  0  0  0
  -21.2005   -7.6165   23.9750 H   0  0  0  0  0  0
  -21.1485   -6.0513   25.9084 H   0  0  0  0  0  0
  -22.0599   -2.7635   23.2819 H   0  0  0  0  0  0
  -22.4025  -11.9847   22.4821 H   0  0  0  0  0  0
  -21.1022  -13.1208   22.2618 H   0  0  0  0  0  0
  -24.6156  -15.8357   20.5112 H   0  0  0  0  0  0
  -26.2289  -15.6422   20.0538 H   0  0  0  0  0  0
  -26.7378  -32.5108   23.0846 H   0  0  0  0  0  0
  -25.0132  -33.9455   25.0213 H   0  0  0  0  0  0
  -22.7880  -31.2646   21.3480 H   0  0  0  0  0  0
  -23.3737  -35.9528   23.3303 H   0  0  0  0  0  0
  -24.3570  -36.8852   22.2078 H   0  0  0  0  0  0
  -23.7247  -37.6368   23.6731 H   0  0  0  0  0  0
  -26.2181  -31.3663   20.6115 H   0  0  0  0  0  0
  -26.9072  -30.6926   22.0460 H   0  0  0  0  0  0
  -28.1490  -28.5969   21.2787 H   0  0  0  0  0  0
  -25.8798  -25.7325   19.0013 H   0  0  0  0  0  0
  -24.0096  -27.2646   18.9490 H   0  0  0  0  0  0
  -23.8775  -30.5143   19.3879 H   0  0  0  0  0  0
  -22.8292  -29.2059   19.8291 H   0  0  0  0  0  0
  -25.1337  -36.1689   25.0785 H   0  0  0  0  0  0
  -21.0014  -28.3305   24.1349 H   0  0  0  0  0  0
  -20.5714  -26.2308   23.3639 H   0  0  0  0  0  0
  -21.6660  -26.7432   22.1201 H   0  0  0  0  0  0
  -19.6930  -25.6269   21.1270 H   0  0  0  0  0  0
  -19.6717  -27.3157   20.6763 H   0  0  0  0  0  0
  -17.4222  -26.6710   21.3996 H   0  0  0  0  0  0
  -18.0319  -26.0147   22.9039 H   0  0  0  0  0  0
  -19.7981  -30.7337   24.2150 H   0  0  0  0  0  0
  -17.5047  -31.6268   24.5147 H   0  0  0  0  0  0
  -15.5377  -30.2944   23.7730 H   0  0  0  0  0  0
  -15.8707  -28.0814   22.7082 H   0  0  0  0  0  0
  -24.5921  -30.7022   25.7647 H   0  0  0  0  0  0
  -24.8807  -32.2928   26.4600 H   0  0  0  0  0  0
  -25.7928  -30.9018   27.0210 H   0  0  0  0  0  0
  -26.3102  -29.6552   24.1387 H   0  0  0  0  0  0
  -27.3998  -29.7233   25.5022 H   0  0  0  0  0  0
  -27.9011  -30.4082   23.9768 H   0  0  0  0  0  0
  -27.2628  -33.3691   26.1916 H   0  0  0  0  0  0
  -28.3966  -32.6740   25.0431 H   0  0  0  0  0  0
  -28.0544  -31.8534   26.5597 H   0  0  0  0  0  0
  -28.2540  -38.0059   24.7525 H   0  0  0  0  0  0
  -28.1042  -36.2574   24.6295 H   0  0  0  0  0  0
  -27.2257  -37.1400   25.8885 H   0  0  0  0  0  0
  -20.9570  -29.8714   21.6702 H   0  0  0  0  0  0
  -26.0050  -38.2723   24.1468 H   0  0  0  0  0  0
  -31.6443  -20.4161   20.7607 H   0  0  0  0  0  0
  -31.8539  -20.2849   22.4724 H   0  0  0  0  0  0
  -30.8134  -18.1536   22.6208 H   0  0  0  0  0  0
  -31.7807  -18.0847   21.1808 H   0  0  0  0  0  0
  -30.2017  -21.9879   22.2208 H   0  0  0  0  0  0
  -29.3041  -20.5974   22.7376 H   0  0  0  0  0  0
  -28.1635  -19.4300   19.4744 H   0  0  0  0  0  0
  -29.8155  -19.7867   19.1486 H   0  0  0  0  0  0
  -28.8572  -18.1128   21.5637 H   0  0  0  0  0  0
  -25.8614  -23.2886   25.5603 H   0  0  0  0  0  0
  -27.3568  -23.3738   24.6648 H   0  0  0  0  0  0
  -26.2929  -21.9802   24.4674 H   0  0  0  0  0  0
  -23.5789  -23.6733   24.3736 H   0  0  0  0  0  0
  -23.9488  -22.3110   23.3289 H   0  0  0  0  0  0
  -23.5286  -23.8679   22.6313 H   0  0  0  0  0  0
  -29.9961  -22.9865   20.1392 H   0  0  0  0  0  0
  -28.8271  -22.5223   18.9965 H   0  0  0  0  0  0
  -27.5863  -25.1129   22.3790 H   0  0  0  0  0  0
  -28.2855  -23.5378   22.5288 H   0  0  0  0  0  0
  -25.6020  -24.8650   23.6563 H   0  0  0  0  0  0
  -27.1098  -24.0164   19.8672 H   0  0  0  0  0  0
  -28.6506  -16.2197   20.3333 H   0  0  0  0  0  0
  -28.0481  -21.0179   21.1051 H   0  0  0  0  0  0
  -26.1525  -22.5796   21.9130 H   0  0  0  0  0  0
  -25.5865  -24.0283   21.4643 H   0  0  0  0  0  0
  1 25  1  0  0  0
  1 30  2  0  0  0
  1 82  1  0  0  0
  2  3  1  0  0  0
  2 25  1  0  0  0
  2 85  1  0  0  0
  2 86  1  0  0  0
  3  4  1  0  0  0
  3 87  1  0  0  0
  3 88  1  0  0  0
  4  5  1  0  0  0
  4 89  1  0  0  0
  4 90  1  0  0  0
  5  6  1  0  0  0
  5 26  1  0  0  0
  5 91  1  0  0  0
  6 25  1  0  0  0
  6 92  1  0  0  0
  6 93  1  0  0  0
  7  8  2  0  0  0
  7 26  1  0  0  0
  7 29  1  0  0  0
  8  9  1  0  0  0
  8 22  1  0  0  0
  9 10  1  0  0  0
  9 27  2  0  0  0
 10 11  2  0  0  0
 10 15  1  0  0  0
 11 12  1  0  0  0
 11 94  1  0  0  0
 12 13  2  0  0  0
 12 95  1  0  0  0
 13 14  1  0  0  0
 13 31  1  0  0  0
 14 15  2  0  0  0
 14 96  1  0  0  0
 15 97  1  0  0  0
 16 17  2  0  0  0
 16 21  1  0  0  0
 16 31  1  0  0  0
 17 18  1  0  0  0
 17 98  1  0  0  0
 18 19  2  0  0  0
 18 99  1  0  0  0
 19 20  1  0  0  0
 19 24  1  0  0  0
 20 21  2  0  0  0
 20100  1  0  0  0
 21 23  1  0  0  0
 22 28  1  0  0  0
 22 32  2  0  0  0
 26 27  1  0  0  0
 28101  1  0  0  0
 28102  1  0  0  0
 29103  1  0  0  0
 29104  1  0  0  0
 33 34  1  0  0  0
 33 66  1  0  0  0
 33 70  2  0  0  0
 34 36  1  0  0  0
 34 59  1  0  0  0
 34105  1  0  0  0
 35 44  2  0  0  0
 35 45  1  0  0  0
 35 68  1  0  0  0
 36 56  1  0  0  0
 36106  1  0  0  0
 37 39  1  0  0  0
 37 47  1  0  0  0
 37 66  1  0  0  0
 37107  1  0  0  0
 38 43  2  0  0  0
 38 46  1  0  0  0
 38 47  1  0  0  0
 39 64  1  0  0  0
 39 67  2  0  0  0
 40 52  1  0  0  0
 40 53  2  0  0  0
 40 58  1  0  0  0
 41108  1  0  0  0
 41109  1  0  0  0
 41110  1  0  0  0
 41 48  1  0  0  0
 42 43  1  0  0  0
 42 66  1  0  0  0
 42111  1  0  0  0
 42112  1  0  0  0
 43 44  1  0  0  0
 44113  1  0  0  0
 45 46  2  0  0  0
 45114  1  0  0  0
 46115  1  0  0  0
 47116  1  0  0  0
 47117  1  0  0  0
 48 56  1  0  0  0
 48 65  1  0  0  0
 48118  1  0  0  0
 49 50  1  0  0  0
 49 53  1  0  0  0
 49 64  1  0  0  0
 49119  1  0  0  0
 50 51  1  0  0  0
 50120  1  0  0  0
 50121  1  0  0  0
 51 52  1  0  0  0
 51122  1  0  0  0
 51123  1  0  0  0
 52124  1  0  0  0
 52125  1  0  0  0
 53 54  1  0  0  0
 54 55  2  0  0  0
 54126  1  0  0  0
 55 57  1  0  0  0
 55127  1  0  0  0
 56 69  2  0  0  0
 57 58  2  0  0  0
 57128  1  0  0  0
 58129  1  0  0  0
 59 60  1  0  0  0
 59 61  1  0  0  0
 59 62  1  0  0  0
 60130  1  0  0  0
 60131  1  0  0  0
 60132  1  0  0  0
 61133  1  0  0  0
 61134  1  0  0  0
 61135  1  0  0  0
 62136  1  0  0  0
 62137  1  0  0  0
 62138  1  0  0  0
 63 65  1  0  0  0
 63139  1  0  0  0
 63140  1  0  0  0
 63141  1  0  0  0
 64142  1  0  0  0
 65143  1  0  0  0
 68 81  1  0  0  0
 71 72  1  0  0  0
 71 73  1  0  0  0
 71144  1  0  0  0
 71145  1  0  0  0
 72 75  1  0  0  0
 72146  1  0  0  0
 72147  1  0  0  0
 73 83  1  0  0  0
 73148  1  0  0  0
 73149  1  0  0  0
 74 75  1  0  0  0
 74 83  1  0  0  0
 74150  1  0  0  0
 74151  1  0  0  0
 75 82  1  0  0  0
 75152  1  0  0  0
 76153  1  0  0  0
 76154  1  0  0  0
 76155  1  0  0  0
 76 80  1  0  0  0
 77 80  1  0  0  0
 77156  1  0  0  0
 77157  1  0  0  0
 77158  1  0  0  0
 78159  1  0  0  0
 78160  1  0  0  0
 78 81  1  0  0  0
 78 83  1  0  0  0
 79 81  1  0  0  0
 79 84  1  0  0  0
 79161  1  0  0  0
 79162  1  0  0  0
 80 84  1  0  0  0
 80163  1  0  0  0
 81164  1  0  0  0
 82165  1  0  0  0
 83166  1  0  0  0
 84167  1  0  0  0
 84168  1  0  0  0
M  CHG  2  83   1  84   1
M  ISO  4   1 100  68 101  81 101  82 100
M  END
> <chiral flag>
0

> <version>
0

> <s_m_source_file>
/data/baiqing/PycharmProjects/Reinvent-master-3.2/result/LINK_invent/BTK/process_docking_weight1_custom_sum_contain_oxygen_bond_distance_aromatic_linkinvent_7_9_3/rearranged_h_0111.sdf

> <i_m_source_file_index>
59

> <r_mmod_Potential_Energy-OPLS-2005>
1116.345703125

> <r_mmod_Stretch_Energy-OPLS-2005>
627.099487304688

> <r_mmod_Bend_Energy-OPLS-2005>
480.157440185547

> <r_mmod_Torsional_Energy-OPLS-2005>
309.778411865234

> <r_mmod_Improper_Torsional_Energy-OPLS-2005>
4.60125923156738

> <r_mmod_Van_der_Waal_Energy-OPLS-2005>
108.721076965332

> <r_mmod_Electrostatic_Energy-OPLS-2005>
126.167198181152

> <r_mmod_Solvation_Energy-OPLS-2005>
-1005.38977050781

> <b_mmod_Minimization_Converged-OPLS-2005>
0

> <r_mmod_RMS_Derivative-OPLS-2005>
3.81044816970825

$$$$
59
                    3D
 Structure written by MMmdl.
143150  0  0  1  0            999 V2000
  -30.1599  -16.0065   20.3092 C   0  0  0  0  0  0
  -30.3935  -13.3731   19.5187 C   0  0  0  0  0  0
  -29.5598  -12.7500   18.3505 C   0  0  0  0  0  0
  -28.1676  -12.3099   18.8210 C   0  0  0  0  0  0
  -27.5835  -13.3433   19.8034 C   0  0  2  0  0  0
  -28.5790  -13.8376   20.8884 C   0  0  0  0  0  0
  -25.2276  -13.8328   20.5855 C   0  0  0  0  0  0
  -24.1698  -13.0433   20.9315 C   0  0  0  0  0  0
  -24.6450  -11.6959   20.8763 C   0  0  0  0  0  0
  -23.9156  -10.4293   21.0382 C   0  0  0  0  0  0
  -24.3676   -9.4205   21.9172 C   0  0  0  0  0  0
  -23.6325   -8.2252   22.0752 C   0  0  0  0  0  0
  -22.4304   -8.0294   21.3544 C   0  0  0  0  0  0
  -21.9959   -9.0272   20.4641 C   0  0  0  0  0  0
  -22.7315  -10.2137   20.3040 C   0  0  0  0  0  0
  -21.6864   -6.0746   22.5278 C   0  0  0  0  0  0
  -21.4023   -6.5646   23.8213 C   0  0  0  0  0  0
  -21.3661   -5.6796   24.9173 C   0  0  0  0  0  0
  -21.6043   -4.3059   24.7223 C   0  0  0  0  0  0
  -21.8818   -3.8152   23.4343 C   0  0  0  0  0  0
  -21.9196   -4.6971   22.3400 C   0  0  0  0  0  0
  -22.7700  -13.5135   21.1936 C   0  0  0  0  0  0
  -22.1661   -4.2155   21.0978 F   0  0  0  0  0  0
  -21.5626   -3.4540   25.7734 F   0  0  0  0  0  0
  -29.6765  -14.5824   20.1908 N   0  0  0  0  0  0
  -26.2769  -12.9729   20.3291 N   0  0  0  0  0  0
  -25.9413  -11.6759   20.5683 N   0  0  0  0  0  0
  -22.0375  -12.8102   22.0487 N   0  0  0  0  0  0
  -25.3813  -15.2077   20.4302 N   0  0  0  0  0  0
  -31.4074  -15.8745   20.2870 O   0  0  0  0  0  0
  -21.6655   -6.8897   21.4243 O   0  0  0  0  0  0
  -22.3364  -14.5430   20.6772 O   0  0  0  0  0  0
  -24.7088  -31.7706   23.1300 C   0  0  0  0  0  0
  -25.9546  -32.4324   23.7941 C   0  0  1  0  0  0
  -27.2351  -26.4397   20.2498 C   0  0  0  0  0  0
  -25.6017  -33.8161   24.1804 N   0  0  0  0  0  0
  -23.5464  -30.3611   21.4912 C   0  0  2  0  0  0
  -25.0042  -28.6432   20.1351 C   0  0  0  0  0  0
  -22.7877  -29.4165   22.4652 C   0  0  0  0  0  0
  -18.0356  -28.1437   22.8444 C   0  0  0  0  0  0
  -24.1495  -36.7090   23.2660 C   0  0  0  0  0  0
  -26.1378  -30.4180   21.4325 C   0  0  0  0  0  0
  -26.2003  -28.9512   20.7933 C   0  0  0  0  0  0
  -27.2910  -27.8892   20.8034 C   0  0  0  0  0  0
  -25.9989  -26.4062   19.5352 C   0  0  0  0  0  0
  -24.9576  -27.3983   19.4806 C   0  0  0  0  0  0
  -23.8150  -29.6324   20.1399 C   0  0  0  0  0  0
  -25.4155  -36.2810   24.0263 C   0  0  1  0  0  0
  -20.6002  -28.3808   23.1097 C   0  0  2  0  0  0
  -20.6809  -26.9445   22.5407 C   0  0  0  0  0  0
  -19.5788  -26.6365   21.5221 C   0  0  0  0  0  0
  -18.1971  -26.7960   22.1618 C   0  0  0  0  0  0
  -19.1628  -28.8953   23.2743 C   0  0  0  0  0  0
  -18.9529  -30.1529   23.8801 C   0  0  0  0  0  0
  -17.6516  -30.6613   24.0547 C   0  0  0  0  0  0
  -25.9151  -34.9209   23.4888 C   0  0  0  0  0  0
  -16.5404  -29.9089   23.6358 C   0  0  0  0  0  0
  -16.7334  -28.6513   23.0374 C   0  0  0  0  0  0
  -26.4637  -31.6464   25.0670 C   0  0  0  0  0  0
  -25.3632  -31.3855   26.1237 C   0  0  0  0  0  0
  -27.0608  -30.2776   24.6751 C   0  0  0  0  0  0
  -27.6035  -32.4384   25.7504 C   0  0  0  0  0  0
  -27.5552  -37.1703   24.8469 C   0  0  0  0  0  0
  -21.4502  -29.3008   22.3393 N   0  0  0  0  0  0
  -26.4259  -37.3599   23.9406 N   0  0  0  0  0  0
  -24.8245  -30.8895   22.0697 N   0  0  0  0  0  0
  -23.4199  -28.7806   23.3115 O   0  0  0  0  0  0
  -28.1914  -25.1207   20.2210 O   0  0  0  0  0  0
  -26.5825  -34.8839   22.4530 O   0  0  0  0  0  0
  -23.6051  -32.0900   23.6090 O   0  0  0  0  0  0
  -28.4216  -23.2845   22.0223 C   0  0  0  0  0  0
  -28.7925  -21.2930   20.0002 C   0  0  0  0  0  0
  -29.3429  -19.3540   20.6135 C   0  0  0  0  0  0
  -28.1751  -23.2455   20.5121 C   0  0  2  0  0  0
  -29.4056  -17.4715   20.2727 N   0  0  0  0  0  0
  -31.3452  -13.7045   19.1023 H   0  0  0  0  0  0
  -30.6649  -12.6111   20.2517 H   0  0  0  0  0  0
  -30.0922  -11.9093   17.9040 H   0  0  0  0  0  0
  -29.4499  -13.4960   17.5621 H   0  0  0  0  0  0
  -28.2674  -11.3482   19.3260 H   0  0  0  0  0  0
  -27.5011  -12.1497   17.9724 H   0  0  0  0  0  0
  -27.3919  -14.2096   19.1681 H   0  0  0  0  0  0
  -28.9347  -13.0228   21.5213 H   0  0  0  0  0  0
  -28.0766  -14.5368   21.5582 H   0  0  0  0  0  0
  -25.2812   -9.5676   22.4762 H   0  0  0  0  0  0
  -24.0019   -7.4647   22.7484 H   0  0  0  0  0  0
  -21.0886   -8.8807   19.8949 H   0  0  0  0  0  0
  -22.3774  -10.9680   19.6153 H   0  0  0  0  0  0
  -21.2021   -7.6154   23.9718 H   0  0  0  0  0  0
  -21.1482   -6.0525   25.9076 H   0  0  0  0  0  0
  -22.0594   -2.7614   23.2843 H   0  0  0  0  0  0
  -22.4032  -11.9782   22.4878 H   0  0  0  0  0  0
  -21.0976  -13.1082   22.2684 H   0  0  0  0  0  0
  -24.6087  -15.8546   20.5472 H   0  0  0  0  0  0
  -26.2272  -15.6549   20.1031 H   0  0  0  0  0  0
  -26.7655  -32.4735   23.0669 H   0  0  0  0  0  0
  -25.0040  -33.9150   24.9877 H   0  0  0  0  0  0
  -22.8868  -31.2048   21.2777 H   0  0  0  0  0  0
  -23.3778  -35.9396   23.3257 H   0  0  0  0  0  0
  -24.3553  -36.8832   22.2088 H   0  0  0  0  0  0
  -23.7238  -37.6235   23.6799 H   0  0  0  0  0  0
  -26.3643  -31.1220   20.6307 H   0  0  0  0  0  0
  -26.9807  -30.4993   22.1059 H   0  0  0  0  0  0
  -28.1959  -28.1515   21.3333 H   0  0  0  0  0  0
  -25.7912  -25.4857   19.0078 H   0  0  0  0  0  0
  -24.0634  -27.1476   18.9263 H   0  0  0  0  0  0
  -24.0156  -30.3794   19.3710 H   0  0  0  0  0  0
  -22.9138  -29.1139   19.8081 H   0  0  0  0  0  0
  -25.1378  -36.1535   25.0752 H   0  0  0  0  0  0
  -21.0077  -28.3451   24.1226 H   0  0  0  0  0  0
  -20.5652  -26.2441   23.3691 H   0  0  0  0  0  0
  -21.6668  -26.7350   22.1239 H   0  0  0  0  0  0
  -19.6939  -25.6249   21.1314 H   0  0  0  0  0  0
  -19.6736  -27.3123   20.6710 H   0  0  0  0  0  0
  -17.4241  -26.6707   21.4018 H   0  0  0  0  0  0
  -18.0348  -26.0126   22.9035 H   0  0  0  0  0  0
  -19.8004  -30.7370   24.2129 H   0  0  0  0  0  0
  -17.5065  -31.6283   24.5168 H   0  0  0  0  0  0
  -15.5400  -30.2961   23.7737 H   0  0  0  0  0  0
  -15.8735  -28.0798   22.7145 H   0  0  0  0  0  0
  -24.5860  -30.7164   25.7527 H   0  0  0  0  0  0
  -24.8779  -32.3100   26.4375 H   0  0  0  0  0  0
  -25.7750  -30.9204   27.0202 H   0  0  0  0  0  0
  -26.3374  -29.6311   24.1777 H   0  0  0  0  0  0
  -27.3970  -29.7326   25.5582 H   0  0  0  0  0  0
  -27.9376  -30.3845   24.0364 H   0  0  0  0  0  0
  -27.2545  -33.3786   26.1785 H   0  0  0  0  0  0
  -28.3997  -32.6783   25.0445 H   0  0  0  0  0  0
  -28.0537  -31.8717   26.5665 H   0  0  0  0  0  0
  -28.2531  -38.0031   24.7505 H   0  0  0  0  0  0
  -28.1084  -36.2550   24.6312 H   0  0  0  0  0  0
  -27.2265  -37.1355   25.8870 H   0  0  0  0  0  0
  -20.9868  -29.8624   21.6385 H   0  0  0  0  0  0
  -26.0063  -38.2635   24.1418 H   0  0  0  0  0  0
  -28.1887  -22.3246   22.4837 H   0  0  0  0  0  0
  -27.8031  -24.0409   22.5061 H   0  0  0  0  0  0
  -29.4646  -23.5151   22.2391 H   0  0  0  0  0  0
  -28.0253  -21.0494   19.2652 H   0  0  0  0  0  0
  -29.6493  -21.5319   19.3702 H   0  0  0  0  0  0
  -28.7841  -19.3052   21.5485 H   0  0  0  0  0  0
  -30.3661  -19.5183   20.9524 H   0  0  0  0  0  0
  -27.0994  -23.1024   20.4048 H   0  0  0  0  0  0
  -28.4475  -17.2145   20.0756 H   0  0  0  0  0  0
  1 25  1  0  0  0
  1 30  2  0  0  0
  1 75  1  0  0  0
  2  3  1  0  0  0
  2 25  1  0  0  0
  2 76  1  0  0  0
  2 77  1  0  0  0
  3  4  1  0  0  0
  3 78  1  0  0  0
  3 79  1  0  0  0
  4  5  1  0  0  0
  4 80  1  0  0  0
  4 81  1  0  0  0
  5  6  1  0  0  0
  5 26  1  0  0  0
  5 82  1  0  0  0
  6 25  1  0  0  0
  6 83  1  0  0  0
  6 84  1  0  0  0
  7  8  2  0  0  0
  7 26  1  0  0  0
  7 29  1  0  0  0
  8  9  1  0  0  0
  8 22  1  0  0  0
  9 10  1  0  0  0
  9 27  2  0  0  0
 10 11  2  0  0  0
 10 15  1  0  0  0
 11 12  1  0  0  0
 11 85  1  0  0  0
 12 13  2  0  0  0
 12 86  1  0  0  0
 13 14  1  0  0  0
 13 31  1  0  0  0
 14 15  2  0  0  0
 14 87  1  0  0  0
 15 88  1  0  0  0
 16 17  2  0  0  0
 16 21  1  0  0  0
 16 31  1  0  0  0
 17 18  1  0  0  0
 17 89  1  0  0  0
 18 19  2  0  0  0
 18 90  1  0  0  0
 19 20  1  0  0  0
 19 24  1  0  0  0
 20 21  2  0  0  0
 20 91  1  0  0  0
 21 23  1  0  0  0
 22 28  1  0  0  0
 22 32  2  0  0  0
 26 27  1  0  0  0
 28 92  1  0  0  0
 28 93  1  0  0  0
 29 94  1  0  0  0
 29 95  1  0  0  0
 33 34  1  0  0  0
 33 66  1  0  0  0
 33 70  2  0  0  0
 34 36  1  0  0  0
 34 59  1  0  0  0
 34 96  1  0  0  0
 35 44  2  0  0  0
 35 45  1  0  0  0
 35 68  1  0  0  0
 36 56  1  0  0  0
 36 97  1  0  0  0
 37 39  1  0  0  0
 37 47  1  0  0  0
 37 66  1  0  0  0
 37 98  1  0  0  0
 38 43  2  0  0  0
 38 46  1  0  0  0
 38 47  1  0  0  0
 39 64  1  0  0  0
 39 67  2  0  0  0
 40 52  1  0  0  0
 40 53  2  0  0  0
 40 58  1  0  0  0
 41 99  1  0  0  0
 41100  1  0  0  0
 41101  1  0  0  0
 41 48  1  0  0  0
 42 43  1  0  0  0
 42 66  1  0  0  0
 42102  1  0  0  0
 42103  1  0  0  0
 43 44  1  0  0  0
 44104  1  0  0  0
 45 46  2  0  0  0
 45105  1  0  0  0
 46106  1  0  0  0
 47107  1  0  0  0
 47108  1  0  0  0
 48 56  1  0  0  0
 48 65  1  0  0  0
 48109  1  0  0  0
 49 50  1  0  0  0
 49 53  1  0  0  0
 49 64  1  0  0  0
 49110  1  0  0  0
 50 51  1  0  0  0
 50111  1  0  0  0
 50112  1  0  0  0
 51 52  1  0  0  0
 51113  1  0  0  0
 51114  1  0  0  0
 52115  1  0  0  0
 52116  1  0  0  0
 53 54  1  0  0  0
 54 55  2  0  0  0
 54117  1  0  0  0
 55 57  1  0  0  0
 55118  1  0  0  0
 56 69  2  0  0  0
 57 58  2  0  0  0
 57119  1  0  0  0
 58120  1  0  0  0
 59 60  1  0  0  0
 59 61  1  0  0  0
 59 62  1  0  0  0
 60121  1  0  0  0
 60122  1  0  0  0
 60123  1  0  0  0
 61124  1  0  0  0
 61125  1  0  0  0
 61126  1  0  0  0
 62127  1  0  0  0
 62128  1  0  0  0
 62129  1  0  0  0
 63 65  1  0  0  0
 63130  1  0  0  0
 63131  1  0  0  0
 63132  1  0  0  0
 64133  1  0  0  0
 65134  1  0  0  0
 68 74  1  0  0  0
 71135  1  0  0  0
 71136  1  0  0  0
 71137  1  0  0  0
 71 74  1  0  0  0
 72 73  1  0  0  0
 72 74  1  0  0  0
 72138  1  0  0  0
 72139  1  0  0  0
 73 75  1  0  0  0
 73140  1  0  0  0
 73141  1  0  0  0
 74142  1  0  0  0
 75143  1  0  0  0
M  ISO  4   1 100  68 101  74 101  75 100
M  END
> <chiral flag>
0

> <version>
0

> <s_m_source_file>
/data/baiqing/PycharmProjects/Reinvent-master-3.2/result/LINK_invent/BTK/process_docking_weight1_custom_sum_contain_oxygen_bond_distance_aromatic_linkinvent_7_9_3/rearranged_h_0111.sdf

> <i_m_source_file_index>
60

> <r_mmod_Potential_Energy-OPLS-2005>
4163.64404296875

> <r_mmod_Stretch_Energy-OPLS-2005>
1928.9091796875

> <r_mmod_Bend_Energy-OPLS-2005>
898.639953613281

> <r_mmod_Torsional_Energy-OPLS-2005>
250.23063659668

> <r_mmod_Improper_Torsional_Energy-OPLS-2005>
5.06112670898438

> <r_mmod_Van_der_Waal_Energy-OPLS-2005>
111.411064147949

> <r_mmod_Electrostatic_Energy-OPLS-2005>
-349.921966552734

> <r_mmod_Solvation_Energy-OPLS-2005>
-219.875640869141

> <b_mmod_Minimization_Converged-OPLS-2005>
0

> <r_mmod_RMS_Derivative-OPLS-2005>
0.312528491020203

$$$$
60
                    3D
 Structure written by MMmdl.
149157  0  0  1  0            999 V2000
  -30.2895  -15.6131   20.3312 C   0  0  0  0  0  0
  -30.4329  -13.0639   19.5354 C   0  0  0  0  0  0
  -29.5528  -12.6507   18.3202 C   0  0  0  0  0  0
  -28.1235  -12.2984   18.7624 C   0  0  0  0  0  0
  -27.5986  -13.3030   19.8128 C   0  0  2  0  0  0
  -28.6180  -13.6184   20.9321 C   0  0  0  0  0  0
  -25.2333  -13.8263   20.5783 C   0  0  0  0  0  0
  -24.1720  -13.0423   20.9289 C   0  0  0  0  0  0
  -24.6418  -11.6934   20.8766 C   0  0  0  0  0  0
  -23.9117  -10.4287   21.0400 C   0  0  0  0  0  0
  -24.3652   -9.4200   21.9182 C   0  0  0  0  0  0
  -23.6312   -8.2242   22.0754 C   0  0  0  0  0  0
  -22.4292   -8.0286   21.3544 C   0  0  0  0  0  0
  -21.9939   -9.0262   20.4644 C   0  0  0  0  0  0
  -22.7284  -10.2132   20.3051 C   0  0  0  0  0  0
  -21.6857   -6.0741   22.5279 C   0  0  0  0  0  0
  -21.4017   -6.5643   23.8213 C   0  0  0  0  0  0
  -21.3660   -5.6794   24.9174 C   0  0  0  0  0  0
  -21.6044   -4.3057   24.7224 C   0  0  0  0  0  0
  -21.8818   -3.8150   23.4345 C   0  0  0  0  0  0
  -21.9194   -4.6968   22.3402 C   0  0  0  0  0  0
  -22.7733  -13.5161   21.1923 C   0  0  0  0  0  0
  -22.1662   -4.2153   21.0979 F   0  0  0  0  0  0
  -21.5627   -3.4540   25.7736 F   0  0  0  0  0  0
  -29.7951  -14.2386   20.2800 N   0  0  0  0  0  0
  -26.2783  -12.9592   20.3222 N   0  0  0  0  0  0
  -25.9363  -11.6669   20.5698 N   0  0  0  0  0  0
  -22.0395  -12.8139   22.0474 N   0  0  0  0  0  0
  -25.3911  -15.1999   20.4206 N   0  0  0  0  0  0
  -31.5258  -15.5916   20.1810 O   0  0  0  0  0  0
  -21.6646   -6.8888   21.4243 O   0  0  0  0  0  0
  -22.3411  -14.5461   20.6758 O   0  0  0  0  0  0
  -24.6846  -31.7997   23.1517 C   0  0  0  0  0  0
  -25.9424  -32.4467   23.8064 C   0  0  1  0  0  0
  -27.2280  -26.7010   20.2141 C   0  0  0  0  0  0
  -25.5999  -33.8292   24.1950 N   0  0  0  0  0  0
  -23.5110  -30.4017   21.5061 C   0  0  2  0  0  0
  -24.9689  -28.7430   20.1203 C   0  0  0  0  0  0
  -22.7771  -29.4315   22.4713 C   0  0  0  0  0  0
  -18.0340  -28.1423   22.8453 C   0  0  0  0  0  0
  -24.1495  -36.7153   23.2652 C   0  0  0  0  0  0
  -26.0925  -30.5324   21.4166 C   0  0  0  0  0  0
  -26.1593  -29.0969   20.7668 C   0  0  0  0  0  0
  -27.2752  -28.1050   20.7796 C   0  0  0  0  0  0
  -26.0032  -26.5588   19.5120 C   0  0  0  0  0  0
  -24.9301  -27.4990   19.4689 C   0  0  0  0  0  0
  -23.7655  -29.6987   20.1420 C   0  0  0  0  0  0
  -25.4146  -36.2896   24.0281 C   0  0  1  0  0  0
  -20.5975  -28.3784   23.1139 C   0  0  2  0  0  0
  -20.6805  -26.9442   22.5402 C   0  0  0  0  0  0
  -19.5781  -26.6371   21.5215 C   0  0  0  0  0  0
  -18.1964  -26.7950   22.1619 C   0  0  0  0  0  0
  -19.1606  -28.8928   23.2777 C   0  0  0  0  0  0
  -18.9511  -30.1511   23.8824 C   0  0  0  0  0  0
  -17.6501  -30.6604   24.0550 C   0  0  0  0  0  0
  -25.9127  -34.9285   23.4953 C   0  0  0  0  0  0
  -16.5390  -29.9086   23.6350 C   0  0  0  0  0  0
  -16.7319  -28.6508   23.0366 C   0  0  0  0  0  0
  -26.4599  -31.6502   25.0687 C   0  0  0  0  0  0
  -25.3663  -31.3821   26.1301 C   0  0  0  0  0  0
  -27.0532  -30.2839   24.6590 C   0  0  0  0  0  0
  -27.6046  -32.4363   25.7508 C   0  0  0  0  0  0
  -27.5564  -37.1735   24.8466 C   0  0  0  0  0  0
  -21.4418  -29.3030   22.3460 N   0  0  0  0  0  0
  -26.4272  -37.3656   23.9406 N   0  0  0  0  0  0
  -24.7863  -30.9439   22.0774 N   0  0  0  0  0  0
  -23.4212  -28.7914   23.3058 O   0  0  0  0  0  0
  -28.1834  -25.4735   20.2692 O   0  0  0  0  0  0
  -26.5767  -34.8863   22.4570 O   0  0  0  0  0  0
  -23.5864  -32.1071   23.6467 O   0  0  0  0  0  0
  -27.7956  -20.8346   19.6946 C   0  0  0  0  0  0
  -28.1109  -19.3535   19.7238 C   0  0  0  0  0  0
  -29.2889  -18.6418   20.2734 C   0  0  0  0  0  0
  -28.5410  -22.0046   20.1963 C   0  0  0  0  0  0
  -30.0191  -19.8656   20.7698 C   0  0  0  0  0  0
  -27.0490  -18.4570   19.1142 C   0  0  0  0  0  0
  -31.3370  -19.6063   21.4667 C   0  0  0  0  0  0
  -27.8396  -23.7524   20.2288 C   0  0  0  0  0  0
  -29.6833  -21.3177   20.7456 N   0  0  0  0  0  0
  -29.4441  -16.9183   20.3426 N   0  0  0  0  0  0
  -31.4242  -13.3355   19.1707 H   0  0  0  0  0  0
  -30.5966  -12.2161   20.2029 H   0  0  0  0  0  0
  -30.0021  -11.8100   17.7899 H   0  0  0  0  0  0
  -29.5167  -13.4778   17.6096 H   0  0  0  0  0  0
  -28.1458  -11.2981   19.1965 H   0  0  0  0  0  0
  -27.4543  -12.2474   17.9027 H   0  0  0  0  0  0
  -27.4657  -14.2288   19.2512 H   0  0  0  0  0  0
  -28.8735  -12.7292   21.5105 H   0  0  0  0  0  0
  -28.1901  -14.3316   21.6384 H   0  0  0  0  0  0
  -25.2792   -9.5672   22.4767 H   0  0  0  0  0  0
  -24.0011   -7.4634   22.7479 H   0  0  0  0  0  0
  -21.0868   -8.8791   19.8951 H   0  0  0  0  0  0
  -22.3744  -10.9675   19.6164 H   0  0  0  0  0  0
  -21.2012   -7.6152   23.9718 H   0  0  0  0  0  0
  -21.1482   -6.0524   25.9078 H   0  0  0  0  0  0
  -22.0596   -2.7612   23.2844 H   0  0  0  0  0  0
  -22.4035  -11.9815   22.4869 H   0  0  0  0  0  0
  -21.1003  -13.1137   22.2673 H   0  0  0  0  0  0
  -24.6130  -15.8418   20.5256 H   0  0  0  0  0  0
  -26.2196  -15.6362   20.0432 H   0  0  0  0  0  0
  -26.7508  -32.4941   23.0779 H   0  0  0  0  0  0
  -25.0056  -33.9330   25.0043 H   0  0  0  0  0  0
  -22.8367  -31.2392   21.3158 H   0  0  0  0  0  0
  -23.3775  -35.9465   23.3268 H   0  0  0  0  0  0
  -24.3561  -36.8862   22.2075 H   0  0  0  0  0  0
  -23.7240  -37.6314   23.6759 H   0  0  0  0  0  0
  -26.2955  -31.2573   20.6272 H   0  0  0  0  0  0
  -26.9434  -30.6007   22.0820 H   0  0  0  0  0  0
  -28.1718  -28.3839   21.3150 H   0  0  0  0  0  0
  -25.8319  -25.6201   19.0055 H   0  0  0  0  0  0
  -24.0325  -27.2189   18.9347 H   0  0  0  0  0  0
  -23.9415  -30.4584   19.3797 H   0  0  0  0  0  0
  -22.8703  -29.1655   19.8173 H   0  0  0  0  0  0
  -25.1356  -36.1659   25.0771 H   0  0  0  0  0  0
  -21.0057  -28.3410   24.1266 H   0  0  0  0  0  0
  -20.5667  -26.2409   23.3665 H   0  0  0  0  0  0
  -21.6667  -26.7382   22.1222 H   0  0  0  0  0  0
  -19.6937  -25.6263   21.1293 H   0  0  0  0  0  0
  -19.6724  -27.3141   20.6714 H   0  0  0  0  0  0
  -17.4233  -26.6689   21.4024 H   0  0  0  0  0  0
  -18.0355  -26.0110   22.9033 H   0  0  0  0  0  0
  -19.7986  -30.7346   24.2161 H   0  0  0  0  0  0
  -17.5050  -31.6275   24.5168 H   0  0  0  0  0  0
  -15.5387  -30.2964   23.7716 H   0  0  0  0  0  0
  -15.8720  -28.0802   22.7123 H   0  0  0  0  0  0
  -24.5875  -30.7143   25.7601 H   0  0  0  0  0  0
  -24.8822  -32.3043   26.4523 H   0  0  0  0  0  0
  -25.7838  -30.9118   27.0212 H   0  0  0  0  0  0
  -26.3251  -29.6452   24.1579 H   0  0  0  0  0  0
  -27.3954  -29.7287   25.5334 H   0  0  0  0  0  0
  -27.9233  -30.3962   24.0121 H   0  0  0  0  0  0
  -27.2585  -33.3734   26.1881 H   0  0  0  0  0  0
  -28.3964  -32.6812   25.0417 H   0  0  0  0  0  0
  -28.0598  -31.8629   26.5595 H   0  0  0  0  0  0
  -28.2552  -38.0057   24.7511 H   0  0  0  0  0  0
  -28.1089  -36.2579   24.6299 H   0  0  0  0  0  0
  -27.2276  -37.1377   25.8867 H   0  0  0  0  0  0
  -20.9726  -29.8686   21.6524 H   0  0  0  0  0  0
  -26.0100  -38.2704   24.1417 H   0  0  0  0  0  0
  -26.8421  -21.0969   19.2564 H   0  0  0  0  0  0
  -26.3552  -19.0171   18.4873 H   0  0  0  0  0  0
  -26.4735  -17.9694   19.9006 H   0  0  0  0  0  0
  -27.5023  -17.6885   18.4879 H   0  0  0  0  0  0
  -31.4640  -18.5462   21.6865 H   0  0  0  0  0  0
  -31.3912  -20.1523   22.4084 H   0  0  0  0  0  0
  -32.1664  -19.9222   20.8345 H   0  0  0  0  0  0
  -27.1459  -23.6693   21.0652 H   0  0  0  0  0  0
  -27.1896  -23.7051   19.3558 H   0  0  0  0  0  0
  -28.5065  -16.5456   20.3381 H   0  0  0  0  0  0
  1 25  1  0  0  0
  1 30  2  0  0  0
  1 80  1  0  0  0
  2  3  1  0  0  0
  2 25  1  0  0  0
  2 81  1  0  0  0
  2 82  1  0  0  0
  3  4  1  0  0  0
  3 83  1  0  0  0
  3 84  1  0  0  0
  4  5  1  0  0  0
  4 85  1  0  0  0
  4 86  1  0  0  0
  5  6  1  0  0  0
  5 26  1  0  0  0
  5 87  1  0  0  0
  6 25  1  0  0  0
  6 88  1  0  0  0
  6 89  1  0  0  0
  7  8  2  0  0  0
  7 26  1  0  0  0
  7 29  1  0  0  0
  8  9  1  0  0  0
  8 22  1  0  0  0
  9 10  1  0  0  0
  9 27  2  0  0  0
 10 11  2  0  0  0
 10 15  1  0  0  0
 11 12  1  0  0  0
 11 90  1  0  0  0
 12 13  2  0  0  0
 12 91  1  0  0  0
 13 14  1  0  0  0
 13 31  1  0  0  0
 14 15  2  0  0  0
 14 92  1  0  0  0
 15 93  1  0  0  0
 16 17  2  0  0  0
 16 21  1  0  0  0
 16 31  1  0  0  0
 17 18  1  0  0  0
 17 94  1  0  0  0
 18 19  2  0  0  0
 18 95  1  0  0  0
 19 20  1  0  0  0
 19 24  1  0  0  0
 20 21  2  0  0  0
 20 96  1  0  0  0
 21 23  1  0  0  0
 22 28  1  0  0  0
 22 32  2  0  0  0
 26 27  1  0  0  0
 28 97  1  0  0  0
 28 98  1  0  0  0
 29 99  1  0  0  0
 29100  1  0  0  0
 33 34  1  0  0  0
 33 66  1  0  0  0
 33 70  2  0  0  0
 34 36  1  0  0  0
 34 59  1  0  0  0
 34101  1  0  0  0
 35 44  2  0  0  0
 35 45  1  0  0  0
 35 68  1  0  0  0
 36 56  1  0  0  0
 36102  1  0  0  0
 37 39  1  0  0  0
 37 47  1  0  0  0
 37 66  1  0  0  0
 37103  1  0  0  0
 38 43  2  0  0  0
 38 46  1  0  0  0
 38 47  1  0  0  0
 39 64  1  0  0  0
 39 67  2  0  0  0
 40 52  1  0  0  0
 40 53  2  0  0  0
 40 58  1  0  0  0
 41104  1  0  0  0
 41105  1  0  0  0
 41106  1  0  0  0
 41 48  1  0  0  0
 42 43  1  0  0  0
 42 66  1  0  0  0
 42107  1  0  0  0
 42108  1  0  0  0
 43 44  1  0  0  0
 44109  1  0  0  0
 45 46  2  0  0  0
 45110  1  0  0  0
 46111  1  0  0  0
 47112  1  0  0  0
 47113  1  0  0  0
 48 56  1  0  0  0
 48 65  1  0  0  0
 48114  1  0  0  0
 49 50  1  0  0  0
 49 53  1  0  0  0
 49 64  1  0  0  0
 49115  1  0  0  0
 50 51  1  0  0  0
 50116  1  0  0  0
 50117  1  0  0  0
 51 52  1  0  0  0
 51118  1  0  0  0
 51119  1  0  0  0
 52120  1  0  0  0
 52121  1  0  0  0
 53 54  1  0  0  0
 54 55  2  0  0  0
 54122  1  0  0  0
 55 57  1  0  0  0
 55123  1  0  0  0
 56 69  2  0  0  0
 57 58  2  0  0  0
 57124  1  0  0  0
 58125  1  0  0  0
 59 60  1  0  0  0
 59 61  1  0  0  0
 59 62  1  0  0  0
 60126  1  0  0  0
 60127  1  0  0  0
 60128  1  0  0  0
 61129  1  0  0  0
 61130  1  0  0  0
 61131  1  0  0  0
 62132  1  0  0  0
 62133  1  0  0  0
 62134  1  0  0  0
 63 65  1  0  0  0
 63135  1  0  0  0
 63136  1  0  0  0
 63137  1  0  0  0
 64138  1  0  0  0
 65139  1  0  0  0
 68 78  1  0  0  0
 71 72  2  0  0  0
 71 74  1  0  0  0
 71140  1  0  0  0
 72 73  1  0  0  0
 72 76  1  0  0  0
 73 75  2  0  0  0
 73 80  1  0  0  0
 74 78  1  0  0  0
 74 79  2  0  0  0
 75 77  1  0  0  0
 75 79  1  0  0  0
 76141  1  0  0  0
 76142  1  0  0  0
 76143  1  0  0  0
 77144  1  0  0  0
 77145  1  0  0  0
 77146  1  0  0  0
 78147  1  0  0  0
 78148  1  0  0  0
 80149  1  0  0  0
M  ISO  4   1 100  68 101  78 101  80 100
M  END
> <chiral flag>
0

> <version>
0

> <s_m_source_file>
/data/baiqing/PycharmProjects/Reinvent-master-3.2/result/LINK_invent/BTK/process_docking_weight1_custom_sum_contain_oxygen_bond_distance_aromatic_linkinvent_7_9_3/rearranged_h_0111.sdf

> <i_m_source_file_index>
61

> <r_mmod_Potential_Energy-OPLS-2005>
2176.46752929688

> <r_mmod_Stretch_Energy-OPLS-2005>
948.361328125

> <r_mmod_Bend_Energy-OPLS-2005>
715.287841796875

> <r_mmod_Torsional_Energy-OPLS-2005>
227.957702636719

> <r_mmod_Improper_Torsional_Energy-OPLS-2005>
6.14923858642578

> <r_mmod_Van_der_Waal_Energy-OPLS-2005>
129.534912109375

> <r_mmod_Electrostatic_Energy-OPLS-2005>
-505.038848876953

> <r_mmod_Solvation_Energy-OPLS-2005>
-236.281661987305

> <b_mmod_Minimization_Converged-OPLS-2005>
0

> <r_mmod_RMS_Derivative-OPLS-2005>
0.13141755759716

$$$$
61
                    3D
 Structure written by MMmdl.
162171  0  0  1  0            999 V2000
  -30.4713  -15.1882   20.3852 C   0  0  0  0  0  0
  -30.4367  -12.7566   19.5184 C   0  0  0  0  0  0
  -29.5294  -12.5600   18.2790 C   0  0  0  0  0  0
  -28.0767  -12.2945   18.7100 C   0  0  0  0  0  0
  -27.6136  -13.2667   19.8236 C   0  0  2  0  0  0
  -28.6490  -13.4144   20.9585 C   0  0  0  0  0  0
  -25.2401  -13.8229   20.5741 C   0  0  0  0  0  0
  -24.1745  -13.0431   20.9263 C   0  0  0  0  0  0
  -24.6386  -11.6923   20.8769 C   0  0  0  0  0  0
  -23.9077  -10.4288   21.0417 C   0  0  0  0  0  0
  -24.3629   -9.4203   21.9193 C   0  0  0  0  0  0
  -23.6302   -8.2238   22.0761 C   0  0  0  0  0  0
  -22.4286   -8.0280   21.3547 C   0  0  0  0  0  0
  -21.9920   -9.0254   20.4649 C   0  0  0  0  0  0
  -22.7252  -10.2130   20.3061 C   0  0  0  0  0  0
  -21.6850   -6.0739   22.5282 C   0  0  0  0  0  0
  -21.4012   -6.5644   23.8216 C   0  0  0  0  0  0
  -21.3657   -5.6800   24.9176 C   0  0  0  0  0  0
  -21.6041   -4.3062   24.7227 C   0  0  0  0  0  0
  -21.8815   -3.8152   23.4350 C   0  0  0  0  0  0
  -21.9191   -4.6968   22.3404 C   0  0  0  0  0  0
  -22.7763  -13.5193   21.1908 C   0  0  0  0  0  0
  -22.1662   -4.2155   21.0982 F   0  0  0  0  0  0
  -21.5624   -3.4543   25.7735 F   0  0  0  0  0  0
  -29.8911  -13.8969   20.3356 N   0  0  0  0  0  0
  -26.2817  -12.9490   20.3212 N   0  0  0  0  0  0
  -25.9320  -11.6602   20.5728 N   0  0  0  0  0  0
  -22.0415  -12.8179   22.0460 N   0  0  0  0  0  0
  -25.4039  -15.1963   20.4177 N   0  0  0  0  0  0
  -31.6910  -15.1909   20.1721 O   0  0  0  0  0  0
  -21.6643   -6.8884   21.4246 O   0  0  0  0  0  0
  -22.3445  -14.5496   20.6750 O   0  0  0  0  0  0
  -24.6601  -31.8284   23.1747 C   0  0  0  0  0  0
  -25.9296  -32.4621   23.8196 C   0  0  1  0  0  0
  -27.2090  -26.9629   20.1735 C   0  0  0  0  0  0
  -25.5980  -33.8429   24.2104 N   0  0  0  0  0  0
  -23.4731  -30.4439   21.5236 C   0  0  2  0  0  0
  -24.9238  -28.8435   20.1116 C   0  0  0  0  0  0
  -22.7656  -29.4473   22.4790 C   0  0  0  0  0  0
  -18.0322  -28.1422   22.8476 C   0  0  0  0  0  0
  -24.1483  -36.7212   23.2646 C   0  0  0  0  0  0
  -26.0413  -30.6464   21.3999 C   0  0  0  0  0  0
  -26.1088  -29.2408   20.7437 C   0  0  0  0  0  0
  -27.2494  -28.3210   20.7530 C   0  0  0  0  0  0
  -25.9949  -26.7186   19.4893 C   0  0  0  0  0  0
  -24.8901  -27.6017   19.4649 C   0  0  0  0  0  0
  -23.7100  -29.7678   20.1475 C   0  0  0  0  0  0
  -25.4126  -36.2987   24.0307 C   0  0  1  0  0  0
  -20.5946  -28.3759   23.1201 C   0  0  2  0  0  0
  -20.6809  -26.9446   22.5403 C   0  0  0  0  0  0
  -19.5777  -26.6396   21.5217 C   0  0  0  0  0  0
  -18.1957  -26.7955   22.1628 C   0  0  0  0  0  0
  -19.1583  -28.8910   23.2826 C   0  0  0  0  0  0
  -18.9495  -30.1499   23.8861 C   0  0  0  0  0  0
  -17.6487  -30.6612   24.0557 C   0  0  0  0  0  0
  -25.9095  -34.9370   23.5025 C   0  0  0  0  0  0
  -16.5377  -29.9101   23.6350 C   0  0  0  0  0  0
  -16.7302  -28.6521   23.0373 C   0  0  0  0  0  0
  -26.4558  -31.6557   25.0705 C   0  0  0  0  0  0
  -25.3696  -31.3794   26.1373 C   0  0  0  0  0  0
  -27.0441  -30.2930   24.6406 C   0  0  0  0  0  0
  -27.6058  -32.4351   25.7504 C   0  0  0  0  0  0
  -27.5567  -37.1764   24.8467 C   0  0  0  0  0  0
  -21.4327  -29.3059   22.3549 N   0  0  0  0  0  0
  -26.4269  -37.3726   23.9421 N   0  0  0  0  0  0
  -24.7462  -30.9989   22.0860 N   0  0  0  0  0  0
  -23.4221  -28.8025   23.3007 O   0  0  0  0  0  0
  -28.1930  -25.8501   20.2511 O   0  0  0  0  0  0
  -26.5686  -34.8897   22.4609 O   0  0  0  0  0  0
  -23.5682  -32.1223   23.6881 O   0  0  0  0  0  0
  -27.9667  -21.5614   19.4172 C   0  0  0  0  0  0
  -29.8969  -20.8069   21.1101 C   0  0  0  0  0  0
  -29.4101  -19.6249   20.3819 C   0  0  0  0  0  0
  -28.3865  -20.1383   19.4920 C   0  0  0  0  0  0
  -28.4918  -22.7028   20.1622 C   0  0  0  0  0  0
  -28.0592  -19.7412   14.9932 C   0  0  0  0  0  0
  -27.0741  -18.5652   15.0641 C   0  0  0  0  0  0
  -28.6097  -19.8919   16.4104 C   0  0  0  0  0  0
  -26.7744  -18.3394   16.5546 C   0  0  0  0  0  0
  -27.4155  -19.5203   17.2931 C   0  0  0  0  0  0
  -30.1549  -18.0490   20.4610 C   0  0  0  0  0  0
  -27.7677  -24.2857   20.0849 C   0  0  0  0  0  0
  -29.4647  -22.1672   21.0037 N   0  3  0  0  0  0
  -27.7869  -19.1796   18.6604 N   0  0  0  0  0  0
  -29.7252  -16.4550   20.4724 N   0  0  0  0  0  0
  -31.4587  -12.9485   19.1895 H   0  0  0  0  0  0
  -30.4870  -11.8421   20.1115 H   0  0  0  0  0  0
  -29.8964  -11.7360   17.6653 H   0  0  0  0  0  0
  -29.5684  -13.4525   17.6518 H   0  0  0  0  0  0
  -28.0298  -11.2698   19.0818 H   0  0  0  0  0  0
  -27.4048  -12.3400   17.8516 H   0  0  0  0  0  0
  -27.5381  -14.2386   19.3349 H   0  0  0  0  0  0
  -28.7987  -12.4722   21.4877 H   0  0  0  0  0  0
  -28.3006  -14.1369   21.6982 H   0  0  0  0  0  0
  -25.2767   -9.5679   22.4779 H   0  0  0  0  0  0
  -24.0005   -7.4626   22.7484 H   0  0  0  0  0  0
  -21.0849   -8.8770   19.8956 H   0  0  0  0  0  0
  -22.3707  -10.9670   19.6176 H   0  0  0  0  0  0
  -21.2008   -7.6151   23.9719 H   0  0  0  0  0  0
  -21.1478   -6.0528   25.9079 H   0  0  0  0  0  0
  -22.0594   -2.7613   23.2843 H   0  0  0  0  0  0
  -22.4037  -11.9837   22.4837 H   0  0  0  0  0  0
  -21.1029  -13.1196   22.2674 H   0  0  0  0  0  0
  -24.6288  -15.8427   20.5197 H   0  0  0  0  0  0
  -26.2411  -15.6354   20.0599 H   0  0  0  0  0  0
  -26.7364  -32.5160   23.0908 H   0  0  0  0  0  0
  -25.0107  -33.9517   25.0245 H   0  0  0  0  0  0
  -22.7849  -31.2753   21.3594 H   0  0  0  0  0  0
  -23.3767  -35.9520   23.3278 H   0  0  0  0  0  0
  -24.3569  -36.8883   22.2067 H   0  0  0  0  0  0
  -23.7210  -37.6384   23.6710 H   0  0  0  0  0  0
  -26.2186  -31.3897   20.6214 H   0  0  0  0  0  0
  -26.9033  -30.7021   22.0526 H   0  0  0  0  0  0
  -28.1450  -28.6223   21.2782 H   0  0  0  0  0  0
  -25.8439  -25.7779   18.9840 H   0  0  0  0  0  0
  -23.9900  -27.2943   18.9501 H   0  0  0  0  0  0
  -23.8655  -30.5388   19.3919 H   0  0  0  0  0  0
  -22.8189  -29.2243   19.8277 H   0  0  0  0  0  0
  -25.1324  -36.1786   25.0797 H   0  0  0  0  0  0
  -21.0038  -28.3359   24.1321 H   0  0  0  0  0  0
  -20.5711  -26.2372   23.3638 H   0  0  0  0  0  0
  -21.6669  -26.7443   22.1192 H   0  0  0  0  0  0
  -19.6926  -25.6292   21.1284 H   0  0  0  0  0  0
  -19.6715  -27.3181   20.6721 H   0  0  0  0  0  0
  -17.4228  -26.6707   21.4024 H   0  0  0  0  0  0
  -18.0342  -26.0107   22.9034 H   0  0  0  0  0  0
  -19.7965  -30.7333   24.2216 H   0  0  0  0  0  0
  -17.5041  -31.6285   24.5171 H   0  0  0  0  0  0
  -15.5380  -30.2998   23.7701 H   0  0  0  0  0  0
  -15.8700  -28.0830   22.7118 H   0  0  0  0  0  0
  -24.5890  -30.7122   25.7701 H   0  0  0  0  0  0
  -24.8857  -32.2987   26.4674 H   0  0  0  0  0  0
  -25.7944  -30.9052   27.0227 H   0  0  0  0  0  0
  -26.3086  -29.6631   24.1385 H   0  0  0  0  0  0
  -27.3969  -29.7269   25.5038 H   0  0  0  0  0  0
  -27.9043  -30.4143   23.9814 H   0  0  0  0  0  0
  -27.2642  -33.3709   26.1937 H   0  0  0  0  0  0
  -28.3944  -32.6818   25.0383 H   0  0  0  0  0  0
  -28.0639  -31.8562   26.5529 H   0  0  0  0  0  0
  -28.2570  -38.0078   24.7544 H   0  0  0  0  0  0
  -28.1077  -36.2607   24.6259 H   0  0  0  0  0  0
  -27.2291  -37.1374   25.8872 H   0  0  0  0  0  0
  -20.9569  -29.8755   21.6690 H   0  0  0  0  0  0
  -26.0114  -38.2779   24.1452 H   0  0  0  0  0  0
  -27.1553  -21.8048   18.7510 H   0  0  0  0  0  0
  -30.6991  -20.6873   21.8238 H   0  0  0  0  0  0
  -27.5214  -20.6496   14.7158 H   0  0  0  0  0  0
  -28.8467  -19.5876   14.2540 H   0  0  0  0  0  0
  -27.5132  -17.6651   14.6304 H   0  0  0  0  0  0
  -26.1646  -18.7839   14.5020 H   0  0  0  0  0  0
  -28.9906  -20.8961   16.6036 H   0  0  0  0  0  0
  -29.4322  -19.1893   16.5576 H   0  0  0  0  0  0
  -27.2227  -17.3943   16.8668 H   0  0  0  0  0  0
  -25.7035  -18.2686   16.7543 H   0  0  0  0  0  0
  -26.6945  -20.3392   17.2845 H   0  0  0  0  0  0
  -30.7761  -18.1254   21.3539 H   0  0  0  0  0  0
  -30.8776  -18.0924   19.6454 H   0  0  0  0  0  0
  -26.9025  -24.1851   20.7410 H   0  0  0  0  0  0
  -27.3513  -24.2608   19.0793 H   0  0  0  0  0  0
  -29.9228  -22.8330   21.6304 H   0  0  0  0  0  0
  -28.1349  -18.2374   18.7907 H   0  0  0  0  0  0
  -28.7357  -16.3046   20.6026 H   0  0  0  0  0  0
  1 25  1  0  0  0
  1 30  2  0  0  0
  1 85  1  0  0  0
  2  3  1  0  0  0
  2 25  1  0  0  0
  2 86  1  0  0  0
  2 87  1  0  0  0
  3  4  1  0  0  0
  3 88  1  0  0  0
  3 89  1  0  0  0
  4  5  1  0  0  0
  4 90  1  0  0  0
  4 91  1  0  0  0
  5  6  1  0  0  0
  5 26  1  0  0  0
  5 92  1  0  0  0
  6 25  1  0  0  0
  6 93  1  0  0  0
  6 94  1  0  0  0
  7  8  2  0  0  0
  7 26  1  0  0  0
  7 29  1  0  0  0
  8  9  1  0  0  0
  8 22  1  0  0  0
  9 10  1  0  0  0
  9 27  2  0  0  0
 10 11  2  0  0  0
 10 15  1  0  0  0
 11 12  1  0  0  0
 11 95  1  0  0  0
 12 13  2  0  0  0
 12 96  1  0  0  0
 13 14  1  0  0  0
 13 31  1  0  0  0
 14 15  2  0  0  0
 14 97  1  0  0  0
 15 98  1  0  0  0
 16 17  2  0  0  0
 16 21  1  0  0  0
 16 31  1  0  0  0
 17 18  1  0  0  0
 17 99  1  0  0  0
 18 19  2  0  0  0
 18100  1  0  0  0
 19 20  1  0  0  0
 19 24  1  0  0  0
 20 21  2  0  0  0
 20101  1  0  0  0
 21 23  1  0  0  0
 22 28  1  0  0  0
 22 32  2  0  0  0
 26 27  1  0  0  0
 28102  1  0  0  0
 28103  1  0  0  0
 29104  1  0  0  0
 29105  1  0  0  0
 33 34  1  0  0  0
 33 66  1  0  0  0
 33 70  2  0  0  0
 34 36  1  0  0  0
 34 59  1  0  0  0
 34106  1  0  0  0
 35 44  2  0  0  0
 35 45  1  0  0  0
 35 68  1  0  0  0
 36 56  1  0  0  0
 36107  1  0  0  0
 37 39  1  0  0  0
 37 47  1  0  0  0
 37 66  1  0  0  0
 37108  1  0  0  0
 38 43  2  0  0  0
 38 46  1  0  0  0
 38 47  1  0  0  0
 39 64  1  0  0  0
 39 67  2  0  0  0
 40 52  1  0  0  0
 40 53  2  0  0  0
 40 58  1  0  0  0
 41109  1  0  0  0
 41110  1  0  0  0
 41111  1  0  0  0
 41 48  1  0  0  0
 42 43  1  0  0  0
 42 66  1  0  0  0
 42112  1  0  0  0
 42113  1  0  0  0
 43 44  1  0  0  0
 44114  1  0  0  0
 45 46  2  0  0  0
 45115  1  0  0  0
 46116  1  0  0  0
 47117  1  0  0  0
 47118  1  0  0  0
 48 56  1  0  0  0
 48 65  1  0  0  0
 48119  1  0  0  0
 49 50  1  0  0  0
 49 53  1  0  0  0
 49 64  1  0  0  0
 49120  1  0  0  0
 50 51  1  0  0  0
 50121  1  0  0  0
 50122  1  0  0  0
 51 52  1  0  0  0
 51123  1  0  0  0
 51124  1  0  0  0
 52125  1  0  0  0
 52126  1  0  0  0
 53 54  1  0  0  0
 54 55  2  0  0  0
 54127  1  0  0  0
 55 57  1  0  0  0
 55128  1  0  0  0
 56 69  2  0  0  0
 57 58  2  0  0  0
 57129  1  0  0  0
 58130  1  0  0  0
 59 60  1  0  0  0
 59 61  1  0  0  0
 59 62  1  0  0  0
 60131  1  0  0  0
 60132  1  0  0  0
 60133  1  0  0  0
 61134  1  0  0  0
 61135  1  0  0  0
 61136  1  0  0  0
 62137  1  0  0  0
 62138  1  0  0  0
 62139  1  0  0  0
 63 65  1  0  0  0
 63140  1  0  0  0
 63141  1  0  0  0
 63142  1  0  0  0
 64143  1  0  0  0
 65144  1  0  0  0
 68 82  1  0  0  0
 71 74  2  0  0  0
 71 75  1  0  0  0
 71145  1  0  0  0
 72 73  2  0  0  0
 72 83  1  0  0  0
 72146  1  0  0  0
 73 74  1  0  0  0
 73 81  1  0  0  0
 74 84  1  0  0  0
 75 82  1  0  0  0
 75 83  2  0  0  0
 76 77  1  0  0  0
 76 78  1  0  0  0
 76147  1  0  0  0
 76148  1  0  0  0
 77 79  1  0  0  0
 77149  1  0  0  0
 77150  1  0  0  0
 78 80  1  0  0  0
 78151  1  0  0  0
 78152  1  0  0  0
 79 80  1  0  0  0
 79153  1  0  0  0
 79154  1  0  0  0
 80 84  1  0  0  0
 80155  1  0  0  0
 81 85  1  0  0  0
 81156  1  0  0  0
 81157  1  0  0  0
 82158  1  0  0  0
 82159  1  0  0  0
 83160  1  0  0  0
 84161  1  0  0  0
 85162  1  0  0  0
M  CHG  1  83   1
M  ISO  4   1 100  68 101  82 101  85 100
M  END
> <chiral flag>
0

> <version>
0

> <s_m_source_file>
/data/baiqing/PycharmProjects/Reinvent-master-3.2/result/LINK_invent/BTK/process_docking_weight1_custom_sum_contain_oxygen_bond_distance_aromatic_linkinvent_7_9_3/rearranged_h_0111.sdf

> <i_m_source_file_index>
62

> <r_mmod_Potential_Energy-OPLS-2005>
1013.78833007812

> <r_mmod_Stretch_Energy-OPLS-2005>
465.806945800781

> <r_mmod_Bend_Energy-OPLS-2005>
466.702545166016

> <r_mmod_Torsional_Energy-OPLS-2005>
261.537017822266

> <r_mmod_Improper_Torsional_Energy-OPLS-2005>
9.1411075592041

> <r_mmod_Van_der_Waal_Energy-OPLS-2005>
130.386016845703

> <r_mmod_Electrostatic_Energy-OPLS-2005>
-277.567596435547

> <r_mmod_Solvation_Energy-OPLS-2005>
-439.016265869141

> <b_mmod_Minimization_Converged-OPLS-2005>
0

> <r_mmod_RMS_Derivative-OPLS-2005>
1.35834431648254

$$$$
62
                    3D
 Structure written by MMmdl.
170178  0  0  1  0            999 V2000
  -30.5177  -14.9626   20.4298 C   0  0  0  0  0  0
  -30.4476  -12.5945   19.5188 C   0  0  0  0  0  0
  -29.5334  -12.5486   18.2718 C   0  0  0  0  0  0
  -28.0640  -12.3359   18.6813 C   0  0  0  0  0  0
  -27.6372  -13.2547   19.8568 C   0  0  2  0  0  0
  -28.6770  -13.2618   21.0024 C   0  0  0  0  0  0
  -25.2470  -13.8234   20.5792 C   0  0  0  0  0  0
  -24.1799  -13.0436   20.9297 C   0  0  0  0  0  0
  -24.6400  -11.6924   20.8766 C   0  0  0  0  0  0
  -23.9075  -10.4301   21.0420 C   0  0  0  0  0  0
  -24.3612   -9.4235   21.9209 C   0  0  0  0  0  0
  -23.6322   -8.2243   22.0741 C   0  0  0  0  0  0
  -22.4308   -8.0253   21.3524 C   0  0  0  0  0  0
  -21.9936   -9.0239   20.4643 C   0  0  0  0  0  0
  -22.7225  -10.2150   20.3091 C   0  0  0  0  0  0
  -21.6872   -6.0757   22.5312 C   0  0  0  0  0  0
  -21.4001   -6.5664   23.8250 C   0  0  0  0  0  0
  -21.3665   -5.6813   24.9210 C   0  0  0  0  0  0
  -21.6041   -4.3069   24.7261 C   0  0  0  0  0  0
  -21.8801   -3.8169   23.4376 C   0  0  0  0  0  0
  -21.9207   -4.6991   22.3437 C   0  0  0  0  0  0
  -22.7808  -13.5196   21.1983 C   0  0  0  0  0  0
  -22.1653   -4.2189   21.1008 F   0  0  0  0  0  0
  -21.5660   -3.4530   25.7764 F   0  0  0  0  0  0
  -29.9590  -13.6829   20.4195 N   0  0  0  0  0  0
  -26.2927  -12.9481   20.3347 N   0  0  0  0  0  0
  -25.9353  -11.6595   20.5761 N   0  0  0  0  0  0
  -22.0445  -12.8162   22.0496 N   0  0  0  0  0  0
  -25.4104  -15.1979   20.4176 N   0  0  0  0  0  0
  -31.6855  -15.0712   20.0415 O   0  0  0  0  0  0
  -21.6650   -6.8872   21.4254 O   0  0  0  0  0  0
  -22.3477  -14.5530   20.6850 O   0  0  0  0  0  0
  -24.6456  -31.8455   23.1932 C   0  0  0  0  0  0
  -25.9220  -32.4706   23.8331 C   0  0  1  0  0  0
  -27.2218  -27.1371   20.1482 C   0  0  0  0  0  0
  -25.5951  -33.8514   24.2223 N   0  0  0  0  0  0
  -23.4481  -30.4685   21.5389 C   0  0  2  0  0  0
  -24.8947  -28.8883   20.1188 C   0  0  0  0  0  0
  -22.7577  -29.4575   22.4895 C   0  0  0  0  0  0
  -18.0312  -28.1406   22.8498 C   0  0  0  0  0  0
  -24.1471  -36.7253   23.2643 C   0  0  0  0  0  0
  -26.0048  -30.7177   21.3907 C   0  0  0  0  0  0
  -26.0751  -29.3268   20.7345 C   0  0  0  0  0  0
  -27.2371  -28.4676   20.7322 C   0  0  0  0  0  0
  -26.0216  -26.8085   19.4838 C   0  0  0  0  0  0
  -24.8808  -27.6419   19.4771 C   0  0  0  0  0  0
  -23.6758  -29.7982   20.1582 C   0  0  0  0  0  0
  -25.4106  -36.3048   24.0321 C   0  0  1  0  0  0
  -20.5922  -28.3736   23.1228 C   0  0  2  0  0  0
  -20.6771  -26.9439   22.5394 C   0  0  0  0  0  0
  -19.5741  -26.6402   21.5203 C   0  0  0  0  0  0
  -18.1940  -26.7961   22.1643 C   0  0  0  0  0  0
  -19.1567  -28.8899   23.2875 C   0  0  0  0  0  0
  -18.9480  -30.1478   23.8896 C   0  0  0  0  0  0
  -17.6467  -30.6599   24.0576 C   0  0  0  0  0  0
  -25.9069  -34.9418   23.5081 C   0  0  0  0  0  0
  -16.5366  -29.9082   23.6326 C   0  0  0  0  0  0
  -16.7301  -28.6513   23.0373 C   0  0  0  0  0  0
  -26.4537  -31.6575   25.0783 C   0  0  0  0  0  0
  -25.3715  -31.3703   26.1464 C   0  0  0  0  0  0
  -27.0388  -30.2994   24.6314 C   0  0  0  0  0  0
  -27.6121  -32.4309   25.7544 C   0  0  0  0  0  0
  -27.5580  -37.1768   24.8463 C   0  0  0  0  0  0
  -21.4280  -29.3054   22.3591 N   0  0  0  0  0  0
  -26.4279  -37.3761   23.9432 N   0  0  0  0  0  0
  -24.7203  -31.0311   22.0964 N   0  0  0  0  0  0
  -23.4233  -28.8130   23.3049 O   0  0  0  0  0  0
  -28.2871  -26.1613   20.1892 O   0  0  0  0  0  0
  -26.5695  -34.8907   22.4690 O   0  0  0  0  0  0
  -23.5572  -32.1327   23.7157 O   0  0  0  0  0  0
  -31.1974  -21.1129   20.6813 C   0  0  0  0  0  0
  -29.9783  -19.1243   22.3640 C   0  0  0  0  0  0
  -30.0098  -19.0468   20.8249 C   0  0  1  0  0  0
  -31.3333  -21.1989   22.2366 C   0  0  2  0  0  0
  -32.6542  -21.9227   22.5682 C   0  0  0  0  0  0
  -31.7077  -18.2680   24.7568 C   0  0  0  0  0  0
  -30.3180  -20.3250   25.1749 C   0  0  0  0  0  0
  -29.5350  -17.5825   20.1397 C   0  0  0  0  0  0
  -29.0984  -23.3394   20.1442 C   0  0  0  0  0  0
  -28.8549  -21.6912   20.5272 C   0  0  0  0  0  0
  -28.0222  -24.6279   20.3594 C   0  0  0  0  0  0
  -31.4472  -19.7227   24.3191 C   0  0  0  0  0  0
  -29.9029  -20.5373   20.2696 N   0  0  0  0  0  0
  -29.7132  -16.1022   20.7072 N   0  0  0  0  0  0
  -31.2104  -19.8272   22.8432 N   0  3  1  0  0  0
  -31.4842  -12.7539   19.2158 H   0  0  0  0  0  0
  -30.4354  -11.6310   20.0329 H   0  0  0  0  0  0
  -29.8503  -11.7531   17.5964 H   0  0  0  0  0  0
  -29.6312  -13.4791   17.7113 H   0  0  0  0  0  0
  -27.9535  -11.2913   18.9721 H   0  0  0  0  0  0
  -27.4096  -12.4856   17.8215 H   0  0  0  0  0  0
  -27.6013  -14.2617   19.4389 H   0  0  0  0  0  0
  -28.7655  -12.2773   21.4662 H   0  0  0  0  0  0
  -28.3717  -13.9475   21.7950 H   0  0  0  0  0  0
  -25.2745   -9.5775   22.4795 H   0  0  0  0  0  0
  -24.0098   -7.4621   22.7423 H   0  0  0  0  0  0
  -21.0888   -8.8728   19.8904 H   0  0  0  0  0  0
  -22.3658  -10.9689   19.6214 H   0  0  0  0  0  0
  -21.1931   -7.6161   23.9777 H   0  0  0  0  0  0
  -21.1513   -6.0534   25.9128 H   0  0  0  0  0  0
  -22.0570   -2.7638   23.2888 H   0  0  0  0  0  0
  -22.4008  -11.9821   22.4898 H   0  0  0  0  0  0
  -21.1042  -13.1184   22.2652 H   0  0  0  0  0  0
  -24.6328  -15.8429   20.5119 H   0  0  0  0  0  0
  -26.2470  -15.6393   20.0591 H   0  0  0  0  0  0
  -26.7314  -32.5313   23.1087 H   0  0  0  0  0  0
  -24.9970  -33.9615   25.0283 H   0  0  0  0  0  0
  -22.7511  -31.2966   21.3853 H   0  0  0  0  0  0
  -23.3766  -35.9550   23.3272 H   0  0  0  0  0  0
  -24.3533  -36.8945   22.2064 H   0  0  0  0  0  0
  -23.7184  -37.6420   23.6701 H   0  0  0  0  0  0
  -26.1502  -31.4696   20.6143 H   0  0  0  0  0  0
  -26.8796  -30.7730   22.0288 H   0  0  0  0  0  0
  -28.1357  -28.8018   21.2302 H   0  0  0  0  0  0
  -25.9377  -25.8722   18.9573 H   0  0  0  0  0  0
  -23.9848  -27.3051   18.9734 H   0  0  0  0  0  0
  -23.8240  -30.5749   19.4069 H   0  0  0  0  0  0
  -22.7875  -29.2492   19.8427 H   0  0  0  0  0  0
  -25.1280  -36.1869   25.0813 H   0  0  0  0  0  0
  -21.0029  -28.3325   24.1350 H   0  0  0  0  0  0
  -20.5601  -26.2386   23.3635 H   0  0  0  0  0  0
  -21.6650  -26.7400   22.1234 H   0  0  0  0  0  0
  -19.6882  -25.6298   21.1268 H   0  0  0  0  0  0
  -19.6663  -27.3199   20.6721 H   0  0  0  0  0  0
  -17.4199  -26.6756   21.4047 H   0  0  0  0  0  0
  -18.0335  -26.0068   22.9014 H   0  0  0  0  0  0
  -19.7933  -30.7321   24.2287 H   0  0  0  0  0  0
  -17.4995  -31.6256   24.5199 H   0  0  0  0  0  0
  -15.5361  -30.2992   23.7577 H   0  0  0  0  0  0
  -15.8739  -28.0790   22.7098 H   0  0  0  0  0  0
  -24.5921  -30.7045   25.7734 H   0  0  0  0  0  0
  -24.8852  -32.2835   26.4898 H   0  0  0  0  0  0
  -25.7974  -30.8850   27.0257 H   0  0  0  0  0  0
  -26.2981  -29.6749   24.1305 H   0  0  0  0  0  0
  -27.4024  -29.7251   25.4846 H   0  0  0  0  0  0
  -27.8886  -30.4299   23.9616 H   0  0  0  0  0  0
  -27.2792  -33.3620   26.2147 H   0  0  0  0  0  0
  -28.3907  -32.6854   25.0338 H   0  0  0  0  0  0
  -28.0834  -31.8415   26.5425 H   0  0  0  0  0  0
  -28.2569  -38.0097   24.7561 H   0  0  0  0  0  0
  -28.1105  -36.2627   24.6207 H   0  0  0  0  0  0
  -27.2308  -37.1339   25.8871 H   0  0  0  0  0  0
  -20.9496  -29.8787   21.6777 H   0  0  0  0  0  0
  -26.0142  -38.2826   24.1478 H   0  0  0  0  0  0
  -32.0250  -20.5333   20.2660 H   0  0  0  0  0  0
  -31.3454  -22.0859   20.2172 H   0  0  0  0  0  0
  -29.9236  -18.1186   22.7756 H   0  0  0  0  0  0
  -29.0743  -19.6328   22.6986 H   0  0  0  0  0  0
  -31.0560  -18.8005   20.6382 H   0  0  0  0  0  0
  -30.5400  -21.8284   22.6389 H   0  0  0  0  0  0
  -33.5213  -21.3246   22.2886 H   0  0  0  0  0  0
  -32.7372  -22.1894   23.6213 H   0  0  0  0  0  0
  -32.7183  -22.8641   22.0198 H   0  0  0  0  0  0
  -32.0860  -18.2372   25.7778 H   0  0  0  0  0  0
  -32.4439  -17.7745   24.1238 H   0  0  0  0  0  0
  -30.8002  -17.6668   24.7487 H   0  0  0  0  0  0
  -30.6054  -20.3218   26.2281 H   0  0  0  0  0  0
  -29.3975  -19.7474   25.0949 H   0  0  0  0  0  0
  -30.1014  -21.3570   24.9018 H   0  0  0  0  0  0
  -29.9268  -17.5591   19.1198 H   0  0  0  0  0  0
  -28.4539  -17.6732   20.0191 H   0  0  0  0  0  0
  -29.3706  -23.3599   19.0880 H   0  0  0  0  0  0
  -30.0053  -23.6557   20.6605 H   0  0  0  0  0  0
  -27.9305  -21.3790   20.0386 H   0  0  0  0  0  0
  -28.6048  -21.6737   21.5880 H   0  0  0  0  0  0
  -27.6535  -24.5363   21.3823 H   0  0  0  0  0  0
  -27.1618  -24.3671   19.7476 H   0  0  0  0  0  0
  -32.3676  -20.2554   24.5528 H   0  0  0  0  0  0
  -28.8650  -15.7916   21.1593 H   0  0  0  0  0  0
  -31.9752  -19.3085   22.4362 H   0  0  0  0  0  0
  1 25  1  0  0  0
  1 30  2  0  0  0
  1 84  1  0  0  0
  2  3  1  0  0  0
  2 25  1  0  0  0
  2 86  1  0  0  0
  2 87  1  0  0  0
  3  4  1  0  0  0
  3 88  1  0  0  0
  3 89  1  0  0  0
  4  5  1  0  0  0
  4 90  1  0  0  0
  4 91  1  0  0  0
  5  6  1  0  0  0
  5 26  1  0  0  0
  5 92  1  0  0  0
  6 25  1  0  0  0
  6 93  1  0  0  0
  6 94  1  0  0  0
  7  8  2  0  0  0
  7 26  1  0  0  0
  7 29  1  0  0  0
  8  9  1  0  0  0
  8 22  1  0  0  0
  9 10  1  0  0  0
  9 27  2  0  0  0
 10 11  2  0  0  0
 10 15  1  0  0  0
 11 12  1  0  0  0
 11 95  1  0  0  0
 12 13  2  0  0  0
 12 96  1  0  0  0
 13 14  1  0  0  0
 13 31  1  0  0  0
 14 15  2  0  0  0
 14 97  1  0  0  0
 15 98  1  0  0  0
 16 17  2  0  0  0
 16 21  1  0  0  0
 16 31  1  0  0  0
 17 18  1  0  0  0
 17 99  1  0  0  0
 18 19  2  0  0  0
 18100  1  0  0  0
 19 20  1  0  0  0
 19 24  1  0  0  0
 20 21  2  0  0  0
 20101  1  0  0  0
 21 23  1  0  0  0
 22 28  1  0  0  0
 22 32  2  0  0  0
 26 27  1  0  0  0
 28102  1  0  0  0
 28103  1  0  0  0
 29104  1  0  0  0
 29105  1  0  0  0
 33 34  1  0  0  0
 33 66  1  0  0  0
 33 70  2  0  0  0
 34 36  1  0  0  0
 34 59  1  0  0  0
 34106  1  0  0  0
 35 44  2  0  0  0
 35 45  1  0  0  0
 35 68  1  0  0  0
 36 56  1  0  0  0
 36107  1  0  0  0
 37 39  1  0  0  0
 37 47  1  0  0  0
 37 66  1  0  0  0
 37108  1  0  0  0
 38 43  2  0  0  0
 38 46  1  0  0  0
 38 47  1  0  0  0
 39 64  1  0  0  0
 39 67  2  0  0  0
 40 52  1  0  0  0
 40 53  2  0  0  0
 40 58  1  0  0  0
 41109  1  0  0  0
 41110  1  0  0  0
 41111  1  0  0  0
 41 48  1  0  0  0
 42 43  1  0  0  0
 42 66  1  0  0  0
 42112  1  0  0  0
 42113  1  0  0  0
 43 44  1  0  0  0
 44114  1  0  0  0
 45 46  2  0  0  0
 45115  1  0  0  0
 46116  1  0  0  0
 47117  1  0  0  0
 47118  1  0  0  0
 48 56  1  0  0  0
 48 65  1  0  0  0
 48119  1  0  0  0
 49 50  1  0  0  0
 49 53  1  0  0  0
 49 64  1  0  0  0
 49120  1  0  0  0
 50 51  1  0  0  0
 50121  1  0  0  0
 50122  1  0  0  0
 51 52  1  0  0  0
 51123  1  0  0  0
 51124  1  0  0  0
 52125  1  0  0  0
 52126  1  0  0  0
 53 54  1  0  0  0
 54 55  2  0  0  0
 54127  1  0  0  0
 55 57  1  0  0  0
 55128  1  0  0  0
 56 69  2  0  0  0
 57 58  2  0  0  0
 57129  1  0  0  0
 58130  1  0  0  0
 59 60  1  0  0  0
 59 61  1  0  0  0
 59 62  1  0  0  0
 60131  1  0  0  0
 60132  1  0  0  0
 60133  1  0  0  0
 61134  1  0  0  0
 61135  1  0  0  0
 61136  1  0  0  0
 62137  1  0  0  0
 62138  1  0  0  0
 62139  1  0  0  0
 63 65  1  0  0  0
 63140  1  0  0  0
 63141  1  0  0  0
 63142  1  0  0  0
 64143  1  0  0  0
 65144  1  0  0  0
 68 81  1  0  0  0
 71 74  1  0  0  0
 71 83  1  0  0  0
 71145  1  0  0  0
 71146  1  0  0  0
 72 73  1  0  0  0
 72147  1  0  0  0
 72148  1  0  0  0
 72 85  1  0  0  0
 73 78  1  0  0  0
 73 83  1  0  0  0
 73149  1  0  0  0
 74 75  1  0  0  0
 74 85  1  0  0  0
 74150  1  0  0  0
 75151  1  0  0  0
 75152  1  0  0  0
 75153  1  0  0  0
 76154  1  0  0  0
 76155  1  0  0  0
 76156  1  0  0  0
 76 82  1  0  0  0
 77 82  1  0  0  0
 77157  1  0  0  0
 77158  1  0  0  0
 77159  1  0  0  0
 78 84  1  0  0  0
 78160  1  0  0  0
 78161  1  0  0  0
 79 80  1  0  0  0
 79 81  1  0  0  0
 79162  1  0  0  0
 79163  1  0  0  0
 80 83  1  0  0  0
 80164  1  0  0  0
 80165  1  0  0  0
 81166  1  0  0  0
 81167  1  0  0  0
 82 85  1  0  0  0
 82168  1  0  0  0
 84169  1  0  0  0
 85170  1  0  0  0
M  CHG  1  85   1
M  ISO  4   1 100  68 101  81 101  84 100
M  END
> <chiral flag>
0

> <version>
0

> <s_m_source_file>
/data/baiqing/PycharmProjects/Reinvent-master-3.2/result/LINK_invent/BTK/process_docking_weight1_custom_sum_contain_oxygen_bond_distance_aromatic_linkinvent_7_9_3/rearranged_h_0111.sdf

> <i_m_source_file_index>
63

> <r_mmod_Potential_Energy-OPLS-2005>
599.308776855469

> <r_mmod_Stretch_Energy-OPLS-2005>
305.140289306641

> <r_mmod_Bend_Energy-OPLS-2005>
366.100891113281

> <r_mmod_Torsional_Energy-OPLS-2005>
262.30810546875

> <r_mmod_Improper_Torsional_Energy-OPLS-2005>
5.30107879638672

> <r_mmod_Van_der_Waal_Energy-OPLS-2005>
135.632400512695

> <r_mmod_Electrostatic_Energy-OPLS-2005>
-234.325942993164

> <r_mmod_Solvation_Energy-OPLS-2005>
-435.887237548828

> <b_mmod_Minimization_Converged-OPLS-2005>
0

> <r_mmod_RMS_Derivative-OPLS-2005>
4.92426300048828

$$$$
63
                    3D
 Structure written by MMmdl.
154162  0  0  1  0            999 V2000
  -30.6576  -14.7367   20.5748 C   0  0  0  0  0  0
  -30.4296  -12.4686   19.4851 C   0  0  0  0  0  0
  -29.5091  -12.5411   18.2476 C   0  0  0  0  0  0
  -28.0370  -12.3559   18.6623 C   0  0  0  0  0  0
  -27.6549  -13.2356   19.8836 C   0  0  2  0  0  0
  -28.7065  -13.1135   21.0144 C   0  0  0  0  0  0
  -25.2370  -13.8143   20.5478 C   0  0  0  0  0  0
  -24.1735  -13.0391   20.9156 C   0  0  0  0  0  0
  -24.6377  -11.6884   20.8816 C   0  0  0  0  0  0
  -23.9074  -10.4245   21.0441 C   0  0  0  0  0  0
  -24.3606   -9.4152   21.9214 C   0  0  0  0  0  0
  -23.6263   -8.2189   22.0774 C   0  0  0  0  0  0
  -22.4254   -8.0245   21.3556 C   0  0  0  0  0  0
  -21.9907   -9.0214   20.4656 C   0  0  0  0  0  0
  -22.7251  -10.2090   20.3063 C   0  0  0  0  0  0
  -21.6826   -6.0693   22.5281 C   0  0  0  0  0  0
  -21.3996   -6.5609   23.8218 C   0  0  0  0  0  0
  -21.3663   -5.6773   24.9190 C   0  0  0  0  0  0
  -21.6049   -4.3034   24.7248 C   0  0  0  0  0  0
  -21.8807   -3.8118   23.4372 C   0  0  0  0  0  0
  -21.9172   -4.6917   22.3424 C   0  0  0  0  0  0
  -22.7749  -13.5174   21.1841 C   0  0  0  0  0  0
  -22.1646   -4.2095   21.1000 F   0  0  0  0  0  0
  -21.5623   -3.4526   25.7772 F   0  0  0  0  0  0
  -30.0051  -13.5161   20.4568 N   0  0  0  0  0  0
  -26.2978  -12.9430   20.3454 N   0  0  0  0  0  0
  -25.9367  -11.6576   20.5955 N   0  0  0  0  0  0
  -22.0448  -12.8123   22.0425 N   0  0  0  0  0  0
  -25.3742  -15.1817   20.3394 N   0  0  0  0  0  0
  -31.7349  -14.8434   19.9765 O   0  0  0  0  0  0
  -21.6617   -6.8839   21.4252 O   0  0  0  0  0  0
  -22.3429  -14.5500   20.6757 O   0  0  0  0  0  0
  -24.6357  -31.8568   23.1975 C   0  0  0  0  0  0
  -25.9157  -32.4766   23.8369 C   0  0  1  0  0  0
  -27.2507  -27.2583   20.1227 C   0  0  0  0  0  0
  -25.5972  -33.8588   24.2269 N   0  0  0  0  0  0
  -23.4402  -30.4745   21.5332 C   0  0  2  0  0  0
  -24.9029  -28.9284   20.1109 C   0  0  0  0  0  0
  -22.7575  -29.4559   22.4824 C   0  0  0  0  0  0
  -18.0327  -28.1397   22.8469 C   0  0  0  0  0  0
  -24.1487  -36.7281   23.2632 C   0  0  0  0  0  0
  -25.9921  -30.7711   21.3856 C   0  0  0  0  0  0
  -26.0732  -29.3924   20.7246 C   0  0  0  0  0  0
  -27.2509  -28.5737   20.7128 C   0  0  0  0  0  0
  -26.0516  -26.8737   19.4807 C   0  0  0  0  0  0
  -24.8945  -27.6778   19.4824 C   0  0  0  0  0  0
  -23.6760  -29.8172   20.1481 C   0  0  0  0  0  0
  -25.4107  -36.3054   24.0301 C   0  0  1  0  0  0
  -20.5934  -28.3693   23.1245 C   0  0  2  0  0  0
  -20.6789  -26.9397   22.5401 C   0  0  0  0  0  0
  -19.5749  -26.6365   21.5212 C   0  0  0  0  0  0
  -18.1941  -26.7943   22.1615 C   0  0  0  0  0  0
  -19.1581  -28.8857   23.2857 C   0  0  0  0  0  0
  -18.9503  -30.1458   23.8883 C   0  0  0  0  0  0
  -17.6497  -30.6583   24.0570 C   0  0  0  0  0  0
  -25.9053  -34.9447   23.5069 C   0  0  0  0  0  0
  -16.5389  -29.9096   23.6325 C   0  0  0  0  0  0
  -16.7312  -28.6522   23.0330 C   0  0  0  0  0  0
  -26.4543  -31.6616   25.0760 C   0  0  0  0  0  0
  -25.3757  -31.3825   26.1476 C   0  0  0  0  0  0
  -27.0396  -30.3023   24.6280 C   0  0  0  0  0  0
  -27.6069  -32.4395   25.7544 C   0  0  0  0  0  0
  -27.5566  -37.1794   24.8460 C   0  0  0  0  0  0
  -21.4253  -29.3055   22.3637 N   0  0  0  0  0  0
  -26.4268  -37.3764   23.9416 N   0  0  0  0  0  0
  -24.7077  -31.0517   22.0970 N   0  0  0  0  0  0
  -23.4286  -28.8050   23.2870 O   0  0  0  0  0  0
  -28.3477  -26.3538   20.1552 O   0  0  0  0  0  0
  -26.5598  -34.8915   22.4629 O   0  0  0  0  0  0
  -23.5472  -32.1428   23.7197 O   0  0  0  0  0  0
  -27.0908  -18.2840   21.4518 C   0  0  0  0  0  0
  -27.5818  -19.4964   20.9513 C   0  0  0  0  0  0
  -27.9539  -17.1928   21.6490 C   0  0  0  0  0  0
  -29.2974  -17.2461   21.1831 C   0  0  0  0  0  0
  -28.9497  -19.6267   20.6617 C   0  0  0  0  0  0
  -31.5455  -16.5655   22.1884 C   0  0  0  0  0  0
  -29.1673  -23.6722   20.2116 C   0  0  0  0  0  0
  -28.0675  -24.8701   20.2720 C   0  0  0  0  0  0
  -28.6434  -22.1562   20.4817 C   0  0  0  0  0  0
  -30.2708  -15.9960   21.5307 C   0  0  2  0  0  0
  -29.7705  -18.4908   20.7149 N   0  0  0  0  0  0
  -29.4915  -20.9159   20.3545 O   0  0  0  0  0  0
  -27.3427  -15.9041   22.6260 Cl  0  0  0  0  0  0
  -31.4736  -12.5692   19.1876 H   0  0  0  0  0  0
  -30.3669  -11.4791   19.9404 H   0  0  0  0  0  0
  -29.7922  -11.7775   17.5227 H   0  0  0  0  0  0
  -29.6384  -13.5034   17.7493 H   0  0  0  0  0  0
  -27.8946  -11.3026   18.9115 H   0  0  0  0  0  0
  -27.3751  -12.5620   17.8202 H   0  0  0  0  0  0
  -27.6654  -14.2713   19.5434 H   0  0  0  0  0  0
  -28.7537  -12.0870   21.3798 H   0  0  0  0  0  0
  -28.4391  -13.7020   21.8842 H   0  0  0  0  0  0
  -25.2756   -9.5566   22.4798 H   0  0  0  0  0  0
  -23.9940   -7.4554   22.7475 H   0  0  0  0  0  0
  -21.0854   -8.8732   19.8941 H   0  0  0  0  0  0
  -22.3747  -10.9610   19.6140 H   0  0  0  0  0  0
  -21.1990   -7.6112   23.9703 H   0  0  0  0  0  0
  -21.1519   -6.0519   25.9094 H   0  0  0  0  0  0
  -22.0593   -2.7568   23.2912 H   0  0  0  0  0  0
  -22.4108  -11.9787   22.4756 H   0  0  0  0  0  0
  -21.1049  -13.1087   22.2658 H   0  0  0  0  0  0
  -24.5945  -15.8168   20.4560 H   0  0  0  0  0  0
  -26.2472  -15.6520   20.1433 H   0  0  0  0  0  0
  -26.7275  -32.5467   23.1158 H   0  0  0  0  0  0
  -25.0236  -33.9750   25.0501 H   0  0  0  0  0  0
  -22.7312  -31.2925   21.3776 H   0  0  0  0  0  0
  -23.3729  -35.9628   23.3288 H   0  0  0  0  0  0
  -24.3565  -36.8941   22.2052 H   0  0  0  0  0  0
  -23.7249  -37.6485   23.6678 H   0  0  0  0  0  0
  -26.1351  -31.5341   20.6192 H   0  0  0  0  0  0
  -26.8687  -30.8262   22.0197 H   0  0  0  0  0  0
  -28.1548  -28.9312   21.1915 H   0  0  0  0  0  0
  -25.9774  -25.9359   18.9594 H   0  0  0  0  0  0
  -23.9967  -27.3207   18.9965 H   0  0  0  0  0  0
  -23.8338  -30.6087   19.4141 H   0  0  0  0  0  0
  -22.8023  -29.2581   19.8085 H   0  0  0  0  0  0
  -25.1284  -36.1908   25.0778 H   0  0  0  0  0  0
  -21.0031  -28.3281   24.1355 H   0  0  0  0  0  0
  -20.5689  -26.2299   23.3618 H   0  0  0  0  0  0
  -21.6655  -26.7397   22.1186 H   0  0  0  0  0  0
  -19.6885  -25.6264   21.1274 H   0  0  0  0  0  0
  -19.6708  -27.3148   20.6723 H   0  0  0  0  0  0
  -17.4223  -26.6727   21.4014 H   0  0  0  0  0  0
  -18.0297  -26.0093   22.9006 H   0  0  0  0  0  0
  -19.7983  -30.7270   24.2255 H   0  0  0  0  0  0
  -17.5064  -31.6249   24.5190 H   0  0  0  0  0  0
  -15.5393  -30.3002   23.7615 H   0  0  0  0  0  0
  -15.8725  -28.0842   22.7015 H   0  0  0  0  0  0
  -24.5919  -30.7152   25.7856 H   0  0  0  0  0  0
  -24.8942  -32.3039   26.4792 H   0  0  0  0  0  0
  -25.8070  -30.9125   27.0332 H   0  0  0  0  0  0
  -26.2992  -29.6722   24.1329 H   0  0  0  0  0  0
  -27.4128  -29.7310   25.4799 H   0  0  0  0  0  0
  -27.8862  -30.4268   23.9506 H   0  0  0  0  0  0
  -27.2665  -33.3744   26.2022 H   0  0  0  0  0  0
  -28.3962  -32.6923   25.0431 H   0  0  0  0  0  0
  -28.0680  -31.8619   26.5572 H   0  0  0  0  0  0
  -28.2573  -38.0104   24.7494 H   0  0  0  0  0  0
  -28.1079  -36.2632   24.6295 H   0  0  0  0  0  0
  -27.2299  -37.1467   25.8870 H   0  0  0  0  0  0
  -20.9409  -29.8957   21.7018 H   0  0  0  0  0  0
  -26.0138  -38.2825   24.1453 H   0  0  0  0  0  0
  -26.0617  -18.2157   21.7740 H   0  0  0  0  0  0
  -26.9007  -20.3292   20.8705 H   0  0  0  0  0  0
  -31.3051  -17.0891   23.1128 H   0  0  0  0  0  0
  -32.0353  -17.2767   21.5221 H   0  0  0  0  0  0
  -32.2686  -15.7872   22.4301 H   0  0  0  0  0  0
  -29.9835  -23.8746   20.9086 H   0  0  0  0  0  0
  -29.6098  -23.6951   19.2153 H   0  0  0  0  0  0
  -27.5169  -24.7492   21.2067 H   0  0  0  0  0  0
  -27.3794  -24.5792   19.4813 H   0  0  0  0  0  0
  -27.7763  -22.0273   19.8293 H   0  0  0  0  0  0
  -28.2507  -22.1561   21.4979 H   0  0  0  0  0  0
  -29.8147  -15.4710   22.3635 H   0  0  0  0  0  0
  1 25  1  0  0  0
  1 30  2  0  0  0
  1 80  1  0  0  0
  2  3  1  0  0  0
  2 25  1  0  0  0
  2 84  1  0  0  0
  2 85  1  0  0  0
  3  4  1  0  0  0
  3 86  1  0  0  0
  3 87  1  0  0  0
  4  5  1  0  0  0
  4 88  1  0  0  0
  4 89  1  0  0  0
  5  6  1  0  0  0
  5 26  1  0  0  0
  5 90  1  0  0  0
  6 25  1  0  0  0
  6 91  1  0  0  0
  6 92  1  0  0  0
  7  8  2  0  0  0
  7 26  1  0  0  0
  7 29  1  0  0  0
  8  9  1  0  0  0
  8 22  1  0  0  0
  9 10  1  0  0  0
  9 27  2  0  0  0
 10 11  2  0  0  0
 10 15  1  0  0  0
 11 12  1  0  0  0
 11 93  1  0  0  0
 12 13  2  0  0  0
 12 94  1  0  0  0
 13 14  1  0  0  0
 13 31  1  0  0  0
 14 15  2  0  0  0
 14 95  1  0  0  0
 15 96  1  0  0  0
 16 17  2  0  0  0
 16 21  1  0  0  0
 16 31  1  0  0  0
 17 18  1  0  0  0
 17 97  1  0  0  0
 18 19  2  0  0  0
 18 98  1  0  0  0
 19 20  1  0  0  0
 19 24  1  0  0  0
 20 21  2  0  0  0
 20 99  1  0  0  0
 21 23  1  0  0  0
 22 28  1  0  0  0
 22 32  2  0  0  0
 26 27  1  0  0  0
 28100  1  0  0  0
 28101  1  0  0  0
 29102  1  0  0  0
 29103  1  0  0  0
 33 34  1  0  0  0
 33 66  1  0  0  0
 33 70  2  0  0  0
 34 36  1  0  0  0
 34 59  1  0  0  0
 34104  1  0  0  0
 35 44  2  0  0  0
 35 45  1  0  0  0
 35 68  1  0  0  0
 36 56  1  0  0  0
 36105  1  0  0  0
 37 39  1  0  0  0
 37 47  1  0  0  0
 37 66  1  0  0  0
 37106  1  0  0  0
 38 43  2  0  0  0
 38 46  1  0  0  0
 38 47  1  0  0  0
 39 64  1  0  0  0
 39 67  2  0  0  0
 40 52  1  0  0  0
 40 53  2  0  0  0
 40 58  1  0  0  0
 41107  1  0  0  0
 41108  1  0  0  0
 41109  1  0  0  0
 41 48  1  0  0  0
 42 43  1  0  0  0
 42 66  1  0  0  0
 42110  1  0  0  0
 42111  1  0  0  0
 43 44  1  0  0  0
 44112  1  0  0  0
 45 46  2  0  0  0
 45113  1  0  0  0
 46114  1  0  0  0
 47115  1  0  0  0
 47116  1  0  0  0
 48 56  1  0  0  0
 48 65  1  0  0  0
 48117  1  0  0  0
 49 50  1  0  0  0
 49 53  1  0  0  0
 49 64  1  0  0  0
 49118  1  0  0  0
 50 51  1  0  0  0
 50119  1  0  0  0
 50120  1  0  0  0
 51 52  1  0  0  0
 51121  1  0  0  0
 51122  1  0  0  0
 52123  1  0  0  0
 52124  1  0  0  0
 53 54  1  0  0  0
 54 55  2  0  0  0
 54125  1  0  0  0
 55 57  1  0  0  0
 55126  1  0  0  0
 56 69  2  0  0  0
 57 58  2  0  0  0
 57127  1  0  0  0
 58128  1  0  0  0
 59 60  1  0  0  0
 59 61  1  0  0  0
 59 62  1  0  0  0
 60129  1  0  0  0
 60130  1  0  0  0
 60131  1  0  0  0
 61132  1  0  0  0
 61133  1  0  0  0
 61134  1  0  0  0
 62135  1  0  0  0
 62136  1  0  0  0
 62137  1  0  0  0
 63 65  1  0  0  0
 63138  1  0  0  0
 63139  1  0  0  0
 63140  1  0  0  0
 64141  1  0  0  0
 65142  1  0  0  0
 68 78  1  0  0  0
 71 72  2  0  0  0
 71 73  1  0  0  0
 71143  1  0  0  0
 72 75  1  0  0  0
 72144  1  0  0  0
 73 74  2  0  0  0
 73 83  1  0  0  0
 74 80  1  0  0  0
 74 81  1  0  0  0
 75 81  2  0  0  0
 75 82  1  0  0  0
 76145  1  0  0  0
 76146  1  0  0  0
 76147  1  0  0  0
 76 80  1  0  0  0
 77 78  1  0  0  0
 77 79  1  0  0  0
 77148  1  0  0  0
 77149  1  0  0  0
 78150  1  0  0  0
 78151  1  0  0  0
 79 82  1  0  0  0
 79152  1  0  0  0
 79153  1  0  0  0
 80154  1  0  0  0
M  ISO  4   1 100  68 101  78 101  80 100
M  END
> <chiral flag>
0

> <version>
0

> <s_m_source_file>
/data/baiqing/PycharmProjects/Reinvent-master-3.2/result/LINK_invent/BTK/process_docking_weight1_custom_sum_contain_oxygen_bond_distance_aromatic_linkinvent_7_9_3/rearranged_h_0111.sdf

> <i_m_source_file_index>
64

> <r_mmod_Potential_Energy-OPLS-2005>
184.415252685547

> <r_mmod_Stretch_Energy-OPLS-2005>
159.701248168945

> <r_mmod_Bend_Energy-OPLS-2005>
227.201446533203

> <r_mmod_Torsional_Energy-OPLS-2005>
183.348510742188

> <r_mmod_Improper_Torsional_Energy-OPLS-2005>
5.80342531204224

> <r_mmod_Van_der_Waal_Energy-OPLS-2005>
153.72477722168

> <r_mmod_Electrostatic_Energy-OPLS-2005>
-422.813720703125

> <r_mmod_Solvation_Energy-OPLS-2005>
-203.259475708008

> <b_mmod_Minimization_Converged-OPLS-2005>
0

> <r_mmod_RMS_Derivative-OPLS-2005>
5.48927736282349

$$$$
64
                    3D
 Structure written by MMmdl.
156164  0  0  1  0            999 V2000
  -30.5125  -14.9501   20.4324 C   0  0  0  0  0  0
  -30.4355  -12.5922   19.5044 C   0  0  0  0  0  0
  -29.5193  -12.5310   18.2587 C   0  0  0  0  0  0
  -28.0546  -12.2954   18.6762 C   0  0  0  0  0  0
  -27.6191  -13.2406   19.8268 C   0  0  2  0  0  0
  -28.6521  -13.2763   20.9710 C   0  0  0  0  0  0
  -25.2405  -13.8208   20.5663 C   0  0  0  0  0  0
  -24.1732  -13.0446   20.9235 C   0  0  0  0  0  0
  -24.6341  -11.6933   20.8757 C   0  0  0  0  0  0
  -23.9034  -10.4327   21.0429 C   0  0  0  0  0  0
  -24.3583   -9.4223   21.9201 C   0  0  0  0  0  0
  -23.6270   -8.2245   22.0755 C   0  0  0  0  0  0
  -22.4267   -8.0280   21.3524 C   0  0  0  0  0  0
  -21.9908   -9.0259   20.4649 C   0  0  0  0  0  0
  -22.7227  -10.2149   20.3064 C   0  0  0  0  0  0
  -21.6867   -6.0723   22.5268 C   0  0  0  0  0  0
  -21.4030   -6.5624   23.8206 C   0  0  0  0  0  0
  -21.3677   -5.6765   24.9165 C   0  0  0  0  0  0
  -21.6054   -4.3025   24.7210 C   0  0  0  0  0  0
  -21.8828   -3.8136   23.4331 C   0  0  0  0  0  0
  -21.9177   -4.6952   22.3382 C   0  0  0  0  0  0
  -22.7744  -13.5247   21.1848 C   0  0  0  0  0  0
  -22.1663   -4.2137   21.0959 F   0  0  0  0  0  0
  -21.5614   -3.4513   25.7720 F   0  0  0  0  0  0
  -29.9303  -13.6862   20.3774 N   0  0  0  0  0  0
  -26.2799  -12.9412   20.3131 N   0  0  0  0  0  0
  -25.9252  -11.6560   20.5703 N   0  0  0  0  0  0
  -22.0371  -12.8258   22.0428 N   0  0  0  0  0  0
  -25.4102  -15.1951   20.4067 N   0  0  0  0  0  0
  -31.7235  -15.0297   20.2003 O   0  0  0  0  0  0
  -21.6639   -6.8880   21.4237 O   0  0  0  0  0  0
  -22.3439  -14.5534   20.6683 O   0  0  0  0  0  0
  -24.6463  -31.8470   23.1932 C   0  0  0  0  0  0
  -25.9270  -32.4704   23.8296 C   0  0  1  0  0  0
  -27.1874  -27.1255   20.1423 C   0  0  0  0  0  0
  -25.6010  -33.8510   24.2207 N   0  0  0  0  0  0
  -23.4450  -30.4722   21.5385 C   0  0  2  0  0  0
  -24.8860  -28.9056   20.1047 C   0  0  0  0  0  0
  -22.7552  -29.4573   22.4859 C   0  0  0  0  0  0
  -18.0341  -28.1380   22.8487 C   0  0  0  0  0  0
  -24.1481  -36.7267   23.2625 C   0  0  0  0  0  0
  -26.0014  -30.7179   21.3887 C   0  0  0  0  0  0
  -26.0653  -29.3289   20.7281 C   0  0  0  0  0  0
  -27.2161  -28.4555   20.7327 C   0  0  0  0  0  0
  -25.9917  -26.8217   19.4549 C   0  0  0  0  0  0
  -24.8649  -27.6677   19.4544 C   0  0  0  0  0  0
  -23.6704  -29.8187   20.1508 C   0  0  0  0  0  0
  -25.4113  -36.3026   24.0304 C   0  0  1  0  0  0
  -20.5931  -28.3744   23.1274 C   0  0  2  0  0  0
  -20.6843  -26.9430   22.5452 C   0  0  0  0  0  0
  -19.5831  -26.6392   21.5241 C   0  0  0  0  0  0
  -18.2006  -26.7928   22.1619 C   0  0  0  0  0  0
  -19.1569  -28.8871   23.2879 C   0  0  0  0  0  0
  -18.9481  -30.1442   23.8932 C   0  0  0  0  0  0
  -17.6464  -30.6553   24.0599 C   0  0  0  0  0  0
  -25.9078  -34.9412   23.5047 C   0  0  0  0  0  0
  -16.5369  -29.9065   23.6306 C   0  0  0  0  0  0
  -16.7325  -28.6492   23.0335 C   0  0  0  0  0  0
  -26.4554  -31.6577   25.0749 C   0  0  0  0  0  0
  -25.3733  -31.3846   26.1465 C   0  0  0  0  0  0
  -27.0423  -30.2963   24.6357 C   0  0  0  0  0  0
  -27.6066  -32.4357   25.7553 C   0  0  0  0  0  0
  -27.5571  -37.1783   24.8465 C   0  0  0  0  0  0
  -21.4236  -29.3115   22.3650 N   0  0  0  0  0  0
  -26.4276  -37.3745   23.9390 N   0  0  0  0  0  0
  -24.7179  -31.0356   22.0945 N   0  0  0  0  0  0
  -23.4213  -28.8101   23.3004 O   0  0  0  0  0  0
  -28.2233  -26.1249   20.2532 O   0  0  0  0  0  0
  -26.5625  -34.8908   22.4601 O   0  0  0  0  0  0
  -23.5597  -32.1325   23.7184 O   0  0  0  0  0  0
  -27.7787  -21.5577   22.4710 C   0  0  0  0  0  0
  -27.7034  -22.9874   21.8630 C   0  0  0  0  0  0
  -29.0986  -20.7903   22.1721 C   0  0  0  0  0  0
  -28.7009  -21.7025   19.8978 C   0  0  0  0  0  0
  -28.5898  -23.2211   20.6115 C   0  0  1  0  0  0
  -28.0675  -24.6263   19.8323 C   0  0  0  0  0  0
  -30.0320  -17.6708   20.6333 C   0  0  0  0  0  0
  -28.9493  -18.9500   20.3771 C   0  0  0  0  0  0
  -29.7056  -16.1195   20.5464 N   0  0  0  0  0  0
  -29.2703  -20.4759   20.7218 N   0  3  2  0  0  0
  -31.4671  -12.7685   19.2025 H   0  0  0  0  0  0
  -30.4353  -11.6443   20.0414 H   0  0  0  0  0  0
  -29.8454  -11.7407   17.5802 H   0  0  0  0  0  0
  -29.5971  -13.4690   17.7070 H   0  0  0  0  0  0
  -27.9798  -11.2581   19.0019 H   0  0  0  0  0  0
  -27.3901  -12.3929   17.8169 H   0  0  0  0  0  0
  -27.5821  -14.2394   19.3869 H   0  0  0  0  0  0
  -28.7282  -12.3098   21.4637 H   0  0  0  0  0  0
  -28.3422  -13.9834   21.7422 H   0  0  0  0  0  0
  -25.2736   -9.5683   22.4756 H   0  0  0  0  0  0
  -23.9964   -7.4641   22.7480 H   0  0  0  0  0  0
  -21.0830   -8.8791   19.8983 H   0  0  0  0  0  0
  -22.3692  -10.9654   19.6149 H   0  0  0  0  0  0
  -21.2079   -7.6134   23.9722 H   0  0  0  0  0  0
  -21.1466   -6.0482   25.9054 H   0  0  0  0  0  0
  -22.0589   -2.7601   23.2808 H   0  0  0  0  0  0
  -22.3946  -11.9953   22.4891 H   0  0  0  0  0  0
  -21.1002  -13.1326   22.2615 H   0  0  0  0  0  0
  -24.6341  -15.8432   20.4954 H   0  0  0  0  0  0
  -26.2411  -15.6307   20.0304 H   0  0  0  0  0  0
  -26.7333  -32.5305   23.1024 H   0  0  0  0  0  0
  -25.0250  -33.9604   25.0427 H   0  0  0  0  0  0
  -22.7462  -31.2992   21.3989 H   0  0  0  0  0  0
  -23.3727  -35.9611   23.3271 H   0  0  0  0  0  0
  -24.3567  -36.8923   22.2043 H   0  0  0  0  0  0
  -23.7272  -37.6475   23.6676 H   0  0  0  0  0  0
  -26.1552  -31.4713   20.6156 H   0  0  0  0  0  0
  -26.8731  -30.7643   22.0283 H   0  0  0  0  0  0
  -28.1140  -28.7810   21.2381 H   0  0  0  0  0  0
  -25.8667  -25.8968   18.9157 H   0  0  0  0  0  0
  -23.9706  -27.3432   18.9413 H   0  0  0  0  0  0
  -23.8253  -30.6074   19.4126 H   0  0  0  0  0  0
  -22.7761  -29.2823   19.8297 H   0  0  0  0  0  0
  -25.1289  -36.1829   25.0796 H   0  0  0  0  0  0
  -21.0048  -28.3353   24.1405 H   0  0  0  0  0  0
  -20.5804  -26.2326   23.3652 H   0  0  0  0  0  0
  -21.6706  -26.7502   22.1232 H   0  0  0  0  0  0
  -19.7022  -25.6320   21.1254 H   0  0  0  0  0  0
  -19.6808  -27.3214   20.6794 H   0  0  0  0  0  0
  -17.4284  -26.6706   21.4008 H   0  0  0  0  0  0
  -18.0401  -26.0050   22.9000 H   0  0  0  0  0  0
  -19.7938  -30.7255   24.2364 H   0  0  0  0  0  0
  -17.4997  -31.6208   24.5256 H   0  0  0  0  0  0
  -15.5361  -30.2948   23.7620 H   0  0  0  0  0  0
  -15.8739  -28.0787   22.7034 H   0  0  0  0  0  0
  -24.5877  -30.7221   25.7829 H   0  0  0  0  0  0
  -24.8994  -32.3095   26.4761 H   0  0  0  0  0  0
  -25.8017  -30.9120   27.0323 H   0  0  0  0  0  0
  -26.3085  -29.6683   24.1314 H   0  0  0  0  0  0
  -27.3966  -29.7258   25.4952 H   0  0  0  0  0  0
  -27.9001  -30.4166   23.9742 H   0  0  0  0  0  0
  -27.2612  -33.3645   26.2095 H   0  0  0  0  0  0
  -28.3914  -32.6940   25.0441 H   0  0  0  0  0  0
  -28.0699  -31.8538   26.5527 H   0  0  0  0  0  0
  -28.2570  -38.0082   24.7462 H   0  0  0  0  0  0
  -28.1057  -36.2611   24.6315 H   0  0  0  0  0  0
  -27.2282  -37.1491   25.8863 H   0  0  0  0  0  0
  -20.9443  -29.8860   21.6869 H   0  0  0  0  0  0
  -26.0124  -38.2800   24.1408 H   0  0  0  0  0  0
  -26.9367  -20.9682   22.1037 H   0  0  0  0  0  0
  -27.6235  -21.6324   23.5476 H   0  0  0  0  0  0
  -27.9391  -23.7363   22.6184 H   0  0  0  0  0  0
  -26.6596  -23.1625   21.5982 H   0  0  0  0  0  0
  -29.1534  -19.8818   22.7790 H   0  0  0  0  0  0
  -29.9380  -21.4081   22.5010 H   0  0  0  0  0  0
  -29.3001  -21.7783   18.9893 H   0  0  0  0  0  0
  -27.6962  -21.4385   19.5600 H   0  0  0  0  0  0
  -29.5990  -23.4486   20.9491 H   0  0  0  0  0  0
  -27.0183  -24.4210   19.6577 H   0  0  0  0  0  0
  -28.5145  -24.5969   18.8392 H   0  0  0  0  0  0
  -30.8585  -17.8308   19.9383 H   0  0  0  0  0  0
  -30.4670  -17.8173   21.6215 H   0  0  0  0  0  0
  -28.0142  -18.7036   20.8850 H   0  0  0  0  0  0
  -28.6797  -18.9301   19.3233 H   0  0  0  0  0  0
  -28.7207  -15.9080   20.6053 H   0  0  0  0  0  0
  -30.2646  -20.5328   20.5607 H   0  0  0  0  0  0
  1 25  1  0  0  0
  1 30  2  0  0  0
  1 79  1  0  0  0
  2  3  1  0  0  0
  2 25  1  0  0  0
  2 81  1  0  0  0
  2 82  1  0  0  0
  3  4  1  0  0  0
  3 83  1  0  0  0
  3 84  1  0  0  0
  4  5  1  0  0  0
  4 85  1  0  0  0
  4 86  1  0  0  0
  5  6  1  0  0  0
  5 26  1  0  0  0
  5 87  1  0  0  0
  6 25  1  0  0  0
  6 88  1  0  0  0
  6 89  1  0  0  0
  7  8  2  0  0  0
  7 26  1  0  0  0
  7 29  1  0  0  0
  8  9  1  0  0  0
  8 22  1  0  0  0
  9 10  1  0  0  0
  9 27  2  0  0  0
 10 11  2  0  0  0
 10 15  1  0  0  0
 11 12  1  0  0  0
 11 90  1  0  0  0
 12 13  2  0  0  0
 12 91  1  0  0  0
 13 14  1  0  0  0
 13 31  1  0  0  0
 14 15  2  0  0  0
 14 92  1  0  0  0
 15 93  1  0  0  0
 16 17  2  0  0  0
 16 21  1  0  0  0
 16 31  1  0  0  0
 17 18  1  0  0  0
 17 94  1  0  0  0
 18 19  2  0  0  0
 18 95  1  0  0  0
 19 20  1  0  0  0
 19 24  1  0  0  0
 20 21  2  0  0  0
 20 96  1  0  0  0
 21 23  1  0  0  0
 22 28  1  0  0  0
 22 32  2  0  0  0
 26 27  1  0  0  0
 28 97  1  0  0  0
 28 98  1  0  0  0
 29 99  1  0  0  0
 29100  1  0  0  0
 33 34  1  0  0  0
 33 66  1  0  0  0
 33 70  2  0  0  0
 34 36  1  0  0  0
 34 59  1  0  0  0
 34101  1  0  0  0
 35 44  2  0  0  0
 35 45  1  0  0  0
 35 68  1  0  0  0
 36 56  1  0  0  0
 36102  1  0  0  0
 37 39  1  0  0  0
 37 47  1  0  0  0
 37 66  1  0  0  0
 37103  1  0  0  0
 38 43  2  0  0  0
 38 46  1  0  0  0
 38 47  1  0  0  0
 39 64  1  0  0  0
 39 67  2  0  0  0
 40 52  1  0  0  0
 40 53  2  0  0  0
 40 58  1  0  0  0
 41104  1  0  0  0
 41105  1  0  0  0
 41106  1  0  0  0
 41 48  1  0  0  0
 42 43  1  0  0  0
 42 66  1  0  0  0
 42107  1  0  0  0
 42108  1  0  0  0
 43 44  1  0  0  0
 44109  1  0  0  0
 45 46  2  0  0  0
 45110  1  0  0  0
 46111  1  0  0  0
 47112  1  0  0  0
 47113  1  0  0  0
 48 56  1  0  0  0
 48 65  1  0  0  0
 48114  1  0  0  0
 49 50  1  0  0  0
 49 53  1  0  0  0
 49 64  1  0  0  0
 49115  1  0  0  0
 50 51  1  0  0  0
 50116  1  0  0  0
 50117  1  0  0  0
 51 52  1  0  0  0
 51118  1  0  0  0
 51119  1  0  0  0
 52120  1  0  0  0
 52121  1  0  0  0
 53 54  1  0  0  0
 54 55  2  0  0  0
 54122  1  0  0  0
 55 57  1  0  0  0
 55123  1  0  0  0
 56 69  2  0  0  0
 57 58  2  0  0  0
 57124  1  0  0  0
 58125  1  0  0  0
 59 60  1  0  0  0
 59 61  1  0  0  0
 59 62  1  0  0  0
 60126  1  0  0  0
 60127  1  0  0  0
 60128  1  0  0  0
 61129  1  0  0  0
 61130  1  0  0  0
 61131  1  0  0  0
 62132  1  0  0  0
 62133  1  0  0  0
 62134  1  0  0  0
 63 65  1  0  0  0
 63135  1  0  0  0
 63136  1  0  0  0
 63137  1  0  0  0
 64138  1  0  0  0
 65139  1  0  0  0
 68 76  1  0  0  0
 71 72  1  0  0  0
 71 73  1  0  0  0
 71140  1  0  0  0
 71141  1  0  0  0
 72 75  1  0  0  0
 72142  1  0  0  0
 72143  1  0  0  0
 73 80  1  0  0  0
 73144  1  0  0  0
 73145  1  0  0  0
 74 75  1  0  0  0
 74 80  1  0  0  0
 74146  1  0  0  0
 74147  1  0  0  0
 75 76  1  0  0  0
 75148  1  0  0  0
 76149  1  0  0  0
 76150  1  0  0  0
 77 78  1  0  0  0
 77 79  1  0  0  0
 77151  1  0  0  0
 77152  1  0  0  0
 78153  1  0  0  0
 78154  1  0  0  0
 78 80  1  0  0  0
 79155  1  0  0  0
 80156  1  0  0  0
M  CHG  1  80   1
M  ISO  4   1 100  68 101  76 101  79 100
M  END
> <chiral flag>
0

> <version>
0

> <s_m_source_file>
/data/baiqing/PycharmProjects/Reinvent-master-3.2/result/LINK_invent/BTK/process_docking_weight1_custom_sum_contain_oxygen_bond_distance_aromatic_linkinvent_7_9_3/rearranged_h_0111.sdf

> <i_m_source_file_index>
65

> <r_mmod_Potential_Energy-OPLS-2005>
416.371643066406

> <r_mmod_Stretch_Energy-OPLS-2005>
270.226806640625

> <r_mmod_Bend_Energy-OPLS-2005>
264.719390869141

> <r_mmod_Torsional_Energy-OPLS-2005>
264.244415283203

> <r_mmod_Improper_Torsional_Energy-OPLS-2005>
4.41637325286865

> <r_mmod_Van_der_Waal_Energy-OPLS-2005>
124.865646362305

> <r_mmod_Electrostatic_Energy-OPLS-2005>
-246.307601928711

> <r_mmod_Solvation_Energy-OPLS-2005>
-471.07080078125

> <b_mmod_Minimization_Converged-OPLS-2005>
0

> <r_mmod_RMS_Derivative-OPLS-2005>
5.12699174880981

$$$$
65
                    3D
 Structure written by MMmdl.
162171  0  0  1  0            999 V2000
  -30.3827  -15.4015   20.3499 C   0  0  0  0  0  0
  -30.4357  -12.9106   19.5228 C   0  0  0  0  0  0
  -29.5424  -12.6030   18.2929 C   0  0  0  0  0  0
  -28.0975  -12.3031   18.7259 C   0  0  0  0  0  0
  -27.6057  -13.2869   19.8156 C   0  0  2  0  0  0
  -28.6354  -13.5134   20.9442 C   0  0  0  0  0  0
  -25.2387  -13.8262   20.5753 C   0  0  0  0  0  0
  -24.1757  -13.0436   20.9265 C   0  0  0  0  0  0
  -24.6434  -11.6943   20.8765 C   0  0  0  0  0  0
  -23.9132  -10.4297   21.0411 C   0  0  0  0  0  0
  -24.3673   -9.4208   21.9192 C   0  0  0  0  0  0
  -23.6314   -8.2257   22.0776 C   0  0  0  0  0  0
  -22.4298   -8.0314   21.3565 C   0  0  0  0  0  0
  -21.9949   -9.0290   20.4666 C   0  0  0  0  0  0
  -22.7304  -10.2153   20.3063 C   0  0  0  0  0  0
  -21.6860   -6.0768   22.5286 C   0  0  0  0  0  0
  -21.4022   -6.5654   23.8216 C   0  0  0  0  0  0
  -21.3655   -5.6799   24.9170 C   0  0  0  0  0  0
  -21.6041   -4.3059   24.7211 C   0  0  0  0  0  0
  -21.8820   -3.8170   23.4328 C   0  0  0  0  0  0
  -21.9189   -4.6989   22.3388 C   0  0  0  0  0  0
  -22.7775  -13.5204   21.1863 C   0  0  0  0  0  0
  -22.1657   -4.2184   21.0965 F   0  0  0  0  0  0
  -21.5619   -3.4534   25.7717 F   0  0  0  0  0  0
  -29.8418  -14.0696   20.3045 N   0  0  0  0  0  0
  -26.2812  -12.9551   20.3196 N   0  0  0  0  0  0
  -25.9367  -11.6649   20.5698 N   0  0  0  0  0  0
  -22.0406  -12.8220   22.0422 N   0  0  0  0  0  0
  -25.3974  -15.1997   20.4194 N   0  0  0  0  0  0
  -31.6095  -15.3787   20.1571 O   0  0  0  0  0  0
  -21.6646   -6.8918   21.4260 O   0  0  0  0  0  0
  -22.3472  -14.5489   20.6667 O   0  0  0  0  0  0
  -24.6692  -31.8126   23.1644 C   0  0  0  0  0  0
  -25.9349  -32.4505   23.8124 C   0  0  1  0  0  0
  -27.2101  -26.8321   20.1830 C   0  0  0  0  0  0
  -25.5986  -33.8330   24.2011 N   0  0  0  0  0  0
  -23.4899  -30.4203   21.5153 C   0  0  2  0  0  0
  -24.9463  -28.7992   20.1038 C   0  0  0  0  0  0
  -22.7702  -29.4352   22.4749 C   0  0  0  0  0  0
  -18.0325  -28.1404   22.8414 C   0  0  0  0  0  0
  -24.1504  -36.7184   23.2651 C   0  0  0  0  0  0
  -26.0633  -30.5822   21.4203 C   0  0  0  0  0  0
  -26.1257  -29.1663   20.7592 C   0  0  0  0  0  0
  -27.2413  -28.1992   20.7862 C   0  0  0  0  0  0
  -26.0098  -26.6556   19.4502 C   0  0  0  0  0  0
  -24.9204  -27.5687   19.4281 C   0  0  0  0  0  0
  -23.7370  -29.7369   20.1409 C   0  0  0  0  0  0
  -25.4139  -36.2902   24.0271 C   0  0  1  0  0  0
  -20.5943  -28.3756   23.1146 C   0  0  2  0  0  0
  -20.6803  -26.9426   22.5396 C   0  0  0  0  0  0
  -19.5791  -26.6362   21.5188 C   0  0  0  0  0  0
  -18.1962  -26.7934   22.1580 C   0  0  0  0  0  0
  -19.1584  -28.8903   23.2755 C   0  0  0  0  0  0
  -18.9500  -30.1481   23.8797 C   0  0  0  0  0  0
  -17.6502  -30.6587   24.0534 C   0  0  0  0  0  0
  -25.9121  -34.9294   23.4966 C   0  0  0  0  0  0
  -16.5384  -29.9075   23.6341 C   0  0  0  0  0  0
  -16.7302  -28.6504   23.0321 C   0  0  0  0  0  0
  -26.4588  -31.6490   25.0700 C   0  0  0  0  0  0
  -25.3682  -31.3780   26.1338 C   0  0  0  0  0  0
  -27.0531  -30.2835   24.6564 C   0  0  0  0  0  0
  -27.6043  -32.4369   25.7509 C   0  0  0  0  0  0
  -27.5577  -37.1732   24.8448 C   0  0  0  0  0  0
  -21.4376  -29.3001   22.3471 N   0  0  0  0  0  0
  -26.4274  -37.3665   23.9406 N   0  0  0  0  0  0
  -24.7624  -30.9679   22.0857 N   0  0  0  0  0  0
  -23.4200  -28.7951   23.3049 O   0  0  0  0  0  0
  -28.1645  -25.6638   20.3554 O   0  0  0  0  0  0
  -26.5740  -34.8844   22.4571 O   0  0  0  0  0  0
  -23.5748  -32.1169   23.6658 O   0  0  0  0  0  0
  -29.3757  -21.4111   20.0286 C   0  0  0  0  0  0
  -27.6954  -20.3025   20.7279 C   0  0  0  0  0  0
  -29.0516  -19.9930   20.3335 C   0  0  0  0  0  0
  -27.3422  -21.6639   20.6403 C   0  0  0  0  0  0
  -25.9532  -22.1446   20.8762 C   0  0  0  0  0  0
  -26.6355  -19.3084   21.1053 C   0  0  0  0  0  0
  -25.2829  -19.7670   20.5164 C   0  0  0  0  0  0
  -22.7763  -21.1178   21.9170 C   0  0  0  0  0  0
  -22.8872  -21.0733   19.3555 C   0  0  0  0  0  0
  -29.9194  -18.3879   20.2583 C   0  0  0  0  0  0
  -28.1493  -24.1725   19.6461 C   0  0  0  0  0  0
  -23.5440  -21.5649   20.6618 C   0  0  0  0  0  0
  -28.3615  -22.5397   20.1964 N   0  0  0  0  0  0
  -24.9760  -21.2034   20.7355 N   0  0  0  0  0  0
  -29.6215  -16.7100   20.4118 N   0  0  0  0  0  0
  -25.7265  -23.3334   21.1175 O   0  0  0  0  0  0
  -31.4414  -13.1460   19.1728 H   0  0  0  0  0  0
  -30.5477  -12.0265   20.1523 H   0  0  0  0  0  0
  -29.9462  -11.7611   17.7289 H   0  0  0  0  0  0
  -29.5530  -13.4579   17.6146 H   0  0  0  0  0  0
  -28.0762  -11.2849   19.1167 H   0  0  0  0  0  0
  -27.4297  -12.3181   17.8630 H   0  0  0  0  0  0
  -27.5015  -14.2398   19.2956 H   0  0  0  0  0  0
  -28.8408  -12.5922   21.4916 H   0  0  0  0  0  0
  -28.2485  -14.2298   21.6707 H   0  0  0  0  0  0
  -25.2832   -9.5664   22.4757 H   0  0  0  0  0  0
  -24.0014   -7.4660   22.7515 H   0  0  0  0  0  0
  -21.0879   -8.8838   19.8980 H   0  0  0  0  0  0
  -22.3795  -10.9694   19.6169 H   0  0  0  0  0  0
  -21.2028   -7.6167   23.9729 H   0  0  0  0  0  0
  -21.1468   -6.0522   25.9072 H   0  0  0  0  0  0
  -22.0601   -2.7630   23.2804 H   0  0  0  0  0  0
  -22.4022  -11.9921   22.4880 H   0  0  0  0  0  0
  -21.1019  -13.1269   22.2559 H   0  0  0  0  0  0
  -24.6143  -15.8362   20.5232 H   0  0  0  0  0  0
  -26.2194  -15.6421   20.0307 H   0  0  0  0  0  0
  -26.7412  -32.5014   23.0819 H   0  0  0  0  0  0
  -25.0011  -33.9386   25.0078 H   0  0  0  0  0  0
  -22.8062  -31.2524   21.3386 H   0  0  0  0  0  0
  -23.3770  -35.9511   23.3240 H   0  0  0  0  0  0
  -24.3585  -36.8943   22.2088 H   0  0  0  0  0  0
  -23.7276  -37.6341   23.6785 H   0  0  0  0  0  0
  -26.2637  -31.3214   20.6446 H   0  0  0  0  0  0
  -26.9136  -30.6354   22.0881 H   0  0  0  0  0  0
  -28.1182  -28.4625   21.3599 H   0  0  0  0  0  0
  -25.8448  -25.7264   18.9282 H   0  0  0  0  0  0
  -24.0275  -27.2868   18.8859 H   0  0  0  0  0  0
  -23.9080  -30.5071   19.3881 H   0  0  0  0  0  0
  -22.8457  -29.2009   19.8089 H   0  0  0  0  0  0
  -25.1357  -36.1677   25.0764 H   0  0  0  0  0  0
  -20.9971  -28.3376   24.1291 H   0  0  0  0  0  0
  -20.5668  -26.2361   23.3640 H   0  0  0  0  0  0
  -21.6672  -26.7392   22.1213 H   0  0  0  0  0  0
  -19.6956  -25.6247   21.1271 H   0  0  0  0  0  0
  -19.6757  -27.3112   20.6659 H   0  0  0  0  0  0
  -17.4232  -26.6605   21.3982 H   0  0  0  0  0  0
  -18.0373  -26.0108   22.9004 H   0  0  0  0  0  0
  -19.7984  -30.7293   24.2129 H   0  0  0  0  0  0
  -17.5069  -31.6251   24.5159 H   0  0  0  0  0  0
  -15.5377  -30.2947   23.7750 H   0  0  0  0  0  0
  -15.8692  -28.0823   22.7066 H   0  0  0  0  0  0
  -24.5867  -30.7133   25.7648 H   0  0  0  0  0  0
  -24.8872  -32.2994   26.4614 H   0  0  0  0  0  0
  -25.7885  -30.9048   27.0217 H   0  0  0  0  0  0
  -26.3249  -29.6436   24.1571 H   0  0  0  0  0  0
  -27.3989  -29.7280   25.5291 H   0  0  0  0  0  0
  -27.9219  -30.3962   24.0077 H   0  0  0  0  0  0
  -27.2561  -33.3715   26.1888 H   0  0  0  0  0  0
  -28.3928  -32.6854   25.0397 H   0  0  0  0  0  0
  -28.0616  -31.8653   26.5580 H   0  0  0  0  0  0
  -28.2514  -38.0109   24.7536 H   0  0  0  0  0  0
  -28.1159  -36.2621   24.6224 H   0  0  0  0  0  0
  -27.2286  -37.1309   25.8850 H   0  0  0  0  0  0
  -20.9652  -29.8710   21.6610 H   0  0  0  0  0  0
  -26.0099  -38.2704   24.1461 H   0  0  0  0  0  0
  -30.3169  -21.7379   19.6066 H   0  0  0  0  0  0
  -26.5740  -19.2448   22.1927 H   0  0  0  0  0  0
  -26.8945  -18.3131   20.7439 H   0  0  0  0  0  0
  -24.4935  -19.1229   20.9011 H   0  0  0  0  0  0
  -25.3097  -19.6041   19.4387 H   0  0  0  0  0  0
  -21.7356  -21.4357   21.8628 H   0  0  0  0  0  0
  -23.2063  -21.5533   22.8195 H   0  0  0  0  0  0
  -22.7738  -20.0345   22.0364 H   0  0  0  0  0  0
  -21.8894  -21.4994   19.2419 H   0  0  0  0  0  0
  -22.7789  -19.9877   19.3279 H   0  0  0  0  0  0
  -23.4698  -21.3703   18.4822 H   0  0  0  0  0  0
  -30.7400  -18.5390   20.9635 H   0  0  0  0  0  0
  -30.4099  -18.4432   19.2866 H   0  0  0  0  0  0
  -27.2162  -24.1334   19.0888 H   0  0  0  0  0  0
  -28.9068  -24.2805   18.8700 H   0  0  0  0  0  0
  -23.4485  -22.6523   20.6265 H   0  0  0  0  0  0
  -28.6387  -16.5271   20.5477 H   0  0  0  0  0  0
  1 25  1  0  0  0
  1 30  2  0  0  0
  1 85  1  0  0  0
  2  3  1  0  0  0
  2 25  1  0  0  0
  2 87  1  0  0  0
  2 88  1  0  0  0
  3  4  1  0  0  0
  3 89  1  0  0  0
  3 90  1  0  0  0
  4  5  1  0  0  0
  4 91  1  0  0  0
  4 92  1  0  0  0
  5  6  1  0  0  0
  5 26  1  0  0  0
  5 93  1  0  0  0
  6 25  1  0  0  0
  6 94  1  0  0  0
  6 95  1  0  0  0
  7  8  2  0  0  0
  7 26  1  0  0  0
  7 29  1  0  0  0
  8  9  1  0  0  0
  8 22  1  0  0  0
  9 10  1  0  0  0
  9 27  2  0  0  0
 10 11  2  0  0  0
 10 15  1  0  0  0
 11 12  1  0  0  0
 11 96  1  0  0  0
 12 13  2  0  0  0
 12 97  1  0  0  0
 13 14  1  0  0  0
 13 31  1  0  0  0
 14 15  2  0  0  0
 14 98  1  0  0  0
 15 99  1  0  0  0
 16 17  2  0  0  0
 16 21  1  0  0  0
 16 31  1  0  0  0
 17 18  1  0  0  0
 17100  1  0  0  0
 18 19  2  0  0  0
 18101  1  0  0  0
 19 20  1  0  0  0
 19 24  1  0  0  0
 20 21  2  0  0  0
 20102  1  0  0  0
 21 23  1  0  0  0
 22 28  1  0  0  0
 22 32  2  0  0  0
 26 27  1  0  0  0
 28103  1  0  0  0
 28104  1  0  0  0
 29105  1  0  0  0
 29106  1  0  0  0
 33 34  1  0  0  0
 33 66  1  0  0  0
 33 70  2  0  0  0
 34 36  1  0  0  0
 34 59  1  0  0  0
 34107  1  0  0  0
 35 44  2  0  0  0
 35 45  1  0  0  0
 35 68  1  0  0  0
 36 56  1  0  0  0
 36108  1  0  0  0
 37 39  1  0  0  0
 37 47  1  0  0  0
 37 66  1  0  0  0
 37109  1  0  0  0
 38 43  2  0  0  0
 38 46  1  0  0  0
 38 47  1  0  0  0
 39 64  1  0  0  0
 39 67  2  0  0  0
 40 52  1  0  0  0
 40 53  2  0  0  0
 40 58  1  0  0  0
 41110  1  0  0  0
 41111  1  0  0  0
 41112  1  0  0  0
 41 48  1  0  0  0
 42 43  1  0  0  0
 42 66  1  0  0  0
 42113  1  0  0  0
 42114  1  0  0  0
 43 44  1  0  0  0
 44115  1  0  0  0
 45 46  2  0  0  0
 45116  1  0  0  0
 46117  1  0  0  0
 47118  1  0  0  0
 47119  1  0  0  0
 48 56  1  0  0  0
 48 65  1  0  0  0
 48120  1  0  0  0
 49 50  1  0  0  0
 49 53  1  0  0  0
 49 64  1  0  0  0
 49121  1  0  0  0
 50 51  1  0  0  0
 50122  1  0  0  0
 50123  1  0  0  0
 51 52  1  0  0  0
 51124  1  0  0  0
 51125  1  0  0  0
 52126  1  0  0  0
 52127  1  0  0  0
 53 54  1  0  0  0
 54 55  2  0  0  0
 54128  1  0  0  0
 55 57  1  0  0  0
 55129  1  0  0  0
 56 69  2  0  0  0
 57 58  2  0  0  0
 57130  1  0  0  0
 58131  1  0  0  0
 59 60  1  0  0  0
 59 61  1  0  0  0
 59 62  1  0  0  0
 60132  1  0  0  0
 60133  1  0  0  0
 60134  1  0  0  0
 61135  1  0  0  0
 61136  1  0  0  0
 61137  1  0  0  0
 62138  1  0  0  0
 62139  1  0  0  0
 62140  1  0  0  0
 63 65  1  0  0  0
 63141  1  0  0  0
 63142  1  0  0  0
 63143  1  0  0  0
 64144  1  0  0  0
 65145  1  0  0  0
 68 81  1  0  0  0
 71 73  2  0  0  0
 71 83  1  0  0  0
 71146  1  0  0  0
 72 73  1  0  0  0
 72 74  2  0  0  0
 72 76  1  0  0  0
 73 80  1  0  0  0
 74 75  1  0  0  0
 74 83  1  0  0  0
 75 84  1  0  0  0
 75 86  2  0  0  0
 76 77  1  0  0  0
 76147  1  0  0  0
 76148  1  0  0  0
 77 84  1  0  0  0
 77149  1  0  0  0
 77150  1  0  0  0
 78151  1  0  0  0
 78152  1  0  0  0
 78153  1  0  0  0
 78 82  1  0  0  0
 79 82  1  0  0  0
 79154  1  0  0  0
 79155  1  0  0  0
 79156  1  0  0  0
 80 85  1  0  0  0
 80157  1  0  0  0
 80158  1  0  0  0
 81 83  1  0  0  0
 81159  1  0  0  0
 81160  1  0  0  0
 82 84  1  0  0  0
 82161  1  0  0  0
 85162  1  0  0  0
M  ISO  4   1 100  68 101  81 101  85 100
M  END
> <chiral flag>
0

> <version>
0

> <s_m_source_file>
/data/baiqing/PycharmProjects/Reinvent-master-3.2/result/LINK_invent/BTK/process_docking_weight1_custom_sum_contain_oxygen_bond_distance_aromatic_linkinvent_7_9_3/rearranged_h_0111.sdf

> <i_m_source_file_index>
66

> <r_mmod_Potential_Energy-OPLS-2005>
1724.61254882812

> <r_mmod_Stretch_Energy-OPLS-2005>
727.66650390625

> <r_mmod_Bend_Energy-OPLS-2005>
547.670593261719

> <r_mmod_Torsional_Energy-OPLS-2005>
265.724182128906

> <r_mmod_Improper_Torsional_Energy-OPLS-2005>
10.8908185958862

> <r_mmod_Van_der_Waal_Energy-OPLS-2005>
122.176193237305

> <r_mmod_Electrostatic_Energy-OPLS-2005>
-330.049957275391

> <r_mmod_Solvation_Energy-OPLS-2005>
-241.547409057617

> <b_mmod_Minimization_Converged-OPLS-2005>
0

> <r_mmod_RMS_Derivative-OPLS-2005>
2.77387571334839

$$$$
66
                    3D
 Structure written by MMmdl.
161168  0  0  1  0            999 V2000
  -30.6694  -14.5118   20.6192 C   0  0  0  0  0  0
  -30.4411  -12.3514   19.4153 C   0  0  0  0  0  0
  -29.5032  -12.5215   18.2007 C   0  0  0  0  0  0
  -28.0204  -12.3774   18.6075 C   0  0  0  0  0  0
  -27.6615  -13.2053   19.8703 C   0  0  2  0  0  0
  -28.7032  -12.9773   20.9875 C   0  0  0  0  0  0
  -25.2586  -13.8147   20.5662 C   0  0  0  0  0  0
  -24.1841  -13.0433   20.9171 C   0  0  0  0  0  0
  -24.6384  -11.6905   20.8709 C   0  0  0  0  0  0
  -23.9051  -10.4286   21.0372 C   0  0  0  0  0  0
  -24.3612   -9.4205   21.9160 C   0  0  0  0  0  0
  -23.6301   -8.2237   22.0737 C   0  0  0  0  0  0
  -22.4278   -8.0264   21.3533 C   0  0  0  0  0  0
  -21.9899   -9.0227   20.4629 C   0  0  0  0  0  0
  -22.7206  -10.2131   20.3023 C   0  0  0  0  0  0
  -21.6878   -6.0712   22.5274 C   0  0  0  0  0  0
  -21.4017   -6.5626   23.8199 C   0  0  0  0  0  0
  -21.3663   -5.6787   24.9172 C   0  0  0  0  0  0
  -21.6055   -4.3043   24.7238 C   0  0  0  0  0  0
  -21.8821   -3.8125   23.4357 C   0  0  0  0  0  0
  -21.9213   -4.6939   22.3403 C   0  0  0  0  0  0
  -22.7858  -13.5243   21.1855 C   0  0  0  0  0  0
  -22.1674   -4.2120   21.0974 F   0  0  0  0  0  0
  -21.5644   -3.4516   25.7751 F   0  0  0  0  0  0
  -30.0295  -13.3206   20.4438 N   0  0  0  0  0  0
  -26.3021  -12.9303   20.3319 N   0  0  0  0  0  0
  -25.9320  -11.6464   20.5733 N   0  0  0  0  0  0
  -22.0492  -12.8239   22.0396 N   0  0  0  0  0  0
  -25.4290  -15.1868   20.4070 N   0  0  0  0  0  0
  -31.7854  -14.7455   20.1423 O   0  0  0  0  0  0
  -21.6666   -6.8853   21.4222 O   0  0  0  0  0  0
  -22.3547  -14.5538   20.6678 O   0  0  0  0  0  0
  -24.6125  -31.8682   23.2062 C   0  0  0  0  0  0
  -25.9024  -32.4828   23.8367 C   0  0  1  0  0  0
  -27.2438  -27.4282   20.1158 C   0  0  0  0  0  0
  -25.5898  -33.8622   24.2319 N   0  0  0  0  0  0
  -23.4032  -30.4866   21.5446 C   0  0  2  0  0  0
  -24.8535  -28.9421   20.1239 C   0  0  0  0  0  0
  -22.7415  -29.4648   22.4975 C   0  0  0  0  0  0
  -18.0270  -28.1355   22.8478 C   0  0  0  0  0  0
  -24.1478  -36.7312   23.2641 C   0  0  0  0  0  0
  -25.9303  -30.8321   21.3582 C   0  0  0  0  0  0
  -26.0112  -29.4591   20.7190 C   0  0  0  0  0  0
  -27.2103  -28.7103   20.7111 C   0  0  0  0  0  0
  -26.0733  -26.9234   19.5145 C   0  0  0  0  0  0
  -24.8772  -27.6696   19.5237 C   0  0  0  0  0  0
  -23.6137  -29.8075   20.1646 C   0  0  0  0  0  0
  -25.4106  -36.3118   24.0341 C   0  0  1  0  0  0
  -20.5869  -28.3642   23.1314 C   0  0  2  0  0  0
  -20.6762  -26.9376   22.5424 C   0  0  0  0  0  0
  -19.5752  -26.6367   21.5199 C   0  0  0  0  0  0
  -18.1918  -26.7911   22.1603 C   0  0  0  0  0  0
  -19.1530  -28.8811   23.2887 C   0  0  0  0  0  0
  -18.9456  -30.1413   23.8905 C   0  0  0  0  0  0
  -17.6470  -30.6569   24.0544 C   0  0  0  0  0  0
  -25.9043  -34.9483   23.5129 C   0  0  0  0  0  0
  -16.5353  -29.9070   23.6320 C   0  0  0  0  0  0
  -16.7269  -28.6481   23.0337 C   0  0  0  0  0  0
  -26.4460  -31.6602   25.0676 C   0  0  0  0  0  0
  -25.3766  -31.3726   26.1456 C   0  0  0  0  0  0
  -27.0268  -30.3043   24.6030 C   0  0  0  0  0  0
  -27.6019  -32.4328   25.7459 C   0  0  0  0  0  0
  -27.5585  -37.1804   24.8462 C   0  0  0  0  0  0
  -21.4145  -29.3041   22.3745 N   0  0  0  0  0  0
  -26.4295  -37.3800   23.9423 N   0  0  0  0  0  0
  -24.6658  -31.0776   22.0953 N   0  0  0  0  0  0
  -23.4180  -28.8186   23.3007 O   0  0  0  0  0  0
  -28.4170  -26.7098   20.0460 O   0  0  0  0  0  0
  -26.5593  -34.8931   22.4680 O   0  0  0  0  0  0
  -23.5333  -32.1421   23.7481 O   0  0  0  0  0  0
  -27.5155  -19.2431   20.7851 C   0  0  0  0  0  0
  -30.9803  -20.7440   21.7538 C   0  0  0  0  0  0
  -29.6755  -17.9131   20.5767 C   0  0  0  0  0  0
  -28.4243  -24.2434   20.4697 C   0  0  0  0  0  0
  -30.2670  -16.8679   21.5815 C   0  0  0  0  0  0
  -29.3352  -23.1399   21.0972 C   0  0  0  0  0  0
  -28.6201  -25.6806   21.0306 C   0  0  0  0  0  0
  -29.0135  -19.2200   21.1716 C   0  0  1  0  0  0
  -29.7574  -20.5717   20.8268 C   0  0  1  0  0  0
  -29.9453  -15.4588   21.2564 N   0  0  0  0  0  0
  -28.8285  -21.7559   20.8370 N   0  3  0  0  0  0
  -31.4795  -12.4925   19.1058 H   0  0  0  0  0  0
  -30.3862  -11.3335   19.8027 H   0  0  0  0  0  0
  -29.7485  -11.7925   17.4256 H   0  0  0  0  0  0
  -29.6598  -13.5049   17.7521 H   0  0  0  0  0  0
  -27.8289  -11.3193   18.7911 H   0  0  0  0  0  0
  -27.3748  -12.6640   17.7741 H   0  0  0  0  0  0
  -27.7037  -14.2558   19.5809 H   0  0  0  0  0  0
  -28.6974  -11.9319   21.2967 H   0  0  0  0  0  0
  -28.4492  -13.5421   21.8848 H   0  0  0  0  0  0
  -25.2741   -9.5742   22.4760 H   0  0  0  0  0  0
  -24.0040   -7.4636   22.7457 H   0  0  0  0  0  0
  -21.0834   -8.8725   19.8941 H   0  0  0  0  0  0
  -22.3608  -10.9684   19.6155 H   0  0  0  0  0  0
  -21.1989   -7.6126   23.9696 H   0  0  0  0  0  0
  -21.1495   -6.0510   25.9088 H   0  0  0  0  0  0
  -22.0609   -2.7585   23.2864 H   0  0  0  0  0  0
  -22.4126  -11.9955   22.4870 H   0  0  0  0  0  0
  -21.1066  -13.1229   22.2504 H   0  0  0  0  0  0
  -24.6598  -15.8387   20.5131 H   0  0  0  0  0  0
  -26.2785  -15.6253   20.0766 H   0  0  0  0  0  0
  -26.7094  -32.5542   23.1128 H   0  0  0  0  0  0
  -25.0080  -33.9800   25.0477 H   0  0  0  0  0  0
  -22.6906  -31.3000   21.3971 H   0  0  0  0  0  0
  -23.3750  -35.9635   23.3319 H   0  0  0  0  0  0
  -24.3574  -36.8918   22.2061 H   0  0  0  0  0  0
  -23.7227  -37.6514   23.6652 H   0  0  0  0  0  0
  -26.0421  -31.5942   20.5841 H   0  0  0  0  0  0
  -26.8188  -30.8932   21.9738 H   0  0  0  0  0  0
  -28.1082  -29.1158   21.1556 H   0  0  0  0  0  0
  -26.0904  -25.9563   19.0328 H   0  0  0  0  0  0
  -23.9833  -27.2627   19.0712 H   0  0  0  0  0  0
  -23.7223  -30.5727   19.3962 H   0  0  0  0  0  0
  -22.7417  -29.2211   19.8687 H   0  0  0  0  0  0
  -25.1285  -36.1984   25.0843 H   0  0  0  0  0  0
  -20.9946  -28.3186   24.1440 H   0  0  0  0  0  0
  -20.5632  -26.2238   23.3604 H   0  0  0  0  0  0
  -21.6626  -26.7391   22.1235 H   0  0  0  0  0  0
  -19.6912  -25.6275   21.1218 H   0  0  0  0  0  0
  -19.6713  -27.3185   20.6737 H   0  0  0  0  0  0
  -17.4205  -26.6655   21.3996 H   0  0  0  0  0  0
  -18.0315  -26.0055   22.9008 H   0  0  0  0  0  0
  -19.7933  -30.7204   24.2294 H   0  0  0  0  0  0
  -17.5030  -31.6259   24.5135 H   0  0  0  0  0  0
  -15.5357  -30.2979   23.7632 H   0  0  0  0  0  0
  -15.8662  -28.0800   22.7057 H   0  0  0  0  0  0
  -24.5860  -30.7160   25.7818 H   0  0  0  0  0  0
  -24.9059  -32.2913   26.4986 H   0  0  0  0  0  0
  -25.8149  -30.8830   27.0161 H   0  0  0  0  0  0
  -26.2775  -29.6831   24.1116 H   0  0  0  0  0  0
  -27.4066  -29.7258   25.4461 H   0  0  0  0  0  0
  -27.8606  -30.4350   23.9141 H   0  0  0  0  0  0
  -27.2583  -33.3570   26.2120 H   0  0  0  0  0  0
  -28.3796  -32.7011   25.0293 H   0  0  0  0  0  0
  -28.0728  -31.8421   26.5330 H   0  0  0  0  0  0
  -28.2596  -38.0099   24.7511 H   0  0  0  0  0  0
  -28.1075  -36.2637   24.6277 H   0  0  0  0  0  0
  -27.2304  -37.1459   25.8857 H   0  0  0  0  0  0
  -20.9293  -29.8782   21.6994 H   0  0  0  0  0  0
  -26.0180  -38.2869   24.1428 H   0  0  0  0  0  0
  -27.0337  -18.3014   21.0469 H   0  0  0  0  0  0
  -27.3735  -19.3922   19.7143 H   0  0  0  0  0  0
  -26.9530  -20.0167   21.3090 H   0  0  0  0  0  0
  -31.5864  -19.8371   21.7678 H   0  0  0  0  0  0
  -30.6854  -20.9545   22.7821 H   0  0  0  0  0  0
  -31.6406  -21.5457   21.4249 H   0  0  0  0  0  0
  -28.9302  -17.3939   19.9729 H   0  0  0  0  0  0
  -30.4458  -18.1828   19.8525 H   0  0  0  0  0  0
  -27.3738  -23.9758   20.5805 H   0  0  0  0  0  0
  -28.6128  -24.2550   19.3954 H   0  0  0  0  0  0
  -29.8518  -17.0409   22.5750 H   0  0  0  0  0  0
  -31.3459  -17.0021   21.6817 H   0  0  0  0  0  0
  -29.4090  -23.2806   22.1773 H   0  0  0  0  0  0
  -30.3432  -23.2676   20.6995 H   0  0  0  0  0  0
  -29.6433  -25.7950   21.3888 H   0  0  0  0  0  0
  -27.9896  -25.8372   21.9077 H   0  0  0  0  0  0
  -29.0154  -19.1383   22.2585 H   0  0  0  0  0  0
  -30.1268  -20.5059   19.8008 H   0  0  0  0  0  0
  -29.0421  -15.1389   21.5809 H   0  0  0  0  0  0
  -28.3842  -21.7679   19.9316 H   0  0  0  0  0  0
  -28.1002  -21.5670   21.5060 H   0  0  0  0  0  0
  1 25  1  0  0  0
  1 30  2  0  0  0
  1 80  1  0  0  0
  2  3  1  0  0  0
  2 25  1  0  0  0
  2 82  1  0  0  0
  2 83  1  0  0  0
  3  4  1  0  0  0
  3 84  1  0  0  0
  3 85  1  0  0  0
  4  5  1  0  0  0
  4 86  1  0  0  0
  4 87  1  0  0  0
  5  6  1  0  0  0
  5 26  1  0  0  0
  5 88  1  0  0  0
  6 25  1  0  0  0
  6 89  1  0  0  0
  6 90  1  0  0  0
  7  8  2  0  0  0
  7 26  1  0  0  0
  7 29  1  0  0  0
  8  9  1  0  0  0
  8 22  1  0  0  0
  9 10  1  0  0  0
  9 27  2  0  0  0
 10 11  2  0  0  0
 10 15  1  0  0  0
 11 12  1  0  0  0
 11 91  1  0  0  0
 12 13  2  0  0  0
 12 92  1  0  0  0
 13 14  1  0  0  0
 13 31  1  0  0  0
 14 15  2  0  0  0
 14 93  1  0  0  0
 15 94  1  0  0  0
 16 17  2  0  0  0
 16 21  1  0  0  0
 16 31  1  0  0  0
 17 18  1  0  0  0
 17 95  1  0  0  0
 18 19  2  0  0  0
 18 96  1  0  0  0
 19 20  1  0  0  0
 19 24  1  0  0  0
 20 21  2  0  0  0
 20 97  1  0  0  0
 21 23  1  0  0  0
 22 28  1  0  0  0
 22 32  2  0  0  0
 26 27  1  0  0  0
 28 98  1  0  0  0
 28 99  1  0  0  0
 29100  1  0  0  0
 29101  1  0  0  0
 33 34  1  0  0  0
 33 66  1  0  0  0
 33 70  2  0  0  0
 34 36  1  0  0  0
 34 59  1  0  0  0
 34102  1  0  0  0
 35 44  2  0  0  0
 35 45  1  0  0  0
 35 68  1  0  0  0
 36 56  1  0  0  0
 36103  1  0  0  0
 37 39  1  0  0  0
 37 47  1  0  0  0
 37 66  1  0  0  0
 37104  1  0  0  0
 38 43  2  0  0  0
 38 46  1  0  0  0
 38 47  1  0  0  0
 39 64  1  0  0  0
 39 67  2  0  0  0
 40 52  1  0  0  0
 40 53  2  0  0  0
 40 58  1  0  0  0
 41105  1  0  0  0
 41106  1  0  0  0
 41107  1  0  0  0
 41 48  1  0  0  0
 42 43  1  0  0  0
 42 66  1  0  0  0
 42108  1  0  0  0
 42109  1  0  0  0
 43 44  1  0  0  0
 44110  1  0  0  0
 45 46  2  0  0  0
 45111  1  0  0  0
 46112  1  0  0  0
 47113  1  0  0  0
 47114  1  0  0  0
 48 56  1  0  0  0
 48 65  1  0  0  0
 48115  1  0  0  0
 49 50  1  0  0  0
 49 53  1  0  0  0
 49 64  1  0  0  0
 49116  1  0  0  0
 50 51  1  0  0  0
 50117  1  0  0  0
 50118  1  0  0  0
 51 52  1  0  0  0
 51119  1  0  0  0
 51120  1  0  0  0
 52121  1  0  0  0
 52122  1  0  0  0
 53 54  1  0  0  0
 54 55  2  0  0  0
 54123  1  0  0  0
 55 57  1  0  0  0
 55124  1  0  0  0
 56 69  2  0  0  0
 57 58  2  0  0  0
 57125  1  0  0  0
 58126  1  0  0  0
 59 60  1  0  0  0
 59 61  1  0  0  0
 59 62  1  0  0  0
 60127  1  0  0  0
 60128  1  0  0  0
 60129  1  0  0  0
 61130  1  0  0  0
 61131  1  0  0  0
 61132  1  0  0  0
 62133  1  0  0  0
 62134  1  0  0  0
 62135  1  0  0  0
 63 65  1  0  0  0
 63136  1  0  0  0
 63137  1  0  0  0
 63138  1  0  0  0
 64139  1  0  0  0
 65140  1  0  0  0
 68 77  1  0  0  0
 71141  1  0  0  0
 71142  1  0  0  0
 71143  1  0  0  0
 71 78  1  0  0  0
 72144  1  0  0  0
 72145  1  0  0  0
 72146  1  0  0  0
 72 79  1  0  0  0
 73 75  1  0  0  0
 73 78  1  0  0  0
 73147  1  0  0  0
 73148  1  0  0  0
 74 76  1  0  0  0
 74 77  1  0  0  0
 74149  1  0  0  0
 74150  1  0  0  0
 75 80  1  0  0  0
 75151  1  0  0  0
 75152  1  0  0  0
 76 81  1  0  0  0
 76153  1  0  0  0
 76154  1  0  0  0
 77155  1  0  0  0
 77156  1  0  0  0
 78 79  1  0  0  0
 78157  1  0  0  0
 79 81  1  0  0  0
 79158  1  0  0  0
 80159  1  0  0  0
 81160  1  0  0  0
 81161  1  0  0  0
M  CHG  1  81   1
M  ISO  4   1 100  68 101  77 101  80 100
M  END
> <chiral flag>
0

> <version>
0

> <s_m_source_file>
/data/baiqing/PycharmProjects/Reinvent-master-3.2/result/LINK_invent/BTK/process_docking_weight1_custom_sum_contain_oxygen_bond_distance_aromatic_linkinvent_7_9_3/rearranged_h_0111.sdf

> <i_m_source_file_index>
67

> <r_mmod_Potential_Energy-OPLS-2005>
-145.988662719727

> <r_mmod_Stretch_Energy-OPLS-2005>
46.8030433654785

> <r_mmod_Bend_Energy-OPLS-2005>
113.469970703125

> <r_mmod_Torsional_Energy-OPLS-2005>
279.541198730469

> <r_mmod_Improper_Torsional_Energy-OPLS-2005>
2.72381973266602

> <r_mmod_Van_der_Waal_Energy-OPLS-2005>
128.46142578125

> <r_mmod_Electrostatic_Energy-OPLS-2005>
-271.901397705078

> <r_mmod_Solvation_Energy-OPLS-2005>
-459.802093505859

> <b_mmod_Minimization_Converged-OPLS-2005>
0

> <r_mmod_RMS_Derivative-OPLS-2005>
4.02126598358154

$$$$
67
                    3D
 Structure written by MMmdl.
154162  0  0  1  0            999 V2000
  -30.5326  -15.0004   20.4313 C   0  0  0  0  0  0
  -30.4422  -12.6302   19.5021 C   0  0  0  0  0  0
  -29.5306  -12.5588   18.2560 C   0  0  0  0  0  0
  -28.0594  -12.3430   18.6614 C   0  0  0  0  0  0
  -27.6326  -13.2541   19.8443 C   0  0  2  0  0  0
  -28.6743  -13.2924   20.9814 C   0  0  0  0  0  0
  -25.2508  -13.8221   20.5743 C   0  0  0  0  0  0
  -24.1805  -13.0437   20.9208 C   0  0  0  0  0  0
  -24.6393  -11.6928   20.8729 C   0  0  0  0  0  0
  -23.9048  -10.4314   21.0378 C   0  0  0  0  0  0
  -24.3607   -9.4250   21.9170 C   0  0  0  0  0  0
  -23.6305   -8.2271   22.0737 C   0  0  0  0  0  0
  -22.4284   -8.0283   21.3537 C   0  0  0  0  0  0
  -21.9919   -9.0242   20.4627 C   0  0  0  0  0  0
  -22.7211  -10.2139   20.3051 C   0  0  0  0  0  0
  -21.6880   -6.0732   22.5269 C   0  0  0  0  0  0
  -21.4011   -6.5633   23.8191 C   0  0  0  0  0  0
  -21.3672   -5.6790   24.9170 C   0  0  0  0  0  0
  -21.6046   -4.3052   24.7221 C   0  0  0  0  0  0
  -21.8816   -3.8131   23.4351 C   0  0  0  0  0  0
  -21.9194   -4.6952   22.3401 C   0  0  0  0  0  0
  -22.7827  -13.5226   21.1845 C   0  0  0  0  0  0
  -22.1663   -4.2132   21.0983 F   0  0  0  0  0  0
  -21.5645   -3.4539   25.7743 F   0  0  0  0  0  0
  -29.9347  -13.7345   20.3727 N   0  0  0  0  0  0
  -26.2907  -12.9449   20.3276 N   0  0  0  0  0  0
  -25.9330  -11.6565   20.5699 N   0  0  0  0  0  0
  -22.0461  -12.8223   22.0400 N   0  0  0  0  0  0
  -25.4177  -15.1956   20.4151 N   0  0  0  0  0  0
  -31.7430  -15.0331   20.1827 O   0  0  0  0  0  0
  -21.6663   -6.8873   21.4229 O   0  0  0  0  0  0
  -22.3523  -14.5512   20.6643 O   0  0  0  0  0  0
  -24.6472  -31.8407   23.1790 C   0  0  0  0  0  0
  -25.9225  -32.4689   23.8187 C   0  0  1  0  0  0
  -27.2179  -27.0822   20.1831 C   0  0  0  0  0  0
  -25.5941  -33.8498   24.2093 N   0  0  0  0  0  0
  -23.4502  -30.4559   21.5295 C   0  0  2  0  0  0
  -24.9007  -28.8674   20.1190 C   0  0  0  0  0  0
  -22.7573  -29.4530   22.4850 C   0  0  0  0  0  0
  -18.0296  -28.1438   22.8508 C   0  0  0  0  0  0
  -24.1449  -36.7227   23.2650 C   0  0  0  0  0  0
  -26.0086  -30.7042   21.3768 C   0  0  0  0  0  0
  -26.0845  -29.3075   20.7258 C   0  0  0  0  0  0
  -27.2413  -28.4344   20.7329 C   0  0  0  0  0  0
  -26.0068  -26.7518   19.5359 C   0  0  0  0  0  0
  -24.8780  -27.6026   19.5106 C   0  0  0  0  0  0
  -23.6800  -29.7773   20.1537 C   0  0  0  0  0  0
  -25.4103  -36.3014   24.0297 C   0  0  1  0  0  0
  -20.5906  -28.3743   23.1255 C   0  0  2  0  0  0
  -20.6782  -26.9434   22.5446 C   0  0  0  0  0  0
  -19.5747  -26.6393   21.5261 C   0  0  0  0  0  0
  -18.1916  -26.7982   22.1653 C   0  0  0  0  0  0
  -19.1558  -28.8915   23.2858 C   0  0  0  0  0  0
  -18.9494  -30.1511   23.8872 C   0  0  0  0  0  0
  -17.6505  -30.6643   24.0580 C   0  0  0  0  0  0
  -25.9102  -34.9414   23.5012 C   0  0  0  0  0  0
  -16.5384  -29.9151   23.6359 C   0  0  0  0  0  0
  -16.7290  -28.6561   23.0381 C   0  0  0  0  0  0
  -26.4520  -31.6588   25.0658 C   0  0  0  0  0  0
  -25.3671  -31.3841   26.1328 C   0  0  0  0  0  0
  -27.0372  -30.2976   24.6251 C   0  0  0  0  0  0
  -27.5986  -32.4401   25.7480 C   0  0  0  0  0  0
  -27.5529  -37.1758   24.8475 C   0  0  0  0  0  0
  -21.4254  -29.3044   22.3609 N   0  0  0  0  0  0
  -26.4237  -37.3746   23.9426 N   0  0  0  0  0  0
  -24.7225  -31.0223   22.0838 N   0  0  0  0  0  0
  -23.4189  -28.8100   23.3042 O   0  0  0  0  0  0
  -28.2646  -26.0778   20.2772 O   0  0  0  0  0  0
  -26.5710  -34.8921   22.4608 O   0  0  0  0  0  0
  -23.5593  -32.1287   23.7011 O   0  0  0  0  0  0
  -28.0182  -19.5288   20.5331 C   0  0  0  0  0  0
  -27.7640  -20.9038   20.5273 C   0  0  0  0  0  0
  -29.9109  -20.5639   20.4754 C   0  0  0  0  0  0
  -29.4222  -19.2203   20.5037 C   0  0  0  0  0  0
  -30.3706  -23.6040   19.6804 C   0  0  0  0  0  0
  -29.5489  -23.4944   22.0343 C   0  0  0  0  0  0
  -30.2587  -17.7485   20.5227 C   0  0  0  0  0  0
  -28.0236  -24.5097   20.2121 C   0  0  0  0  0  0
  -29.1539  -23.2615   20.5641 C   0  0  0  0  0  0
  -28.9378  -21.6550   20.4661 N   0  0  0  0  0  0
  -29.7868  -16.2225   20.5592 N   0  0  0  0  0  0
  -31.4753  -12.7980   19.1953 H   0  0  0  0  0  0
  -30.4407  -11.6775   20.0347 H   0  0  0  0  0  0
  -29.8540  -11.7623   17.5870 H   0  0  0  0  0  0
  -29.6243  -13.4899   17.6942 H   0  0  0  0  0  0
  -27.9380  -11.2946   18.9326 H   0  0  0  0  0  0
  -27.4066  -12.5147   17.8052 H   0  0  0  0  0  0
  -27.5895  -14.2613   19.4299 H   0  0  0  0  0  0
  -28.7850  -12.3132   21.4499 H   0  0  0  0  0  0
  -28.3631  -13.9783   21.7712 H   0  0  0  0  0  0
  -25.2756   -9.5733   22.4751 H   0  0  0  0  0  0
  -24.0009   -7.4669   22.7478 H   0  0  0  0  0  0
  -21.0845   -8.8722   19.8957 H   0  0  0  0  0  0
  -22.3626  -10.9657   19.6162 H   0  0  0  0  0  0
  -21.1992   -7.6138   23.9672 H   0  0  0  0  0  0
  -21.1507   -6.0543   25.9064 H   0  0  0  0  0  0
  -22.0583   -2.7590   23.2850 H   0  0  0  0  0  0
  -22.4056  -11.9958   22.4931 H   0  0  0  0  0  0
  -21.1031  -13.1196   22.2453 H   0  0  0  0  0  0
  -24.6512  -15.8467   20.5460 H   0  0  0  0  0  0
  -26.2481  -15.6298   20.0309 H   0  0  0  0  0  0
  -26.7295  -32.5299   23.0914 H   0  0  0  0  0  0
  -25.0018  -33.9594   25.0194 H   0  0  0  0  0  0
  -22.7522  -31.2804   21.3693 H   0  0  0  0  0  0
  -23.3730  -35.9543   23.3356 H   0  0  0  0  0  0
  -24.3535  -36.8849   22.2059 H   0  0  0  0  0  0
  -23.7174  -37.6410   23.6704 H   0  0  0  0  0  0
  -26.1547  -31.4538   20.5974 H   0  0  0  0  0  0
  -26.8829  -30.7684   22.0118 H   0  0  0  0  0  0
  -28.1421  -28.7709   21.2266 H   0  0  0  0  0  0
  -25.9004  -25.7810   19.0766 H   0  0  0  0  0  0
  -23.9686  -27.2553   19.0368 H   0  0  0  0  0  0
  -23.8232  -30.5482   19.3951 H   0  0  0  0  0  0
  -22.7902  -29.2256   19.8442 H   0  0  0  0  0  0
  -25.1278  -36.1809   25.0784 H   0  0  0  0  0  0
  -20.9973  -28.3379   24.1386 H   0  0  0  0  0  0
  -20.5701  -26.2344   23.3668 H   0  0  0  0  0  0
  -21.6635  -26.7473   22.1197 H   0  0  0  0  0  0
  -19.6892  -25.6283   21.1323 H   0  0  0  0  0  0
  -19.6703  -27.3184   20.6771 H   0  0  0  0  0  0
  -17.4173  -26.6746   21.4062 H   0  0  0  0  0  0
  -18.0293  -26.0129   22.9042 H   0  0  0  0  0  0
  -19.7975  -30.7326   24.2191 H   0  0  0  0  0  0
  -17.5083  -31.6324   24.5189 H   0  0  0  0  0  0
  -15.5384  -30.3072   23.7717 H   0  0  0  0  0  0
  -15.8663  -28.0902   22.7116 H   0  0  0  0  0  0
  -24.5846  -30.7194   25.7649 H   0  0  0  0  0  0
  -24.8864  -32.3064   26.4612 H   0  0  0  0  0  0
  -25.7917  -30.9100   27.0180 H   0  0  0  0  0  0
  -26.2979  -29.6709   24.1240 H   0  0  0  0  0  0
  -27.3959  -29.7270   25.4823 H   0  0  0  0  0  0
  -27.8893  -30.4202   23.9555 H   0  0  0  0  0  0
  -27.2516  -33.3732   26.1941 H   0  0  0  0  0  0
  -28.3876  -32.6948   25.0388 H   0  0  0  0  0  0
  -28.0561  -31.8616   26.5509 H   0  0  0  0  0  0
  -28.2544  -38.0047   24.7511 H   0  0  0  0  0  0
  -28.1005  -36.2576   24.6312 H   0  0  0  0  0  0
  -27.2270  -37.1430   25.8884 H   0  0  0  0  0  0
  -20.9469  -29.8726   21.6758 H   0  0  0  0  0  0
  -26.0092  -38.2780   24.1543 H   0  0  0  0  0  0
  -27.2320  -18.7875   20.5842 H   0  0  0  0  0  0
  -26.8108  -21.4139   20.5778 H   0  0  0  0  0  0
  -30.9521  -20.8507   20.4832 H   0  0  0  0  0  0
  -31.2439  -22.9869   19.8913 H   0  0  0  0  0  0
  -30.6856  -24.6368   19.8414 H   0  0  0  0  0  0
  -30.1319  -23.4944   18.6216 H   0  0  0  0  0  0
  -28.7260  -23.2514   22.7092 H   0  0  0  0  0  0
  -29.8230  -24.5346   22.2076 H   0  0  0  0  0  0
  -30.4059  -22.8857   22.3204 H   0  0  0  0  0  0
  -30.9163  -17.8328   21.3886 H   0  0  0  0  0  0
  -30.9420  -17.8132   19.6736 H   0  0  0  0  0  0
  -27.1616  -24.3299   20.8543 H   0  0  0  0  0  0
  -27.6653  -24.3102   19.2020 H   0  0  0  0  0  0
  -28.7954  -16.0943   20.6978 H   0  0  0  0  0  0
  1 25  1  0  0  0
  1 30  2  0  0  0
  1 81  1  0  0  0
  2  3  1  0  0  0
  2 25  1  0  0  0
  2 82  1  0  0  0
  2 83  1  0  0  0
  3  4  1  0  0  0
  3 84  1  0  0  0
  3 85  1  0  0  0
  4  5  1  0  0  0
  4 86  1  0  0  0
  4 87  1  0  0  0
  5  6  1  0  0  0
  5 26  1  0  0  0
  5 88  1  0  0  0
  6 25  1  0  0  0
  6 89  1  0  0  0
  6 90  1  0  0  0
  7  8  2  0  0  0
  7 26  1  0  0  0
  7 29  1  0  0  0
  8  9  1  0  0  0
  8 22  1  0  0  0
  9 10  1  0  0  0
  9 27  2  0  0  0
 10 11  2  0  0  0
 10 15  1  0  0  0
 11 12  1  0  0  0
 11 91  1  0  0  0
 12 13  2  0  0  0
 12 92  1  0  0  0
 13 14  1  0  0  0
 13 31  1  0  0  0
 14 15  2  0  0  0
 14 93  1  0  0  0
 15 94  1  0  0  0
 16 17  2  0  0  0
 16 21  1  0  0  0
 16 31  1  0  0  0
 17 18  1  0  0  0
 17 95  1  0  0  0
 18 19  2  0  0  0
 18 96  1  0  0  0
 19 20  1  0  0  0
 19 24  1  0  0  0
 20 21  2  0  0  0
 20 97  1  0  0  0
 21 23  1  0  0  0
 22 28  1  0  0  0
 22 32  2  0  0  0
 26 27  1  0  0  0
 28 98  1  0  0  0
 28 99  1  0  0  0
 29100  1  0  0  0
 29101  1  0  0  0
 33 34  1  0  0  0
 33 66  1  0  0  0
 33 70  2  0  0  0
 34 36  1  0  0  0
 34 59  1  0  0  0
 34102  1  0  0  0
 35 44  2  0  0  0
 35 45  1  0  0  0
 35 68  1  0  0  0
 36 56  1  0  0  0
 36103  1  0  0  0
 37 39  1  0  0  0
 37 47  1  0  0  0
 37 66  1  0  0  0
 37104  1  0  0  0
 38 43  2  0  0  0
 38 46  1  0  0  0
 38 47  1  0  0  0
 39 64  1  0  0  0
 39 67  2  0  0  0
 40 52  1  0  0  0
 40 53  2  0  0  0
 40 58  1  0  0  0
 41105  1  0  0  0
 41106  1  0  0  0
 41107  1  0  0  0
 41 48  1  0  0  0
 42 43  1  0  0  0
 42 66  1  0  0  0
 42108  1  0  0  0
 42109  1  0  0  0
 43 44  1  0  0  0
 44110  1  0  0  0
 45 46  2  0  0  0
 45111  1  0  0  0
 46112  1  0  0  0
 47113  1  0  0  0
 47114  1  0  0  0
 48 56  1  0  0  0
 48 65  1  0  0  0
 48115  1  0  0  0
 49 50  1  0  0  0
 49 53  1  0  0  0
 49 64  1  0  0  0
 49116  1  0  0  0
 50 51  1  0  0  0
 50117  1  0  0  0
 50118  1  0  0  0
 51 52  1  0  0  0
 51119  1  0  0  0
 51120  1  0  0  0
 52121  1  0  0  0
 52122  1  0  0  0
 53 54  1  0  0  0
 54 55  2  0  0  0
 54123  1  0  0  0
 55 57  1  0  0  0
 55124  1  0  0  0
 56 69  2  0  0  0
 57 58  2  0  0  0
 57125  1  0  0  0
 58126  1  0  0  0
 59 60  1  0  0  0
 59 61  1  0  0  0
 59 62  1  0  0  0
 60127  1  0  0  0
 60128  1  0  0  0
 60129  1  0  0  0
 61130  1  0  0  0
 61131  1  0  0  0
 61132  1  0  0  0
 62133  1  0  0  0
 62134  1  0  0  0
 62135  1  0  0  0
 63 65  1  0  0  0
 63136  1  0  0  0
 63137  1  0  0  0
 63138  1  0  0  0
 64139  1  0  0  0
 65140  1  0  0  0
 68 78  1  0  0  0
 71 72  2  0  0  0
 71 74  1  0  0  0
 71141  1  0  0  0
 72 80  1  0  0  0
 72142  1  0  0  0
 73 74  2  0  0  0
 73 80  1  0  0  0
 73143  1  0  0  0
 74 77  1  0  0  0
 75144  1  0  0  0
 75145  1  0  0  0
 75146  1  0  0  0
 75 79  1  0  0  0
 76 79  1  0  0  0
 76147  1  0  0  0
 76148  1  0  0  0
 76149  1  0  0  0
 77 81  1  0  0  0
 77150  1  0  0  0
 77151  1  0  0  0
 78 79  1  0  0  0
 78152  1  0  0  0
 78153  1  0  0  0
 79 80  1  0  0  0
 81154  1  0  0  0
M  ISO  4   1 100  68 101  78 101  81 100
M  END
> <chiral flag>
0

> <version>
0

> <s_m_source_file>
/data/baiqing/PycharmProjects/Reinvent-master-3.2/result/LINK_invent/BTK/process_docking_weight1_custom_sum_contain_oxygen_bond_distance_aromatic_linkinvent_7_9_3/rearranged_h_0111.sdf

> <i_m_source_file_index>
68

> <r_mmod_Potential_Energy-OPLS-2005>
587.154418945312

> <r_mmod_Stretch_Energy-OPLS-2005>
317.860290527344

> <r_mmod_Bend_Energy-OPLS-2005>
300.894744873047

> <r_mmod_Torsional_Energy-OPLS-2005>
242.097442626953

> <r_mmod_Improper_Torsional_Energy-OPLS-2005>
5.23792362213135

> <r_mmod_Van_der_Waal_Energy-OPLS-2005>
108.102005004883

> <r_mmod_Electrostatic_Energy-OPLS-2005>
-410.543487548828

> <r_mmod_Solvation_Energy-OPLS-2005>
-210.332229614258

> <b_mmod_Minimization_Converged-OPLS-2005>
0

> <r_mmod_RMS_Derivative-OPLS-2005>
4.76108074188232

$$$$
68
                    3D
 Structure written by MMmdl.
162169  0  0  1  0            999 V2000
  -30.4192  -15.2617   20.3756 C   0  0  0  0  0  0
  -30.4294  -12.8074   19.5196 C   0  0  0  0  0  0
  -29.5247  -12.5743   18.2833 C   0  0  0  0  0  0
  -28.0753  -12.2958   18.7162 C   0  0  0  0  0  0
  -27.6042  -13.2720   19.8224 C   0  0  2  0  0  0
  -28.6388  -13.4414   20.9534 C   0  0  0  0  0  0
  -25.2350  -13.8230   20.5754 C   0  0  0  0  0  0
  -24.1709  -13.0427   20.9281 C   0  0  0  0  0  0
  -24.6358  -11.6922   20.8771 C   0  0  0  0  0  0
  -23.9051  -10.4288   21.0414 C   0  0  0  0  0  0
  -24.3609   -9.4208   21.9184 C   0  0  0  0  0  0
  -23.6306   -8.2226   22.0735 C   0  0  0  0  0  0
  -22.4284   -8.0266   21.3530 C   0  0  0  0  0  0
  -21.9920   -9.0233   20.4630 C   0  0  0  0  0  0
  -22.7224  -10.2124   20.3062 C   0  0  0  0  0  0
  -21.6859   -6.0733   22.5272 C   0  0  0  0  0  0
  -21.4003   -6.5637   23.8205 C   0  0  0  0  0  0
  -21.3682   -5.6791   24.9172 C   0  0  0  0  0  0
  -21.6060   -4.3055   24.7224 C   0  0  0  0  0  0
  -21.8821   -3.8150   23.4347 C   0  0  0  0  0  0
  -21.9192   -4.6962   22.3403 C   0  0  0  0  0  0
  -22.7739  -13.5175   21.1962 C   0  0  0  0  0  0
  -22.1660   -4.2149   21.0982 F   0  0  0  0  0  0
  -21.5646   -3.4542   25.7742 F   0  0  0  0  0  0
  -29.8644  -13.9529   20.3210 N   0  0  0  0  0  0
  -26.2767  -12.9489   20.3236 N   0  0  0  0  0  0
  -25.9285  -11.6598   20.5728 N   0  0  0  0  0  0
  -22.0413  -12.8129   22.0506 N   0  0  0  0  0  0
  -25.4012  -15.1949   20.4132 N   0  0  0  0  0  0
  -31.6464  -15.2724   20.1981 O   0  0  0  0  0  0
  -21.6650   -6.8864   21.4228 O   0  0  0  0  0  0
  -22.3420  -14.5492   20.6833 O   0  0  0  0  0  0
  -24.6621  -31.8266   23.1726 C   0  0  0  0  0  0
  -25.9306  -32.4598   23.8188 C   0  0  1  0  0  0
  -27.2074  -26.9304   20.2062 C   0  0  0  0  0  0
  -25.5978  -33.8412   24.2078 N   0  0  0  0  0  0
  -23.4751  -30.4369   21.5226 C   0  0  2  0  0  0
  -24.9230  -28.8168   20.1265 C   0  0  0  0  0  0
  -22.7661  -29.4460   22.4819 C   0  0  0  0  0  0
  -18.0319  -28.1418   22.8469 C   0  0  0  0  0  0
  -24.1495  -36.7194   23.2648 C   0  0  0  0  0  0
  -26.0426  -30.6350   21.3997 C   0  0  0  0  0  0
  -26.1080  -29.2213   20.7539 C   0  0  0  0  0  0
  -27.2503  -28.3035   20.7583 C   0  0  0  0  0  0
  -25.9917  -26.6695   19.5390 C   0  0  0  0  0  0
  -24.8892  -27.5612   19.4983 C   0  0  0  0  0  0
  -23.7126  -29.7475   20.1521 C   0  0  0  0  0  0
  -25.4138  -36.2967   24.0299 C   0  0  1  0  0  0
  -20.5937  -28.3758   23.1209 C   0  0  2  0  0  0
  -20.6795  -26.9446   22.5410 C   0  0  0  0  0  0
  -19.5768  -26.6386   21.5222 C   0  0  0  0  0  0
  -18.1952  -26.7948   22.1624 C   0  0  0  0  0  0
  -19.1575  -28.8905   23.2829 C   0  0  0  0  0  0
  -18.9479  -30.1494   23.8877 C   0  0  0  0  0  0
  -17.6474  -30.6608   24.0549 C   0  0  0  0  0  0
  -25.9100  -34.9351   23.5015 C   0  0  0  0  0  0
  -16.5365  -29.9085   23.6348 C   0  0  0  0  0  0
  -16.7298  -28.6502   23.0382 C   0  0  0  0  0  0
  -26.4556  -31.6545   25.0708 C   0  0  0  0  0  0
  -25.3672  -31.3778   26.1352 C   0  0  0  0  0  0
  -27.0432  -30.2916   24.6421 C   0  0  0  0  0  0
  -27.6082  -32.4339   25.7471 C   0  0  0  0  0  0
  -27.5572  -37.1758   24.8470 C   0  0  0  0  0  0
  -21.4335  -29.3053   22.3568 N   0  0  0  0  0  0
  -26.4285  -37.3701   23.9407 N   0  0  0  0  0  0
  -24.7481  -30.9936   22.0851 N   0  0  0  0  0  0
  -23.4215  -28.8039   23.3071 O   0  0  0  0  0  0
  -28.2512  -25.8730   20.1540 O   0  0  0  0  0  0
  -26.5716  -34.8887   22.4608 O   0  0  0  0  0  0
  -23.5692  -32.1214   23.6823 O   0  0  0  0  0  0
  -28.0067  -22.6200   18.6086 C   0  0  0  0  0  0
  -26.7916  -22.4604   18.0476 C   0  0  0  0  0  0
  -26.6887  -21.2350   15.8958 C   0  0  0  0  0  0
  -25.3271  -23.2438   16.2139 C   0  0  0  0  0  0
  -29.5057  -21.3681   21.9810 C   0  0  0  0  0  0
  -29.8890  -18.1765   20.5553 C   0  0  0  0  0  0
  -28.8676  -19.6342   20.2197 C   0  0  0  0  0  0
  -28.2962  -24.3139   20.7028 C   0  0  0  0  0  0
  -28.2465  -22.6039   20.1082 C   0  0  2  0  0  0
  -29.6341  -16.5224   20.4300 N   0  0  0  0  0  0
  -26.5750  -22.5392   16.5808 N   0  3  0  0  0  0
  -29.1490  -21.2539   20.5495 N   0  3  1  0  0  0
  -31.4474  -13.0154   19.1886 H   0  0  0  0  0  0
  -30.4938  -11.9018   20.1262 H   0  0  0  0  0  0
  -29.9030  -11.7466   17.6825 H   0  0  0  0  0  0
  -29.5471  -13.4585   17.6443 H   0  0  0  0  0  0
  -28.0354  -11.2732   19.0929 H   0  0  0  0  0  0
  -27.4008  -12.3327   17.8602 H   0  0  0  0  0  0
  -27.5183  -14.2382   19.3233 H   0  0  0  0  0  0
  -28.8114  -12.5015   21.4793 H   0  0  0  0  0  0
  -28.2806  -14.1555   21.6962 H   0  0  0  0  0  0
  -25.2741   -9.5717   22.4770 H   0  0  0  0  0  0
  -24.0045   -7.4624   22.7447 H   0  0  0  0  0  0
  -21.0861   -8.8736   19.8927 H   0  0  0  0  0  0
  -22.3659  -10.9669   19.6197 H   0  0  0  0  0  0
  -21.1967   -7.6141   23.9711 H   0  0  0  0  0  0
  -21.1513   -6.0517   25.9076 H   0  0  0  0  0  0
  -22.0577   -2.7613   23.2841 H   0  0  0  0  0  0
  -22.4059  -11.9773   22.4843 H   0  0  0  0  0  0
  -21.1035  -13.1112   22.2769 H   0  0  0  0  0  0
  -24.6266  -15.8428   20.5036 H   0  0  0  0  0  0
  -26.2341  -15.6261   20.0357 H   0  0  0  0  0  0
  -26.7376  -32.5128   23.0904 H   0  0  0  0  0  0
  -25.0085  -33.9515   25.0202 H   0  0  0  0  0  0
  -22.7872  -31.2675   21.3504 H   0  0  0  0  0  0
  -23.3779  -35.9504   23.3278 H   0  0  0  0  0  0
  -24.3576  -36.8865   22.2070 H   0  0  0  0  0  0
  -23.7239  -37.6366   23.6725 H   0  0  0  0  0  0
  -26.2223  -31.3728   20.6163 H   0  0  0  0  0  0
  -26.9057  -30.6943   22.0515 H   0  0  0  0  0  0
  -28.1611  -28.6265   21.2427 H   0  0  0  0  0  0
  -25.8735  -25.7152   19.0450 H   0  0  0  0  0  0
  -23.9880  -27.2504   18.9886 H   0  0  0  0  0  0
  -23.8722  -30.5115   19.3905 H   0  0  0  0  0  0
  -22.8215  -29.2025   19.8372 H   0  0  0  0  0  0
  -25.1338  -36.1761   25.0793 H   0  0  0  0  0  0
  -21.0019  -28.3360   24.1339 H   0  0  0  0  0  0
  -20.5691  -26.2381   23.3645 H   0  0  0  0  0  0
  -21.6656  -26.7442   22.1208 H   0  0  0  0  0  0
  -19.6934  -25.6291   21.1287 H   0  0  0  0  0  0
  -19.6705  -27.3169   20.6732 H   0  0  0  0  0  0
  -17.4224  -26.6715   21.4023 H   0  0  0  0  0  0
  -18.0334  -26.0094   22.9022 H   0  0  0  0  0  0
  -19.7952  -30.7324   24.2241 H   0  0  0  0  0  0
  -17.5017  -31.6288   24.5156 H   0  0  0  0  0  0
  -15.5364  -30.2977   23.7691 H   0  0  0  0  0  0
  -15.8696  -28.0802   22.7131 H   0  0  0  0  0  0
  -24.5918  -30.7056   25.7647 H   0  0  0  0  0  0
  -24.8770  -32.2947   26.4631 H   0  0  0  0  0  0
  -25.7893  -30.9055   27.0229 H   0  0  0  0  0  0
  -26.3078  -29.6609   24.1411 H   0  0  0  0  0  0
  -27.3945  -29.7274   25.5072 H   0  0  0  0  0  0
  -27.9030  -30.4093   23.9824 H   0  0  0  0  0  0
  -27.2714  -33.3714   26.1903 H   0  0  0  0  0  0
  -28.3940  -32.6780   25.0307 H   0  0  0  0  0  0
  -28.0694  -31.8552   26.5481 H   0  0  0  0  0  0
  -28.2581  -38.0065   24.7517 H   0  0  0  0  0  0
  -28.1079  -36.2594   24.6292 H   0  0  0  0  0  0
  -27.2293  -37.1380   25.8876 H   0  0  0  0  0  0
  -20.9607  -29.8698   21.6642 H   0  0  0  0  0  0
  -26.0126  -38.2757   24.1417 H   0  0  0  0  0  0
  -28.8753  -22.7937   17.9880 H   0  0  0  0  0  0
  -25.8877  -22.2848   18.6145 H   0  0  0  0  0  0
  -27.6152  -20.7306   16.1686 H   0  0  0  0  0  0
  -26.6909  -21.3723   14.8145 H   0  0  0  0  0  0
  -25.8533  -20.5819   16.1519 H   0  0  0  0  0  0
  -25.2565  -24.2064   16.7205 H   0  0  0  0  0  0
  -24.4471  -22.6583   16.4850 H   0  0  0  0  0  0
  -25.2914  -23.4363   15.1412 H   0  0  0  0  0  0
  -30.2546  -20.6261   22.2559 H   0  0  0  0  0  0
  -28.6297  -21.2220   22.6143 H   0  0  0  0  0  0
  -29.9308  -22.3439   22.2087 H   0  0  0  0  0  0
  -30.1642  -18.2810   21.6046 H   0  0  0  0  0  0
  -30.8249  -18.3491   20.0232 H   0  0  0  0  0  0
  -27.8966  -19.4287   20.6703 H   0  0  0  0  0  0
  -28.6662  -19.6109   19.1486 H   0  0  0  0  0  0
  -29.2410  -24.3466   21.2413 H   0  0  0  0  0  0
  -27.5677  -24.3345   21.5124 H   0  0  0  0  0  0
  -27.2829  -22.2917   20.5154 H   0  0  0  0  0  0
  -28.6480  -16.3092   20.4499 H   0  0  0  0  0  0
  -27.3132  -23.1096   16.1968 H   0  0  0  0  0  0
  -30.0329  -21.4162   20.0882 H   0  0  0  0  0  0
  1 25  1  0  0  0
  1 30  2  0  0  0
  1 80  1  0  0  0
  2  3  1  0  0  0
  2 25  1  0  0  0
  2 83  1  0  0  0
  2 84  1  0  0  0
  3  4  1  0  0  0
  3 85  1  0  0  0
  3 86  1  0  0  0
  4  5  1  0  0  0
  4 87  1  0  0  0
  4 88  1  0  0  0
  5  6  1  0  0  0
  5 26  1  0  0  0
  5 89  1  0  0  0
  6 25  1  0  0  0
  6 90  1  0  0  0
  6 91  1  0  0  0
  7  8  2  0  0  0
  7 26  1  0  0  0
  7 29  1  0  0  0
  8  9  1  0  0  0
  8 22  1  0  0  0
  9 10  1  0  0  0
  9 27  2  0  0  0
 10 11  2  0  0  0
 10 15  1  0  0  0
 11 12  1  0  0  0
 11 92  1  0  0  0
 12 13  2  0  0  0
 12 93  1  0  0  0
 13 14  1  0  0  0
 13 31  1  0  0  0
 14 15  2  0  0  0
 14 94  1  0  0  0
 15 95  1  0  0  0
 16 17  2  0  0  0
 16 21  1  0  0  0
 16 31  1  0  0  0
 17 18  1  0  0  0
 17 96  1  0  0  0
 18 19  2  0  0  0
 18 97  1  0  0  0
 19 20  1  0  0  0
 19 24  1  0  0  0
 20 21  2  0  0  0
 20 98  1  0  0  0
 21 23  1  0  0  0
 22 28  1  0  0  0
 22 32  2  0  0  0
 26 27  1  0  0  0
 28 99  1  0  0  0
 28100  1  0  0  0
 29101  1  0  0  0
 29102  1  0  0  0
 33 34  1  0  0  0
 33 66  1  0  0  0
 33 70  2  0  0  0
 34 36  1  0  0  0
 34 59  1  0  0  0
 34103  1  0  0  0
 35 44  2  0  0  0
 35 45  1  0  0  0
 35 68  1  0  0  0
 36 56  1  0  0  0
 36104  1  0  0  0
 37 39  1  0  0  0
 37 47  1  0  0  0
 37 66  1  0  0  0
 37105  1  0  0  0
 38 43  2  0  0  0
 38 46  1  0  0  0
 38 47  1  0  0  0
 39 64  1  0  0  0
 39 67  2  0  0  0
 40 52  1  0  0  0
 40 53  2  0  0  0
 40 58  1  0  0  0
 41106  1  0  0  0
 41107  1  0  0  0
 41108  1  0  0  0
 41 48  1  0  0  0
 42 43  1  0  0  0
 42 66  1  0  0  0
 42109  1  0  0  0
 42110  1  0  0  0
 43 44  1  0  0  0
 44111  1  0  0  0
 45 46  2  0  0  0
 45112  1  0  0  0
 46113  1  0  0  0
 47114  1  0  0  0
 47115  1  0  0  0
 48 56  1  0  0  0
 48 65  1  0  0  0
 48116  1  0  0  0
 49 50  1  0  0  0
 49 53  1  0  0  0
 49 64  1  0  0  0
 49117  1  0  0  0
 50 51  1  0  0  0
 50118  1  0  0  0
 50119  1  0  0  0
 51 52  1  0  0  0
 51120  1  0  0  0
 51121  1  0  0  0
 52122  1  0  0  0
 52123  1  0  0  0
 53 54  1  0  0  0
 54 55  2  0  0  0
 54124  1  0  0  0
 55 57  1  0  0  0
 55125  1  0  0  0
 56 69  2  0  0  0
 57 58  2  0  0  0
 57126  1  0  0  0
 58127  1  0  0  0
 59 60  1  0  0  0
 59 61  1  0  0  0
 59 62  1  0  0  0
 60128  1  0  0  0
 60129  1  0  0  0
 60130  1  0  0  0
 61131  1  0  0  0
 61132  1  0  0  0
 61133  1  0  0  0
 62134  1  0  0  0
 62135  1  0  0  0
 62136  1  0  0  0
 63 65  1  0  0  0
 63137  1  0  0  0
 63138  1  0  0  0
 63139  1  0  0  0
 64140  1  0  0  0
 65141  1  0  0  0
 68 78  1  0  0  0
 71 72  2  0  0  0
 71 79  1  0  0  0
 71142  1  0  0  0
 72 81  1  0  0  0
 72143  1  0  0  0
 73144  1  0  0  0
 73145  1  0  0  0
 73146  1  0  0  0
 73 81  1  0  0  0
 74 81  1  0  0  0
 74147  1  0  0  0
 74148  1  0  0  0
 74149  1  0  0  0
 75150  1  0  0  0
 75151  1  0  0  0
 75152  1  0  0  0
 75 82  1  0  0  0
 76 77  1  0  0  0
 76 80  1  0  0  0
 76153  1  0  0  0
 76154  1  0  0  0
 77 82  1  0  0  0
 77155  1  0  0  0
 77156  1  0  0  0
 78157  1  0  0  0
 78158  1  0  0  0
 78 79  1  0  0  0
 79 82  1  0  0  0
 79159  1  0  0  0
 80160  1  0  0  0
 81161  1  0  0  0
 82162  1  0  0  0
M  CHG  2  81   1  82   1
M  ISO  4   1 100  68 101  78 101  80 100
M  END
> <chiral flag>
0

> <version>
0

> <s_m_source_file>
/data/baiqing/PycharmProjects/Reinvent-master-3.2/result/LINK_invent/BTK/process_docking_weight1_custom_sum_contain_oxygen_bond_distance_aromatic_linkinvent_7_9_3/rearranged_h_0111.sdf

> <i_m_source_file_index>
69

> <r_mmod_Potential_Energy-OPLS-2005>
1060.31787109375

> <r_mmod_Stretch_Energy-OPLS-2005>
618.803894042969

> <r_mmod_Bend_Energy-OPLS-2005>
486.709808349609

> <r_mmod_Torsional_Energy-OPLS-2005>
240.507415771484

> <r_mmod_Improper_Torsional_Energy-OPLS-2005>
4.47311687469482

> <r_mmod_Van_der_Waal_Energy-OPLS-2005>
101.846466064453

> <r_mmod_Electrostatic_Energy-OPLS-2005>
125.712509155273

> <r_mmod_Solvation_Energy-OPLS-2005>
-962.418395996094

> <b_mmod_Minimization_Converged-OPLS-2005>
0

> <r_mmod_RMS_Derivative-OPLS-2005>
2.52393651008606

$$$$
69
                    3D
 Structure written by MMmdl.
161168  0  0  1  0            999 V2000
  -30.5216  -14.9651   20.3991 C   0  0  0  0  0  0
  -30.4468  -12.6022   19.4749 C   0  0  0  0  0  0
  -29.5249  -12.5261   18.2351 C   0  0  0  0  0  0
  -28.0581  -12.3043   18.6595 C   0  0  0  0  0  0
  -27.6269  -13.2441   19.8188 C   0  0  2  0  0  0
  -28.6729  -13.2812   20.9502 C   0  0  0  0  0  0
  -25.2472  -13.8196   20.5663 C   0  0  0  0  0  0
  -24.1789  -13.0429   20.9210 C   0  0  0  0  0  0
  -24.6411  -11.6912   20.8729 C   0  0  0  0  0  0
  -23.9091  -10.4289   21.0399 C   0  0  0  0  0  0
  -24.3635   -9.4208   21.9190 C   0  0  0  0  0  0
  -23.6304   -8.2248   22.0774 C   0  0  0  0  0  0
  -22.4280   -8.0294   21.3567 C   0  0  0  0  0  0
  -21.9926   -9.0272   20.4671 C   0  0  0  0  0  0
  -22.7268  -10.2138   20.3055 C   0  0  0  0  0  0
  -21.6858   -6.0749   22.5285 C   0  0  0  0  0  0
  -21.4033   -6.5654   23.8226 C   0  0  0  0  0  0
  -21.3631   -5.6792   24.9173 C   0  0  0  0  0  0
  -21.6023   -4.3054   24.7230 C   0  0  0  0  0  0
  -21.8813   -3.8157   23.4349 C   0  0  0  0  0  0
  -21.9201   -4.6976   22.3407 C   0  0  0  0  0  0
  -22.7813  -13.5221   21.1830 C   0  0  0  0  0  0
  -22.1662   -4.2165   21.0985 F   0  0  0  0  0  0
  -21.5606   -3.4534   25.7739 F   0  0  0  0  0  0
  -29.9399  -13.7028   20.3385 N   0  0  0  0  0  0
  -26.2881  -12.9411   20.3143 N   0  0  0  0  0  0
  -25.9340  -11.6551   20.5674 N   0  0  0  0  0  0
  -22.0417  -12.8263   22.0380 N   0  0  0  0  0  0
  -25.4113  -15.1937   20.4077 N   0  0  0  0  0  0
  -31.7437  -15.0331   20.2205 O   0  0  0  0  0  0
  -21.6638   -6.8896   21.4253 O   0  0  0  0  0  0
  -22.3503  -14.5518   20.6635 O   0  0  0  0  0  0
  -24.6426  -31.8407   23.1819 C   0  0  0  0  0  0
  -25.9187  -32.4679   23.8220 C   0  0  1  0  0  0
  -27.2305  -27.1169   20.1650 C   0  0  0  0  0  0
  -25.5904  -33.8480   24.2147 N   0  0  0  0  0  0
  -23.4478  -30.4553   21.5285 C   0  0  2  0  0  0
  -24.8959  -28.8578   20.1297 C   0  0  0  0  0  0
  -22.7537  -29.4541   22.4861 C   0  0  0  0  0  0
  -18.0301  -28.1378   22.8466 C   0  0  0  0  0  0
  -24.1501  -36.7278   23.2656 C   0  0  0  0  0  0
  -26.0039  -30.7072   21.3843 C   0  0  0  0  0  0
  -26.0744  -29.3102   20.7379 C   0  0  0  0  0  0
  -27.2444  -28.4609   20.7240 C   0  0  0  0  0  0
  -26.0219  -26.7507   19.5435 C   0  0  0  0  0  0
  -24.8806  -27.5904   19.5215 C   0  0  0  0  0  0
  -23.6755  -29.7679   20.1548 C   0  0  0  0  0  0
  -25.4132  -36.3045   24.0323 C   0  0  1  0  0  0
  -20.5896  -28.3715   23.1246 C   0  0  2  0  0  0
  -20.6783  -26.9420   22.5414 C   0  0  0  0  0  0
  -19.5771  -26.6372   21.5208 C   0  0  0  0  0  0
  -18.1948  -26.7920   22.1603 C   0  0  0  0  0  0
  -19.1549  -28.8861   23.2851 C   0  0  0  0  0  0
  -18.9466  -30.1463   23.8872 C   0  0  0  0  0  0
  -17.6466  -30.6582   24.0547 C   0  0  0  0  0  0
  -25.9076  -34.9409   23.5068 C   0  0  0  0  0  0
  -16.5359  -29.9073   23.6323 C   0  0  0  0  0  0
  -16.7289  -28.6489   23.0342 C   0  0  0  0  0  0
  -26.4515  -31.6558   25.0682 C   0  0  0  0  0  0
  -25.3676  -31.3733   26.1359 C   0  0  0  0  0  0
  -27.0386  -30.2929   24.6324 C   0  0  0  0  0  0
  -27.6035  -32.4328   25.7473 C   0  0  0  0  0  0
  -27.5593  -37.1793   24.8464 C   0  0  0  0  0  0
  -21.4223  -29.3038   22.3598 N   0  0  0  0  0  0
  -26.4306  -37.3753   23.9405 N   0  0  0  0  0  0
  -24.7172  -31.0255   22.0850 N   0  0  0  0  0  0
  -23.4188  -28.8111   23.3023 O   0  0  0  0  0  0
  -28.3644  -26.2387   20.0235 O   0  0  0  0  0  0
  -26.5713  -34.8917   22.4682 O   0  0  0  0  0  0
  -23.5540  -32.1283   23.7035 O   0  0  0  0  0  0
  -31.0822  -25.9257   20.6902 C   0  0  0  0  0  0
  -29.1585  -23.8326   22.9382 C   0  0  0  0  0  0
  -30.2040  -24.7711   20.1637 C   0  0  0  0  0  0
  -28.4867  -24.9157   22.0730 C   0  0  0  0  0  0
  -29.3241  -19.0424   19.9812 C   0  0  0  0  0  0
  -29.9442  -17.6779   20.7850 C   0  0  0  0  0  0
  -29.0186  -20.5869   20.6480 C   0  0  0  0  0  0
  -28.1151  -23.2713   20.0638 C   0  0  0  0  0  0
  -28.6947  -24.7926   20.5432 C   0  0  0  0  0  0
  -29.7095  -16.1387   20.4547 N   0  0  0  0  0  0
  -28.9899  -21.9464   19.8186 N   0  3  0  0  0  0
  -31.4776  -12.7753   19.1615 H   0  0  0  0  0  0
  -30.4556  -11.6567   20.0191 H   0  0  0  0  0  0
  -29.8547  -11.7270   17.5679 H   0  0  0  0  0  0
  -29.6031  -13.4539   17.6627 H   0  0  0  0  0  0
  -27.9614  -11.2653   18.9747 H   0  0  0  0  0  0
  -27.3942  -12.4238   17.8013 H   0  0  0  0  0  0
  -27.5867  -14.2419   19.3807 H   0  0  0  0  0  0
  -28.7710  -12.3063   21.4315 H   0  0  0  0  0  0
  -28.3727  -13.9852   21.7278 H   0  0  0  0  0  0
  -25.2786   -9.5670   22.4759 H   0  0  0  0  0  0
  -24.0000   -7.4644   22.7520 H   0  0  0  0  0  0
  -21.0844   -8.8807   19.9003 H   0  0  0  0  0  0
  -22.3745  -10.9673   19.6151 H   0  0  0  0  0  0
  -21.2052   -7.6168   23.9735 H   0  0  0  0  0  0
  -21.1437   -6.0520   25.9068 H   0  0  0  0  0  0
  -22.0618   -2.7631   23.2838 H   0  0  0  0  0  0
  -22.3992  -11.9979   22.4884 H   0  0  0  0  0  0
  -21.1021  -13.1330   22.2481 H   0  0  0  0  0  0
  -24.6374  -15.8391   20.5213 H   0  0  0  0  0  0
  -26.2444  -15.6388   20.0477 H   0  0  0  0  0  0
  -26.7240  -32.5290   23.0935 H   0  0  0  0  0  0
  -24.9872  -33.9554   25.0170 H   0  0  0  0  0  0
  -22.7521  -31.2797   21.3619 H   0  0  0  0  0  0
  -23.3769  -35.9604   23.3303 H   0  0  0  0  0  0
  -24.3598  -36.8939   22.2077 H   0  0  0  0  0  0
  -23.7237  -37.6460   23.6709 H   0  0  0  0  0  0
  -26.1643  -31.4583   20.6091 H   0  0  0  0  0  0
  -26.8689  -30.7562   22.0334 H   0  0  0  0  0  0
  -28.1620  -28.8266   21.1614 H   0  0  0  0  0  0
  -25.9612  -25.7876   19.0576 H   0  0  0  0  0  0
  -23.9816  -27.2354   19.0367 H   0  0  0  0  0  0
  -23.8197  -30.5310   19.3876 H   0  0  0  0  0  0
  -22.7917  -29.2061   19.8480 H   0  0  0  0  0  0
  -25.1316  -36.1888   25.0812 H   0  0  0  0  0  0
  -20.9983  -28.3316   24.1370 H   0  0  0  0  0  0
  -20.5663  -26.2325   23.3624 H   0  0  0  0  0  0
  -21.6659  -26.7439   22.1223 H   0  0  0  0  0  0
  -19.6940  -25.6277   21.1251 H   0  0  0  0  0  0
  -19.6718  -27.3163   20.6718 H   0  0  0  0  0  0
  -17.4214  -26.6662   21.4003 H   0  0  0  0  0  0
  -18.0366  -26.0067   22.9004 H   0  0  0  0  0  0
  -19.7951  -30.7277   24.2239 H   0  0  0  0  0  0
  -17.5026  -31.6263   24.5150 H   0  0  0  0  0  0
  -15.5355  -30.2972   23.7665 H   0  0  0  0  0  0
  -15.8684  -28.0810   22.7073 H   0  0  0  0  0  0
  -24.5883  -30.7069   25.7641 H   0  0  0  0  0  0
  -24.8841  -32.2906   26.4720 H   0  0  0  0  0  0
  -25.7953  -30.8923   27.0160 H   0  0  0  0  0  0
  -26.2998  -29.6612   24.1377 H   0  0  0  0  0  0
  -27.3976  -29.7287   25.4941 H   0  0  0  0  0  0
  -27.8923  -30.4103   23.9646 H   0  0  0  0  0  0
  -27.2605  -33.3626   26.2008 H   0  0  0  0  0  0
  -28.3866  -32.6887   25.0327 H   0  0  0  0  0  0
  -28.0690  -31.8491   26.5424 H   0  0  0  0  0  0
  -28.2593  -38.0106   24.7549 H   0  0  0  0  0  0
  -28.1110  -36.2642   24.6257 H   0  0  0  0  0  0
  -27.2325  -37.1414   25.8869 H   0  0  0  0  0  0
  -20.9419  -29.8749   21.6774 H   0  0  0  0  0  0
  -26.0196  -38.2835   24.1372 H   0  0  0  0  0  0
  -32.0978  -25.8365   20.3012 H   0  0  0  0  0  0
  -31.1557  -25.9182   21.7770 H   0  0  0  0  0  0
  -30.7124  -26.9027   20.3810 H   0  0  0  0  0  0
  -28.9356  -23.9903   23.9944 H   0  0  0  0  0  0
  -30.2435  -23.8481   22.8345 H   0  0  0  0  0  0
  -28.8105  -22.8331   22.6861 H   0  0  0  0  0  0
  -30.6659  -23.8439   20.4996 H   0  0  0  0  0  0
  -30.2779  -24.7613   19.0728 H   0  0  0  0  0  0
  -28.8434  -25.8891   22.4113 H   0  0  0  0  0  0
  -27.4153  -24.9129   22.2715 H   0  0  0  0  0  0
  -28.3921  -18.7294   19.5101 H   0  0  0  0  0  0
  -29.9978  -19.2053   19.1408 H   0  0  0  0  0  0
  -29.5889  -17.7636   21.8109 H   0  0  0  0  0  0
  -31.0235  -17.8169   20.8708 H   0  0  0  0  0  0
  -29.7601  -20.7516   21.4294 H   0  0  0  0  0  0
  -28.0693  -20.5249   21.1787 H   0  0  0  0  0  0
  -27.6653  -23.4554   19.0864 H   0  0  0  0  0  0
  -27.2601  -22.9994   20.6829 H   0  0  0  0  0  0
  -28.7304  -15.8979   20.4236 H   0  0  0  0  0  0
  -28.6723  -21.6448   18.9114 H   0  0  0  0  0  0
  -29.9459  -22.2234   19.6612 H   0  0  0  0  0  0
  1 25  1  0  0  0
  1 30  2  0  0  0
  1 80  1  0  0  0
  2  3  1  0  0  0
  2 25  1  0  0  0
  2 82  1  0  0  0
  2 83  1  0  0  0
  3  4  1  0  0  0
  3 84  1  0  0  0
  3 85  1  0  0  0
  4  5  1  0  0  0
  4 86  1  0  0  0
  4 87  1  0  0  0
  5  6  1  0  0  0
  5 26  1  0  0  0
  5 88  1  0  0  0
  6 25  1  0  0  0
  6 89  1  0  0  0
  6 90  1  0  0  0
  7  8  2  0  0  0
  7 26  1  0  0  0
  7 29  1  0  0  0
  8  9  1  0  0  0
  8 22  1  0  0  0
  9 10  1  0  0  0
  9 27  2  0  0  0
 10 11  2  0  0  0
 10 15  1  0  0  0
 11 12  1  0  0  0
 11 91  1  0  0  0
 12 13  2  0  0  0
 12 92  1  0  0  0
 13 14  1  0  0  0
 13 31  1  0  0  0
 14 15  2  0  0  0
 14 93  1  0  0  0
 15 94  1  0  0  0
 16 17  2  0  0  0
 16 21  1  0  0  0
 16 31  1  0  0  0
 17 18  1  0  0  0
 17 95  1  0  0  0
 18 19  2  0  0  0
 18 96  1  0  0  0
 19 20  1  0  0  0
 19 24  1  0  0  0
 20 21  2  0  0  0
 20 97  1  0  0  0
 21 23  1  0  0  0
 22 28  1  0  0  0
 22 32  2  0  0  0
 26 27  1  0  0  0
 28 98  1  0  0  0
 28 99  1  0  0  0
 29100  1  0  0  0
 29101  1  0  0  0
 33 34  1  0  0  0
 33 66  1  0  0  0
 33 70  2  0  0  0
 34 36  1  0  0  0
 34 59  1  0  0  0
 34102  1  0  0  0
 35 44  2  0  0  0
 35 45  1  0  0  0
 35 68  1  0  0  0
 36 56  1  0  0  0
 36103  1  0  0  0
 37 39  1  0  0  0
 37 47  1  0  0  0
 37 66  1  0  0  0
 37104  1  0  0  0
 38 43  2  0  0  0
 38 46  1  0  0  0
 38 47  1  0  0  0
 39 64  1  0  0  0
 39 67  2  0  0  0
 40 52  1  0  0  0
 40 53  2  0  0  0
 40 58  1  0  0  0
 41105  1  0  0  0
 41106  1  0  0  0
 41107  1  0  0  0
 41 48  1  0  0  0
 42 43  1  0  0  0
 42 66  1  0  0  0
 42108  1  0  0  0
 42109  1  0  0  0
 43 44  1  0  0  0
 44110  1  0  0  0
 45 46  2  0  0  0
 45111  1  0  0  0
 46112  1  0  0  0
 47113  1  0  0  0
 47114  1  0  0  0
 48 56  1  0  0  0
 48 65  1  0  0  0
 48115  1  0  0  0
 49 50  1  0  0  0
 49 53  1  0  0  0
 49 64  1  0  0  0
 49116  1  0  0  0
 50 51  1  0  0  0
 50117  1  0  0  0
 50118  1  0  0  0
 51 52  1  0  0  0
 51119  1  0  0  0
 51120  1  0  0  0
 52121  1  0  0  0
 52122  1  0  0  0
 53 54  1  0  0  0
 54 55  2  0  0  0
 54123  1  0  0  0
 55 57  1  0  0  0
 55124  1  0  0  0
 56 69  2  0  0  0
 57 58  2  0  0  0
 57125  1  0  0  0
 58126  1  0  0  0
 59 60  1  0  0  0
 59 61  1  0  0  0
 59 62  1  0  0  0
 60127  1  0  0  0
 60128  1  0  0  0
 60129  1  0  0  0
 61130  1  0  0  0
 61131  1  0  0  0
 61132  1  0  0  0
 62133  1  0  0  0
 62134  1  0  0  0
 62135  1  0  0  0
 63 65  1  0  0  0
 63136  1  0  0  0
 63137  1  0  0  0
 63138  1  0  0  0
 64139  1  0  0  0
 65140  1  0  0  0
 68 79  1  0  0  0
 71 73  1  0  0  0
 71141  1  0  0  0
 71142  1  0  0  0
 71143  1  0  0  0
 72 74  1  0  0  0
 72144  1  0  0  0
 72145  1  0  0  0
 72146  1  0  0  0
 73147  1  0  0  0
 73148  1  0  0  0
 73 79  1  0  0  0
 74 79  1  0  0  0
 74149  1  0  0  0
 74150  1  0  0  0
 75 76  1  0  0  0
 75 77  1  0  0  0
 75151  1  0  0  0
 75152  1  0  0  0
 76 80  1  0  0  0
 76153  1  0  0  0
 76154  1  0  0  0
 77 81  1  0  0  0
 77155  1  0  0  0
 77156  1  0  0  0
 78 79  1  0  0  0
 78 81  1  0  0  0
 78157  1  0  0  0
 78158  1  0  0  0
 80159  1  0  0  0
 81160  1  0  0  0
 81161  1  0  0  0
M  CHG  1  81   1
M  ISO  4   1 100  68 101  79 101  80 100
M  END
> <chiral flag>
0

> <version>
0

> <s_m_source_file>
/data/baiqing/PycharmProjects/Reinvent-master-3.2/result/LINK_invent/BTK/process_docking_weight1_custom_sum_contain_oxygen_bond_distance_aromatic_linkinvent_7_9_3/rearranged_h_0111.sdf

> <i_m_source_file_index>
70

> <r_mmod_Potential_Energy-OPLS-2005>
541.463623046875

> <r_mmod_Stretch_Energy-OPLS-2005>
297.334136962891

> <r_mmod_Bend_Energy-OPLS-2005>
360.606689453125

> <r_mmod_Torsional_Energy-OPLS-2005>
280.094818115234

> <r_mmod_Improper_Torsional_Energy-OPLS-2005>
5.54144906997681

> <r_mmod_Van_der_Waal_Energy-OPLS-2005>
106.332008361816

> <r_mmod_Electrostatic_Energy-OPLS-2005>
-248.550628662109

> <r_mmod_Solvation_Energy-OPLS-2005>
-454.434295654297

> <b_mmod_Minimization_Converged-OPLS-2005>
0

> <r_mmod_RMS_Derivative-OPLS-2005>
3.23994708061218

$$$$
70
                    3D
 Structure written by MMmdl.
160168  0  0  1  0            999 V2000
  -30.5960  -14.7363   20.4638 C   0  0  0  0  0  0
  -30.4413  -12.4536   19.4675 C   0  0  0  0  0  0
  -29.5162  -12.5038   18.2345 C   0  0  0  0  0  0
  -28.0418  -12.3281   18.6488 C   0  0  0  0  0  0
  -27.6455  -13.2263   19.8508 C   0  0  2  0  0  0
  -28.6860  -13.1477   20.9864 C   0  0  0  0  0  0
  -25.2535  -13.8190   20.5672 C   0  0  0  0  0  0
  -24.1800  -13.0452   20.9212 C   0  0  0  0  0  0
  -24.6380  -11.6914   20.8748 C   0  0  0  0  0  0
  -23.9063  -10.4283   21.0405 C   0  0  0  0  0  0
  -24.3604   -9.4192   21.9191 C   0  0  0  0  0  0
  -23.6274   -8.2236   22.0762 C   0  0  0  0  0  0
  -22.4256   -8.0291   21.3556 C   0  0  0  0  0  0
  -21.9897   -9.0262   20.4657 C   0  0  0  0  0  0
  -22.7235  -10.2133   20.3051 C   0  0  0  0  0  0
  -21.6852   -6.0745   22.5286 C   0  0  0  0  0  0
  -21.4033   -6.5643   23.8225 C   0  0  0  0  0  0
  -21.3628   -5.6781   24.9171 C   0  0  0  0  0  0
  -21.6007   -4.3044   24.7210 C   0  0  0  0  0  0
  -21.8831   -3.8146   23.4332 C   0  0  0  0  0  0
  -21.9203   -4.6973   22.3387 C   0  0  0  0  0  0
  -22.7835  -13.5271   21.1844 C   0  0  0  0  0  0
  -22.1676   -4.2176   21.0965 F   0  0  0  0  0  0
  -21.5577   -3.4508   25.7706 F   0  0  0  0  0  0
  -29.9871  -13.5055   20.4071 N   0  0  0  0  0  0
  -26.2956  -12.9382   20.3268 N   0  0  0  0  0  0
  -25.9310  -11.6534   20.5737 N   0  0  0  0  0  0
  -22.0441  -12.8271   22.0388 N   0  0  0  0  0  0
  -25.4254  -15.1891   20.4016 N   0  0  0  0  0  0
  -31.7815  -14.8544   20.1381 O   0  0  0  0  0  0
  -21.6629   -6.8877   21.4248 O   0  0  0  0  0  0
  -22.3536  -14.5581   20.6688 O   0  0  0  0  0  0
  -24.6318  -31.8547   23.1965 C   0  0  0  0  0  0
  -25.9151  -32.4744   23.8317 C   0  0  1  0  0  0
  -27.2296  -27.2660   20.1224 C   0  0  0  0  0  0
  -25.5954  -33.8540   24.2253 N   0  0  0  0  0  0
  -23.4249  -30.4766   21.5393 C   0  0  2  0  0  0
  -24.8711  -28.9101   20.1098 C   0  0  0  0  0  0
  -22.7480  -29.4614   22.4897 C   0  0  0  0  0  0
  -18.0305  -28.1401   22.8505 C   0  0  0  0  0  0
  -24.1484  -36.7254   23.2642 C   0  0  0  0  0  0
  -25.9672  -30.7665   21.3739 C   0  0  0  0  0  0
  -26.0377  -29.3876   20.7170 C   0  0  0  0  0  0
  -27.2131  -28.5748   20.7127 C   0  0  0  0  0  0
  -26.0385  -26.8382   19.4994 C   0  0  0  0  0  0
  -24.8751  -27.6434   19.4952 C   0  0  0  0  0  0
  -23.6439  -29.8030   20.1561 C   0  0  0  0  0  0
  -25.4113  -36.3071   24.0339 C   0  0  1  0  0  0
  -20.5897  -28.3728   23.1267 C   0  0  2  0  0  0
  -20.6773  -26.9450   22.5418 C   0  0  0  0  0  0
  -19.5771  -26.6416   21.5211 C   0  0  0  0  0  0
  -18.1950  -26.7953   22.1619 C   0  0  0  0  0  0
  -19.1554  -28.8875   23.2886 C   0  0  0  0  0  0
  -18.9471  -30.1456   23.8921 C   0  0  0  0  0  0
  -17.6478  -30.6602   24.0567 C   0  0  0  0  0  0
  -25.9062  -34.9444   23.5108 C   0  0  0  0  0  0
  -16.5368  -29.9101   23.6325 C   0  0  0  0  0  0
  -16.7287  -28.6508   23.0370 C   0  0  0  0  0  0
  -26.4527  -31.6554   25.0698 C   0  0  0  0  0  0
  -25.3774  -31.3675   26.1434 C   0  0  0  0  0  0
  -27.0350  -30.2986   24.6142 C   0  0  0  0  0  0
  -27.6100  -32.4274   25.7466 C   0  0  0  0  0  0
  -27.5576  -37.1790   24.8472 C   0  0  0  0  0  0
  -21.4192  -29.3057   22.3622 N   0  0  0  0  0  0
  -26.4270  -37.3770   23.9437 N   0  0  0  0  0  0
  -24.6935  -31.0507   22.0935 N   0  0  0  0  0  0
  -23.4174  -28.8194   23.3042 O   0  0  0  0  0  0
  -28.3704  -26.4430   20.2037 O   0  0  0  0  0  0
  -26.5619  -34.8910   22.4665 O   0  0  0  0  0  0
  -23.5484  -32.1370   23.7280 O   0  0  0  0  0  0
  -30.1722  -22.0577   20.7035 C   0  0  0  0  0  0
  -28.7953  -22.3110   20.4328 C   0  0  0  0  0  0
  -30.4467  -20.7057   20.7118 C   0  0  0  0  0  0
  -28.3011  -21.0201   20.1971 C   0  0  0  0  0  0
  -31.7558  -20.0622   21.0503 C   0  0  0  0  0  0
  -26.9045  -20.6347   19.8166 C   0  0  0  0  0  0
  -27.9838  -24.0947   22.0519 C   0  0  0  0  0  0
  -29.0448  -18.4650   20.3136 C   0  0  0  0  0  0
  -30.1824  -17.3406   20.6174 C   0  0  0  0  0  0
  -28.5026  -25.0287   19.7127 C   0  0  0  0  0  0
  -28.0450  -23.7301   20.5631 C   0  0  1  0  0  0
  -29.2828  -19.9948   20.4032 N   0  0  0  0  0  0
  -29.8058  -15.8553   20.6781 N   0  0  0  0  0  0
  -31.4784  -12.5929   19.1569 H   0  0  0  0  0  0
  -30.4016  -11.4749   19.9444 H   0  0  0  0  0  0
  -29.7996  -11.7245   17.5257 H   0  0  0  0  0  0
  -29.6434  -13.4547   17.7123 H   0  0  0  0  0  0
  -27.8957  -11.2801   18.9102 H   0  0  0  0  0  0
  -27.3893  -12.5267   17.7980 H   0  0  0  0  0  0
  -27.6477  -14.2488   19.4758 H   0  0  0  0  0  0
  -28.7173  -12.1453   21.4154 H   0  0  0  0  0  0
  -28.4168  -13.8229   21.8006 H   0  0  0  0  0  0
  -25.2729   -9.5638   22.4790 H   0  0  0  0  0  0
  -23.9956   -7.4608   22.7467 H   0  0  0  0  0  0
  -21.0844   -8.8776   19.8957 H   0  0  0  0  0  0
  -22.3700  -10.9668   19.6148 H   0  0  0  0  0  0
  -21.2081   -7.6160   23.9736 H   0  0  0  0  0  0
  -21.1411   -6.0507   25.9075 H   0  0  0  0  0  0
  -22.0647   -2.7629   23.2818 H   0  0  0  0  0  0
  -22.4035  -11.9933   22.4780 H   0  0  0  0  0  0
  -21.1053  -13.1325   22.2563 H   0  0  0  0  0  0
  -24.6542  -15.8429   20.4802 H   0  0  0  0  0  0
  -26.2616  -15.6130   20.0197 H   0  0  0  0  0  0
  -26.7194  -32.5376   23.1036 H   0  0  0  0  0  0
  -25.0114  -33.9661   25.0414 H   0  0  0  0  0  0
  -22.7214  -31.2991   21.3924 H   0  0  0  0  0  0
  -23.3761  -35.9581   23.3312 H   0  0  0  0  0  0
  -24.3560  -36.8869   22.2051 H   0  0  0  0  0  0
  -23.7214  -37.6452   23.6645 H   0  0  0  0  0  0
  -26.1074  -31.5229   20.6014 H   0  0  0  0  0  0
  -26.8427  -30.8142   22.0088 H   0  0  0  0  0  0
  -28.1077  -28.9345   21.2008 H   0  0  0  0  0  0
  -25.9896  -25.8616   19.0392 H   0  0  0  0  0  0
  -23.9764  -27.2641   19.0288 H   0  0  0  0  0  0
  -23.7821  -30.5807   19.4046 H   0  0  0  0  0  0
  -22.7556  -29.2519   19.8400 H   0  0  0  0  0  0
  -25.1293  -36.1920   25.0833 H   0  0  0  0  0  0
  -20.9999  -28.3325   24.1382 H   0  0  0  0  0  0
  -20.5666  -26.2345   23.3621 H   0  0  0  0  0  0
  -21.6640  -26.7473   22.1232 H   0  0  0  0  0  0
  -19.6941  -25.6331   21.1237 H   0  0  0  0  0  0
  -19.6701  -27.3191   20.6713 H   0  0  0  0  0  0
  -17.4224  -26.6708   21.4015 H   0  0  0  0  0  0
  -18.0364  -26.0055   22.8973 H   0  0  0  0  0  0
  -19.7945  -30.7261   24.2305 H   0  0  0  0  0  0
  -17.5045  -31.6293   24.5170 H   0  0  0  0  0  0
  -15.5371  -30.3039   23.7641 H   0  0  0  0  0  0
  -15.8674  -28.0834   22.7111 H   0  0  0  0  0  0
  -24.6017  -30.6910   25.7810 H   0  0  0  0  0  0
  -24.8858  -32.2803   26.4822 H   0  0  0  0  0  0
  -25.8158  -30.8948   27.0239 H   0  0  0  0  0  0
  -26.2900  -29.6726   24.1205 H   0  0  0  0  0  0
  -27.4083  -29.7261   25.4639 H   0  0  0  0  0  0
  -27.8766  -30.4256   23.9327 H   0  0  0  0  0  0
  -27.2746  -33.3612   26.1999 H   0  0  0  0  0  0
  -28.3944  -32.6750   25.0296 H   0  0  0  0  0  0
  -28.0706  -31.8387   26.5420 H   0  0  0  0  0  0
  -28.2607  -38.0067   24.7528 H   0  0  0  0  0  0
  -28.1066  -36.2615   24.6307 H   0  0  0  0  0  0
  -27.2295  -37.1443   25.8869 H   0  0  0  0  0  0
  -20.9391  -29.8710   21.6757 H   0  0  0  0  0  0
  -26.0166  -38.2863   24.1449 H   0  0  0  0  0  0
  -30.9028  -22.8175   20.9457 H   0  0  0  0  0  0
  -32.5470  -20.8102   21.0992 H   0  0  0  0  0  0
  -32.0661  -19.3297   20.3076 H   0  0  0  0  0  0
  -31.7146  -19.5820   22.0272 H   0  0  0  0  0  0
  -26.3589  -21.4838   19.4090 H   0  0  0  0  0  0
  -26.3460  -20.2640   20.6762 H   0  0  0  0  0  0
  -26.9000  -19.8607   19.0495 H   0  0  0  0  0  0
  -27.4995  -23.2997   22.6226 H   0  0  0  0  0  0
  -27.4138  -25.0106   22.2092 H   0  0  0  0  0  0
  -28.9808  -24.2469   22.4655 H   0  0  0  0  0  0
  -28.1994  -18.2488   20.9658 H   0  0  0  0  0  0
  -28.6684  -18.2690   19.3070 H   0  0  0  0  0  0
  -30.6459  -17.5735   21.5746 H   0  0  0  0  0  0
  -30.9632  -17.4408   19.8661 H   0  0  0  0  0  0
  -28.1205  -24.9558   18.6925 H   0  0  0  0  0  0
  -29.5821  -24.9263   19.5995 H   0  0  0  0  0  0
  -27.0086  -23.5509   20.2743 H   0  0  0  0  0  0
  -28.8499  -15.6510   20.9268 H   0  0  0  0  0  0
  1 25  1  0  0  0
  1 30  2  0  0  0
  1 83  1  0  0  0
  2  3  1  0  0  0
  2 25  1  0  0  0
  2 84  1  0  0  0
  2 85  1  0  0  0
  3  4  1  0  0  0
  3 86  1  0  0  0
  3 87  1  0  0  0
  4  5  1  0  0  0
  4 88  1  0  0  0
  4 89  1  0  0  0
  5  6  1  0  0  0
  5 26  1  0  0  0
  5 90  1  0  0  0
  6 25  1  0  0  0
  6 91  1  0  0  0
  6 92  1  0  0  0
  7  8  2  0  0  0
  7 26  1  0  0  0
  7 29  1  0  0  0
  8  9  1  0  0  0
  8 22  1  0  0  0
  9 10  1  0  0  0
  9 27  2  0  0  0
 10 11  2  0  0  0
 10 15  1  0  0  0
 11 12  1  0  0  0
 11 93  1  0  0  0
 12 13  2  0  0  0
 12 94  1  0  0  0
 13 14  1  0  0  0
 13 31  1  0  0  0
 14 15  2  0  0  0
 14 95  1  0  0  0
 15 96  1  0  0  0
 16 17  2  0  0  0
 16 21  1  0  0  0
 16 31  1  0  0  0
 17 18  1  0  0  0
 17 97  1  0  0  0
 18 19  2  0  0  0
 18 98  1  0  0  0
 19 20  1  0  0  0
 19 24  1  0  0  0
 20 21  2  0  0  0
 20 99  1  0  0  0
 21 23  1  0  0  0
 22 28  1  0  0  0
 22 32  2  0  0  0
 26 27  1  0  0  0
 28100  1  0  0  0
 28101  1  0  0  0
 29102  1  0  0  0
 29103  1  0  0  0
 33 34  1  0  0  0
 33 66  1  0  0  0
 33 70  2  0  0  0
 34 36  1  0  0  0
 34 59  1  0  0  0
 34104  1  0  0  0
 35 44  2  0  0  0
 35 45  1  0  0  0
 35 68  1  0  0  0
 36 56  1  0  0  0
 36105  1  0  0  0
 37 39  1  0  0  0
 37 47  1  0  0  0
 37 66  1  0  0  0
 37106  1  0  0  0
 38 43  2  0  0  0
 38 46  1  0  0  0
 38 47  1  0  0  0
 39 64  1  0  0  0
 39 67  2  0  0  0
 40 52  1  0  0  0
 40 53  2  0  0  0
 40 58  1  0  0  0
 41107  1  0  0  0
 41108  1  0  0  0
 41109  1  0  0  0
 41 48  1  0  0  0
 42 43  1  0  0  0
 42 66  1  0  0  0
 42110  1  0  0  0
 42111  1  0  0  0
 43 44  1  0  0  0
 44112  1  0  0  0
 45 46  2  0  0  0
 45113  1  0  0  0
 46114  1  0  0  0
 47115  1  0  0  0
 47116  1  0  0  0
 48 56  1  0  0  0
 48 65  1  0  0  0
 48117  1  0  0  0
 49 50  1  0  0  0
 49 53  1  0  0  0
 49 64  1  0  0  0
 49118  1  0  0  0
 50 51  1  0  0  0
 50119  1  0  0  0
 50120  1  0  0  0
 51 52  1  0  0  0
 51121  1  0  0  0
 51122  1  0  0  0
 52123  1  0  0  0
 52124  1  0  0  0
 53 54  1  0  0  0
 54 55  2  0  0  0
 54125  1  0  0  0
 55 57  1  0  0  0
 55126  1  0  0  0
 56 69  2  0  0  0
 57 58  2  0  0  0
 57127  1  0  0  0
 58128  1  0  0  0
 59 60  1  0  0  0
 59 61  1  0  0  0
 59 62  1  0  0  0
 60129  1  0  0  0
 60130  1  0  0  0
 60131  1  0  0  0
 61132  1  0  0  0
 61133  1  0  0  0
 61134  1  0  0  0
 62135  1  0  0  0
 62136  1  0  0  0
 62137  1  0  0  0
 63 65  1  0  0  0
 63138  1  0  0  0
 63139  1  0  0  0
 63140  1  0  0  0
 64141  1  0  0  0
 65142  1  0  0  0
 68 80  1  0  0  0
 71 72  1  0  0  0
 71 73  2  0  0  0
 71143  1  0  0  0
 72 74  2  0  0  0
 72 81  1  0  0  0
 73 75  1  0  0  0
 73 82  1  0  0  0
 74 76  1  0  0  0
 74 82  1  0  0  0
 75144  1  0  0  0
 75145  1  0  0  0
 75146  1  0  0  0
 76147  1  0  0  0
 76148  1  0  0  0
 76149  1  0  0  0
 77150  1  0  0  0
 77151  1  0  0  0
 77152  1  0  0  0
 77 81  1  0  0  0
 78 79  1  0  0  0
 78 82  1  0  0  0
 78153  1  0  0  0
 78154  1  0  0  0
 79 83  1  0  0  0
 79155  1  0  0  0
 79156  1  0  0  0
 80 81  1  0  0  0
 80157  1  0  0  0
 80158  1  0  0  0
 81159  1  0  0  0
 83160  1  0  0  0
M  ISO  4   1 100  68 101  80 101  83 100
M  END
> <chiral flag>
0

> <version>
0

> <s_m_source_file>
/data/baiqing/PycharmProjects/Reinvent-master-3.2/result/LINK_invent/BTK/process_docking_weight1_custom_sum_contain_oxygen_bond_distance_aromatic_linkinvent_7_9_3/rearranged_h_0111.sdf

> <i_m_source_file_index>
71

> <r_mmod_Potential_Energy-OPLS-2005>
116.755889892578

> <r_mmod_Stretch_Energy-OPLS-2005>
126.55541229248

> <r_mmod_Bend_Energy-OPLS-2005>
195.299285888672

> <r_mmod_Torsional_Energy-OPLS-2005>
218.980209350586

> <r_mmod_Improper_Torsional_Energy-OPLS-2005>
5.86263704299927

> <r_mmod_Van_der_Waal_Energy-OPLS-2005>
108.918975830078

> <r_mmod_Electrostatic_Energy-OPLS-2005>
-402.130096435547

> <r_mmod_Solvation_Energy-OPLS-2005>
-215.667327880859

> <b_mmod_Minimization_Converged-OPLS-2005>
0

> <r_mmod_RMS_Derivative-OPLS-2005>
3.8195219039917

$$$$
71
                    3D
 Structure written by MMmdl.
171179  0  0  1  0            999 V2000
  -30.5717  -14.8196   20.4325 C   0  0  0  0  0  0
  -30.4351  -12.4952   19.4975 C   0  0  0  0  0  0
  -29.5207  -12.5200   18.2515 C   0  0  0  0  0  0
  -28.0475  -12.3288   18.6590 C   0  0  0  0  0  0
  -27.6398  -13.2371   19.8498 C   0  0  2  0  0  0
  -28.6789  -13.2021   20.9925 C   0  0  0  0  0  0
  -25.2500  -13.8200   20.5686 C   0  0  0  0  0  0
  -24.1803  -13.0438   20.9203 C   0  0  0  0  0  0
  -24.6402  -11.6918   20.8738 C   0  0  0  0  0  0
  -23.9080  -10.4291   21.0398 C   0  0  0  0  0  0
  -24.3630   -9.4206   21.9176 C   0  0  0  0  0  0
  -23.6300   -8.2245   22.0751 C   0  0  0  0  0  0
  -22.4282   -8.0285   21.3543 C   0  0  0  0  0  0
  -21.9920   -9.0257   20.4644 C   0  0  0  0  0  0
  -22.7251  -10.2133   20.3048 C   0  0  0  0  0  0
  -21.6856   -6.0738   22.5279 C   0  0  0  0  0  0
  -21.4020   -6.5641   23.8213 C   0  0  0  0  0  0
  -21.3660   -5.6792   24.9174 C   0  0  0  0  0  0
  -21.6042   -4.3054   24.7221 C   0  0  0  0  0  0
  -21.8820   -3.8147   23.4344 C   0  0  0  0  0  0
  -21.9197   -4.6965   22.3401 C   0  0  0  0  0  0
  -22.7827  -13.5220   21.1856 C   0  0  0  0  0  0
  -22.1664   -4.2152   21.0977 F   0  0  0  0  0  0
  -21.5627   -3.4539   25.7734 F   0  0  0  0  0  0
  -29.9768  -13.5703   20.4162 N   0  0  0  0  0  0
  -26.2926  -12.9416   20.3259 N   0  0  0  0  0  0
  -25.9331  -11.6554   20.5735 N   0  0  0  0  0  0
  -22.0475  -12.8212   22.0413 N   0  0  0  0  0  0
  -25.4158  -15.1928   20.4094 N   0  0  0  0  0  0
  -31.7494  -14.9203   20.0758 O   0  0  0  0  0  0
  -21.6645   -6.8882   21.4242 O   0  0  0  0  0  0
  -22.3510  -14.5522   20.6693 O   0  0  0  0  0  0
  -24.6355  -31.8502   23.1911 C   0  0  0  0  0  0
  -25.9161  -32.4727   23.8283 C   0  0  1  0  0  0
  -27.2245  -27.2132   20.1405 C   0  0  0  0  0  0
  -25.5942  -33.8528   24.2213 N   0  0  0  0  0  0
  -23.4345  -30.4684   21.5356 C   0  0  2  0  0  0
  -24.8820  -28.9007   20.1093 C   0  0  0  0  0  0
  -22.7523  -29.4576   22.4892 C   0  0  0  0  0  0
  -18.0295  -28.1390   22.8484 C   0  0  0  0  0  0
  -24.1489  -36.7263   23.2643 C   0  0  0  0  0  0
  -25.9819  -30.7479   21.3758 C   0  0  0  0  0  0
  -26.0533  -29.3644   20.7197 C   0  0  0  0  0  0
  -27.2239  -28.5341   20.7198 C   0  0  0  0  0  0
  -26.0281  -26.8201   19.5041 C   0  0  0  0  0  0
  -24.8773  -27.6393   19.4890 C   0  0  0  0  0  0
  -23.6550  -29.7950   20.1541 C   0  0  0  0  0  0
  -25.4121  -36.3050   24.0324 C   0  0  1  0  0  0
  -20.5905  -28.3706   23.1258 C   0  0  2  0  0  0
  -20.6780  -26.9416   22.5410 C   0  0  0  0  0  0
  -19.5757  -26.6382   21.5215 C   0  0  0  0  0  0
  -18.1938  -26.7932   22.1626 C   0  0  0  0  0  0
  -19.1552  -28.8865   23.2864 C   0  0  0  0  0  0
  -18.9475  -30.1465   23.8884 C   0  0  0  0  0  0
  -17.6474  -30.6590   24.0563 C   0  0  0  0  0  0
  -25.9069  -34.9427   23.5074 C   0  0  0  0  0  0
  -16.5364  -29.9089   23.6333 C   0  0  0  0  0  0
  -16.7282  -28.6506   23.0354 C   0  0  0  0  0  0
  -26.4509  -31.6573   25.0700 C   0  0  0  0  0  0
  -25.3711  -31.3745   26.1407 C   0  0  0  0  0  0
  -27.0373  -30.2987   24.6222 C   0  0  0  0  0  0
  -27.6053  -32.4324   25.7480 C   0  0  0  0  0  0
  -27.5575  -37.1785   24.8468 C   0  0  0  0  0  0
  -21.4226  -29.3041   22.3637 N   0  0  0  0  0  0
  -26.4287  -37.3760   23.9414 N   0  0  0  0  0  0
  -24.7032  -31.0424   22.0903 N   0  0  0  0  0  0
  -23.4198  -28.8135   23.3023 O   0  0  0  0  0  0
  -28.3348  -26.3269   20.2195 O   0  0  0  0  0  0
  -26.5649  -34.8919   22.4649 O   0  0  0  0  0  0
  -23.5493  -32.1349   23.7177 O   0  0  0  0  0  0
  -29.8754  -22.7211   19.3875 C   0  0  0  0  0  0
  -29.7591  -24.2432   19.8130 C   0  0  0  0  0  0
  -27.6314  -23.7919   20.8422 C   0  0  0  0  0  0
  -27.7274  -22.2012   20.4970 C   0  0  1  0  0  0
  -29.1960  -21.5873   20.2773 C   0  0  1  0  0  0
  -28.3175  -24.8387   19.8797 C   0  0  1  0  0  0
  -25.4038  -19.1990   21.6158 C   0  0  0  0  0  0
  -26.0970  -22.0772   22.5665 C   0  0  0  0  0  0
  -30.3345  -20.0085   18.6119 C   0  0  0  0  0  0
  -25.9880  -20.3211   20.7414 C   0  0  0  0  0  0
  -29.9158  -17.3688   19.9613 C   0  0  0  0  0  0
  -29.4204  -18.8218   20.6131 C   0  0  0  0  0  0
  -26.9089  -21.3097   21.4979 C   0  0  1  0  0  0
  -29.7814  -15.9638   20.6128 N   0  0  0  0  0  0
  -29.3261  -20.1060   19.7056 N   0  3  1  0  0  0
  -31.4776  -12.6218   19.2005 H   0  0  0  0  0  0
  -30.3845  -11.5237   19.9921 H   0  0  0  0  0  0
  -29.8197  -11.7443   17.5452 H   0  0  0  0  0  0
  -29.6383  -13.4708   17.7292 H   0  0  0  0  0  0
  -27.9163  -11.2810   18.9316 H   0  0  0  0  0  0
  -27.3921  -12.5041   17.8051 H   0  0  0  0  0  0
  -27.6248  -14.2532   19.4546 H   0  0  0  0  0  0
  -28.7257  -12.2120   21.4481 H   0  0  0  0  0  0
  -28.3984  -13.8937   21.7885 H   0  0  0  0  0  0
  -25.2780   -9.5684   22.4746 H   0  0  0  0  0  0
  -24.0010   -7.4641   22.7471 H   0  0  0  0  0  0
  -21.0849   -8.8777   19.8953 H   0  0  0  0  0  0
  -22.3709  -10.9670   19.6155 H   0  0  0  0  0  0
  -21.2013   -7.6149   23.9717 H   0  0  0  0  0  0
  -21.1480   -6.0521   25.9076 H   0  0  0  0  0  0
  -22.0598   -2.7609   23.2841 H   0  0  0  0  0  0
  -22.4105  -11.9894   22.4827 H   0  0  0  0  0  0
  -21.1081  -13.1219   22.2589 H   0  0  0  0  0  0
  -24.6377  -15.8355   20.5074 H   0  0  0  0  0  0
  -26.2517  -15.6348   20.0512 H   0  0  0  0  0  0
  -26.7226  -32.5358   23.1016 H   0  0  0  0  0  0
  -25.0084  -33.9657   25.0355 H   0  0  0  0  0  0
  -22.7331  -31.2920   21.3842 H   0  0  0  0  0  0
  -23.3760  -35.9586   23.3299 H   0  0  0  0  0  0
  -24.3574  -36.8896   22.2059 H   0  0  0  0  0  0
  -23.7236  -37.6458   23.6675 H   0  0  0  0  0  0
  -26.1269  -31.5045   20.6034 H   0  0  0  0  0  0
  -26.8567  -30.7979   22.0127 H   0  0  0  0  0  0
  -28.1205  -28.8857   21.2109 H   0  0  0  0  0  0
  -25.9552  -25.8499   19.0349 H   0  0  0  0  0  0
  -23.9793  -27.2766   19.0082 H   0  0  0  0  0  0
  -23.7835  -30.5686   19.3962 H   0  0  0  0  0  0
  -22.7716  -29.2313   19.8489 H   0  0  0  0  0  0
  -25.1303  -36.1883   25.0815 H   0  0  0  0  0  0
  -20.9998  -28.3289   24.1377 H   0  0  0  0  0  0
  -20.5677  -26.2320   23.3621 H   0  0  0  0  0  0
  -21.6651  -26.7429   22.1211 H   0  0  0  0  0  0
  -19.6923  -25.6289   21.1253 H   0  0  0  0  0  0
  -19.6699  -27.3186   20.6738 H   0  0  0  0  0  0
  -17.4209  -26.6682   21.4024 H   0  0  0  0  0  0
  -18.0333  -26.0073   22.9019 H   0  0  0  0  0  0
  -19.7953  -30.7283   24.2246 H   0  0  0  0  0  0
  -17.5030  -31.6269   24.5167 H   0  0  0  0  0  0
  -15.5365  -30.2987   23.7663 H   0  0  0  0  0  0
  -15.8684  -28.0821   22.7075 H   0  0  0  0  0  0
  -24.5892  -30.7096   25.7722 H   0  0  0  0  0  0
  -24.8900  -32.2924   26.4791 H   0  0  0  0  0  0
  -25.8005  -30.8941   27.0208 H   0  0  0  0  0  0
  -26.2976  -29.6715   24.1237 H   0  0  0  0  0  0
  -27.4039  -29.7273   25.4760 H   0  0  0  0  0  0
  -27.8852  -30.4258   23.9491 H   0  0  0  0  0  0
  -27.2660  -33.3638   26.2022 H   0  0  0  0  0  0
  -28.3878  -32.6862   25.0316 H   0  0  0  0  0  0
  -28.0704  -31.8474   26.5421 H   0  0  0  0  0  0
  -28.2587  -38.0086   24.7513 H   0  0  0  0  0  0
  -28.1075  -36.2616   24.6288 H   0  0  0  0  0  0
  -27.2293  -37.1423   25.8871 H   0  0  0  0  0  0
  -20.9421  -29.8753   21.6830 H   0  0  0  0  0  0
  -26.0158  -38.2831   24.1414 H   0  0  0  0  0  0
  -30.9400  -22.5058   19.2921 H   0  0  0  0  0  0
  -29.4599  -22.6753   18.3806 H   0  0  0  0  0  0
  -30.3385  -24.8405   19.1077 H   0  0  0  0  0  0
  -30.2498  -24.3801   20.7775 H   0  0  0  0  0  0
  -28.0457  -23.9578   21.8373 H   0  0  0  0  0  0
  -26.5829  -24.0801   20.9037 H   0  0  0  0  0  0
  -27.2314  -22.1295   19.5275 H   0  0  0  0  0  0
  -29.7144  -21.5904   21.2373 H   0  0  0  0  0  0
  -27.8779  -24.7359   18.8873 H   0  0  0  0  0  0
  -24.8337  -18.4935   21.0103 H   0  0  0  0  0  0
  -24.7230  -19.5838   22.3743 H   0  0  0  0  0  0
  -26.1873  -18.6360   22.1238 H   0  0  0  0  0  0
  -26.7189  -22.7536   23.1518 H   0  0  0  0  0  0
  -25.6508  -21.3984   23.2920 H   0  0  0  0  0  0
  -25.2839  -22.6534   22.1239 H   0  0  0  0  0  0
  -30.2912  -19.0590   18.0844 H   0  0  0  0  0  0
  -31.3455  -20.1275   19.0018 H   0  0  0  0  0  0
  -30.1781  -20.7366   17.8193 H   0  0  0  0  0  0
  -25.1718  -20.8698   20.2679 H   0  0  0  0  0  0
  -26.5351  -19.8521   19.9247 H   0  0  0  0  0  0
  -30.9645  -17.4764   19.6802 H   0  0  0  0  0  0
  -29.3771  -17.2487   19.0213 H   0  0  0  0  0  0
  -30.0948  -19.0592   21.4361 H   0  0  0  0  0  0
  -28.4445  -18.6783   21.0746 H   0  0  0  0  0  0
  -27.6286  -20.7197   22.0672 H   0  0  0  0  0  0
  -28.8604  -15.7608   20.9732 H   0  0  0  0  0  0
  -28.4592  -19.9745   19.2064 H   0  0  0  0  0  0
  1 25  1  0  0  0
  1 30  2  0  0  0
  1 84  1  0  0  0
  2  3  1  0  0  0
  2 25  1  0  0  0
  2 86  1  0  0  0
  2 87  1  0  0  0
  3  4  1  0  0  0
  3 88  1  0  0  0
  3 89  1  0  0  0
  4  5  1  0  0  0
  4 90  1  0  0  0
  4 91  1  0  0  0
  5  6  1  0  0  0
  5 26  1  0  0  0
  5 92  1  0  0  0
  6 25  1  0  0  0
  6 93  1  0  0  0
  6 94  1  0  0  0
  7  8  2  0  0  0
  7 26  1  0  0  0
  7 29  1  0  0  0
  8  9  1  0  0  0
  8 22  1  0  0  0
  9 10  1  0  0  0
  9 27  2  0  0  0
 10 11  2  0  0  0
 10 15  1  0  0  0
 11 12  1  0  0  0
 11 95  1  0  0  0
 12 13  2  0  0  0
 12 96  1  0  0  0
 13 14  1  0  0  0
 13 31  1  0  0  0
 14 15  2  0  0  0
 14 97  1  0  0  0
 15 98  1  0  0  0
 16 17  2  0  0  0
 16 21  1  0  0  0
 16 31  1  0  0  0
 17 18  1  0  0  0
 17 99  1  0  0  0
 18 19  2  0  0  0
 18100  1  0  0  0
 19 20  1  0  0  0
 19 24  1  0  0  0
 20 21  2  0  0  0
 20101  1  0  0  0
 21 23  1  0  0  0
 22 28  1  0  0  0
 22 32  2  0  0  0
 26 27  1  0  0  0
 28102  1  0  0  0
 28103  1  0  0  0
 29104  1  0  0  0
 29105  1  0  0  0
 33 34  1  0  0  0
 33 66  1  0  0  0
 33 70  2  0  0  0
 34 36  1  0  0  0
 34 59  1  0  0  0
 34106  1  0  0  0
 35 44  2  0  0  0
 35 45  1  0  0  0
 35 68  1  0  0  0
 36 56  1  0  0  0
 36107  1  0  0  0
 37 39  1  0  0  0
 37 47  1  0  0  0
 37 66  1  0  0  0
 37108  1  0  0  0
 38 43  2  0  0  0
 38 46  1  0  0  0
 38 47  1  0  0  0
 39 64  1  0  0  0
 39 67  2  0  0  0
 40 52  1  0  0  0
 40 53  2  0  0  0
 40 58  1  0  0  0
 41109  1  0  0  0
 41110  1  0  0  0
 41111  1  0  0  0
 41 48  1  0  0  0
 42 43  1  0  0  0
 42 66  1  0  0  0
 42112  1  0  0  0
 42113  1  0  0  0
 43 44  1  0  0  0
 44114  1  0  0  0
 45 46  2  0  0  0
 45115  1  0  0  0
 46116  1  0  0  0
 47117  1  0  0  0
 47118  1  0  0  0
 48 56  1  0  0  0
 48 65  1  0  0  0
 48119  1  0  0  0
 49 50  1  0  0  0
 49 53  1  0  0  0
 49 64  1  0  0  0
 49120  1  0  0  0
 50 51  1  0  0  0
 50121  1  0  0  0
 50122  1  0  0  0
 51 52  1  0  0  0
 51123  1  0  0  0
 51124  1  0  0  0
 52125  1  0  0  0
 52126  1  0  0  0
 53 54  1  0  0  0
 54 55  2  0  0  0
 54127  1  0  0  0
 55 57  1  0  0  0
 55128  1  0  0  0
 56 69  2  0  0  0
 57 58  2  0  0  0
 57129  1  0  0  0
 58130  1  0  0  0
 59 60  1  0  0  0
 59 61  1  0  0  0
 59 62  1  0  0  0
 60131  1  0  0  0
 60132  1  0  0  0
 60133  1  0  0  0
 61134  1  0  0  0
 61135  1  0  0  0
 61136  1  0  0  0
 62137  1  0  0  0
 62138  1  0  0  0
 62139  1  0  0  0
 63 65  1  0  0  0
 63140  1  0  0  0
 63141  1  0  0  0
 63142  1  0  0  0
 64143  1  0  0  0
 65144  1  0  0  0
 68 76  1  0  0  0
 71 72  1  0  0  0
 71145  1  0  0  0
 71146  1  0  0  0
 71 75  1  0  0  0
 72 76  1  0  0  0
 72147  1  0  0  0
 72148  1  0  0  0
 73 76  1  0  0  0
 73149  1  0  0  0
 73150  1  0  0  0
 73 74  1  0  0  0
 74 75  1  0  0  0
 74 83  1  0  0  0
 74151  1  0  0  0
 75 85  1  0  0  0
 75152  1  0  0  0
 76153  1  0  0  0
 77 80  1  0  0  0
 77154  1  0  0  0
 77155  1  0  0  0
 77156  1  0  0  0
 78157  1  0  0  0
 78158  1  0  0  0
 78159  1  0  0  0
 78 83  1  0  0  0
 79160  1  0  0  0
 79161  1  0  0  0
 79162  1  0  0  0
 79 85  1  0  0  0
 80 83  1  0  0  0
 80163  1  0  0  0
 80164  1  0  0  0
 81 82  1  0  0  0
 81 84  1  0  0  0
 81165  1  0  0  0
 81166  1  0  0  0
 82 85  1  0  0  0
 82167  1  0  0  0
 82168  1  0  0  0
 83169  1  0  0  0
 84170  1  0  0  0
 85171  1  0  0  0
M  CHG  1  85   1
M  ISO  4   1 100  68 101  76 101  84 100
M  END
> <chiral flag>
0

> <version>
0

> <s_m_source_file>
/data/baiqing/PycharmProjects/Reinvent-master-3.2/result/LINK_invent/BTK/process_docking_weight1_custom_sum_contain_oxygen_bond_distance_aromatic_linkinvent_7_9_3/rearranged_h_0111.sdf

> <i_m_source_file_index>
72

> <r_mmod_Potential_Energy-OPLS-2005>
242.693359375

> <r_mmod_Stretch_Energy-OPLS-2005>
186.61979675293

> <r_mmod_Bend_Energy-OPLS-2005>
242.660339355469

> <r_mmod_Torsional_Energy-OPLS-2005>
272.554016113281

> <r_mmod_Improper_Torsional_Energy-OPLS-2005>
6.76012468338013

> <r_mmod_Van_der_Waal_Energy-OPLS-2005>
130.48371887207

> <r_mmod_Electrostatic_Energy-OPLS-2005>
-264.653045654297

> <r_mmod_Solvation_Energy-OPLS-2005>
-448.541137695312

> <b_mmod_Minimization_Converged-OPLS-2005>
0

> <r_mmod_RMS_Derivative-OPLS-2005>
0.97265750169754

$$$$
72
                    3D
 Structure written by MMmdl.
163172  0  0  1  0            999 V2000
  -30.5085  -14.9389   20.4338 C   0  0  0  0  0  0
  -30.4500  -12.5790   19.4960 C   0  0  0  0  0  0
  -29.5256  -12.5369   18.2552 C   0  0  0  0  0  0
  -28.0559  -12.3236   18.6672 C   0  0  0  0  0  0
  -27.6349  -13.2409   19.8444 C   0  0  2  0  0  0
  -28.6779  -13.2330   20.9826 C   0  0  0  0  0  0
  -25.2483  -13.8201   20.5693 C   0  0  0  0  0  0
  -24.1794  -13.0438   20.9231 C   0  0  0  0  0  0
  -24.6396  -11.6919   20.8755 C   0  0  0  0  0  0
  -23.9073  -10.4296   21.0408 C   0  0  0  0  0  0
  -24.3624   -9.4210   21.9182 C   0  0  0  0  0  0
  -23.6299   -8.2243   22.0752 C   0  0  0  0  0  0
  -22.4280   -8.0281   21.3544 C   0  0  0  0  0  0
  -21.9916   -9.0253   20.4643 C   0  0  0  0  0  0
  -22.7246  -10.2134   20.3054 C   0  0  0  0  0  0
  -21.6851   -6.0736   22.5278 C   0  0  0  0  0  0
  -21.4016   -6.5642   23.8212 C   0  0  0  0  0  0
  -21.3663   -5.6792   24.9174 C   0  0  0  0  0  0
  -21.6043   -4.3053   24.7223 C   0  0  0  0  0  0
  -21.8820   -3.8146   23.4343 C   0  0  0  0  0  0
  -21.9194   -4.6965   22.3400 C   0  0  0  0  0  0
  -22.7815  -13.5214   21.1883 C   0  0  0  0  0  0
  -22.1662   -4.2152   21.0976 F   0  0  0  0  0  0
  -21.5631   -3.4535   25.7736 F   0  0  0  0  0  0
  -29.9588  -13.6574   20.3990 N   0  0  0  0  0  0
  -26.2905  -12.9415   20.3241 N   0  0  0  0  0  0
  -25.9326  -11.6554   20.5729 N   0  0  0  0  0  0
  -22.0459  -12.8203   22.0435 N   0  0  0  0  0  0
  -25.4144  -15.1925   20.4079 N   0  0  0  0  0  0
  -31.7036  -15.0506   20.1300 O   0  0  0  0  0  0
  -21.6642   -6.8878   21.4238 O   0  0  0  0  0  0
  -22.3505  -14.5517   20.6723 O   0  0  0  0  0  0
  -24.6416  -31.8448   23.1868 C   0  0  0  0  0  0
  -25.9188  -32.4698   23.8263 C   0  0  1  0  0  0
  -27.2177  -27.1403   20.1705 C   0  0  0  0  0  0
  -25.5930  -33.8504   24.2178 N   0  0  0  0  0  0
  -23.4455  -30.4635   21.5320 C   0  0  2  0  0  0
  -24.8956  -28.8838   20.1151 C   0  0  0  0  0  0
  -22.7555  -29.4560   22.4854 C   0  0  0  0  0  0
  -18.0308  -28.1405   22.8486 C   0  0  0  0  0  0
  -24.1490  -36.7260   23.2647 C   0  0  0  0  0  0
  -26.0003  -30.7198   21.3858 C   0  0  0  0  0  0
  -26.0714  -29.3286   20.7347 C   0  0  0  0  0  0
  -27.2355  -28.4741   20.7418 C   0  0  0  0  0  0
  -26.0243  -26.7969   19.5026 C   0  0  0  0  0  0
  -24.8840  -27.6302   19.4828 C   0  0  0  0  0  0
  -23.6725  -29.7879   20.1531 C   0  0  0  0  0  0
  -25.4124  -36.3032   24.0316 C   0  0  1  0  0  0
  -20.5920  -28.3731   23.1238 C   0  0  2  0  0  0
  -20.6791  -26.9434   22.5409 C   0  0  0  0  0  0
  -19.5765  -26.6389   21.5217 C   0  0  0  0  0  0
  -18.1945  -26.7948   22.1626 C   0  0  0  0  0  0
  -19.1564  -28.8885   23.2857 C   0  0  0  0  0  0
  -18.9485  -30.1484   23.8880 C   0  0  0  0  0  0
  -17.6481  -30.6602   24.0568 C   0  0  0  0  0  0
  -25.9072  -34.9407   23.5061 C   0  0  0  0  0  0
  -16.5371  -29.9102   23.6340 C   0  0  0  0  0  0
  -16.7291  -28.6519   23.0360 C   0  0  0  0  0  0
  -26.4504  -31.6569   25.0709 C   0  0  0  0  0  0
  -25.3674  -31.3784   26.1396 C   0  0  0  0  0  0
  -27.0362  -30.2958   24.6299 C   0  0  0  0  0  0
  -27.6035  -32.4336   25.7492 C   0  0  0  0  0  0
  -27.5578  -37.1790   24.8465 C   0  0  0  0  0  0
  -21.4251  -29.3050   22.3599 N   0  0  0  0  0  0
  -26.4290  -37.3741   23.9404 N   0  0  0  0  0  0
  -24.7154  -31.0316   22.0896 N   0  0  0  0  0  0
  -23.4197  -28.8115   23.3011 O   0  0  0  0  0  0
  -28.2868  -26.1745   20.1856 O   0  0  0  0  0  0
  -26.5673  -34.8908   22.4645 O   0  0  0  0  0  0
  -23.5535  -32.1320   23.7097 O   0  0  0  0  0  0
  -28.3343  -18.2057   20.8510 C   0  0  0  0  0  0
  -28.1136  -19.6378   20.8765 C   0  0  0  0  0  0
  -29.1452  -20.5919   20.6081 C   0  0  0  0  0  0
  -30.3777  -19.8886   20.3217 C   0  0  0  0  0  0
  -29.5891  -17.5719   20.5701 C   0  0  0  0  0  0
  -33.0852  -21.6982   18.1264 C   0  0  0  0  0  0
  -32.7195  -20.3018   17.6933 C   0  0  0  0  0  0
  -31.7924  -21.0748   18.6061 C   0  0  0  0  0  0
  -26.7487  -20.1577   21.2839 C   0  0  0  0  0  0
  -26.8649  -24.5068   21.5134 C   0  0  0  0  0  0
  -31.6301  -20.7107   20.0708 C   0  0  0  0  0  0
  -28.6447  -23.2423   20.0635 C   0  0  0  0  0  0
  -28.1872  -24.7194   20.7547 C   0  0  1  0  0  0
  -30.5741  -18.4958   20.2839 N   0  0  0  0  0  0
  -29.6356  -16.0395   20.6448 N   0  0  0  0  0  0
  -29.0087  -22.0188   20.9281 O   0  0  0  0  0  0
  -31.4823  -12.7494   19.1868 H   0  0  0  0  0  0
  -30.4499  -11.6173   20.0118 H   0  0  0  0  0  0
  -29.8421  -11.7479   17.5716 H   0  0  0  0  0  0
  -29.6160  -13.4733   17.7025 H   0  0  0  0  0  0
  -27.9416  -11.2782   18.9558 H   0  0  0  0  0  0
  -27.3953  -12.4758   17.8123 H   0  0  0  0  0  0
  -27.6066  -14.2500   19.4330 H   0  0  0  0  0  0
  -28.7614  -12.2403   21.4281 H   0  0  0  0  0  0
  -28.3765  -13.9025   21.7896 H   0  0  0  0  0  0
  -25.2769   -9.5686   22.4757 H   0  0  0  0  0  0
  -24.0009   -7.4632   22.7471 H   0  0  0  0  0  0
  -21.0847   -8.8769   19.8946 H   0  0  0  0  0  0
  -22.3700  -10.9672   19.6164 H   0  0  0  0  0  0
  -21.2006   -7.6150   23.9717 H   0  0  0  0  0  0
  -21.1485   -6.0521   25.9078 H   0  0  0  0  0  0
  -22.0596   -2.7608   23.2839 H   0  0  0  0  0  0
  -22.4085  -11.9867   22.4827 H   0  0  0  0  0  0
  -21.1073  -13.1222   22.2633 H   0  0  0  0  0  0
  -24.6299  -15.8295   20.4945 H   0  0  0  0  0  0
  -26.2211  -15.6199   19.9735 H   0  0  0  0  0  0
  -26.7257  -32.5312   23.0997 H   0  0  0  0  0  0
  -25.0018  -33.9612   25.0287 H   0  0  0  0  0  0
  -22.7482  -31.2896   21.3752 H   0  0  0  0  0  0
  -23.3750  -35.9593   23.3301 H   0  0  0  0  0  0
  -24.3573  -36.8896   22.2062 H   0  0  0  0  0  0
  -23.7254  -37.6459   23.6688 H   0  0  0  0  0  0
  -26.1565  -31.4716   20.6109 H   0  0  0  0  0  0
  -26.8710  -30.7710   22.0279 H   0  0  0  0  0  0
  -28.1361  -28.8143   21.2340 H   0  0  0  0  0  0
  -25.9626  -25.8374   19.0094 H   0  0  0  0  0  0
  -23.9896  -27.2856   18.9820 H   0  0  0  0  0  0
  -23.8102  -30.5599   19.3949 H   0  0  0  0  0  0
  -22.7871  -29.2296   19.8435 H   0  0  0  0  0  0
  -25.1321  -36.1851   25.0810 H   0  0  0  0  0  0
  -21.0025  -28.3323   24.1353 H   0  0  0  0  0  0
  -20.5685  -26.2346   23.3630 H   0  0  0  0  0  0
  -21.6660  -26.7441   22.1206 H   0  0  0  0  0  0
  -19.6921  -25.6292   21.1265 H   0  0  0  0  0  0
  -19.6699  -27.3193   20.6738 H   0  0  0  0  0  0
  -17.4217  -26.6700   21.4024 H   0  0  0  0  0  0
  -18.0335  -26.0100   22.9028 H   0  0  0  0  0  0
  -19.7961  -30.7312   24.2228 H   0  0  0  0  0  0
  -17.5038  -31.6278   24.5183 H   0  0  0  0  0  0
  -15.5375  -30.3001   23.7678 H   0  0  0  0  0  0
  -15.8689  -28.0837   22.7078 H   0  0  0  0  0  0
  -24.5849  -30.7136   25.7716 H   0  0  0  0  0  0
  -24.8864  -32.2980   26.4741 H   0  0  0  0  0  0
  -25.7933  -30.9006   27.0224 H   0  0  0  0  0  0
  -26.2980  -29.6683   24.1289 H   0  0  0  0  0  0
  -27.3948  -29.7257   25.4879 H   0  0  0  0  0  0
  -27.8897  -30.4188   23.9629 H   0  0  0  0  0  0
  -27.2624  -33.3654   26.2021 H   0  0  0  0  0  0
  -28.3868  -32.6870   25.0334 H   0  0  0  0  0  0
  -28.0672  -31.8489   26.5448 H   0  0  0  0  0  0
  -28.2598  -38.0084   24.7498 H   0  0  0  0  0  0
  -28.1071  -36.2612   24.6305 H   0  0  0  0  0  0
  -27.2296  -37.1458   25.8869 H   0  0  0  0  0  0
  -20.9453  -29.8740   21.6766 H   0  0  0  0  0  0
  -26.0152  -38.2810   24.1389 H   0  0  0  0  0  0
  -27.4947  -17.5701   21.0966 H   0  0  0  0  0  0
  -33.0141  -22.4922   17.3848 H   0  0  0  0  0  0
  -33.8957  -21.8060   18.8453 H   0  0  0  0  0  0
  -33.2834  -19.4758   18.1233 H   0  0  0  0  0  0
  -32.4025  -20.1606   16.6617 H   0  0  0  0  0  0
  -30.8907  -21.4887   18.1572 H   0  0  0  0  0  0
  -25.9889  -19.3776   21.2357 H   0  0  0  0  0  0
  -26.4366  -20.9712   20.6289 H   0  0  0  0  0  0
  -26.7859  -20.5369   22.3052 H   0  0  0  0  0  0
  -26.9186  -23.6099   22.1314 H   0  0  0  0  0  0
  -26.0259  -24.3717   20.8327 H   0  0  0  0  0  0
  -26.6398  -25.3396   22.1796 H   0  0  0  0  0  0
  -32.5113  -20.1720   20.4213 H   0  0  0  0  0  0
  -31.5818  -21.6288   20.6567 H   0  0  0  0  0  0
  -29.5264  -23.4344   19.4527 H   0  0  0  0  0  0
  -27.8714  -22.9341   19.3595 H   0  0  0  0  0  0
  -28.9281  -24.8113   21.5490 H   0  0  0  0  0  0
  -28.7317  -15.6724   20.8904 H   0  0  0  0  0  0
  1 25  1  0  0  0
  1 30  2  0  0  0
  1 85  1  0  0  0
  2  3  1  0  0  0
  2 25  1  0  0  0
  2 87  1  0  0  0
  2 88  1  0  0  0
  3  4  1  0  0  0
  3 89  1  0  0  0
  3 90  1  0  0  0
  4  5  1  0  0  0
  4 91  1  0  0  0
  4 92  1  0  0  0
  5  6  1  0  0  0
  5 26  1  0  0  0
  5 93  1  0  0  0
  6 25  1  0  0  0
  6 94  1  0  0  0
  6 95  1  0  0  0
  7  8  2  0  0  0
  7 26  1  0  0  0
  7 29  1  0  0  0
  8  9  1  0  0  0
  8 22  1  0  0  0
  9 10  1  0  0  0
  9 27  2  0  0  0
 10 11  2  0  0  0
 10 15  1  0  0  0
 11 12  1  0  0  0
 11 96  1  0  0  0
 12 13  2  0  0  0
 12 97  1  0  0  0
 13 14  1  0  0  0
 13 31  1  0  0  0
 14 15  2  0  0  0
 14 98  1  0  0  0
 15 99  1  0  0  0
 16 17  2  0  0  0
 16 21  1  0  0  0
 16 31  1  0  0  0
 17 18  1  0  0  0
 17100  1  0  0  0
 18 19  2  0  0  0
 18101  1  0  0  0
 19 20  1  0  0  0
 19 24  1  0  0  0
 20 21  2  0  0  0
 20102  1  0  0  0
 21 23  1  0  0  0
 22 28  1  0  0  0
 22 32  2  0  0  0
 26 27  1  0  0  0
 28103  1  0  0  0
 28104  1  0  0  0
 29105  1  0  0  0
 29106  1  0  0  0
 33 34  1  0  0  0
 33 66  1  0  0  0
 33 70  2  0  0  0
 34 36  1  0  0  0
 34 59  1  0  0  0
 34107  1  0  0  0
 35 44  2  0  0  0
 35 45  1  0  0  0
 35 68  1  0  0  0
 36 56  1  0  0  0
 36108  1  0  0  0
 37 39  1  0  0  0
 37 47  1  0  0  0
 37 66  1  0  0  0
 37109  1  0  0  0
 38 43  2  0  0  0
 38 46  1  0  0  0
 38 47  1  0  0  0
 39 64  1  0  0  0
 39 67  2  0  0  0
 40 52  1  0  0  0
 40 53  2  0  0  0
 40 58  1  0  0  0
 41110  1  0  0  0
 41111  1  0  0  0
 41112  1  0  0  0
 41 48  1  0  0  0
 42 43  1  0  0  0
 42 66  1  0  0  0
 42113  1  0  0  0
 42114  1  0  0  0
 43 44  1  0  0  0
 44115  1  0  0  0
 45 46  2  0  0  0
 45116  1  0  0  0
 46117  1  0  0  0
 47118  1  0  0  0
 47119  1  0  0  0
 48 56  1  0  0  0
 48 65  1  0  0  0
 48120  1  0  0  0
 49 50  1  0  0  0
 49 53  1  0  0  0
 49 64  1  0  0  0
 49121  1  0  0  0
 50 51  1  0  0  0
 50122  1  0  0  0
 50123  1  0  0  0
 51 52  1  0  0  0
 51124  1  0  0  0
 51125  1  0  0  0
 52126  1  0  0  0
 52127  1  0  0  0
 53 54  1  0  0  0
 54 55  2  0  0  0
 54128  1  0  0  0
 55 57  1  0  0  0
 55129  1  0  0  0
 56 69  2  0  0  0
 57 58  2  0  0  0
 57130  1  0  0  0
 58131  1  0  0  0
 59 60  1  0  0  0
 59 61  1  0  0  0
 59 62  1  0  0  0
 60132  1  0  0  0
 60133  1  0  0  0
 60134  1  0  0  0
 61135  1  0  0  0
 61136  1  0  0  0
 61137  1  0  0  0
 62138  1  0  0  0
 62139  1  0  0  0
 62140  1  0  0  0
 63 65  1  0  0  0
 63141  1  0  0  0
 63142  1  0  0  0
 63143  1  0  0  0
 64144  1  0  0  0
 65145  1  0  0  0
 68 83  1  0  0  0
 71 72  2  0  0  0
 71 75  1  0  0  0
 71146  1  0  0  0
 72 73  1  0  0  0
 72 79  1  0  0  0
 73 74  2  0  0  0
 73 86  1  0  0  0
 74 81  1  0  0  0
 74 84  1  0  0  0
 75 84  2  0  0  0
 75 85  1  0  0  0
 76 77  1  0  0  0
 76 78  1  0  0  0
 76147  1  0  0  0
 76148  1  0  0  0
 77 78  1  0  0  0
 77149  1  0  0  0
 77150  1  0  0  0
 78 81  1  0  0  0
 78151  1  0  0  0
 79152  1  0  0  0
 79153  1  0  0  0
 79154  1  0  0  0
 80155  1  0  0  0
 80156  1  0  0  0
 80157  1  0  0  0
 80 83  1  0  0  0
 81158  1  0  0  0
 81159  1  0  0  0
 82 83  1  0  0  0
 82 86  1  0  0  0
 82160  1  0  0  0
 82161  1  0  0  0
 83162  1  0  0  0
 85163  1  0  0  0
M  ISO  4   1 100  68 101  83 101  85 100
M  END
> <chiral flag>
0

> <version>
0

> <s_m_source_file>
/data/baiqing/PycharmProjects/Reinvent-master-3.2/result/LINK_invent/BTK/process_docking_weight1_custom_sum_contain_oxygen_bond_distance_aromatic_linkinvent_7_9_3/rearranged_h_0111.sdf

> <i_m_source_file_index>
73

> <r_mmod_Potential_Energy-OPLS-2005>
459.047821044922

> <r_mmod_Stretch_Energy-OPLS-2005>
234.27392578125

> <r_mmod_Bend_Energy-OPLS-2005>
298.248382568359

> <r_mmod_Torsional_Energy-OPLS-2005>
290.590240478516

> <r_mmod_Improper_Torsional_Energy-OPLS-2005>
7.27257394790649

> <r_mmod_Van_der_Waal_Energy-OPLS-2005>
120.623321533203

> <r_mmod_Electrostatic_Energy-OPLS-2005>
-445.604827880859

> <r_mmod_Solvation_Energy-OPLS-2005>
-229.66877746582

> <b_mmod_Minimization_Converged-OPLS-2005>
0

> <r_mmod_RMS_Derivative-OPLS-2005>
0.982833981513977

$$$$
73
                    3D
 Structure written by MMmdl.
162171  0  0  1  0            999 V2000
  -30.7145  -14.6214   20.4633 C   0  0  0  0  0  0
  -30.4063  -12.3782   19.4613 C   0  0  0  0  0  0
  -29.5025  -12.5163   18.2187 C   0  0  0  0  0  0
  -28.0229  -12.3671   18.6223 C   0  0  0  0  0  0
  -27.6457  -13.2427   19.8503 C   0  0  2  0  0  0
  -28.6932  -13.1505   20.9843 C   0  0  0  0  0  0
  -25.2532  -13.8214   20.5695 C   0  0  0  0  0  0
  -24.1828  -13.0438   20.9197 C   0  0  0  0  0  0
  -24.6428  -11.6916   20.8747 C   0  0  0  0  0  0
  -23.9109  -10.4288   21.0401 C   0  0  0  0  0  0
  -24.3648   -9.4210   21.9183 C   0  0  0  0  0  0
  -23.6310   -8.2254   22.0769 C   0  0  0  0  0  0
  -22.4300   -8.0287   21.3557 C   0  0  0  0  0  0
  -21.9933   -9.0260   20.4654 C   0  0  0  0  0  0
  -22.7275  -10.2128   20.3048 C   0  0  0  0  0  0
  -21.6851   -6.0752   22.5287 C   0  0  0  0  0  0
  -21.4015   -6.5658   23.8232 C   0  0  0  0  0  0
  -21.3661   -5.6806   24.9185 C   0  0  0  0  0  0
  -21.6030   -4.3067   24.7226 C   0  0  0  0  0  0
  -21.8812   -3.8160   23.4357 C   0  0  0  0  0  0
  -21.9193   -4.6983   22.3413 C   0  0  0  0  0  0
  -22.7846  -13.5217   21.1841 C   0  0  0  0  0  0
  -22.1658   -4.2177   21.0991 F   0  0  0  0  0  0
  -21.5614   -3.4545   25.7734 F   0  0  0  0  0  0
  -30.0053  -13.4491   20.3977 N   0  0  0  0  0  0
  -26.2976  -12.9449   20.3292 N   0  0  0  0  0  0
  -25.9367  -11.6573   20.5750 N   0  0  0  0  0  0
  -22.0476  -12.8211   22.0393 N   0  0  0  0  0  0
  -25.4170  -15.1934   20.4081 N   0  0  0  0  0  0
  -31.9171  -14.6292   20.1988 O   0  0  0  0  0  0
  -21.6651   -6.8892   21.4250 O   0  0  0  0  0  0
  -22.3535  -14.5517   20.6680 O   0  0  0  0  0  0
  -24.6338  -31.8549   23.2027 C   0  0  0  0  0  0
  -25.9165  -32.4765   23.8361 C   0  0  1  0  0  0
  -27.2110  -27.2982   20.1222 C   0  0  0  0  0  0
  -25.5958  -33.8568   24.2312 N   0  0  0  0  0  0
  -23.4289  -30.4853   21.5395 C   0  0  2  0  0  0
  -24.8731  -28.9541   20.0992 C   0  0  0  0  0  0
  -22.7521  -29.4607   22.4855 C   0  0  0  0  0  0
  -18.0315  -28.1358   22.8453 C   0  0  0  0  0  0
  -24.1502  -36.7268   23.2639 C   0  0  0  0  0  0
  -25.9741  -30.7823   21.3793 C   0  0  0  0  0  0
  -26.0436  -29.4119   20.7197 C   0  0  0  0  0  0
  -27.2154  -28.5974   20.7218 C   0  0  0  0  0  0
  -26.0243  -26.9139   19.4538 C   0  0  0  0  0  0
  -24.8730  -27.7135   19.4499 C   0  0  0  0  0  0
  -23.6447  -29.8369   20.1492 C   0  0  0  0  0  0
  -25.4105  -36.3073   24.0361 C   0  0  1  0  0  0
  -20.5920  -28.3645   23.1234 C   0  0  2  0  0  0
  -20.6807  -26.9361   22.5371 C   0  0  0  0  0  0
  -19.5791  -26.6337   21.5194 C   0  0  0  0  0  0
  -18.1963  -26.7910   22.1574 C   0  0  0  0  0  0
  -19.1579  -28.8810   23.2867 C   0  0  0  0  0  0
  -18.9486  -30.1405   23.8902 C   0  0  0  0  0  0
  -17.6485  -30.6547   24.0544 C   0  0  0  0  0  0
  -25.9007  -34.9432   23.5119 C   0  0  0  0  0  0
  -16.5366  -29.9052   23.6312 C   0  0  0  0  0  0
  -16.7295  -28.6467   23.0335 C   0  0  0  0  0  0
  -26.4545  -31.6544   25.0697 C   0  0  0  0  0  0
  -25.3793  -31.3676   26.1424 C   0  0  0  0  0  0
  -27.0388  -30.2988   24.6093 C   0  0  0  0  0  0
  -27.6129  -32.4224   25.7469 C   0  0  0  0  0  0
  -27.5585  -37.1766   24.8455 C   0  0  0  0  0  0
  -21.4221  -29.3040   22.3626 N   0  0  0  0  0  0
  -26.4272  -37.3771   23.9432 N   0  0  0  0  0  0
  -24.6979  -31.0585   22.0960 N   0  0  0  0  0  0
  -23.4272  -28.8117   23.2886 O   0  0  0  0  0  0
  -28.2939  -26.4016   20.1924 O   0  0  0  0  0  0
  -26.5582  -34.8918   22.4679 O   0  0  0  0  0  0
  -23.5480  -32.1276   23.7344 O   0  0  0  0  0  0
  -28.6149  -18.7426   20.3777 C   0  0  0  0  0  0
  -28.0590  -20.0468   20.4395 C   0  0  0  0  0  0
  -30.0151  -18.5589   20.3950 C   0  0  0  0  0  0
  -30.7844  -19.7788   20.5431 C   0  0  0  0  0  0
  -28.8851  -21.1894   20.5195 C   0  0  0  0  0  0
  -32.2886  -19.7796   20.5862 C   0  0  0  0  0  0
  -32.5730  -20.5019   23.0807 C   0  0  0  0  0  0
  -33.9248  -20.0489   22.5871 C   0  0  0  0  0  0
  -32.9419  -20.6843   21.6134 C   0  0  0  0  0  0
  -30.8486  -17.0815   18.5515 C   0  0  0  0  0  0
  -27.9487  -24.9575   20.3614 C   0  0  0  0  0  0
  -29.0032  -23.7558   20.4368 C   0  0  0  0  0  0
  -30.6602  -17.1405   20.0849 C   0  0  2  0  0  0
  -30.2224  -21.0360   20.5933 N   0  0  0  0  0  0
  -30.0418  -15.8243   20.5263 N   0  0  0  0  0  0
  -33.0021  -19.1197   19.8192 O   0  0  0  0  0  0
  -28.2976  -22.4704   20.5384 O   0  0  0  0  0  0
  -31.4590  -12.4361   19.1766 H   0  0  0  0  0  0
  -30.2763  -11.3975   19.9204 H   0  0  0  0  0  0
  -29.7665  -11.7689   17.4692 H   0  0  0  0  0  0
  -29.6676  -13.4891   17.7511 H   0  0  0  0  0  0
  -27.8438  -11.3136   18.8402 H   0  0  0  0  0  0
  -27.3769  -12.6156   17.7800 H   0  0  0  0  0  0
  -27.6468  -14.2735   19.4946 H   0  0  0  0  0  0
  -28.6976  -12.1545   21.4300 H   0  0  0  0  0  0
  -28.4574  -13.8487   21.7891 H   0  0  0  0  0  0
  -25.2775   -9.5692   22.4768 H   0  0  0  0  0  0
  -24.0012   -7.4658   22.7488 H   0  0  0  0  0  0
  -21.0869   -8.8768   19.8970 H   0  0  0  0  0  0
  -22.3723  -10.9662   19.6164 H   0  0  0  0  0  0
  -21.2016   -7.6166   23.9741 H   0  0  0  0  0  0
  -21.1472   -6.0534   25.9087 H   0  0  0  0  0  0
  -22.0587   -2.7623   23.2840 H   0  0  0  0  0  0
  -22.4082  -11.9878   22.4795 H   0  0  0  0  0  0
  -21.1081  -13.1239   22.2534 H   0  0  0  0  0  0
  -24.6342  -15.8334   20.4881 H   0  0  0  0  0  0
  -26.2510  -15.6345   20.0441 H   0  0  0  0  0  0
  -26.7231  -32.5428   23.1099 H   0  0  0  0  0  0
  -25.0283  -33.9723   25.0593 H   0  0  0  0  0  0
  -22.7268  -31.3094   21.4057 H   0  0  0  0  0  0
  -23.3796  -35.9560   23.3231 H   0  0  0  0  0  0
  -24.3647  -36.8932   22.2071 H   0  0  0  0  0  0
  -23.7195  -37.6436   23.6663 H   0  0  0  0  0  0
  -26.1224  -31.5469   20.6153 H   0  0  0  0  0  0
  -26.8564  -30.8226   22.0066 H   0  0  0  0  0  0
  -28.1103  -28.9399   21.2240 H   0  0  0  0  0  0
  -25.9447  -25.9841   18.9156 H   0  0  0  0  0  0
  -23.9912  -27.3717   18.9242 H   0  0  0  0  0  0
  -23.7753  -30.6228   19.4041 H   0  0  0  0  0  0
  -22.7646  -29.2721   19.8300 H   0  0  0  0  0  0
  -25.1298  -36.1909   25.0860 H   0  0  0  0  0  0
  -21.0037  -28.3180   24.1342 H   0  0  0  0  0  0
  -20.5723  -26.2240   23.3574 H   0  0  0  0  0  0
  -21.6673  -26.7380   22.1157 H   0  0  0  0  0  0
  -19.6974  -25.6275   21.1189 H   0  0  0  0  0  0
  -19.6764  -27.3165   20.6771 H   0  0  0  0  0  0
  -17.4255  -26.6631   21.3960 H   0  0  0  0  0  0
  -18.0344  -26.0067   22.8984 H   0  0  0  0  0  0
  -19.7977  -30.7185   24.2277 H   0  0  0  0  0  0
  -17.5062  -31.6250   24.5102 H   0  0  0  0  0  0
  -15.5373  -30.2968   23.7659 H   0  0  0  0  0  0
  -15.8686  -28.0792   22.7083 H   0  0  0  0  0  0
  -24.6019  -30.6970   25.7738 H   0  0  0  0  0  0
  -24.8964  -32.2869   26.4755 H   0  0  0  0  0  0
  -25.8152  -30.8908   27.0225 H   0  0  0  0  0  0
  -26.2922  -29.6704   24.1218 H   0  0  0  0  0  0
  -27.4296  -29.7240   25.4499 H   0  0  0  0  0  0
  -27.8711  -30.4356   23.9188 H   0  0  0  0  0  0
  -27.2817  -33.3608   26.1935 H   0  0  0  0  0  0
  -28.4017  -32.6595   25.0311 H   0  0  0  0  0  0
  -28.0686  -31.8372   26.5473 H   0  0  0  0  0  0
  -28.2515  -38.0144   24.7601 H   0  0  0  0  0  0
  -28.1193  -36.2686   24.6159 H   0  0  0  0  0  0
  -27.2343  -37.1226   25.8865 H   0  0  0  0  0  0
  -20.9353  -29.8818   21.6917 H   0  0  0  0  0  0
  -26.0161  -38.2839   24.1496 H   0  0  0  0  0  0
  -27.9571  -17.8914   20.2664 H   0  0  0  0  0  0
  -26.9862  -20.1649   20.3893 H   0  0  0  0  0  0
  -32.5355  -21.3887   23.7145 H   0  0  0  0  0  0
  -31.8469  -19.7277   23.3316 H   0  0  0  0  0  0
  -34.1017  -18.9755   22.5106 H   0  0  0  0  0  0
  -34.7872  -20.6378   22.9010 H   0  0  0  0  0  0
  -33.2226  -21.6769   21.2627 H   0  0  0  0  0  0
  -31.4159  -17.9336   18.1836 H   0  0  0  0  0  0
  -29.8854  -17.0913   18.0417 H   0  0  0  0  0  0
  -31.3857  -16.1933   18.2179 H   0  0  0  0  0  0
  -27.3226  -24.8909   21.2553 H   0  0  0  0  0  0
  -27.3127  -24.6413   19.5383 H   0  0  0  0  0  0
  -29.6787  -23.8786   21.2849 H   0  0  0  0  0  0
  -29.6127  -23.7511   19.5320 H   0  0  0  0  0  0
  -31.6449  -17.1352   20.5509 H   0  0  0  0  0  0
  -29.0486  -15.7900   20.6918 H   0  0  0  0  0  0
  1 25  1  0  0  0
  1 30  2  0  0  0
  1 85  1  0  0  0
  2  3  1  0  0  0
  2 25  1  0  0  0
  2 88  1  0  0  0
  2 89  1  0  0  0
  3  4  1  0  0  0
  3 90  1  0  0  0
  3 91  1  0  0  0
  4  5  1  0  0  0
  4 92  1  0  0  0
  4 93  1  0  0  0
  5  6  1  0  0  0
  5 26  1  0  0  0
  5 94  1  0  0  0
  6 25  1  0  0  0
  6 95  1  0  0  0
  6 96  1  0  0  0
  7  8  2  0  0  0
  7 26  1  0  0  0
  7 29  1  0  0  0
  8  9  1  0  0  0
  8 22  1  0  0  0
  9 10  1  0  0  0
  9 27  2  0  0  0
 10 11  2  0  0  0
 10 15  1  0  0  0
 11 12  1  0  0  0
 11 97  1  0  0  0
 12 13  2  0  0  0
 12 98  1  0  0  0
 13 14  1  0  0  0
 13 31  1  0  0  0
 14 15  2  0  0  0
 14 99  1  0  0  0
 15100  1  0  0  0
 16 17  2  0  0  0
 16 21  1  0  0  0
 16 31  1  0  0  0
 17 18  1  0  0  0
 17101  1  0  0  0
 18 19  2  0  0  0
 18102  1  0  0  0
 19 20  1  0  0  0
 19 24  1  0  0  0
 20 21  2  0  0  0
 20103  1  0  0  0
 21 23  1  0  0  0
 22 28  1  0  0  0
 22 32  2  0  0  0
 26 27  1  0  0  0
 28104  1  0  0  0
 28105  1  0  0  0
 29106  1  0  0  0
 29107  1  0  0  0
 33 34  1  0  0  0
 33 66  1  0  0  0
 33 70  2  0  0  0
 34 36  1  0  0  0
 34 59  1  0  0  0
 34108  1  0  0  0
 35 44  2  0  0  0
 35 45  1  0  0  0
 35 68  1  0  0  0
 36 56  1  0  0  0
 36109  1  0  0  0
 37 39  1  0  0  0
 37 47  1  0  0  0
 37 66  1  0  0  0
 37110  1  0  0  0
 38 43  2  0  0  0
 38 46  1  0  0  0
 38 47  1  0  0  0
 39 64  1  0  0  0
 39 67  2  0  0  0
 40 52  1  0  0  0
 40 53  2  0  0  0
 40 58  1  0  0  0
 41111  1  0  0  0
 41112  1  0  0  0
 41113  1  0  0  0
 41 48  1  0  0  0
 42 43  1  0  0  0
 42 66  1  0  0  0
 42114  1  0  0  0
 42115  1  0  0  0
 43 44  1  0  0  0
 44116  1  0  0  0
 45 46  2  0  0  0
 45117  1  0  0  0
 46118  1  0  0  0
 47119  1  0  0  0
 47120  1  0  0  0
 48 56  1  0  0  0
 48 65  1  0  0  0
 48121  1  0  0  0
 49 50  1  0  0  0
 49 53  1  0  0  0
 49 64  1  0  0  0
 49122  1  0  0  0
 50 51  1  0  0  0
 50123  1  0  0  0
 50124  1  0  0  0
 51 52  1  0  0  0
 51125  1  0  0  0
 51126  1  0  0  0
 52127  1  0  0  0
 52128  1  0  0  0
 53 54  1  0  0  0
 54 55  2  0  0  0
 54129  1  0  0  0
 55 57  1  0  0  0
 55130  1  0  0  0
 56 69  2  0  0  0
 57 58  2  0  0  0
 57131  1  0  0  0
 58132  1  0  0  0
 59 60  1  0  0  0
 59 61  1  0  0  0
 59 62  1  0  0  0
 60133  1  0  0  0
 60134  1  0  0  0
 60135  1  0  0  0
 61136  1  0  0  0
 61137  1  0  0  0
 61138  1  0  0  0
 62139  1  0  0  0
 62140  1  0  0  0
 62141  1  0  0  0
 63 65  1  0  0  0
 63142  1  0  0  0
 63143  1  0  0  0
 63144  1  0  0  0
 64145  1  0  0  0
 65146  1  0  0  0
 68 81  1  0  0  0
 71 72  2  0  0  0
 71 73  1  0  0  0
 71147  1  0  0  0
 72 75  1  0  0  0
 72148  1  0  0  0
 73 74  2  0  0  0
 73 83  1  0  0  0
 74 76  1  0  0  0
 74 84  1  0  0  0
 75 84  2  0  0  0
 75 87  1  0  0  0
 76 86  2  0  0  0
 76 79  1  0  0  0
 77 78  1  0  0  0
 77 79  1  0  0  0
 77149  1  0  0  0
 77150  1  0  0  0
 78 79  1  0  0  0
 78151  1  0  0  0
 78152  1  0  0  0
 79153  1  0  0  0
 80154  1  0  0  0
 80155  1  0  0  0
 80156  1  0  0  0
 80 83  1  0  0  0
 81 82  1  0  0  0
 81157  1  0  0  0
 81158  1  0  0  0
 82 87  1  0  0  0
 82159  1  0  0  0
 82160  1  0  0  0
 83 85  1  0  0  0
 83161  1  0  0  0
 85162  1  0  0  0
M  ISO  4   1 100  68 101  81 101  85 100
M  END
> <chiral flag>
0

> <version>
0

> <s_m_source_file>
/data/baiqing/PycharmProjects/Reinvent-master-3.2/result/LINK_invent/BTK/process_docking_weight1_custom_sum_contain_oxygen_bond_distance_aromatic_linkinvent_7_9_3/rearranged_h_0111.sdf

> <i_m_source_file_index>
74

> <r_mmod_Potential_Energy-OPLS-2005>
59.5922088623047

> <r_mmod_Stretch_Energy-OPLS-2005>
94.5060806274414

> <r_mmod_Bend_Energy-OPLS-2005>
171.570266723633

> <r_mmod_Torsional_Energy-OPLS-2005>
247.050689697266

> <r_mmod_Improper_Torsional_Energy-OPLS-2005>
8.54273986816406

> <r_mmod_Van_der_Waal_Energy-OPLS-2005>
151.158020019531

> <r_mmod_Electrostatic_Energy-OPLS-2005>
-457.061920166016

> <r_mmod_Solvation_Energy-OPLS-2005>
-218.223510742188

> <b_mmod_Minimization_Converged-OPLS-2005>
0

> <r_mmod_RMS_Derivative-OPLS-2005>
5.18768072128296

$$$$
74
                    3D
 Structure written by MMmdl.
168176  0  0  1  0            999 V2000
  -30.5832  -14.8920   20.5179 C   0  0  0  0  0  0
  -30.4284  -12.5579   19.5267 C   0  0  0  0  0  0
  -29.5286  -12.5336   18.2679 C   0  0  0  0  0  0
  -28.0579  -12.3103   18.6646 C   0  0  0  0  0  0
  -27.6259  -13.2389   19.8252 C   0  0  2  0  0  0
  -28.6433  -13.2595   20.9766 C   0  0  0  0  0  0
  -25.2461  -13.8199   20.5647 C   0  0  0  0  0  0
  -24.1766  -13.0447   20.9192 C   0  0  0  0  0  0
  -24.6359  -11.6920   20.8715 C   0  0  0  0  0  0
  -23.9032  -10.4299   21.0399 C   0  0  0  0  0  0
  -24.3595   -9.4215   21.9179 C   0  0  0  0  0  0
  -23.6268   -8.2256   22.0757 C   0  0  0  0  0  0
  -22.4245   -8.0281   21.3552 C   0  0  0  0  0  0
  -21.9881   -9.0248   20.4651 C   0  0  0  0  0  0
  -22.7204  -10.2127   20.3055 C   0  0  0  0  0  0
  -21.6849   -6.0723   22.5271 C   0  0  0  0  0  0
  -21.4014   -6.5629   23.8204 C   0  0  0  0  0  0
  -21.3663   -5.6791   24.9171 C   0  0  0  0  0  0
  -21.6054   -4.3058   24.7231 C   0  0  0  0  0  0
  -21.8811   -3.8134   23.4352 C   0  0  0  0  0  0
  -21.9187   -4.6940   22.3403 C   0  0  0  0  0  0
  -22.7789  -13.5238   21.1892 C   0  0  0  0  0  0
  -22.1662   -4.2140   21.0981 F   0  0  0  0  0  0
  -21.5639   -3.4535   25.7741 F   0  0  0  0  0  0
  -29.9513  -13.6497   20.4296 N   0  0  0  0  0  0
  -26.2834  -12.9404   20.3089 N   0  0  0  0  0  0
  -25.9275  -11.6542   20.5630 N   0  0  0  0  0  0
  -22.0444  -12.8227   22.0457 N   0  0  0  0  0  0
  -25.4198  -15.1921   20.4143 N   0  0  0  0  0  0
  -31.7173  -14.9775   20.0334 O   0  0  0  0  0  0
  -21.6632   -6.8860   21.4231 O   0  0  0  0  0  0
  -22.3482  -14.5556   20.6751 O   0  0  0  0  0  0
  -24.6410  -31.8462   23.1878 C   0  0  0  0  0  0
  -25.9193  -32.4709   23.8266 C   0  0  1  0  0  0
  -27.2082  -27.1548   20.1470 C   0  0  0  0  0  0
  -25.5957  -33.8513   24.2187 N   0  0  0  0  0  0
  -23.4428  -30.4669   21.5347 C   0  0  2  0  0  0
  -24.8906  -28.8997   20.1049 C   0  0  0  0  0  0
  -22.7552  -29.4569   22.4877 C   0  0  0  0  0  0
  -18.0330  -28.1385   22.8476 C   0  0  0  0  0  0
  -24.1489  -36.7262   23.2635 C   0  0  0  0  0  0
  -25.9964  -30.7258   21.3828 C   0  0  0  0  0  0
  -26.0663  -29.3385   20.7273 C   0  0  0  0  0  0
  -27.2273  -28.4816   20.7326 C   0  0  0  0  0  0
  -26.0118  -26.8168   19.4778 C   0  0  0  0  0  0
  -24.8764  -27.6521   19.4635 C   0  0  0  0  0  0
  -23.6655  -29.7976   20.1524 C   0  0  0  0  0  0
  -25.4120  -36.3034   24.0307 C   0  0  1  0  0  0
  -20.5933  -28.3726   23.1254 C   0  0  2  0  0  0
  -20.6826  -26.9437   22.5429 C   0  0  0  0  0  0
  -19.5826  -26.6388   21.5208 C   0  0  0  0  0  0
  -18.1995  -26.7933   22.1601 C   0  0  0  0  0  0
  -19.1578  -28.8873   23.2858 C   0  0  0  0  0  0
  -18.9489  -30.1462   23.8891 C   0  0  0  0  0  0
  -17.6484  -30.6586   24.0554 C   0  0  0  0  0  0
  -25.9078  -34.9413   23.5060 C   0  0  0  0  0  0
  -16.5379  -29.9077   23.6314 C   0  0  0  0  0  0
  -16.7306  -28.6494   23.0353 C   0  0  0  0  0  0
  -26.4520  -31.6556   25.0688 C   0  0  0  0  0  0
  -25.3711  -31.3744   26.1386 C   0  0  0  0  0  0
  -27.0376  -30.2955   24.6242 C   0  0  0  0  0  0
  -27.6060  -32.4303   25.7479 C   0  0  0  0  0  0
  -27.5570  -37.1787   24.8471 C   0  0  0  0  0  0
  -21.4249  -29.3074   22.3635 N   0  0  0  0  0  0
  -26.4285  -37.3742   23.9405 N   0  0  0  0  0  0
  -24.7135  -31.0343   22.0899 N   0  0  0  0  0  0
  -23.4213  -28.8121   23.3024 O   0  0  0  0  0  0
  -28.2543  -26.1719   20.2354 O   0  0  0  0  0  0
  -26.5668  -34.8905   22.4637 O   0  0  0  0  0  0
  -23.5538  -32.1366   23.7096 O   0  0  0  0  0  0
  -28.1760  -19.3976   19.5465 C   0  0  0  0  0  0
  -28.7677  -18.6656   20.6698 C   0  0  2  0  0  0
  -28.5034  -20.3716   20.6770 C   0  0  1  0  0  0
  -26.0063  -20.8971   21.0992 C   0  0  0  0  0  0
  -27.3884  -19.9471   22.9966 C   0  0  0  0  0  0
  -30.2120  -15.0630   23.4040 C   0  0  0  0  0  0
  -30.8765  -17.4053   22.9566 C   0  0  0  0  0  0
  -29.8506  -17.4729   20.2893 C   0  0  0  0  0  0
  -28.9156  -21.7893   19.9055 C   0  0  0  0  0  0
  -28.9368  -23.3763   20.4969 C   0  0  0  0  0  0
  -27.9722  -24.6599   20.0273 C   0  0  0  0  0  0
  -27.4173  -20.7858   21.7060 C   0  0  0  0  0  0
  -29.9067  -16.2874   22.4943 C   0  0  0  0  0  0
  -29.9246  -16.0617   21.0083 N   0  0  0  0  0  0
  -31.4722  -12.6846   19.2338 H   0  0  0  0  0  0
  -30.3853  -11.5978   20.0454 H   0  0  0  0  0  0
  -29.8602  -11.7547   17.5816 H   0  0  0  0  0  0
  -29.6250  -13.4790   17.7308 H   0  0  0  0  0  0
  -27.9508  -11.2671   18.9646 H   0  0  0  0  0  0
  -27.4030  -12.4480   17.8033 H   0  0  0  0  0  0
  -27.6009  -14.2437   19.4035 H   0  0  0  0  0  0
  -28.6979  -12.2962   21.4872 H   0  0  0  0  0  0
  -28.2723  -13.9821   21.6991 H   0  0  0  0  0  0
  -25.2741   -9.5702   22.4746 H   0  0  0  0  0  0
  -23.9979   -7.4649   22.7479 H   0  0  0  0  0  0
  -21.0817   -8.8742   19.8959 H   0  0  0  0  0  0
  -22.3640  -10.9648   19.6163 H   0  0  0  0  0  0
  -21.2000   -7.6141   23.9702 H   0  0  0  0  0  0
  -21.1503   -6.0533   25.9078 H   0  0  0  0  0  0
  -22.0580   -2.7591   23.2861 H   0  0  0  0  0  0
  -22.4040  -11.9887   22.4847 H   0  0  0  0  0  0
  -21.1057  -13.1259   22.2679 H   0  0  0  0  0  0
  -24.6657  -15.8527   20.5592 H   0  0  0  0  0  0
  -26.2850  -15.6304   20.1253 H   0  0  0  0  0  0
  -26.7250  -32.5320   23.0991 H   0  0  0  0  0  0
  -25.0084  -33.9631   25.0317 H   0  0  0  0  0  0
  -22.7440  -31.2913   21.3827 H   0  0  0  0  0  0
  -23.3743  -35.9610   23.3324 H   0  0  0  0  0  0
  -24.3576  -36.8872   22.2052 H   0  0  0  0  0  0
  -23.7263  -37.6469   23.6667 H   0  0  0  0  0  0
  -26.1474  -31.4804   20.6092 H   0  0  0  0  0  0
  -26.8679  -30.7794   22.0228 H   0  0  0  0  0  0
  -28.1220  -28.8110   21.2439 H   0  0  0  0  0  0
  -25.9165  -25.8673   18.9741 H   0  0  0  0  0  0
  -23.9798  -27.3102   18.9610 H   0  0  0  0  0  0
  -23.7958  -30.5719   19.3968 H   0  0  0  0  0  0
  -22.7812  -29.2371   19.8442 H   0  0  0  0  0  0
  -25.1305  -36.1875   25.0801 H   0  0  0  0  0  0
  -21.0018  -28.3346   24.1383 H   0  0  0  0  0  0
  -20.5710  -26.2344   23.3654 H   0  0  0  0  0  0
  -21.6713  -26.7468   22.1273 H   0  0  0  0  0  0
  -19.6990  -25.6295   21.1250 H   0  0  0  0  0  0
  -19.6788  -27.3182   20.6736 H   0  0  0  0  0  0
  -17.4271  -26.6687   21.3996 H   0  0  0  0  0  0
  -18.0413  -26.0064   22.8994 H   0  0  0  0  0  0
  -19.7962  -30.7268   24.2286 H   0  0  0  0  0  0
  -17.5043  -31.6273   24.5131 H   0  0  0  0  0  0
  -15.5378  -30.2984   23.7623 H   0  0  0  0  0  0
  -15.8717  -28.0790   22.7079 H   0  0  0  0  0  0
  -24.5903  -30.7084   25.7694 H   0  0  0  0  0  0
  -24.8886  -32.2937   26.4735 H   0  0  0  0  0  0
  -25.7992  -30.8964   27.0212 H   0  0  0  0  0  0
  -26.2986  -29.6685   24.1244 H   0  0  0  0  0  0
  -27.4009  -29.7234   25.4790 H   0  0  0  0  0  0
  -27.8890  -30.4194   23.9541 H   0  0  0  0  0  0
  -27.2668  -33.3621   26.2018 H   0  0  0  0  0  0
  -28.3902  -32.6830   25.0327 H   0  0  0  0  0  0
  -28.0710  -31.8455   26.5433 H   0  0  0  0  0  0
  -28.2588  -38.0069   24.7477 H   0  0  0  0  0  0
  -28.1046  -36.2601   24.6341 H   0  0  0  0  0  0
  -27.2292  -37.1497   25.8868 H   0  0  0  0  0  0
  -20.9465  -29.8835   21.6848 H   0  0  0  0  0  0
  -26.0160  -38.2818   24.1366 H   0  0  0  0  0  0
  -27.1333  -19.1940   19.3144 H   0  0  0  0  0  0
  -28.7943  -19.4677   18.6515 H   0  0  0  0  0  0
  -28.0075  -18.1450   21.2407 H   0  0  0  0  0  0
  -26.0064  -21.5143   20.2008 H   0  0  0  0  0  0
  -25.3113  -21.3529   21.8055 H   0  0  0  0  0  0
  -25.5997  -19.9191   20.8416 H   0  0  0  0  0  0
  -28.3944  -19.7772   23.3816 H   0  0  0  0  0  0
  -26.9008  -18.9830   22.8564 H   0  0  0  0  0  0
  -26.8249  -20.4646   23.7742 H   0  0  0  0  0  0
  -30.1844  -15.3566   24.4537 H   0  0  0  0  0  0
  -31.2085  -14.6565   23.2288 H   0  0  0  0  0  0
  -29.5029  -14.2467   23.3308 H   0  0  0  0  0  0
  -30.8584  -17.5132   24.0427 H   0  0  0  0  0  0
  -30.6285  -18.3922   22.5696 H   0  0  0  0  0  0
  -31.9061  -17.1822   22.6752 H   0  0  0  0  0  0
  -30.8483  -17.9127   20.2990 H   0  0  0  0  0  0
  -29.6872  -17.2342   19.2393 H   0  0  0  0  0  0
  -29.9223  -21.6050   19.5257 H   0  0  0  0  0  0
  -28.3094  -21.8420   18.9997 H   0  0  0  0  0  0
  -29.9321  -23.7224   20.2167 H   0  0  0  0  0  0
  -28.9980  -23.3721   21.5830 H   0  0  0  0  0  0
  -27.0038  -24.4675   20.4931 H   0  0  0  0  0  0
  -27.8060  -24.5389   18.9575 H   0  0  0  0  0  0
  -27.6656  -21.7780   22.0650 H   0  0  0  0  0  0
  -28.8917  -16.6016   22.7408 H   0  0  0  0  0  0
  1 25  1  0  0  0
  1 30  2  0  0  0
  1 84  1  0  0  0
  2  3  1  0  0  0
  2 25  1  0  0  0
  2 85  1  0  0  0
  2 86  1  0  0  0
  3  4  1  0  0  0
  3 87  1  0  0  0
  3 88  1  0  0  0
  4  5  1  0  0  0
  4 89  1  0  0  0
  4 90  1  0  0  0
  5  6  1  0  0  0
  5 26  1  0  0  0
  5 91  1  0  0  0
  6 25  1  0  0  0
  6 92  1  0  0  0
  6 93  1  0  0  0
  7  8  2  0  0  0
  7 26  1  0  0  0
  7 29  1  0  0  0
  8  9  1  0  0  0
  8 22  1  0  0  0
  9 10  1  0  0  0
  9 27  2  0  0  0
 10 11  2  0  0  0
 10 15  1  0  0  0
 11 12  1  0  0  0
 11 94  1  0  0  0
 12 13  2  0  0  0
 12 95  1  0  0  0
 13 14  1  0  0  0
 13 31  1  0  0  0
 14 15  2  0  0  0
 14 96  1  0  0  0
 15 97  1  0  0  0
 16 17  2  0  0  0
 16 21  1  0  0  0
 16 31  1  0  0  0
 17 18  1  0  0  0
 17 98  1  0  0  0
 18 19  2  0  0  0
 18 99  1  0  0  0
 19 20  1  0  0  0
 19 24  1  0  0  0
 20 21  2  0  0  0
 20100  1  0  0  0
 21 23  1  0  0  0
 22 28  1  0  0  0
 22 32  2  0  0  0
 26 27  1  0  0  0
 28101  1  0  0  0
 28102  1  0  0  0
 29103  1  0  0  0
 29104  1  0  0  0
 33 34  1  0  0  0
 33 66  1  0  0  0
 33 70  2  0  0  0
 34 36  1  0  0  0
 34 59  1  0  0  0
 34105  1  0  0  0
 35 44  2  0  0  0
 35 45  1  0  0  0
 35 68  1  0  0  0
 36 56  1  0  0  0
 36106  1  0  0  0
 37 39  1  0  0  0
 37 47  1  0  0  0
 37 66  1  0  0  0
 37107  1  0  0  0
 38 43  2  0  0  0
 38 46  1  0  0  0
 38 47  1  0  0  0
 39 64  1  0  0  0
 39 67  2  0  0  0
 40 52  1  0  0  0
 40 53  2  0  0  0
 40 58  1  0  0  0
 41108  1  0  0  0
 41109  1  0  0  0
 41110  1  0  0  0
 41 48  1  0  0  0
 42 43  1  0  0  0
 42 66  1  0  0  0
 42111  1  0  0  0
 42112  1  0  0  0
 43 44  1  0  0  0
 44113  1  0  0  0
 45 46  2  0  0  0
 45114  1  0  0  0
 46115  1  0  0  0
 47116  1  0  0  0
 47117  1  0  0  0
 48 56  1  0  0  0
 48 65  1  0  0  0
 48118  1  0  0  0
 49 50  1  0  0  0
 49 53  1  0  0  0
 49 64  1  0  0  0
 49119  1  0  0  0
 50 51  1  0  0  0
 50120  1  0  0  0
 50121  1  0  0  0
 51 52  1  0  0  0
 51122  1  0  0  0
 51123  1  0  0  0
 52124  1  0  0  0
 52125  1  0  0  0
 53 54  1  0  0  0
 54 55  2  0  0  0
 54126  1  0  0  0
 55 57  1  0  0  0
 55127  1  0  0  0
 56 69  2  0  0  0
 57 58  2  0  0  0
 57128  1  0  0  0
 58129  1  0  0  0
 59 60  1  0  0  0
 59 61  1  0  0  0
 59 62  1  0  0  0
 60130  1  0  0  0
 60131  1  0  0  0
 60132  1  0  0  0
 61133  1  0  0  0
 61134  1  0  0  0
 61135  1  0  0  0
 62136  1  0  0  0
 62137  1  0  0  0
 62138  1  0  0  0
 63 65  1  0  0  0
 63139  1  0  0  0
 63140  1  0  0  0
 63141  1  0  0  0
 64142  1  0  0  0
 65143  1  0  0  0
 68 81  1  0  0  0
 71 72  1  0  0  0
 71 73  1  0  0  0
 71144  1  0  0  0
 71145  1  0  0  0
 72 73  1  0  0  0
 72 78  1  0  0  0
 72146  1  0  0  0
 73 79  1  0  0  0
 73 82  1  0  0  0
 74147  1  0  0  0
 74148  1  0  0  0
 74149  1  0  0  0
 74 82  1  0  0  0
 75 82  1  0  0  0
 75150  1  0  0  0
 75151  1  0  0  0
 75152  1  0  0  0
 76153  1  0  0  0
 76154  1  0  0  0
 76155  1  0  0  0
 76 83  1  0  0  0
 77 83  1  0  0  0
 77156  1  0  0  0
 77157  1  0  0  0
 77158  1  0  0  0
 78 84  1  0  0  0
 78159  1  0  0  0
 78160  1  0  0  0
 79 80  1  0  0  0
 79161  1  0  0  0
 79162  1  0  0  0
 80 81  1  0  0  0
 80163  1  0  0  0
 80164  1  0  0  0
 81165  1  0  0  0
 81166  1  0  0  0
 82167  1  0  0  0
 83 84  1  0  0  0
 83168  1  0  0  0
M  ISO  4   1 100  68 101  81 101  84 100
M  END
> <chiral flag>
0

> <version>
0

> <s_m_source_file>
/data/baiqing/PycharmProjects/Reinvent-master-3.2/result/LINK_invent/BTK/process_docking_weight1_custom_sum_contain_oxygen_bond_distance_aromatic_linkinvent_7_9_3/rearranged_h_0111.sdf

> <i_m_source_file_index>
75

> <r_mmod_Potential_Energy-OPLS-2005>
913.499816894531

> <r_mmod_Stretch_Energy-OPLS-2005>
298.348480224609

> <r_mmod_Bend_Energy-OPLS-2005>
363.791198730469

> <r_mmod_Torsional_Energy-OPLS-2005>
386.308624267578

> <r_mmod_Improper_Torsional_Energy-OPLS-2005>
5.34160232543945

> <r_mmod_Van_der_Waal_Energy-OPLS-2005>
136.833908081055

> <r_mmod_Electrostatic_Energy-OPLS-2005>
-272.417816162109

> <r_mmod_Solvation_Energy-OPLS-2005>
-171.742294311523

> <b_mmod_Minimization_Converged-OPLS-2005>
0

> <r_mmod_RMS_Derivative-OPLS-2005>
2.97236514091492

$$$$
75
                    3D
 Structure written by MMmdl.
163171  0  0  1  0            999 V2000
  -30.5233  -15.0471   20.4846 C   0  0  0  0  0  0
  -30.4500  -12.6816   19.5347 C   0  0  0  0  0  0
  -29.5529  -12.5815   18.2779 C   0  0  0  0  0  0
  -28.0828  -12.3293   18.6760 C   0  0  0  0  0  0
  -27.6242  -13.2634   19.8296 C   0  0  2  0  0  0
  -28.6536  -13.3346   20.9773 C   0  0  0  0  0  0
  -25.2374  -13.8196   20.5666 C   0  0  0  0  0  0
  -24.1735  -13.0396   20.9197 C   0  0  0  0  0  0
  -24.6367  -11.6901   20.8663 C   0  0  0  0  0  0
  -23.9047  -10.4272   21.0353 C   0  0  0  0  0  0
  -24.3604   -9.4212   21.9141 C   0  0  0  0  0  0
  -23.6257   -8.2260   22.0738 C   0  0  0  0  0  0
  -22.4244   -8.0274   21.3529 C   0  0  0  0  0  0
  -21.9880   -9.0234   20.4632 C   0  0  0  0  0  0
  -22.7203  -10.2117   20.3026 C   0  0  0  0  0  0
  -21.6850   -6.0710   22.5261 C   0  0  0  0  0  0
  -21.4014   -6.5614   23.8210 C   0  0  0  0  0  0
  -21.3678   -5.6774   24.9159 C   0  0  0  0  0  0
  -21.6052   -4.3017   24.7204 C   0  0  0  0  0  0
  -21.8819   -3.8122   23.4321 C   0  0  0  0  0  0
  -21.9208   -4.6942   22.3387 C   0  0  0  0  0  0
  -22.7772  -13.5181   21.1884 C   0  0  0  0  0  0
  -22.1659   -4.2146   21.0955 F   0  0  0  0  0  0
  -21.5660   -3.4493   25.7718 F   0  0  0  0  0  0
  -29.9200  -13.7862   20.3848 N   0  0  0  0  0  0
  -26.2826  -12.9481   20.3137 N   0  0  0  0  0  0
  -25.9301  -11.6579   20.5563 N   0  0  0  0  0  0
  -22.0460  -12.8162   22.0465 N   0  0  0  0  0  0
  -25.3948  -15.1943   20.4127 N   0  0  0  0  0  0
  -31.7409  -15.0773   20.2547 O   0  0  0  0  0  0
  -21.6631   -6.8843   21.4236 O   0  0  0  0  0  0
  -22.3454  -14.5501   20.6760 O   0  0  0  0  0  0
  -24.6474  -31.8397   23.1812 C   0  0  0  0  0  0
  -25.9222  -32.4694   23.8232 C   0  0  1  0  0  0
  -27.2447  -27.1181   20.1739 C   0  0  0  0  0  0
  -25.5963  -33.8487   24.2207 N   0  0  0  0  0  0
  -23.4583  -30.4563   21.5170 C   0  0  2  0  0  0
  -24.9176  -28.8757   20.0992 C   0  0  0  0  0  0
  -22.7616  -29.4525   22.4725 C   0  0  0  0  0  0
  -18.0335  -28.1438   22.8540 C   0  0  0  0  0  0
  -24.1443  -36.7247   23.2645 C   0  0  0  0  0  0
  -26.0099  -30.7145   21.3801 C   0  0  0  0  0  0
  -26.0856  -29.3161   20.7367 C   0  0  0  0  0  0
  -27.2430  -28.4522   20.7542 C   0  0  0  0  0  0
  -26.0480  -26.7804   19.5001 C   0  0  0  0  0  0
  -24.9169  -27.6260   19.4601 C   0  0  0  0  0  0
  -23.6971  -29.7803   20.1350 C   0  0  0  0  0  0
  -25.4071  -36.3012   24.0329 C   0  0  1  0  0  0
  -20.5968  -28.3788   23.1214 C   0  0  2  0  0  0
  -20.6811  -26.9496   22.5409 C   0  0  0  0  0  0
  -19.5740  -26.6458   21.5232 C   0  0  0  0  0  0
  -18.1936  -26.7991   22.1670 C   0  0  0  0  0  0
  -19.1608  -28.8922   23.2880 C   0  0  0  0  0  0
  -18.9505  -30.1498   23.8955 C   0  0  0  0  0  0
  -17.6504  -30.6627   24.0604 C   0  0  0  0  0  0
  -25.9032  -34.9411   23.5064 C   0  0  0  0  0  0
  -16.5396  -29.9157   23.6339 C   0  0  0  0  0  0
  -16.7331  -28.6539   23.0417 C   0  0  0  0  0  0
  -26.4560  -31.6547   25.0663 C   0  0  0  0  0  0
  -25.3793  -31.3768   26.1406 C   0  0  0  0  0  0
  -27.0427  -30.2950   24.6217 C   0  0  0  0  0  0
  -27.6043  -32.4316   25.7485 C   0  0  0  0  0  0
  -27.5542  -37.1778   24.8482 C   0  0  0  0  0  0
  -21.4296  -29.3070   22.3496 N   0  0  0  0  0  0
  -26.4217  -37.3749   23.9453 N   0  0  0  0  0  0
  -24.7240  -31.0272   22.0825 N   0  0  0  0  0  0
  -23.4221  -28.8087   23.2892 O   0  0  0  0  0  0
  -28.3197  -26.1541   20.2795 O   0  0  0  0  0  0
  -26.5609  -34.8923   22.4633 O   0  0  0  0  0  0
  -23.5581  -32.1242   23.7024 O   0  0  0  0  0  0
  -28.6655  -19.5724   19.5829 C   0  0  0  0  0  0
  -28.4379  -21.0028   19.4827 C   0  0  0  0  0  0
  -29.5712  -19.2510   20.5648 C   0  0  0  0  0  0
  -29.1697  -21.7280   20.3986 C   0  0  0  0  0  0
  -30.6461  -24.0006   20.6010 C   0  0  0  0  0  0
  -33.0230  -20.6467   23.3744 C   0  0  0  0  0  0
  -32.9311  -19.8506   20.9931 C   0  0  0  0  0  0
  -30.1435  -17.7589   21.0795 C   0  0  0  0  0  0
  -30.8576  -20.9253   22.1243 C   0  0  0  0  0  0
  -28.2080  -24.6051   20.0317 C   0  0  0  0  0  0
  -29.2121  -23.3944   20.6970 C   0  0  1  0  0  0
  -32.1150  -20.0431   22.2899 C   0  0  0  0  0  0
  -29.9038  -20.6147   21.0442 N   0  0  0  0  0  0
  -29.7693  -16.2620   20.6507 N   0  0  0  0  0  0
  -31.4854  -12.8579   19.2336 H   0  0  0  0  0  0
  -30.4577  -11.7493   20.0986 H   0  0  0  0  0  0
  -29.9247  -11.7955   17.6190 H   0  0  0  0  0  0
  -29.6212  -13.5141   17.7128 H   0  0  0  0  0  0
  -28.0001  -11.2887   18.9945 H   0  0  0  0  0  0
  -27.4313  -12.4422   17.8070 H   0  0  0  0  0  0
  -27.5725  -14.2599   19.3889 H   0  0  0  0  0  0
  -28.7657  -12.3704   21.4779 H   0  0  0  0  0  0
  -28.3165  -14.0394   21.7376 H   0  0  0  0  0  0
  -25.2775   -9.5713   22.4656 H   0  0  0  0  0  0
  -24.0013   -7.4663   22.7452 H   0  0  0  0  0  0
  -21.0829   -8.8718   19.8917 H   0  0  0  0  0  0
  -22.3661  -10.9620   19.6100 H   0  0  0  0  0  0
  -21.1993   -7.6121   23.9704 H   0  0  0  0  0  0
  -21.1506   -6.0484   25.9078 H   0  0  0  0  0  0
  -22.0599   -2.7581   23.2808 H   0  0  0  0  0  0
  -22.4046  -11.9791   22.4819 H   0  0  0  0  0  0
  -21.1074  -13.1182   22.2681 H   0  0  0  0  0  0
  -24.6121  -15.8276   20.5299 H   0  0  0  0  0  0
  -26.2230  -15.6544   20.0564 H   0  0  0  0  0  0
  -26.7293  -32.5371   23.0955 H   0  0  0  0  0  0
  -25.0174  -33.9570   25.0410 H   0  0  0  0  0  0
  -22.7645  -31.2806   21.3487 H   0  0  0  0  0  0
  -23.3689  -35.9597   23.3279 H   0  0  0  0  0  0
  -24.3500  -36.8898   22.2060 H   0  0  0  0  0  0
  -23.7187  -37.6436   23.6683 H   0  0  0  0  0  0
  -26.1578  -31.4551   20.5920 H   0  0  0  0  0  0
  -26.8806  -30.7846   22.0182 H   0  0  0  0  0  0
  -28.1309  -28.7764   21.2776 H   0  0  0  0  0  0
  -25.9762  -25.8213   19.0108 H   0  0  0  0  0  0
  -24.0384  -27.2907   18.9256 H   0  0  0  0  0  0
  -23.8549  -30.5460   19.3725 H   0  0  0  0  0  0
  -22.8163  -29.2195   19.8117 H   0  0  0  0  0  0
  -25.1243  -36.1837   25.0816 H   0  0  0  0  0  0
  -21.0155  -28.3415   24.1291 H   0  0  0  0  0  0
  -20.5710  -26.2442   23.3666 H   0  0  0  0  0  0
  -21.6665  -26.7474   22.1186 H   0  0  0  0  0  0
  -19.6857  -25.6360   21.1266 H   0  0  0  0  0  0
  -19.6609  -27.3245   20.6733 H   0  0  0  0  0  0
  -17.4227  -26.6828   21.4057 H   0  0  0  0  0  0
  -18.0266  -26.0098   22.9018 H   0  0  0  0  0  0
  -19.7956  -30.7303   24.2377 H   0  0  0  0  0  0
  -17.5038  -31.6303   24.5196 H   0  0  0  0  0  0
  -15.5391  -30.3092   23.7546 H   0  0  0  0  0  0
  -15.8733  -28.0826   22.7184 H   0  0  0  0  0  0
  -24.5990  -30.7047   25.7812 H   0  0  0  0  0  0
  -24.8997  -32.2999   26.4701 H   0  0  0  0  0  0
  -25.8172  -30.9107   27.0255 H   0  0  0  0  0  0
  -26.3058  -29.6621   24.1292 H   0  0  0  0  0  0
  -27.4087  -29.7256   25.4753 H   0  0  0  0  0  0
  -27.8923  -30.4098   23.9478 H   0  0  0  0  0  0
  -27.2608  -33.3647   26.1944 H   0  0  0  0  0  0
  -28.3992  -32.6830   25.0451 H   0  0  0  0  0  0
  -28.0570  -31.8549   26.5547 H   0  0  0  0  0  0
  -28.2576  -38.0061   24.7542 H   0  0  0  0  0  0
  -28.1030  -36.2613   24.6290 H   0  0  0  0  0  0
  -27.2316  -37.1441   25.8899 H   0  0  0  0  0  0
  -20.9484  -29.8850   21.6757 H   0  0  0  0  0  0
  -26.0081  -38.2808   24.1493 H   0  0  0  0  0  0
  -28.1882  -18.8200   18.9674 H   0  0  0  0  0  0
  -27.7585  -21.4692   18.7773 H   0  0  0  0  0  0
  -31.2376  -23.5558   19.8002 H   0  0  0  0  0  0
  -31.2126  -23.9264   21.5309 H   0  0  0  0  0  0
  -30.6268  -25.0769   20.4180 H   0  0  0  0  0  0
  -33.8687  -19.9985   23.6010 H   0  0  0  0  0  0
  -32.4831  -20.8312   24.3037 H   0  0  0  0  0  0
  -33.4279  -21.6017   23.0394 H   0  0  0  0  0  0
  -33.6242  -19.0157   21.0969 H   0  0  0  0  0  0
  -32.3114  -19.6315   20.1245 H   0  0  0  0  0  0
  -33.5264  -20.7298   20.7489 H   0  0  0  0  0  0
  -29.8972  -17.7470   22.1421 H   0  0  0  0  0  0
  -31.2297  -17.7698   21.0793 H   0  0  0  0  0  0
  -31.2638  -21.9029   21.9196 H   0  0  0  0  0  0
  -30.3135  -21.0297   23.0656 H   0  0  0  0  0  0
  -27.1769  -24.3114   20.2442 H   0  0  0  0  0  0
  -28.3101  -24.5110   18.9481 H   0  0  0  0  0  0
  -28.9572  -23.4746   21.7571 H   0  0  0  0  0  0
  -31.7964  -19.0729   22.6588 H   0  0  0  0  0  0
  -28.7741  -16.0938   20.6774 H   0  0  0  0  0  0
  1 25  1  0  0  0
  1 30  2  0  0  0
  1 84  1  0  0  0
  2  3  1  0  0  0
  2 25  1  0  0  0
  2 85  1  0  0  0
  2 86  1  0  0  0
  3  4  1  0  0  0
  3 87  1  0  0  0
  3 88  1  0  0  0
  4  5  1  0  0  0
  4 89  1  0  0  0
  4 90  1  0  0  0
  5  6  1  0  0  0
  5 26  1  0  0  0
  5 91  1  0  0  0
  6 25  1  0  0  0
  6 92  1  0  0  0
  6 93  1  0  0  0
  7  8  2  0  0  0
  7 26  1  0  0  0
  7 29  1  0  0  0
  8  9  1  0  0  0
  8 22  1  0  0  0
  9 10  1  0  0  0
  9 27  2  0  0  0
 10 11  2  0  0  0
 10 15  1  0  0  0
 11 12  1  0  0  0
 11 94  1  0  0  0
 12 13  2  0  0  0
 12 95  1  0  0  0
 13 14  1  0  0  0
 13 31  1  0  0  0
 14 15  2  0  0  0
 14 96  1  0  0  0
 15 97  1  0  0  0
 16 17  2  0  0  0
 16 21  1  0  0  0
 16 31  1  0  0  0
 17 18  1  0  0  0
 17 98  1  0  0  0
 18 19  2  0  0  0
 18 99  1  0  0  0
 19 20  1  0  0  0
 19 24  1  0  0  0
 20 21  2  0  0  0
 20100  1  0  0  0
 21 23  1  0  0  0
 22 28  1  0  0  0
 22 32  2  0  0  0
 26 27  1  0  0  0
 28101  1  0  0  0
 28102  1  0  0  0
 29103  1  0  0  0
 29104  1  0  0  0
 33 34  1  0  0  0
 33 66  1  0  0  0
 33 70  2  0  0  0
 34 36  1  0  0  0
 34 59  1  0  0  0
 34105  1  0  0  0
 35 44  2  0  0  0
 35 45  1  0  0  0
 35 68  1  0  0  0
 36 56  1  0  0  0
 36106  1  0  0  0
 37 39  1  0  0  0
 37 47  1  0  0  0
 37 66  1  0  0  0
 37107  1  0  0  0
 38 43  2  0  0  0
 38 46  1  0  0  0
 38 47  1  0  0  0
 39 64  1  0  0  0
 39 67  2  0  0  0
 40 52  1  0  0  0
 40 53  2  0  0  0
 40 58  1  0  0  0
 41108  1  0  0  0
 41109  1  0  0  0
 41110  1  0  0  0
 41 48  1  0  0  0
 42 43  1  0  0  0
 42 66  1  0  0  0
 42111  1  0  0  0
 42112  1  0  0  0
 43 44  1  0  0  0
 44113  1  0  0  0
 45 46  2  0  0  0
 45114  1  0  0  0
 46115  1  0  0  0
 47116  1  0  0  0
 47117  1  0  0  0
 48 56  1  0  0  0
 48 65  1  0  0  0
 48118  1  0  0  0
 49 50  1  0  0  0
 49 53  1  0  0  0
 49 64  1  0  0  0
 49119  1  0  0  0
 50 51  1  0  0  0
 50120  1  0  0  0
 50121  1  0  0  0
 51 52  1  0  0  0
 51122  1  0  0  0
 51123  1  0  0  0
 52124  1  0  0  0
 52125  1  0  0  0
 53 54  1  0  0  0
 54 55  2  0  0  0
 54126  1  0  0  0
 55 57  1  0  0  0
 55127  1  0  0  0
 56 69  2  0  0  0
 57 58  2  0  0  0
 57128  1  0  0  0
 58129  1  0  0  0
 59 60  1  0  0  0
 59 61  1  0  0  0
 59 62  1  0  0  0
 60130  1  0  0  0
 60131  1  0  0  0
 60132  1  0  0  0
 61133  1  0  0  0
 61134  1  0  0  0
 61135  1  0  0  0
 62136  1  0  0  0
 62137  1  0  0  0
 62138  1  0  0  0
 63 65  1  0  0  0
 63139  1  0  0  0
 63140  1  0  0  0
 63141  1  0  0  0
 64142  1  0  0  0
 65143  1  0  0  0
 68 80  1  0  0  0
 71 72  1  0  0  0
 71 73  2  0  0  0
 71144  1  0  0  0
 72 74  2  0  0  0
 72145  1  0  0  0
 73 78  1  0  0  0
 73 83  1  0  0  0
 74 81  1  0  0  0
 74 83  1  0  0  0
 75146  1  0  0  0
 75147  1  0  0  0
 75148  1  0  0  0
 75 81  1  0  0  0
 76149  1  0  0  0
 76150  1  0  0  0
 76151  1  0  0  0
 76 82  1  0  0  0
 77 82  1  0  0  0
 77152  1  0  0  0
 77153  1  0  0  0
 77154  1  0  0  0
 78 84  1  0  0  0
 78155  1  0  0  0
 78156  1  0  0  0
 79 82  1  0  0  0
 79 83  1  0  0  0
 79157  1  0  0  0
 79158  1  0  0  0
 80 81  1  0  0  0
 80159  1  0  0  0
 80160  1  0  0  0
 81161  1  0  0  0
 82162  1  0  0  0
 84163  1  0  0  0
M  ISO  4   1 100  68 101  80 101  84 100
M  END
> <chiral flag>
0

> <version>
0

> <s_m_source_file>
/data/baiqing/PycharmProjects/Reinvent-master-3.2/result/LINK_invent/BTK/process_docking_weight1_custom_sum_contain_oxygen_bond_distance_aromatic_linkinvent_7_9_3/rearranged_h_0111.sdf

> <i_m_source_file_index>
76

> <r_mmod_Potential_Energy-OPLS-2005>
627.824096679688

> <r_mmod_Stretch_Energy-OPLS-2005>
331.224151611328

> <r_mmod_Bend_Energy-OPLS-2005>
307.469024658203

> <r_mmod_Torsional_Energy-OPLS-2005>
229.177703857422

> <r_mmod_Improper_Torsional_Energy-OPLS-2005>
4.23588180541992

> <r_mmod_Van_der_Waal_Energy-OPLS-2005>
116.305320739746

> <r_mmod_Electrostatic_Energy-OPLS-2005>
-396.071136474609

> <r_mmod_Solvation_Energy-OPLS-2005>
-208.349624633789

> <b_mmod_Minimization_Converged-OPLS-2005>
0

> <r_mmod_RMS_Derivative-OPLS-2005>
7.6919379234314

$$$$
76
                    3D
 Structure written by MMmdl.
171180  0  0  1  0            999 V2000
  -30.6957  -14.4015   20.6085 C   0  0  0  0  0  0
  -30.4220  -12.2732   19.3987 C   0  0  0  0  0  0
  -29.4896  -12.5203   18.1949 C   0  0  0  0  0  0
  -28.0098  -12.3901   18.6075 C   0  0  0  0  0  0
  -27.6722  -13.1941   19.8896 C   0  0  2  0  0  0
  -28.7108  -12.9075   20.9978 C   0  0  0  0  0  0
  -25.2633  -13.8109   20.5622 C   0  0  0  0  0  0
  -24.1882  -13.0415   20.9167 C   0  0  0  0  0  0
  -24.6411  -11.6879   20.8730 C   0  0  0  0  0  0
  -23.9038  -10.4295   21.0401 C   0  0  0  0  0  0
  -24.3602   -9.4214   21.9173 C   0  0  0  0  0  0
  -23.6288   -8.2252   22.0746 C   0  0  0  0  0  0
  -22.4268   -8.0290   21.3549 C   0  0  0  0  0  0
  -21.9901   -9.0250   20.4641 C   0  0  0  0  0  0
  -22.7210  -10.2142   20.3046 C   0  0  0  0  0  0
  -21.6844   -6.0750   22.5286 C   0  0  0  0  0  0
  -21.3990   -6.5648   23.8216 C   0  0  0  0  0  0
  -21.3662   -5.6804   24.9185 C   0  0  0  0  0  0
  -21.6054   -4.3061   24.7240 C   0  0  0  0  0  0
  -21.8812   -3.8161   23.4353 C   0  0  0  0  0  0
  -21.9186   -4.6980   22.3411 C   0  0  0  0  0  0
  -22.7919  -13.5224   21.1846 C   0  0  0  0  0  0
  -22.1650   -4.2160   21.0988 F   0  0  0  0  0  0
  -21.5648   -3.4534   25.7745 F   0  0  0  0  0  0
  -30.0474  -13.2198   20.4580 N   0  0  0  0  0  0
  -26.3078  -12.9264   20.3403 N   0  0  0  0  0  0
  -25.9335  -11.6438   20.5776 N   0  0  0  0  0  0
  -22.0554  -12.8219   22.0414 N   0  0  0  0  0  0
  -25.4382  -15.1808   20.3932 N   0  0  0  0  0  0
  -31.7824  -14.6604   20.0819 O   0  0  0  0  0  0
  -21.6641   -6.8886   21.4238 O   0  0  0  0  0  0
  -22.3617  -14.5541   20.6706 O   0  0  0  0  0  0
  -24.6154  -31.8683   23.2115 C   0  0  0  0  0  0
  -25.9056  -32.4820   23.8404 C   0  0  1  0  0  0
  -27.2334  -27.4433   20.0868 C   0  0  0  0  0  0
  -25.5924  -33.8623   24.2347 N   0  0  0  0  0  0
  -23.4015  -30.4929   21.5518 C   0  0  2  0  0  0
  -24.8472  -28.9583   20.1163 C   0  0  0  0  0  0
  -22.7410  -29.4676   22.5008 C   0  0  0  0  0  0
  -18.0270  -28.1382   22.8507 C   0  0  0  0  0  0
  -24.1487  -36.7314   23.2640 C   0  0  0  0  0  0
  -25.9303  -30.8339   21.3648 C   0  0  0  0  0  0
  -26.0085  -29.4678   20.7141 C   0  0  0  0  0  0
  -27.2061  -28.7174   20.6976 C   0  0  0  0  0  0
  -26.0614  -26.9478   19.4797 C   0  0  0  0  0  0
  -24.8685  -27.6968   19.4973 C   0  0  0  0  0  0
  -23.6080  -29.8249   20.1676 C   0  0  0  0  0  0
  -25.4103  -36.3115   24.0341 C   0  0  1  0  0  0
  -20.5864  -28.3678   23.1324 C   0  0  2  0  0  0
  -20.6775  -26.9416   22.5425 C   0  0  0  0  0  0
  -19.5753  -26.6395   21.5219 C   0  0  0  0  0  0
  -18.1923  -26.7936   22.1618 C   0  0  0  0  0  0
  -19.1519  -28.8838   23.2909 C   0  0  0  0  0  0
  -18.9449  -30.1449   23.8928 C   0  0  0  0  0  0
  -17.6452  -30.6589   24.0575 C   0  0  0  0  0  0
  -25.9035  -34.9477   23.5126 C   0  0  0  0  0  0
  -16.5342  -29.9099   23.6332 C   0  0  0  0  0  0
  -16.7257  -28.6504   23.0363 C   0  0  0  0  0  0
  -26.4487  -31.6593   25.0728 C   0  0  0  0  0  0
  -25.3756  -31.3691   26.1481 C   0  0  0  0  0  0
  -27.0321  -30.3048   24.6094 C   0  0  0  0  0  0
  -27.6081  -32.4304   25.7476 C   0  0  0  0  0  0
  -27.5578  -37.1814   24.8461 C   0  0  0  0  0  0
  -21.4138  -29.3043   22.3732 N   0  0  0  0  0  0
  -26.4291  -37.3796   23.9401 N   0  0  0  0  0  0
  -24.6671  -31.0785   22.1016 N   0  0  0  0  0  0
  -23.4190  -28.8234   23.3050 O   0  0  0  0  0  0
  -28.3881  -26.6944   20.0559 O   0  0  0  0  0  0
  -26.5583  -34.8922   22.4685 O   0  0  0  0  0  0
  -23.5347  -32.1437   23.7509 O   0  0  0  0  0  0
  -28.5262  -22.4553   18.6591 C   0  0  0  0  0  0
  -28.0554  -23.6344   19.2545 C   0  0  0  0  0  0
  -29.7565  -21.8772   19.0603 C   0  0  0  0  0  0
  -30.4056  -22.5051   20.1710 C   0  0  0  0  0  0
  -28.8270  -24.2463   20.2486 C   0  0  0  0  0  0
  -31.5882  -20.7610   21.7905 C   0  0  0  0  0  0
  -31.6778  -22.1098   22.4329 C   0  0  0  0  0  0
  -31.6220  -22.0059   20.9138 C   0  0  0  0  0  0
  -30.1504  -21.0531   16.6941 C   0  0  0  0  0  0
  -31.8078  -20.3906   18.3653 C   0  0  0  0  0  0
  -28.3751  -25.5465   20.9193 C   0  0  0  0  0  0
  -30.2086  -16.7894   21.1643 C   0  0  0  0  0  0
  -29.5057  -17.3834   19.9185 C   0  0  0  0  0  0
  -29.4937  -19.3833   18.4333 C   0  0  0  0  0  0
  -30.2965  -20.6909   18.1964 C   0  0  0  0  0  0
  -29.9621  -23.6736   20.6994 N   0  0  0  0  0  0
  -29.9851  -15.3441   21.2435 N   0  0  0  0  0  0
  -29.6980  -18.8454   19.7934 N   0  3  0  0  0  0
  -31.4659  -12.3696   19.0969 H   0  0  0  0  0  0
  -30.3128  -11.2490   19.7564 H   0  0  0  0  0  0
  -29.7094  -11.8214   17.3853 H   0  0  0  0  0  0
  -29.6705  -13.5177   17.7915 H   0  0  0  0  0  0
  -27.7977  -11.3328   18.7632 H   0  0  0  0  0  0
  -27.3642  -12.7131   17.7895 H   0  0  0  0  0  0
  -27.7400  -14.2526   19.6372 H   0  0  0  0  0  0
  -28.6773  -11.8548   21.2814 H   0  0  0  0  0  0
  -28.4751  -13.4491   21.9145 H   0  0  0  0  0  0
  -25.2742   -9.5684   22.4757 H   0  0  0  0  0  0
  -23.9994   -7.4643   22.7468 H   0  0  0  0  0  0
  -21.0834   -8.8746   19.8960 H   0  0  0  0  0  0
  -22.3635  -10.9680   19.6172 H   0  0  0  0  0  0
  -21.1942   -7.6151   23.9692 H   0  0  0  0  0  0
  -21.1494   -6.0556   25.9079 H   0  0  0  0  0  0
  -22.0580   -2.7619   23.2851 H   0  0  0  0  0  0
  -22.4123  -11.9839   22.4762 H   0  0  0  0  0  0
  -21.1178  -13.1279   22.2591 H   0  0  0  0  0  0
  -24.6650  -15.8305   20.4786 H   0  0  0  0  0  0
  -26.2734  -15.6028   20.0093 H   0  0  0  0  0  0
  -26.7126  -32.5528   23.1163 H   0  0  0  0  0  0
  -25.0123  -33.9792   25.0524 H   0  0  0  0  0  0
  -22.6914  -31.3107   21.4153 H   0  0  0  0  0  0
  -23.3744  -35.9654   23.3306 H   0  0  0  0  0  0
  -24.3587  -36.8924   22.2057 H   0  0  0  0  0  0
  -23.7248  -37.6525   23.6642 H   0  0  0  0  0  0
  -26.0395  -31.5978   20.5945 H   0  0  0  0  0  0
  -26.8213  -30.8892   21.9795 H   0  0  0  0  0  0
  -28.1034  -29.1099   21.1554 H   0  0  0  0  0  0
  -26.0670  -25.9916   18.9789 H   0  0  0  0  0  0
  -23.9809  -27.3047   19.0211 H   0  0  0  0  0  0
  -23.7126  -30.6002   19.4075 H   0  0  0  0  0  0
  -22.7322  -29.2435   19.8728 H   0  0  0  0  0  0
  -25.1278  -36.1983   25.0836 H   0  0  0  0  0  0
  -20.9944  -28.3233   24.1448 H   0  0  0  0  0  0
  -20.5701  -26.2278   23.3604 H   0  0  0  0  0  0
  -21.6642  -26.7483   22.1195 H   0  0  0  0  0  0
  -19.6922  -25.6311   21.1237 H   0  0  0  0  0  0
  -19.6695  -27.3223   20.6764 H   0  0  0  0  0  0
  -17.4207  -26.6714   21.3999 H   0  0  0  0  0  0
  -18.0303  -26.0058   22.8986 H   0  0  0  0  0  0
  -19.7922  -30.7259   24.2316 H   0  0  0  0  0  0
  -17.5003  -31.6279   24.5163 H   0  0  0  0  0  0
  -15.5344  -30.3005   23.7645 H   0  0  0  0  0  0
  -15.8653  -28.0828   22.7080 H   0  0  0  0  0  0
  -24.5971  -30.6979   25.7826 H   0  0  0  0  0  0
  -24.8885  -32.2824   26.4893 H   0  0  0  0  0  0
  -25.8128  -30.8908   27.0252 H   0  0  0  0  0  0
  -26.2858  -29.6797   24.1176 H   0  0  0  0  0  0
  -27.4139  -29.7299   25.4538 H   0  0  0  0  0  0
  -27.8662  -30.4378   23.9206 H   0  0  0  0  0  0
  -27.2743  -33.3614   26.2053 H   0  0  0  0  0  0
  -28.3885  -32.6836   25.0290 H   0  0  0  0  0  0
  -28.0746  -31.8414   26.5379 H   0  0  0  0  0  0
  -28.2603  -38.0110   24.7504 H   0  0  0  0  0  0
  -28.1073  -36.2639   24.6279 H   0  0  0  0  0  0
  -27.2298  -37.1455   25.8870 H   0  0  0  0  0  0
  -20.9307  -29.8733   21.6925 H   0  0  0  0  0  0
  -26.0180  -38.2872   24.1408 H   0  0  0  0  0  0
  -27.9332  -22.0209   17.8681 H   0  0  0  0  0  0
  -27.1207  -24.0684   18.9314 H   0  0  0  0  0  0
  -30.6494  -20.2367   21.9462 H   0  0  0  0  0  0
  -32.4841  -20.1469   21.8526 H   0  0  0  0  0  0
  -32.6258  -22.3742   22.8960 H   0  0  0  0  0  0
  -30.7895  -22.4441   22.9655 H   0  0  0  0  0  0
  -32.5400  -22.2355   20.3766 H   0  0  0  0  0  0
  -30.6057  -22.0197   16.4739 H   0  0  0  0  0  0
  -29.1135  -21.0886   16.3621 H   0  0  0  0  0  0
  -30.6312  -20.3192   16.0447 H   0  0  0  0  0  0
  -32.4147  -21.2761   18.1787 H   0  0  0  0  0  0
  -32.1364  -19.6355   17.6471 H   0  0  0  0  0  0
  -32.0832  -19.9894   19.3366 H   0  0  0  0  0  0
  -29.0400  -25.7666   21.7547 H   0  0  0  0  0  0
  -27.3924  -25.3706   21.3606 H   0  0  0  0  0  0
  -29.8317  -17.2488   22.0780 H   0  0  0  0  0  0
  -31.2802  -16.9998   21.1391 H   0  0  0  0  0  0
  -28.4356  -17.1686   19.9396 H   0  0  0  0  0  0
  -29.8967  -16.8854   19.0290 H   0  0  0  0  0  0
  -29.8201  -18.6454   17.6966 H   0  0  0  0  0  0
  -28.4261  -19.5251   18.2560 H   0  0  0  0  0  0
  -29.1196  -15.0336   21.6617 H   0  0  0  0  0  0
  -30.6505  -19.0621   20.0350 H   0  0  0  0  0  0
  -29.0901  -19.3401   20.4279 H   0  0  0  0  0  0
  1 25  1  0  0  0
  1 30  2  0  0  0
  1 87  1  0  0  0
  2  3  1  0  0  0
  2 25  1  0  0  0
  2 89  1  0  0  0
  2 90  1  0  0  0
  3  4  1  0  0  0
  3 91  1  0  0  0
  3 92  1  0  0  0
  4  5  1  0  0  0
  4 93  1  0  0  0
  4 94  1  0  0  0
  5  6  1  0  0  0
  5 26  1  0  0  0
  5 95  1  0  0  0
  6 25  1  0  0  0
  6 96  1  0  0  0
  6 97  1  0  0  0
  7  8  2  0  0  0
  7 26  1  0  0  0
  7 29  1  0  0  0
  8  9  1  0  0  0
  8 22  1  0  0  0
  9 10  1  0  0  0
  9 27  2  0  0  0
 10 11  2  0  0  0
 10 15  1  0  0  0
 11 12  1  0  0  0
 11 98  1  0  0  0
 12 13  2  0  0  0
 12 99  1  0  0  0
 13 14  1  0  0  0
 13 31  1  0  0  0
 14 15  2  0  0  0
 14100  1  0  0  0
 15101  1  0  0  0
 16 17  2  0  0  0
 16 21  1  0  0  0
 16 31  1  0  0  0
 17 18  1  0  0  0
 17102  1  0  0  0
 18 19  2  0  0  0
 18103  1  0  0  0
 19 20  1  0  0  0
 19 24  1  0  0  0
 20 21  2  0  0  0
 20104  1  0  0  0
 21 23  1  0  0  0
 22 28  1  0  0  0
 22 32  2  0  0  0
 26 27  1  0  0  0
 28105  1  0  0  0
 28106  1  0  0  0
 29107  1  0  0  0
 29108  1  0  0  0
 33 34  1  0  0  0
 33 66  1  0  0  0
 33 70  2  0  0  0
 34 36  1  0  0  0
 34 59  1  0  0  0
 34109  1  0  0  0
 35 44  2  0  0  0
 35 45  1  0  0  0
 35 68  1  0  0  0
 36 56  1  0  0  0
 36110  1  0  0  0
 37 39  1  0  0  0
 37 47  1  0  0  0
 37 66  1  0  0  0
 37111  1  0  0  0
 38 43  2  0  0  0
 38 46  1  0  0  0
 38 47  1  0  0  0
 39 64  1  0  0  0
 39 67  2  0  0  0
 40 52  1  0  0  0
 40 53  2  0  0  0
 40 58  1  0  0  0
 41112  1  0  0  0
 41113  1  0  0  0
 41114  1  0  0  0
 41 48  1  0  0  0
 42 43  1  0  0  0
 42 66  1  0  0  0
 42115  1  0  0  0
 42116  1  0  0  0
 43 44  1  0  0  0
 44117  1  0  0  0
 45 46  2  0  0  0
 45118  1  0  0  0
 46119  1  0  0  0
 47120  1  0  0  0
 47121  1  0  0  0
 48 56  1  0  0  0
 48 65  1  0  0  0
 48122  1  0  0  0
 49 50  1  0  0  0
 49 53  1  0  0  0
 49 64  1  0  0  0
 49123  1  0  0  0
 50 51  1  0  0  0
 50124  1  0  0  0
 50125  1  0  0  0
 51 52  1  0  0  0
 51126  1  0  0  0
 51127  1  0  0  0
 52128  1  0  0  0
 52129  1  0  0  0
 53 54  1  0  0  0
 54 55  2  0  0  0
 54130  1  0  0  0
 55 57  1  0  0  0
 55131  1  0  0  0
 56 69  2  0  0  0
 57 58  2  0  0  0
 57132  1  0  0  0
 58133  1  0  0  0
 59 60  1  0  0  0
 59 61  1  0  0  0
 59 62  1  0  0  0
 60134  1  0  0  0
 60135  1  0  0  0
 60136  1  0  0  0
 61137  1  0  0  0
 61138  1  0  0  0
 61139  1  0  0  0
 62140  1  0  0  0
 62141  1  0  0  0
 62142  1  0  0  0
 63 65  1  0  0  0
 63143  1  0  0  0
 63144  1  0  0  0
 63145  1  0  0  0
 64146  1  0  0  0
 65147  1  0  0  0
 68 81  1  0  0  0
 71 72  2  0  0  0
 71 73  1  0  0  0
 71148  1  0  0  0
 72 75  1  0  0  0
 72149  1  0  0  0
 73 74  2  0  0  0
 73 85  1  0  0  0
 74 86  1  0  0  0
 74 78  1  0  0  0
 75 81  1  0  0  0
 75 86  2  0  0  0
 76 77  1  0  0  0
 76 78  1  0  0  0
 76150  1  0  0  0
 76151  1  0  0  0
 77 78  1  0  0  0
 77152  1  0  0  0
 77153  1  0  0  0
 78154  1  0  0  0
 79155  1  0  0  0
 79156  1  0  0  0
 79157  1  0  0  0
 79 85  1  0  0  0
 80 85  1  0  0  0
 80158  1  0  0  0
 80159  1  0  0  0
 80160  1  0  0  0
 81161  1  0  0  0
 81162  1  0  0  0
 82 83  1  0  0  0
 82 87  1  0  0  0
 82163  1  0  0  0
 82164  1  0  0  0
 83 88  1  0  0  0
 83165  1  0  0  0
 83166  1  0  0  0
 84 85  1  0  0  0
 84 88  1  0  0  0
 84167  1  0  0  0
 84168  1  0  0  0
 87169  1  0  0  0
 88170  1  0  0  0
 88171  1  0  0  0
M  CHG  1  88   1
M  ISO  4   1 100  68 101  81 101  87 100
M  END
> <chiral flag>
0

> <version>
0

> <s_m_source_file>
/data/baiqing/PycharmProjects/Reinvent-master-3.2/result/LINK_invent/BTK/process_docking_weight1_custom_sum_contain_oxygen_bond_distance_aromatic_linkinvent_7_9_3/rearranged_h_0111.sdf

> <i_m_source_file_index>
77

> <r_mmod_Potential_Energy-OPLS-2005>
-348.643615722656

> <r_mmod_Stretch_Energy-OPLS-2005>
41.2031097412109

> <r_mmod_Bend_Energy-OPLS-2005>
111.105888366699

> <r_mmod_Torsional_Energy-OPLS-2005>
283.184600830078

> <r_mmod_Improper_Torsional_Energy-OPLS-2005>
4.73221111297607

> <r_mmod_Van_der_Waal_Energy-OPLS-2005>
159.682342529297

> <r_mmod_Electrostatic_Energy-OPLS-2005>
-484.601531982422

> <r_mmod_Solvation_Energy-OPLS-2005>
-472.598693847656

> <b_mmod_Minimization_Converged-OPLS-2005>
0

> <r_mmod_RMS_Derivative-OPLS-2005>
3.20066261291504

$$$$
77
                    3D
 Structure written by MMmdl.
179188  0  0  1  0            999 V2000
  -30.4501  -15.0149   20.4112 C   0  0  0  0  0  0
  -30.4633  -12.6488   19.4740 C   0  0  0  0  0  0
  -29.5417  -12.5495   18.2363 C   0  0  0  0  0  0
  -28.0684  -12.3240   18.6414 C   0  0  0  0  0  0
  -27.6327  -13.2356   19.8196 C   0  0  2  0  0  0
  -28.6693  -13.2644   20.9586 C   0  0  0  0  0  0
  -25.2527  -13.8152   20.5672 C   0  0  0  0  0  0
  -24.1831  -13.0420   20.9196 C   0  0  0  0  0  0
  -24.6398  -11.6893   20.8677 C   0  0  0  0  0  0
  -23.9081  -10.4285   21.0385 C   0  0  0  0  0  0
  -24.3621   -9.4213   21.9191 C   0  0  0  0  0  0
  -23.6295   -8.2239   22.0760 C   0  0  0  0  0  0
  -22.4284   -8.0254   21.3532 C   0  0  0  0  0  0
  -21.9924   -9.0242   20.4644 C   0  0  0  0  0  0
  -22.7243  -10.2130   20.3045 C   0  0  0  0  0  0
  -21.6853   -6.0736   22.5298 C   0  0  0  0  0  0
  -21.4015   -6.5651   23.8224 C   0  0  0  0  0  0
  -21.3653   -5.6778   24.9187 C   0  0  0  0  0  0
  -21.6044   -4.3047   24.7225 C   0  0  0  0  0  0
  -21.8809   -3.8157   23.4338 C   0  0  0  0  0  0
  -21.9207   -4.6972   22.3413 C   0  0  0  0  0  0
  -22.7857  -13.5261   21.1844 C   0  0  0  0  0  0
  -22.1668   -4.2160   21.0971 F   0  0  0  0  0  0
  -21.5650   -3.4522   25.7749 F   0  0  0  0  0  0
  -29.9316  -13.7205   20.3603 N   0  0  0  0  0  0
  -26.2935  -12.9325   20.3042 N   0  0  0  0  0  0
  -25.9318  -11.6490   20.5551 N   0  0  0  0  0  0
  -22.0421  -12.8294   22.0364 N   0  0  0  0  0  0
  -25.4163  -15.1864   20.4133 N   0  0  0  0  0  0
  -31.6590  -15.1389   20.1858 O   0  0  0  0  0  0
  -21.6624   -6.8860   21.4252 O   0  0  0  0  0  0
  -22.3584  -14.5598   20.6707 O   0  0  0  0  0  0
  -24.6503  -31.8379   23.1852 C   0  0  0  0  0  0
  -25.9254  -32.4663   23.8209 C   0  0  1  0  0  0
  -27.2169  -27.0993   20.1298 C   0  0  0  0  0  0
  -25.6058  -33.8463   24.2157 N   0  0  0  0  0  0
  -23.4500  -30.4563   21.5319 C   0  0  2  0  0  0
  -24.8945  -28.8707   20.1172 C   0  0  0  0  0  0
  -22.7594  -29.4466   22.4852 C   0  0  0  0  0  0
  -18.0300  -28.1370   22.8507 C   0  0  0  0  0  0
  -24.1451  -36.7212   23.2631 C   0  0  0  0  0  0
  -26.0074  -30.7025   21.3770 C   0  0  0  0  0  0
  -26.0772  -29.3061   20.7267 C   0  0  0  0  0  0
  -27.2421  -28.4383   20.7071 C   0  0  0  0  0  0
  -25.9948  -26.7647   19.5048 C   0  0  0  0  0  0
  -24.8630  -27.6115   19.4924 C   0  0  0  0  0  0
  -23.6763  -29.7841   20.1512 C   0  0  0  0  0  0
  -25.4088  -36.3003   24.0312 C   0  0  1  0  0  0
  -20.5912  -28.3643   23.1263 C   0  0  2  0  0  0
  -20.6763  -26.9353   22.5396 C   0  0  0  0  0  0
  -19.5716  -26.6343   21.5197 C   0  0  0  0  0  0
  -18.1905  -26.7920   22.1608 C   0  0  0  0  0  0
  -19.1561  -28.8830   23.2871 C   0  0  0  0  0  0
  -18.9462  -30.1462   23.8839 C   0  0  0  0  0  0
  -17.6464  -30.6556   24.0555 C   0  0  0  0  0  0
  -25.9055  -34.9389   23.5010 C   0  0  0  0  0  0
  -16.5352  -29.9044   23.6379 C   0  0  0  0  0  0
  -16.7282  -28.6476   23.0384 C   0  0  0  0  0  0
  -26.4590  -31.6558   25.0672 C   0  0  0  0  0  0
  -25.3812  -31.3805   26.1408 C   0  0  0  0  0  0
  -27.0448  -30.2967   24.6257 C   0  0  0  0  0  0
  -27.6126  -32.4317   25.7474 C   0  0  0  0  0  0
  -27.5542  -37.1763   24.8470 C   0  0  0  0  0  0
  -21.4281  -29.2983   22.3661 N   0  0  0  0  0  0
  -26.4234  -37.3752   23.9434 N   0  0  0  0  0  0
  -24.7220  -31.0234   22.0842 N   0  0  0  0  0  0
  -23.4266  -28.8040   23.2971 O   0  0  0  0  0  0
  -28.2810  -26.1141   20.1017 O   0  0  0  0  0  0
  -26.5620  -34.8943   22.4553 O   0  0  0  0  0  0
  -23.5622  -32.1181   23.7129 O   0  0  0  0  0  0
  -31.1208  -20.7863   19.5423 C   0  0  0  0  0  0
  -31.2819  -18.5788   19.7354 C   0  0  0  0  0  0
  -32.0147  -19.6822   19.4481 C   0  0  0  0  0  0
  -29.8902  -20.4107   20.0316 C   0  0  0  0  0  0
  -35.8884  -19.2152   21.7815 C   0  0  0  0  0  0
  -34.6428  -20.0777   21.5653 C   0  0  0  0  0  0
  -35.7197  -18.7095   20.3473 C   0  0  0  0  0  0
  -34.2407  -19.1261   20.4193 C   0  0  0  0  0  0
  -28.6221  -21.9246   17.3821 C   0  0  0  0  0  0
  -33.8554  -20.6968   16.2489 C   0  0  0  0  0  0
  -28.8113  -21.6134   20.3924 C   0  0  0  0  0  0
  -28.1560  -23.0614   18.3070 C   0  0  0  0  0  0
  -33.8525  -18.8341   17.9043 C   0  0  0  0  0  0
  -28.0682  -24.5757   20.3851 C   0  0  0  0  0  0
  -29.1824  -17.6734   20.6267 C   0  0  0  0  0  0
  -33.5082  -19.6664   19.1690 C   0  0  1  0  0  0
  -28.8079  -23.1854   19.7088 C   0  0  1  0  0  0
  -30.0102  -18.9045   20.1471 N   0  0  0  0  0  0
  -29.5175  -16.0977   20.5149 N   0  0  0  0  0  0
  -33.2991  -19.3891   16.6484 N   0  3  0  0  0  0
  -31.4793  -12.8771   19.1465 H   0  0  0  0  0  0
  -30.5087  -11.6966   20.0047 H   0  0  0  0  0  0
  -29.8824  -11.7418   17.5871 H   0  0  0  0  0  0
  -29.6172  -13.4602   17.6396 H   0  0  0  0  0  0
  -27.9679  -11.2748   18.9218 H   0  0  0  0  0  0
  -27.4125  -12.4783   17.7835 H   0  0  0  0  0  0
  -27.5963  -14.2392   19.3971 H   0  0  0  0  0  0
  -28.7817  -12.2854   21.4268 H   0  0  0  0  0  0
  -28.3433  -13.9522   21.7411 H   0  0  0  0  0  0
  -25.2752   -9.5763   22.4757 H   0  0  0  0  0  0
  -24.0038   -7.4657   22.7490 H   0  0  0  0  0  0
  -21.0854   -8.8753   19.8943 H   0  0  0  0  0  0
  -22.3673  -10.9672   19.6151 H   0  0  0  0  0  0
  -21.1976   -7.6154   23.9739 H   0  0  0  0  0  0
  -21.1495   -6.0502   25.9079 H   0  0  0  0  0  0
  -22.0595   -2.7625   23.2826 H   0  0  0  0  0  0
  -22.3947  -11.9953   22.4845 H   0  0  0  0  0  0
  -21.1053  -13.1377   22.2436 H   0  0  0  0  0  0
  -24.6322  -15.8195   20.5318 H   0  0  0  0  0  0
  -26.2203  -15.6380   20.0026 H   0  0  0  0  0  0
  -26.7349  -32.5265   23.0959 H   0  0  0  0  0  0
  -25.0519  -33.9538   25.0534 H   0  0  0  0  0  0
  -22.7452  -31.2775   21.3833 H   0  0  0  0  0  0
  -23.3756  -35.9495   23.3270 H   0  0  0  0  0  0
  -24.3565  -36.8865   22.2055 H   0  0  0  0  0  0
  -23.7138  -37.6375   23.6669 H   0  0  0  0  0  0
  -26.1532  -31.4524   20.5954 H   0  0  0  0  0  0
  -26.8782  -30.7643   22.0208 H   0  0  0  0  0  0
  -28.1545  -28.7749   21.1825 H   0  0  0  0  0  0
  -25.9032  -25.8146   19.0030 H   0  0  0  0  0  0
  -23.9590  -27.2773   19.0008 H   0  0  0  0  0  0
  -23.8320  -30.5531   19.3912 H   0  0  0  0  0  0
  -22.7829  -29.2390   19.8363 H   0  0  0  0  0  0
  -25.1289  -36.1792   25.0816 H   0  0  0  0  0  0
  -20.9985  -28.3194   24.1382 H   0  0  0  0  0  0
  -20.5557  -26.2267   23.3607 H   0  0  0  0  0  0
  -21.6647  -26.7301   22.1255 H   0  0  0  0  0  0
  -19.6805  -25.6225   21.1270 H   0  0  0  0  0  0
  -19.6669  -27.3124   20.6703 H   0  0  0  0  0  0
  -17.4203  -26.6727   21.3988 H   0  0  0  0  0  0
  -18.0269  -26.0030   22.8958 H   0  0  0  0  0  0
  -19.7926  -30.7321   24.2125 H   0  0  0  0  0  0
  -17.4999  -31.6224   24.5135 H   0  0  0  0  0  0
  -15.5337  -30.2918   23.7654 H   0  0  0  0  0  0
  -15.8726  -28.0758   22.7097 H   0  0  0  0  0  0
  -24.6099  -30.6980   25.7857 H   0  0  0  0  0  0
  -24.8908  -32.3004   26.4582 H   0  0  0  0  0  0
  -25.8195  -30.9283   27.0317 H   0  0  0  0  0  0
  -26.3057  -29.6731   24.1259 H   0  0  0  0  0  0
  -27.4048  -29.7250   25.4809 H   0  0  0  0  0  0
  -27.8980  -30.4228   23.9605 H   0  0  0  0  0  0
  -27.2765  -33.3727   26.1851 H   0  0  0  0  0  0
  -28.4097  -32.6650   25.0399 H   0  0  0  0  0  0
  -28.0623  -31.8557   26.5584 H   0  0  0  0  0  0
  -28.2565  -38.0067   24.7603 H   0  0  0  0  0  0
  -28.1055  -36.2613   24.6207 H   0  0  0  0  0  0
  -27.2351  -37.1367   25.8909 H   0  0  0  0  0  0
  -20.9429  -29.8792   21.6989 H   0  0  0  0  0  0
  -26.0089  -38.2793   24.1535 H   0  0  0  0  0  0
  -31.3989  -21.8111   19.3384 H   0  0  0  0  0  0
  -31.6052  -17.5511   19.7543 H   0  0  0  0  0  0
  -35.7397  -18.4310   22.5242 H   0  0  0  0  0  0
  -36.8112  -19.7690   21.9565 H   0  0  0  0  0  0
  -34.8782  -21.0876   21.2211 H   0  0  0  0  0  0
  -33.9492  -20.0968   22.4086 H   0  0  0  0  0  0
  -35.8816  -17.6372   20.2234 H   0  0  0  0  0  0
  -36.2976  -19.2907   19.6270 H   0  0  0  0  0  0
  -33.7010  -18.2746   20.8495 H   0  0  0  0  0  0
  -28.0785  -21.9718   16.4329 H   0  0  0  0  0  0
  -28.4168  -20.9392   17.8096 H   0  0  0  0  0  0
  -29.6870  -21.9848   17.1611 H   0  0  0  0  0  0
  -33.7893  -20.8249   15.1672 H   0  0  0  0  0  0
  -34.9065  -20.7913   16.5248 H   0  0  0  0  0  0
  -33.3097  -21.5122   16.7265 H   0  0  0  0  0  0
  -28.9312  -21.8071   21.4592 H   0  0  0  0  0  0
  -27.7959  -21.2230   20.3185 H   0  0  0  0  0  0
  -27.0792  -22.9365   18.4431 H   0  0  0  0  0  0
  -28.2777  -24.0084   17.7817 H   0  0  0  0  0  0
  -33.4902  -17.8100   18.0184 H   0  0  0  0  0  0
  -34.9316  -18.7544   17.7789 H   0  0  0  0  0  0
  -28.2169  -24.4980   21.4623 H   0  0  0  0  0  0
  -26.9969  -24.3964   20.2863 H   0  0  0  0  0  0
  -28.2388  -17.7778   20.0875 H   0  0  0  0  0  0
  -28.9151  -17.8696   21.6689 H   0  0  0  0  0  0
  -33.8268  -20.6973   19.0034 H   0  0  0  0  0  0
  -29.8608  -23.4574   19.5908 H   0  0  0  0  0  0
  -28.6276  -15.6347   20.5964 H   0  0  0  0  0  0
  -33.5153  -18.7307   15.9162 H   0  0  0  0  0  0
  -32.2948  -19.4394   16.7096 H   0  0  0  0  0  0
  1 25  1  0  0  0
  1 30  2  0  0  0
  1 89  1  0  0  0
  2  3  1  0  0  0
  2 25  1  0  0  0
  2 91  1  0  0  0
  2 92  1  0  0  0
  3  4  1  0  0  0
  3 93  1  0  0  0
  3 94  1  0  0  0
  4  5  1  0  0  0
  4 95  1  0  0  0
  4 96  1  0  0  0
  5  6  1  0  0  0
  5 26  1  0  0  0
  5 97  1  0  0  0
  6 25  1  0  0  0
  6 98  1  0  0  0
  6 99  1  0  0  0
  7  8  2  0  0  0
  7 26  1  0  0  0
  7 29  1  0  0  0
  8  9  1  0  0  0
  8 22  1  0  0  0
  9 10  1  0  0  0
  9 27  2  0  0  0
 10 11  2  0  0  0
 10 15  1  0  0  0
 11 12  1  0  0  0
 11100  1  0  0  0
 12 13  2  0  0  0
 12101  1  0  0  0
 13 14  1  0  0  0
 13 31  1  0  0  0
 14 15  2  0  0  0
 14102  1  0  0  0
 15103  1  0  0  0
 16 17  2  0  0  0
 16 21  1  0  0  0
 16 31  1  0  0  0
 17 18  1  0  0  0
 17104  1  0  0  0
 18 19  2  0  0  0
 18105  1  0  0  0
 19 20  1  0  0  0
 19 24  1  0  0  0
 20 21  2  0  0  0
 20106  1  0  0  0
 21 23  1  0  0  0
 22 28  1  0  0  0
 22 32  2  0  0  0
 26 27  1  0  0  0
 28107  1  0  0  0
 28108  1  0  0  0
 29109  1  0  0  0
 29110  1  0  0  0
 33 34  1  0  0  0
 33 66  1  0  0  0
 33 70  2  0  0  0
 34 36  1  0  0  0
 34 59  1  0  0  0
 34111  1  0  0  0
 35 44  2  0  0  0
 35 45  1  0  0  0
 35 68  1  0  0  0
 36 56  1  0  0  0
 36112  1  0  0  0
 37 39  1  0  0  0
 37 47  1  0  0  0
 37 66  1  0  0  0
 37113  1  0  0  0
 38 43  2  0  0  0
 38 46  1  0  0  0
 38 47  1  0  0  0
 39 64  1  0  0  0
 39 67  2  0  0  0
 40 52  1  0  0  0
 40 53  2  0  0  0
 40 58  1  0  0  0
 41114  1  0  0  0
 41115  1  0  0  0
 41116  1  0  0  0
 41 48  1  0  0  0
 42 43  1  0  0  0
 42 66  1  0  0  0
 42117  1  0  0  0
 42118  1  0  0  0
 43 44  1  0  0  0
 44119  1  0  0  0
 45 46  2  0  0  0
 45120  1  0  0  0
 46121  1  0  0  0
 47122  1  0  0  0
 47123  1  0  0  0
 48 56  1  0  0  0
 48 65  1  0  0  0
 48124  1  0  0  0
 49 50  1  0  0  0
 49 53  1  0  0  0
 49 64  1  0  0  0
 49125  1  0  0  0
 50 51  1  0  0  0
 50126  1  0  0  0
 50127  1  0  0  0
 51 52  1  0  0  0
 51128  1  0  0  0
 51129  1  0  0  0
 52130  1  0  0  0
 52131  1  0  0  0
 53 54  1  0  0  0
 54 55  2  0  0  0
 54132  1  0  0  0
 55 57  1  0  0  0
 55133  1  0  0  0
 56 69  2  0  0  0
 57 58  2  0  0  0
 57134  1  0  0  0
 58135  1  0  0  0
 59 60  1  0  0  0
 59 61  1  0  0  0
 59 62  1  0  0  0
 60136  1  0  0  0
 60137  1  0  0  0
 60138  1  0  0  0
 61139  1  0  0  0
 61140  1  0  0  0
 61141  1  0  0  0
 62142  1  0  0  0
 62143  1  0  0  0
 62144  1  0  0  0
 63 65  1  0  0  0
 63145  1  0  0  0
 63146  1  0  0  0
 63147  1  0  0  0
 64148  1  0  0  0
 65149  1  0  0  0
 68 84  1  0  0  0
 71 73  1  0  0  0
 71 74  2  0  0  0
 71150  1  0  0  0
 72 73  2  0  0  0
 72 88  1  0  0  0
 72151  1  0  0  0
 73 86  1  0  0  0
 74 81  1  0  0  0
 74 88  1  0  0  0
 75 76  1  0  0  0
 75 77  1  0  0  0
 75152  1  0  0  0
 75153  1  0  0  0
 76154  1  0  0  0
 76155  1  0  0  0
 76 78  1  0  0  0
 77 78  1  0  0  0
 77156  1  0  0  0
 77157  1  0  0  0
 78 86  1  0  0  0
 78158  1  0  0  0
 79 82  1  0  0  0
 79159  1  0  0  0
 79160  1  0  0  0
 79161  1  0  0  0
 80 90  1  0  0  0
 80162  1  0  0  0
 80163  1  0  0  0
 80164  1  0  0  0
 81165  1  0  0  0
 81166  1  0  0  0
 81 87  1  0  0  0
 82 87  1  0  0  0
 82167  1  0  0  0
 82168  1  0  0  0
 83 90  1  0  0  0
 83169  1  0  0  0
 83170  1  0  0  0
 83 86  1  0  0  0
 84 87  1  0  0  0
 84171  1  0  0  0
 84172  1  0  0  0
 85 88  1  0  0  0
 85 89  1  0  0  0
 85173  1  0  0  0
 85174  1  0  0  0
 86175  1  0  0  0
 87176  1  0  0  0
 89177  1  0  0  0
 90178  1  0  0  0
 90179  1  0  0  0
M  CHG  1  90   1
M  ISO  4   1 100  68 101  84 101  89 100
M  END
> <chiral flag>
0

> <version>
0

> <s_m_source_file>
/data/baiqing/PycharmProjects/Reinvent-master-3.2/result/LINK_invent/BTK/process_docking_weight1_custom_sum_contain_oxygen_bond_distance_aromatic_linkinvent_7_9_3/rearranged_h_0111.sdf

> <i_m_source_file_index>
78

> <r_mmod_Potential_Energy-OPLS-2005>
591.721740722656

> <r_mmod_Stretch_Energy-OPLS-2005>
329.790252685547

> <r_mmod_Bend_Energy-OPLS-2005>
427.595092773438

> <r_mmod_Torsional_Energy-OPLS-2005>
285.450042724609

> <r_mmod_Improper_Torsional_Energy-OPLS-2005>
5.32020998001099

> <r_mmod_Van_der_Waal_Energy-OPLS-2005>
103.615936279297

> <r_mmod_Electrostatic_Energy-OPLS-2005>
-354.698150634766

> <r_mmod_Solvation_Energy-OPLS-2005>
-441.265563964844

> <b_mmod_Minimization_Converged-OPLS-2005>
0

> <r_mmod_RMS_Derivative-OPLS-2005>
8.22704029083252

$$$$
78
                    3D
 Structure written by MMmdl.
161168  0  0  1  0            999 V2000
  -30.6108  -14.6892   20.4899 C   0  0  0  0  0  0
  -30.4402  -12.4279   19.4568 C   0  0  0  0  0  0
  -29.5079  -12.5054   18.2268 C   0  0  0  0  0  0
  -28.0330  -12.3334   18.6423 C   0  0  0  0  0  0
  -27.6478  -13.2195   19.8567 C   0  0  2  0  0  0
  -28.6935  -13.1123   20.9884 C   0  0  0  0  0  0
  -25.2548  -13.8162   20.5689 C   0  0  0  0  0  0
  -24.1811  -13.0434   20.9196 C   0  0  0  0  0  0
  -24.6377  -11.6904   20.8732 C   0  0  0  0  0  0
  -23.9041  -10.4292   21.0395 C   0  0  0  0  0  0
  -24.3596   -9.4212   21.9176 C   0  0  0  0  0  0
  -23.6281   -8.2241   22.0748 C   0  0  0  0  0  0
  -22.4271   -8.0267   21.3532 C   0  0  0  0  0  0
  -21.9900   -9.0235   20.4628 C   0  0  0  0  0  0
  -22.7217  -10.2122   20.3040 C   0  0  0  0  0  0
  -21.6859   -6.0721   22.5268 C   0  0  0  0  0  0
  -21.4014   -6.5623   23.8198 C   0  0  0  0  0  0
  -21.3665   -5.6783   24.9162 C   0  0  0  0  0  0
  -21.6050   -4.3045   24.7219 C   0  0  0  0  0  0
  -21.8822   -3.8133   23.4345 C   0  0  0  0  0  0
  -21.9197   -4.6949   22.3397 C   0  0  0  0  0  0
  -22.7840  -13.5227   21.1873 C   0  0  0  0  0  0
  -22.1667   -4.2127   21.0980 F   0  0  0  0  0  0
  -21.5640   -3.4537   25.7738 F   0  0  0  0  0  0
  -29.9990  -13.4637   20.4113 N   0  0  0  0  0  0
  -26.2958  -12.9344   20.3292 N   0  0  0  0  0  0
  -25.9307  -11.6493   20.5754 N   0  0  0  0  0  0
  -22.0488  -12.8195   22.0415 N   0  0  0  0  0  0
  -25.4295  -15.1877   20.4090 N   0  0  0  0  0  0
  -31.7955  -14.8317   20.1735 O   0  0  0  0  0  0
  -21.6645   -6.8863   21.4230 O   0  0  0  0  0  0
  -22.3521  -14.5550   20.6746 O   0  0  0  0  0  0
  -24.6295  -31.8574   23.2015 C   0  0  0  0  0  0
  -25.9126  -32.4761   23.8366 C   0  0  1  0  0  0
  -27.2157  -27.2933   20.1004 C   0  0  0  0  0  0
  -25.5914  -33.8564   24.2272 N   0  0  0  0  0  0
  -23.4235  -30.4853   21.5446 C   0  0  2  0  0  0
  -24.8678  -28.9435   20.1076 C   0  0  0  0  0  0
  -22.7497  -29.4619   22.4910 C   0  0  0  0  0  0
  -18.0288  -28.1394   22.8483 C   0  0  0  0  0  0
  -24.1459  -36.7275   23.2645 C   0  0  0  0  0  0
  -25.9698  -30.7799   21.3783 C   0  0  0  0  0  0
  -26.0417  -29.4076   20.7143 C   0  0  0  0  0  0
  -27.2196  -28.5953   20.7010 C   0  0  0  0  0  0
  -26.0134  -26.8964   19.4688 C   0  0  0  0  0  0
  -24.8586  -27.6951   19.4749 C   0  0  0  0  0  0
  -23.6385  -29.8256   20.1588 C   0  0  0  0  0  0
  -25.4088  -36.3063   24.0335 C   0  0  1  0  0  0
  -20.5901  -28.3692   23.1258 C   0  0  2  0  0  0
  -20.6755  -26.9408   22.5399 C   0  0  0  0  0  0
  -19.5723  -26.6386   21.5206 C   0  0  0  0  0  0
  -18.1911  -26.7939   22.1629 C   0  0  0  0  0  0
  -19.1550  -28.8858   23.2862 C   0  0  0  0  0  0
  -18.9489  -30.1459   23.8886 C   0  0  0  0  0  0
  -17.6494  -30.6594   24.0562 C   0  0  0  0  0  0
  -25.9045  -34.9441   23.5105 C   0  0  0  0  0  0
  -16.5376  -29.9099   23.6340 C   0  0  0  0  0  0
  -16.7281  -28.6521   23.0349 C   0  0  0  0  0  0
  -26.4489  -31.6603   25.0768 C   0  0  0  0  0  0
  -25.3694  -31.3784   26.1487 C   0  0  0  0  0  0
  -27.0349  -30.3019   24.6270 C   0  0  0  0  0  0
  -27.6044  -32.4365   25.7530 C   0  0  0  0  0  0
  -27.5548  -37.1781   24.8472 C   0  0  0  0  0  0
  -21.4207  -29.3043   22.3652 N   0  0  0  0  0  0
  -26.4252  -37.3768   23.9427 N   0  0  0  0  0  0
  -24.6938  -31.0566   22.0981 N   0  0  0  0  0  0
  -23.4221  -28.8143   23.2980 O   0  0  0  0  0  0
  -28.3145  -26.4066   20.1407 O   0  0  0  0  0  0
  -26.5630  -34.8912   22.4683 O   0  0  0  0  0  0
  -23.5451  -32.1389   23.7326 O   0  0  0  0  0  0
  -30.1965  -21.5651   22.7170 C   0  0  0  0  0  0
  -31.8305  -22.0028   20.7788 C   0  0  0  0  0  0
  -29.5479  -18.3407   19.9504 C   0  0  0  0  0  0
  -29.1162  -23.7978   20.1985 C   0  0  0  0  0  0
  -30.1144  -17.2418   20.9722 C   0  0  0  0  0  0
  -28.8330  -19.7004   20.4516 C   0  0  0  0  0  0
  -28.5774  -22.2742   20.2525 C   0  0  0  0  0  0
  -28.0299  -24.9492   19.9645 C   0  0  0  0  0  0
  -30.6534  -21.1607   21.2991 C   0  0  0  0  0  0
  -29.8023  -15.7724   20.7470 N   0  0  0  0  0  0
  -29.5320  -21.0600   20.3159 N   0  3  1  0  0  0
  -31.4786  -12.5683   19.1511 H   0  0  0  0  0  0
  -30.3927  -11.4416   19.9210 H   0  0  0  0  0  0
  -29.7822  -11.7375   17.5009 H   0  0  0  0  0  0
  -29.6383  -13.4644   17.7229 H   0  0  0  0  0  0
  -27.8846  -11.2834   18.8919 H   0  0  0  0  0  0
  -27.3732  -12.5392   17.7983 H   0  0  0  0  0  0
  -27.6549  -14.2480   19.4951 H   0  0  0  0  0  0
  -28.7233  -12.1008   21.3965 H   0  0  0  0  0  0
  -28.4342  -13.7661   21.8234 H   0  0  0  0  0  0
  -25.2739   -9.5694   22.4749 H   0  0  0  0  0  0
  -23.9991   -7.4636   22.7464 H   0  0  0  0  0  0
  -21.0840   -8.8724   19.8932 H   0  0  0  0  0  0
  -22.3657  -10.9644   19.6137 H   0  0  0  0  0  0
  -21.1997   -7.6129   23.9693 H   0  0  0  0  0  0
  -21.1493   -6.0515   25.9063 H   0  0  0  0  0  0
  -22.0601   -2.7592   23.2852 H   0  0  0  0  0  0
  -22.4115  -11.9834   22.4745 H   0  0  0  0  0  0
  -21.1095  -13.1175   22.2635 H   0  0  0  0  0  0
  -24.6660  -15.8474   20.5200 H   0  0  0  0  0  0
  -26.2729  -15.6177   20.0525 H   0  0  0  0  0  0
  -26.7206  -32.5415   23.1121 H   0  0  0  0  0  0
  -25.0028  -33.9716   25.0392 H   0  0  0  0  0  0
  -22.7196  -31.3083   21.4013 H   0  0  0  0  0  0
  -23.3728  -35.9597   23.3319 H   0  0  0  0  0  0
  -24.3546  -36.8890   22.2053 H   0  0  0  0  0  0
  -23.7213  -37.6480   23.6666 H   0  0  0  0  0  0
  -26.1087  -31.5435   20.6122 H   0  0  0  0  0  0
  -26.8482  -30.8245   22.0111 H   0  0  0  0  0  0
  -28.1193  -28.9439   21.1883 H   0  0  0  0  0  0
  -25.9211  -25.9475   18.9641 H   0  0  0  0  0  0
  -23.9628  -27.3376   18.9866 H   0  0  0  0  0  0
  -23.7591  -30.6038   19.4048 H   0  0  0  0  0  0
  -22.7580  -29.2564   19.8527 H   0  0  0  0  0  0
  -25.1256  -36.1903   25.0827 H   0  0  0  0  0  0
  -21.0002  -28.3263   24.1370 H   0  0  0  0  0  0
  -20.5620  -26.2317   23.3612 H   0  0  0  0  0  0
  -21.6622  -26.7396   22.1197 H   0  0  0  0  0  0
  -19.6867  -25.6295   21.1226 H   0  0  0  0  0  0
  -19.6637  -27.3199   20.6739 H   0  0  0  0  0  0
  -17.4164  -26.6706   21.4035 H   0  0  0  0  0  0
  -18.0289  -26.0073   22.9020 H   0  0  0  0  0  0
  -19.7973  -30.7260   24.2248 H   0  0  0  0  0  0
  -17.5060  -31.6270   24.5168 H   0  0  0  0  0  0
  -15.5378  -30.3000   23.7673 H   0  0  0  0  0  0
  -15.8683  -28.0842   22.7074 H   0  0  0  0  0  0
  -24.5921  -30.7057   25.7851 H   0  0  0  0  0  0
  -24.8815  -32.2953   26.4803 H   0  0  0  0  0  0
  -25.7995  -30.9085   27.0340 H   0  0  0  0  0  0
  -26.2958  -29.6759   24.1257 H   0  0  0  0  0  0
  -27.3991  -29.7298   25.4815 H   0  0  0  0  0  0
  -27.8833  -30.4310   23.9549 H   0  0  0  0  0  0
  -27.2677  -33.3703   26.2051 H   0  0  0  0  0  0
  -28.3866  -32.6874   25.0354 H   0  0  0  0  0  0
  -28.0685  -31.8531   26.5489 H   0  0  0  0  0  0
  -28.2575  -38.0062   24.7507 H   0  0  0  0  0  0
  -28.1028  -36.2602   24.6301 H   0  0  0  0  0  0
  -27.2283  -37.1445   25.8879 H   0  0  0  0  0  0
  -20.9394  -29.8834   21.6913 H   0  0  0  0  0  0
  -26.0129  -38.2833   24.1470 H   0  0  0  0  0  0
  -31.0437  -21.5850   23.4021 H   0  0  0  0  0  0
  -29.4801  -20.8523   23.1248 H   0  0  0  0  0  0
  -29.7346  -22.5488   22.7572 H   0  0  0  0  0  0
  -32.6968  -21.8807   21.4294 H   0  0  0  0  0  0
  -31.6184  -23.0680   20.7451 H   0  0  0  0  0  0
  -32.1378  -21.6865   19.7816 H   0  0  0  0  0  0
  -28.7997  -17.8216   19.3505 H   0  0  0  0  0  0
  -30.3243  -18.5940   19.2276 H   0  0  0  0  0  0
  -29.8632  -23.8801   19.4089 H   0  0  0  0  0  0
  -29.6279  -24.0334   21.1289 H   0  0  0  0  0  0
  -29.7279  -17.4768   21.9644 H   0  0  0  0  0  0
  -31.1957  -17.3664   21.0569 H   0  0  0  0  0  0
  -28.4605  -19.5705   21.4684 H   0  0  0  0  0  0
  -27.9274  -19.7859   19.8497 H   0  0  0  0  0  0
  -27.9517  -22.1262   19.3699 H   0  0  0  0  0  0
  -27.8922  -22.1961   21.0969 H   0  0  0  0  0  0
  -27.1841  -24.7105   20.6119 H   0  0  0  0  0  0
  -27.6865  -24.8046   18.9405 H   0  0  0  0  0  0
  -31.0730  -20.1578   21.3936 H   0  0  0  0  0  0
  -28.8428  -15.5181   20.9309 H   0  0  0  0  0  0
  -29.9654  -21.0266   19.4046 H   0  0  0  0  0  0
  1 25  1  0  0  0
  1 30  2  0  0  0
  1 80  1  0  0  0
  2  3  1  0  0  0
  2 25  1  0  0  0
  2 82  1  0  0  0
  2 83  1  0  0  0
  3  4  1  0  0  0
  3 84  1  0  0  0
  3 85  1  0  0  0
  4  5  1  0  0  0
  4 86  1  0  0  0
  4 87  1  0  0  0
  5  6  1  0  0  0
  5 26  1  0  0  0
  5 88  1  0  0  0
  6 25  1  0  0  0
  6 89  1  0  0  0
  6 90  1  0  0  0
  7  8  2  0  0  0
  7 26  1  0  0  0
  7 29  1  0  0  0
  8  9  1  0  0  0
  8 22  1  0  0  0
  9 10  1  0  0  0
  9 27  2  0  0  0
 10 11  2  0  0  0
 10 15  1  0  0  0
 11 12  1  0  0  0
 11 91  1  0  0  0
 12 13  2  0  0  0
 12 92  1  0  0  0
 13 14  1  0  0  0
 13 31  1  0  0  0
 14 15  2  0  0  0
 14 93  1  0  0  0
 15 94  1  0  0  0
 16 17  2  0  0  0
 16 21  1  0  0  0
 16 31  1  0  0  0
 17 18  1  0  0  0
 17 95  1  0  0  0
 18 19  2  0  0  0
 18 96  1  0  0  0
 19 20  1  0  0  0
 19 24  1  0  0  0
 20 21  2  0  0  0
 20 97  1  0  0  0
 21 23  1  0  0  0
 22 28  1  0  0  0
 22 32  2  0  0  0
 26 27  1  0  0  0
 28 98  1  0  0  0
 28 99  1  0  0  0
 29100  1  0  0  0
 29101  1  0  0  0
 33 34  1  0  0  0
 33 66  1  0  0  0
 33 70  2  0  0  0
 34 36  1  0  0  0
 34 59  1  0  0  0
 34102  1  0  0  0
 35 44  2  0  0  0
 35 45  1  0  0  0
 35 68  1  0  0  0
 36 56  1  0  0  0
 36103  1  0  0  0
 37 39  1  0  0  0
 37 47  1  0  0  0
 37 66  1  0  0  0
 37104  1  0  0  0
 38 43  2  0  0  0
 38 46  1  0  0  0
 38 47  1  0  0  0
 39 64  1  0  0  0
 39 67  2  0  0  0
 40 52  1  0  0  0
 40 53  2  0  0  0
 40 58  1  0  0  0
 41105  1  0  0  0
 41106  1  0  0  0
 41107  1  0  0  0
 41 48  1  0  0  0
 42 43  1  0  0  0
 42 66  1  0  0  0
 42108  1  0  0  0
 42109  1  0  0  0
 43 44  1  0  0  0
 44110  1  0  0  0
 45 46  2  0  0  0
 45111  1  0  0  0
 46112  1  0  0  0
 47113  1  0  0  0
 47114  1  0  0  0
 48 56  1  0  0  0
 48 65  1  0  0  0
 48115  1  0  0  0
 49 50  1  0  0  0
 49 53  1  0  0  0
 49 64  1  0  0  0
 49116  1  0  0  0
 50 51  1  0  0  0
 50117  1  0  0  0
 50118  1  0  0  0
 51 52  1  0  0  0
 51119  1  0  0  0
 51120  1  0  0  0
 52121  1  0  0  0
 52122  1  0  0  0
 53 54  1  0  0  0
 54 55  2  0  0  0
 54123  1  0  0  0
 55 57  1  0  0  0
 55124  1  0  0  0
 56 69  2  0  0  0
 57 58  2  0  0  0
 57125  1  0  0  0
 58126  1  0  0  0
 59 60  1  0  0  0
 59 61  1  0  0  0
 59 62  1  0  0  0
 60127  1  0  0  0
 60128  1  0  0  0
 60129  1  0  0  0
 61130  1  0  0  0
 61131  1  0  0  0
 61132  1  0  0  0
 62133  1  0  0  0
 62134  1  0  0  0
 62135  1  0  0  0
 63 65  1  0  0  0
 63136  1  0  0  0
 63137  1  0  0  0
 63138  1  0  0  0
 64139  1  0  0  0
 65140  1  0  0  0
 68 78  1  0  0  0
 71141  1  0  0  0
 71142  1  0  0  0
 71143  1  0  0  0
 71 79  1  0  0  0
 72 79  1  0  0  0
 72144  1  0  0  0
 72145  1  0  0  0
 72146  1  0  0  0
 73 75  1  0  0  0
 73 76  1  0  0  0
 73147  1  0  0  0
 73148  1  0  0  0
 74 77  1  0  0  0
 74 78  1  0  0  0
 74149  1  0  0  0
 74150  1  0  0  0
 75 80  1  0  0  0
 75151  1  0  0  0
 75152  1  0  0  0
 76153  1  0  0  0
 76154  1  0  0  0
 76 81  1  0  0  0
 77 81  1  0  0  0
 77155  1  0  0  0
 77156  1  0  0  0
 78157  1  0  0  0
 78158  1  0  0  0
 79 81  1  0  0  0
 79159  1  0  0  0
 80160  1  0  0  0
 81161  1  0  0  0
M  CHG  1  81   1
M  ISO  4   1 100  68 101  78 101  80 100
M  END
> <chiral flag>
0

> <version>
0

> <s_m_source_file>
/data/baiqing/PycharmProjects/Reinvent-master-3.2/result/LINK_invent/BTK/process_docking_weight1_custom_sum_contain_oxygen_bond_distance_aromatic_linkinvent_7_9_3/rearranged_h_0111.sdf

> <i_m_source_file_index>
79

> <r_mmod_Potential_Energy-OPLS-2005>
54.7153663635254

> <r_mmod_Stretch_Energy-OPLS-2005>
105.381256103516

> <r_mmod_Bend_Energy-OPLS-2005>
172.074768066406

> <r_mmod_Torsional_Energy-OPLS-2005>
241.689224243164

> <r_mmod_Improper_Torsional_Energy-OPLS-2005>
4.27815008163452

> <r_mmod_Van_der_Waal_Energy-OPLS-2005>
129.676818847656

> <r_mmod_Electrostatic_Energy-OPLS-2005>
-212.552673339844

> <r_mmod_Solvation_Energy-OPLS-2005>
-452.226013183594

> <b_mmod_Minimization_Converged-OPLS-2005>
0

> <r_mmod_RMS_Derivative-OPLS-2005>
2.26762247085571

$$$$
79
                    3D
 Structure written by MMmdl.
175184  0  0  1  0            999 V2000
  -30.7166  -14.4424   20.5741 C   0  0  0  0  0  0
  -30.4206  -12.2862   19.4239 C   0  0  0  0  0  0
  -29.4949  -12.4891   18.2074 C   0  0  0  0  0  0
  -28.0136  -12.3657   18.6176 C   0  0  0  0  0  0
  -27.6610  -13.2012   19.8766 C   0  0  2  0  0  0
  -28.7032  -12.9848   20.9978 C   0  0  0  0  0  0
  -25.2596  -13.8145   20.5691 C   0  0  0  0  0  0
  -24.1834  -13.0440   20.9185 C   0  0  0  0  0  0
  -24.6373  -11.6899   20.8737 C   0  0  0  0  0  0
  -23.9036  -10.4288   21.0400 C   0  0  0  0  0  0
  -24.3595   -9.4201   21.9176 C   0  0  0  0  0  0
  -23.6280   -8.2230   22.0742 C   0  0  0  0  0  0
  -22.4264   -8.0264   21.3535 C   0  0  0  0  0  0
  -21.9894   -9.0229   20.4633 C   0  0  0  0  0  0
  -22.7212  -10.2115   20.3044 C   0  0  0  0  0  0
  -21.6849   -6.0726   22.5265 C   0  0  0  0  0  0
  -21.4012   -6.5633   23.8198 C   0  0  0  0  0  0
  -21.3663   -5.6786   24.9161 C   0  0  0  0  0  0
  -21.6050   -4.3051   24.7219 C   0  0  0  0  0  0
  -21.8819   -3.8141   23.4341 C   0  0  0  0  0  0
  -21.9195   -4.6955   22.3395 C   0  0  0  0  0  0
  -22.7857  -13.5239   21.1863 C   0  0  0  0  0  0
  -22.1663   -4.2137   21.0976 F   0  0  0  0  0  0
  -21.5635   -3.4540   25.7738 F   0  0  0  0  0  0
  -30.0365  -13.2729   20.4419 N   0  0  0  0  0  0
  -26.3021  -12.9298   20.3374 N   0  0  0  0  0  0
  -25.9300  -11.6474   20.5771 N   0  0  0  0  0  0
  -22.0500  -12.8209   22.0407 N   0  0  0  0  0  0
  -25.4380  -15.1857   20.4108 N   0  0  0  0  0  0
  -31.8531  -14.6216   20.1258 O   0  0  0  0  0  0
  -21.6636   -6.8858   21.4224 O   0  0  0  0  0  0
  -22.3541  -14.5555   20.6735 O   0  0  0  0  0  0
  -24.6113  -31.8705   23.2123 C   0  0  0  0  0  0
  -25.9014  -32.4833   23.8411 C   0  0  1  0  0  0
  -27.2561  -27.4713   20.0966 C   0  0  0  0  0  0
  -25.5903  -33.8630   24.2354 N   0  0  0  0  0  0
  -23.3986  -30.4894   21.5521 C   0  0  2  0  0  0
  -24.8515  -28.9580   20.1186 C   0  0  0  0  0  0
  -22.7402  -29.4650   22.5031 C   0  0  0  0  0  0
  -18.0261  -28.1365   22.8486 C   0  0  0  0  0  0
  -24.1487  -36.7314   23.2632 C   0  0  0  0  0  0
  -25.9209  -30.8488   21.3579 C   0  0  0  0  0  0
  -26.0052  -29.4821   20.7143 C   0  0  0  0  0  0
  -27.2098  -28.7481   20.7066 C   0  0  0  0  0  0
  -26.0848  -26.9543   19.5087 C   0  0  0  0  0  0
  -24.8835  -27.6889   19.5152 C   0  0  0  0  0  0
  -23.6081  -29.8167   20.1676 C   0  0  0  0  0  0
  -25.4097  -36.3113   24.0351 C   0  0  1  0  0  0
  -20.5851  -28.3637   23.1345 C   0  0  2  0  0  0
  -20.6764  -26.9383   22.5419 C   0  0  0  0  0  0
  -19.5747  -26.6382   21.5203 C   0  0  0  0  0  0
  -18.1915  -26.7920   22.1603 C   0  0  0  0  0  0
  -19.1512  -28.8821   23.2911 C   0  0  0  0  0  0
  -18.9441  -30.1431   23.8908 C   0  0  0  0  0  0
  -17.6446  -30.6571   24.0556 C   0  0  0  0  0  0
  -25.9029  -34.9478   23.5143 C   0  0  0  0  0  0
  -16.5340  -29.9067   23.6316 C   0  0  0  0  0  0
  -16.7257  -28.6490   23.0334 C   0  0  0  0  0  0
  -26.4466  -31.6589   25.0705 C   0  0  0  0  0  0
  -25.3749  -31.3671   26.1459 C   0  0  0  0  0  0
  -27.0283  -30.3050   24.6008 C   0  0  0  0  0  0
  -27.6051  -32.4298   25.7464 C   0  0  0  0  0  0
  -27.5592  -37.1793   24.8454 C   0  0  0  0  0  0
  -21.4133  -29.3016   22.3771 N   0  0  0  0  0  0
  -26.4282  -37.3801   23.9435 N   0  0  0  0  0  0
  -24.6614  -31.0837   22.1005 N   0  0  0  0  0  0
  -23.4184  -28.8196   23.3066 O   0  0  0  0  0  0
  -28.3770  -26.6744   20.0223 O   0  0  0  0  0  0
  -26.5569  -34.8930   22.4685 O   0  0  0  0  0  0
  -23.5316  -32.1437   23.7544 O   0  0  0  0  0  0
  -30.4734  -22.4646   20.7584 C   0  0  0  0  0  0
  -28.3191  -23.5569   20.8301 C   0  0  0  0  0  0
  -29.7059  -23.6087   21.0522 C   0  0  0  0  0  0
  -29.8415  -21.3147   20.2309 C   0  0  0  0  0  0
  -28.4445  -21.3784   20.0351 C   0  0  0  0  0  0
  -29.5685  -17.4908   22.5309 C   0  0  0  0  0  0
  -30.1041  -16.0520   22.3069 C   0  0  0  0  0  0
  -29.4897  -16.4127   19.8872 C   0  0  0  0  0  0
  -30.3771  -18.6291   21.8605 C   0  0  0  0  0  0
  -30.4519  -17.5854   19.6085 C   0  0  0  0  0  0
  -32.1683  -20.1937   19.9597 C   0  0  0  0  0  0
  -26.3737  -20.2837   19.4605 C   0  0  0  0  0  0
  -30.3644  -24.8601   21.6215 C   0  0  0  0  0  0
  -30.6184  -25.9794   20.5865 C   0  0  0  0  0  0
  -29.5872  -27.1228   20.6138 C   0  0  0  0  0  0
  -30.6336  -20.0610   19.8051 C   0  0  1  0  0  0
  -27.7005  -22.4648   20.3397 N   0  0  0  0  0  0
  -29.9669  -15.5069   20.9445 N   0  0  0  0  0  0
  -30.1053  -18.7918   20.4057 N   0  3  2  0  0  0
  -27.7987  -20.2663   19.5334 O   0  0  0  0  0  0
  -31.4658  -12.3765   19.1244 H   0  0  0  0  0  0
  -30.3126  -11.2765   19.8243 H   0  0  0  0  0  0
  -29.7264  -11.7524   17.4373 H   0  0  0  0  0  0
  -29.6753  -13.4673   17.7594 H   0  0  0  0  0  0
  -27.8121  -11.3113   18.8099 H   0  0  0  0  0  0
  -27.3674  -12.6496   17.7858 H   0  0  0  0  0  0
  -27.6989  -14.2470   19.5786 H   0  0  0  0  0  0
  -28.6688  -11.9558   21.3571 H   0  0  0  0  0  0
  -28.4701  -13.6055   21.8632 H   0  0  0  0  0  0
  -25.2730   -9.5685   22.4762 H   0  0  0  0  0  0
  -23.9994   -7.4620   22.7459 H   0  0  0  0  0  0
  -21.0829   -8.8731   19.8935 H   0  0  0  0  0  0
  -22.3654  -10.9652   19.6158 H   0  0  0  0  0  0
  -21.1991   -7.6135   23.9693 H   0  0  0  0  0  0
  -21.1497   -6.0522   25.9063 H   0  0  0  0  0  0
  -22.0600   -2.7605   23.2845 H   0  0  0  0  0  0
  -22.4121  -11.9853   22.4756 H   0  0  0  0  0  0
  -21.1116  -13.1210   22.2639 H   0  0  0  0  0  0
  -24.6822  -15.8524   20.5228 H   0  0  0  0  0  0
  -26.3025  -15.6098   20.1028 H   0  0  0  0  0  0
  -26.7094  -32.5587   23.1200 H   0  0  0  0  0  0
  -25.0121  -33.9809   25.0544 H   0  0  0  0  0  0
  -22.6828  -31.3017   21.4123 H   0  0  0  0  0  0
  -23.3764  -35.9626   23.3252 H   0  0  0  0  0  0
  -24.3614  -36.8960   22.2059 H   0  0  0  0  0  0
  -23.7218  -37.6503   23.6661 H   0  0  0  0  0  0
  -26.0168  -31.6109   20.5836 H   0  0  0  0  0  0
  -26.8154  -30.9187   21.9650 H   0  0  0  0  0  0
  -28.0867  -29.1802   21.1658 H   0  0  0  0  0  0
  -26.1076  -25.9789   19.0424 H   0  0  0  0  0  0
  -23.9982  -27.2740   19.0541 H   0  0  0  0  0  0
  -23.7093  -30.5897   19.4050 H   0  0  0  0  0  0
  -22.7365  -29.2286   19.8754 H   0  0  0  0  0  0
  -25.1259  -36.1975   25.0844 H   0  0  0  0  0  0
  -20.9923  -28.3177   24.1477 H   0  0  0  0  0  0
  -20.5677  -26.2223   23.3583 H   0  0  0  0  0  0
  -21.6632  -26.7440   22.1203 H   0  0  0  0  0  0
  -19.6908  -25.6298   21.1222 H   0  0  0  0  0  0
  -19.6703  -27.3204   20.6742 H   0  0  0  0  0  0
  -17.4194  -26.6678   21.3998 H   0  0  0  0  0  0
  -18.0306  -26.0048   22.8983 H   0  0  0  0  0  0
  -19.7919  -30.7244   24.2290 H   0  0  0  0  0  0
  -17.4997  -31.6255   24.5143 H   0  0  0  0  0  0
  -15.5344  -30.2967   23.7648 H   0  0  0  0  0  0
  -15.8653  -28.0824   22.7029 H   0  0  0  0  0  0
  -24.5931  -30.7004   25.7807 H   0  0  0  0  0  0
  -24.8913  -32.2812   26.4914 H   0  0  0  0  0  0
  -25.8109  -30.8845   27.0212 H   0  0  0  0  0  0
  -26.2793  -29.6836   24.1084 H   0  0  0  0  0  0
  -27.4133  -29.7252   25.4409 H   0  0  0  0  0  0
  -27.8592  -30.4412   23.9079 H   0  0  0  0  0  0
  -27.2682  -33.3610   26.2036 H   0  0  0  0  0  0
  -28.3856  -32.6844   25.0280 H   0  0  0  0  0  0
  -28.0711  -31.8416   26.5384 H   0  0  0  0  0  0
  -28.2540  -38.0157   24.7589 H   0  0  0  0  0  0
  -28.1158  -36.2695   24.6149 H   0  0  0  0  0  0
  -27.2339  -37.1290   25.8860 H   0  0  0  0  0  0
  -20.9295  -29.8729   21.6991 H   0  0  0  0  0  0
  -26.0166  -38.2868   24.1479 H   0  0  0  0  0  0
  -31.5389  -22.4957   20.9294 H   0  0  0  0  0  0
  -27.6859  -24.4025   21.0550 H   0  0  0  0  0  0
  -29.6079  -17.6704   23.6059 H   0  0  0  0  0  0
  -28.5092  -17.5613   22.2823 H   0  0  0  0  0  0
  -29.5813  -15.3786   22.9874 H   0  0  0  0  0  0
  -31.1537  -16.0123   22.6084 H   0  0  0  0  0  0
  -29.3986  -15.8421   18.9597 H   0  0  0  0  0  0
  -28.4750  -16.7530   20.0933 H   0  0  0  0  0  0
  -31.4417  -18.4792   22.0369 H   0  0  0  0  0  0
  -30.1183  -19.5641   22.3584 H   0  0  0  0  0  0
  -30.3626  -17.8267   18.5479 H   0  0  0  0  0  0
  -31.4944  -17.3015   19.7612 H   0  0  0  0  0  0
  -32.5477  -21.0298   19.3718 H   0  0  0  0  0  0
  -32.6911  -19.3071   19.6014 H   0  0  0  0  0  0
  -32.4692  -20.3567   20.9950 H   0  0  0  0  0  0
  -26.0214  -19.3549   19.0119 H   0  0  0  0  0  0
  -26.0036  -21.1068   18.8470 H   0  0  0  0  0  0
  -25.9338  -20.3580   20.4562 H   0  0  0  0  0  0
  -31.3193  -24.5692   22.0634 H   0  0  0  0  0  0
  -29.7689  -25.2361   22.4550 H   0  0  0  0  0  0
  -30.7378  -25.5754   19.5805 H   0  0  0  0  0  0
  -31.5819  -26.4311   20.8272 H   0  0  0  0  0  0
  -29.9633  -27.9769   20.0485 H   0  0  0  0  0  0
  -29.4328  -27.4489   21.6437 H   0  0  0  0  0  0
  -30.4452  -20.0064   18.7314 H   0  0  0  0  0  0
  -29.1040  -18.8791   20.3076 H   0  0  0  0  0  0
  1 25  1  0  0  0
  1 30  2  0  0  0
  1 88  1  0  0  0
  2  3  1  0  0  0
  2 25  1  0  0  0
  2 91  1  0  0  0
  2 92  1  0  0  0
  3  4  1  0  0  0
  3 93  1  0  0  0
  3 94  1  0  0  0
  4  5  1  0  0  0
  4 95  1  0  0  0
  4 96  1  0  0  0
  5  6  1  0  0  0
  5 26  1  0  0  0
  5 97  1  0  0  0
  6 25  1  0  0  0
  6 98  1  0  0  0
  6 99  1  0  0  0
  7  8  2  0  0  0
  7 26  1  0  0  0
  7 29  1  0  0  0
  8  9  1  0  0  0
  8 22  1  0  0  0
  9 10  1  0  0  0
  9 27  2  0  0  0
 10 11  2  0  0  0
 10 15  1  0  0  0
 11 12  1  0  0  0
 11100  1  0  0  0
 12 13  2  0  0  0
 12101  1  0  0  0
 13 14  1  0  0  0
 13 31  1  0  0  0
 14 15  2  0  0  0
 14102  1  0  0  0
 15103  1  0  0  0
 16 17  2  0  0  0
 16 21  1  0  0  0
 16 31  1  0  0  0
 17 18  1  0  0  0
 17104  1  0  0  0
 18 19  2  0  0  0
 18105  1  0  0  0
 19 20  1  0  0  0
 19 24  1  0  0  0
 20 21  2  0  0  0
 20106  1  0  0  0
 21 23  1  0  0  0
 22 28  1  0  0  0
 22 32  2  0  0  0
 26 27  1  0  0  0
 28107  1  0  0  0
 28108  1  0  0  0
 29109  1  0  0  0
 29110  1  0  0  0
 33 34  1  0  0  0
 33 66  1  0  0  0
 33 70  2  0  0  0
 34 36  1  0  0  0
 34 59  1  0  0  0
 34111  1  0  0  0
 35 44  2  0  0  0
 35 45  1  0  0  0
 35 68  1  0  0  0
 36 56  1  0  0  0
 36112  1  0  0  0
 37 39  1  0  0  0
 37 47  1  0  0  0
 37 66  1  0  0  0
 37113  1  0  0  0
 38 43  2  0  0  0
 38 46  1  0  0  0
 38 47  1  0  0  0
 39 64  1  0  0  0
 39 67  2  0  0  0
 40 52  1  0  0  0
 40 53  2  0  0  0
 40 58  1  0  0  0
 41114  1  0  0  0
 41115  1  0  0  0
 41116  1  0  0  0
 41 48  1  0  0  0
 42 43  1  0  0  0
 42 66  1  0  0  0
 42117  1  0  0  0
 42118  1  0  0  0
 43 44  1  0  0  0
 44119  1  0  0  0
 45 46  2  0  0  0
 45120  1  0  0  0
 46121  1  0  0  0
 47122  1  0  0  0
 47123  1  0  0  0
 48 56  1  0  0  0
 48 65  1  0  0  0
 48124  1  0  0  0
 49 50  1  0  0  0
 49 53  1  0  0  0
 49 64  1  0  0  0
 49125  1  0  0  0
 50 51  1  0  0  0
 50126  1  0  0  0
 50127  1  0  0  0
 51 52  1  0  0  0
 51128  1  0  0  0
 51129  1  0  0  0
 52130  1  0  0  0
 52131  1  0  0  0
 53 54  1  0  0  0
 54 55  2  0  0  0
 54132  1  0  0  0
 55 57  1  0  0  0
 55133  1  0  0  0
 56 69  2  0  0  0
 57 58  2  0  0  0
 57134  1  0  0  0
 58135  1  0  0  0
 59 60  1  0  0  0
 59 61  1  0  0  0
 59 62  1  0  0  0
 60136  1  0  0  0
 60137  1  0  0  0
 60138  1  0  0  0
 61139  1  0  0  0
 61140  1  0  0  0
 61141  1  0  0  0
 62142  1  0  0  0
 62143  1  0  0  0
 62144  1  0  0  0
 63 65  1  0  0  0
 63145  1  0  0  0
 63146  1  0  0  0
 63147  1  0  0  0
 64148  1  0  0  0
 65149  1  0  0  0
 68 85  1  0  0  0
 71 73  2  0  0  0
 71 74  1  0  0  0
 71150  1  0  0  0
 72 73  1  0  0  0
 72 87  2  0  0  0
 72151  1  0  0  0
 73 83  1  0  0  0
 74 75  2  0  0  0
 74 86  1  0  0  0
 75 87  1  0  0  0
 75 90  1  0  0  0
 76 77  1  0  0  0
 76 79  1  0  0  0
 76152  1  0  0  0
 76153  1  0  0  0
 77 88  1  0  0  0
 77154  1  0  0  0
 77155  1  0  0  0
 78 80  1  0  0  0
 78 88  1  0  0  0
 78156  1  0  0  0
 78157  1  0  0  0
 79158  1  0  0  0
 79159  1  0  0  0
 79 89  1  0  0  0
 80 89  1  0  0  0
 80160  1  0  0  0
 80161  1  0  0  0
 81162  1  0  0  0
 81163  1  0  0  0
 81164  1  0  0  0
 81 86  1  0  0  0
 82 90  1  0  0  0
 82165  1  0  0  0
 82166  1  0  0  0
 82167  1  0  0  0
 83 84  1  0  0  0
 83168  1  0  0  0
 83169  1  0  0  0
 84 85  1  0  0  0
 84170  1  0  0  0
 84171  1  0  0  0
 85172  1  0  0  0
 85173  1  0  0  0
 86 89  1  0  0  0
 86174  1  0  0  0
 89175  1  0  0  0
M  CHG  1  89   1
M  ISO  4   1 100  68 101  85 101  88 100
M  END
> <chiral flag>
0

> <version>
0

> <s_m_source_file>
/data/baiqing/PycharmProjects/Reinvent-master-3.2/result/LINK_invent/BTK/process_docking_weight1_custom_sum_contain_oxygen_bond_distance_aromatic_linkinvent_7_9_3/rearranged_h_0111.sdf

> <i_m_source_file_index>
80

> <r_mmod_Potential_Energy-OPLS-2005>
-50.6739273071289

> <r_mmod_Stretch_Energy-OPLS-2005>
39.2681541442871

> <r_mmod_Bend_Energy-OPLS-2005>
119.863815307617

> <r_mmod_Torsional_Energy-OPLS-2005>
362.681610107422

> <r_mmod_Improper_Torsional_Energy-OPLS-2005>
9.0000467300415

> <r_mmod_Van_der_Waal_Energy-OPLS-2005>
164.352401733398

> <r_mmod_Electrostatic_Energy-OPLS-2005>
-360.174560546875

> <r_mmod_Solvation_Energy-OPLS-2005>
-395.623657226562

> <b_mmod_Minimization_Converged-OPLS-2005>
0

> <r_mmod_RMS_Derivative-OPLS-2005>
1.78732299804688

$$$$
80
                    3D
 Structure written by MMmdl.
172180  0  0  1  0            999 V2000
  -30.6623  -14.7576   20.4539 C   0  0  0  0  0  0
  -30.4280  -12.4745   19.4779 C   0  0  0  0  0  0
  -29.5145  -12.5367   18.2340 C   0  0  0  0  0  0
  -28.0408  -12.3595   18.6380 C   0  0  0  0  0  0
  -27.6413  -13.2523   19.8442 C   0  0  2  0  0  0
  -28.6888  -13.2349   20.9808 C   0  0  0  0  0  0
  -25.2525  -13.8246   20.5658 C   0  0  0  0  0  0
  -24.1903  -13.0483   20.9302 C   0  0  0  0  0  0
  -24.6533  -11.6970   20.8875 C   0  0  0  0  0  0
  -23.9211  -10.4342   21.0463 C   0  0  0  0  0  0
  -24.3772   -9.4247   21.9217 C   0  0  0  0  0  0
  -23.6432   -8.2288   22.0765 C   0  0  0  0  0  0
  -22.4400   -8.0331   21.3565 C   0  0  0  0  0  0
  -22.0056   -9.0327   20.4671 C   0  0  0  0  0  0
  -22.7405  -10.2167   20.3077 C   0  0  0  0  0  0
  -21.6895   -6.0804   22.5324 C   0  0  0  0  0  0
  -21.4003   -6.5706   23.8257 C   0  0  0  0  0  0
  -21.3607   -5.6840   24.9207 C   0  0  0  0  0  0
  -21.5988   -4.3098   24.7254 C   0  0  0  0  0  0
  -21.8783   -3.8200   23.4362 C   0  0  0  0  0  0
  -21.9211   -4.7028   22.3424 C   0  0  0  0  0  0
  -22.7869  -13.5157   21.1916 C   0  0  0  0  0  0
  -22.1649   -4.2196   21.0996 F   0  0  0  0  0  0
  -21.5638   -3.4604   25.7770 F   0  0  0  0  0  0
  -29.9910  -13.5568   20.3921 N   0  0  0  0  0  0
  -26.2990  -12.9483   20.3283 N   0  0  0  0  0  0
  -25.9478  -11.6624   20.5898 N   0  0  0  0  0  0
  -22.0544  -12.8092   22.0460 N   0  0  0  0  0  0
  -25.4162  -15.1971   20.3868 N   0  0  0  0  0  0
  -31.8613  -14.7890   20.1790 O   0  0  0  0  0  0
  -21.6687   -6.8982   21.4289 O   0  0  0  0  0  0
  -22.3486  -14.5389   20.6683 O   0  0  0  0  0  0
  -24.6349  -31.8490   23.1946 C   0  0  0  0  0  0
  -25.9128  -32.4713   23.8286 C   0  0  1  0  0  0
  -27.2361  -27.2127   20.1745 C   0  0  0  0  0  0
  -25.5895  -33.8515   24.2201 N   0  0  0  0  0  0
  -23.4332  -30.4715   21.5356 C   0  0  2  0  0  0
  -24.8910  -28.9043   20.1175 C   0  0  0  0  0  0
  -22.7498  -29.4571   22.4835 C   0  0  0  0  0  0
  -18.0314  -28.1342   22.8512 C   0  0  0  0  0  0
  -24.1500  -36.7285   23.2641 C   0  0  0  0  0  0
  -25.9841  -30.7586   21.3755 C   0  0  0  0  0  0
  -26.0647  -29.3730   20.7231 C   0  0  0  0  0  0
  -27.2454  -28.5482   20.7245 C   0  0  0  0  0  0
  -26.0420  -26.8181   19.5356 C   0  0  0  0  0  0
  -24.8902  -27.6352   19.5077 C   0  0  0  0  0  0
  -23.6573  -29.7946   20.1565 C   0  0  0  0  0  0
  -25.4121  -36.3027   24.0314 C   0  0  1  0  0  0
  -20.5923  -28.3665   23.1251 C   0  0  2  0  0  0
  -20.6799  -26.9364   22.5410 C   0  0  0  0  0  0
  -19.5750  -26.6350   21.5224 C   0  0  0  0  0  0
  -18.1937  -26.7891   22.1644 C   0  0  0  0  0  0
  -19.1571  -28.8819   23.2889 C   0  0  0  0  0  0
  -18.9482  -30.1435   23.8901 C   0  0  0  0  0  0
  -17.6477  -30.6565   24.0549 C   0  0  0  0  0  0
  -25.9062  -34.9408   23.5066 C   0  0  0  0  0  0
  -16.5370  -29.9059   23.6322 C   0  0  0  0  0  0
  -16.7303  -28.6457   23.0379 C   0  0  0  0  0  0
  -26.4524  -31.6554   25.0682 C   0  0  0  0  0  0
  -25.3765  -31.3720   26.1404 C   0  0  0  0  0  0
  -27.0373  -30.2939   24.6217 C   0  0  0  0  0  0
  -27.5996  -32.4358   25.7510 C   0  0  0  0  0  0
  -27.5585  -37.1790   24.8458 C   0  0  0  0  0  0
  -21.4195  -29.3037   22.3625 N   0  0  0  0  0  0
  -26.4305  -37.3735   23.9390 N   0  0  0  0  0  0
  -24.7020  -31.0438   22.0887 N   0  0  0  0  0  0
  -23.4192  -28.8112   23.2939 O   0  0  0  0  0  0
  -28.3276  -26.2955   20.1817 O   0  0  0  0  0  0
  -26.5657  -34.8915   22.4651 O   0  0  0  0  0  0
  -23.5486  -32.1267   23.7259 O   0  0  0  0  0  0
  -29.1830  -21.1033   22.0586 C   0  0  0  0  0  0
  -29.0704  -22.4419   21.6025 C   0  0  0  0  0  0
  -29.2465  -21.0368   23.5859 C   0  0  0  0  0  0
  -30.2207  -19.9484   23.9888 C   0  0  0  0  0  0
  -30.4108  -19.1362   22.7287 C   0  0  0  0  0  0
  -29.3031  -19.5050   21.6876 C   0  0  2  0  0  0
  -27.9275  -17.5760   22.9751 C   0  0  0  0  0  0
  -26.6512  -19.5411   22.0294 C   0  0  0  0  0  0
  -27.8274  -22.7697   19.4305 C   0  0  0  0  0  0
  -30.1505  -23.7036   19.6409 C   0  0  0  0  0  0
  -29.9178  -18.8324   20.3717 C   0  0  0  0  0  0
  -30.6211  -17.3361   20.3973 C   0  0  0  0  0  0
  -28.2240  -24.9348   20.8692 C   0  0  0  0  0  0
  -27.9376  -18.7026   21.9112 C   0  0  0  0  0  0
  -28.8200  -23.4493   20.3793 C   0  0  0  0  0  0
  -29.9724  -15.9594   20.5967 N   0  0  0  0  0  0
  -31.4767  -12.5752   19.1862 H   0  0  0  0  0  0
  -30.3635  -11.5046   19.9741 H   0  0  0  0  0  0
  -29.7933  -11.7777   17.5023 H   0  0  0  0  0  0
  -29.6326  -13.5018   17.7354 H   0  0  0  0  0  0
  -27.8834  -11.3099   18.8807 H   0  0  0  0  0  0
  -27.4018  -12.5690   17.7779 H   0  0  0  0  0  0
  -27.6207  -14.2707   19.4612 H   0  0  0  0  0  0
  -28.7159  -12.2666   21.4809 H   0  0  0  0  0  0
  -28.4284  -13.9737   21.7408 H   0  0  0  0  0  0
  -25.2944   -9.5752   22.4749 H   0  0  0  0  0  0
  -24.0191   -7.4639   22.7433 H   0  0  0  0  0  0
  -21.0992   -8.8866   19.8950 H   0  0  0  0  0  0
  -22.3926  -10.9722   19.6169 H   0  0  0  0  0  0
  -21.1945   -7.6205   23.9806 H   0  0  0  0  0  0
  -21.1419   -6.0542   25.9123 H   0  0  0  0  0  0
  -22.0563   -2.7666   23.2871 H   0  0  0  0  0  0
  -22.4328  -11.9846   22.4925 H   0  0  0  0  0  0
  -21.1025  -13.0796   22.2469 H   0  0  0  0  0  0
  -24.6310  -15.8348   20.4493 H   0  0  0  0  0  0
  -26.2337  -15.6243   19.9721 H   0  0  0  0  0  0
  -26.7194  -32.5393   23.1026 H   0  0  0  0  0  0
  -24.9936  -33.9644   25.0266 H   0  0  0  0  0  0
  -22.7267  -31.2913   21.3826 H   0  0  0  0  0  0
  -23.3750  -35.9641   23.3264 H   0  0  0  0  0  0
  -24.3600  -36.8957   22.2073 H   0  0  0  0  0  0
  -23.7298  -37.6477   23.6725 H   0  0  0  0  0  0
  -26.1295  -31.5232   20.6081 H   0  0  0  0  0  0
  -26.8520  -30.8081   22.0188 H   0  0  0  0  0  0
  -28.1525  -28.9176   21.1859 H   0  0  0  0  0  0
  -25.9936  -25.8408   19.0680 H   0  0  0  0  0  0
  -23.9939  -27.2732   19.0200 H   0  0  0  0  0  0
  -23.7735  -30.5667   19.3924 H   0  0  0  0  0  0
  -22.7762  -29.2221   19.8580 H   0  0  0  0  0  0
  -25.1337  -36.1834   25.0821 H   0  0  0  0  0  0
  -21.0067  -28.3251   24.1349 H   0  0  0  0  0  0
  -20.5656  -26.2268   23.3610 H   0  0  0  0  0  0
  -21.6667  -26.7346   22.1218 H   0  0  0  0  0  0
  -19.6890  -25.6260   21.1234 H   0  0  0  0  0  0
  -19.6692  -27.3183   20.6757 H   0  0  0  0  0  0
  -17.4207  -26.6665   21.4051 H   0  0  0  0  0  0
  -18.0336  -26.0022   22.9021 H   0  0  0  0  0  0
  -19.7966  -30.7252   24.2259 H   0  0  0  0  0  0
  -17.5033  -31.6249   24.5131 H   0  0  0  0  0  0
  -15.5364  -30.2953   23.7641 H   0  0  0  0  0  0
  -15.8707  -28.0755   22.7118 H   0  0  0  0  0  0
  -24.5959  -30.7049   25.7734 H   0  0  0  0  0  0
  -24.8987  -32.2914   26.4801 H   0  0  0  0  0  0
  -25.8117  -30.8926   27.0178 H   0  0  0  0  0  0
  -26.2963  -29.6626   24.1288 H   0  0  0  0  0  0
  -27.4009  -29.7282   25.4801 H   0  0  0  0  0  0
  -27.8876  -30.4113   23.9495 H   0  0  0  0  0  0
  -27.2476  -33.3614   26.2077 H   0  0  0  0  0  0
  -28.3831  -32.6973   25.0396 H   0  0  0  0  0  0
  -28.0614  -31.8508   26.5465 H   0  0  0  0  0  0
  -28.2578  -38.0094   24.7479 H   0  0  0  0  0  0
  -28.1104  -36.2625   24.6331 H   0  0  0  0  0  0
  -27.2292  -37.1486   25.8852 H   0  0  0  0  0  0
  -20.9330  -29.8780   21.6878 H   0  0  0  0  0  0
  -26.0150  -38.2807   24.1362 H   0  0  0  0  0  0
  -29.0933  -23.1148   22.4427 H   0  0  0  0  0  0
  -28.2556  -20.7508   23.9298 H   0  0  0  0  0  0
  -29.4803  -21.9684   24.0992 H   0  0  0  0  0  0
  -29.8209  -19.3330   24.7941 H   0  0  0  0  0  0
  -31.1732  -20.3556   24.3335 H   0  0  0  0  0  0
  -30.5065  -18.0784   22.9598 H   0  0  0  0  0  0
  -31.3871  -19.4340   22.3354 H   0  0  0  0  0  0
  -28.6822  -16.8128   22.7875 H   0  0  0  0  0  0
  -26.9793  -17.0400   22.9537 H   0  0  0  0  0  0
  -28.0606  -17.9442   23.9927 H   0  0  0  0  0  0
  -26.6325  -20.3731   21.3246 H   0  0  0  0  0  0
  -26.4881  -19.9193   23.0392 H   0  0  0  0  0  0
  -25.7883  -18.9171   21.7904 H   0  0  0  0  0  0
  -27.4860  -23.4647   18.6613 H   0  0  0  0  0  0
  -26.9580  -22.4156   19.9861 H   0  0  0  0  0  0
  -28.2792  -21.9015   18.9413 H   0  0  0  0  0  0
  -30.6960  -22.7736   19.4639 H   0  0  0  0  0  0
  -30.8004  -24.3821   20.1993 H   0  0  0  0  0  0
  -29.9778  -24.1590   18.6628 H   0  0  0  0  0  0
  -30.7188  -19.5057   20.0648 H   0  0  0  0  0  0
  -29.1979  -18.9108   19.5543 H   0  0  0  0  0  0
  -31.0861  -17.2569   19.4155 H   0  0  0  0  0  0
  -31.4774  -17.3551   21.0718 H   0  0  0  0  0  0
  -28.7569  -25.1448   21.7996 H   0  0  0  0  0  0
  -27.1896  -24.7897   21.1826 H   0  0  0  0  0  0
  -27.7460  -18.1421   20.9920 H   0  0  0  0  0  0
  -28.9826  -15.9159   20.7947 H   0  0  0  0  0  0
  1 25  1  0  0  0
  1 30  2  0  0  0
  1 86  1  0  0  0
  2  3  1  0  0  0
  2 25  1  0  0  0
  2 87  1  0  0  0
  2 88  1  0  0  0
  3  4  1  0  0  0
  3 89  1  0  0  0
  3 90  1  0  0  0
  4  5  1  0  0  0
  4 91  1  0  0  0
  4 92  1  0  0  0
  5  6  1  0  0  0
  5 26  1  0  0  0
  5 93  1  0  0  0
  6 25  1  0  0  0
  6 94  1  0  0  0
  6 95  1  0  0  0
  7  8  2  0  0  0
  7 26  1  0  0  0
  7 29  1  0  0  0
  8  9  1  0  0  0
  8 22  1  0  0  0
  9 10  1  0  0  0
  9 27  2  0  0  0
 10 11  2  0  0  0
 10 15  1  0  0  0
 11 12  1  0  0  0
 11 96  1  0  0  0
 12 13  2  0  0  0
 12 97  1  0  0  0
 13 14  1  0  0  0
 13 31  1  0  0  0
 14 15  2  0  0  0
 14 98  1  0  0  0
 15 99  1  0  0  0
 16 17  2  0  0  0
 16 21  1  0  0  0
 16 31  1  0  0  0
 17 18  1  0  0  0
 17100  1  0  0  0
 18 19  2  0  0  0
 18101  1  0  0  0
 19 20  1  0  0  0
 19 24  1  0  0  0
 20 21  2  0  0  0
 20102  1  0  0  0
 21 23  1  0  0  0
 22 28  1  0  0  0
 22 32  2  0  0  0
 26 27  1  0  0  0
 28103  1  0  0  0
 28104  1  0  0  0
 29105  1  0  0  0
 29106  1  0  0  0
 33 34  1  0  0  0
 33 66  1  0  0  0
 33 70  2  0  0  0
 34 36  1  0  0  0
 34 59  1  0  0  0
 34107  1  0  0  0
 35 44  2  0  0  0
 35 45  1  0  0  0
 35 68  1  0  0  0
 36 56  1  0  0  0
 36108  1  0  0  0
 37 39  1  0  0  0
 37 47  1  0  0  0
 37 66  1  0  0  0
 37109  1  0  0  0
 38 43  2  0  0  0
 38 46  1  0  0  0
 38 47  1  0  0  0
 39 64  1  0  0  0
 39 67  2  0  0  0
 40 52  1  0  0  0
 40 53  2  0  0  0
 40 58  1  0  0  0
 41110  1  0  0  0
 41111  1  0  0  0
 41112  1  0  0  0
 41 48  1  0  0  0
 42 43  1  0  0  0
 42 66  1  0  0  0
 42113  1  0  0  0
 42114  1  0  0  0
 43 44  1  0  0  0
 44115  1  0  0  0
 45 46  2  0  0  0
 45116  1  0  0  0
 46117  1  0  0  0
 47118  1  0  0  0
 47119  1  0  0  0
 48 56  1  0  0  0
 48 65  1  0  0  0
 48120  1  0  0  0
 49 50  1  0  0  0
 49 53  1  0  0  0
 49 64  1  0  0  0
 49121  1  0  0  0
 50 51  1  0  0  0
 50122  1  0  0  0
 50123  1  0  0  0
 51 52  1  0  0  0
 51124  1  0  0  0
 51125  1  0  0  0
 52126  1  0  0  0
 52127  1  0  0  0
 53 54  1  0  0  0
 54 55  2  0  0  0
 54128  1  0  0  0
 55 57  1  0  0  0
 55129  1  0  0  0
 56 69  2  0  0  0
 57 58  2  0  0  0
 57130  1  0  0  0
 58131  1  0  0  0
 59 60  1  0  0  0
 59 61  1  0  0  0
 59 62  1  0  0  0
 60132  1  0  0  0
 60133  1  0  0  0
 60134  1  0  0  0
 61135  1  0  0  0
 61136  1  0  0  0
 61137  1  0  0  0
 62138  1  0  0  0
 62139  1  0  0  0
 62140  1  0  0  0
 63 65  1  0  0  0
 63141  1  0  0  0
 63142  1  0  0  0
 63143  1  0  0  0
 64144  1  0  0  0
 65145  1  0  0  0
 68 83  1  0  0  0
 71 72  2  0  0  0
 71 73  1  0  0  0
 71 76  1  0  0  0
 72 85  1  0  0  0
 72146  1  0  0  0
 73 74  1  0  0  0
 73147  1  0  0  0
 73148  1  0  0  0
 74 75  1  0  0  0
 74149  1  0  0  0
 74150  1  0  0  0
 75 76  1  0  0  0
 75151  1  0  0  0
 75152  1  0  0  0
 76 81  1  0  0  0
 76 84  1  0  0  0
 77153  1  0  0  0
 77154  1  0  0  0
 77155  1  0  0  0
 77 84  1  0  0  0
 78 84  1  0  0  0
 78156  1  0  0  0
 78157  1  0  0  0
 78158  1  0  0  0
 79159  1  0  0  0
 79160  1  0  0  0
 79161  1  0  0  0
 79 85  1  0  0  0
 80 85  1  0  0  0
 80162  1  0  0  0
 80163  1  0  0  0
 80164  1  0  0  0
 81 82  1  0  0  0
 81165  1  0  0  0
 81166  1  0  0  0
 82 86  1  0  0  0
 82167  1  0  0  0
 82168  1  0  0  0
 83 85  1  0  0  0
 83169  1  0  0  0
 83170  1  0  0  0
 84171  1  0  0  0
 86172  1  0  0  0
M  ISO  4   1 100  68 101  83 101  86 100
M  END
> <chiral flag>
0

> <version>
0

> <s_m_source_file>
/data/baiqing/PycharmProjects/Reinvent-master-3.2/result/LINK_invent/BTK/process_docking_weight1_custom_sum_contain_oxygen_bond_distance_aromatic_linkinvent_7_9_3/rearranged_h_0111.sdf

> <i_m_source_file_index>
81

> <r_mmod_Potential_Energy-OPLS-2005>
608.65869140625

> <r_mmod_Stretch_Energy-OPLS-2005>
191.038528442383

> <r_mmod_Bend_Energy-OPLS-2005>
439.846374511719

> <r_mmod_Torsional_Energy-OPLS-2005>
311.420013427734

> <r_mmod_Improper_Torsional_Energy-OPLS-2005>
5.47000312805176

> <r_mmod_Van_der_Waal_Energy-OPLS-2005>
127.052261352539

> <r_mmod_Electrostatic_Energy-OPLS-2005>
-386.773498535156

> <r_mmod_Solvation_Energy-OPLS-2005>
-183.803207397461

> <b_mmod_Minimization_Converged-OPLS-2005>
0

> <r_mmod_RMS_Derivative-OPLS-2005>
7.21702909469604

$$$$
81
                    3D
 Structure written by MMmdl.
173181  0  0  1  0            999 V2000
  -30.5884  -14.7162   20.4824 C   0  0  0  0  0  0
  -30.4392  -12.4345   19.4666 C   0  0  0  0  0  0
  -29.5131  -12.5162   18.2302 C   0  0  0  0  0  0
  -28.0370  -12.3456   18.6415 C   0  0  0  0  0  0
  -27.6546  -13.2177   19.8656 C   0  0  2  0  0  0
  -28.7003  -13.1034   21.0008 C   0  0  0  0  0  0
  -25.2614  -13.8181   20.5680 C   0  0  0  0  0  0
  -24.1883  -13.0461   20.9271 C   0  0  0  0  0  0
  -24.6424  -11.6926   20.8794 C   0  0  0  0  0  0
  -23.9057  -10.4323   21.0440 C   0  0  0  0  0  0
  -24.3604   -9.4224   21.9210 C   0  0  0  0  0  0
  -23.6286   -8.2254   22.0764 C   0  0  0  0  0  0
  -22.4273   -8.0300   21.3549 C   0  0  0  0  0  0
  -21.9907   -9.0283   20.4652 C   0  0  0  0  0  0
  -22.7232  -10.2173   20.3075 C   0  0  0  0  0  0
  -21.6842   -6.0751   22.5267 C   0  0  0  0  0  0
  -21.4023   -6.5657   23.8202 C   0  0  0  0  0  0
  -21.3647   -5.6805   24.9162 C   0  0  0  0  0  0
  -21.6040   -4.3070   24.7201 C   0  0  0  0  0  0
  -21.8819   -3.8164   23.4321 C   0  0  0  0  0  0
  -21.9190   -4.6983   22.3392 C   0  0  0  0  0  0
  -22.7907  -13.5284   21.1846 C   0  0  0  0  0  0
  -22.1654   -4.2179   21.0961 F   0  0  0  0  0  0
  -21.5598   -3.4546   25.7707 F   0  0  0  0  0  0
  -30.0043  -13.4705   20.4324 N   0  0  0  0  0  0
  -26.3003  -12.9330   20.3308 N   0  0  0  0  0  0
  -25.9345  -11.6499   20.5768 N   0  0  0  0  0  0
  -22.0499  -12.8302   22.0354 N   0  0  0  0  0  0
  -25.4377  -15.1881   20.3871 N   0  0  0  0  0  0
  -31.7428  -14.8753   20.0746 O   0  0  0  0  0  0
  -21.6631   -6.8902   21.4233 O   0  0  0  0  0  0
  -22.3657  -14.5599   20.6655 O   0  0  0  0  0  0
  -24.6316  -31.8555   23.1997 C   0  0  0  0  0  0
  -25.9135  -32.4763   23.8342 C   0  0  1  0  0  0
  -27.2154  -27.2542   20.1335 C   0  0  0  0  0  0
  -25.5944  -33.8574   24.2263 N   0  0  0  0  0  0
  -23.4297  -30.4784   21.5380 C   0  0  2  0  0  0
  -24.8823  -28.9333   20.1022 C   0  0  0  0  0  0
  -22.7508  -29.4568   22.4864 C   0  0  0  0  0  0
  -18.0286  -28.1372   22.8478 C   0  0  0  0  0  0
  -24.1481  -36.7291   23.2638 C   0  0  0  0  0  0
  -25.9784  -30.7648   21.3848 C   0  0  0  0  0  0
  -26.0499  -29.3882   20.7240 C   0  0  0  0  0  0
  -27.2203  -28.5602   20.7334 C   0  0  0  0  0  0
  -26.0300  -26.8848   19.4564 C   0  0  0  0  0  0
  -24.8774  -27.6902   19.4544 C   0  0  0  0  0  0
  -23.6561  -29.8217   20.1503 C   0  0  0  0  0  0
  -25.4109  -36.3090   24.0316 C   0  0  1  0  0  0
  -20.5891  -28.3677   23.1278 C   0  0  2  0  0  0
  -20.6756  -26.9385   22.5407 C   0  0  0  0  0  0
  -19.5753  -26.6362   21.5188 C   0  0  0  0  0  0
  -18.1932  -26.7920   22.1608 C   0  0  0  0  0  0
  -19.1538  -28.8847   23.2887 C   0  0  0  0  0  0
  -18.9462  -30.1443   23.8907 C   0  0  0  0  0  0
  -17.6468  -30.6585   24.0552 C   0  0  0  0  0  0
  -25.9047  -34.9456   23.5082 C   0  0  0  0  0  0
  -16.5351  -29.9066   23.6332 C   0  0  0  0  0  0
  -16.7272  -28.6490   23.0353 C   0  0  0  0  0  0
  -26.4500  -31.6606   25.0745 C   0  0  0  0  0  0
  -25.3721  -31.3714   26.1453 C   0  0  0  0  0  0
  -27.0311  -30.3015   24.6245 C   0  0  0  0  0  0
  -27.6077  -32.4330   25.7509 C   0  0  0  0  0  0
  -27.5572  -37.1816   24.8462 C   0  0  0  0  0  0
  -21.4197  -29.3057   22.3684 N   0  0  0  0  0  0
  -26.4286  -37.3790   23.9405 N   0  0  0  0  0  0
  -24.6974  -31.0505   22.0974 N   0  0  0  0  0  0
  -23.4209  -28.8080   23.2920 O   0  0  0  0  0  0
  -28.2855  -26.3292   20.2266 O   0  0  0  0  0  0
  -26.5598  -34.8938   22.4654 O   0  0  0  0  0  0
  -23.5456  -32.1403   23.7284 O   0  0  0  0  0  0
  -31.2660  -19.4953   20.9842 C   0  0  0  0  0  0
  -31.1690  -17.9969   20.4900 C   0  0  0  0  0  0
  -30.5044  -20.6583   20.2517 C   0  0  0  0  0  0
  -28.3984  -19.6135   20.3195 C   0  0  0  0  0  0
  -29.7750  -17.2829   20.4323 C   0  0  2  0  0  0
  -28.7088  -18.2524   21.1202 C   0  0  2  0  0  0
  -28.7966  -23.7229   22.1600 C   0  0  0  0  0  0
  -27.4000  -17.6720   24.0412 C   0  0  0  0  0  0
  -25.2692  -17.9849   22.7229 C   0  0  0  0  0  0
  -28.4810  -22.1392   20.1303 C   0  0  0  0  0  0
  -27.9962  -24.8623   20.0121 C   0  0  0  0  0  0
  -28.8735  -23.6410   20.6247 C   0  0  1  0  0  0
  -26.7926  -18.1932   22.7230 C   0  0  0  0  0  0
  -29.1157  -20.8717   20.7045 N   0  0  0  0  0  0
  -29.7607  -15.7833   20.7971 N   0  0  0  0  0  0
  -27.4471  -17.5766   21.5349 N   0  3  0  0  0  0
  -31.4787  -12.5625   19.1614 H   0  0  0  0  0  0
  -30.3812  -11.4437   19.9195 H   0  0  0  0  0  0
  -29.7892  -11.7539   17.5008 H   0  0  0  0  0  0
  -29.6532  -13.4756   17.7292 H   0  0  0  0  0  0
  -27.8824  -11.2919   18.8734 H   0  0  0  0  0  0
  -27.3770  -12.5687   17.8031 H   0  0  0  0  0  0
  -27.6649  -14.2496   19.5177 H   0  0  0  0  0  0
  -28.7362  -12.0874   21.3959 H   0  0  0  0  0  0
  -28.4427  -13.7399   21.8472 H   0  0  0  0  0  0
  -25.2756   -9.5686   22.4766 H   0  0  0  0  0  0
  -24.0001   -7.4646   22.7480 H   0  0  0  0  0  0
  -21.0826   -8.8807   19.8960 H   0  0  0  0  0  0
  -22.3708  -10.9708   19.6173 H   0  0  0  0  0  0
  -21.2048   -7.6172   23.9712 H   0  0  0  0  0  0
  -21.1450   -6.0536   25.9064 H   0  0  0  0  0  0
  -22.0619   -2.7623   23.2796 H   0  0  0  0  0  0
  -22.4105  -12.0012   22.4815 H   0  0  0  0  0  0
  -21.1105  -13.1342   22.2507 H   0  0  0  0  0  0
  -24.5367  -15.6525   20.3477 H   0  0  0  0  0  0
  -25.9676  -15.3787   19.5453 H   0  0  0  0  0  0
  -26.7203  -32.5418   23.1091 H   0  0  0  0  0  0
  -25.0137  -33.9697   25.0438 H   0  0  0  0  0  0
  -22.7225  -31.2972   21.3887 H   0  0  0  0  0  0
  -23.3755  -35.9613   23.3292 H   0  0  0  0  0  0
  -24.3577  -36.8927   22.2058 H   0  0  0  0  0  0
  -23.7218  -37.6488   23.6654 H   0  0  0  0  0  0
  -26.1213  -31.5254   20.6156 H   0  0  0  0  0  0
  -26.8543  -30.8111   22.0199 H   0  0  0  0  0  0
  -28.1070  -28.8973   21.2526 H   0  0  0  0  0  0
  -25.9573  -25.9448   18.9304 H   0  0  0  0  0  0
  -23.9914  -27.3459   18.9419 H   0  0  0  0  0  0
  -23.7925  -30.6024   19.3994 H   0  0  0  0  0  0
  -22.7758  -29.2575   19.8371 H   0  0  0  0  0  0
  -25.1310  -36.1927   25.0805 H   0  0  0  0  0  0
  -20.9980  -28.3213   24.1397 H   0  0  0  0  0  0
  -20.5559  -26.2281   23.3605 H   0  0  0  0  0  0
  -21.6636  -26.7339   22.1265 H   0  0  0  0  0  0
  -19.6885  -25.6266   21.1227 H   0  0  0  0  0  0
  -19.6700  -27.3166   20.6706 H   0  0  0  0  0  0
  -17.4187  -26.6655   21.4014 H   0  0  0  0  0  0
  -18.0333  -26.0059   22.9011 H   0  0  0  0  0  0
  -19.7933  -30.7260   24.2277 H   0  0  0  0  0  0
  -17.5011  -31.6269   24.5139 H   0  0  0  0  0  0
  -15.5355  -30.2972   23.7656 H   0  0  0  0  0  0
  -15.8669  -28.0805   22.7069 H   0  0  0  0  0  0
  -24.5959  -30.6995   25.7763 H   0  0  0  0  0  0
  -24.8841  -32.2852   26.4857 H   0  0  0  0  0  0
  -25.8075  -30.8920   27.0231 H   0  0  0  0  0  0
  -26.2856  -29.6800   24.1280 H   0  0  0  0  0  0
  -27.3954  -29.7277   25.4774 H   0  0  0  0  0  0
  -27.8774  -30.4263   23.9494 H   0  0  0  0  0  0
  -27.2722  -33.3655   26.2066 H   0  0  0  0  0  0
  -28.3918  -32.6857   25.0351 H   0  0  0  0  0  0
  -28.0714  -31.8455   26.5452 H   0  0  0  0  0  0
  -28.2598  -38.0108   24.7546 H   0  0  0  0  0  0
  -28.1061  -36.2656   24.6251 H   0  0  0  0  0  0
  -27.2292  -37.1432   25.8863 H   0  0  0  0  0  0
  -20.9317  -29.8931   21.7075 H   0  0  0  0  0  0
  -26.0158  -38.2852   24.1446 H   0  0  0  0  0  0
  -32.3260  -19.7441   20.9124 H   0  0  0  0  0  0
  -31.0776  -19.5540   22.0567 H   0  0  0  0  0  0
  -31.8192  -17.4171   21.1483 H   0  0  0  0  0  0
  -31.6349  -17.9277   19.5058 H   0  0  0  0  0  0
  -30.5553  -20.5266   19.1689 H   0  0  0  0  0  0
  -31.0453  -21.5829   20.4610 H   0  0  0  0  0  0
  -27.3356  -19.8295   20.4289 H   0  0  0  0  0  0
  -28.5149  -19.4314   19.2497 H   0  0  0  0  0  0
  -29.4953  -17.2706   19.3773 H   0  0  0  0  0  0
  -29.1448  -18.5310   22.0747 H   0  0  0  0  0  0
  -29.2861  -22.8754   22.6397 H   0  0  0  0  0  0
  -27.7588  -23.7359   22.4960 H   0  0  0  0  0  0
  -29.2654  -24.6362   22.5302 H   0  0  0  0  0  0
  -27.0441  -18.2645   24.8852 H   0  0  0  0  0  0
  -28.4867  -17.7291   24.0554 H   0  0  0  0  0  0
  -27.1196  -16.6355   24.2331 H   0  0  0  0  0  0
  -24.8223  -18.4773   23.5880 H   0  0  0  0  0  0
  -24.9964  -16.9292   22.7711 H   0  0  0  0  0  0
  -24.7984  -18.4185   21.8420 H   0  0  0  0  0  0
  -28.5942  -22.1058   19.0437 H   0  0  0  0  0  0
  -27.4056  -22.0488   20.2966 H   0  0  0  0  0  0
  -26.9930  -24.6744   20.3932 H   0  0  0  0  0  0
  -27.9215  -24.7022   18.9345 H   0  0  0  0  0  0
  -29.9100  -23.8093   20.3322 H   0  0  0  0  0  0
  -26.9593  -19.2709   22.6796 H   0  0  0  0  0  0
  -28.8853  -15.4381   21.1518 H   0  0  0  0  0  0
  -27.6217  -16.6117   21.7526 H   0  0  0  0  0  0
  -26.8029  -17.5882   20.7586 H   0  0  0  0  0  0
  1 25  1  0  0  0
  1 30  2  0  0  0
  1 85  1  0  0  0
  2  3  1  0  0  0
  2 25  1  0  0  0
  2 87  1  0  0  0
  2 88  1  0  0  0
  3  4  1  0  0  0
  3 89  1  0  0  0
  3 90  1  0  0  0
  4  5  1  0  0  0
  4 91  1  0  0  0
  4 92  1  0  0  0
  5  6  1  0  0  0
  5 26  1  0  0  0
  5 93  1  0  0  0
  6 25  1  0  0  0
  6 94  1  0  0  0
  6 95  1  0  0  0
  7  8  2  0  0  0
  7 26  1  0  0  0
  7 29  1  0  0  0
  8  9  1  0  0  0
  8 22  1  0  0  0
  9 10  1  0  0  0
  9 27  2  0  0  0
 10 11  2  0  0  0
 10 15  1  0  0  0
 11 12  1  0  0  0
 11 96  1  0  0  0
 12 13  2  0  0  0
 12 97  1  0  0  0
 13 14  1  0  0  0
 13 31  1  0  0  0
 14 15  2  0  0  0
 14 98  1  0  0  0
 15 99  1  0  0  0
 16 17  2  0  0  0
 16 21  1  0  0  0
 16 31  1  0  0  0
 17 18  1  0  0  0
 17100  1  0  0  0
 18 19  2  0  0  0
 18101  1  0  0  0
 19 20  1  0  0  0
 19 24  1  0  0  0
 20 21  2  0  0  0
 20102  1  0  0  0
 21 23  1  0  0  0
 22 28  1  0  0  0
 22 32  2  0  0  0
 26 27  1  0  0  0
 28103  1  0  0  0
 28104  1  0  0  0
 29105  1  0  0  0
 29106  1  0  0  0
 33 34  1  0  0  0
 33 66  1  0  0  0
 33 70  2  0  0  0
 34 36  1  0  0  0
 34 59  1  0  0  0
 34107  1  0  0  0
 35 44  2  0  0  0
 35 45  1  0  0  0
 35 68  1  0  0  0
 36 56  1  0  0  0
 36108  1  0  0  0
 37 39  1  0  0  0
 37 47  1  0  0  0
 37 66  1  0  0  0
 37109  1  0  0  0
 38 43  2  0  0  0
 38 46  1  0  0  0
 38 47  1  0  0  0
 39 64  1  0  0  0
 39 67  2  0  0  0
 40 52  1  0  0  0
 40 53  2  0  0  0
 40 58  1  0  0  0
 41110  1  0  0  0
 41111  1  0  0  0
 41112  1  0  0  0
 41 48  1  0  0  0
 42 43  1  0  0  0
 42 66  1  0  0  0
 42113  1  0  0  0
 42114  1  0  0  0
 43 44  1  0  0  0
 44115  1  0  0  0
 45 46  2  0  0  0
 45116  1  0  0  0
 46117  1  0  0  0
 47118  1  0  0  0
 47119  1  0  0  0
 48 56  1  0  0  0
 48 65  1  0  0  0
 48120  1  0  0  0
 49 50  1  0  0  0
 49 53  1  0  0  0
 49 64  1  0  0  0
 49121  1  0  0  0
 50 51  1  0  0  0
 50122  1  0  0  0
 50123  1  0  0  0
 51 52  1  0  0  0
 51124  1  0  0  0
 51125  1  0  0  0
 52126  1  0  0  0
 52127  1  0  0  0
 53 54  1  0  0  0
 54 55  2  0  0  0
 54128  1  0  0  0
 55 57  1  0  0  0
 55129  1  0  0  0
 56 69  2  0  0  0
 57 58  2  0  0  0
 57130  1  0  0  0
 58131  1  0  0  0
 59 60  1  0  0  0
 59 61  1  0  0  0
 59 62  1  0  0  0
 60132  1  0  0  0
 60133  1  0  0  0
 60134  1  0  0  0
 61135  1  0  0  0
 61136  1  0  0  0
 61137  1  0  0  0
 62138  1  0  0  0
 62139  1  0  0  0
 62140  1  0  0  0
 63 65  1  0  0  0
 63141  1  0  0  0
 63142  1  0  0  0
 63143  1  0  0  0
 64144  1  0  0  0
 65145  1  0  0  0
 68 81  1  0  0  0
 71 72  1  0  0  0
 71 73  1  0  0  0
 71146  1  0  0  0
 71147  1  0  0  0
 72 75  1  0  0  0
 72148  1  0  0  0
 72149  1  0  0  0
 73 84  1  0  0  0
 73150  1  0  0  0
 73151  1  0  0  0
 74 76  1  0  0  0
 74 84  1  0  0  0
 74152  1  0  0  0
 74153  1  0  0  0
 75 76  1  0  0  0
 75 85  1  0  0  0
 75154  1  0  0  0
 76 86  1  0  0  0
 76155  1  0  0  0
 77156  1  0  0  0
 77157  1  0  0  0
 77158  1  0  0  0
 77 82  1  0  0  0
 78159  1  0  0  0
 78160  1  0  0  0
 78161  1  0  0  0
 78 83  1  0  0  0
 79 83  1  0  0  0
 79162  1  0  0  0
 79163  1  0  0  0
 79164  1  0  0  0
 80 82  1  0  0  0
 80 84  1  0  0  0
 80165  1  0  0  0
 80166  1  0  0  0
 81 82  1  0  0  0
 81167  1  0  0  0
 81168  1  0  0  0
 82169  1  0  0  0
 83 86  1  0  0  0
 83170  1  0  0  0
 85171  1  0  0  0
 86172  1  0  0  0
 86173  1  0  0  0
M  CHG  1  86   1
M  ISO  4   1 100  68 101  81 101  85 100
M  END
> <chiral flag>
0

> <version>
0

> <s_m_source_file>
/data/baiqing/PycharmProjects/Reinvent-master-3.2/result/LINK_invent/BTK/process_docking_weight1_custom_sum_contain_oxygen_bond_distance_aromatic_linkinvent_7_9_3/rearranged_h_0111.sdf

> <i_m_source_file_index>
82

> <r_mmod_Potential_Energy-OPLS-2005>
122.63117980957

> <r_mmod_Stretch_Energy-OPLS-2005>
134.070953369141

> <r_mmod_Bend_Energy-OPLS-2005>
197.438659667969

> <r_mmod_Torsional_Energy-OPLS-2005>
314.172180175781

> <r_mmod_Improper_Torsional_Energy-OPLS-2005>
11.5675172805786

> <r_mmod_Van_der_Waal_Energy-OPLS-2005>
126.140869140625

> <r_mmod_Electrostatic_Energy-OPLS-2005>
-293.567565917969

> <r_mmod_Solvation_Energy-OPLS-2005>
-450.770416259766

> <b_mmod_Minimization_Converged-OPLS-2005>
0

> <r_mmod_RMS_Derivative-OPLS-2005>
3.85088324546814

$$$$
82
                    3D
 Structure written by MMmdl.
157165  0  0  1  0            999 V2000
  -30.4172  -15.3153   20.3603 C   0  0  0  0  0  0
  -30.4472  -12.8485   19.4916 C   0  0  0  0  0  0
  -29.5352  -12.5727   18.2696 C   0  0  0  0  0  0
  -28.0893  -12.2855   18.7140 C   0  0  0  0  0  0
  -27.6111  -13.2719   19.8086 C   0  0  2  0  0  0
  -28.6544  -13.4729   20.9276 C   0  0  0  0  0  0
  -25.2421  -13.8231   20.5754 C   0  0  0  0  0  0
  -24.1755  -13.0422   20.9269 C   0  0  0  0  0  0
  -24.6418  -11.6924   20.8761 C   0  0  0  0  0  0
  -23.9105  -10.4278   21.0402 C   0  0  0  0  0  0
  -24.3639   -9.4194   21.9187 C   0  0  0  0  0  0
  -23.6308   -8.2235   22.0752 C   0  0  0  0  0  0
  -22.4297   -8.0287   21.3537 C   0  0  0  0  0  0
  -21.9929   -9.0258   20.4638 C   0  0  0  0  0  0
  -22.7269  -10.2134   20.3054 C   0  0  0  0  0  0
  -21.6861   -6.0743   22.5282 C   0  0  0  0  0  0
  -21.4017   -6.5642   23.8216 C   0  0  0  0  0  0
  -21.3656   -5.6791   24.9173 C   0  0  0  0  0  0
  -21.6052   -4.3057   24.7226 C   0  0  0  0  0  0
  -21.8818   -3.8154   23.4348 C   0  0  0  0  0  0
  -21.9188   -4.6968   22.3405 C   0  0  0  0  0  0
  -22.7783  -13.5189   21.1906 C   0  0  0  0  0  0
  -22.1664   -4.2163   21.0982 F   0  0  0  0  0  0
  -21.5631   -3.4540   25.7733 F   0  0  0  0  0  0
  -29.8657  -14.0009   20.2726 N   0  0  0  0  0  0
  -26.2839  -12.9489   20.3194 N   0  0  0  0  0  0
  -25.9353  -11.6597   20.5696 N   0  0  0  0  0  0
  -22.0440  -12.8162   22.0459 N   0  0  0  0  0  0
  -25.4051  -15.1963   20.4216 N   0  0  0  0  0  0
  -31.6555  -15.3133   20.2959 O   0  0  0  0  0  0
  -21.6654   -6.8897   21.4249 O   0  0  0  0  0  0
  -22.3456  -14.5488   20.6750 O   0  0  0  0  0  0
  -24.6662  -31.8207   23.1657 C   0  0  0  0  0  0
  -25.9321  -32.4569   23.8132 C   0  0  1  0  0  0
  -27.2340  -26.8990   20.1970 C   0  0  0  0  0  0
  -25.5973  -33.8385   24.2043 N   0  0  0  0  0  0
  -23.4816  -30.4274   21.5183 C   0  0  2  0  0  0
  -24.9332  -28.7932   20.1325 C   0  0  0  0  0  0
  -22.7664  -29.4438   22.4802 C   0  0  0  0  0  0
  -18.0316  -28.1413   22.8467 C   0  0  0  0  0  0
  -24.1493  -36.7203   23.2652 C   0  0  0  0  0  0
  -26.0513  -30.6176   21.3977 C   0  0  0  0  0  0
  -26.1208  -29.1988   20.7543 C   0  0  0  0  0  0
  -27.2666  -28.2783   20.7486 C   0  0  0  0  0  0
  -26.0084  -26.6419   19.5422 C   0  0  0  0  0  0
  -24.9026  -27.5342   19.5094 C   0  0  0  0  0  0
  -23.7244  -29.7303   20.1512 C   0  0  0  0  0  0
  -25.4137  -36.2955   24.0295 C   0  0  1  0  0  0
  -20.5940  -28.3760   23.1190 C   0  0  2  0  0  0
  -20.6793  -26.9439   22.5401 C   0  0  0  0  0  0
  -19.5764  -26.6380   21.5216 C   0  0  0  0  0  0
  -18.1950  -26.7948   22.1629 C   0  0  0  0  0  0
  -19.1583  -28.8910   23.2814 C   0  0  0  0  0  0
  -18.9494  -30.1495   23.8848 C   0  0  0  0  0  0
  -17.6498  -30.6607   24.0556 C   0  0  0  0  0  0
  -25.9110  -34.9343   23.4996 C   0  0  0  0  0  0
  -16.5381  -29.9091   23.6344 C   0  0  0  0  0  0
  -16.7306  -28.6510   23.0360 C   0  0  0  0  0  0
  -26.4555  -31.6519   25.0668 C   0  0  0  0  0  0
  -25.3675  -31.3794   26.1327 C   0  0  0  0  0  0
  -27.0458  -30.2888   24.6426 C   0  0  0  0  0  0
  -27.6040  -32.4342   25.7485 C   0  0  0  0  0  0
  -27.5567  -37.1756   24.8466 C   0  0  0  0  0  0
  -21.4342  -29.3048   22.3538 N   0  0  0  0  0  0
  -26.4277  -37.3696   23.9409 N   0  0  0  0  0  0
  -24.7548  -30.9844   22.0803 N   0  0  0  0  0  0
  -23.4203  -28.8019   23.3061 O   0  0  0  0  0  0
  -28.3147  -25.8734   20.0629 O   0  0  0  0  0  0
  -26.5725  -34.8893   22.4597 O   0  0  0  0  0  0
  -23.5728  -32.1185   23.6720 O   0  0  0  0  0  0
  -30.4042  -21.6619   19.0134 C   0  0  0  0  0  0
  -30.8526  -19.4797   19.1103 C   0  0  0  0  0  0
  -31.2662  -20.6451   18.5329 C   0  0  0  0  0  0
  -29.4408  -21.2032   19.8736 C   0  0  0  0  0  0
  -31.9432  -21.5419   16.2775 C   0  0  0  0  0  0
  -33.1818  -19.5569   17.2478 C   0  0  0  0  0  0
  -28.6418  -24.3001   20.5374 C   0  0  0  0  0  0
  -29.4674  -18.1926   20.7377 C   0  0  0  0  0  0
  -32.4217  -20.8546   17.5664 C   0  0  0  0  0  0
  -28.3591  -22.5091   20.2923 C   0  0  0  0  0  0
  -29.7680  -19.6445   19.9647 N   0  0  0  0  0  0
  -29.6135  -16.5697   20.2744 N   0  0  0  0  0  0
  -27.3882  -22.5294   19.3796 F   0  0  0  0  0  0
  -27.7562  -22.1721   21.4295 F   0  0  0  0  0  0
  -31.4563  -13.0797   19.1474 H   0  0  0  0  0  0
  -30.5445  -11.9570   20.1134 H   0  0  0  0  0  0
  -29.9227  -11.7375   17.6837 H   0  0  0  0  0  0
  -29.5472  -13.4431   17.6108 H   0  0  0  0  0  0
  -28.0626  -11.2678   19.1039 H   0  0  0  0  0  0
  -27.4147  -12.3036   17.8564 H   0  0  0  0  0  0
  -27.5125  -14.2291   19.2936 H   0  0  0  0  0  0
  -28.8474  -12.5463   21.4706 H   0  0  0  0  0  0
  -28.2911  -14.1979   21.6580 H   0  0  0  0  0  0
  -25.2788   -9.5687   22.4750 H   0  0  0  0  0  0
  -24.0035   -7.4632   22.7464 H   0  0  0  0  0  0
  -21.0866   -8.8764   19.8940 H   0  0  0  0  0  0
  -22.3718  -10.9671   19.6162 H   0  0  0  0  0  0
  -21.1995   -7.6150   23.9720 H   0  0  0  0  0  0
  -21.1493   -6.0523   25.9077 H   0  0  0  0  0  0
  -22.0592   -2.7621   23.2836 H   0  0  0  0  0  0
  -22.4072  -11.9848   22.4865 H   0  0  0  0  0  0
  -21.1041  -13.1149   22.2634 H   0  0  0  0  0  0
  -24.6346  -15.8443   20.5430 H   0  0  0  0  0  0
  -26.2452  -15.6432   20.0785 H   0  0  0  0  0  0
  -26.7395  -32.5100   23.0850 H   0  0  0  0  0  0
  -25.0041  -33.9452   25.0140 H   0  0  0  0  0  0
  -22.7980  -31.2602   21.3390 H   0  0  0  0  0  0
  -23.3763  -35.9525   23.3282 H   0  0  0  0  0  0
  -24.3572  -36.8880   22.2075 H   0  0  0  0  0  0
  -23.7244  -37.6380   23.6730 H   0  0  0  0  0  0
  -26.2301  -31.3492   20.6090 H   0  0  0  0  0  0
  -26.9138  -30.6833   22.0497 H   0  0  0  0  0  0
  -28.1871  -28.6104   21.2096 H   0  0  0  0  0  0
  -25.8976  -25.6916   19.0380 H   0  0  0  0  0  0
  -24.0015  -27.2187   19.0025 H   0  0  0  0  0  0
  -23.8897  -30.4922   19.3878 H   0  0  0  0  0  0
  -22.8319  -29.1895   19.8326 H   0  0  0  0  0  0
  -25.1334  -36.1744   25.0784 H   0  0  0  0  0  0
  -21.0024  -28.3369   24.1316 H   0  0  0  0  0  0
  -20.5673  -26.2387   23.3645 H   0  0  0  0  0  0
  -21.6660  -26.7413   22.1213 H   0  0  0  0  0  0
  -19.6932  -25.6278   21.1277 H   0  0  0  0  0  0
  -19.6703  -27.3166   20.6725 H   0  0  0  0  0  0
  -17.4215  -26.6675   21.4035 H   0  0  0  0  0  0
  -18.0352  -26.0098   22.9038 H   0  0  0  0  0  0
  -19.7970  -30.7318   24.2193 H   0  0  0  0  0  0
  -17.5047  -31.6281   24.5172 H   0  0  0  0  0  0
  -15.5377  -30.2986   23.7702 H   0  0  0  0  0  0
  -15.8694  -28.0821   22.7103 H   0  0  0  0  0  0
  -24.5837  -30.7173   25.7623 H   0  0  0  0  0  0
  -24.8890  -32.3011   26.4662 H   0  0  0  0  0  0
  -25.7888  -30.8994   27.0173 H   0  0  0  0  0  0
  -26.3126  -29.6562   24.1423 H   0  0  0  0  0  0
  -27.3964  -29.7268   25.5091 H   0  0  0  0  0  0
  -27.9068  -30.4066   23.9853 H   0  0  0  0  0  0
  -27.2593  -33.3690   26.1939 H   0  0  0  0  0  0
  -28.3920  -32.6844   25.0360 H   0  0  0  0  0  0
  -28.0637  -31.8552   26.5513 H   0  0  0  0  0  0
  -28.2559  -38.0074   24.7509 H   0  0  0  0  0  0
  -28.1077  -36.2596   24.6282 H   0  0  0  0  0  0
  -27.2281  -37.1388   25.8867 H   0  0  0  0  0  0
  -20.9608  -29.8734   21.6649 H   0  0  0  0  0  0
  -26.0115  -38.2752   24.1413 H   0  0  0  0  0  0
  -30.4664  -22.6978   18.7100 H   0  0  0  0  0  0
  -31.2811  -18.4898   19.0140 H   0  0  0  0  0  0
  -31.5040  -22.5177   16.4853 H   0  0  0  0  0  0
  -31.1899  -20.9397   15.7671 H   0  0  0  0  0  0
  -32.7704  -21.7018   15.5837 H   0  0  0  0  0  0
  -33.5803  -19.0954   18.1522 H   0  0  0  0  0  0
  -34.0288  -19.7502   16.5871 H   0  0  0  0  0  0
  -32.5376  -18.8290   16.7519 H   0  0  0  0  0  0
  -29.7020  -24.3205   20.2760 H   0  0  0  0  0  0
  -28.6710  -24.3992   21.6231 H   0  0  0  0  0  0
  -30.0337  -18.2517   21.6659 H   0  0  0  0  0  0
  -28.4309  -18.2711   21.0659 H   0  0  0  0  0  0
  -33.1235  -21.5288   18.0598 H   0  0  0  0  0  0
  -28.6850  -16.2710   20.0146 H   0  0  0  0  0  0
  1 25  1  0  0  0
  1 30  2  0  0  0
  1 82  1  0  0  0
  2  3  1  0  0  0
  2 25  1  0  0  0
  2 85  1  0  0  0
  2 86  1  0  0  0
  3  4  1  0  0  0
  3 87  1  0  0  0
  3 88  1  0  0  0
  4  5  1  0  0  0
  4 89  1  0  0  0
  4 90  1  0  0  0
  5  6  1  0  0  0
  5 26  1  0  0  0
  5 91  1  0  0  0
  6 25  1  0  0  0
  6 92  1  0  0  0
  6 93  1  0  0  0
  7  8  2  0  0  0
  7 26  1  0  0  0
  7 29  1  0  0  0
  8  9  1  0  0  0
  8 22  1  0  0  0
  9 10  1  0  0  0
  9 27  2  0  0  0
 10 11  2  0  0  0
 10 15  1  0  0  0
 11 12  1  0  0  0
 11 94  1  0  0  0
 12 13  2  0  0  0
 12 95  1  0  0  0
 13 14  1  0  0  0
 13 31  1  0  0  0
 14 15  2  0  0  0
 14 96  1  0  0  0
 15 97  1  0  0  0
 16 17  2  0  0  0
 16 21  1  0  0  0
 16 31  1  0  0  0
 17 18  1  0  0  0
 17 98  1  0  0  0
 18 19  2  0  0  0
 18 99  1  0  0  0
 19 20  1  0  0  0
 19 24  1  0  0  0
 20 21  2  0  0  0
 20100  1  0  0  0
 21 23  1  0  0  0
 22 28  1  0  0  0
 22 32  2  0  0  0
 26 27  1  0  0  0
 28101  1  0  0  0
 28102  1  0  0  0
 29103  1  0  0  0
 29104  1  0  0  0
 33 34  1  0  0  0
 33 66  1  0  0  0
 33 70  2  0  0  0
 34 36  1  0  0  0
 34 59  1  0  0  0
 34105  1  0  0  0
 35 44  2  0  0  0
 35 45  1  0  0  0
 35 68  1  0  0  0
 36 56  1  0  0  0
 36106  1  0  0  0
 37 39  1  0  0  0
 37 47  1  0  0  0
 37 66  1  0  0  0
 37107  1  0  0  0
 38 43  2  0  0  0
 38 46  1  0  0  0
 38 47  1  0  0  0
 39 64  1  0  0  0
 39 67  2  0  0  0
 40 52  1  0  0  0
 40 53  2  0  0  0
 40 58  1  0  0  0
 41108  1  0  0  0
 41109  1  0  0  0
 41110  1  0  0  0
 41 48  1  0  0  0
 42 43  1  0  0  0
 42 66  1  0  0  0
 42111  1  0  0  0
 42112  1  0  0  0
 43 44  1  0  0  0
 44113  1  0  0  0
 45 46  2  0  0  0
 45114  1  0  0  0
 46115  1  0  0  0
 47116  1  0  0  0
 47117  1  0  0  0
 48 56  1  0  0  0
 48 65  1  0  0  0
 48118  1  0  0  0
 49 50  1  0  0  0
 49 53  1  0  0  0
 49 64  1  0  0  0
 49119  1  0  0  0
 50 51  1  0  0  0
 50120  1  0  0  0
 50121  1  0  0  0
 51 52  1  0  0  0
 51122  1  0  0  0
 51123  1  0  0  0
 52124  1  0  0  0
 52125  1  0  0  0
 53 54  1  0  0  0
 54 55  2  0  0  0
 54126  1  0  0  0
 55 57  1  0  0  0
 55127  1  0  0  0
 56 69  2  0  0  0
 57 58  2  0  0  0
 57128  1  0  0  0
 58129  1  0  0  0
 59 60  1  0  0  0
 59 61  1  0  0  0
 59 62  1  0  0  0
 60130  1  0  0  0
 60131  1  0  0  0
 60132  1  0  0  0
 61133  1  0  0  0
 61134  1  0  0  0
 61135  1  0  0  0
 62136  1  0  0  0
 62137  1  0  0  0
 62138  1  0  0  0
 63 65  1  0  0  0
 63139  1  0  0  0
 63140  1  0  0  0
 63141  1  0  0  0
 64142  1  0  0  0
 65143  1  0  0  0
 68 77  1  0  0  0
 71 73  1  0  0  0
 71 74  2  0  0  0
 71144  1  0  0  0
 72 73  2  0  0  0
 72 81  1  0  0  0
 72145  1  0  0  0
 73 79  1  0  0  0
 74 80  1  0  0  0
 74 81  1  0  0  0
 75146  1  0  0  0
 75147  1  0  0  0
 75148  1  0  0  0
 75 79  1  0  0  0
 76 79  1  0  0  0
 76149  1  0  0  0
 76150  1  0  0  0
 76151  1  0  0  0
 77 80  1  0  0  0
 77152  1  0  0  0
 77153  1  0  0  0
 78 81  1  0  0  0
 78 82  1  0  0  0
 78154  1  0  0  0
 78155  1  0  0  0
 79156  1  0  0  0
 80 83  1  0  0  0
 80 84  1  0  0  0
 82157  1  0  0  0
M  ISO  4   1 100  68 101  77 101  82 100
M  END
> <chiral flag>
0

> <version>
0

> <s_m_source_file>
/data/baiqing/PycharmProjects/Reinvent-master-3.2/result/LINK_invent/BTK/process_docking_weight1_custom_sum_contain_oxygen_bond_distance_aromatic_linkinvent_7_9_3/rearranged_h_0111.sdf

> <i_m_source_file_index>
83

> <r_mmod_Potential_Energy-OPLS-2005>
1623.26220703125

> <r_mmod_Stretch_Energy-OPLS-2005>
683.215576171875

> <r_mmod_Bend_Energy-OPLS-2005>
681.090515136719

> <r_mmod_Torsional_Energy-OPLS-2005>
266.433441162109

> <r_mmod_Improper_Torsional_Energy-OPLS-2005>
8.74483108520508

> <r_mmod_Van_der_Waal_Energy-OPLS-2005>
103.439979553223

> <r_mmod_Electrostatic_Energy-OPLS-2005>
-396.230834960938

> <r_mmod_Solvation_Energy-OPLS-2005>
-214.510711669922

> <b_mmod_Minimization_Converged-OPLS-2005>
0

> <r_mmod_RMS_Derivative-OPLS-2005>
3.14717221260071

$$$$
83
                    3D
 Structure written by MMmdl.
166174  0  0  1  0            999 V2000
  -30.5393  -15.0026   20.4342 C   0  0  0  0  0  0
  -30.4358  -12.6261   19.5242 C   0  0  0  0  0  0
  -29.5230  -12.5321   18.2786 C   0  0  0  0  0  0
  -28.0575  -12.3150   18.6932 C   0  0  0  0  0  0
  -27.6234  -13.2592   19.8438 C   0  0  2  0  0  0
  -28.6620  -13.3155   20.9851 C   0  0  0  0  0  0
  -25.2395  -13.8232   20.5727 C   0  0  0  0  0  0
  -24.1738  -13.0435   20.9251 C   0  0  0  0  0  0
  -24.6400  -11.6939   20.8785 C   0  0  0  0  0  0
  -23.9100  -10.4293   21.0431 C   0  0  0  0  0  0
  -24.3640   -9.4192   21.9207 C   0  0  0  0  0  0
  -23.6295   -8.2238   22.0774 C   0  0  0  0  0  0
  -22.4279   -8.0285   21.3562 C   0  0  0  0  0  0
  -21.9932   -9.0263   20.4670 C   0  0  0  0  0  0
  -22.7282  -10.2134   20.3075 C   0  0  0  0  0  0
  -21.6855   -6.0744   22.5289 C   0  0  0  0  0  0
  -21.4008   -6.5645   23.8217 C   0  0  0  0  0  0
  -21.3644   -5.6796   24.9171 C   0  0  0  0  0  0
  -21.6032   -4.3064   24.7225 C   0  0  0  0  0  0
  -21.8822   -3.8162   23.4352 C   0  0  0  0  0  0
  -21.9182   -4.6970   22.3405 C   0  0  0  0  0  0
  -22.7756  -13.5182   21.1884 C   0  0  0  0  0  0
  -22.1657   -4.2163   21.0987 F   0  0  0  0  0  0
  -21.5609   -3.4550   25.7734 F   0  0  0  0  0  0
  -29.9343  -13.7403   20.3877 N   0  0  0  0  0  0
  -26.2848  -12.9507   20.3301 N   0  0  0  0  0  0
  -25.9340  -11.6623   20.5811 N   0  0  0  0  0  0
  -22.0432  -12.8176   22.0462 N   0  0  0  0  0  0
  -25.3993  -15.1966   20.4120 N   0  0  0  0  0  0
  -31.7425  -15.0375   20.1520 O   0  0  0  0  0  0
  -21.6641   -6.8894   21.4257 O   0  0  0  0  0  0
  -22.3431  -14.5469   20.6706 O   0  0  0  0  0  0
  -24.6439  -31.8386   23.1879 C   0  0  0  0  0  0
  -25.9182  -32.4658   23.8278 C   0  0  1  0  0  0
  -27.2298  -27.1166   20.1674 C   0  0  0  0  0  0
  -25.5932  -33.8468   24.2187 N   0  0  0  0  0  0
  -23.4499  -30.4592   21.5307 C   0  0  2  0  0  0
  -24.9063  -28.8806   20.1126 C   0  0  0  0  0  0
  -22.7569  -29.4518   22.4851 C   0  0  0  0  0  0
  -18.0304  -28.1375   22.8459 C   0  0  0  0  0  0
  -24.1475  -36.7214   23.2654 C   0  0  0  0  0  0
  -26.0078  -30.7107   21.3919 C   0  0  0  0  0  0
  -26.0832  -29.3210   20.7303 C   0  0  0  0  0  0
  -27.2443  -28.4547   20.7419 C   0  0  0  0  0  0
  -26.0261  -26.7831   19.5101 C   0  0  0  0  0  0
  -24.8910  -27.6258   19.4860 C   0  0  0  0  0  0
  -23.6811  -29.7838   20.1531 C   0  0  0  0  0  0
  -25.4121  -36.3006   24.0314 C   0  0  1  0  0  0
  -20.5917  -28.3680   23.1242 C   0  0  2  0  0  0
  -20.6798  -26.9397   22.5421 C   0  0  0  0  0  0
  -19.5779  -26.6360   21.5236 C   0  0  0  0  0  0
  -18.1923  -26.7912   22.1610 C   0  0  0  0  0  0
  -19.1578  -28.8853   23.2822 C   0  0  0  0  0  0
  -18.9511  -30.1444   23.8840 C   0  0  0  0  0  0
  -17.6522  -30.6584   24.0543 C   0  0  0  0  0  0
  -25.9084  -34.9381   23.5081 C   0  0  0  0  0  0
  -16.5402  -29.9077   23.6370 C   0  0  0  0  0  0
  -16.7302  -28.6490   23.0369 C   0  0  0  0  0  0
  -26.4546  -31.6544   25.0726 C   0  0  0  0  0  0
  -25.3736  -31.3749   26.1436 C   0  0  0  0  0  0
  -27.0483  -30.2955   24.6353 C   0  0  0  0  0  0
  -27.6037  -32.4379   25.7510 C   0  0  0  0  0  0
  -27.5560  -37.1759   24.8473 C   0  0  0  0  0  0
  -21.4273  -29.3008   22.3606 N   0  0  0  0  0  0
  -26.4281  -37.3724   23.9420 N   0  0  0  0  0  0
  -24.7197  -31.0251   22.0903 N   0  0  0  0  0  0
  -23.4204  -28.8089   23.3016 O   0  0  0  0  0  0
  -28.2951  -26.1334   20.2216 O   0  0  0  0  0  0
  -26.5681  -34.8866   22.4661 O   0  0  0  0  0  0
  -23.5567  -32.1276   23.7093 O   0  0  0  0  0  0
  -29.6870  -20.4703   19.8918 C   0  0  0  0  0  0
  -28.4220  -21.0715   21.5225 C   0  0  0  0  0  0
  -29.0800  -21.6944   20.4880 C   0  0  0  0  0  0
  -29.5022  -19.2282   20.5644 C   0  0  0  0  0  0
  -31.5017  -23.1790   18.8946 C   0  0  0  0  0  0
  -27.3152  -19.6478   23.7459 C   0  0  0  0  0  0
  -29.2094  -18.1021   23.4755 C   0  0  0  0  0  0
  -27.0898  -17.8264   22.0636 C   0  0  0  0  0  0
  -30.2374  -17.7363   20.3190 C   0  0  0  0  0  0
  -30.0215  -23.6049   18.8832 C   0  0  0  0  0  0
  -28.0524  -24.5775   20.2742 C   0  0  0  0  0  0
  -29.2336  -23.3548   20.1914 C   0  0  1  0  0  0
  -28.0887  -18.8181   22.6918 C   0  0  0  0  0  0
  -28.6611  -19.6641   21.6218 N   0  0  0  0  0  0
  -29.7993  -16.2240   20.5843 N   0  0  0  0  0  0
  -31.4704  -12.7843   19.2139 H   0  0  0  0  0  0
  -30.4374  -11.6872   20.0797 H   0  0  0  0  0  0
  -29.8519  -11.7188   17.6314 H   0  0  0  0  0  0
  -29.6076  -13.4494   17.6952 H   0  0  0  0  0  0
  -27.9584  -11.2782   19.0172 H   0  0  0  0  0  0
  -27.3969  -12.4304   17.8337 H   0  0  0  0  0  0
  -27.5779  -14.2551   19.4022 H   0  0  0  0  0  0
  -28.7633  -12.3458   21.4743 H   0  0  0  0  0  0
  -28.3515  -14.0215   21.7576 H   0  0  0  0  0  0
  -25.2784   -9.5644   22.4792 H   0  0  0  0  0  0
  -23.9987   -7.4626   22.7501 H   0  0  0  0  0  0
  -21.0856   -8.8811   19.8977 H   0  0  0  0  0  0
  -22.3764  -10.9680   19.6180 H   0  0  0  0  0  0
  -21.2027   -7.6159   23.9723 H   0  0  0  0  0  0
  -21.1442   -6.0533   25.9073 H   0  0  0  0  0  0
  -22.0611   -2.7629   23.2853 H   0  0  0  0  0  0
  -22.4070  -11.9828   22.4812 H   0  0  0  0  0  0
  -21.1069  -13.1214   22.2724 H   0  0  0  0  0  0
  -24.6210  -15.8382   20.5180 H   0  0  0  0  0  0
  -26.2289  -15.6442   20.0493 H   0  0  0  0  0  0
  -26.7212  -32.5269   23.0968 H   0  0  0  0  0  0
  -25.0083  -33.9575   25.0345 H   0  0  0  0  0  0
  -22.7555  -31.2856   21.3700 H   0  0  0  0  0  0
  -23.3763  -35.9515   23.3333 H   0  0  0  0  0  0
  -24.3562  -36.8870   22.2072 H   0  0  0  0  0  0
  -23.7204  -37.6392   23.6706 H   0  0  0  0  0  0
  -26.1757  -31.4726   20.6310 H   0  0  0  0  0  0
  -26.8709  -30.7536   22.0445 H   0  0  0  0  0  0
  -28.1371  -28.7827   21.2564 H   0  0  0  0  0  0
  -25.9298  -25.8293   19.0167 H   0  0  0  0  0  0
  -23.9956  -27.2812   18.9897 H   0  0  0  0  0  0
  -23.8197  -30.5580   19.3967 H   0  0  0  0  0  0
  -22.7967  -29.2270   19.8384 H   0  0  0  0  0  0
  -25.1302  -36.1848   25.0807 H   0  0  0  0  0  0
  -20.9974  -28.3264   24.1379 H   0  0  0  0  0  0
  -20.5709  -26.2271   23.3615 H   0  0  0  0  0  0
  -21.6650  -26.7423   22.1194 H   0  0  0  0  0  0
  -19.6971  -25.6273   21.1251 H   0  0  0  0  0  0
  -19.6743  -27.3168   20.6759 H   0  0  0  0  0  0
  -17.4223  -26.6662   21.3991 H   0  0  0  0  0  0
  -18.0293  -26.0066   22.9002 H   0  0  0  0  0  0
  -19.8013  -30.7232   24.2156 H   0  0  0  0  0  0
  -17.5113  -31.6256   24.5134 H   0  0  0  0  0  0
  -15.5393  -30.2955   23.7750 H   0  0  0  0  0  0
  -15.8683  -28.0793   22.7132 H   0  0  0  0  0  0
  -24.5910  -30.7102   25.7774 H   0  0  0  0  0  0
  -24.8926  -32.2921   26.4822 H   0  0  0  0  0  0
  -25.8020  -30.8971   27.0247 H   0  0  0  0  0  0
  -26.3156  -29.6608   24.1358 H   0  0  0  0  0  0
  -27.4112  -29.7331   25.4947 H   0  0  0  0  0  0
  -27.9007  -30.4221   23.9692 H   0  0  0  0  0  0
  -27.2611  -33.3727   26.1967 H   0  0  0  0  0  0
  -28.3909  -32.6902   25.0392 H   0  0  0  0  0  0
  -28.0624  -31.8603   26.5563 H   0  0  0  0  0  0
  -28.2565  -38.0061   24.7539 H   0  0  0  0  0  0
  -28.1080  -36.2596   24.6301 H   0  0  0  0  0  0
  -27.2265  -37.1390   25.8870 H   0  0  0  0  0  0
  -20.9468  -29.8738   21.6828 H   0  0  0  0  0  0
  -26.0160  -38.2786   24.1489 H   0  0  0  0  0  0
  -30.3216  -20.4967   19.0185 H   0  0  0  0  0  0
  -27.8190  -21.5761   22.2642 H   0  0  0  0  0  0
  -32.0205  -23.5738   18.0181 H   0  0  0  0  0  0
  -31.6332  -22.1030   18.8674 H   0  0  0  0  0  0
  -32.0166  -23.5481   19.7807 H   0  0  0  0  0  0
  -26.9672  -19.0278   24.5717 H   0  0  0  0  0  0
  -26.4330  -20.1367   23.3301 H   0  0  0  0  0  0
  -27.9509  -20.4165   24.1858 H   0  0  0  0  0  0
  -28.7918  -17.4438   24.2388 H   0  0  0  0  0  0
  -29.8488  -18.8243   23.9869 H   0  0  0  0  0  0
  -29.8555  -17.4919   22.8554 H   0  0  0  0  0  0
  -26.8016  -17.0402   22.7617 H   0  0  0  0  0  0
  -27.4873  -17.3530   21.1706 H   0  0  0  0  0  0
  -26.1743  -18.3340   21.7554 H   0  0  0  0  0  0
  -31.2096  -17.8045   20.8114 H   0  0  0  0  0  0
  -30.5130  -17.7232   19.2644 H   0  0  0  0  0  0
  -29.4940  -23.1476   18.0455 H   0  0  0  0  0  0
  -30.0218  -24.6784   18.6901 H   0  0  0  0  0  0
  -27.5008  -24.4187   21.2012 H   0  0  0  0  0  0
  -27.3439  -24.3325   19.4858 H   0  0  0  0  0  0
  -29.9112  -23.6499   20.9943 H   0  0  0  0  0  0
  -28.8247  -16.1041   20.8064 H   0  0  0  0  0  0
  1 25  1  0  0  0
  1 30  2  0  0  0
  1 85  1  0  0  0
  2  3  1  0  0  0
  2 25  1  0  0  0
  2 86  1  0  0  0
  2 87  1  0  0  0
  3  4  1  0  0  0
  3 88  1  0  0  0
  3 89  1  0  0  0
  4  5  1  0  0  0
  4 90  1  0  0  0
  4 91  1  0  0  0
  5  6  1  0  0  0
  5 26  1  0  0  0
  5 92  1  0  0  0
  6 25  1  0  0  0
  6 93  1  0  0  0
  6 94  1  0  0  0
  7  8  2  0  0  0
  7 26  1  0  0  0
  7 29  1  0  0  0
  8  9  1  0  0  0
  8 22  1  0  0  0
  9 10  1  0  0  0
  9 27  2  0  0  0
 10 11  2  0  0  0
 10 15  1  0  0  0
 11 12  1  0  0  0
 11 95  1  0  0  0
 12 13  2  0  0  0
 12 96  1  0  0  0
 13 14  1  0  0  0
 13 31  1  0  0  0
 14 15  2  0  0  0
 14 97  1  0  0  0
 15 98  1  0  0  0
 16 17  2  0  0  0
 16 21  1  0  0  0
 16 31  1  0  0  0
 17 18  1  0  0  0
 17 99  1  0  0  0
 18 19  2  0  0  0
 18100  1  0  0  0
 19 20  1  0  0  0
 19 24  1  0  0  0
 20 21  2  0  0  0
 20101  1  0  0  0
 21 23  1  0  0  0
 22 28  1  0  0  0
 22 32  2  0  0  0
 26 27  1  0  0  0
 28102  1  0  0  0
 28103  1  0  0  0
 29104  1  0  0  0
 29105  1  0  0  0
 33 34  1  0  0  0
 33 66  1  0  0  0
 33 70  2  0  0  0
 34 36  1  0  0  0
 34 59  1  0  0  0
 34106  1  0  0  0
 35 44  2  0  0  0
 35 45  1  0  0  0
 35 68  1  0  0  0
 36 56  1  0  0  0
 36107  1  0  0  0
 37 39  1  0  0  0
 37 47  1  0  0  0
 37 66  1  0  0  0
 37108  1  0  0  0
 38 43  2  0  0  0
 38 46  1  0  0  0
 38 47  1  0  0  0
 39 64  1  0  0  0
 39 67  2  0  0  0
 40 52  1  0  0  0
 40 53  2  0  0  0
 40 58  1  0  0  0
 41109  1  0  0  0
 41110  1  0  0  0
 41111  1  0  0  0
 41 48  1  0  0  0
 42 43  1  0  0  0
 42 66  1  0  0  0
 42112  1  0  0  0
 42113  1  0  0  0
 43 44  1  0  0  0
 44114  1  0  0  0
 45 46  2  0  0  0
 45115  1  0  0  0
 46116  1  0  0  0
 47117  1  0  0  0
 47118  1  0  0  0
 48 56  1  0  0  0
 48 65  1  0  0  0
 48119  1  0  0  0
 49 50  1  0  0  0
 49 53  1  0  0  0
 49 64  1  0  0  0
 49120  1  0  0  0
 50 51  1  0  0  0
 50121  1  0  0  0
 50122  1  0  0  0
 51 52  1  0  0  0
 51123  1  0  0  0
 51124  1  0  0  0
 52125  1  0  0  0
 52126  1  0  0  0
 53 54  1  0  0  0
 54 55  2  0  0  0
 54127  1  0  0  0
 55 57  1  0  0  0
 55128  1  0  0  0
 56 69  2  0  0  0
 57 58  2  0  0  0
 57129  1  0  0  0
 58130  1  0  0  0
 59 60  1  0  0  0
 59 61  1  0  0  0
 59 62  1  0  0  0
 60131  1  0  0  0
 60132  1  0  0  0
 60133  1  0  0  0
 61134  1  0  0  0
 61135  1  0  0  0
 61136  1  0  0  0
 62137  1  0  0  0
 62138  1  0  0  0
 62139  1  0  0  0
 63 65  1  0  0  0
 63140  1  0  0  0
 63141  1  0  0  0
 63142  1  0  0  0
 64143  1  0  0  0
 65144  1  0  0  0
 68 81  1  0  0  0
 71 73  1  0  0  0
 71 74  2  0  0  0
 71145  1  0  0  0
 72 73  2  0  0  0
 72 84  1  0  0  0
 72146  1  0  0  0
 73 82  1  0  0  0
 74 79  1  0  0  0
 74 84  1  0  0  0
 75 80  1  0  0  0
 75147  1  0  0  0
 75148  1  0  0  0
 75149  1  0  0  0
 76150  1  0  0  0
 76151  1  0  0  0
 76152  1  0  0  0
 76 83  1  0  0  0
 77 83  1  0  0  0
 77153  1  0  0  0
 77154  1  0  0  0
 77155  1  0  0  0
 78 83  1  0  0  0
 78156  1  0  0  0
 78157  1  0  0  0
 78158  1  0  0  0
 79 85  1  0  0  0
 79159  1  0  0  0
 79160  1  0  0  0
 80161  1  0  0  0
 80162  1  0  0  0
 80 82  1  0  0  0
 81 82  1  0  0  0
 81163  1  0  0  0
 81164  1  0  0  0
 82165  1  0  0  0
 83 84  1  0  0  0
 85166  1  0  0  0
M  ISO  4   1 100  68 101  81 101  85 100
M  END
> <chiral flag>
0

> <version>
0

> <s_m_source_file>
/data/baiqing/PycharmProjects/Reinvent-master-3.2/result/LINK_invent/BTK/process_docking_weight1_custom_sum_contain_oxygen_bond_distance_aromatic_linkinvent_7_9_3/rearranged_h_0111.sdf

> <i_m_source_file_index>
84

> <r_mmod_Potential_Energy-OPLS-2005>
583.533142089844

> <r_mmod_Stretch_Energy-OPLS-2005>
305.780212402344

> <r_mmod_Bend_Energy-OPLS-2005>
309.160552978516

> <r_mmod_Torsional_Energy-OPLS-2005>
259.325378417969

> <r_mmod_Improper_Torsional_Energy-OPLS-2005>
5.97346210479736

> <r_mmod_Van_der_Waal_Energy-OPLS-2005>
119.485939025879

> <r_mmod_Electrostatic_Energy-OPLS-2005>
-437.846496582031

> <r_mmod_Solvation_Energy-OPLS-2005>
-197.282745361328

> <b_mmod_Minimization_Converged-OPLS-2005>
0

> <r_mmod_RMS_Derivative-OPLS-2005>
4.403968334198

$$$$
84
                    3D
 Structure written by MMmdl.
182190  0  0  1  0            999 V2000
  -30.7794  -14.3151   20.7774 C   0  0  0  0  0  0
  -30.4185  -12.3158   19.3701 C   0  0  0  0  0  0
  -29.4759  -12.5586   18.1785 C   0  0  0  0  0  0
  -28.0036  -12.3822   18.5952 C   0  0  0  0  0  0
  -27.6622  -13.1882   19.8709 C   0  0  2  0  0  0
  -28.6990  -12.9008   20.9781 C   0  0  0  0  0  0
  -25.2644  -13.8147   20.5740 C   0  0  0  0  0  0
  -24.1861  -13.0450   20.9253 C   0  0  0  0  0  0
  -24.6360  -11.6897   20.8752 C   0  0  0  0  0  0
  -23.9006  -10.4306   21.0414 C   0  0  0  0  0  0
  -24.3591   -9.4218   21.9164 C   0  0  0  0  0  0
  -23.6272   -8.2253   22.0744 C   0  0  0  0  0  0
  -22.4251   -8.0284   21.3539 C   0  0  0  0  0  0
  -21.9868   -9.0261   20.4648 C   0  0  0  0  0  0
  -22.7171  -10.2158   20.3081 C   0  0  0  0  0  0
  -21.6850   -6.0742   22.5272 C   0  0  0  0  0  0
  -21.4025   -6.5659   23.8206 C   0  0  0  0  0  0
  -21.3661   -5.6815   24.9169 C   0  0  0  0  0  0
  -21.6040   -4.3073   24.7229 C   0  0  0  0  0  0
  -21.8811   -3.8156   23.4351 C   0  0  0  0  0  0
  -21.9191   -4.6970   22.3405 C   0  0  0  0  0  0
  -22.7894  -13.5271   21.1887 C   0  0  0  0  0  0
  -22.1656   -4.2149   21.0986 F   0  0  0  0  0  0
  -21.5613   -3.4555   25.7739 F   0  0  0  0  0  0
  -30.0443  -13.2143   20.4734 N   0  0  0  0  0  0
  -26.3002  -12.9253   20.3299 N   0  0  0  0  0  0
  -25.9254  -11.6435   20.5685 N   0  0  0  0  0  0
  -22.0469  -12.8304   22.0419 N   0  0  0  0  0  0
  -25.4473  -15.1875   20.4264 N   0  0  0  0  0  0
  -31.7059  -14.7208   20.0694 O   0  0  0  0  0  0
  -21.6628   -6.8871   21.4225 O   0  0  0  0  0  0
  -22.3639  -14.5585   20.6702 O   0  0  0  0  0  0
  -24.6120  -31.8689   23.2119 C   0  0  0  0  0  0
  -25.9032  -32.4823   23.8404 C   0  0  1  0  0  0
  -27.2284  -27.4466   20.0867 C   0  0  0  0  0  0
  -25.5908  -33.8626   24.2336 N   0  0  0  0  0  0
  -23.3978  -30.4939   21.5522 C   0  0  2  0  0  0
  -24.8408  -28.9624   20.1166 C   0  0  0  0  0  0
  -22.7392  -29.4653   22.4990 C   0  0  0  0  0  0
  -18.0261  -28.1374   22.8489 C   0  0  0  0  0  0
  -24.1478  -36.7311   23.2637 C   0  0  0  0  0  0
  -25.9266  -30.8333   21.3679 C   0  0  0  0  0  0
  -25.9997  -29.4681   20.7180 C   0  0  0  0  0  0
  -27.1916  -28.7135   20.7094 C   0  0  0  0  0  0
  -26.0544  -26.9660   19.4583 C   0  0  0  0  0  0
  -24.8619  -27.7083   19.4866 C   0  0  0  0  0  0
  -23.6049  -29.8279   20.1659 C   0  0  0  0  0  0
  -25.4100  -36.3112   24.0330 C   0  0  1  0  0  0
  -20.5853  -28.3651   23.1331 C   0  0  2  0  0  0
  -20.6752  -26.9393   22.5417 C   0  0  0  0  0  0
  -19.5737  -26.6383   21.5209 C   0  0  0  0  0  0
  -18.1915  -26.7921   22.1626 C   0  0  0  0  0  0
  -19.1510  -28.8829   23.2905 C   0  0  0  0  0  0
  -18.9446  -30.1439   23.8910 C   0  0  0  0  0  0
  -17.6452  -30.6584   24.0564 C   0  0  0  0  0  0
  -25.9025  -34.9480   23.5119 C   0  0  0  0  0  0
  -16.5339  -29.9086   23.6331 C   0  0  0  0  0  0
  -16.7250  -28.6504   23.0344 C   0  0  0  0  0  0
  -26.4473  -31.6591   25.0723 C   0  0  0  0  0  0
  -25.3746  -31.3685   26.1470 C   0  0  0  0  0  0
  -27.0297  -30.3039   24.6075 C   0  0  0  0  0  0
  -27.6054  -32.4297   25.7479 C   0  0  0  0  0  0
  -27.5563  -37.1814   24.8464 C   0  0  0  0  0  0
  -21.4124  -29.3024   22.3743 N   0  0  0  0  0  0
  -26.4279  -37.3806   23.9403 N   0  0  0  0  0  0
  -24.6633  -31.0788   22.1021 N   0  0  0  0  0  0
  -23.4183  -28.8193   23.3015 O   0  0  0  0  0  0
  -28.4181  -26.7507   20.1022 O   0  0  0  0  0  0
  -26.5580  -34.8936   22.4676 O   0  0  0  0  0  0
  -23.5320  -32.1438   23.7521 O   0  0  0  0  0  0
  -27.3405  -21.8093   20.6316 C   0  0  0  0  0  0
  -28.7646  -22.3256   20.8292 C   0  0  0  0  0  0
  -27.2642  -23.5143   22.2818 C   0  0  0  0  0  0
  -26.6320  -22.1585   21.9419 C   0  0  2  0  0  0
  -25.4467  -17.9345   24.4221 C   0  0  0  0  0  0
  -29.0816  -25.0163   18.6335 C   0  0  0  0  0  0
  -30.8887  -16.6846   23.3292 C   0  0  0  0  0  0
  -29.3324  -14.8669   24.0669 C   0  0  0  0  0  0
  -29.1356  -24.7506   21.2206 C   0  0  0  0  0  0
  -26.1401  -19.9005   22.9194 C   0  0  0  0  0  0
  -27.8781  -18.0667   23.5553 C   0  0  0  0  0  0
  -28.7746  -16.2932   21.9580 C   0  0  0  0  0  0
  -26.6007  -18.8545   23.9683 C   0  0  2  0  0  0
  -28.4039  -25.3255   19.9754 C   0  0  1  0  0  0
  -29.8932  -15.6140   22.8297 C   0  0  0  0  0  0
  -28.6291  -23.4674   21.7344 N   0  0  0  0  0  0
  -30.7542  -14.6730   22.0747 N   0  0  0  0  0  0
  -26.8940  -21.1761   23.0189 N   0  3  0  0  0  0
  -27.6219  -16.8832   22.6933 N   0  3  0  0  0  0
  -31.4570  -12.4486   19.0595 H   0  0  0  0  0  0
  -30.3436  -11.2798   19.7031 H   0  0  0  0  0  0
  -29.7204  -11.8825   17.3587 H   0  0  0  0  0  0
  -29.6271  -13.5692   17.7961 H   0  0  0  0  0  0
  -27.8210  -11.3197   18.7638 H   0  0  0  0  0  0
  -27.3439  -12.6782   17.7791 H   0  0  0  0  0  0
  -27.7246  -14.2410   19.5994 H   0  0  0  0  0  0
  -28.6606  -11.8485   21.2633 H   0  0  0  0  0  0
  -28.4403  -13.4442   21.8760 H   0  0  0  0  0  0
  -25.2756   -9.5708   22.4702 H   0  0  0  0  0  0
  -24.0013   -7.4638   22.7448 H   0  0  0  0  0  0
  -21.0779   -8.8786   19.8974 H   0  0  0  0  0  0
  -22.3608  -10.9708   19.6211 H   0  0  0  0  0  0
  -21.2020   -7.6167   23.9702 H   0  0  0  0  0  0
  -21.1490   -6.0549   25.9073 H   0  0  0  0  0  0
  -22.0593   -2.7617   23.2856 H   0  0  0  0  0  0
  -22.4033  -11.9982   22.4873 H   0  0  0  0  0  0
  -21.1109  -13.1393   22.2606 H   0  0  0  0  0  0
  -24.5926  -15.7318   20.3709 H   0  0  0  0  0  0
  -26.1169  -15.4832   19.7275 H   0  0  0  0  0  0
  -26.7091  -32.5541   23.1161 H   0  0  0  0  0  0
  -25.0106  -33.9804   25.0513 H   0  0  0  0  0  0
  -22.6862  -31.3103   21.4130 H   0  0  0  0  0  0
  -23.3740  -35.9647   23.3320 H   0  0  0  0  0  0
  -24.3561  -36.8901   22.2043 H   0  0  0  0  0  0
  -23.7237  -37.6524   23.6638 H   0  0  0  0  0  0
  -26.0370  -31.5956   20.5954 H   0  0  0  0  0  0
  -26.8167  -30.8887   21.9830 H   0  0  0  0  0  0
  -28.0831  -29.0961   21.1880 H   0  0  0  0  0  0
  -26.0361  -26.0351   18.9133 H   0  0  0  0  0  0
  -23.9772  -27.3188   19.0034 H   0  0  0  0  0  0
  -23.7205  -30.6021   19.4063 H   0  0  0  0  0  0
  -22.7319  -29.2451   19.8655 H   0  0  0  0  0  0
  -25.1285  -36.1975   25.0826 H   0  0  0  0  0  0
  -20.9928  -28.3201   24.1461 H   0  0  0  0  0  0
  -20.5657  -26.2257   23.3594 H   0  0  0  0  0  0
  -21.6626  -26.7440   22.1213 H   0  0  0  0  0  0
  -19.6898  -25.6298   21.1222 H   0  0  0  0  0  0
  -19.6685  -27.3213   20.6753 H   0  0  0  0  0  0
  -17.4183  -26.6662   21.4023 H   0  0  0  0  0  0
  -18.0322  -26.0061   22.9026 H   0  0  0  0  0  0
  -19.7921  -30.7244   24.2291 H   0  0  0  0  0  0
  -17.5009  -31.6273   24.5160 H   0  0  0  0  0  0
  -15.5341  -30.3001   23.7639 H   0  0  0  0  0  0
  -15.8645  -28.0830   22.7051 H   0  0  0  0  0  0
  -24.5938  -30.7011   25.7798 H   0  0  0  0  0  0
  -24.8930  -32.2843   26.4911 H   0  0  0  0  0  0
  -25.8116  -30.8865   27.0225 H   0  0  0  0  0  0
  -26.2840  -29.6821   24.1106 H   0  0  0  0  0  0
  -27.4056  -29.7245   25.4513 H   0  0  0  0  0  0
  -27.8682  -30.4357   23.9234 H   0  0  0  0  0  0
  -27.2679  -33.3591   26.2077 H   0  0  0  0  0  0
  -28.3859  -32.6849   25.0297 H   0  0  0  0  0  0
  -28.0727  -31.8406   26.5379 H   0  0  0  0  0  0
  -28.2597  -38.0096   24.7505 H   0  0  0  0  0  0
  -28.1048  -36.2630   24.6307 H   0  0  0  0  0  0
  -27.2283  -37.1474   25.8871 H   0  0  0  0  0  0
  -20.9268  -29.8783   21.7007 H   0  0  0  0  0  0
  -26.0166  -38.2878   24.1434 H   0  0  0  0  0  0
  -27.3066  -20.7525   20.3677 H   0  0  0  0  0  0
  -26.8749  -22.3566   19.8107 H   0  0  0  0  0  0
  -29.2860  -22.5407   19.8981 H   0  0  0  0  0  0
  -29.3620  -21.5657   21.3369 H   0  0  0  0  0  0
  -27.2728  -23.7283   23.3522 H   0  0  0  0  0  0
  -26.6660  -24.3006   21.8218 H   0  0  0  0  0  0
  -25.5534  -22.2613   21.8066 H   0  0  0  0  0  0
  -24.6442  -18.5137   24.8804 H   0  0  0  0  0  0
  -25.7793  -17.2157   25.1728 H   0  0  0  0  0  0
  -25.0063  -17.3803   23.5927 H   0  0  0  0  0  0
  -29.0301  -23.9603   18.3801 H   0  0  0  0  0  0
  -30.1302  -25.3114   18.6383 H   0  0  0  0  0  0
  -28.5913  -25.5548   17.8222 H   0  0  0  0  0  0
  -30.4502  -17.3854   24.0346 H   0  0  0  0  0  0
  -31.2991  -17.2718   22.5056 H   0  0  0  0  0  0
  -31.7335  -16.2288   23.8494 H   0  0  0  0  0  0
  -28.9286  -15.5512   24.8124 H   0  0  0  0  0  0
  -30.1205  -14.3123   24.5763 H   0  0  0  0  0  0
  -28.5398  -14.1575   23.8390 H   0  0  0  0  0  0
  -29.0447  -25.4673   22.0394 H   0  0  0  0  0  0
  -30.2065  -24.6761   21.0241 H   0  0  0  0  0  0
  -25.0849  -20.1364   23.0708 H   0  0  0  0  0  0
  -26.2089  -19.4769   21.9173 H   0  0  0  0  0  0
  -28.3534  -17.7228   24.4734 H   0  0  0  0  0  0
  -28.5927  -18.7359   23.0707 H   0  0  0  0  0  0
  -28.3225  -15.5728   21.2861 H   0  0  0  0  0  0
  -29.2069  -17.0504   21.3017 H   0  0  0  0  0  0
  -26.8747  -19.4197   24.8620 H   0  0  0  0  0  0
  -27.4019  -24.9102   19.9486 H   0  0  0  0  0  0
  -31.7106  -14.8296   22.3554 H   0  0  0  0  0  0
  -26.6219  -21.6143   23.8856 H   0  0  0  0  0  0
  -27.8880  -21.0270   23.0687 H   0  0  0  0  0  0
  -26.9453  -17.1320   21.9882 H   0  0  0  0  0  0
  -27.1932  -16.1587   23.2475 H   0  0  0  0  0  0
  1 25  1  0  0  0
  1 30  2  0  0  0
  1 87  1  0  0  0
  2  3  1  0  0  0
  2 25  1  0  0  0
  2 90  1  0  0  0
  2 91  1  0  0  0
  3  4  1  0  0  0
  3 92  1  0  0  0
  3 93  1  0  0  0
  4  5  1  0  0  0
  4 94  1  0  0  0
  4 95  1  0  0  0
  5  6  1  0  0  0
  5 26  1  0  0  0
  5 96  1  0  0  0
  6 25  1  0  0  0
  6 97  1  0  0  0
  6 98  1  0  0  0
  7  8  2  0  0  0
  7 26  1  0  0  0
  7 29  1  0  0  0
  8  9  1  0  0  0
  8 22  1  0  0  0
  9 10  1  0  0  0
  9 27  2  0  0  0
 10 11  2  0  0  0
 10 15  1  0  0  0
 11 12  1  0  0  0
 11 99  1  0  0  0
 12 13  2  0  0  0
 12100  1  0  0  0
 13 14  1  0  0  0
 13 31  1  0  0  0
 14 15  2  0  0  0
 14101  1  0  0  0
 15102  1  0  0  0
 16 17  2  0  0  0
 16 21  1  0  0  0
 16 31  1  0  0  0
 17 18  1  0  0  0
 17103  1  0  0  0
 18 19  2  0  0  0
 18104  1  0  0  0
 19 20  1  0  0  0
 19 24  1  0  0  0
 20 21  2  0  0  0
 20105  1  0  0  0
 21 23  1  0  0  0
 22 28  1  0  0  0
 22 32  2  0  0  0
 26 27  1  0  0  0
 28106  1  0  0  0
 28107  1  0  0  0
 29108  1  0  0  0
 29109  1  0  0  0
 33 34  1  0  0  0
 33 66  1  0  0  0
 33 70  2  0  0  0
 34 36  1  0  0  0
 34 59  1  0  0  0
 34110  1  0  0  0
 35 44  2  0  0  0
 35 45  1  0  0  0
 35 68  1  0  0  0
 36 56  1  0  0  0
 36111  1  0  0  0
 37 39  1  0  0  0
 37 47  1  0  0  0
 37 66  1  0  0  0
 37112  1  0  0  0
 38 43  2  0  0  0
 38 46  1  0  0  0
 38 47  1  0  0  0
 39 64  1  0  0  0
 39 67  2  0  0  0
 40 52  1  0  0  0
 40 53  2  0  0  0
 40 58  1  0  0  0
 41113  1  0  0  0
 41114  1  0  0  0
 41115  1  0  0  0
 41 48  1  0  0  0
 42 43  1  0  0  0
 42 66  1  0  0  0
 42116  1  0  0  0
 42117  1  0  0  0
 43 44  1  0  0  0
 44118  1  0  0  0
 45 46  2  0  0  0
 45119  1  0  0  0
 46120  1  0  0  0
 47121  1  0  0  0
 47122  1  0  0  0
 48 56  1  0  0  0
 48 65  1  0  0  0
 48123  1  0  0  0
 49 50  1  0  0  0
 49 53  1  0  0  0
 49 64  1  0  0  0
 49124  1  0  0  0
 50 51  1  0  0  0
 50125  1  0  0  0
 50126  1  0  0  0
 51 52  1  0  0  0
 51127  1  0  0  0
 51128  1  0  0  0
 52129  1  0  0  0
 52130  1  0  0  0
 53 54  1  0  0  0
 54 55  2  0  0  0
 54131  1  0  0  0
 55 57  1  0  0  0
 55132  1  0  0  0
 56 69  2  0  0  0
 57 58  2  0  0  0
 57133  1  0  0  0
 58134  1  0  0  0
 59 60  1  0  0  0
 59 61  1  0  0  0
 59 62  1  0  0  0
 60135  1  0  0  0
 60136  1  0  0  0
 60137  1  0  0  0
 61138  1  0  0  0
 61139  1  0  0  0
 61140  1  0  0  0
 62141  1  0  0  0
 62142  1  0  0  0
 62143  1  0  0  0
 63 65  1  0  0  0
 63144  1  0  0  0
 63145  1  0  0  0
 63146  1  0  0  0
 64147  1  0  0  0
 65148  1  0  0  0
 68 84  1  0  0  0
 71 72  1  0  0  0
 71 74  1  0  0  0
 71149  1  0  0  0
 71150  1  0  0  0
 72 86  1  0  0  0
 72151  1  0  0  0
 72152  1  0  0  0
 73 74  1  0  0  0
 73 86  1  0  0  0
 73153  1  0  0  0
 73154  1  0  0  0
 74 88  1  0  0  0
 74155  1  0  0  0
 75156  1  0  0  0
 75157  1  0  0  0
 75158  1  0  0  0
 75 83  1  0  0  0
 76159  1  0  0  0
 76160  1  0  0  0
 76161  1  0  0  0
 76 84  1  0  0  0
 77162  1  0  0  0
 77163  1  0  0  0
 77164  1  0  0  0
 77 85  1  0  0  0
 78 85  1  0  0  0
 78165  1  0  0  0
 78166  1  0  0  0
 78167  1  0  0  0
 79 84  1  0  0  0
 79 86  1  0  0  0
 79168  1  0  0  0
 79169  1  0  0  0
 80 83  1  0  0  0
 80 88  1  0  0  0
 80170  1  0  0  0
 80171  1  0  0  0
 81 83  1  0  0  0
 81 89  1  0  0  0
 81172  1  0  0  0
 81173  1  0  0  0
 82 85  1  0  0  0
 82 89  1  0  0  0
 82174  1  0  0  0
 82175  1  0  0  0
 83176  1  0  0  0
 84177  1  0  0  0
 85 87  1  0  0  0
 87178  1  0  0  0
 88179  1  0  0  0
 88180  1  0  0  0
 89181  1  0  0  0
 89182  1  0  0  0
M  CHG  2  88   1  89   1
M  ISO  4   1 100  68 101  84 101  87 100
M  END
> <chiral flag>
0

> <version>
0

> <s_m_source_file>
/data/baiqing/PycharmProjects/Reinvent-master-3.2/result/LINK_invent/BTK/process_docking_weight1_custom_sum_contain_oxygen_bond_distance_aromatic_linkinvent_7_9_3/rearranged_h_0111.sdf

> <i_m_source_file_index>
85

> <r_mmod_Potential_Energy-OPLS-2005>
-168.869186401367

> <r_mmod_Stretch_Energy-OPLS-2005>
39.8928108215332

> <r_mmod_Bend_Energy-OPLS-2005>
164.684722900391

> <r_mmod_Torsional_Energy-OPLS-2005>
394.742309570312

> <r_mmod_Improper_Torsional_Energy-OPLS-2005>
20.7903137207031

> <r_mmod_Van_der_Waal_Energy-OPLS-2005>
130.547454833984

> <r_mmod_Electrostatic_Energy-OPLS-2005>
37.9383735656738

> <r_mmod_Solvation_Energy-OPLS-2005>
-969.010070800781

> <b_mmod_Minimization_Converged-OPLS-2005>
0

> <r_mmod_RMS_Derivative-OPLS-2005>
2.27242374420166

$$$$
85
                    3D
 Structure written by MMmdl.
169177  0  0  1  0            999 V2000
  -30.5671  -14.8067   20.4500 C   0  0  0  0  0  0
  -30.4345  -12.4995   19.4813 C   0  0  0  0  0  0
  -29.5289  -12.5375   18.2326 C   0  0  0  0  0  0
  -28.0550  -12.3325   18.6399 C   0  0  0  0  0  0
  -27.6367  -13.2329   19.8357 C   0  0  2  0  0  0
  -28.6733  -13.1918   20.9790 C   0  0  0  0  0  0
  -25.2492  -13.8151   20.5675 C   0  0  0  0  0  0
  -24.1795  -13.0414   20.9204 C   0  0  0  0  0  0
  -24.6383  -11.6876   20.8707 C   0  0  0  0  0  0
  -23.9060  -10.4291   21.0415 C   0  0  0  0  0  0
  -24.3629   -9.4222   21.9197 C   0  0  0  0  0  0
  -23.6319   -8.2231   22.0757 C   0  0  0  0  0  0
  -22.4288   -8.0269   21.3546 C   0  0  0  0  0  0
  -21.9920   -9.0249   20.4647 C   0  0  0  0  0  0
  -22.7243  -10.2129   20.3073 C   0  0  0  0  0  0
  -21.6855   -6.0741   22.5317 C   0  0  0  0  0  0
  -21.4023   -6.5643   23.8264 C   0  0  0  0  0  0
  -21.3659   -5.6798   24.9217 C   0  0  0  0  0  0
  -21.6062   -4.3064   24.7271 C   0  0  0  0  0  0
  -21.8805   -3.8150   23.4398 C   0  0  0  0  0  0
  -21.9190   -4.6967   22.3442 C   0  0  0  0  0  0
  -22.7820  -13.5240   21.1880 C   0  0  0  0  0  0
  -22.1644   -4.2148   21.1015 F   0  0  0  0  0  0
  -21.5615   -3.4540   25.7779 F   0  0  0  0  0  0
  -29.9693  -13.5630   20.4005 N   0  0  0  0  0  0
  -26.2909  -12.9360   20.3125 N   0  0  0  0  0  0
  -25.9320  -11.6517   20.5652 N   0  0  0  0  0  0
  -22.0419  -12.8282   22.0403 N   0  0  0  0  0  0
  -25.4209  -15.1861   20.4187 N   0  0  0  0  0  0
  -31.7561  -14.9148   20.1425 O   0  0  0  0  0  0
  -21.6642   -6.8881   21.4274 O   0  0  0  0  0  0
  -22.3549  -14.5546   20.6694 O   0  0  0  0  0  0
  -24.6324  -31.8566   23.1963 C   0  0  0  0  0  0
  -25.9150  -32.4765   23.8306 C   0  0  1  0  0  0
  -27.2037  -27.2446   20.1204 C   0  0  0  0  0  0
  -25.5988  -33.8563   24.2258 N   0  0  0  0  0  0
  -23.4253  -30.4805   21.5432 C   0  0  2  0  0  0
  -24.8648  -28.9251   20.1053 C   0  0  0  0  0  0
  -22.7490  -29.4644   22.4918 C   0  0  0  0  0  0
  -18.0299  -28.1375   22.8474 C   0  0  0  0  0  0
  -24.1487  -36.7254   23.2638 C   0  0  0  0  0  0
  -25.9718  -30.7644   21.3701 C   0  0  0  0  0  0
  -26.0395  -29.3863   20.7119 C   0  0  0  0  0  0
  -27.2081  -28.5590   20.7026 C   0  0  0  0  0  0
  -26.0027  -26.8536   19.4941 C   0  0  0  0  0  0
  -24.8532  -27.6676   19.4854 C   0  0  0  0  0  0
  -23.6383  -29.8172   20.1574 C   0  0  0  0  0  0
  -25.4111  -36.3061   24.0328 C   0  0  1  0  0  0
  -20.5910  -28.3728   23.1300 C   0  0  2  0  0  0
  -20.6823  -26.9444   22.5449 C   0  0  0  0  0  0
  -19.5819  -26.6415   21.5228 C   0  0  0  0  0  0
  -18.1991  -26.7918   22.1632 C   0  0  0  0  0  0
  -19.1542  -28.8865   23.2887 C   0  0  0  0  0  0
  -18.9439  -30.1468   23.8890 C   0  0  0  0  0  0
  -17.6417  -30.6574   24.0544 C   0  0  0  0  0  0
  -25.9056  -34.9440   23.5085 C   0  0  0  0  0  0
  -16.5336  -29.9049   23.6303 C   0  0  0  0  0  0
  -16.7282  -28.6470   23.0318 C   0  0  0  0  0  0
  -26.4525  -31.6591   25.0695 C   0  0  0  0  0  0
  -25.3748  -31.3732   26.1416 C   0  0  0  0  0  0
  -27.0395  -30.3033   24.6146 C   0  0  0  0  0  0
  -27.6107  -32.4314   25.7441 C   0  0  0  0  0  0
  -27.5566  -37.1778   24.8474 C   0  0  0  0  0  0
  -21.4193  -29.3078   22.3675 N   0  0  0  0  0  0
  -26.4283  -37.3763   23.9421 N   0  0  0  0  0  0
  -24.6979  -31.0508   22.0939 N   0  0  0  0  0  0
  -23.4178  -28.8187   23.3025 O   0  0  0  0  0  0
  -28.3295  -26.3874   20.1728 O   0  0  0  0  0  0
  -26.5590  -34.8927   22.4631 O   0  0  0  0  0  0
  -23.5478  -32.1403   23.7260 O   0  0  0  0  0  0
  -27.6692  -21.3649   22.0396 C   0  0  0  0  0  0
  -28.9333  -21.2898   20.2579 C   0  0  0  0  0  0
  -28.2448  -22.2297   21.0555 C   0  0  0  0  0  0
  -27.8956  -20.0373   21.7804 C   0  0  0  0  0  0
  -25.7669  -19.0256   22.5995 C   0  0  0  0  0  0
  -27.9379  -18.6474   23.8776 C   0  0  0  0  0  0
  -27.9865  -24.3929   18.5456 C   0  0  0  0  0  0
  -28.7698  -24.3389   22.3872 C   0  0  0  0  0  0
  -26.4956  -24.0726   21.4289 C   0  0  0  0  0  0
  -29.1316  -18.5807   20.0127 C   0  0  0  0  0  0
  -30.0826  -17.4500   20.7262 C   0  0  0  0  0  0
  -27.2950  -18.8654   22.4981 C   0  0  0  0  0  0
  -28.3881  -24.8798   19.9558 C   0  0  1  0  0  0
  -28.0032  -23.8421   21.1424 C   0  0  0  0  0  0
  -28.7345  -19.9224   20.6775 N   0  0  0  0  0  0
  -29.7665  -15.9330   20.6520 N   0  0  0  0  0  0
  -31.4811  -12.6283   19.2017 H   0  0  0  0  0  0
  -30.3673  -11.5262   19.9650 H   0  0  0  0  0  0
  -29.8353  -11.7770   17.5141 H   0  0  0  0  0  0
  -29.6480  -13.5005   17.7311 H   0  0  0  0  0  0
  -27.9345  -11.2833   18.9091 H   0  0  0  0  0  0
  -27.4029  -12.5012   17.7832 H   0  0  0  0  0  0
  -27.6271  -14.2498   19.4466 H   0  0  0  0  0  0
  -28.7163  -12.2017   21.4344 H   0  0  0  0  0  0
  -28.3948  -13.8845   21.7736 H   0  0  0  0  0  0
  -25.2779   -9.5682   22.4767 H   0  0  0  0  0  0
  -24.0023   -7.4644   22.7478 H   0  0  0  0  0  0
  -21.0830   -8.8811   19.8980 H   0  0  0  0  0  0
  -22.3725  -10.9673   19.6163 H   0  0  0  0  0  0
  -21.2019   -7.6157   23.9766 H   0  0  0  0  0  0
  -21.1485   -6.0524   25.9109 H   0  0  0  0  0  0
  -22.0579   -2.7617   23.2930 H   0  0  0  0  0  0
  -22.3978  -12.0009   22.4966 H   0  0  0  0  0  0
  -21.1008  -13.1288   22.2467 H   0  0  0  0  0  0
  -24.6654  -15.8402   20.5777 H   0  0  0  0  0  0
  -26.2712  -15.6335   20.1039 H   0  0  0  0  0  0
  -26.7203  -32.5391   23.1020 H   0  0  0  0  0  0
  -25.0284  -33.9715   25.0509 H   0  0  0  0  0  0
  -22.7239  -31.3035   21.3979 H   0  0  0  0  0  0
  -23.3773  -35.9564   23.3293 H   0  0  0  0  0  0
  -24.3573  -36.8870   22.2055 H   0  0  0  0  0  0
  -23.7212  -37.6443   23.6654 H   0  0  0  0  0  0
  -26.0964  -31.5242   20.5972 H   0  0  0  0  0  0
  -26.8539  -30.8191   21.9957 H   0  0  0  0  0  0
  -28.1095  -28.9158   21.1783 H   0  0  0  0  0  0
  -25.9078  -25.8942   19.0195 H   0  0  0  0  0  0
  -23.9512  -27.3069   19.0068 H   0  0  0  0  0  0
  -23.7578  -30.5945   19.4023 H   0  0  0  0  0  0
  -22.7543  -29.2516   19.8563 H   0  0  0  0  0  0
  -25.1286  -36.1903   25.0820 H   0  0  0  0  0  0
  -20.9982  -28.3319   24.1433 H   0  0  0  0  0  0
  -20.5770  -26.2312   23.3635 H   0  0  0  0  0  0
  -21.6695  -26.7527   22.1235 H   0  0  0  0  0  0
  -19.7042  -25.6330   21.1254 H   0  0  0  0  0  0
  -19.6783  -27.3226   20.6755 H   0  0  0  0  0  0
  -17.4300  -26.6643   21.4014 H   0  0  0  0  0  0
  -18.0421  -26.0051   22.9026 H   0  0  0  0  0  0
  -19.7888  -30.7320   24.2275 H   0  0  0  0  0  0
  -17.4935  -31.6251   24.5144 H   0  0  0  0  0  0
  -15.5313  -30.2924   23.7600 H   0  0  0  0  0  0
  -15.8708  -28.0766   22.7006 H   0  0  0  0  0  0
  -24.5912  -30.7105   25.7715 H   0  0  0  0  0  0
  -24.8969  -32.2921   26.4838 H   0  0  0  0  0  0
  -25.8070  -30.8888   27.0187 H   0  0  0  0  0  0
  -26.2980  -29.6730   24.1244 H   0  0  0  0  0  0
  -27.4208  -29.7325   25.4621 H   0  0  0  0  0  0
  -27.8777  -30.4332   23.9296 H   0  0  0  0  0  0
  -27.2753  -33.3619   26.2011 H   0  0  0  0  0  0
  -28.3915  -32.6856   25.0263 H   0  0  0  0  0  0
  -28.0785  -31.8445   26.5350 H   0  0  0  0  0  0
  -28.2605  -38.0060   24.7532 H   0  0  0  0  0  0
  -28.1048  -36.2600   24.6296 H   0  0  0  0  0  0
  -27.2292  -37.1418   25.8882 H   0  0  0  0  0  0
  -20.9353  -29.8776   21.6872 H   0  0  0  0  0  0
  -26.0158  -38.2828   24.1465 H   0  0  0  0  0  0
  -27.0585  -21.6768   22.8770 H   0  0  0  0  0  0
  -29.5389  -21.4641   19.3801 H   0  0  0  0  0  0
  -25.3353  -19.1869   21.6103 H   0  0  0  0  0  0
  -25.4810  -19.8809   23.2111 H   0  0  0  0  0  0
  -25.2934  -18.1393   23.0203 H   0  0  0  0  0  0
  -29.0248  -18.5844   23.7954 H   0  0  0  0  0  0
  -27.6014  -17.7112   24.3262 H   0  0  0  0  0  0
  -27.7144  -19.4620   24.5706 H   0  0  0  0  0  0
  -26.9222  -24.2009   18.4326 H   0  0  0  0  0  0
  -28.4738  -23.4466   18.3122 H   0  0  0  0  0  0
  -28.2938  -25.0975   17.7752 H   0  0  0  0  0  0
  -28.4758  -23.8085   23.2936 H   0  0  0  0  0  0
  -28.5948  -25.3995   22.5701 H   0  0  0  0  0  0
  -29.8442  -24.2103   22.2670 H   0  0  0  0  0  0
  -26.1430  -23.5768   22.3322 H   0  0  0  0  0  0
  -25.8708  -23.7265   20.6051 H   0  0  0  0  0  0
  -26.2812  -25.1271   21.5892 H   0  0  0  0  0  0
  -28.2002  -18.0866   19.7342 H   0  0  0  0  0  0
  -29.5538  -18.8264   19.0384 H   0  0  0  0  0  0
  -31.0887  -17.5964   20.3262 H   0  0  0  0  0  0
  -30.1740  -17.7015   21.7839 H   0  0  0  0  0  0
  -27.4620  -17.9592   21.9214 H   0  0  0  0  0  0
  -29.4722  -24.7642   19.9139 H   0  0  0  0  0  0
  -28.8059  -15.7078   20.8635 H   0  0  0  0  0  0
  1 25  1  0  0  0
  1 30  2  0  0  0
  1 86  1  0  0  0
  2  3  1  0  0  0
  2 25  1  0  0  0
  2 87  1  0  0  0
  2 88  1  0  0  0
  3  4  1  0  0  0
  3 89  1  0  0  0
  3 90  1  0  0  0
  4  5  1  0  0  0
  4 91  1  0  0  0
  4 92  1  0  0  0
  5  6  1  0  0  0
  5 26  1  0  0  0
  5 93  1  0  0  0
  6 25  1  0  0  0
  6 94  1  0  0  0
  6 95  1  0  0  0
  7  8  2  0  0  0
  7 26  1  0  0  0
  7 29  1  0  0  0
  8  9  1  0  0  0
  8 22  1  0  0  0
  9 10  1  0  0  0
  9 27  2  0  0  0
 10 11  2  0  0  0
 10 15  1  0  0  0
 11 12  1  0  0  0
 11 96  1  0  0  0
 12 13  2  0  0  0
 12 97  1  0  0  0
 13 14  1  0  0  0
 13 31  1  0  0  0
 14 15  2  0  0  0
 14 98  1  0  0  0
 15 99  1  0  0  0
 16 17  2  0  0  0
 16 21  1  0  0  0
 16 31  1  0  0  0
 17 18  1  0  0  0
 17100  1  0  0  0
 18 19  2  0  0  0
 18101  1  0  0  0
 19 20  1  0  0  0
 19 24  1  0  0  0
 20 21  2  0  0  0
 20102  1  0  0  0
 21 23  1  0  0  0
 22 28  1  0  0  0
 22 32  2  0  0  0
 26 27  1  0  0  0
 28103  1  0  0  0
 28104  1  0  0  0
 29105  1  0  0  0
 29106  1  0  0  0
 33 34  1  0  0  0
 33 66  1  0  0  0
 33 70  2  0  0  0
 34 36  1  0  0  0
 34 59  1  0  0  0
 34107  1  0  0  0
 35 44  2  0  0  0
 35 45  1  0  0  0
 35 68  1  0  0  0
 36 56  1  0  0  0
 36108  1  0  0  0
 37 39  1  0  0  0
 37 47  1  0  0  0
 37 66  1  0  0  0
 37109  1  0  0  0
 38 43  2  0  0  0
 38 46  1  0  0  0
 38 47  1  0  0  0
 39 64  1  0  0  0
 39 67  2  0  0  0
 40 52  1  0  0  0
 40 53  2  0  0  0
 40 58  1  0  0  0
 41110  1  0  0  0
 41111  1  0  0  0
 41112  1  0  0  0
 41 48  1  0  0  0
 42 43  1  0  0  0
 42 66  1  0  0  0
 42113  1  0  0  0
 42114  1  0  0  0
 43 44  1  0  0  0
 44115  1  0  0  0
 45 46  2  0  0  0
 45116  1  0  0  0
 46117  1  0  0  0
 47118  1  0  0  0
 47119  1  0  0  0
 48 56  1  0  0  0
 48 65  1  0  0  0
 48120  1  0  0  0
 49 50  1  0  0  0
 49 53  1  0  0  0
 49 64  1  0  0  0
 49121  1  0  0  0
 50 51  1  0  0  0
 50122  1  0  0  0
 50123  1  0  0  0
 51 52  1  0  0  0
 51124  1  0  0  0
 51125  1  0  0  0
 52126  1  0  0  0
 52127  1  0  0  0
 53 54  1  0  0  0
 54 55  2  0  0  0
 54128  1  0  0  0
 55 57  1  0  0  0
 55129  1  0  0  0
 56 69  2  0  0  0
 57 58  2  0  0  0
 57130  1  0  0  0
 58131  1  0  0  0
 59 60  1  0  0  0
 59 61  1  0  0  0
 59 62  1  0  0  0
 60132  1  0  0  0
 60133  1  0  0  0
 60134  1  0  0  0
 61135  1  0  0  0
 61136  1  0  0  0
 61137  1  0  0  0
 62138  1  0  0  0
 62139  1  0  0  0
 62140  1  0  0  0
 63 65  1  0  0  0
 63141  1  0  0  0
 63142  1  0  0  0
 63143  1  0  0  0
 64144  1  0  0  0
 65145  1  0  0  0
 68 83  1  0  0  0
 71 73  1  0  0  0
 71 74  2  0  0  0
 71146  1  0  0  0
 72 73  2  0  0  0
 72 85  1  0  0  0
 72147  1  0  0  0
 73 84  1  0  0  0
 74 82  1  0  0  0
 74 85  1  0  0  0
 75148  1  0  0  0
 75149  1  0  0  0
 75150  1  0  0  0
 75 82  1  0  0  0
 76 82  1  0  0  0
 76151  1  0  0  0
 76152  1  0  0  0
 76153  1  0  0  0
 77154  1  0  0  0
 77155  1  0  0  0
 77156  1  0  0  0
 77 83  1  0  0  0
 78157  1  0  0  0
 78158  1  0  0  0
 78159  1  0  0  0
 78 84  1  0  0  0
 79 84  1  0  0  0
 79160  1  0  0  0
 79161  1  0  0  0
 79162  1  0  0  0
 80 81  1  0  0  0
 80 85  1  0  0  0
 80163  1  0  0  0
 80164  1  0  0  0
 81 86  1  0  0  0
 81165  1  0  0  0
 81166  1  0  0  0
 82167  1  0  0  0
 83 84  1  0  0  0
 83168  1  0  0  0
 86169  1  0  0  0
M  ISO  4   1 100  68 101  83 101  86 100
M  END
> <chiral flag>
0

> <version>
0

> <s_m_source_file>
/data/baiqing/PycharmProjects/Reinvent-master-3.2/result/LINK_invent/BTK/process_docking_weight1_custom_sum_contain_oxygen_bond_distance_aromatic_linkinvent_7_9_3/rearranged_h_0111.sdf

> <i_m_source_file_index>
86

> <r_mmod_Potential_Energy-OPLS-2005>
225.749481201172

> <r_mmod_Stretch_Energy-OPLS-2005>
156.726867675781

> <r_mmod_Bend_Energy-OPLS-2005>
254.468414306641

> <r_mmod_Torsional_Energy-OPLS-2005>
232.852722167969

> <r_mmod_Improper_Torsional_Energy-OPLS-2005>
5.35125112533569

> <r_mmod_Van_der_Waal_Energy-OPLS-2005>
108.334030151367

> <r_mmod_Electrostatic_Energy-OPLS-2005>
-433.763122558594

> <r_mmod_Solvation_Energy-OPLS-2005>
-201.225189208984

> <b_mmod_Minimization_Converged-OPLS-2005>
0

> <r_mmod_RMS_Derivative-OPLS-2005>
5.71955394744873

$$$$
86
                    3D
 Structure written by MMmdl.
154162  0  0  1  0            999 V2000
  -30.5497  -15.0010   20.3695 C   0  0  0  0  0  0
  -30.4458  -12.6121   19.5181 C   0  0  0  0  0  0
  -29.5361  -12.5482   18.2682 C   0  0  0  0  0  0
  -28.0686  -12.3230   18.6780 C   0  0  0  0  0  0
  -27.6359  -13.2535   19.8413 C   0  0  2  0  0  0
  -28.6781  -13.3271   20.9803 C   0  0  0  0  0  0
  -25.2494  -13.8249   20.5732 C   0  0  0  0  0  0
  -24.1796  -13.0432   20.9218 C   0  0  0  0  0  0
  -24.6427  -11.6938   20.8737 C   0  0  0  0  0  0
  -23.9150  -10.4290   21.0386 C   0  0  0  0  0  0
  -24.3677   -9.4211   21.9171 C   0  0  0  0  0  0
  -23.6313   -8.2274   22.0774 C   0  0  0  0  0  0
  -22.4294   -8.0304   21.3564 C   0  0  0  0  0  0
  -21.9950   -9.0303   20.4680 C   0  0  0  0  0  0
  -22.7322  -10.2151   20.3060 C   0  0  0  0  0  0
  -21.6855   -6.0770   22.5296 C   0  0  0  0  0  0
  -21.4014   -6.5677   23.8230 C   0  0  0  0  0  0
  -21.3655   -5.6821   24.9190 C   0  0  0  0  0  0
  -21.6047   -4.3089   24.7228 C   0  0  0  0  0  0
  -21.8825   -3.8180   23.4349 C   0  0  0  0  0  0
  -21.9199   -4.6999   22.3402 C   0  0  0  0  0  0
  -22.7821  -13.5207   21.1850 C   0  0  0  0  0  0
  -22.1663   -4.2174   21.0974 F   0  0  0  0  0  0
  -21.5618   -3.4570   25.7741 F   0  0  0  0  0  0
  -29.9586  -13.7332   20.3777 N   0  0  0  0  0  0
  -26.2930  -12.9480   20.3289 N   0  0  0  0  0  0
  -25.9354  -11.6603   20.5747 N   0  0  0  0  0  0
  -22.0515  -12.8177   22.0438 N   0  0  0  0  0  0
  -25.4119  -15.1977   20.4144 N   0  0  0  0  0  0
  -31.7457  -15.0522   20.0577 O   0  0  0  0  0  0
  -21.6642   -6.8910   21.4249 O   0  0  0  0  0  0
  -22.3500  -14.5529   20.6736 O   0  0  0  0  0  0
  -24.6463  -31.8437   23.1794 C   0  0  0  0  0  0
  -25.9210  -32.4694   23.8268 C   0  0  1  0  0  0
  -27.2509  -27.1286   20.1388 C   0  0  0  0  0  0
  -25.5926  -33.8506   24.2196 N   0  0  0  0  0  0
  -23.4510  -30.4558   21.5294 C   0  0  2  0  0  0
  -24.9065  -28.8734   20.1105 C   0  0  0  0  0  0
  -22.7572  -29.4575   22.4878 C   0  0  0  0  0  0
  -18.0337  -28.1341   22.8502 C   0  0  0  0  0  0
  -24.1487  -36.7252   23.2658 C   0  0  0  0  0  0
  -26.0087  -30.7101   21.3833 C   0  0  0  0  0  0
  -26.0830  -29.3189   20.7262 C   0  0  0  0  0  0
  -27.2515  -28.4629   20.7250 C   0  0  0  0  0  0
  -26.0462  -26.7895   19.4850 C   0  0  0  0  0  0
  -24.9016  -27.6195   19.4792 C   0  0  0  0  0  0
  -23.6742  -29.7694   20.1551 C   0  0  0  0  0  0
  -25.4124  -36.3023   24.0339 C   0  0  1  0  0  0
  -20.5923  -28.3725   23.1213 C   0  0  2  0  0  0
  -20.6817  -26.9442   22.5413 C   0  0  0  0  0  0
  -19.5795  -26.6368   21.5253 C   0  0  0  0  0  0
  -18.1998  -26.7875   22.1681 C   0  0  0  0  0  0
  -19.1573  -28.8869   23.2826 C   0  0  0  0  0  0
  -18.9468  -30.1469   23.8831 C   0  0  0  0  0  0
  -17.6456  -30.6539   24.0521 C   0  0  0  0  0  0
  -25.9083  -34.9404   23.5105 C   0  0  0  0  0  0
  -16.5372  -29.9003   23.6278 C   0  0  0  0  0  0
  -16.7328  -28.6414   23.0348 C   0  0  0  0  0  0
  -26.4493  -31.6557   25.0725 C   0  0  0  0  0  0
  -25.3644  -31.3791   26.1407 C   0  0  0  0  0  0
  -27.0381  -30.2950   24.6341 C   0  0  0  0  0  0
  -27.6016  -32.4330   25.7507 C   0  0  0  0  0  0
  -27.5578  -37.1797   24.8470 C   0  0  0  0  0  0
  -21.4264  -29.3077   22.3599 N   0  0  0  0  0  0
  -26.4290  -37.3730   23.9407 N   0  0  0  0  0  0
  -24.7206  -31.0253   22.0840 N   0  0  0  0  0  0
  -23.4199  -28.8193   23.3100 O   0  0  0  0  0  0
  -28.3221  -26.1533   20.2013 O   0  0  0  0  0  0
  -26.5690  -34.8909   22.4697 O   0  0  0  0  0  0
  -23.5594  -32.1378   23.6983 O   0  0  0  0  0  0
  -29.7912  -19.8304   23.1445 C   0  0  0  0  0  0
  -30.0303  -18.7098   22.3244 C   0  0  0  0  0  0
  -29.3609  -20.8394   22.3432 C   0  0  0  0  0  0
  -29.7214  -18.9923   21.0224 C   0  0  0  0  0  0
  -30.5721  -23.6132   19.8659 C   0  0  0  0  0  0
  -29.8910  -17.7195   20.0176 C   0  0  0  0  0  0
  -28.8682  -21.6436   20.0349 C   0  0  0  0  0  0
  -28.1613  -24.6287   19.8579 C   0  0  0  0  0  0
  -29.1363  -23.3211   20.3438 C   0  0  2  0  0  0
  -29.3489  -20.4685   21.0016 N   0  0  0  0  0  0
  -29.7717  -16.1939   20.4848 N   0  0  0  0  0  0
  -31.4837  -12.7579   19.2124 H   0  0  0  0  0  0
  -30.4276  -11.6693   20.0677 H   0  0  0  0  0  0
  -29.8662  -11.7550   17.5977 H   0  0  0  0  0  0
  -29.6214  -13.4815   17.7094 H   0  0  0  0  0  0
  -27.9729  -11.2840   18.9933 H   0  0  0  0  0  0
  -27.4136  -12.4506   17.8146 H   0  0  0  0  0  0
  -27.5854  -14.2447   19.3975 H   0  0  0  0  0  0
  -28.7728  -12.3744   21.5011 H   0  0  0  0  0  0
  -28.3647  -14.0585   21.7265 H   0  0  0  0  0  0
  -25.2831   -9.5678   22.4731 H   0  0  0  0  0  0
  -24.0050   -7.4663   22.7471 H   0  0  0  0  0  0
  -21.0912   -8.8855   19.8955 H   0  0  0  0  0  0
  -22.3820  -10.9707   19.6172 H   0  0  0  0  0  0
  -21.2015   -7.6179   23.9750 H   0  0  0  0  0  0
  -21.1454   -6.0537   25.9093 H   0  0  0  0  0  0
  -22.0590   -2.7640   23.2848 H   0  0  0  0  0  0
  -22.4170  -11.9800   22.4736 H   0  0  0  0  0  0
  -21.1142  -13.1182   22.2716 H   0  0  0  0  0  0
  -24.6355  -15.8457   20.5024 H   0  0  0  0  0  0
  -26.2609  -15.6467   20.0948 H   0  0  0  0  0  0
  -26.7310  -32.5273   23.1043 H   0  0  0  0  0  0
  -24.9916  -33.9659   25.0232 H   0  0  0  0  0  0
  -22.7566  -31.2854   21.3662 H   0  0  0  0  0  0
  -23.3745  -35.9581   23.3289 H   0  0  0  0  0  0
  -24.3562  -36.8921   22.2074 H   0  0  0  0  0  0
  -23.7266  -37.6467   23.6695 H   0  0  0  0  0  0
  -26.1754  -31.4647   20.6115 H   0  0  0  0  0  0
  -26.8694  -30.7562   22.0403 H   0  0  0  0  0  0
  -28.1448  -28.8047   21.2315 H   0  0  0  0  0  0
  -25.9639  -25.8369   18.9854 H   0  0  0  0  0  0
  -24.0078  -27.2670   18.9838 H   0  0  0  0  0  0
  -23.7874  -30.5343   19.3857 H   0  0  0  0  0  0
  -22.7901  -29.1992   19.8617 H   0  0  0  0  0  0
  -25.1305  -36.1874   25.0833 H   0  0  0  0  0  0
  -21.0065  -28.3347   24.1321 H   0  0  0  0  0  0
  -20.5777  -26.2401   23.3657 H   0  0  0  0  0  0
  -21.6666  -26.7466   22.1175 H   0  0  0  0  0  0
  -19.7001  -25.6313   21.1246 H   0  0  0  0  0  0
  -19.6652  -27.3178   20.6794 H   0  0  0  0  0  0
  -17.4283  -26.6599   21.4079 H   0  0  0  0  0  0
  -18.0399  -26.0049   22.9119 H   0  0  0  0  0  0
  -19.7915  -30.7323   24.2205 H   0  0  0  0  0  0
  -17.4957  -31.6196   24.5119 H   0  0  0  0  0  0
  -15.5361  -30.2874   23.7525 H   0  0  0  0  0  0
  -15.8750  -28.0693   22.7117 H   0  0  0  0  0  0
  -24.5814  -30.7139   25.7732 H   0  0  0  0  0  0
  -24.8832  -32.2993   26.4721 H   0  0  0  0  0  0
  -25.7896  -30.9052   27.0265 H   0  0  0  0  0  0
  -26.3029  -29.6670   24.1304 H   0  0  0  0  0  0
  -27.3923  -29.7249   25.4938 H   0  0  0  0  0  0
  -27.8930  -30.4172   23.9698 H   0  0  0  0  0  0
  -27.2585  -33.3659   26.2002 H   0  0  0  0  0  0
  -28.3838  -32.6894   25.0331 H   0  0  0  0  0  0
  -28.0644  -31.8522   26.5512 H   0  0  0  0  0  0
  -28.2606  -38.0080   24.7475 H   0  0  0  0  0  0
  -28.1079  -36.2629   24.6308 H   0  0  0  0  0  0
  -27.2301  -37.1423   25.8875 H   0  0  0  0  0  0
  -20.9492  -29.8775   21.6763 H   0  0  0  0  0  0
  -26.0172  -38.2831   24.1297 H   0  0  0  0  0  0
  -29.9069  -19.8993   24.2166 H   0  0  0  0  0  0
  -30.3764  -17.7477   22.6734 H   0  0  0  0  0  0
  -29.0518  -21.8249   22.6520 H   0  0  0  0  0  0
  -31.2871  -22.9569   20.3625 H   0  0  0  0  0  0
  -30.8802  -24.6440   20.0583 H   0  0  0  0  0  0
  -30.6560  -23.4332   18.7920 H   0  0  0  0  0  0
  -29.1643  -17.8479   19.2147 H   0  0  0  0  0  0
  -30.8595  -17.8104   19.5270 H   0  0  0  0  0  0
  -29.2171  -21.4052   19.0280 H   0  0  0  0  0  0
  -27.7866  -21.5311   19.9606 H   0  0  0  0  0  0
  -28.1765  -24.5982   18.7682 H   0  0  0  0  0  0
  -27.1467  -24.3521   20.1450 H   0  0  0  0  0  0
  -29.1362  -23.4555   21.4230 H   0  0  0  0  0  0
  -28.8285  -15.9804   20.7702 H   0  0  0  0  0  0
  1 25  1  0  0  0
  1 30  2  0  0  0
  1 81  1  0  0  0
  2  3  1  0  0  0
  2 25  1  0  0  0
  2 82  1  0  0  0
  2 83  1  0  0  0
  3  4  1  0  0  0
  3 84  1  0  0  0
  3 85  1  0  0  0
  4  5  1  0  0  0
  4 86  1  0  0  0
  4 87  1  0  0  0
  5  6  1  0  0  0
  5 26  1  0  0  0
  5 88  1  0  0  0
  6 25  1  0  0  0
  6 89  1  0  0  0
  6 90  1  0  0  0
  7  8  2  0  0  0
  7 26  1  0  0  0
  7 29  1  0  0  0
  8  9  1  0  0  0
  8 22  1  0  0  0
  9 10  1  0  0  0
  9 27  2  0  0  0
 10 11  2  0  0  0
 10 15  1  0  0  0
 11 12  1  0  0  0
 11 91  1  0  0  0
 12 13  2  0  0  0
 12 92  1  0  0  0
 13 14  1  0  0  0
 13 31  1  0  0  0
 14 15  2  0  0  0
 14 93  1  0  0  0
 15 94  1  0  0  0
 16 17  2  0  0  0
 16 21  1  0  0  0
 16 31  1  0  0  0
 17 18  1  0  0  0
 17 95  1  0  0  0
 18 19  2  0  0  0
 18 96  1  0  0  0
 19 20  1  0  0  0
 19 24  1  0  0  0
 20 21  2  0  0  0
 20 97  1  0  0  0
 21 23  1  0  0  0
 22 28  1  0  0  0
 22 32  2  0  0  0
 26 27  1  0  0  0
 28 98  1  0  0  0
 28 99  1  0  0  0
 29100  1  0  0  0
 29101  1  0  0  0
 33 34  1  0  0  0
 33 66  1  0  0  0
 33 70  2  0  0  0
 34 36  1  0  0  0
 34 59  1  0  0  0
 34102  1  0  0  0
 35 44  2  0  0  0
 35 45  1  0  0  0
 35 68  1  0  0  0
 36 56  1  0  0  0
 36103  1  0  0  0
 37 39  1  0  0  0
 37 47  1  0  0  0
 37 66  1  0  0  0
 37104  1  0  0  0
 38 43  2  0  0  0
 38 46  1  0  0  0
 38 47  1  0  0  0
 39 64  1  0  0  0
 39 67  2  0  0  0
 40 52  1  0  0  0
 40 53  2  0  0  0
 40 58  1  0  0  0
 41105  1  0  0  0
 41106  1  0  0  0
 41107  1  0  0  0
 41 48  1  0  0  0
 42 43  1  0  0  0
 42 66  1  0  0  0
 42108  1  0  0  0
 42109  1  0  0  0
 43 44  1  0  0  0
 44110  1  0  0  0
 45 46  2  0  0  0
 45111  1  0  0  0
 46112  1  0  0  0
 47113  1  0  0  0
 47114  1  0  0  0
 48 56  1  0  0  0
 48 65  1  0  0  0
 48115  1  0  0  0
 49 50  1  0  0  0
 49 53  1  0  0  0
 49 64  1  0  0  0
 49116  1  0  0  0
 50 51  1  0  0  0
 50117  1  0  0  0
 50118  1  0  0  0
 51 52  1  0  0  0
 51119  1  0  0  0
 51120  1  0  0  0
 52121  1  0  0  0
 52122  1  0  0  0
 53 54  1  0  0  0
 54 55  2  0  0  0
 54123  1  0  0  0
 55 57  1  0  0  0
 55124  1  0  0  0
 56 69  2  0  0  0
 57 58  2  0  0  0
 57125  1  0  0  0
 58126  1  0  0  0
 59 60  1  0  0  0
 59 61  1  0  0  0
 59 62  1  0  0  0
 60127  1  0  0  0
 60128  1  0  0  0
 60129  1  0  0  0
 61130  1  0  0  0
 61131  1  0  0  0
 61132  1  0  0  0
 62133  1  0  0  0
 62134  1  0  0  0
 62135  1  0  0  0
 63 65  1  0  0  0
 63136  1  0  0  0
 63137  1  0  0  0
 63138  1  0  0  0
 64139  1  0  0  0
 65140  1  0  0  0
 68 78  1  0  0  0
 71 72  1  0  0  0
 71 73  2  0  0  0
 71141  1  0  0  0
 72 74  2  0  0  0
 72142  1  0  0  0
 73 80  1  0  0  0
 73143  1  0  0  0
 74 76  1  0  0  0
 74 80  1  0  0  0
 75144  1  0  0  0
 75145  1  0  0  0
 75146  1  0  0  0
 75 79  1  0  0  0
 76 81  1  0  0  0
 76147  1  0  0  0
 76148  1  0  0  0
 77 79  1  0  0  0
 77 80  1  0  0  0
 77149  1  0  0  0
 77150  1  0  0  0
 78 79  1  0  0  0
 78151  1  0  0  0
 78152  1  0  0  0
 79153  1  0  0  0
 81154  1  0  0  0
M  ISO  4   1 100  68 101  78 101  81 100
M  END
> <chiral flag>
0

> <version>
0

> <s_m_source_file>
/data/baiqing/PycharmProjects/Reinvent-master-3.2/result/LINK_invent/BTK/process_docking_weight1_custom_sum_contain_oxygen_bond_distance_aromatic_linkinvent_7_9_3/rearranged_h_0111.sdf

> <i_m_source_file_index>
87

> <r_mmod_Potential_Energy-OPLS-2005>
598.503051757812

> <r_mmod_Stretch_Energy-OPLS-2005>
322.543395996094

> <r_mmod_Bend_Energy-OPLS-2005>
334.600036621094

> <r_mmod_Torsional_Energy-OPLS-2005>
220.669891357422

> <r_mmod_Improper_Torsional_Energy-OPLS-2005>
6.06494140625

> <r_mmod_Van_der_Waal_Energy-OPLS-2005>
112.433792114258

> <r_mmod_Electrostatic_Energy-OPLS-2005>
-393.826354980469

> <r_mmod_Solvation_Energy-OPLS-2005>
-218.746688842773

> <b_mmod_Minimization_Converged-OPLS-2005>
0

> <r_mmod_RMS_Derivative-OPLS-2005>
5.6193208694458

$$$$
87
                    3D
 Structure written by MMmdl.
160169  0  0  1  0            999 V2000
  -30.6961  -14.5155   20.5532 C   0  0  0  0  0  0
  -30.4214  -12.3294   19.4330 C   0  0  0  0  0  0
  -29.4977  -12.5077   18.2108 C   0  0  0  0  0  0
  -28.0198  -12.3623   18.6235 C   0  0  0  0  0  0
  -27.6587  -13.2132   19.8711 C   0  0  2  0  0  0
  -28.7017  -13.0289   20.9962 C   0  0  0  0  0  0
  -25.2580  -13.8170   20.5682 C   0  0  0  0  0  0
  -24.1841  -13.0436   20.9179 C   0  0  0  0  0  0
  -24.6404  -11.6907   20.8732 C   0  0  0  0  0  0
  -23.9068  -10.4294   21.0407 C   0  0  0  0  0  0
  -24.3619   -9.4211   21.9184 C   0  0  0  0  0  0
  -23.6297   -8.2245   22.0754 C   0  0  0  0  0  0
  -22.4277   -8.0282   21.3547 C   0  0  0  0  0  0
  -21.9912   -9.0255   20.4648 C   0  0  0  0  0  0
  -22.7240  -10.2135   20.3060 C   0  0  0  0  0  0
  -21.6856   -6.0740   22.5283 C   0  0  0  0  0  0
  -21.4019   -6.5644   23.8214 C   0  0  0  0  0  0
  -21.3657   -5.6796   24.9174 C   0  0  0  0  0  0
  -21.6043   -4.3059   24.7228 C   0  0  0  0  0  0
  -21.8817   -3.8151   23.4350 C   0  0  0  0  0  0
  -21.9194   -4.6968   22.3405 C   0  0  0  0  0  0
  -22.7865  -13.5235   21.1831 C   0  0  0  0  0  0
  -22.1660   -4.2151   21.0984 F   0  0  0  0  0  0
  -21.5625   -3.4540   25.7742 F   0  0  0  0  0  0
  -30.0268  -13.3344   20.4352 N   0  0  0  0  0  0
  -26.3019  -12.9349   20.3361 N   0  0  0  0  0  0
  -25.9336  -11.6503   20.5769 N   0  0  0  0  0  0
  -22.0504  -12.8233   22.0392 N   0  0  0  0  0  0
  -25.4280  -15.1888   20.4070 N   0  0  0  0  0  0
  -31.8363  -14.6736   20.1101 O   0  0  0  0  0  0
  -21.6639   -6.8883   21.4245 O   0  0  0  0  0  0
  -22.3559  -14.5548   20.6684 O   0  0  0  0  0  0
  -24.6210  -31.8650   23.2091 C   0  0  0  0  0  0
  -25.9082  -32.4809   23.8395 C   0  0  1  0  0  0
  -27.2262  -27.3869   20.0835 C   0  0  0  0  0  0
  -25.5922  -33.8610   24.2320 N   0  0  0  0  0  0
  -23.4096  -30.4928   21.5506 C   0  0  2  0  0  0
  -24.8519  -28.9608   20.1104 C   0  0  0  0  0  0
  -22.7437  -29.4654   22.4959 C   0  0  0  0  0  0
  -18.0277  -28.1377   22.8484 C   0  0  0  0  0  0
  -24.1490  -36.7308   23.2637 C   0  0  0  0  0  0
  -25.9462  -30.8170   21.3686 C   0  0  0  0  0  0
  -26.0202  -29.4522   20.7056 C   0  0  0  0  0  0
  -27.2090  -28.6754   20.6860 C   0  0  0  0  0  0
  -26.0218  -26.9235   19.4968 C   0  0  0  0  0  0
  -24.8496  -27.6977   19.5027 C   0  0  0  0  0  0
  -23.6192  -29.8347   20.1627 C   0  0  0  0  0  0
  -25.4111  -36.3104   24.0334 C   0  0  1  0  0  0
  -20.5870  -28.3676   23.1294 C   0  0  2  0  0  0
  -20.6773  -26.9409   22.5408 C   0  0  0  0  0  0
  -19.5753  -26.6383   21.5206 C   0  0  0  0  0  0
  -18.1930  -26.7924   22.1617 C   0  0  0  0  0  0
  -19.1528  -28.8842   23.2885 C   0  0  0  0  0  0
  -18.9459  -30.1443   23.8907 C   0  0  0  0  0  0
  -17.6466  -30.6585   24.0563 C   0  0  0  0  0  0
  -25.9040  -34.9469   23.5121 C   0  0  0  0  0  0
  -16.5352  -29.9087   23.6327 C   0  0  0  0  0  0
  -16.7267  -28.6500   23.0351 C   0  0  0  0  0  0
  -26.4491  -31.6595   25.0737 C   0  0  0  0  0  0
  -25.3744  -31.3713   26.1474 C   0  0  0  0  0  0
  -27.0318  -30.3030   24.6134 C   0  0  0  0  0  0
  -27.6058  -32.4321   25.7505 C   0  0  0  0  0  0
  -27.5581  -37.1809   24.8466 C   0  0  0  0  0  0
  -21.4159  -29.3045   22.3705 N   0  0  0  0  0  0
  -26.4294  -37.3793   23.9410 N   0  0  0  0  0  0
  -24.6779  -31.0721   22.1008 N   0  0  0  0  0  0
  -23.4193  -28.8179   23.3002 O   0  0  0  0  0  0
  -28.3657  -26.5847   20.1551 O   0  0  0  0  0  0
  -26.5599  -34.8925   22.4681 O   0  0  0  0  0  0
  -23.5393  -32.1417   23.7463 O   0  0  0  0  0  0
  -30.7088  -21.3396   20.4348 C   0  0  0  0  0  0
  -30.8907  -20.0447   20.8469 C   0  0  0  0  0  0
  -28.7149  -20.3594   20.4944 C   0  0  0  0  0  0
  -29.3210  -21.5610   20.1949 C   0  0  0  0  0  0
  -28.5380  -25.4319   19.3940 C   0  0  0  0  0  0
  -30.1224  -17.3031   23.5824 C   0  0  0  0  0  0
  -28.9923  -18.0269   22.8319 C   0  0  0  0  0  0
  -31.2286  -17.0578   22.5561 C   0  0  0  0  0  0
  -29.3468  -18.0192   21.3294 C   0  0  2  0  0  0
  -30.4932  -16.9552   21.2115 C   0  0  2  0  0  0
  -28.6452  -22.8328   19.6534 C   0  0  0  0  0  0
  -29.1806  -24.2255   20.1354 C   0  0  0  0  0  0
  -29.6593  -19.4069   20.8842 N   0  0  0  0  0  0
  -29.9985  -15.5607   21.0534 N   0  0  0  0  0  0
  -28.1993  -25.3267   18.2111 O   0  0  0  0  0  0
  -31.4674  -12.4213   19.1356 H   0  0  0  0  0  0
  -30.3182  -11.3255   19.8472 H   0  0  0  0  0  0
  -29.7441  -11.7763   17.4397 H   0  0  0  0  0  0
  -29.6608  -13.4903   17.7651 H   0  0  0  0  0  0
  -27.8389  -11.3069   18.8297 H   0  0  0  0  0  0
  -27.3676  -12.6234   17.7889 H   0  0  0  0  0  0
  -27.6915  -14.2563   19.5568 H   0  0  0  0  0  0
  -28.6868  -12.0023   21.3663 H   0  0  0  0  0  0
  -28.4620  -13.6557   21.8562 H   0  0  0  0  0  0
  -25.2764   -9.5686   22.4758 H   0  0  0  0  0  0
  -24.0000   -7.4644   22.7485 H   0  0  0  0  0  0
  -21.0839   -8.8782   19.8963 H   0  0  0  0  0  0
  -22.3702  -10.9674   19.6170 H   0  0  0  0  0  0
  -21.2016   -7.6150   23.9719 H   0  0  0  0  0  0
  -21.1477   -6.0525   25.9076 H   0  0  0  0  0  0
  -22.0598   -2.7613   23.2850 H   0  0  0  0  0  0
  -22.4108  -11.9892   22.4784 H   0  0  0  0  0  0
  -21.1128  -13.1274   22.2600 H   0  0  0  0  0  0
  -24.6552  -15.8388   20.5020 H   0  0  0  0  0  0
  -26.2718  -15.6260   20.0592 H   0  0  0  0  0  0
  -26.7148  -32.5500   23.1149 H   0  0  0  0  0  0
  -25.0104  -33.9761   25.0489 H   0  0  0  0  0  0
  -22.7015  -31.3126   21.4150 H   0  0  0  0  0  0
  -23.3750  -35.9643   23.3317 H   0  0  0  0  0  0
  -24.3580  -36.8908   22.2047 H   0  0  0  0  0  0
  -23.7242  -37.6518   23.6643 H   0  0  0  0  0  0
  -26.0697  -31.5862   20.6046 H   0  0  0  0  0  0
  -26.8297  -30.8622   21.9940 H   0  0  0  0  0  0
  -28.1074  -29.0487   21.1575 H   0  0  0  0  0  0
  -25.9485  -25.9430   19.0503 H   0  0  0  0  0  0
  -23.9488  -27.3068   19.0504 H   0  0  0  0  0  0
  -23.7379  -30.6155   19.4105 H   0  0  0  0  0  0
  -22.7395  -29.2639   19.8594 H   0  0  0  0  0  0
  -25.1289  -36.1968   25.0827 H   0  0  0  0  0  0
  -20.9962  -28.3249   24.1410 H   0  0  0  0  0  0
  -20.5673  -26.2290   23.3601 H   0  0  0  0  0  0
  -21.6646  -26.7449   22.1204 H   0  0  0  0  0  0
  -19.6925  -25.6294   21.1235 H   0  0  0  0  0  0
  -19.6696  -27.3192   20.6736 H   0  0  0  0  0  0
  -17.4202  -26.6666   21.4016 H   0  0  0  0  0  0
  -18.0339  -26.0053   22.9005 H   0  0  0  0  0  0
  -19.7937  -30.7247   24.2291 H   0  0  0  0  0  0
  -17.5024  -31.6266   24.5162 H   0  0  0  0  0  0
  -15.5355  -30.3003   23.7640 H   0  0  0  0  0  0
  -15.8661  -28.0824   22.7073 H   0  0  0  0  0  0
  -24.5923  -30.7052   25.7819 H   0  0  0  0  0  0
  -24.8926  -32.2868   26.4917 H   0  0  0  0  0  0
  -25.8082  -30.8893   27.0242 H   0  0  0  0  0  0
  -26.2870  -29.6798   24.1170 H   0  0  0  0  0  0
  -27.4060  -29.7262   25.4602 H   0  0  0  0  0  0
  -27.8724  -30.4351   23.9317 H   0  0  0  0  0  0
  -27.2673  -33.3618   26.2096 H   0  0  0  0  0  0
  -28.3860  -32.6885   25.0324 H   0  0  0  0  0  0
  -28.0737  -31.8438   26.5410 H   0  0  0  0  0  0
  -28.2602  -38.0104   24.7505 H   0  0  0  0  0  0
  -28.1068  -36.2630   24.6299 H   0  0  0  0  0  0
  -27.2293  -37.1471   25.8868 H   0  0  0  0  0  0
  -20.9328  -29.8792   21.6943 H   0  0  0  0  0  0
  -26.0183  -38.2873   24.1409 H   0  0  0  0  0  0
  -31.5081  -22.0568   20.3047 H   0  0  0  0  0  0
  -31.8028  -19.5307   21.1139 H   0  0  0  0  0  0
  -27.6677  -20.0847   20.4552 H   0  0  0  0  0  0
  -29.7554  -16.3477   23.9611 H   0  0  0  0  0  0
  -30.4839  -17.8720   24.4394 H   0  0  0  0  0  0
  -28.8636  -19.0407   23.2141 H   0  0  0  0  0  0
  -28.0472  -17.5093   22.9997 H   0  0  0  0  0  0
  -31.8284  -16.1776   22.7914 H   0  0  0  0  0  0
  -31.9114  -17.9067   22.5549 H   0  0  0  0  0  0
  -28.4838  -17.6942   20.7462 H   0  0  0  0  0  0
  -31.1540  -17.1929   20.3752 H   0  0  0  0  0  0
  -27.5805  -22.7695   19.8835 H   0  0  0  0  0  0
  -28.7161  -22.7775   18.5662 H   0  0  0  0  0  0
  -29.0175  -24.3373   21.2067 H   0  0  0  0  0  0
  -30.2565  -24.2803   19.9712 H   0  0  0  0  0  0
  -29.0579  -15.3698   21.3632 H   0  0  0  0  0  0
  1 25  1  0  0  0
  1 30  2  0  0  0
  1 84  1  0  0  0
  2  3  1  0  0  0
  2 25  1  0  0  0
  2 86  1  0  0  0
  2 87  1  0  0  0
  3  4  1  0  0  0
  3 88  1  0  0  0
  3 89  1  0  0  0
  4  5  1  0  0  0
  4 90  1  0  0  0
  4 91  1  0  0  0
  5  6  1  0  0  0
  5 26  1  0  0  0
  5 92  1  0  0  0
  6 25  1  0  0  0
  6 93  1  0  0  0
  6 94  1  0  0  0
  7  8  2  0  0  0
  7 26  1  0  0  0
  7 29  1  0  0  0
  8  9  1  0  0  0
  8 22  1  0  0  0
  9 10  1  0  0  0
  9 27  2  0  0  0
 10 11  2  0  0  0
 10 15  1  0  0  0
 11 12  1  0  0  0
 11 95  1  0  0  0
 12 13  2  0  0  0
 12 96  1  0  0  0
 13 14  1  0  0  0
 13 31  1  0  0  0
 14 15  2  0  0  0
 14 97  1  0  0  0
 15 98  1  0  0  0
 16 17  2  0  0  0
 16 21  1  0  0  0
 16 31  1  0  0  0
 17 18  1  0  0  0
 17 99  1  0  0  0
 18 19  2  0  0  0
 18100  1  0  0  0
 19 20  1  0  0  0
 19 24  1  0  0  0
 20 21  2  0  0  0
 20101  1  0  0  0
 21 23  1  0  0  0
 22 28  1  0  0  0
 22 32  2  0  0  0
 26 27  1  0  0  0
 28102  1  0  0  0
 28103  1  0  0  0
 29104  1  0  0  0
 29105  1  0  0  0
 33 34  1  0  0  0
 33 66  1  0  0  0
 33 70  2  0  0  0
 34 36  1  0  0  0
 34 59  1  0  0  0
 34106  1  0  0  0
 35 44  2  0  0  0
 35 45  1  0  0  0
 35 68  1  0  0  0
 36 56  1  0  0  0
 36107  1  0  0  0
 37 39  1  0  0  0
 37 47  1  0  0  0
 37 66  1  0  0  0
 37108  1  0  0  0
 38 43  2  0  0  0
 38 46  1  0  0  0
 38 47  1  0  0  0
 39 64  1  0  0  0
 39 67  2  0  0  0
 40 52  1  0  0  0
 40 53  2  0  0  0
 40 58  1  0  0  0
 41109  1  0  0  0
 41110  1  0  0  0
 41111  1  0  0  0
 41 48  1  0  0  0
 42 43  1  0  0  0
 42 66  1  0  0  0
 42112  1  0  0  0
 42113  1  0  0  0
 43 44  1  0  0  0
 44114  1  0  0  0
 45 46  2  0  0  0
 45115  1  0  0  0
 46116  1  0  0  0
 47117  1  0  0  0
 47118  1  0  0  0
 48 56  1  0  0  0
 48 65  1  0  0  0
 48119  1  0  0  0
 49 50  1  0  0  0
 49 53  1  0  0  0
 49 64  1  0  0  0
 49120  1  0  0  0
 50 51  1  0  0  0
 50121  1  0  0  0
 50122  1  0  0  0
 51 52  1  0  0  0
 51123  1  0  0  0
 51124  1  0  0  0
 52125  1  0  0  0
 52126  1  0  0  0
 53 54  1  0  0  0
 54 55  2  0  0  0
 54127  1  0  0  0
 55 57  1  0  0  0
 55128  1  0  0  0
 56 69  2  0  0  0
 57 58  2  0  0  0
 57129  1  0  0  0
 58130  1  0  0  0
 59 60  1  0  0  0
 59 61  1  0  0  0
 59 62  1  0  0  0
 60131  1  0  0  0
 60132  1  0  0  0
 60133  1  0  0  0
 61134  1  0  0  0
 61135  1  0  0  0
 61136  1  0  0  0
 62137  1  0  0  0
 62138  1  0  0  0
 62139  1  0  0  0
 63 65  1  0  0  0
 63140  1  0  0  0
 63141  1  0  0  0
 63142  1  0  0  0
 64143  1  0  0  0
 65144  1  0  0  0
 68 75  1  0  0  0
 71 72  2  0  0  0
 71 74  1  0  0  0
 71145  1  0  0  0
 72 83  1  0  0  0
 72146  1  0  0  0
 73 74  2  0  0  0
 73 83  1  0  0  0
 73147  1  0  0  0
 74 81  1  0  0  0
 75 82  1  0  0  0
 75 85  2  0  0  0
 76 77  1  0  0  0
 76 78  1  0  0  0
 76148  1  0  0  0
 76149  1  0  0  0
 77 79  1  0  0  0
 77150  1  0  0  0
 77151  1  0  0  0
 78 80  1  0  0  0
 78152  1  0  0  0
 78153  1  0  0  0
 79 80  1  0  0  0
 79 83  1  0  0  0
 79154  1  0  0  0
 80 84  1  0  0  0
 80155  1  0  0  0
 81 82  1  0  0  0
 81156  1  0  0  0
 81157  1  0  0  0
 82158  1  0  0  0
 82159  1  0  0  0
 84160  1  0  0  0
M  ISO  4   1 100  68 101  75 101  84 100
M  END
> <chiral flag>
0

> <version>
0

> <s_m_source_file>
/data/baiqing/PycharmProjects/Reinvent-master-3.2/result/LINK_invent/BTK/process_docking_weight1_custom_sum_contain_oxygen_bond_distance_aromatic_linkinvent_7_9_3/rearranged_h_0111.sdf

> <i_m_source_file_index>
88

> <r_mmod_Potential_Energy-OPLS-2005>
5.50540781021118

> <r_mmod_Stretch_Energy-OPLS-2005>
50.2389030456543

> <r_mmod_Bend_Energy-OPLS-2005>
127.001853942871

> <r_mmod_Torsional_Energy-OPLS-2005>
279.627685546875

> <r_mmod_Improper_Torsional_Energy-OPLS-2005>
3.73054313659668

> <r_mmod_Van_der_Waal_Energy-OPLS-2005>
129.630401611328

> <r_mmod_Electrostatic_Energy-OPLS-2005>
-391.470550537109

> <r_mmod_Solvation_Energy-OPLS-2005>
-215.90202331543

> <b_mmod_Minimization_Converged-OPLS-2005>
0

> <r_mmod_RMS_Derivative-OPLS-2005>
1.02203047275543

$$$$
88
                    3D
 Structure written by MMmdl.
167175  0  0  1  0            999 V2000
  -30.6265  -14.5247   20.4910 C   0  0  0  0  0  0
  -30.4409  -12.2864   19.4507 C   0  0  0  0  0  0
  -29.5244  -12.4181   18.2156 C   0  0  0  0  0  0
  -28.0250  -12.3589   18.6069 C   0  0  0  0  0  0
  -27.6568  -13.1825   19.8759 C   0  0  2  0  0  0
  -28.7032  -12.9697   20.9943 C   0  0  0  0  0  0
  -25.2418  -13.7943   20.5522 C   0  0  0  0  0  0
  -24.1745  -13.0270   20.9216 C   0  0  0  0  0  0
  -24.6329  -11.6761   20.8797 C   0  0  0  0  0  0
  -23.8994  -10.4185   21.0457 C   0  0  0  0  0  0
  -24.3545   -9.4099   21.9221 C   0  0  0  0  0  0
  -23.6222   -8.2148   22.0756 C   0  0  0  0  0  0
  -22.4220   -8.0209   21.3544 C   0  0  0  0  0  0
  -21.9856   -9.0174   20.4647 C   0  0  0  0  0  0
  -22.7180  -10.2050   20.3085 C   0  0  0  0  0  0
  -21.6804   -6.0705   22.5293 C   0  0  0  0  0  0
  -21.3976   -6.5622   23.8222 C   0  0  0  0  0  0
  -21.3620   -5.6779   24.9194 C   0  0  0  0  0  0
  -21.6034   -4.3046   24.7245 C   0  0  0  0  0  0
  -21.8826   -3.8142   23.4373 C   0  0  0  0  0  0
  -21.9188   -4.6945   22.3417 C   0  0  0  0  0  0
  -22.7763  -13.5098   21.1872 C   0  0  0  0  0  0
  -22.1655   -4.2144   21.1002 F   0  0  0  0  0  0
  -21.5629   -3.4531   25.7755 F   0  0  0  0  0  0
  -30.0329  -13.2975   20.4392 N   0  0  0  0  0  0
  -26.2955  -12.9138   20.3350 N   0  0  0  0  0  0
  -25.9266  -11.6326   20.5837 N   0  0  0  0  0  0
  -22.0393  -12.8159   22.0462 N   0  0  0  0  0  0
  -25.3742  -15.1603   20.3533 N   0  0  0  0  0  0
  -31.7542  -14.7550   20.0438 O   0  0  0  0  0  0
  -21.6571   -6.8824   21.4240 O   0  0  0  0  0  0
  -22.3487  -14.5431   20.6705 O   0  0  0  0  0  0
  -24.6175  -31.8654   23.2108 C   0  0  0  0  0  0
  -25.9068  -32.4792   23.8386 C   0  0  1  0  0  0
  -27.2400  -27.4169   20.0731 C   0  0  0  0  0  0
  -25.5920  -33.8590   24.2303 N   0  0  0  0  0  0
  -23.4052  -30.4902   21.5535 C   0  0  2  0  0  0
  -24.8493  -28.9618   20.1129 C   0  0  0  0  0  0
  -22.7408  -29.4650   22.5010 C   0  0  0  0  0  0
  -18.0253  -28.1401   22.8491 C   0  0  0  0  0  0
  -24.1471  -36.7272   23.2644 C   0  0  0  0  0  0
  -25.9377  -30.8266   21.3667 C   0  0  0  0  0  0
  -26.0133  -29.4626   20.7086 C   0  0  0  0  0  0
  -27.2045  -28.6951   20.6877 C   0  0  0  0  0  0
  -26.0407  -26.9324   19.4939 C   0  0  0  0  0  0
  -24.8600  -27.6963   19.5076 C   0  0  0  0  0  0
  -23.6108  -29.8259   20.1678 C   0  0  0  0  0  0
  -25.4093  -36.3081   24.0345 C   0  0  1  0  0  0
  -20.5846  -28.3661   23.1330 C   0  0  2  0  0  0
  -20.6733  -26.9398   22.5434 C   0  0  0  0  0  0
  -19.5727  -26.6398   21.5212 C   0  0  0  0  0  0
  -18.1901  -26.7951   22.1614 C   0  0  0  0  0  0
  -19.1507  -28.8847   23.2900 C   0  0  0  0  0  0
  -18.9438  -30.1454   23.8901 C   0  0  0  0  0  0
  -17.6445  -30.6602   24.0559 C   0  0  0  0  0  0
  -25.9043  -34.9461   23.5113 C   0  0  0  0  0  0
  -16.5330  -29.9093   23.6355 C   0  0  0  0  0  0
  -16.7243  -28.6519   23.0361 C   0  0  0  0  0  0
  -26.4487  -31.6583   25.0727 C   0  0  0  0  0  0
  -25.3738  -31.3716   26.1462 C   0  0  0  0  0  0
  -27.0296  -30.3010   24.6137 C   0  0  0  0  0  0
  -27.6050  -32.4305   25.7488 C   0  0  0  0  0  0
  -27.5566  -37.1765   24.8458 C   0  0  0  0  0  0
  -21.4136  -29.3019   22.3730 N   0  0  0  0  0  0
  -26.4257  -37.3786   23.9448 N   0  0  0  0  0  0
  -24.6724  -31.0742   22.1023 N   0  0  0  0  0  0
  -23.4166  -28.8179   23.3053 O   0  0  0  0  0  0
  -28.4198  -26.6853   20.1123 O   0  0  0  0  0  0
  -26.5595  -34.8928   22.4678 O   0  0  0  0  0  0
  -23.5359  -32.1417   23.7491 O   0  0  0  0  0  0
  -29.6519  -22.6859   21.5180 C   0  0  0  0  0  0
  -29.1128  -23.9214   21.0919 C   0  0  0  0  0  0
  -30.3567  -21.8642   20.6025 C   0  0  0  0  0  0
  -29.3047  -24.3340   19.7594 C   0  0  0  0  0  0
  -30.5088  -22.3708   19.2835 C   0  0  0  0  0  0
  -31.2157  -21.6052   18.1741 C   0  0  0  0  0  0
  -28.5980  -16.1766   18.0673 C   0  0  0  0  0  0
  -28.1446  -17.2581   20.9173 C   0  0  0  0  0  0
  -30.9458  -20.5033   21.0579 C   0  0  0  0  0  0
  -28.6617  -25.6086   19.1766 C   0  0  0  0  0  0
  -29.6026  -17.0335   18.8507 C   0  0  0  0  0  0
  -30.5540  -17.9630   21.0102 C   0  0  0  0  0  0
  -29.5640  -16.9116   20.4079 C   0  0  1  0  0  0
  -29.9990  -23.5632   18.8881 N   0  0  0  0  0  0
  -29.7781  -15.5109   20.8594 N   0  0  0  0  0  0
  -30.0745  -19.3494   20.7116 N   0  3  0  0  0  0
  -31.4888  -12.3866   19.1607 H   0  0  0  0  0  0
  -30.3413  -11.2882   19.8801 H   0  0  0  0  0  0
  -29.7425  -11.6191   17.5055 H   0  0  0  0  0  0
  -29.7830  -13.3231   17.6760 H   0  0  0  0  0  0
  -27.7924  -11.3084   18.7860 H   0  0  0  0  0  0
  -27.4006  -12.6651   17.7664 H   0  0  0  0  0  0
  -27.6815  -14.2277   19.5999 H   0  0  0  0  0  0
  -28.6860  -11.9331   21.3369 H   0  0  0  0  0  0
  -28.4591  -13.5646   21.8746 H   0  0  0  0  0  0
  -25.2672   -9.5578   22.4821 H   0  0  0  0  0  0
  -23.9931   -7.4518   22.7453 H   0  0  0  0  0  0
  -21.0809   -8.8655   19.8932 H   0  0  0  0  0  0
  -22.3613  -10.9584   19.6215 H   0  0  0  0  0  0
  -21.1944   -7.6121   23.9715 H   0  0  0  0  0  0
  -21.1437   -6.0514   25.9085 H   0  0  0  0  0  0
  -22.0658   -2.7608   23.2880 H   0  0  0  0  0  0
  -22.3949  -11.9803   22.4884 H   0  0  0  0  0  0
  -21.1034  -13.1236   22.2715 H   0  0  0  0  0  0
  -24.5479  -15.7493   20.3763 H   0  0  0  0  0  0
  -26.1473  -15.5797   19.8587 H   0  0  0  0  0  0
  -26.7125  -32.5485   23.1128 H   0  0  0  0  0  0
  -25.0034  -33.9741   25.0419 H   0  0  0  0  0  0
  -22.6964  -31.3089   21.4161 H   0  0  0  0  0  0
  -23.3753  -35.9583   23.3295 H   0  0  0  0  0  0
  -24.3555  -36.8906   22.2062 H   0  0  0  0  0  0
  -23.7205  -37.6471   23.6651 H   0  0  0  0  0  0
  -26.0584  -31.5966   20.6031 H   0  0  0  0  0  0
  -26.8233  -30.8732   21.9889 H   0  0  0  0  0  0
  -28.1042  -29.0804   21.1476 H   0  0  0  0  0  0
  -25.9607  -25.9545   19.0483 H   0  0  0  0  0  0
  -23.9592  -27.2988   19.0603 H   0  0  0  0  0  0
  -23.7130  -30.5996   19.4060 H   0  0  0  0  0  0
  -22.7348  -29.2407   19.8788 H   0  0  0  0  0  0
  -25.1263  -36.1920   25.0832 H   0  0  0  0  0  0
  -20.9932  -28.3227   24.1451 H   0  0  0  0  0  0
  -20.5641  -26.2250   23.3614 H   0  0  0  0  0  0
  -21.6609  -26.7458   22.1222 H   0  0  0  0  0  0
  -19.6886  -25.6312   21.1237 H   0  0  0  0  0  0
  -19.6690  -27.3202   20.6737 H   0  0  0  0  0  0
  -17.4185  -26.6712   21.3999 H   0  0  0  0  0  0
  -18.0280  -26.0083   22.9002 H   0  0  0  0  0  0
  -19.7911  -30.7258   24.2282 H   0  0  0  0  0  0
  -17.5006  -31.6285   24.5153 H   0  0  0  0  0  0
  -15.5335  -30.2988   23.7714 H   0  0  0  0  0  0
  -15.8635  -28.0842   22.7099 H   0  0  0  0  0  0
  -24.5925  -30.7047   25.7801 H   0  0  0  0  0  0
  -24.8909  -32.2881   26.4855 H   0  0  0  0  0  0
  -25.8080  -30.8922   27.0243 H   0  0  0  0  0  0
  -26.2833  -29.6779   24.1194 H   0  0  0  0  0  0
  -27.4043  -29.7249   25.4609 H   0  0  0  0  0  0
  -27.8682  -30.4300   23.9293 H   0  0  0  0  0  0
  -27.2679  -33.3620   26.2042 H   0  0  0  0  0  0
  -28.3870  -32.6844   25.0321 H   0  0  0  0  0  0
  -28.0694  -31.8443   26.5430 H   0  0  0  0  0  0
  -28.2555  -38.0090   24.7564 H   0  0  0  0  0  0
  -28.1085  -36.2628   24.6177 H   0  0  0  0  0  0
  -27.2292  -37.1314   25.8860 H   0  0  0  0  0  0
  -20.9306  -29.8694   21.6908 H   0  0  0  0  0  0
  -26.0137  -38.2848   24.1514 H   0  0  0  0  0  0
  -29.5073  -22.3732   22.5429 H   0  0  0  0  0  0
  -28.5427  -24.5377   21.7776 H   0  0  0  0  0  0
  -31.6009  -20.6324   18.4737 H   0  0  0  0  0  0
  -32.0525  -22.1828   17.7806 H   0  0  0  0  0  0
  -30.5217  -21.4303   17.3516 H   0  0  0  0  0  0
  -28.4727  -16.5477   17.0499 H   0  0  0  0  0  0
  -27.6065  -16.1617   18.5163 H   0  0  0  0  0  0
  -28.9478  -15.1590   17.9819 H   0  0  0  0  0  0
  -27.6739  -18.0572   20.3430 H   0  0  0  0  0  0
  -28.1466  -17.5502   21.9703 H   0  0  0  0  0  0
  -27.4829  -16.4033   20.8498 H   0  0  0  0  0  0
  -31.1029  -20.5180   22.1354 H   0  0  0  0  0  0
  -31.9389  -20.3651   20.6294 H   0  0  0  0  0  0
  -27.7968  -25.2730   18.6145 H   0  0  0  0  0  0
  -29.3348  -26.0146   18.4207 H   0  0  0  0  0  0
  -29.4063  -18.0646   18.5571 H   0  0  0  0  0  0
  -30.6078  -16.8206   18.4810 H   0  0  0  0  0  0
  -31.5518  -17.8169   20.5934 H   0  0  0  0  0  0
  -30.6456  -17.8303   22.0886 H   0  0  0  0  0  0
  -28.9660  -15.1295   21.3197 H   0  0  0  0  0  0
  -29.8706  -19.3827   19.7270 H   0  0  0  0  0  0
  -29.2017  -19.4678   21.1998 H   0  0  0  0  0  0
  1 25  1  0  0  0
  1 30  2  0  0  0
  1 85  1  0  0  0
  2  3  1  0  0  0
  2 25  1  0  0  0
  2 87  1  0  0  0
  2 88  1  0  0  0
  3  4  1  0  0  0
  3 89  1  0  0  0
  3 90  1  0  0  0
  4  5  1  0  0  0
  4 91  1  0  0  0
  4 92  1  0  0  0
  5  6  1  0  0  0
  5 26  1  0  0  0
  5 93  1  0  0  0
  6 25  1  0  0  0
  6 94  1  0  0  0
  6 95  1  0  0  0
  7  8  2  0  0  0
  7 26  1  0  0  0
  7 29  1  0  0  0
  8  9  1  0  0  0
  8 22  1  0  0  0
  9 10  1  0  0  0
  9 27  2  0  0  0
 10 11  2  0  0  0
 10 15  1  0  0  0
 11 12  1  0  0  0
 11 96  1  0  0  0
 12 13  2  0  0  0
 12 97  1  0  0  0
 13 14  1  0  0  0
 13 31  1  0  0  0
 14 15  2  0  0  0
 14 98  1  0  0  0
 15 99  1  0  0  0
 16 17  2  0  0  0
 16 21  1  0  0  0
 16 31  1  0  0  0
 17 18  1  0  0  0
 17100  1  0  0  0
 18 19  2  0  0  0
 18101  1  0  0  0
 19 20  1  0  0  0
 19 24  1  0  0  0
 20 21  2  0  0  0
 20102  1  0  0  0
 21 23  1  0  0  0
 22 28  1  0  0  0
 22 32  2  0  0  0
 26 27  1  0  0  0
 28103  1  0  0  0
 28104  1  0  0  0
 29105  1  0  0  0
 29106  1  0  0  0
 33 34  1  0  0  0
 33 66  1  0  0  0
 33 70  2  0  0  0
 34 36  1  0  0  0
 34 59  1  0  0  0
 34107  1  0  0  0
 35 44  2  0  0  0
 35 45  1  0  0  0
 35 68  1  0  0  0
 36 56  1  0  0  0
 36108  1  0  0  0
 37 39  1  0  0  0
 37 47  1  0  0  0
 37 66  1  0  0  0
 37109  1  0  0  0
 38 43  2  0  0  0
 38 46  1  0  0  0
 38 47  1  0  0  0
 39 64  1  0  0  0
 39 67  2  0  0  0
 40 52  1  0  0  0
 40 53  2  0  0  0
 40 58  1  0  0  0
 41110  1  0  0  0
 41111  1  0  0  0
 41112  1  0  0  0
 41 48  1  0  0  0
 42 43  1  0  0  0
 42 66  1  0  0  0
 42113  1  0  0  0
 42114  1  0  0  0
 43 44  1  0  0  0
 44115  1  0  0  0
 45 46  2  0  0  0
 45116  1  0  0  0
 46117  1  0  0  0
 47118  1  0  0  0
 47119  1  0  0  0
 48 56  1  0  0  0
 48 65  1  0  0  0
 48120  1  0  0  0
 49 50  1  0  0  0
 49 53  1  0  0  0
 49 64  1  0  0  0
 49121  1  0  0  0
 50 51  1  0  0  0
 50122  1  0  0  0
 50123  1  0  0  0
 51 52  1  0  0  0
 51124  1  0  0  0
 51125  1  0  0  0
 52126  1  0  0  0
 52127  1  0  0  0
 53 54  1  0  0  0
 54 55  2  0  0  0
 54128  1  0  0  0
 55 57  1  0  0  0
 55129  1  0  0  0
 56 69  2  0  0  0
 57 58  2  0  0  0
 57130  1  0  0  0
 58131  1  0  0  0
 59 60  1  0  0  0
 59 61  1  0  0  0
 59 62  1  0  0  0
 60132  1  0  0  0
 60133  1  0  0  0
 60134  1  0  0  0
 61135  1  0  0  0
 61136  1  0  0  0
 61137  1  0  0  0
 62138  1  0  0  0
 62139  1  0  0  0
 62140  1  0  0  0
 63 65  1  0  0  0
 63141  1  0  0  0
 63142  1  0  0  0
 63143  1  0  0  0
 64144  1  0  0  0
 65145  1  0  0  0
 68 80  1  0  0  0
 71 72  2  0  0  0
 71 73  1  0  0  0
 71146  1  0  0  0
 72 74  1  0  0  0
 72147  1  0  0  0
 73 75  2  0  0  0
 73 79  1  0  0  0
 74 80  1  0  0  0
 74 84  2  0  0  0
 75 76  1  0  0  0
 75 84  1  0  0  0
 76148  1  0  0  0
 76149  1  0  0  0
 76150  1  0  0  0
 77 81  1  0  0  0
 77151  1  0  0  0
 77152  1  0  0  0
 77153  1  0  0  0
 78154  1  0  0  0
 78155  1  0  0  0
 78156  1  0  0  0
 78 83  1  0  0  0
 79 86  1  0  0  0
 79157  1  0  0  0
 79158  1  0  0  0
 80159  1  0  0  0
 80160  1  0  0  0
 81 83  1  0  0  0
 81161  1  0  0  0
 81162  1  0  0  0
 82 83  1  0  0  0
 82 86  1  0  0  0
 82163  1  0  0  0
 82164  1  0  0  0
 83 85  1  0  0  0
 85165  1  0  0  0
 86166  1  0  0  0
 86167  1  0  0  0
M  CHG  1  86   1
M  ISO  4   1 100  68 101  80 101  85 100
M  END
> <chiral flag>
0

> <version>
0

> <s_m_source_file>
/data/baiqing/PycharmProjects/Reinvent-master-3.2/result/LINK_invent/BTK/process_docking_weight1_custom_sum_contain_oxygen_bond_distance_aromatic_linkinvent_7_9_3/rearranged_h_0111.sdf

> <i_m_source_file_index>
89

> <r_mmod_Potential_Energy-OPLS-2005>
-298.658020019531

> <r_mmod_Stretch_Energy-OPLS-2005>
48.394359588623

> <r_mmod_Bend_Energy-OPLS-2005>
133.429641723633

> <r_mmod_Torsional_Energy-OPLS-2005>
240.470031738281

> <r_mmod_Improper_Torsional_Energy-OPLS-2005>
8.38525676727295

> <r_mmod_Van_der_Waal_Energy-OPLS-2005>
158.755615234375

> <r_mmod_Electrostatic_Energy-OPLS-2005>
-448.440673828125

> <r_mmod_Solvation_Energy-OPLS-2005>
-462.213287353516

> <b_mmod_Minimization_Converged-OPLS-2005>
0

> <r_mmod_RMS_Derivative-OPLS-2005>
3.8293468952179

$$$$
89
                    3D
 Structure written by MMmdl.
164172  0  0  1  0            999 V2000
  -30.3984  -15.3517   20.3564 C   0  0  0  0  0  0
  -30.4362  -12.8649   19.5475 C   0  0  0  0  0  0
  -29.5429  -12.5990   18.3073 C   0  0  0  0  0  0
  -28.0954  -12.3041   18.7326 C   0  0  0  0  0  0
  -27.6100  -13.2843   19.8285 C   0  0  2  0  0  0
  -28.6359  -13.4887   20.9652 C   0  0  0  0  0  0
  -25.2374  -13.8262   20.5756 C   0  0  0  0  0  0
  -24.1736  -13.0438   20.9263 C   0  0  0  0  0  0
  -24.6402  -11.6937   20.8764 C   0  0  0  0  0  0
  -23.9100  -10.4296   21.0402 C   0  0  0  0  0  0
  -24.3641   -9.4209   21.9182 C   0  0  0  0  0  0
  -23.6303   -8.2247   22.0756 C   0  0  0  0  0  0
  -22.4286   -8.0286   21.3544 C   0  0  0  0  0  0
  -21.9928   -9.0265   20.4647 C   0  0  0  0  0  0
  -22.7267  -10.2140   20.3054 C   0  0  0  0  0  0
  -21.6857   -6.0738   22.5276 C   0  0  0  0  0  0
  -21.4019   -6.5640   23.8210 C   0  0  0  0  0  0
  -21.3659   -5.6792   24.9170 C   0  0  0  0  0  0
  -21.6043   -4.3056   24.7221 C   0  0  0  0  0  0
  -21.8818   -3.8148   23.4344 C   0  0  0  0  0  0
  -21.9193   -4.6965   22.3400 C   0  0  0  0  0  0
  -22.7752  -13.5188   21.1902 C   0  0  0  0  0  0
  -22.1661   -4.2150   21.0977 F   0  0  0  0  0  0
  -21.5626   -3.4539   25.7734 F   0  0  0  0  0  0
  -29.8615  -14.0212   20.3432 N   0  0  0  0  0  0
  -26.2808  -12.9553   20.3240 N   0  0  0  0  0  0
  -25.9342  -11.6647   20.5730 N   0  0  0  0  0  0
  -22.0410  -12.8172   22.0455 N   0  0  0  0  0  0
  -25.3988  -15.1997   20.4182 N   0  0  0  0  0  0
  -31.6102  -15.3520   20.0907 O   0  0  0  0  0  0
  -21.6646   -6.8887   21.4241 O   0  0  0  0  0  0
  -22.3431  -14.5487   20.6742 O   0  0  0  0  0  0
  -24.6688  -31.8157   23.1646 C   0  0  0  0  0  0
  -25.9338  -32.4547   23.8135 C   0  0  1  0  0  0
  -27.2225  -26.8600   20.1924 C   0  0  0  0  0  0
  -25.5981  -33.8365   24.2036 N   0  0  0  0  0  0
  -23.4882  -30.4243   21.5142 C   0  0  2  0  0  0
  -24.9446  -28.7995   20.1083 C   0  0  0  0  0  0
  -22.7697  -29.4398   22.4747 C   0  0  0  0  0  0
  -18.0325  -28.1417   22.8460 C   0  0  0  0  0  0
  -24.1488  -36.7187   23.2653 C   0  0  0  0  0  0
  -26.0601  -30.5989   21.4068 C   0  0  0  0  0  0
  -26.1267  -29.1819   20.7524 C   0  0  0  0  0  0
  -27.2543  -28.2332   20.7725 C   0  0  0  0  0  0
  -26.0160  -26.6529   19.4826 C   0  0  0  0  0  0
  -24.9187  -27.5576   19.4522 C   0  0  0  0  0  0
  -23.7324  -29.7343   20.1422 C   0  0  0  0  0  0
  -25.4135  -36.2941   24.0296 C   0  0  1  0  0  0
  -20.5956  -28.3766   23.1168 C   0  0  2  0  0  0
  -20.6799  -26.9438   22.5402 C   0  0  0  0  0  0
  -19.5773  -26.6376   21.5215 C   0  0  0  0  0  0
  -18.1953  -26.7949   22.1616 C   0  0  0  0  0  0
  -19.1589  -28.8913   23.2797 C   0  0  0  0  0  0
  -18.9504  -30.1501   23.8839 C   0  0  0  0  0  0
  -17.6497  -30.6605   24.0556 C   0  0  0  0  0  0
  -25.9108  -34.9328   23.4993 C   0  0  0  0  0  0
  -16.5386  -29.9093   23.6352 C   0  0  0  0  0  0
  -16.7306  -28.6514   23.0366 C   0  0  0  0  0  0
  -26.4572  -31.6525   25.0697 C   0  0  0  0  0  0
  -25.3673  -31.3793   26.1339 C   0  0  0  0  0  0
  -27.0493  -30.2886   24.6492 C   0  0  0  0  0  0
  -27.6048  -32.4362   25.7500 C   0  0  0  0  0  0
  -27.5562  -37.1744   24.8468 C   0  0  0  0  0  0
  -21.4359  -29.3040   22.3501 N   0  0  0  0  0  0
  -26.4270  -37.3689   23.9413 N   0  0  0  0  0  0
  -24.7608  -30.9755   22.0819 N   0  0  0  0  0  0
  -23.4209  -28.7969   23.3013 O   0  0  0  0  0  0
  -28.1991  -25.7138   20.3276 O   0  0  0  0  0  0
  -26.5728  -34.8880   22.4598 O   0  0  0  0  0  0
  -23.5742  -32.1162   23.6694 O   0  0  0  0  0  0
  -28.7371  -22.5382   21.9896 C   0  0  0  0  0  0
  -29.2938  -20.0718   22.1680 C   0  0  0  0  0  0
  -29.0420  -21.3749   22.7455 C   0  0  0  0  0  0
  -28.6353  -22.5554   20.5934 C   0  0  0  0  0  0
  -29.2485  -19.8755   20.7419 C   0  0  0  0  0  0
  -31.0502  -18.3176   22.9782 C   0  0  0  0  0  0
  -28.4900  -17.8682   23.2495 C   0  0  0  0  0  0
  -27.7709  -21.2638   24.7891 C   0  0  0  0  0  0
  -29.8594  -22.6411   24.6755 C   0  0  0  0  0  0
  -29.7019  -18.2870   20.0563 C   0  0  0  0  0  0
  -28.0744  -24.0922   19.8924 C   0  0  0  0  0  0
  -29.6289  -18.8992   23.1269 C   0  0  0  0  0  0
  -28.9077  -21.1762   20.0649 N   0  3  0  0  0  0
  -29.6187  -16.6309   20.4690 N   0  0  0  0  0  0
  -29.0492  -21.5488   24.1448 N   0  0  0  0  0  0
  -31.4536  -13.0745   19.2155 H   0  0  0  0  0  0
  -30.5157  -11.9687   20.1652 H   0  0  0  0  0  0
  -29.9400  -11.7689   17.7216 H   0  0  0  0  0  0
  -29.5606  -13.4727   17.6544 H   0  0  0  0  0  0
  -28.0665  -11.2842   19.1176 H   0  0  0  0  0  0
  -27.4281  -12.3261   17.8703 H   0  0  0  0  0  0
  -27.5167  -14.2441   19.3192 H   0  0  0  0  0  0
  -28.8189  -12.5622   21.5115 H   0  0  0  0  0  0
  -28.2565  -14.2066   21.6944 H   0  0  0  0  0  0
  -25.2782   -9.5678   22.4767 H   0  0  0  0  0  0
  -24.0001   -7.4642   22.7484 H   0  0  0  0  0  0
  -21.0853   -8.8793   19.8960 H   0  0  0  0  0  0
  -22.3722  -10.9680   19.6171 H   0  0  0  0  0  0
  -21.2017   -7.6149   23.9712 H   0  0  0  0  0  0
  -21.1479   -6.0523   25.9072 H   0  0  0  0  0  0
  -22.0597   -2.7610   23.2843 H   0  0  0  0  0  0
  -22.4035  -11.9840   22.4846 H   0  0  0  0  0  0
  -21.1024  -13.1187   22.2666 H   0  0  0  0  0  0
  -24.6215  -15.8433   20.5202 H   0  0  0  0  0  0
  -26.2283  -15.6391   20.0426 H   0  0  0  0  0  0
  -26.7412  -32.5062   23.0848 H   0  0  0  0  0  0
  -25.0068  -33.9431   25.0143 H   0  0  0  0  0  0
  -22.8056  -31.2582   21.3371 H   0  0  0  0  0  0
  -23.3766  -35.9497   23.3282 H   0  0  0  0  0  0
  -24.3559  -36.8872   22.2073 H   0  0  0  0  0  0
  -23.7225  -37.6356   23.6741 H   0  0  0  0  0  0
  -26.2485  -31.3345   20.6239 H   0  0  0  0  0  0
  -26.9171  -30.6585   22.0655 H   0  0  0  0  0  0
  -28.1409  -28.5202   21.3205 H   0  0  0  0  0  0
  -25.8749  -25.7093   18.9774 H   0  0  0  0  0  0
  -24.0228  -27.2607   18.9245 H   0  0  0  0  0  0
  -23.8905  -30.5009   19.3826 H   0  0  0  0  0  0
  -22.8410  -29.1904   19.8240 H   0  0  0  0  0  0
  -25.1327  -36.1732   25.0783 H   0  0  0  0  0  0
  -21.0043  -28.3388   24.1293 H   0  0  0  0  0  0
  -20.5677  -26.2383   23.3648 H   0  0  0  0  0  0
  -21.6659  -26.7402   22.1206 H   0  0  0  0  0  0
  -19.6933  -25.6272   21.1277 H   0  0  0  0  0  0
  -19.6723  -27.3157   20.6720 H   0  0  0  0  0  0
  -17.4224  -26.6698   21.4019 H   0  0  0  0  0  0
  -18.0344  -26.0101   22.9019 H   0  0  0  0  0  0
  -19.7980  -30.7330   24.2176 H   0  0  0  0  0  0
  -17.5051  -31.6278   24.5171 H   0  0  0  0  0  0
  -15.5385  -30.2975   23.7716 H   0  0  0  0  0  0
  -15.8703  -28.0817   22.7112 H   0  0  0  0  0  0
  -24.5880  -30.7124   25.7639 H   0  0  0  0  0  0
  -24.8839  -32.2992   26.4626 H   0  0  0  0  0  0
  -25.7878  -30.9048   27.0212 H   0  0  0  0  0  0
  -26.3190  -29.6530   24.1477 H   0  0  0  0  0  0
  -27.3979  -29.7292   25.5183 H   0  0  0  0  0  0
  -27.9139  -30.4061   23.9957 H   0  0  0  0  0  0
  -27.2616  -33.3724   26.1914 H   0  0  0  0  0  0
  -28.3934  -32.6825   25.0377 H   0  0  0  0  0  0
  -28.0633  -31.8599   26.5546 H   0  0  0  0  0  0
  -28.2552  -38.0063   24.7519 H   0  0  0  0  0  0
  -28.1079  -36.2587   24.6289 H   0  0  0  0  0  0
  -27.2276  -37.1377   25.8869 H   0  0  0  0  0  0
  -20.9630  -29.8726   21.6615 H   0  0  0  0  0  0
  -26.0112  -38.2740   24.1439 H   0  0  0  0  0  0
  -28.5264  -23.4642   22.5021 H   0  0  0  0  0  0
  -31.7956  -19.1074   23.0787 H   0  0  0  0  0  0
  -31.2491  -17.8139   22.0402 H   0  0  0  0  0  0
  -31.2493  -17.5930   23.7690 H   0  0  0  0  0  0
  -27.6135  -18.3268   23.7087 H   0  0  0  0  0  0
  -28.7808  -17.0317   23.8860 H   0  0  0  0  0  0
  -28.1522  -17.4679   22.2998 H   0  0  0  0  0  0
  -27.0584  -20.8020   24.1028 H   0  0  0  0  0  0
  -27.3140  -22.1750   25.1774 H   0  0  0  0  0  0
  -27.9157  -20.5781   25.6250 H   0  0  0  0  0  0
  -30.7527  -22.8078   24.0705 H   0  0  0  0  0  0
  -30.1872  -22.4104   25.6901 H   0  0  0  0  0  0
  -29.2936  -23.5733   24.7131 H   0  0  0  0  0  0
  -30.7523  -18.4238   19.7979 H   0  0  0  0  0  0
  -29.2043  -18.3047   19.0872 H   0  0  0  0  0  0
  -27.0035  -23.9237   19.7860 H   0  0  0  0  0  0
  -28.4487  -24.0659   18.8696 H   0  0  0  0  0  0
  -29.6929  -19.2722   24.1447 H   0  0  0  0  0  0
  -28.8472  -21.1090   19.0466 H   0  0  0  0  0  0
  -28.6757  -16.4044   20.7458 H   0  0  0  0  0  0
  1 25  1  0  0  0
  1 30  2  0  0  0
  1 84  1  0  0  0
  2  3  1  0  0  0
  2 25  1  0  0  0
  2 86  1  0  0  0
  2 87  1  0  0  0
  3  4  1  0  0  0
  3 88  1  0  0  0
  3 89  1  0  0  0
  4  5  1  0  0  0
  4 90  1  0  0  0
  4 91  1  0  0  0
  5  6  1  0  0  0
  5 26  1  0  0  0
  5 92  1  0  0  0
  6 25  1  0  0  0
  6 93  1  0  0  0
  6 94  1  0  0  0
  7  8  2  0  0  0
  7 26  1  0  0  0
  7 29  1  0  0  0
  8  9  1  0  0  0
  8 22  1  0  0  0
  9 10  1  0  0  0
  9 27  2  0  0  0
 10 11  2  0  0  0
 10 15  1  0  0  0
 11 12  1  0  0  0
 11 95  1  0  0  0
 12 13  2  0  0  0
 12 96  1  0  0  0
 13 14  1  0  0  0
 13 31  1  0  0  0
 14 15  2  0  0  0
 14 97  1  0  0  0
 15 98  1  0  0  0
 16 17  2  0  0  0
 16 21  1  0  0  0
 16 31  1  0  0  0
 17 18  1  0  0  0
 17 99  1  0  0  0
 18 19  2  0  0  0
 18100  1  0  0  0
 19 20  1  0  0  0
 19 24  1  0  0  0
 20 21  2  0  0  0
 20101  1  0  0  0
 21 23  1  0  0  0
 22 28  1  0  0  0
 22 32  2  0  0  0
 26 27  1  0  0  0
 28102  1  0  0  0
 28103  1  0  0  0
 29104  1  0  0  0
 29105  1  0  0  0
 33 34  1  0  0  0
 33 66  1  0  0  0
 33 70  2  0  0  0
 34 36  1  0  0  0
 34 59  1  0  0  0
 34106  1  0  0  0
 35 44  2  0  0  0
 35 45  1  0  0  0
 35 68  1  0  0  0
 36 56  1  0  0  0
 36107  1  0  0  0
 37 39  1  0  0  0
 37 47  1  0  0  0
 37 66  1  0  0  0
 37108  1  0  0  0
 38 43  2  0  0  0
 38 46  1  0  0  0
 38 47  1  0  0  0
 39 64  1  0  0  0
 39 67  2  0  0  0
 40 52  1  0  0  0
 40 53  2  0  0  0
 40 58  1  0  0  0
 41109  1  0  0  0
 41110  1  0  0  0
 41111  1  0  0  0
 41 48  1  0  0  0
 42 43  1  0  0  0
 42 66  1  0  0  0
 42112  1  0  0  0
 42113  1  0  0  0
 43 44  1  0  0  0
 44114  1  0  0  0
 45 46  2  0  0  0
 45115  1  0  0  0
 46116  1  0  0  0
 47117  1  0  0  0
 47118  1  0  0  0
 48 56  1  0  0  0
 48 65  1  0  0  0
 48119  1  0  0  0
 49 50  1  0  0  0
 49 53  1  0  0  0
 49 64  1  0  0  0
 49120  1  0  0  0
 50 51  1  0  0  0
 50121  1  0  0  0
 50122  1  0  0  0
 51 52  1  0  0  0
 51123  1  0  0  0
 51124  1  0  0  0
 52125  1  0  0  0
 52126  1  0  0  0
 53 54  1  0  0  0
 54 55  2  0  0  0
 54127  1  0  0  0
 55 57  1  0  0  0
 55128  1  0  0  0
 56 69  2  0  0  0
 57 58  2  0  0  0
 57129  1  0  0  0
 58130  1  0  0  0
 59 60  1  0  0  0
 59 61  1  0  0  0
 59 62  1  0  0  0
 60131  1  0  0  0
 60132  1  0  0  0
 60133  1  0  0  0
 61134  1  0  0  0
 61135  1  0  0  0
 61136  1  0  0  0
 62137  1  0  0  0
 62138  1  0  0  0
 62139  1  0  0  0
 63 65  1  0  0  0
 63140  1  0  0  0
 63141  1  0  0  0
 63142  1  0  0  0
 64143  1  0  0  0
 65144  1  0  0  0
 68 81  1  0  0  0
 71 73  2  0  0  0
 71 74  1  0  0  0
 71145  1  0  0  0
 72 73  1  0  0  0
 72 75  2  0  0  0
 72 82  1  0  0  0
 73 85  1  0  0  0
 74 81  1  0  0  0
 74 83  2  0  0  0
 75 80  1  0  0  0
 75 83  1  0  0  0
 76146  1  0  0  0
 76147  1  0  0  0
 76148  1  0  0  0
 76 82  1  0  0  0
 77 82  1  0  0  0
 77149  1  0  0  0
 77150  1  0  0  0
 77151  1  0  0  0
 78 85  1  0  0  0
 78152  1  0  0  0
 78153  1  0  0  0
 78154  1  0  0  0
 79 85  1  0  0  0
 79155  1  0  0  0
 79156  1  0  0  0
 79157  1  0  0  0
 80 84  1  0  0  0
 80158  1  0  0  0
 80159  1  0  0  0
 81160  1  0  0  0
 81161  1  0  0  0
 82162  1  0  0  0
 83163  1  0  0  0
 84164  1  0  0  0
M  CHG  1  83   1
M  ISO  4   1 100  68 101  81 101  84 100
M  END
> <chiral flag>
0

> <version>
0

> <s_m_source_file>
/data/baiqing/PycharmProjects/Reinvent-master-3.2/result/LINK_invent/BTK/process_docking_weight1_custom_sum_contain_oxygen_bond_distance_aromatic_linkinvent_7_9_3/rearranged_h_0111.sdf

> <i_m_source_file_index>
90

> <r_mmod_Potential_Energy-OPLS-2005>
1396.23498535156

> <r_mmod_Stretch_Energy-OPLS-2005>
704.384521484375

> <r_mmod_Bend_Energy-OPLS-2005>
480.190185546875

> <r_mmod_Torsional_Energy-OPLS-2005>
233.495239257812

> <r_mmod_Improper_Torsional_Energy-OPLS-2005>
8.38783931732178

> <r_mmod_Van_der_Waal_Energy-OPLS-2005>
138.558959960938

> <r_mmod_Electrostatic_Energy-OPLS-2005>
-306.761505126953

> <r_mmod_Solvation_Energy-OPLS-2005>
-425.2490234375

> <b_mmod_Minimization_Converged-OPLS-2005>
0

> <r_mmod_RMS_Derivative-OPLS-2005>
0.907960295677185

$$$$
90
                    3D
 Structure written by MMmdl.
162170  0  0  1  0            999 V2000
  -30.6927  -14.6792   20.5595 C   0  0  0  0  0  0
  -30.4190  -12.4366   19.4746 C   0  0  0  0  0  0
  -29.5052  -12.5298   18.2356 C   0  0  0  0  0  0
  -28.0305  -12.3592   18.6416 C   0  0  0  0  0  0
  -27.6473  -13.2376   19.8629 C   0  0  2  0  0  0
  -28.6866  -13.1383   20.9983 C   0  0  0  0  0  0
  -25.2534  -13.8225   20.5729 C   0  0  0  0  0  0
  -24.1817  -13.0448   20.9212 C   0  0  0  0  0  0
  -24.6415  -11.6928   20.8724 C   0  0  0  0  0  0
  -23.9083  -10.4311   21.0393 C   0  0  0  0  0  0
  -24.3633   -9.4228   21.9178 C   0  0  0  0  0  0
  -23.6316   -8.2254   22.0750 C   0  0  0  0  0  0
  -22.4301   -8.0293   21.3537 C   0  0  0  0  0  0
  -21.9930   -9.0263   20.4639 C   0  0  0  0  0  0
  -22.7247  -10.2150   20.3054 C   0  0  0  0  0  0
  -21.6861   -6.0746   22.5276 C   0  0  0  0  0  0
  -21.4015   -6.5642   23.8208 C   0  0  0  0  0  0
  -21.3663   -5.6793   24.9167 C   0  0  0  0  0  0
  -21.6041   -4.3055   24.7216 C   0  0  0  0  0  0
  -21.8819   -3.8150   23.4339 C   0  0  0  0  0  0
  -21.9202   -4.6973   22.3397 C   0  0  0  0  0  0
  -22.7832  -13.5232   21.1879 C   0  0  0  0  0  0
  -22.1683   -4.2156   21.0975 F   0  0  0  0  0  0
  -21.5626   -3.4541   25.7732 F   0  0  0  0  0  0
  -30.0011  -13.4892   20.4366 N   0  0  0  0  0  0
  -26.2970  -12.9435   20.3323 N   0  0  0  0  0  0
  -25.9353  -11.6564   20.5739 N   0  0  0  0  0  0
  -22.0496  -12.8204   22.0425 N   0  0  0  0  0  0
  -25.4232  -15.1953   20.4195 N   0  0  0  0  0  0
  -31.7976  -14.7891   20.0189 O   0  0  0  0  0  0
  -21.6655   -6.8893   21.4245 O   0  0  0  0  0  0
  -22.3500  -14.5537   20.6747 O   0  0  0  0  0  0
  -24.6302  -31.8550   23.1989 C   0  0  0  0  0  0
  -25.9128  -32.4753   23.8331 C   0  0  1  0  0  0
  -27.2221  -27.2693   20.1276 C   0  0  0  0  0  0
  -25.5937  -33.8558   24.2258 N   0  0  0  0  0  0
  -23.4277  -30.4775   21.5412 C   0  0  2  0  0  0
  -24.8764  -28.9288   20.1088 C   0  0  0  0  0  0
  -22.7498  -29.4592   22.4900 C   0  0  0  0  0  0
  -18.0288  -28.1392   22.8465 C   0  0  0  0  0  0
  -24.1488  -36.7289   23.2638 C   0  0  0  0  0  0
  -25.9729  -30.7706   21.3793 C   0  0  0  0  0  0
  -26.0462  -29.3942   20.7209 C   0  0  0  0  0  0
  -27.2214  -28.5769   20.7200 C   0  0  0  0  0  0
  -26.0309  -26.8792   19.4704 C   0  0  0  0  0  0
  -24.8734  -27.6793   19.4718 C   0  0  0  0  0  0
  -23.6472  -29.8137   20.1571 C   0  0  0  0  0  0
  -25.4114  -36.3069   24.0324 C   0  0  1  0  0  0
  -20.5889  -28.3705   23.1260 C   0  0  2  0  0  0
  -20.6776  -26.9424   22.5401 C   0  0  0  0  0  0
  -19.5762  -26.6385   21.5198 C   0  0  0  0  0  0
  -18.1944  -26.7932   22.1609 C   0  0  0  0  0  0
  -19.1540  -28.8861   23.2857 C   0  0  0  0  0  0
  -18.9466  -30.1459   23.8882 C   0  0  0  0  0  0
  -17.6469  -30.6591   24.0557 C   0  0  0  0  0  0
  -25.9056  -34.9441   23.5091 C   0  0  0  0  0  0
  -16.5358  -29.9089   23.6332 C   0  0  0  0  0  0
  -16.7275  -28.6509   23.0340 C   0  0  0  0  0  0
  -26.4509  -31.6580   25.0724 C   0  0  0  0  0  0
  -25.3733  -31.3730   26.1448 C   0  0  0  0  0  0
  -27.0368  -30.2998   24.6221 C   0  0  0  0  0  0
  -27.6061  -32.4320   25.7509 C   0  0  0  0  0  0
  -27.5575  -37.1803   24.8462 C   0  0  0  0  0  0
  -21.4202  -29.3050   22.3652 N   0  0  0  0  0  0
  -26.4285  -37.3769   23.9408 N   0  0  0  0  0  0
  -24.6958  -31.0517   22.0966 N   0  0  0  0  0  0
  -23.4194  -28.8123   23.2995 O   0  0  0  0  0  0
  -28.3167  -26.3764   20.2101 O   0  0  0  0  0  0
  -26.5623  -34.8913   22.4661 O   0  0  0  0  0  0
  -23.5458  -32.1369   23.7288 O   0  0  0  0  0  0
  -31.3503  -16.4245   22.7563 C   0  0  0  0  0  0
  -30.0508  -15.6395   22.6866 C   0  0  0  0  0  0
  -30.8721  -17.1298   21.4653 C   0  0  2  0  0  0
  -31.2661  -19.4350   22.5029 C   0  0  0  0  0  0
  -30.3648  -19.4666   19.2966 C   0  0  0  0  0  0
  -29.0766  -23.7782   20.5891 C   0  0  0  0  0  0
  -29.5401  -21.2211   21.0529 C   0  0  0  0  0  0
  -28.0943  -24.9061   19.9813 C   0  0  0  0  0  0
  -30.1882  -18.6017   21.7423 C   0  0  1  0  0  0
  -29.6046  -19.6360   20.6198 C   0  0  2  0  0  0
  -30.1447  -15.7795   21.2288 N   0  0  0  0  0  0
  -28.8356  -22.2969   20.2167 N   0  3  0  0  0  0
  -31.4645  -12.5298   19.1748 H   0  0  0  0  0  0
  -30.3375  -11.4510   19.9368 H   0  0  0  0  0  0
  -29.7805  -11.7720   17.5012 H   0  0  0  0  0  0
  -29.6446  -13.4940   17.7440 H   0  0  0  0  0  0
  -27.8711  -11.3074   18.8793 H   0  0  0  0  0  0
  -27.3758  -12.5868   17.7987 H   0  0  0  0  0  0
  -27.6534  -14.2690   19.5096 H   0  0  0  0  0  0
  -28.7109  -12.1298   21.4136 H   0  0  0  0  0  0
  -28.3977  -13.7959   21.8175 H   0  0  0  0  0  0
  -25.2780   -9.5696   22.4741 H   0  0  0  0  0  0
  -24.0027   -7.4636   22.7469 H   0  0  0  0  0  0
  -21.0861   -8.8777   19.8942 H   0  0  0  0  0  0
  -22.3707  -10.9686   19.6157 H   0  0  0  0  0  0
  -21.2007   -7.6150   23.9708 H   0  0  0  0  0  0
  -21.1487   -6.0529   25.9071 H   0  0  0  0  0  0
  -22.0600   -2.7617   23.2829 H   0  0  0  0  0  0
  -22.4153  -11.9872   22.4786 H   0  0  0  0  0  0
  -21.1109  -13.1174   22.2654 H   0  0  0  0  0  0
  -24.6641  -15.8564   20.5410 H   0  0  0  0  0  0
  -26.2913  -15.6326   20.1336 H   0  0  0  0  0  0
  -26.7198  -32.5408   23.1074 H   0  0  0  0  0  0
  -25.0085  -33.9701   25.0402 H   0  0  0  0  0  0
  -22.7242  -31.2993   21.3950 H   0  0  0  0  0  0
  -23.3746  -35.9624   23.3293 H   0  0  0  0  0  0
  -24.3570  -36.8922   22.2052 H   0  0  0  0  0  0
  -23.7248  -37.6491   23.6671 H   0  0  0  0  0  0
  -26.1100  -31.5316   20.6101 H   0  0  0  0  0  0
  -26.8501  -30.8185   22.0120 H   0  0  0  0  0  0
  -28.1158  -28.9268   21.2167 H   0  0  0  0  0  0
  -25.9601  -25.9326   18.9555 H   0  0  0  0  0  0
  -23.9804  -27.3212   18.9780 H   0  0  0  0  0  0
  -23.7744  -30.5904   19.4024 H   0  0  0  0  0  0
  -22.7661  -29.2472   19.8489 H   0  0  0  0  0  0
  -25.1298  -36.1914   25.0816 H   0  0  0  0  0  0
  -20.9966  -28.3283   24.1380 H   0  0  0  0  0  0
  -20.5660  -26.2320   23.3602 H   0  0  0  0  0  0
  -21.6653  -26.7440   22.1213 H   0  0  0  0  0  0
  -19.6930  -25.6289   21.1244 H   0  0  0  0  0  0
  -19.6705  -27.3172   20.6709 H   0  0  0  0  0  0
  -17.4206  -26.6645   21.4022 H   0  0  0  0  0  0
  -18.0362  -26.0084   22.9017 H   0  0  0  0  0  0
  -19.7946  -30.7272   24.2250 H   0  0  0  0  0  0
  -17.5031  -31.6270   24.5166 H   0  0  0  0  0  0
  -15.5362  -30.2991   23.7675 H   0  0  0  0  0  0
  -15.8670  -28.0838   22.7055 H   0  0  0  0  0  0
  -24.5908  -30.7083   25.7774 H   0  0  0  0  0  0
  -24.8932  -32.2902   26.4867 H   0  0  0  0  0  0
  -25.8054  -30.8909   27.0228 H   0  0  0  0  0  0
  -26.2964  -29.6730   24.1241 H   0  0  0  0  0  0
  -27.4042  -29.7279   25.4753 H   0  0  0  0  0  0
  -27.8841  -30.4269   23.9478 H   0  0  0  0  0  0
  -27.2667  -33.3620   26.2081 H   0  0  0  0  0  0
  -28.3888  -32.6875   25.0353 H   0  0  0  0  0  0
  -28.0713  -31.8446   26.5436 H   0  0  0  0  0  0
  -28.2593  -38.0098   24.7508 H   0  0  0  0  0  0
  -28.1072  -36.2632   24.6292 H   0  0  0  0  0  0
  -27.2294  -37.1456   25.8865 H   0  0  0  0  0  0
  -20.9384  -29.8792   21.6879 H   0  0  0  0  0  0
  -26.0162  -38.2844   24.1404 H   0  0  0  0  0  0
  -32.2440  -15.8089   22.6258 H   0  0  0  0  0  0
  -31.4026  -16.9792   23.6897 H   0  0  0  0  0  0
  -29.1931  -16.1468   23.1303 H   0  0  0  0  0  0
  -30.1549  -14.6306   23.0957 H   0  0  0  0  0  0
  -31.7245  -17.2483   20.7927 H   0  0  0  0  0  0
  -30.8353  -20.2604   23.0661 H   0  0  0  0  0  0
  -32.0011  -19.8444   21.8092 H   0  0  0  0  0  0
  -31.8490  -18.9005   23.2437 H   0  0  0  0  0  0
  -29.9477  -20.0984   18.5113 H   0  0  0  0  0  0
  -30.3043  -18.4364   18.9417 H   0  0  0  0  0  0
  -31.4204  -19.7177   19.4068 H   0  0  0  0  0  0
  -29.0494  -23.8629   21.6757 H   0  0  0  0  0  0
  -30.1004  -24.0206   20.3024 H   0  0  0  0  0  0
  -30.5599  -21.5853   21.1686 H   0  0  0  0  0  0
  -29.0842  -21.2799   22.0425 H   0  0  0  0  0  0
  -27.1043  -24.6484   20.3589 H   0  0  0  0  0  0
  -28.0516  -24.7651   18.9007 H   0  0  0  0  0  0
  -29.3747  -18.4510   22.4531 H   0  0  0  0  0  0
  -28.5796  -19.3177   20.4273 H   0  0  0  0  0  0
  -29.1150  -22.1769   19.2551 H   0  0  0  0  0  0
  -27.8457  -22.1079   20.2552 H   0  0  0  0  0  0
  1 25  1  0  0  0
  1 30  2  0  0  0
  1 81  1  0  0  0
  2  3  1  0  0  0
  2 25  1  0  0  0
  2 83  1  0  0  0
  2 84  1  0  0  0
  3  4  1  0  0  0
  3 85  1  0  0  0
  3 86  1  0  0  0
  4  5  1  0  0  0
  4 87  1  0  0  0
  4 88  1  0  0  0
  5  6  1  0  0  0
  5 26  1  0  0  0
  5 89  1  0  0  0
  6 25  1  0  0  0
  6 90  1  0  0  0
  6 91  1  0  0  0
  7  8  2  0  0  0
  7 26  1  0  0  0
  7 29  1  0  0  0
  8  9  1  0  0  0
  8 22  1  0  0  0
  9 10  1  0  0  0
  9 27  2  0  0  0
 10 11  2  0  0  0
 10 15  1  0  0  0
 11 12  1  0  0  0
 11 92  1  0  0  0
 12 13  2  0  0  0
 12 93  1  0  0  0
 13 14  1  0  0  0
 13 31  1  0  0  0
 14 15  2  0  0  0
 14 94  1  0  0  0
 15 95  1  0  0  0
 16 17  2  0  0  0
 16 21  1  0  0  0
 16 31  1  0  0  0
 17 18  1  0  0  0
 17 96  1  0  0  0
 18 19  2  0  0  0
 18 97  1  0  0  0
 19 20  1  0  0  0
 19 24  1  0  0  0
 20 21  2  0  0  0
 20 98  1  0  0  0
 21 23  1  0  0  0
 22 28  1  0  0  0
 22 32  2  0  0  0
 26 27  1  0  0  0
 28 99  1  0  0  0
 28100  1  0  0  0
 29101  1  0  0  0
 29102  1  0  0  0
 33 34  1  0  0  0
 33 66  1  0  0  0
 33 70  2  0  0  0
 34 36  1  0  0  0
 34 59  1  0  0  0
 34103  1  0  0  0
 35 44  2  0  0  0
 35 45  1  0  0  0
 35 68  1  0  0  0
 36 56  1  0  0  0
 36104  1  0  0  0
 37 39  1  0  0  0
 37 47  1  0  0  0
 37 66  1  0  0  0
 37105  1  0  0  0
 38 43  2  0  0  0
 38 46  1  0  0  0
 38 47  1  0  0  0
 39 64  1  0  0  0
 39 67  2  0  0  0
 40 52  1  0  0  0
 40 53  2  0  0  0
 40 58  1  0  0  0
 41106  1  0  0  0
 41107  1  0  0  0
 41108  1  0  0  0
 41 48  1  0  0  0
 42 43  1  0  0  0
 42 66  1  0  0  0
 42109  1  0  0  0
 42110  1  0  0  0
 43 44  1  0  0  0
 44111  1  0  0  0
 45 46  2  0  0  0
 45112  1  0  0  0
 46113  1  0  0  0
 47114  1  0  0  0
 47115  1  0  0  0
 48 56  1  0  0  0
 48 65  1  0  0  0
 48116  1  0  0  0
 49 50  1  0  0  0
 49 53  1  0  0  0
 49 64  1  0  0  0
 49117  1  0  0  0
 50 51  1  0  0  0
 50118  1  0  0  0
 50119  1  0  0  0
 51 52  1  0  0  0
 51120  1  0  0  0
 51121  1  0  0  0
 52122  1  0  0  0
 52123  1  0  0  0
 53 54  1  0  0  0
 54 55  2  0  0  0
 54124  1  0  0  0
 55 57  1  0  0  0
 55125  1  0  0  0
 56 69  2  0  0  0
 57 58  2  0  0  0
 57126  1  0  0  0
 58127  1  0  0  0
 59 60  1  0  0  0
 59 61  1  0  0  0
 59 62  1  0  0  0
 60128  1  0  0  0
 60129  1  0  0  0
 60130  1  0  0  0
 61131  1  0  0  0
 61132  1  0  0  0
 61133  1  0  0  0
 62134  1  0  0  0
 62135  1  0  0  0
 62136  1  0  0  0
 63 65  1  0  0  0
 63137  1  0  0  0
 63138  1  0  0  0
 63139  1  0  0  0
 64140  1  0  0  0
 65141  1  0  0  0
 68 78  1  0  0  0
 71 72  1  0  0  0
 71142  1  0  0  0
 71143  1  0  0  0
 71 73  1  0  0  0
 72 81  1  0  0  0
 72144  1  0  0  0
 72145  1  0  0  0
 73 79  1  0  0  0
 73 81  1  0  0  0
 73146  1  0  0  0
 74147  1  0  0  0
 74148  1  0  0  0
 74149  1  0  0  0
 74 79  1  0  0  0
 75150  1  0  0  0
 75151  1  0  0  0
 75152  1  0  0  0
 75 80  1  0  0  0
 76 78  1  0  0  0
 76 82  1  0  0  0
 76153  1  0  0  0
 76154  1  0  0  0
 77 80  1  0  0  0
 77 82  1  0  0  0
 77155  1  0  0  0
 77156  1  0  0  0
 78157  1  0  0  0
 78158  1  0  0  0
 79 80  1  0  0  0
 79159  1  0  0  0
 80160  1  0  0  0
 82161  1  0  0  0
 82162  1  0  0  0
M  CHG  1  82   1
M  ISO  4   1 100  68 101  78 101  81 100
M  END
> <chiral flag>
0

> <version>
0

> <s_m_source_file>
/data/baiqing/PycharmProjects/Reinvent-master-3.2/result/LINK_invent/BTK/process_docking_weight1_custom_sum_contain_oxygen_bond_distance_aromatic_linkinvent_7_9_3/rearranged_h_0111.sdf

> <i_m_source_file_index>
91

> <r_mmod_Potential_Energy-OPLS-2005>
260.77294921875

> <r_mmod_Stretch_Energy-OPLS-2005>
149.523590087891

> <r_mmod_Bend_Energy-OPLS-2005>
234.374801635742

> <r_mmod_Torsional_Energy-OPLS-2005>
291.1572265625

> <r_mmod_Improper_Torsional_Energy-OPLS-2005>
9.41775798797607

> <r_mmod_Van_der_Waal_Energy-OPLS-2005>
151.277526855469

> <r_mmod_Electrostatic_Energy-OPLS-2005>
-201.243240356445

> <r_mmod_Solvation_Energy-OPLS-2005>
-442.281677246094

> <b_mmod_Minimization_Converged-OPLS-2005>
0

> <r_mmod_RMS_Derivative-OPLS-2005>
2.14472365379333

$$$$
91
                    3D
 Structure written by MMmdl.
169177  0  0  1  0            999 V2000
  -30.6145  -14.7959   20.3590 C   0  0  0  0  0  0
  -30.4410  -12.4620   19.4738 C   0  0  0  0  0  0
  -29.5134  -12.4026   18.2396 C   0  0  0  0  0  0
  -28.0333  -12.2660   18.6593 C   0  0  0  0  0  0
  -27.6252  -13.1947   19.8345 C   0  0  2  0  0  0
  -28.6866  -13.2283   20.9551 C   0  0  0  0  0  0
  -25.2528  -13.8089   20.5760 C   0  0  0  0  0  0
  -24.1777  -13.0396   20.9249 C   0  0  0  0  0  0
  -24.6317  -11.6860   20.8800 C   0  0  0  0  0  0
  -23.8993  -10.4268   21.0438 C   0  0  0  0  0  0
  -24.3563   -9.4193   21.9203 C   0  0  0  0  0  0
  -23.6260   -8.2221   22.0758 C   0  0  0  0  0  0
  -22.4252   -8.0253   21.3535 C   0  0  0  0  0  0
  -21.9872   -9.0230   20.4647 C   0  0  0  0  0  0
  -22.7180  -10.2119   20.3068 C   0  0  0  0  0  0
  -21.6853   -6.0715   22.5271 C   0  0  0  0  0  0
  -21.4021   -6.5629   23.8202 C   0  0  0  0  0  0
  -21.3665   -5.6783   24.9165 C   0  0  0  0  0  0
  -21.6041   -4.3044   24.7216 C   0  0  0  0  0  0
  -21.8827   -3.8132   23.4340 C   0  0  0  0  0  0
  -21.9200   -4.6945   22.3396 C   0  0  0  0  0  0
  -22.7815  -13.5225   21.1883 C   0  0  0  0  0  0
  -22.1663   -4.2128   21.0974 F   0  0  0  0  0  0
  -21.5630   -3.4533   25.7733 F   0  0  0  0  0  0
  -29.9740  -13.5705   20.3345 N   0  0  0  0  0  0
  -26.2872  -12.9186   20.3327 N   0  0  0  0  0  0
  -25.9229  -11.6382   20.5828 N   0  0  0  0  0  0
  -22.0432  -12.8240   22.0435 N   0  0  0  0  0  0
  -25.4308  -15.1813   20.4212 N   0  0  0  0  0  0
  -31.8437  -14.8358   20.2648 O   0  0  0  0  0  0
  -21.6632   -6.8844   21.4225 O   0  0  0  0  0  0
  -22.3529  -14.5531   20.6709 O   0  0  0  0  0  0
  -24.6284  -31.8563   23.1972 C   0  0  0  0  0  0
  -25.9120  -32.4758   23.8314 C   0  0  1  0  0  0
  -27.2335  -27.2848   20.1311 C   0  0  0  0  0  0
  -25.5915  -33.8559   24.2246 N   0  0  0  0  0  0
  -23.4235  -30.4766   21.5406 C   0  0  2  0  0  0
  -24.8711  -28.9205   20.1142 C   0  0  0  0  0  0
  -22.7480  -29.4604   22.4924 C   0  0  0  0  0  0
  -18.0285  -28.1385   22.8489 C   0  0  0  0  0  0
  -24.1487  -36.7292   23.2639 C   0  0  0  0  0  0
  -25.9648  -30.7793   21.3687 C   0  0  0  0  0  0
  -26.0392  -29.4009   20.7166 C   0  0  0  0  0  0
  -27.2186  -28.5957   20.7113 C   0  0  0  0  0  0
  -26.0363  -26.8583   19.5110 C   0  0  0  0  0  0
  -24.8728  -27.6562   19.5040 C   0  0  0  0  0  0
  -23.6397  -29.8041   20.1584 C   0  0  0  0  0  0
  -25.4112  -36.3071   24.0325 C   0  0  1  0  0  0
  -20.5884  -28.3695   23.1279 C   0  0  2  0  0  0
  -20.6773  -26.9414   22.5414 C   0  0  0  0  0  0
  -19.5749  -26.6386   21.5215 C   0  0  0  0  0  0
  -18.1930  -26.7931   22.1626 C   0  0  0  0  0  0
  -19.1538  -28.8857   23.2878 C   0  0  0  0  0  0
  -18.9463  -30.1459   23.8896 C   0  0  0  0  0  0
  -17.6464  -30.6590   24.0565 C   0  0  0  0  0  0
  -25.9052  -34.9443   23.5092 C   0  0  0  0  0  0
  -16.5354  -29.9090   23.6325 C   0  0  0  0  0  0
  -16.7273  -28.6504   23.0355 C   0  0  0  0  0  0
  -26.4495  -31.6575   25.0696 C   0  0  0  0  0  0
  -25.3725  -31.3739   26.1427 C   0  0  0  0  0  0
  -27.0334  -30.2991   24.6164 C   0  0  0  0  0  0
  -27.6042  -32.4318   25.7481 C   0  0  0  0  0  0
  -27.5574  -37.1799   24.8464 C   0  0  0  0  0  0
  -21.4193  -29.3047   22.3677 N   0  0  0  0  0  0
  -26.4288  -37.3767   23.9408 N   0  0  0  0  0  0
  -24.6914  -31.0550   22.0929 N   0  0  0  0  0  0
  -23.4197  -28.8161   23.3026 O   0  0  0  0  0  0
  -28.3822  -26.4682   20.2032 O   0  0  0  0  0  0
  -26.5632  -34.8921   22.4664 O   0  0  0  0  0  0
  -23.5441  -32.1372   23.7289 O   0  0  0  0  0  0
  -29.7966  -22.0355   19.2545 C   0  0  0  0  0  0
  -28.9070  -21.1728   21.0635 C   0  0  0  0  0  0
  -29.0997  -22.4104   20.4409 C   0  0  0  0  0  0
  -29.9563  -20.6662   19.1731 C   0  0  0  0  0  0
  -32.1143  -19.8362   18.1939 C   0  0  0  0  0  0
  -30.2003  -20.4425   16.6732 C   0  0  0  0  0  0
  -29.8985  -24.3812   21.7903 C   0  0  0  0  0  0
  -27.4653  -23.8212   21.8053 C   0  0  0  0  0  0
  -29.0923  -16.0686   18.9500 C   0  0  0  0  0  0
  -29.1926  -18.5850   20.6369 C   0  0  0  0  0  0
  -30.3214  -17.4116   20.5170 C   0  0  0  0  0  0
  -28.4508  -25.0234   19.8070 C   0  0  0  0  0  0
  -30.5863  -19.8881   18.0538 C   0  0  0  0  0  0
  -28.7248  -23.8896   20.9249 C   0  0  0  0  0  0
  -29.4176  -20.0730   20.3210 N   0  0  0  0  0  0
  -29.8658  -15.9755   20.2006 N   0  0  0  0  0  0
  -31.4773  -12.5951   19.1572 H   0  0  0  0  0  0
  -30.4121  -11.5202   20.0233 H   0  0  0  0  0  0
  -29.7892  -11.5475   17.6208 H   0  0  0  0  0  0
  -29.6624  -13.2703   17.6016 H   0  0  0  0  0  0
  -27.8860  -11.2274   18.9559 H   0  0  0  0  0  0
  -27.3797  -12.4259   17.8010 H   0  0  0  0  0  0
  -27.5494  -14.1763   19.3979 H   0  0  0  0  0  0
  -28.7469  -12.2670   21.4679 H   0  0  0  0  0  0
  -28.4195  -13.9721   21.7078 H   0  0  0  0  0  0
  -25.2697   -9.5701   22.4785 H   0  0  0  0  0  0
  -23.9987   -7.4617   22.7472 H   0  0  0  0  0  0
  -21.0807   -8.8738   19.8945 H   0  0  0  0  0  0
  -22.3625  -10.9665   19.6188 H   0  0  0  0  0  0
  -21.2013   -7.6139   23.9699 H   0  0  0  0  0  0
  -21.1484   -6.0512   25.9067 H   0  0  0  0  0  0
  -22.0604   -2.7591   23.2845 H   0  0  0  0  0  0
  -22.4013  -11.9897   22.4842 H   0  0  0  0  0  0
  -21.1054  -13.1297   22.2611 H   0  0  0  0  0  0
  -24.6769  -15.8480   20.5517 H   0  0  0  0  0  0
  -26.3004  -15.6155   20.1429 H   0  0  0  0  0  0
  -26.7189  -32.5416   23.1060 H   0  0  0  0  0  0
  -25.0034  -33.9693   25.0376 H   0  0  0  0  0  0
  -22.7182  -31.2969   21.3923 H   0  0  0  0  0  0
  -23.3739  -35.9632   23.3299 H   0  0  0  0  0  0
  -24.3578  -36.8920   22.2053 H   0  0  0  0  0  0
  -23.7257  -37.6500   23.6669 H   0  0  0  0  0  0
  -26.0922  -31.5372   20.5942 H   0  0  0  0  0  0
  -26.8475  -30.8360   21.9940 H   0  0  0  0  0  0
  -28.1157  -28.9653   21.1883 H   0  0  0  0  0  0
  -25.9545  -25.8936   19.0384 H   0  0  0  0  0  0
  -23.9751  -27.2788   19.0343 H   0  0  0  0  0  0
  -23.7600  -30.5763   19.3978 H   0  0  0  0  0  0
  -22.7601  -29.2320   19.8579 H   0  0  0  0  0  0
  -25.1295  -36.1908   25.0816 H   0  0  0  0  0  0
  -20.9976  -28.3273   24.1398 H   0  0  0  0  0  0
  -20.5670  -26.2306   23.3623 H   0  0  0  0  0  0
  -21.6644  -26.7442   22.1208 H   0  0  0  0  0  0
  -19.6913  -25.6296   21.1247 H   0  0  0  0  0  0
  -19.6685  -27.3197   20.6747 H   0  0  0  0  0  0
  -17.4202  -26.6678   21.4029 H   0  0  0  0  0  0
  -18.0325  -26.0074   22.9020 H   0  0  0  0  0  0
  -19.7943  -30.7271   24.2266 H   0  0  0  0  0  0
  -17.5023  -31.6271   24.5172 H   0  0  0  0  0  0
  -15.5358  -30.2999   23.7651 H   0  0  0  0  0  0
  -15.8671  -28.0828   22.7071 H   0  0  0  0  0  0
  -24.5883  -30.7104   25.7764 H   0  0  0  0  0  0
  -24.8941  -32.2922   26.4837 H   0  0  0  0  0  0
  -25.8042  -30.8922   27.0209 H   0  0  0  0  0  0
  -26.2909  -29.6741   24.1186 H   0  0  0  0  0  0
  -27.4022  -29.7243   25.4669 H   0  0  0  0  0  0
  -27.8779  -30.4262   23.9389 H   0  0  0  0  0  0
  -27.2634  -33.3620   26.2037 H   0  0  0  0  0  0
  -28.3868  -32.6876   25.0328 H   0  0  0  0  0  0
  -28.0689  -31.8458   26.5420 H   0  0  0  0  0  0
  -28.2591  -38.0094   24.7495 H   0  0  0  0  0  0
  -28.1069  -36.2624   24.6301 H   0  0  0  0  0  0
  -27.2294  -37.1465   25.8868 H   0  0  0  0  0  0
  -20.9375  -29.8763   21.6877 H   0  0  0  0  0  0
  -26.0160  -38.2838   24.1405 H   0  0  0  0  0  0
  -30.1458  -22.7240   18.4978 H   0  0  0  0  0  0
  -28.4095  -20.9672   22.0020 H   0  0  0  0  0  0
  -32.4171  -19.4354   19.1612 H   0  0  0  0  0  0
  -32.5531  -20.8307   18.1026 H   0  0  0  0  0  0
  -32.5581  -19.2055   17.4231 H   0  0  0  0  0  0
  -29.1176  -20.4543   16.5438 H   0  0  0  0  0  0
  -30.6173  -19.8300   15.8734 H   0  0  0  0  0  0
  -30.5650  -21.4601   16.5295 H   0  0  0  0  0  0
  -30.0998  -23.6999   22.6179 H   0  0  0  0  0  0
  -29.6946  -25.3632   22.2191 H   0  0  0  0  0  0
  -30.8137  -24.4648   21.2041 H   0  0  0  0  0  0
  -27.6117  -23.1818   22.6760 H   0  0  0  0  0  0
  -26.6145  -23.4330   21.2456 H   0  0  0  0  0  0
  -27.1882  -24.8099   22.1738 H   0  0  0  0  0  0
  -28.0422  -16.2717   19.1564 H   0  0  0  0  0  0
  -29.1469  -15.1847   18.3242 H   0  0  0  0  0  0
  -29.4502  -16.8627   18.2987 H   0  0  0  0  0  0
  -28.7983  -18.5348   21.6523 H   0  0  0  0  0  0
  -28.3381  -18.3137   20.0223 H   0  0  0  0  0  0
  -30.8831  -17.3851   21.4516 H   0  0  0  0  0  0
  -31.0632  -17.6807   19.7694 H   0  0  0  0  0  0
  -27.6092  -24.7114   19.1958 H   0  0  0  0  0  0
  -29.2932  -24.9880   19.1166 H   0  0  0  0  0  0
  -30.2097  -18.8712   18.0777 H   0  0  0  0  0  0
  1 25  1  0  0  0
  1 30  2  0  0  0
  1 86  1  0  0  0
  2  3  1  0  0  0
  2 25  1  0  0  0
  2 87  1  0  0  0
  2 88  1  0  0  0
  3  4  1  0  0  0
  3 89  1  0  0  0
  3 90  1  0  0  0
  4  5  1  0  0  0
  4 91  1  0  0  0
  4 92  1  0  0  0
  5  6  1  0  0  0
  5 26  1  0  0  0
  5 93  1  0  0  0
  6 25  1  0  0  0
  6 94  1  0  0  0
  6 95  1  0  0  0
  7  8  2  0  0  0
  7 26  1  0  0  0
  7 29  1  0  0  0
  8  9  1  0  0  0
  8 22  1  0  0  0
  9 10  1  0  0  0
  9 27  2  0  0  0
 10 11  2  0  0  0
 10 15  1  0  0  0
 11 12  1  0  0  0
 11 96  1  0  0  0
 12 13  2  0  0  0
 12 97  1  0  0  0
 13 14  1  0  0  0
 13 31  1  0  0  0
 14 15  2  0  0  0
 14 98  1  0  0  0
 15 99  1  0  0  0
 16 17  2  0  0  0
 16 21  1  0  0  0
 16 31  1  0  0  0
 17 18  1  0  0  0
 17100  1  0  0  0
 18 19  2  0  0  0
 18101  1  0  0  0
 19 20  1  0  0  0
 19 24  1  0  0  0
 20 21  2  0  0  0
 20102  1  0  0  0
 21 23  1  0  0  0
 22 28  1  0  0  0
 22 32  2  0  0  0
 26 27  1  0  0  0
 28103  1  0  0  0
 28104  1  0  0  0
 29105  1  0  0  0
 29106  1  0  0  0
 33 34  1  0  0  0
 33 66  1  0  0  0
 33 70  2  0  0  0
 34 36  1  0  0  0
 34 59  1  0  0  0
 34107  1  0  0  0
 35 44  2  0  0  0
 35 45  1  0  0  0
 35 68  1  0  0  0
 36 56  1  0  0  0
 36108  1  0  0  0
 37 39  1  0  0  0
 37 47  1  0  0  0
 37 66  1  0  0  0
 37109  1  0  0  0
 38 43  2  0  0  0
 38 46  1  0  0  0
 38 47  1  0  0  0
 39 64  1  0  0  0
 39 67  2  0  0  0
 40 52  1  0  0  0
 40 53  2  0  0  0
 40 58  1  0  0  0
 41110  1  0  0  0
 41111  1  0  0  0
 41112  1  0  0  0
 41 48  1  0  0  0
 42 43  1  0  0  0
 42 66  1  0  0  0
 42113  1  0  0  0
 42114  1  0  0  0
 43 44  1  0  0  0
 44115  1  0  0  0
 45 46  2  0  0  0
 45116  1  0  0  0
 46117  1  0  0  0
 47118  1  0  0  0
 47119  1  0  0  0
 48 56  1  0  0  0
 48 65  1  0  0  0
 48120  1  0  0  0
 49 50  1  0  0  0
 49 53  1  0  0  0
 49 64  1  0  0  0
 49121  1  0  0  0
 50 51  1  0  0  0
 50122  1  0  0  0
 50123  1  0  0  0
 51 52  1  0  0  0
 51124  1  0  0  0
 51125  1  0  0  0
 52126  1  0  0  0
 52127  1  0  0  0
 53 54  1  0  0  0
 54 55  2  0  0  0
 54128  1  0  0  0
 55 57  1  0  0  0
 55129  1  0  0  0
 56 69  2  0  0  0
 57 58  2  0  0  0
 57130  1  0  0  0
 58131  1  0  0  0
 59 60  1  0  0  0
 59 61  1  0  0  0
 59 62  1  0  0  0
 60132  1  0  0  0
 60133  1  0  0  0
 60134  1  0  0  0
 61135  1  0  0  0
 61136  1  0  0  0
 61137  1  0  0  0
 62138  1  0  0  0
 62139  1  0  0  0
 62140  1  0  0  0
 63 65  1  0  0  0
 63141  1  0  0  0
 63142  1  0  0  0
 63143  1  0  0  0
 64144  1  0  0  0
 65145  1  0  0  0
 68 82  1  0  0  0
 71 73  1  0  0  0
 71 74  2  0  0  0
 71146  1  0  0  0
 72 73  2  0  0  0
 72 85  1  0  0  0
 72147  1  0  0  0
 73 84  1  0  0  0
 74 83  1  0  0  0
 74 85  1  0  0  0
 75148  1  0  0  0
 75149  1  0  0  0
 75150  1  0  0  0
 75 83  1  0  0  0
 76 83  1  0  0  0
 76151  1  0  0  0
 76152  1  0  0  0
 76153  1  0  0  0
 77154  1  0  0  0
 77155  1  0  0  0
 77156  1  0  0  0
 77 84  1  0  0  0
 78 84  1  0  0  0
 78157  1  0  0  0
 78158  1  0  0  0
 78159  1  0  0  0
 79 86  1  0  0  0
 79160  1  0  0  0
 79161  1  0  0  0
 79162  1  0  0  0
 80 81  1  0  0  0
 80 85  1  0  0  0
 80163  1  0  0  0
 80164  1  0  0  0
 81 86  1  0  0  0
 81165  1  0  0  0
 81166  1  0  0  0
 82 84  1  0  0  0
 82167  1  0  0  0
 82168  1  0  0  0
 83169  1  0  0  0
M  ISO  4   1 100  68 101  82 101  86 100
M  END
> <chiral flag>
0

> <version>
0

> <s_m_source_file>
/data/baiqing/PycharmProjects/Reinvent-master-3.2/result/LINK_invent/BTK/process_docking_weight1_custom_sum_contain_oxygen_bond_distance_aromatic_linkinvent_7_9_3/rearranged_h_0111.sdf

> <i_m_source_file_index>
92

> <r_mmod_Potential_Energy-OPLS-2005>
340.571929931641

> <r_mmod_Stretch_Energy-OPLS-2005>
126.536003112793

> <r_mmod_Bend_Energy-OPLS-2005>
200.760787963867

> <r_mmod_Torsional_Energy-OPLS-2005>
314.163665771484

> <r_mmod_Improper_Torsional_Energy-OPLS-2005>
11.602858543396

> <r_mmod_Van_der_Waal_Energy-OPLS-2005>
124.410583496094

> <r_mmod_Electrostatic_Energy-OPLS-2005>
-345.460998535156

> <r_mmod_Solvation_Energy-OPLS-2005>
-192.41032409668

> <b_mmod_Minimization_Converged-OPLS-2005>
0

> <r_mmod_RMS_Derivative-OPLS-2005>
1.40676355361938

$$$$
92
                    3D
 Structure written by MMmdl.
166174  0  0  1  0            999 V2000
  -30.6068  -14.7429   20.4578 C   0  0  0  0  0  0
  -30.4370  -12.4559   19.4693 C   0  0  0  0  0  0
  -29.5095  -12.4984   18.2347 C   0  0  0  0  0  0
  -28.0346  -12.3276   18.6517 C   0  0  0  0  0  0
  -27.6420  -13.2310   19.8501 C   0  0  2  0  0  0
  -28.6877  -13.1627   20.9819 C   0  0  0  0  0  0
  -25.2492  -13.8203   20.5674 C   0  0  0  0  0  0
  -24.1805  -13.0440   20.9231 C   0  0  0  0  0  0
  -24.6417  -11.6922   20.8826 C   0  0  0  0  0  0
  -23.9113  -10.4284   21.0462 C   0  0  0  0  0  0
  -24.3647   -9.4175   21.9219 C   0  0  0  0  0  0
  -23.6312   -8.2216   22.0766 C   0  0  0  0  0  0
  -22.4290   -8.0284   21.3551 C   0  0  0  0  0  0
  -21.9946   -9.0275   20.4656 C   0  0  0  0  0  0
  -22.7302  -10.2138   20.3089 C   0  0  0  0  0  0
  -21.6847   -6.0759   22.5290 C   0  0  0  0  0  0
  -21.4023   -6.5656   23.8238 C   0  0  0  0  0  0
  -21.3652   -5.6791   24.9181 C   0  0  0  0  0  0
  -21.6026   -4.3060   24.7221 C   0  0  0  0  0  0
  -21.8821   -3.8163   23.4344 C   0  0  0  0  0  0
  -21.9189   -4.6986   22.3408 C   0  0  0  0  0  0
  -22.7805  -13.5203   21.1868 C   0  0  0  0  0  0
  -22.1651   -4.2175   21.0978 F   0  0  0  0  0  0
  -21.5615   -3.4535   25.7736 F   0  0  0  0  0  0
  -29.9875  -13.5157   20.3983 N   0  0  0  0  0  0
  -26.2939  -12.9430   20.3309 N   0  0  0  0  0  0
  -25.9347  -11.6571   20.5821 N   0  0  0  0  0  0
  -22.0432  -12.8222   22.0427 N   0  0  0  0  0  0
  -25.4098  -15.1926   20.3963 N   0  0  0  0  0  0
  -31.7987  -14.8516   20.1634 O   0  0  0  0  0  0
  -21.6631   -6.8898   21.4258 O   0  0  0  0  0  0
  -22.3495  -14.5499   20.6682 O   0  0  0  0  0  0
  -24.6315  -31.8554   23.1988 C   0  0  0  0  0  0
  -25.9152  -32.4736   23.8329 C   0  0  1  0  0  0
  -27.2168  -27.2676   20.1369 C   0  0  0  0  0  0
  -25.5965  -33.8542   24.2271 N   0  0  0  0  0  0
  -23.4270  -30.4792   21.5390 C   0  0  2  0  0  0
  -24.8728  -28.9222   20.1132 C   0  0  0  0  0  0
  -22.7496  -29.4615   22.4891 C   0  0  0  0  0  0
  -18.0292  -28.1377   22.8469 C   0  0  0  0  0  0
  -24.1492  -36.7275   23.2633 C   0  0  0  0  0  0
  -25.9727  -30.7717   21.3746 C   0  0  0  0  0  0
  -26.0437  -29.3935   20.7207 C   0  0  0  0  0  0
  -27.2206  -28.5799   20.7174 C   0  0  0  0  0  0
  -26.0246  -26.8600   19.5021 C   0  0  0  0  0  0
  -24.8678  -27.6631   19.4920 C   0  0  0  0  0  0
  -23.6462  -29.8124   20.1546 C   0  0  0  0  0  0
  -25.4112  -36.3053   24.0329 C   0  0  1  0  0  0
  -20.5904  -28.3701   23.1254 C   0  0  2  0  0  0
  -20.6768  -26.9409   22.5411 C   0  0  0  0  0  0
  -19.5755  -26.6382   21.5197 C   0  0  0  0  0  0
  -18.1931  -26.7928   22.1596 C   0  0  0  0  0  0
  -19.1549  -28.8857   23.2857 C   0  0  0  0  0  0
  -18.9469  -30.1449   23.8886 C   0  0  0  0  0  0
  -17.6468  -30.6572   24.0565 C   0  0  0  0  0  0
  -25.9061  -34.9430   23.5095 C   0  0  0  0  0  0
  -16.5360  -29.9073   23.6323 C   0  0  0  0  0  0
  -16.7284  -28.6490   23.0342 C   0  0  0  0  0  0
  -26.4513  -31.6557   25.0722 C   0  0  0  0  0  0
  -25.3752  -31.3723   26.1459 C   0  0  0  0  0  0
  -27.0329  -30.2957   24.6210 C   0  0  0  0  0  0
  -27.6080  -32.4282   25.7500 C   0  0  0  0  0  0
  -27.5569  -37.1785   24.8461 C   0  0  0  0  0  0
  -21.4209  -29.3046   22.3633 N   0  0  0  0  0  0
  -26.4273  -37.3765   23.9415 N   0  0  0  0  0  0
  -24.6963  -31.0544   22.0936 N   0  0  0  0  0  0
  -23.4206  -28.8147   23.2971 O   0  0  0  0  0  0
  -28.3226  -26.3922   20.1487 O   0  0  0  0  0  0
  -26.5614  -34.8905   22.4651 O   0  0  0  0  0  0
  -23.5472  -32.1367   23.7288 O   0  0  0  0  0  0
  -28.4916  -21.7942   21.5792 C   0  0  0  0  0  0
  -29.2192  -21.0517   19.6469 C   0  0  0  0  0  0
  -28.8417  -22.2497   20.2715 C   0  0  0  0  0  0
  -28.6257  -20.4239   21.6904 C   0  0  0  0  0  0
  -26.7843  -19.1991   22.8604 C   0  0  0  0  0  0
  -28.6742  -20.1839   24.2025 C   0  0  0  0  0  0
  -28.9254  -23.4133   17.2169 C   0  0  0  0  0  0
  -29.1145  -18.4240   20.0544 C   0  0  0  0  0  0
  -30.1812  -17.3566   20.6410 C   0  0  0  0  0  0
  -28.1462  -24.9586   20.5792 C   0  0  0  0  0  0
  -28.7948  -23.7564   19.7091 C   0  0  2  0  0  0
  -28.2772  -19.5498   22.8602 C   0  0  0  0  0  0
  -29.0541  -19.9037   20.4674 N   0  0  0  0  0  0
  -29.8177  -15.8659   20.6372 N   0  0  0  0  0  0
  -28.1123  -23.7776   18.3956 N   0  3  0  0  0  0
  -31.4755  -12.5914   19.1629 H   0  0  0  0  0  0
  -30.3930  -11.4822   19.9613 H   0  0  0  0  0  0
  -29.7934  -11.7141   17.5322 H   0  0  0  0  0  0
  -29.6340  -13.4442   17.7028 H   0  0  0  0  0  0
  -27.8859  -11.2828   18.9250 H   0  0  0  0  0  0
  -27.3798  -12.5163   17.8001 H   0  0  0  0  0  0
  -27.6366  -14.2517   19.4676 H   0  0  0  0  0  0
  -28.7253  -12.1637   21.4209 H   0  0  0  0  0  0
  -28.4241  -13.8473   21.7893 H   0  0  0  0  0  0
  -25.2782   -9.5633   22.4809 H   0  0  0  0  0  0
  -24.0009   -7.4594   22.7482 H   0  0  0  0  0  0
  -21.0878   -8.8841   19.8954 H   0  0  0  0  0  0
  -22.3803  -10.9708   19.6207 H   0  0  0  0  0  0
  -21.2036   -7.6160   23.9767 H   0  0  0  0  0  0
  -21.1462   -6.0499   25.9084 H   0  0  0  0  0  0
  -22.0608   -2.7634   23.2839 H   0  0  0  0  0  0
  -22.4009  -11.9884   22.4842 H   0  0  0  0  0  0
  -21.1052  -13.1289   22.2609 H   0  0  0  0  0  0
  -24.6206  -15.8267   20.4567 H   0  0  0  0  0  0
  -26.2250  -15.6197   19.9766 H   0  0  0  0  0  0
  -26.7230  -32.5388   23.1075 H   0  0  0  0  0  0
  -25.0167  -33.9685   25.0450 H   0  0  0  0  0  0
  -22.7242  -31.3029   21.3909 H   0  0  0  0  0  0
  -23.3755  -35.9603   23.3277 H   0  0  0  0  0  0
  -24.3598  -36.8914   22.2053 H   0  0  0  0  0  0
  -23.7243  -37.6471   23.6667 H   0  0  0  0  0  0
  -26.1119  -31.5311   20.6035 H   0  0  0  0  0  0
  -26.8499  -30.8213   22.0066 H   0  0  0  0  0  0
  -28.1198  -28.9366   21.1985 H   0  0  0  0  0  0
  -25.9682  -25.8991   19.0139 H   0  0  0  0  0  0
  -23.9724  -27.3018   19.0043 H   0  0  0  0  0  0
  -23.7780  -30.5888   19.4002 H   0  0  0  0  0  0
  -22.7629  -29.2506   19.8443 H   0  0  0  0  0  0
  -25.1281  -36.1888   25.0821 H   0  0  0  0  0  0
  -21.0000  -28.3274   24.1370 H   0  0  0  0  0  0
  -20.5623  -26.2310   23.3621 H   0  0  0  0  0  0
  -21.6641  -26.7394   22.1234 H   0  0  0  0  0  0
  -19.6919  -25.6291   21.1221 H   0  0  0  0  0  0
  -19.6697  -27.3188   20.6732 H   0  0  0  0  0  0
  -17.4204  -26.6697   21.3984 H   0  0  0  0  0  0
  -18.0310  -26.0057   22.8982 H   0  0  0  0  0  0
  -19.7954  -30.7263   24.2242 H   0  0  0  0  0  0
  -17.5029  -31.6245   24.5175 H   0  0  0  0  0  0
  -15.5359  -30.2968   23.7661 H   0  0  0  0  0  0
  -15.8689  -28.0811   22.7054 H   0  0  0  0  0  0
  -24.6029  -30.6908   25.7873 H   0  0  0  0  0  0
  -24.8812  -32.2879   26.4735 H   0  0  0  0  0  0
  -25.8124  -30.9105   27.0325 H   0  0  0  0  0  0
  -26.2896  -29.6711   24.1241 H   0  0  0  0  0  0
  -27.3995  -29.7205   25.4727 H   0  0  0  0  0  0
  -27.8791  -30.4197   23.9444 H   0  0  0  0  0  0
  -27.2722  -33.3638   26.1978 H   0  0  0  0  0  0
  -28.3949  -32.6732   25.0356 H   0  0  0  0  0  0
  -28.0658  -31.8448   26.5490 H   0  0  0  0  0  0
  -28.2571  -38.0095   24.7510 H   0  0  0  0  0  0
  -28.1073  -36.2624   24.6266 H   0  0  0  0  0  0
  -27.2295  -37.1414   25.8867 H   0  0  0  0  0  0
  -20.9381  -29.8810   21.6885 H   0  0  0  0  0  0
  -26.0139  -38.2826   24.1449 H   0  0  0  0  0  0
  -28.1334  -22.4182   22.3868 H   0  0  0  0  0  0
  -29.5591  -20.8837   18.6346 H   0  0  0  0  0  0
  -26.4840  -18.7238   21.9265 H   0  0  0  0  0  0
  -26.1755  -20.0945   22.9844 H   0  0  0  0  0  0
  -26.5395  -18.5142   23.6721 H   0  0  0  0  0  0
  -29.7406  -20.4075   24.2351 H   0  0  0  0  0  0
  -28.4608  -19.5099   25.0316 H   0  0  0  0  0  0
  -28.1323  -21.1117   24.3874 H   0  0  0  0  0  0
  -28.4125  -23.7296   16.3091 H   0  0  0  0  0  0
  -29.0765  -22.3397   17.1394 H   0  0  0  0  0  0
  -29.8992  -23.9021   17.2281 H   0  0  0  0  0  0
  -28.1200  -18.0244   20.2498 H   0  0  0  0  0  0
  -29.1979  -18.4038   18.9664 H   0  0  0  0  0  0
  -31.1124  -17.4857   20.0849 H   0  0  0  0  0  0
  -30.4306  -17.6177   21.6672 H   0  0  0  0  0  0
  -28.5885  -24.9057   21.5749 H   0  0  0  0  0  0
  -27.0916  -24.7406   20.7498 H   0  0  0  0  0  0
  -29.8362  -24.0465   19.5597 H   0  0  0  0  0  0
  -28.8272  -18.6145   22.7876 H   0  0  0  0  0  0
  -28.8462  -15.6590   20.8130 H   0  0  0  0  0  0
  -27.2849  -23.2029   18.4343 H   0  0  0  0  0  0
  -27.8164  -24.7282   18.2428 H   0  0  0  0  0  0
  1 25  1  0  0  0
  1 30  2  0  0  0
  1 84  1  0  0  0
  2  3  1  0  0  0
  2 25  1  0  0  0
  2 86  1  0  0  0
  2 87  1  0  0  0
  3  4  1  0  0  0
  3 88  1  0  0  0
  3 89  1  0  0  0
  4  5  1  0  0  0
  4 90  1  0  0  0
  4 91  1  0  0  0
  5  6  1  0  0  0
  5 26  1  0  0  0
  5 92  1  0  0  0
  6 25  1  0  0  0
  6 93  1  0  0  0
  6 94  1  0  0  0
  7  8  2  0  0  0
  7 26  1  0  0  0
  7 29  1  0  0  0
  8  9  1  0  0  0
  8 22  1  0  0  0
  9 10  1  0  0  0
  9 27  2  0  0  0
 10 11  2  0  0  0
 10 15  1  0  0  0
 11 12  1  0  0  0
 11 95  1  0  0  0
 12 13  2  0  0  0
 12 96  1  0  0  0
 13 14  1  0  0  0
 13 31  1  0  0  0
 14 15  2  0  0  0
 14 97  1  0  0  0
 15 98  1  0  0  0
 16 17  2  0  0  0
 16 21  1  0  0  0
 16 31  1  0  0  0
 17 18  1  0  0  0
 17 99  1  0  0  0
 18 19  2  0  0  0
 18100  1  0  0  0
 19 20  1  0  0  0
 19 24  1  0  0  0
 20 21  2  0  0  0
 20101  1  0  0  0
 21 23  1  0  0  0
 22 28  1  0  0  0
 22 32  2  0  0  0
 26 27  1  0  0  0
 28102  1  0  0  0
 28103  1  0  0  0
 29104  1  0  0  0
 29105  1  0  0  0
 33 34  1  0  0  0
 33 66  1  0  0  0
 33 70  2  0  0  0
 34 36  1  0  0  0
 34 59  1  0  0  0
 34106  1  0  0  0
 35 44  2  0  0  0
 35 45  1  0  0  0
 35 68  1  0  0  0
 36 56  1  0  0  0
 36107  1  0  0  0
 37 39  1  0  0  0
 37 47  1  0  0  0
 37 66  1  0  0  0
 37108  1  0  0  0
 38 43  2  0  0  0
 38 46  1  0  0  0
 38 47  1  0  0  0
 39 64  1  0  0  0
 39 67  2  0  0  0
 40 52  1  0  0  0
 40 53  2  0  0  0
 40 58  1  0  0  0
 41109  1  0  0  0
 41110  1  0  0  0
 41111  1  0  0  0
 41 48  1  0  0  0
 42 43  1  0  0  0
 42 66  1  0  0  0
 42112  1  0  0  0
 42113  1  0  0  0
 43 44  1  0  0  0
 44114  1  0  0  0
 45 46  2  0  0  0
 45115  1  0  0  0
 46116  1  0  0  0
 47117  1  0  0  0
 47118  1  0  0  0
 48 56  1  0  0  0
 48 65  1  0  0  0
 48119  1  0  0  0
 49 50  1  0  0  0
 49 53  1  0  0  0
 49 64  1  0  0  0
 49120  1  0  0  0
 50 51  1  0  0  0
 50121  1  0  0  0
 50122  1  0  0  0
 51 52  1  0  0  0
 51123  1  0  0  0
 51124  1  0  0  0
 52125  1  0  0  0
 52126  1  0  0  0
 53 54  1  0  0  0
 54 55  2  0  0  0
 54127  1  0  0  0
 55 57  1  0  0  0
 55128  1  0  0  0
 56 69  2  0  0  0
 57 58  2  0  0  0
 57129  1  0  0  0
 58130  1  0  0  0
 59 60  1  0  0  0
 59 61  1  0  0  0
 59 62  1  0  0  0
 60131  1  0  0  0
 60132  1  0  0  0
 60133  1  0  0  0
 61134  1  0  0  0
 61135  1  0  0  0
 61136  1  0  0  0
 62137  1  0  0  0
 62138  1  0  0  0
 62139  1  0  0  0
 63 65  1  0  0  0
 63140  1  0  0  0
 63141  1  0  0  0
 63142  1  0  0  0
 64143  1  0  0  0
 65144  1  0  0  0
 68 80  1  0  0  0
 71 73  1  0  0  0
 71 74  2  0  0  0
 71145  1  0  0  0
 72 73  2  0  0  0
 72 83  1  0  0  0
 72146  1  0  0  0
 73 81  1  0  0  0
 74 82  1  0  0  0
 74 83  1  0  0  0
 75147  1  0  0  0
 75148  1  0  0  0
 75149  1  0  0  0
 75 82  1  0  0  0
 76 82  1  0  0  0
 76150  1  0  0  0
 76151  1  0  0  0
 76152  1  0  0  0
 77 85  1  0  0  0
 77153  1  0  0  0
 77154  1  0  0  0
 77155  1  0  0  0
 78 79  1  0  0  0
 78 83  1  0  0  0
 78156  1  0  0  0
 78157  1  0  0  0
 79 84  1  0  0  0
 79158  1  0  0  0
 79159  1  0  0  0
 80160  1  0  0  0
 80161  1  0  0  0
 80 81  1  0  0  0
 81 85  1  0  0  0
 81162  1  0  0  0
 82163  1  0  0  0
 84164  1  0  0  0
 85165  1  0  0  0
 85166  1  0  0  0
M  CHG  1  85   1
M  ISO  4   1 100  68 101  80 101  84 100
M  END
> <chiral flag>
0

> <version>
0

> <s_m_source_file>
/data/baiqing/PycharmProjects/Reinvent-master-3.2/result/LINK_invent/BTK/process_docking_weight1_custom_sum_contain_oxygen_bond_distance_aromatic_linkinvent_7_9_3/rearranged_h_0111.sdf

> <i_m_source_file_index>
93

> <r_mmod_Potential_Energy-OPLS-2005>
-44.2237396240234

> <r_mmod_Stretch_Energy-OPLS-2005>
120.191040039062

> <r_mmod_Bend_Energy-OPLS-2005>
168.494934082031

> <r_mmod_Torsional_Energy-OPLS-2005>
249.176696777344

> <r_mmod_Improper_Torsional_Energy-OPLS-2005>
6.63174247741699

> <r_mmod_Van_der_Waal_Energy-OPLS-2005>
108.362243652344

> <r_mmod_Electrostatic_Energy-OPLS-2005>
-337.896881103516

> <r_mmod_Solvation_Energy-OPLS-2005>
-441.600006103516

> <b_mmod_Minimization_Converged-OPLS-2005>
0

> <r_mmod_RMS_Derivative-OPLS-2005>
2.80542206764221

$$$$
93
                    3D
 Structure written by MMmdl.
165173  0  0  1  0            999 V2000
  -30.6110  -14.7015   20.4881 C   0  0  0  0  0  0
  -30.4402  -12.4245   19.4786 C   0  0  0  0  0  0
  -29.5170  -12.5192   18.2417 C   0  0  0  0  0  0
  -28.0392  -12.3528   18.6455 C   0  0  0  0  0  0
  -27.6545  -13.2281   19.8683 C   0  0  2  0  0  0
  -28.6984  -13.1105   21.0053 C   0  0  0  0  0  0
  -25.2555  -13.8192   20.5696 C   0  0  0  0  0  0
  -24.1835  -13.0440   20.9201 C   0  0  0  0  0  0
  -24.6412  -11.6912   20.8741 C   0  0  0  0  0  0
  -23.9081  -10.4289   21.0394 C   0  0  0  0  0  0
  -24.3628   -9.4207   21.9175 C   0  0  0  0  0  0
  -23.6304   -8.2242   22.0750 C   0  0  0  0  0  0
  -22.4282   -8.0275   21.3541 C   0  0  0  0  0  0
  -21.9914   -9.0253   20.4642 C   0  0  0  0  0  0
  -22.7247  -10.2130   20.3052 C   0  0  0  0  0  0
  -21.6853   -6.0739   22.5280 C   0  0  0  0  0  0
  -21.4019   -6.5646   23.8215 C   0  0  0  0  0  0
  -21.3665   -5.6796   24.9177 C   0  0  0  0  0  0
  -21.6048   -4.3059   24.7220 C   0  0  0  0  0  0
  -21.8824   -3.8151   23.4343 C   0  0  0  0  0  0
  -21.9198   -4.6967   22.3398 C   0  0  0  0  0  0
  -22.7850  -13.5218   21.1860 C   0  0  0  0  0  0
  -22.1661   -4.2153   21.0973 F   0  0  0  0  0  0
  -21.5626   -3.4543   25.7736 F   0  0  0  0  0  0
  -30.0138  -13.4616   20.4465 N   0  0  0  0  0  0
  -26.3002  -12.9397   20.3341 N   0  0  0  0  0  0
  -25.9349  -11.6538   20.5765 N   0  0  0  0  0  0
  -22.0501  -12.8207   22.0420 N   0  0  0  0  0  0
  -25.4248  -15.1917   20.4104 N   0  0  0  0  0  0
  -31.7462  -14.8683   20.0355 O   0  0  0  0  0  0
  -21.6642   -6.8875   21.4236 O   0  0  0  0  0  0
  -22.3527  -14.5521   20.6711 O   0  0  0  0  0  0
  -24.6291  -31.8557   23.1978 C   0  0  0  0  0  0
  -25.9120  -32.4767   23.8315 C   0  0  1  0  0  0
  -27.2263  -27.2736   20.1249 C   0  0  0  0  0  0
  -25.5926  -33.8567   24.2242 N   0  0  0  0  0  0
  -23.4269  -30.4783   21.5406 C   0  0  2  0  0  0
  -24.8756  -28.9291   20.1071 C   0  0  0  0  0  0
  -22.7502  -29.4601   22.4902 C   0  0  0  0  0  0
  -18.0293  -28.1397   22.8492 C   0  0  0  0  0  0
  -24.1494  -36.7290   23.2641 C   0  0  0  0  0  0
  -25.9714  -30.7728   21.3763 C   0  0  0  0  0  0
  -26.0446  -29.3954   20.7213 C   0  0  0  0  0  0
  -27.2186  -28.5776   20.7238 C   0  0  0  0  0  0
  -26.0385  -26.8852   19.4603 C   0  0  0  0  0  0
  -24.8782  -27.6830   19.4649 C   0  0  0  0  0  0
  -23.6451  -29.8137   20.1557 C   0  0  0  0  0  0
  -25.4117  -36.3078   24.0332 C   0  0  1  0  0  0
  -20.5898  -28.3696   23.1277 C   0  0  2  0  0  0
  -20.6783  -26.9411   22.5416 C   0  0  0  0  0  0
  -19.5754  -26.6388   21.5221 C   0  0  0  0  0  0
  -18.1932  -26.7939   22.1633 C   0  0  0  0  0  0
  -19.1548  -28.8861   23.2884 C   0  0  0  0  0  0
  -18.9470  -30.1468   23.8892 C   0  0  0  0  0  0
  -17.6472  -30.6591   24.0565 C   0  0  0  0  0  0
  -25.9055  -34.9450   23.5089 C   0  0  0  0  0  0
  -16.5359  -29.9097   23.6331 C   0  0  0  0  0  0
  -16.7280  -28.6519   23.0339 C   0  0  0  0  0  0
  -26.4480  -31.6587   25.0696 C   0  0  0  0  0  0
  -25.3706  -31.3741   26.1416 C   0  0  0  0  0  0
  -27.0319  -30.3015   24.6155 C   0  0  0  0  0  0
  -27.6041  -32.4315   25.7473 C   0  0  0  0  0  0
  -27.5577  -37.1801   24.8463 C   0  0  0  0  0  0
  -21.4206  -29.3045   22.3663 N   0  0  0  0  0  0
  -26.4288  -37.3781   23.9409 N   0  0  0  0  0  0
  -24.6950  -31.0535   22.0951 N   0  0  0  0  0  0
  -23.4213  -28.8130   23.2977 O   0  0  0  0  0  0
  -28.3298  -26.3915   20.2127 O   0  0  0  0  0  0
  -26.5627  -34.8933   22.4656 O   0  0  0  0  0  0
  -23.5437  -32.1365   23.7280 O   0  0  0  0  0  0
  -31.7077  -18.6400   19.8555 C   0  0  0  0  0  0
  -30.9494  -19.8507   19.2508 C   0  0  0  0  0  0
  -30.5258  -18.4098   20.8454 C   0  0  2  0  0  0
  -30.4428  -20.0425   20.6697 C   0  0  2  0  0  0
  -28.8397  -20.3384   23.3589 C   0  0  0  0  0  0
  -27.2977  -19.7021   21.4286 C   0  0  0  0  0  0
  -29.6557  -17.1761   20.3037 C   0  0  0  0  0  0
  -29.0304  -23.7858   20.6353 C   0  0  0  0  0  0
  -29.0186  -22.2619   20.0663 C   0  0  0  0  0  0
  -28.1831  -24.9332   19.8811 C   0  0  0  0  0  0
  -28.2884  -20.7386   21.9772 C   0  0  0  0  0  0
  -29.8204  -15.7661   20.8653 N   0  0  0  0  0  0
  -29.3746  -21.1047   21.0233 N   0  3  1  0  0  0
  -31.4834  -12.5435   19.1814 H   0  0  0  0  0  0
  -30.3738  -11.4338   19.9309 H   0  0  0  0  0  0
  -29.7898  -11.7613   17.5067 H   0  0  0  0  0  0
  -29.6581  -13.4845   17.7536 H   0  0  0  0  0  0
  -27.8799  -11.3000   18.8802 H   0  0  0  0  0  0
  -27.3887  -12.5770   17.7993 H   0  0  0  0  0  0
  -27.6635  -14.2603   19.5171 H   0  0  0  0  0  0
  -28.7189  -12.0956   21.4050 H   0  0  0  0  0  0
  -28.4346  -13.7570   21.8430 H   0  0  0  0  0  0
  -25.2774   -9.5695   22.4742 H   0  0  0  0  0  0
  -24.0027   -7.4638   22.7475 H   0  0  0  0  0  0
  -21.0844   -8.8779   19.8945 H   0  0  0  0  0  0
  -22.3711  -10.9673   19.6162 H   0  0  0  0  0  0
  -21.2010   -7.6154   23.9724 H   0  0  0  0  0  0
  -21.1480   -6.0518   25.9082 H   0  0  0  0  0  0
  -22.0594   -2.7609   23.2842 H   0  0  0  0  0  0
  -22.4122  -11.9866   22.4802 H   0  0  0  0  0  0
  -21.1113  -13.1223   22.2623 H   0  0  0  0  0  0
  -24.6542  -15.8437   20.5109 H   0  0  0  0  0  0
  -26.2693  -15.6287   20.0650 H   0  0  0  0  0  0
  -26.7185  -32.5412   23.1054 H   0  0  0  0  0  0
  -25.0065  -33.9700   25.0382 H   0  0  0  0  0  0
  -22.7231  -31.3002   21.3944 H   0  0  0  0  0  0
  -23.3765  -35.9616   23.3296 H   0  0  0  0  0  0
  -24.3580  -36.8907   22.2055 H   0  0  0  0  0  0
  -23.7250  -37.6494   23.6658 H   0  0  0  0  0  0
  -26.1035  -31.5303   20.6023 H   0  0  0  0  0  0
  -26.8525  -30.8271   22.0038 H   0  0  0  0  0  0
  -28.1099  -28.9262   21.2270 H   0  0  0  0  0  0
  -25.9690  -25.9462   18.9335 H   0  0  0  0  0  0
  -23.9882  -27.3260   18.9649 H   0  0  0  0  0  0
  -23.7676  -30.5890   19.3994 H   0  0  0  0  0  0
  -22.7654  -29.2441   19.8508 H   0  0  0  0  0  0
  -25.1305  -36.1921   25.0830 H   0  0  0  0  0  0
  -20.9997  -28.3274   24.1393 H   0  0  0  0  0  0
  -20.5691  -26.2296   23.3616 H   0  0  0  0  0  0
  -21.6648  -26.7437   22.1194 H   0  0  0  0  0  0
  -19.6908  -25.6299   21.1243 H   0  0  0  0  0  0
  -19.6697  -27.3207   20.6757 H   0  0  0  0  0  0
  -17.4203  -26.6689   21.4033 H   0  0  0  0  0  0
  -18.0325  -26.0086   22.9031 H   0  0  0  0  0  0
  -19.7946  -30.7287   24.2254 H   0  0  0  0  0  0
  -17.5023  -31.6267   24.5174 H   0  0  0  0  0  0
  -15.5364  -30.2993   23.7657 H   0  0  0  0  0  0
  -15.8680  -28.0845   22.7037 H   0  0  0  0  0  0
  -24.5902  -30.7062   25.7745 H   0  0  0  0  0  0
  -24.8867  -32.2909   26.4795 H   0  0  0  0  0  0
  -25.8023  -30.8957   27.0216 H   0  0  0  0  0  0
  -26.2889  -29.6778   24.1169 H   0  0  0  0  0  0
  -27.4014  -29.7255   25.4645 H   0  0  0  0  0  0
  -27.8757  -30.4304   23.9375 H   0  0  0  0  0  0
  -27.2662  -33.3632   26.2021 H   0  0  0  0  0  0
  -28.3869  -32.6845   25.0309 H   0  0  0  0  0  0
  -28.0681  -31.8450   26.5404 H   0  0  0  0  0  0
  -28.2599  -38.0098   24.7512 H   0  0  0  0  0  0
  -28.1076  -36.2629   24.6291 H   0  0  0  0  0  0
  -27.2286  -37.1443   25.8865 H   0  0  0  0  0  0
  -20.9380  -29.8786   21.6890 H   0  0  0  0  0  0
  -26.0169  -38.2857   24.1416 H   0  0  0  0  0  0
  -32.6453  -18.9163   20.3457 H   0  0  0  0  0  0
  -31.8960  -17.8345   19.1435 H   0  0  0  0  0  0
  -30.1715  -19.5743   18.5373 H   0  0  0  0  0  0
  -31.5938  -20.6459   18.8728 H   0  0  0  0  0  0
  -30.8896  -18.1920   21.8503 H   0  0  0  0  0  0
  -31.2659  -20.4554   21.2636 H   0  0  0  0  0  0
  -28.0251  -20.2001   24.0704 H   0  0  0  0  0  0
  -29.4941  -21.1079   23.7686 H   0  0  0  0  0  0
  -29.4018  -19.4053   23.3298 H   0  0  0  0  0  0
  -26.3089  -19.8521   21.8627 H   0  0  0  0  0  0
  -27.5936  -18.6942   21.7037 H   0  0  0  0  0  0
  -27.1907  -19.7591   20.3453 H   0  0  0  0  0  0
  -29.7874  -17.0795   19.2249 H   0  0  0  0  0  0
  -28.5986  -17.4036   20.3914 H   0  0  0  0  0  0
  -28.6875  -23.7761   21.6695 H   0  0  0  0  0  0
  -30.0696  -24.1126   20.6839 H   0  0  0  0  0  0
  -29.6925  -22.2328   19.2113 H   0  0  0  0  0  0
  -28.0337  -22.0470   19.6513 H   0  0  0  0  0  0
  -27.1503  -24.6273   20.0394 H   0  0  0  0  0  0
  -28.3638  -24.8427   18.8092 H   0  0  0  0  0  0
  -27.7132  -21.6517   22.1422 H   0  0  0  0  0  0
  -28.9950  -15.4475   21.3511 H   0  0  0  0  0  0
  -29.9546  -21.6416   21.6519 H   0  0  0  0  0  0
  1 25  1  0  0  0
  1 30  2  0  0  0
  1 82  1  0  0  0
  2  3  1  0  0  0
  2 25  1  0  0  0
  2 84  1  0  0  0
  2 85  1  0  0  0
  3  4  1  0  0  0
  3 86  1  0  0  0
  3 87  1  0  0  0
  4  5  1  0  0  0
  4 88  1  0  0  0
  4 89  1  0  0  0
  5  6  1  0  0  0
  5 26  1  0  0  0
  5 90  1  0  0  0
  6 25  1  0  0  0
  6 91  1  0  0  0
  6 92  1  0  0  0
  7  8  2  0  0  0
  7 26  1  0  0  0
  7 29  1  0  0  0
  8  9  1  0  0  0
  8 22  1  0  0  0
  9 10  1  0  0  0
  9 27  2  0  0  0
 10 11  2  0  0  0
 10 15  1  0  0  0
 11 12  1  0  0  0
 11 93  1  0  0  0
 12 13  2  0  0  0
 12 94  1  0  0  0
 13 14  1  0  0  0
 13 31  1  0  0  0
 14 15  2  0  0  0
 14 95  1  0  0  0
 15 96  1  0  0  0
 16 17  2  0  0  0
 16 21  1  0  0  0
 16 31  1  0  0  0
 17 18  1  0  0  0
 17 97  1  0  0  0
 18 19  2  0  0  0
 18 98  1  0  0  0
 19 20  1  0  0  0
 19 24  1  0  0  0
 20 21  2  0  0  0
 20 99  1  0  0  0
 21 23  1  0  0  0
 22 28  1  0  0  0
 22 32  2  0  0  0
 26 27  1  0  0  0
 28100  1  0  0  0
 28101  1  0  0  0
 29102  1  0  0  0
 29103  1  0  0  0
 33 34  1  0  0  0
 33 66  1  0  0  0
 33 70  2  0  0  0
 34 36  1  0  0  0
 34 59  1  0  0  0
 34104  1  0  0  0
 35 44  2  0  0  0
 35 45  1  0  0  0
 35 68  1  0  0  0
 36 56  1  0  0  0
 36105  1  0  0  0
 37 39  1  0  0  0
 37 47  1  0  0  0
 37 66  1  0  0  0
 37106  1  0  0  0
 38 43  2  0  0  0
 38 46  1  0  0  0
 38 47  1  0  0  0
 39 64  1  0  0  0
 39 67  2  0  0  0
 40 52  1  0  0  0
 40 53  2  0  0  0
 40 58  1  0  0  0
 41107  1  0  0  0
 41108  1  0  0  0
 41109  1  0  0  0
 41 48  1  0  0  0
 42 43  1  0  0  0
 42 66  1  0  0  0
 42110  1  0  0  0
 42111  1  0  0  0
 43 44  1  0  0  0
 44112  1  0  0  0
 45 46  2  0  0  0
 45113  1  0  0  0
 46114  1  0  0  0
 47115  1  0  0  0
 47116  1  0  0  0
 48 56  1  0  0  0
 48 65  1  0  0  0
 48117  1  0  0  0
 49 50  1  0  0  0
 49 53  1  0  0  0
 49 64  1  0  0  0
 49118  1  0  0  0
 50 51  1  0  0  0
 50119  1  0  0  0
 50120  1  0  0  0
 51 52  1  0  0  0
 51121  1  0  0  0
 51122  1  0  0  0
 52123  1  0  0  0
 52124  1  0  0  0
 53 54  1  0  0  0
 54 55  2  0  0  0
 54125  1  0  0  0
 55 57  1  0  0  0
 55126  1  0  0  0
 56 69  2  0  0  0
 57 58  2  0  0  0
 57127  1  0  0  0
 58128  1  0  0  0
 59 60  1  0  0  0
 59 61  1  0  0  0
 59 62  1  0  0  0
 60129  1  0  0  0
 60130  1  0  0  0
 60131  1  0  0  0
 61132  1  0  0  0
 61133  1  0  0  0
 61134  1  0  0  0
 62135  1  0  0  0
 62136  1  0  0  0
 62137  1  0  0  0
 63 65  1  0  0  0
 63138  1  0  0  0
 63139  1  0  0  0
 63140  1  0  0  0
 64141  1  0  0  0
 65142  1  0  0  0
 68 80  1  0  0  0
 71 72  1  0  0  0
 71 73  1  0  0  0
 71143  1  0  0  0
 71144  1  0  0  0
 72145  1  0  0  0
 72146  1  0  0  0
 72 74  1  0  0  0
 73 74  1  0  0  0
 73 77  1  0  0  0
 73147  1  0  0  0
 74 83  1  0  0  0
 74148  1  0  0  0
 75149  1  0  0  0
 75150  1  0  0  0
 75151  1  0  0  0
 75 81  1  0  0  0
 76 81  1  0  0  0
 76152  1  0  0  0
 76153  1  0  0  0
 76154  1  0  0  0
 77 82  1  0  0  0
 77155  1  0  0  0
 77156  1  0  0  0
 78 79  1  0  0  0
 78 80  1  0  0  0
 78157  1  0  0  0
 78158  1  0  0  0
 79159  1  0  0  0
 79160  1  0  0  0
 79 83  1  0  0  0
 80161  1  0  0  0
 80162  1  0  0  0
 81 83  1  0  0  0
 81163  1  0  0  0
 82164  1  0  0  0
 83165  1  0  0  0
M  CHG  1  83   1
M  ISO  4   1 100  68 101  80 101  82 100
M  END
> <chiral flag>
0

> <version>
0

> <s_m_source_file>
/data/baiqing/PycharmProjects/Reinvent-master-3.2/result/LINK_invent/BTK/process_docking_weight1_custom_sum_contain_oxygen_bond_distance_aromatic_linkinvent_7_9_3/rearranged_h_0111.sdf

> <i_m_source_file_index>
94

> <r_mmod_Potential_Energy-OPLS-2005>
244.896392822266

> <r_mmod_Stretch_Energy-OPLS-2005>
127.71622467041

> <r_mmod_Bend_Energy-OPLS-2005>
308.315582275391

> <r_mmod_Torsional_Energy-OPLS-2005>
282.379699707031

> <r_mmod_Improper_Torsional_Energy-OPLS-2005>
6.21333503723145

> <r_mmod_Van_der_Waal_Energy-OPLS-2005>
124.590171813965

> <r_mmod_Electrostatic_Energy-OPLS-2005>
-226.910552978516

> <r_mmod_Solvation_Energy-OPLS-2005>
-449.362060546875

> <b_mmod_Minimization_Converged-OPLS-2005>
0

> <r_mmod_RMS_Derivative-OPLS-2005>
1.54708480834961

$$$$
94
                    3D
 Structure written by MMmdl.
164172  0  0  1  0            999 V2000
  -30.5802  -14.9991   20.4189 C   0  0  0  0  0  0
  -30.4259  -12.6438   19.4905 C   0  0  0  0  0  0
  -29.5087  -12.5478   18.2515 C   0  0  0  0  0  0
  -28.0441  -12.3262   18.6740 C   0  0  0  0  0  0
  -27.6216  -13.2573   19.8412 C   0  0  2  0  0  0
  -28.6724  -13.2860   20.9681 C   0  0  0  0  0  0
  -25.2409  -13.8237   20.5740 C   0  0  0  0  0  0
  -24.1730  -13.0446   20.9219 C   0  0  0  0  0  0
  -24.6367  -11.6937   20.8754 C   0  0  0  0  0  0
  -23.9057  -10.4302   21.0417 C   0  0  0  0  0  0
  -24.3621   -9.4219   21.9190 C   0  0  0  0  0  0
  -23.6303   -8.2248   22.0750 C   0  0  0  0  0  0
  -22.4286   -8.0286   21.3549 C   0  0  0  0  0  0
  -21.9922   -9.0253   20.4649 C   0  0  0  0  0  0
  -22.7229  -10.2136   20.3061 C   0  0  0  0  0  0
  -21.6846   -6.0756   22.5281 C   0  0  0  0  0  0
  -21.4009   -6.5653   23.8217 C   0  0  0  0  0  0
  -21.3652   -5.6795   24.9174 C   0  0  0  0  0  0
  -21.6048   -4.3062   24.7215 C   0  0  0  0  0  0
  -21.8810   -3.8167   23.4323 C   0  0  0  0  0  0
  -21.9193   -4.6991   22.3390 C   0  0  0  0  0  0
  -22.7760  -13.5226   21.1884 C   0  0  0  0  0  0
  -22.1664   -4.2192   21.0965 F   0  0  0  0  0  0
  -21.5625   -3.4531   25.7713 F   0  0  0  0  0  0
  -29.9172  -13.7616   20.3505 N   0  0  0  0  0  0
  -26.2853  -12.9487   20.3306 N   0  0  0  0  0  0
  -25.9312  -11.6606   20.5767 N   0  0  0  0  0  0
  -22.0404  -12.8223   22.0432 N   0  0  0  0  0  0
  -25.4094  -15.1961   20.4264 N   0  0  0  0  0  0
  -31.7983  -14.9351   20.2167 O   0  0  0  0  0  0
  -21.6632   -6.8896   21.4244 O   0  0  0  0  0  0
  -22.3468  -14.5551   20.6746 O   0  0  0  0  0  0
  -24.6474  -31.8426   23.1834 C   0  0  0  0  0  0
  -25.9234  -32.4690   23.8245 C   0  0  1  0  0  0
  -27.2134  -27.1045   20.1624 C   0  0  0  0  0  0
  -25.5978  -33.8497   24.2179 N   0  0  0  0  0  0
  -23.4506  -30.4617   21.5309 C   0  0  2  0  0  0
  -24.8994  -28.8793   20.1136 C   0  0  0  0  0  0
  -22.7579  -29.4549   22.4842 C   0  0  0  0  0  0
  -18.0303  -28.1401   22.8473 C   0  0  0  0  0  0
  -24.1485  -36.7255   23.2638 C   0  0  0  0  0  0
  -26.0088  -30.7042   21.3880 C   0  0  0  0  0  0
  -26.0779  -29.3099   20.7375 C   0  0  0  0  0  0
  -27.2351  -28.4401   20.7438 C   0  0  0  0  0  0
  -26.0139  -26.7898   19.4854 C   0  0  0  0  0  0
  -24.8826  -27.6329   19.4710 C   0  0  0  0  0  0
  -23.6796  -29.7887   20.1510 C   0  0  0  0  0  0
  -25.4116  -36.3041   24.0318 C   0  0  1  0  0  0
  -20.5919  -28.3738   23.1215 C   0  0  2  0  0  0
  -20.6791  -26.9440   22.5391 C   0  0  0  0  0  0
  -19.5766  -26.6393   21.5199 C   0  0  0  0  0  0
  -18.1946  -26.7935   22.1616 C   0  0  0  0  0  0
  -19.1559  -28.8889   23.2839 C   0  0  0  0  0  0
  -18.9478  -30.1478   23.8871 C   0  0  0  0  0  0
  -17.6473  -30.6599   24.0560 C   0  0  0  0  0  0
  -25.9076  -34.9419   23.5053 C   0  0  0  0  0  0
  -16.5367  -29.9092   23.6335 C   0  0  0  0  0  0
  -16.7285  -28.6512   23.0358 C   0  0  0  0  0  0
  -26.4539  -31.6559   25.0702 C   0  0  0  0  0  0
  -25.3704  -31.3768   26.1384 C   0  0  0  0  0  0
  -27.0398  -30.2953   24.6294 C   0  0  0  0  0  0
  -27.6069  -32.4317   25.7483 C   0  0  0  0  0  0
  -27.5569  -37.1790   24.8467 C   0  0  0  0  0  0
  -21.4276  -29.3064   22.3594 N   0  0  0  0  0  0
  -26.4273  -37.3765   23.9416 N   0  0  0  0  0  0
  -24.7224  -31.0252   22.0892 N   0  0  0  0  0  0
  -23.4210  -28.8105   23.3006 O   0  0  0  0  0  0
  -28.2582  -26.1015   20.2031 O   0  0  0  0  0  0
  -26.5652  -34.8922   22.4632 O   0  0  0  0  0  0
  -23.5580  -32.1333   23.7044 O   0  0  0  0  0  0
  -27.5207  -19.0122   21.8577 C   0  0  0  0  0  0
  -27.2840  -16.7861   22.6521 C   0  0  0  0  0  0
  -26.8333  -18.0982   22.6696 C   0  0  0  0  0  0
  -28.6425  -18.6740   21.0487 C   0  0  0  0  0  0
  -28.9991  -17.1795   21.0609 C   0  0  0  0  0  0
  -24.3518  -17.7997   23.1277 C   0  0  0  0  0  0
  -25.4385  -19.9969   23.7465 C   0  0  0  0  0  0
  -30.3112  -23.5126   20.8103 C   0  0  0  0  0  0
  -29.2167  -20.0774   20.3620 C   0  0  0  0  0  0
  -28.4958  -21.6225   20.6411 C   0  0  0  0  0  0
  -27.9526  -24.5727   20.4125 C   0  0  0  0  0  0
  -25.6558  -18.4808   23.5767 C   0  0  0  0  0  0
  -28.9418  -23.2036   20.1872 C   0  0  1  0  0  0
  -28.2912  -16.3730   21.8749 N   0  0  0  0  0  0
  -30.0152  -16.3266   20.3371 N   0  0  0  0  0  0
  -31.4509  -12.8037   19.1555 H   0  0  0  0  0  0
  -30.4441  -11.7000   20.0389 H   0  0  0  0  0  0
  -29.8394  -11.7426   17.5941 H   0  0  0  0  0  0
  -29.5841  -13.4718   17.6746 H   0  0  0  0  0  0
  -27.9486  -11.2835   18.9796 H   0  0  0  0  0  0
  -27.3768  -12.4556   17.8209 H   0  0  0  0  0  0
  -27.5817  -14.2610   19.4177 H   0  0  0  0  0  0
  -28.7980  -12.2933   21.4034 H   0  0  0  0  0  0
  -28.3621  -13.9214   21.7916 H   0  0  0  0  0  0
  -25.2764   -9.5701   22.4769 H   0  0  0  0  0  0
  -24.0022   -7.4632   22.7465 H   0  0  0  0  0  0
  -21.0850   -8.8749   19.8958 H   0  0  0  0  0  0
  -22.3678  -10.9666   19.6171 H   0  0  0  0  0  0
  -21.2001   -7.6162   23.9733 H   0  0  0  0  0  0
  -21.1483   -6.0522   25.9074 H   0  0  0  0  0  0
  -22.0604   -2.7638   23.2797 H   0  0  0  0  0  0
  -22.3982  -11.9873   22.4817 H   0  0  0  0  0  0
  -21.1007  -13.1252   22.2580 H   0  0  0  0  0  0
  -24.6705  -15.8545   20.6416 H   0  0  0  0  0  0
  -26.3143  -15.6332   20.3026 H   0  0  0  0  0  0
  -26.7306  -32.5298   23.0972 H   0  0  0  0  0  0
  -25.0145  -33.9599   25.0341 H   0  0  0  0  0  0
  -22.7551  -31.2890   21.3755 H   0  0  0  0  0  0
  -23.3764  -35.9569   23.3285 H   0  0  0  0  0  0
  -24.3571  -36.8903   22.2057 H   0  0  0  0  0  0
  -23.7217  -37.6441   23.6672 H   0  0  0  0  0  0
  -26.1660  -31.4488   20.6061 H   0  0  0  0  0  0
  -26.8784  -30.7599   22.0322 H   0  0  0  0  0  0
  -28.1304  -28.7647   21.2558 H   0  0  0  0  0  0
  -25.9227  -25.8515   18.9578 H   0  0  0  0  0  0
  -23.9900  -27.3039   18.9568 H   0  0  0  0  0  0
  -23.8243  -30.5614   19.3953 H   0  0  0  0  0  0
  -22.7928  -29.2358   19.8370 H   0  0  0  0  0  0
  -25.1306  -36.1854   25.0808 H   0  0  0  0  0  0
  -21.0010  -28.3329   24.1336 H   0  0  0  0  0  0
  -20.5684  -26.2358   23.3614 H   0  0  0  0  0  0
  -21.6662  -26.7445   22.1198 H   0  0  0  0  0  0
  -19.6931  -25.6298   21.1248 H   0  0  0  0  0  0
  -19.6694  -27.3184   20.6710 H   0  0  0  0  0  0
  -17.4215  -26.6676   21.4021 H   0  0  0  0  0  0
  -18.0360  -26.0073   22.9015 H   0  0  0  0  0  0
  -19.7954  -30.7301   24.2240 H   0  0  0  0  0  0
  -17.5025  -31.6266   24.5183 H   0  0  0  0  0  0
  -15.5368  -30.2993   23.7663 H   0  0  0  0  0  0
  -15.8683  -28.0817   22.7094 H   0  0  0  0  0  0
  -24.5868  -30.7145   25.7694 H   0  0  0  0  0  0
  -24.8912  -32.2962   26.4756 H   0  0  0  0  0  0
  -25.7960  -30.8962   27.0199 H   0  0  0  0  0  0
  -26.3016  -29.6680   24.1290 H   0  0  0  0  0  0
  -27.4002  -29.7258   25.4869 H   0  0  0  0  0  0
  -27.8929  -30.4207   23.9625 H   0  0  0  0  0  0
  -27.2674  -33.3642   26.2000 H   0  0  0  0  0  0
  -28.3896  -32.6833   25.0315 H   0  0  0  0  0  0
  -28.0707  -31.8478   26.5441 H   0  0  0  0  0  0
  -28.2594  -38.0082   24.7518 H   0  0  0  0  0  0
  -28.1059  -36.2622   24.6282 H   0  0  0  0  0  0
  -27.2298  -37.1424   25.8873 H   0  0  0  0  0  0
  -20.9488  -29.8788   21.6777 H   0  0  0  0  0  0
  -26.0146  -38.2836   24.1415 H   0  0  0  0  0  0
  -27.1573  -20.0197   21.8865 H   0  0  0  0  0  0
  -26.8065  -16.0276   23.2550 H   0  0  0  0  0  0
  -24.4501  -16.7134   23.0989 H   0  0  0  0  0  0
  -24.0486  -18.1318   22.1345 H   0  0  0  0  0  0
  -23.5348  -18.0254   23.8142 H   0  0  0  0  0  0
  -26.3426  -20.4937   24.1018 H   0  0  0  0  0  0
  -24.6584  -20.1985   24.4803 H   0  0  0  0  0  0
  -25.1293  -20.4711   22.8136 H   0  0  0  0  0  0
  -31.0405  -22.7337   20.5811 H   0  0  0  0  0  0
  -30.2443  -23.5998   21.8955 H   0  0  0  0  0  0
  -30.7107  -24.4533   20.4292 H   0  0  0  0  0  0
  -29.2349  -19.9084   19.2850 H   0  0  0  0  0  0
  -30.2648  -20.1474   20.6558 H   0  0  0  0  0  0
  -28.4177  -21.7092   21.7249 H   0  0  0  0  0  0
  -27.4679  -21.5274   20.2895 H   0  0  0  0  0  0
  -27.6175  -24.5200   21.4486 H   0  0  0  0  0  0
  -27.0591  -24.3366   19.8405 H   0  0  0  0  0  0
  -25.8978  -18.0894   24.5665 H   0  0  0  0  0  0
  -29.1006  -23.1544   19.1091 H   0  0  0  0  0  0
  -30.6951  -16.9206   19.8895 H   0  0  0  0  0  0
  1 25  1  0  0  0
  1 30  2  0  0  0
  1 85  1  0  0  0
  2  3  1  0  0  0
  2 25  1  0  0  0
  2 86  1  0  0  0
  2 87  1  0  0  0
  3  4  1  0  0  0
  3 88  1  0  0  0
  3 89  1  0  0  0
  4  5  1  0  0  0
  4 90  1  0  0  0
  4 91  1  0  0  0
  5  6  1  0  0  0
  5 26  1  0  0  0
  5 92  1  0  0  0
  6 25  1  0  0  0
  6 93  1  0  0  0
  6 94  1  0  0  0
  7  8  2  0  0  0
  7 26  1  0  0  0
  7 29  1  0  0  0
  8  9  1  0  0  0
  8 22  1  0  0  0
  9 10  1  0  0  0
  9 27  2  0  0  0
 10 11  2  0  0  0
 10 15  1  0  0  0
 11 12  1  0  0  0
 11 95  1  0  0  0
 12 13  2  0  0  0
 12 96  1  0  0  0
 13 14  1  0  0  0
 13 31  1  0  0  0
 14 15  2  0  0  0
 14 97  1  0  0  0
 15 98  1  0  0  0
 16 17  2  0  0  0
 16 21  1  0  0  0
 16 31  1  0  0  0
 17 18  1  0  0  0
 17 99  1  0  0  0
 18 19  2  0  0  0
 18100  1  0  0  0
 19 20  1  0  0  0
 19 24  1  0  0  0
 20 21  2  0  0  0
 20101  1  0  0  0
 21 23  1  0  0  0
 22 28  1  0  0  0
 22 32  2  0  0  0
 26 27  1  0  0  0
 28102  1  0  0  0
 28103  1  0  0  0
 29104  1  0  0  0
 29105  1  0  0  0
 33 34  1  0  0  0
 33 66  1  0  0  0
 33 70  2  0  0  0
 34 36  1  0  0  0
 34 59  1  0  0  0
 34106  1  0  0  0
 35 44  2  0  0  0
 35 45  1  0  0  0
 35 68  1  0  0  0
 36 56  1  0  0  0
 36107  1  0  0  0
 37 39  1  0  0  0
 37 47  1  0  0  0
 37 66  1  0  0  0
 37108  1  0  0  0
 38 43  2  0  0  0
 38 46  1  0  0  0
 38 47  1  0  0  0
 39 64  1  0  0  0
 39 67  2  0  0  0
 40 52  1  0  0  0
 40 53  2  0  0  0
 40 58  1  0  0  0
 41109  1  0  0  0
 41110  1  0  0  0
 41111  1  0  0  0
 41 48  1  0  0  0
 42 43  1  0  0  0
 42 66  1  0  0  0
 42112  1  0  0  0
 42113  1  0  0  0
 43 44  1  0  0  0
 44114  1  0  0  0
 45 46  2  0  0  0
 45115  1  0  0  0
 46116  1  0  0  0
 47117  1  0  0  0
 47118  1  0  0  0
 48 56  1  0  0  0
 48 65  1  0  0  0
 48119  1  0  0  0
 49 50  1  0  0  0
 49 53  1  0  0  0
 49 64  1  0  0  0
 49120  1  0  0  0
 50 51  1  0  0  0
 50121  1  0  0  0
 50122  1  0  0  0
 51 52  1  0  0  0
 51123  1  0  0  0
 51124  1  0  0  0
 52125  1  0  0  0
 52126  1  0  0  0
 53 54  1  0  0  0
 54 55  2  0  0  0
 54127  1  0  0  0
 55 57  1  0  0  0
 55128  1  0  0  0
 56 69  2  0  0  0
 57 58  2  0  0  0
 57129  1  0  0  0
 58130  1  0  0  0
 59 60  1  0  0  0
 59 61  1  0  0  0
 59 62  1  0  0  0
 60131  1  0  0  0
 60132  1  0  0  0
 60133  1  0  0  0
 61134  1  0  0  0
 61135  1  0  0  0
 61136  1  0  0  0
 62137  1  0  0  0
 62138  1  0  0  0
 62139  1  0  0  0
 63 65  1  0  0  0
 63140  1  0  0  0
 63141  1  0  0  0
 63142  1  0  0  0
 64143  1  0  0  0
 65144  1  0  0  0
 68 81  1  0  0  0
 71 73  2  0  0  0
 71 74  1  0  0  0
 71145  1  0  0  0
 72 73  1  0  0  0
 72 84  2  0  0  0
 72146  1  0  0  0
 73 82  1  0  0  0
 74 75  2  0  0  0
 74 79  1  0  0  0
 75 84  1  0  0  0
 75 85  1  0  0  0
 76147  1  0  0  0
 76148  1  0  0  0
 76149  1  0  0  0
 76 82  1  0  0  0
 77 82  1  0  0  0
 77150  1  0  0  0
 77151  1  0  0  0
 77152  1  0  0  0
 78153  1  0  0  0
 78154  1  0  0  0
 78155  1  0  0  0
 78 83  1  0  0  0
 79 80  1  0  0  0
 79156  1  0  0  0
 79157  1  0  0  0
 80 83  1  0  0  0
 80158  1  0  0  0
 80159  1  0  0  0
 81 83  1  0  0  0
 81160  1  0  0  0
 81161  1  0  0  0
 82162  1  0  0  0
 83163  1  0  0  0
 85164  1  0  0  0
M  ISO  4   1 100  68 101  81 101  85 100
M  END
> <chiral flag>
0

> <version>
0

> <s_m_source_file>
/data/baiqing/PycharmProjects/Reinvent-master-3.2/result/LINK_invent/BTK/process_docking_weight1_custom_sum_contain_oxygen_bond_distance_aromatic_linkinvent_7_9_3/rearranged_h_0111.sdf

> <i_m_source_file_index>
95

> <r_mmod_Potential_Energy-OPLS-2005>
636.906982421875

> <r_mmod_Stretch_Energy-OPLS-2005>
330.891387939453

> <r_mmod_Bend_Energy-OPLS-2005>
399.640411376953

> <r_mmod_Torsional_Energy-OPLS-2005>
245.773941040039

> <r_mmod_Improper_Torsional_Energy-OPLS-2005>
11.7732610702515

> <r_mmod_Van_der_Waal_Energy-OPLS-2005>
137.644439697266

> <r_mmod_Electrostatic_Energy-OPLS-2005>
-517.9658203125

> <r_mmod_Solvation_Energy-OPLS-2005>
-190.924682617188

> <b_mmod_Minimization_Converged-OPLS-2005>
0

> <r_mmod_RMS_Derivative-OPLS-2005>
2.53963613510132

$$$$
95
                    3D
 Structure written by MMmdl.
178186  0  0  1  0            999 V2000
  -30.7872  -14.3641   20.6716 C   0  0  0  0  0  0
  -30.4060  -12.2886   19.3960 C   0  0  0  0  0  0
  -29.4769  -12.5172   18.1906 C   0  0  0  0  0  0
  -28.0028  -12.3772   18.6122 C   0  0  0  0  0  0
  -27.6619  -13.2076   19.8773 C   0  0  2  0  0  0
  -28.7017  -12.9706   20.9938 C   0  0  0  0  0  0
  -25.2580  -13.8169   20.5671 C   0  0  0  0  0  0
  -24.1834  -13.0443   20.9178 C   0  0  0  0  0  0
  -24.6393  -11.6912   20.8749 C   0  0  0  0  0  0
  -23.9065  -10.4295   21.0420 C   0  0  0  0  0  0
  -24.3619   -9.4207   21.9188 C   0  0  0  0  0  0
  -23.6296   -8.2243   22.0753 C   0  0  0  0  0  0
  -22.4273   -8.0287   21.3551 C   0  0  0  0  0  0
  -21.9916   -9.0259   20.4648 C   0  0  0  0  0  0
  -22.7245  -10.2137   20.3062 C   0  0  0  0  0  0
  -21.6854   -6.0739   22.5282 C   0  0  0  0  0  0
  -21.4012   -6.5641   23.8214 C   0  0  0  0  0  0
  -21.3658   -5.6793   24.9177 C   0  0  0  0  0  0
  -21.6045   -4.3055   24.7228 C   0  0  0  0  0  0
  -21.8821   -3.8150   23.4349 C   0  0  0  0  0  0
  -21.9189   -4.6966   22.3404 C   0  0  0  0  0  0
  -22.7858  -13.5240   21.1835 C   0  0  0  0  0  0
  -22.1662   -4.2152   21.0981 F   0  0  0  0  0  0
  -21.5627   -3.4538   25.7741 F   0  0  0  0  0  0
  -30.0406  -13.2528   20.4444 N   0  0  0  0  0  0
  -26.3022  -12.9346   20.3385 N   0  0  0  0  0  0
  -25.9318  -11.6504   20.5782 N   0  0  0  0  0  0
  -22.0505  -12.8240   22.0405 N   0  0  0  0  0  0
  -25.4315  -15.1882   20.4060 N   0  0  0  0  0  0
  -31.8379  -14.5979   20.0703 O   0  0  0  0  0  0
  -21.6640   -6.8882   21.4247 O   0  0  0  0  0  0
  -22.3556  -14.5556   20.6691 O   0  0  0  0  0  0
  -24.6112  -31.8715   23.2121 C   0  0  0  0  0  0
  -25.9015  -32.4844   23.8404 C   0  0  1  0  0  0
  -27.2279  -27.4550   20.0943 C   0  0  0  0  0  0
  -25.5878  -33.8638   24.2327 N   0  0  0  0  0  0
  -23.3991  -30.4939   21.5532 C   0  0  2  0  0  0
  -24.8438  -28.9633   20.1133 C   0  0  0  0  0  0
  -22.7391  -29.4682   22.5010 C   0  0  0  0  0  0
  -18.0275  -28.1372   22.8503 C   0  0  0  0  0  0
  -24.1492  -36.7322   23.2639 C   0  0  0  0  0  0
  -25.9255  -30.8442   21.3617 C   0  0  0  0  0  0
  -26.0041  -29.4812   20.7049 C   0  0  0  0  0  0
  -27.2020  -28.7344   20.6897 C   0  0  0  0  0  0
  -26.0538  -26.9476   19.4968 C   0  0  0  0  0  0
  -24.8621  -27.6958   19.5058 C   0  0  0  0  0  0
  -23.6057  -29.8280   20.1665 C   0  0  0  0  0  0
  -25.4110  -36.3123   24.0342 C   0  0  1  0  0  0
  -20.5856  -28.3661   23.1326 C   0  0  2  0  0  0
  -20.6769  -26.9400   22.5426 C   0  0  0  0  0  0
  -19.5752  -26.6392   21.5208 C   0  0  0  0  0  0
  -18.1924  -26.7922   22.1618 C   0  0  0  0  0  0
  -19.1522  -28.8827   23.2913 C   0  0  0  0  0  0
  -18.9455  -30.1435   23.8916 C   0  0  0  0  0  0
  -17.6461  -30.6581   24.0554 C   0  0  0  0  0  0
  -25.9034  -34.9487   23.5128 C   0  0  0  0  0  0
  -16.5355  -29.9084   23.6323 C   0  0  0  0  0  0
  -16.7260  -28.6498   23.0346 C   0  0  0  0  0  0
  -26.4452  -31.6624   25.0722 C   0  0  0  0  0  0
  -25.3723  -31.3717   26.1477 C   0  0  0  0  0  0
  -27.0298  -30.3077   24.6081 C   0  0  0  0  0  0
  -27.6031  -32.4351   25.7472 C   0  0  0  0  0  0
  -27.5586  -37.1811   24.8459 C   0  0  0  0  0  0
  -21.4125  -29.3043   22.3743 N   0  0  0  0  0  0
  -26.4303  -37.3800   23.9408 N   0  0  0  0  0  0
  -24.6634  -31.0830   22.1015 N   0  0  0  0  0  0
  -23.4168  -28.8220   23.3046 O   0  0  0  0  0  0
  -28.3868  -26.7163   20.1091 O   0  0  0  0  0  0
  -26.5603  -34.8929   22.4698 O   0  0  0  0  0  0
  -23.5315  -32.1475   23.7523 O   0  0  0  0  0  0
  -29.7020  -20.9499   22.9748 C   0  0  0  0  0  0
  -31.6264  -19.6281   21.8381 C   0  0  0  0  0  0
  -35.6067  -20.8494   24.6052 C   0  0  0  0  0  0
  -28.5103  -21.7094   22.4080 C   0  0  0  0  0  0
  -30.8403  -20.9419   21.9624 C   0  0  1  0  0  0
  -30.1447  -21.4626   20.6894 C   0  0  2  0  0  0
  -31.1162  -22.1463   19.7048 C   0  0  0  0  0  0
  -33.1431  -19.8715   21.9070 C   0  0  0  0  0  0
  -28.4057  -24.2861   19.6825 C   0  0  0  0  0  0
  -31.8303  -17.2561   21.6032 C   0  0  0  0  0  0
  -31.1856  -16.1023   22.4106 C   0  0  0  0  0  0
  -33.6902  -19.8140   23.3488 C   0  0  0  0  0  0
  -28.0799  -22.8766   20.2419 C   0  0  0  0  0  0
  -28.2632  -25.4246   20.7140 C   0  0  0  0  0  0
  -31.0494  -18.4869   21.6968 N   0  0  0  0  0  0
  -36.7822  -21.4645   24.5517 N   0  0  0  0  0  0
  -35.0455  -20.6187   25.7899 N   0  3  0  0  0  0
  -30.3515  -15.1671   21.6517 N   0  0  0  0  0  0
  -35.0022  -20.4763   23.4677 N   0  0  0  0  0  0
  -29.0898  -22.3764   21.2150 N   0  3  1  0  0  0
  -29.7573  -20.4811   24.1174 O   0  0  0  0  0  0
  -31.4496  -12.3745   19.0873 H   0  0  0  0  0  0
  -30.2964  -11.2715   19.7752 H   0  0  0  0  0  0
  -29.7068  -11.8037   17.3975 H   0  0  0  0  0  0
  -29.6495  -13.5101   17.7731 H   0  0  0  0  0  0
  -27.8091  -11.3202   18.7989 H   0  0  0  0  0  0
  -27.3485  -12.6638   17.7884 H   0  0  0  0  0  0
  -27.7149  -14.2588   19.5946 H   0  0  0  0  0  0
  -28.6636  -11.9353   21.3343 H   0  0  0  0  0  0
  -28.4526  -13.5700   21.8691 H   0  0  0  0  0  0
  -25.2763   -9.5681   22.4765 H   0  0  0  0  0  0
  -23.9999   -7.4639   22.7476 H   0  0  0  0  0  0
  -21.0846   -8.8790   19.8957 H   0  0  0  0  0  0
  -22.3711  -10.9683   19.6172 H   0  0  0  0  0  0
  -21.2009   -7.6149   23.9723 H   0  0  0  0  0  0
  -21.1476   -6.0520   25.9080 H   0  0  0  0  0  0
  -22.0599   -2.7614   23.2850 H   0  0  0  0  0  0
  -22.4112  -11.9881   22.4763 H   0  0  0  0  0  0
  -21.1131  -13.1280   22.2620 H   0  0  0  0  0  0
  -24.6660  -15.8467   20.5058 H   0  0  0  0  0  0
  -26.2891  -15.6234   20.0879 H   0  0  0  0  0  0
  -26.7085  -32.5564   23.1169 H   0  0  0  0  0  0
  -25.0018  -33.9819   25.0453 H   0  0  0  0  0  0
  -22.6867  -31.3093   21.4162 H   0  0  0  0  0  0
  -23.3748  -35.9660   23.3314 H   0  0  0  0  0  0
  -24.3565  -36.8930   22.2050 H   0  0  0  0  0  0
  -23.7261  -37.6532   23.6650 H   0  0  0  0  0  0
  -26.0335  -31.6138   20.5955 H   0  0  0  0  0  0
  -26.8146  -30.8942   21.9799 H   0  0  0  0  0  0
  -28.0977  -29.1253   21.1503 H   0  0  0  0  0  0
  -26.0523  -25.9780   19.0223 H   0  0  0  0  0  0
  -23.9703  -27.2910   19.0458 H   0  0  0  0  0  0
  -23.7096  -30.6055   19.4086 H   0  0  0  0  0  0
  -22.7276  -29.2493   19.8740 H   0  0  0  0  0  0
  -25.1286  -36.1993   25.0840 H   0  0  0  0  0  0
  -20.9951  -28.3237   24.1441 H   0  0  0  0  0  0
  -20.5687  -26.2268   23.3617 H   0  0  0  0  0  0
  -21.6643  -26.7476   22.1197 H   0  0  0  0  0  0
  -19.6930  -25.6301   21.1234 H   0  0  0  0  0  0
  -19.6684  -27.3225   20.6740 H   0  0  0  0  0  0
  -17.4208  -26.6681   21.4012 H   0  0  0  0  0  0
  -18.0292  -26.0061   22.9001 H   0  0  0  0  0  0
  -19.7943  -30.7228   24.2306 H   0  0  0  0  0  0
  -17.5031  -31.6269   24.5152 H   0  0  0  0  0  0
  -15.5352  -30.2983   23.7661 H   0  0  0  0  0  0
  -15.8657  -28.0822   22.7044 H   0  0  0  0  0  0
  -24.5893  -30.7069   25.7807 H   0  0  0  0  0  0
  -24.8902  -32.2867   26.4942 H   0  0  0  0  0  0
  -25.8084  -30.8878   27.0228 H   0  0  0  0  0  0
  -26.2843  -29.6819   24.1161 H   0  0  0  0  0  0
  -27.4116  -29.7330   25.4530 H   0  0  0  0  0  0
  -27.8648  -30.4407   23.9192 H   0  0  0  0  0  0
  -27.2658  -33.3646   26.2073 H   0  0  0  0  0  0
  -28.3819  -32.6941   25.0285 H   0  0  0  0  0  0
  -28.0724  -31.8469   26.5373 H   0  0  0  0  0  0
  -28.2608  -38.0104   24.7505 H   0  0  0  0  0  0
  -28.1089  -36.2636   24.6296 H   0  0  0  0  0  0
  -27.2291  -37.1462   25.8858 H   0  0  0  0  0  0
  -20.9284  -29.8754   21.6961 H   0  0  0  0  0  0
  -26.0199  -38.2886   24.1392 H   0  0  0  0  0  0
  -28.1137  -22.4261   23.1272 H   0  0  0  0  0  0
  -27.7243  -21.0060   22.1288 H   0  0  0  0  0  0
  -31.5253  -21.7111   22.3221 H   0  0  0  0  0  0
  -29.6607  -20.6249   20.1779 H   0  0  0  0  0  0
  -31.5597  -23.0497   20.1254 H   0  0  0  0  0  0
  -30.6161  -22.4154   18.7742 H   0  0  0  0  0  0
  -31.9312  -21.4735   19.4362 H   0  0  0  0  0  0
  -33.3619  -20.8491   21.4761 H   0  0  0  0  0  0
  -33.6795  -19.1773   21.2607 H   0  0  0  0  0  0
  -27.7212  -24.4720   18.8557 H   0  0  0  0  0  0
  -29.4014  -24.3177   19.2419 H   0  0  0  0  0  0
  -31.9808  -17.0019   20.5540 H   0  0  0  0  0  0
  -32.8330  -17.3580   22.0162 H   0  0  0  0  0  0
  -30.6102  -16.4910   23.2518 H   0  0  0  0  0  0
  -31.9842  -15.5091   22.8607 H   0  0  0  0  0  0
  -33.7645  -18.7840   23.6999 H   0  0  0  0  0  0
  -32.9986  -20.3258   24.0199 H   0  0  0  0  0  0
  -27.9756  -22.1628   19.4237 H   0  0  0  0  0  0
  -27.0962  -22.9181   20.7144 H   0  0  0  0  0  0
  -29.0508  -25.3430   21.4641 H   0  0  0  0  0  0
  -27.3262  -25.3217   21.2668 H   0  0  0  0  0  0
  -37.2723  -21.7699   25.3808 H   0  0  0  0  0  0
  -37.2288  -21.6703   23.6677 H   0  0  0  0  0  0
  -35.4821  -20.9006   26.6555 H   0  0  0  0  0  0
  -34.1644  -20.1326   25.8629 H   0  0  0  0  0  0
  -29.4603  -14.9244   22.0577 H   0  0  0  0  0  0
  -35.5043  -20.6063   22.5992 H   0  0  0  0  0  0
  -29.5658  -23.1818   21.5907 H   0  0  0  0  0  0
  1 25  1  0  0  0
  1 30  2  0  0  0
  1 88  1  0  0  0
  2  3  1  0  0  0
  2 25  1  0  0  0
  2 92  1  0  0  0
  2 93  1  0  0  0
  3  4  1  0  0  0
  3 94  1  0  0  0
  3 95  1  0  0  0
  4  5  1  0  0  0
  4 96  1  0  0  0
  4 97  1  0  0  0
  5  6  1  0  0  0
  5 26  1  0  0  0
  5 98  1  0  0  0
  6 25  1  0  0  0
  6 99  1  0  0  0
  6100  1  0  0  0
  7  8  2  0  0  0
  7 26  1  0  0  0
  7 29  1  0  0  0
  8  9  1  0  0  0
  8 22  1  0  0  0
  9 10  1  0  0  0
  9 27  2  0  0  0
 10 11  2  0  0  0
 10 15  1  0  0  0
 11 12  1  0  0  0
 11101  1  0  0  0
 12 13  2  0  0  0
 12102  1  0  0  0
 13 14  1  0  0  0
 13 31  1  0  0  0
 14 15  2  0  0  0
 14103  1  0  0  0
 15104  1  0  0  0
 16 17  2  0  0  0
 16 21  1  0  0  0
 16 31  1  0  0  0
 17 18  1  0  0  0
 17105  1  0  0  0
 18 19  2  0  0  0
 18106  1  0  0  0
 19 20  1  0  0  0
 19 24  1  0  0  0
 20 21  2  0  0  0
 20107  1  0  0  0
 21 23  1  0  0  0
 22 28  1  0  0  0
 22 32  2  0  0  0
 26 27  1  0  0  0
 28108  1  0  0  0
 28109  1  0  0  0
 29110  1  0  0  0
 29111  1  0  0  0
 33 34  1  0  0  0
 33 66  1  0  0  0
 33 70  2  0  0  0
 34 36  1  0  0  0
 34 59  1  0  0  0
 34112  1  0  0  0
 35 44  2  0  0  0
 35 45  1  0  0  0
 35 68  1  0  0  0
 36 56  1  0  0  0
 36113  1  0  0  0
 37 39  1  0  0  0
 37 47  1  0  0  0
 37 66  1  0  0  0
 37114  1  0  0  0
 38 43  2  0  0  0
 38 46  1  0  0  0
 38 47  1  0  0  0
 39 64  1  0  0  0
 39 67  2  0  0  0
 40 52  1  0  0  0
 40 53  2  0  0  0
 40 58  1  0  0  0
 41115  1  0  0  0
 41116  1  0  0  0
 41117  1  0  0  0
 41 48  1  0  0  0
 42 43  1  0  0  0
 42 66  1  0  0  0
 42118  1  0  0  0
 42119  1  0  0  0
 43 44  1  0  0  0
 44120  1  0  0  0
 45 46  2  0  0  0
 45121  1  0  0  0
 46122  1  0  0  0
 47123  1  0  0  0
 47124  1  0  0  0
 48 56  1  0  0  0
 48 65  1  0  0  0
 48125  1  0  0  0
 49 50  1  0  0  0
 49 53  1  0  0  0
 49 64  1  0  0  0
 49126  1  0  0  0
 50 51  1  0  0  0
 50127  1  0  0  0
 50128  1  0  0  0
 51 52  1  0  0  0
 51129  1  0  0  0
 51130  1  0  0  0
 52131  1  0  0  0
 52132  1  0  0  0
 53 54  1  0  0  0
 54 55  2  0  0  0
 54133  1  0  0  0
 55 57  1  0  0  0
 55134  1  0  0  0
 56 69  2  0  0  0
 57 58  2  0  0  0
 57135  1  0  0  0
 58136  1  0  0  0
 59 60  1  0  0  0
 59 61  1  0  0  0
 59 62  1  0  0  0
 60137  1  0  0  0
 60138  1  0  0  0
 60139  1  0  0  0
 61140  1  0  0  0
 61141  1  0  0  0
 61142  1  0  0  0
 62143  1  0  0  0
 62144  1  0  0  0
 62145  1  0  0  0
 63 65  1  0  0  0
 63146  1  0  0  0
 63147  1  0  0  0
 63148  1  0  0  0
 64149  1  0  0  0
 65150  1  0  0  0
 68 84  1  0  0  0
 71 74  1  0  0  0
 71 75  1  0  0  0
 71 91  2  0  0  0
 72 78  1  0  0  0
 72 85  2  0  0  0
 72 75  1  0  0  0
 73 86  1  0  0  0
 73 87  2  0  0  0
 73 89  1  0  0  0
 74 90  1  0  0  0
 74151  1  0  0  0
 74152  1  0  0  0
 75 76  1  0  0  0
 75153  1  0  0  0
 76 77  1  0  0  0
 76 90  1  0  0  0
 76154  1  0  0  0
 77155  1  0  0  0
 77156  1  0  0  0
 77157  1  0  0  0
 78 82  1  0  0  0
 78158  1  0  0  0
 78159  1  0  0  0
 79 83  1  0  0  0
 79 84  1  0  0  0
 79160  1  0  0  0
 79161  1  0  0  0
 80 81  1  0  0  0
 80 85  1  0  0  0
 80162  1  0  0  0
 80163  1  0  0  0
 81 88  1  0  0  0
 81164  1  0  0  0
 81165  1  0  0  0
 82 89  1  0  0  0
 82166  1  0  0  0
 82167  1  0  0  0
 83168  1  0  0  0
 83169  1  0  0  0
 83 90  1  0  0  0
 84170  1  0  0  0
 84171  1  0  0  0
 86172  1  0  0  0
 86173  1  0  0  0
 87174  1  0  0  0
 87175  1  0  0  0
 88176  1  0  0  0
 89177  1  0  0  0
 90178  1  0  0  0
M  CHG  2  87   1  90   1
M  ISO  4   1 100  68 101  84 101  88 100
M  END
> <chiral flag>
0

> <version>
0

> <s_m_source_file>
/data/baiqing/PycharmProjects/Reinvent-master-3.2/result/LINK_invent/BTK/process_docking_weight1_custom_sum_contain_oxygen_bond_distance_aromatic_linkinvent_7_9_3/rearranged_h_0111.sdf

> <i_m_source_file_index>
96

> <r_mmod_Potential_Energy-OPLS-2005>
-534.210510253906

> <r_mmod_Stretch_Energy-OPLS-2005>
37.2763748168945

> <r_mmod_Bend_Energy-OPLS-2005>
141.35823059082

> <r_mmod_Torsional_Energy-OPLS-2005>
260.641326904297

> <r_mmod_Improper_Torsional_Energy-OPLS-2005>
3.14825367927551

> <r_mmod_Van_der_Waal_Energy-OPLS-2005>
139.321807861328

> <r_mmod_Electrostatic_Energy-OPLS-2005>
-193.514373779297

> <r_mmod_Solvation_Energy-OPLS-2005>
-931.204162597656

> <b_mmod_Minimization_Converged-OPLS-2005>
0

> <r_mmod_RMS_Derivative-OPLS-2005>
1.99634075164795

$$$$
96
                    3D
 Structure written by MMmdl.
159166  0  0  1  0            999 V2000
  -30.7203  -14.4681   20.6019 C   0  0  0  0  0  0
  -30.4303  -12.3159   19.4229 C   0  0  0  0  0  0
  -29.4985  -12.5074   18.2098 C   0  0  0  0  0  0
  -28.0216  -12.3620   18.6243 C   0  0  0  0  0  0
  -27.6656  -13.2067   19.8766 C   0  0  2  0  0  0
  -28.7088  -12.9929   20.9971 C   0  0  0  0  0  0
  -25.2622  -13.8175   20.5695 C   0  0  0  0  0  0
  -24.1864  -13.0460   20.9201 C   0  0  0  0  0  0
  -24.6407  -11.6918   20.8745 C   0  0  0  0  0  0
  -23.9072  -10.4300   21.0404 C   0  0  0  0  0  0
  -24.3628   -9.4208   21.9175 C   0  0  0  0  0  0
  -23.6307   -8.2246   22.0743 C   0  0  0  0  0  0
  -22.4282   -8.0289   21.3551 C   0  0  0  0  0  0
  -21.9918   -9.0259   20.4655 C   0  0  0  0  0  0
  -22.7243  -10.2142   20.3056 C   0  0  0  0  0  0
  -21.6856   -6.0739   22.5280 C   0  0  0  0  0  0
  -21.4009   -6.5635   23.8215 C   0  0  0  0  0  0
  -21.3667   -5.6788   24.9176 C   0  0  0  0  0  0
  -21.6043   -4.3050   24.7213 C   0  0  0  0  0  0
  -21.8826   -3.8145   23.4333 C   0  0  0  0  0  0
  -21.9198   -4.6967   22.3397 C   0  0  0  0  0  0
  -22.7880  -13.5255   21.1849 C   0  0  0  0  0  0
  -22.1663   -4.2154   21.0970 F   0  0  0  0  0  0
  -21.5631   -3.4529   25.7722 F   0  0  0  0  0  0
  -30.0412  -13.2986   20.4471 N   0  0  0  0  0  0
  -26.3053  -12.9331   20.3380 N   0  0  0  0  0  0
  -25.9335  -11.6493   20.5787 N   0  0  0  0  0  0
  -22.0516  -12.8256   22.0413 N   0  0  0  0  0  0
  -25.4369  -15.1896   20.4078 N   0  0  0  0  0  0
  -31.8255  -14.6704   20.0918 O   0  0  0  0  0  0
  -21.6651   -6.8880   21.4245 O   0  0  0  0  0  0
  -22.3555  -14.5546   20.6677 O   0  0  0  0  0  0
  -24.6185  -31.8667   23.2104 C   0  0  0  0  0  0
  -25.9072  -32.4825   23.8403 C   0  0  1  0  0  0
  -27.2250  -27.4196   20.0885 C   0  0  0  0  0  0
  -25.5934  -33.8618   24.2347 N   0  0  0  0  0  0
  -23.4060  -30.4942   21.5525 C   0  0  2  0  0  0
  -24.8505  -28.9655   20.1093 C   0  0  0  0  0  0
  -22.7436  -29.4664   22.4986 C   0  0  0  0  0  0
  -18.0283  -28.1381   22.8495 C   0  0  0  0  0  0
  -24.1481  -36.7307   23.2640 C   0  0  0  0  0  0
  -25.9390  -30.8285   21.3648 C   0  0  0  0  0  0
  -26.0152  -29.4661   20.7043 C   0  0  0  0  0  0
  -27.2083  -28.7016   20.6882 C   0  0  0  0  0  0
  -26.0444  -26.9515   19.4657 C   0  0  0  0  0  0
  -24.8613  -27.7090   19.4851 C   0  0  0  0  0  0
  -23.6136  -29.8331   20.1657 C   0  0  0  0  0  0
  -25.4100  -36.3114   24.0349 C   0  0  1  0  0  0
  -20.5874  -28.3681   23.1300 C   0  0  2  0  0  0
  -20.6773  -26.9418   22.5408 C   0  0  0  0  0  0
  -19.5749  -26.6392   21.5212 C   0  0  0  0  0  0
  -18.1930  -26.7930   22.1623 C   0  0  0  0  0  0
  -19.1533  -28.8846   23.2900 C   0  0  0  0  0  0
  -18.9457  -30.1445   23.8917 C   0  0  0  0  0  0
  -17.6460  -30.6589   24.0567 C   0  0  0  0  0  0
  -25.9025  -34.9477   23.5136 C   0  0  0  0  0  0
  -16.5349  -29.9088   23.6334 C   0  0  0  0  0  0
  -16.7272  -28.6501   23.0367 C   0  0  0  0  0  0
  -26.4507  -31.6607   25.0727 C   0  0  0  0  0  0
  -25.3796  -31.3687   26.1493 C   0  0  0  0  0  0
  -27.0351  -30.3057   24.6088 C   0  0  0  0  0  0
  -27.6080  -32.4342   25.7474 C   0  0  0  0  0  0
  -27.5582  -37.1800   24.8480 C   0  0  0  0  0  0
  -21.4159  -29.3039   22.3701 N   0  0  0  0  0  0
  -26.4293  -37.3791   23.9425 N   0  0  0  0  0  0
  -24.6731  -31.0768   22.1005 N   0  0  0  0  0  0
  -23.4199  -28.8185   23.3022 O   0  0  0  0  0  0
  -28.3526  -26.6160   20.1479 O   0  0  0  0  0  0
  -26.5579  -34.8929   22.4690 O   0  0  0  0  0  0
  -23.5376  -32.1410   23.7512 O   0  0  0  0  0  0
  -29.2582  -24.2789   20.3958 C   0  0  0  0  0  0
  -27.7102  -25.3057   22.1097 C   0  0  0  0  0  0
  -29.6230  -20.2101   18.6520 C   0  0  0  0  0  0
  -28.8736  -22.7848   20.2479 C   0  0  0  0  0  0
  -30.2968  -19.3214   20.9600 C   0  0  0  0  0  0
  -30.5026  -16.8470   21.4428 C   0  0  0  0  0  0
  -28.0861  -25.2652   20.6163 C   0  0  1  0  0  0
  -29.4864  -20.4050   20.1770 C   0  0  1  0  0  0
  -30.0564  -15.4495   21.2437 N   0  0  0  0  0  0
  -29.9156  -21.7737   20.5246 N   0  0  0  0  0  0
  -29.7473  -17.9485   20.7768 N   0  3  0  0  0  0
  -30.4371  -24.6496   20.3386 O   0  0  0  0  0  0
  -31.4739  -12.4172   19.1165 H   0  0  0  0  0  0
  -30.3352  -11.3046   19.8218 H   0  0  0  0  0  0
  -29.7405  -11.7805   17.4331 H   0  0  0  0  0  0
  -29.6631  -13.4926   17.7707 H   0  0  0  0  0  0
  -27.8413  -11.3065   18.8298 H   0  0  0  0  0  0
  -27.3692  -12.6290   17.7918 H   0  0  0  0  0  0
  -27.7090  -14.2528   19.5736 H   0  0  0  0  0  0
  -28.6897  -11.9570   21.3374 H   0  0  0  0  0  0
  -28.4647  -13.5906   21.8770 H   0  0  0  0  0  0
  -25.2775   -9.5678   22.4742 H   0  0  0  0  0  0
  -24.0031   -7.4628   22.7443 H   0  0  0  0  0  0
  -21.0853   -8.8770   19.8960 H   0  0  0  0  0  0
  -22.3697  -10.9676   19.6165 H   0  0  0  0  0  0
  -21.1985   -7.6139   23.9721 H   0  0  0  0  0  0
  -21.1494   -6.0510   25.9084 H   0  0  0  0  0  0
  -22.0604   -2.7608   23.2827 H   0  0  0  0  0  0
  -22.4131  -11.9918   22.4785 H   0  0  0  0  0  0
  -21.1134  -13.1270   22.2633 H   0  0  0  0  0  0
  -24.6652  -15.8426   20.4977 H   0  0  0  0  0  0
  -26.2762  -15.6169   20.0381 H   0  0  0  0  0  0
  -26.7131  -32.5525   23.1155 H   0  0  0  0  0  0
  -25.0171  -33.9784   25.0553 H   0  0  0  0  0  0
  -22.6960  -31.3129   21.4177 H   0  0  0  0  0  0
  -23.3750  -35.9635   23.3321 H   0  0  0  0  0  0
  -24.3588  -36.8893   22.2054 H   0  0  0  0  0  0
  -23.7215  -37.6509   23.6634 H   0  0  0  0  0  0
  -26.0558  -31.5954   20.5990 H   0  0  0  0  0  0
  -26.8260  -30.8775   21.9849 H   0  0  0  0  0  0
  -28.1034  -29.0781   21.1623 H   0  0  0  0  0  0
  -26.0175  -25.9980   18.9613 H   0  0  0  0  0  0
  -23.9691  -27.3211   19.0134 H   0  0  0  0  0  0
  -23.7234  -30.6128   19.4111 H   0  0  0  0  0  0
  -22.7360  -29.2575   19.8659 H   0  0  0  0  0  0
  -25.1266  -36.1983   25.0838 H   0  0  0  0  0  0
  -20.9973  -28.3243   24.1415 H   0  0  0  0  0  0
  -20.5702  -26.2283   23.3596 H   0  0  0  0  0  0
  -21.6638  -26.7469   22.1177 H   0  0  0  0  0  0
  -19.6912  -25.6308   21.1229 H   0  0  0  0  0  0
  -19.6684  -27.3210   20.6747 H   0  0  0  0  0  0
  -17.4203  -26.6713   21.4017 H   0  0  0  0  0  0
  -18.0319  -26.0056   22.8995 H   0  0  0  0  0  0
  -19.7933  -30.7263   24.2296 H   0  0  0  0  0  0
  -17.5013  -31.6273   24.5165 H   0  0  0  0  0  0
  -15.5350  -30.3004   23.7635 H   0  0  0  0  0  0
  -15.8671  -28.0817   22.7089 H   0  0  0  0  0  0
  -24.5970  -30.7035   25.7824 H   0  0  0  0  0  0
  -24.9009  -32.2838   26.4982 H   0  0  0  0  0  0
  -25.8185  -30.8825   27.0217 H   0  0  0  0  0  0
  -26.2876  -29.6790   24.1200 H   0  0  0  0  0  0
  -27.4204  -29.7313   25.4525 H   0  0  0  0  0  0
  -27.8681  -30.4404   23.9182 H   0  0  0  0  0  0
  -27.2693  -33.3626   26.2085 H   0  0  0  0  0  0
  -28.3854  -32.6928   25.0273 H   0  0  0  0  0  0
  -28.0803  -31.8459   26.5357 H   0  0  0  0  0  0
  -28.2608  -38.0087   24.7511 H   0  0  0  0  0  0
  -28.1057  -36.2612   24.6308 H   0  0  0  0  0  0
  -27.2313  -37.1460   25.8888 H   0  0  0  0  0  0
  -20.9329  -29.8763   21.6915 H   0  0  0  0  0  0
  -26.0191  -38.2873   24.1415 H   0  0  0  0  0  0
  -27.5942  -24.3040   22.5246 H   0  0  0  0  0  0
  -26.7660  -25.8271   22.2681 H   0  0  0  0  0  0
  -28.4780  -25.8184   22.6885 H   0  0  0  0  0  0
  -29.2567  -19.2305   18.3456 H   0  0  0  0  0  0
  -30.6613  -20.2807   18.3244 H   0  0  0  0  0  0
  -29.0490  -20.9377   18.0784 H   0  0  0  0  0  0
  -28.5192  -22.6767   19.2223 H   0  0  0  0  0  0
  -28.0114  -22.5903   20.8860 H   0  0  0  0  0  0
  -30.2851  -19.5462   22.0287 H   0  0  0  0  0  0
  -31.3417  -19.3405   20.6468 H   0  0  0  0  0  0
  -31.5540  -16.9426   21.1622 H   0  0  0  0  0  0
  -30.4828  -17.0342   22.5166 H   0  0  0  0  0  0
  -27.2598  -24.8229   20.0645 H   0  0  0  0  0  0
  -28.4383  -20.2947   20.4637 H   0  0  0  0  0  0
  -29.1764  -15.1814   21.6584 H   0  0  0  0  0  0
  -30.7547  -22.0289   20.0082 H   0  0  0  0  0  0
  -29.7224  -17.7661   19.7883 H   0  0  0  0  0  0
  -28.8001  -17.9509   21.1183 H   0  0  0  0  0  0
  1 25  1  0  0  0
  1 30  2  0  0  0
  1 79  1  0  0  0
  2  3  1  0  0  0
  2 25  1  0  0  0
  2 83  1  0  0  0
  2 84  1  0  0  0
  3  4  1  0  0  0
  3 85  1  0  0  0
  3 86  1  0  0  0
  4  5  1  0  0  0
  4 87  1  0  0  0
  4 88  1  0  0  0
  5  6  1  0  0  0
  5 26  1  0  0  0
  5 89  1  0  0  0
  6 25  1  0  0  0
  6 90  1  0  0  0
  6 91  1  0  0  0
  7  8  2  0  0  0
  7 26  1  0  0  0
  7 29  1  0  0  0
  8  9  1  0  0  0
  8 22  1  0  0  0
  9 10  1  0  0  0
  9 27  2  0  0  0
 10 11  2  0  0  0
 10 15  1  0  0  0
 11 12  1  0  0  0
 11 92  1  0  0  0
 12 13  2  0  0  0
 12 93  1  0  0  0
 13 14  1  0  0  0
 13 31  1  0  0  0
 14 15  2  0  0  0
 14 94  1  0  0  0
 15 95  1  0  0  0
 16 17  2  0  0  0
 16 21  1  0  0  0
 16 31  1  0  0  0
 17 18  1  0  0  0
 17 96  1  0  0  0
 18 19  2  0  0  0
 18 97  1  0  0  0
 19 20  1  0  0  0
 19 24  1  0  0  0
 20 21  2  0  0  0
 20 98  1  0  0  0
 21 23  1  0  0  0
 22 28  1  0  0  0
 22 32  2  0  0  0
 26 27  1  0  0  0
 28 99  1  0  0  0
 28100  1  0  0  0
 29101  1  0  0  0
 29102  1  0  0  0
 33 34  1  0  0  0
 33 66  1  0  0  0
 33 70  2  0  0  0
 34 36  1  0  0  0
 34 59  1  0  0  0
 34103  1  0  0  0
 35 44  2  0  0  0
 35 45  1  0  0  0
 35 68  1  0  0  0
 36 56  1  0  0  0
 36104  1  0  0  0
 37 39  1  0  0  0
 37 47  1  0  0  0
 37 66  1  0  0  0
 37105  1  0  0  0
 38 43  2  0  0  0
 38 46  1  0  0  0
 38 47  1  0  0  0
 39 64  1  0  0  0
 39 67  2  0  0  0
 40 52  1  0  0  0
 40 53  2  0  0  0
 40 58  1  0  0  0
 41106  1  0  0  0
 41107  1  0  0  0
 41108  1  0  0  0
 41 48  1  0  0  0
 42 43  1  0  0  0
 42 66  1  0  0  0
 42109  1  0  0  0
 42110  1  0  0  0
 43 44  1  0  0  0
 44111  1  0  0  0
 45 46  2  0  0  0
 45112  1  0  0  0
 46113  1  0  0  0
 47114  1  0  0  0
 47115  1  0  0  0
 48 56  1  0  0  0
 48 65  1  0  0  0
 48116  1  0  0  0
 49 50  1  0  0  0
 49 53  1  0  0  0
 49 64  1  0  0  0
 49117  1  0  0  0
 50 51  1  0  0  0
 50118  1  0  0  0
 50119  1  0  0  0
 51 52  1  0  0  0
 51120  1  0  0  0
 51121  1  0  0  0
 52122  1  0  0  0
 52123  1  0  0  0
 53 54  1  0  0  0
 54 55  2  0  0  0
 54124  1  0  0  0
 55 57  1  0  0  0
 55125  1  0  0  0
 56 69  2  0  0  0
 57 58  2  0  0  0
 57126  1  0  0  0
 58127  1  0  0  0
 59 60  1  0  0  0
 59 61  1  0  0  0
 59 62  1  0  0  0
 60128  1  0  0  0
 60129  1  0  0  0
 60130  1  0  0  0
 61131  1  0  0  0
 61132  1  0  0  0
 61133  1  0  0  0
 62134  1  0  0  0
 62135  1  0  0  0
 62136  1  0  0  0
 63 65  1  0  0  0
 63137  1  0  0  0
 63138  1  0  0  0
 63139  1  0  0  0
 64140  1  0  0  0
 65141  1  0  0  0
 68 77  1  0  0  0
 71 74  1  0  0  0
 71 77  1  0  0  0
 71 82  2  0  0  0
 72142  1  0  0  0
 72143  1  0  0  0
 72144  1  0  0  0
 72 77  1  0  0  0
 73145  1  0  0  0
 73146  1  0  0  0
 73147  1  0  0  0
 73 78  1  0  0  0
 74 80  1  0  0  0
 74148  1  0  0  0
 74149  1  0  0  0
 75 78  1  0  0  0
 75 81  1  0  0  0
 75150  1  0  0  0
 75151  1  0  0  0
 76 79  1  0  0  0
 76 81  1  0  0  0
 76152  1  0  0  0
 76153  1  0  0  0
 77154  1  0  0  0
 78 80  1  0  0  0
 78155  1  0  0  0
 79156  1  0  0  0
 80157  1  0  0  0
 81158  1  0  0  0
 81159  1  0  0  0
M  CHG  1  81   1
M  ISO  4   1 100  68 101  77 101  79 100
M  END
> <chiral flag>
0

> <version>
0

> <s_m_source_file>
/data/baiqing/PycharmProjects/Reinvent-master-3.2/result/LINK_invent/BTK/process_docking_weight1_custom_sum_contain_oxygen_bond_distance_aromatic_linkinvent_7_9_3/rearranged_h_0111.sdf

> <i_m_source_file_index>
97

> <r_mmod_Potential_Energy-OPLS-2005>
-223.433654785156

> <r_mmod_Stretch_Energy-OPLS-2005>
42.8277435302734

> <r_mmod_Bend_Energy-OPLS-2005>
95.8679504394531

> <r_mmod_Torsional_Energy-OPLS-2005>
222.626220703125

> <r_mmod_Improper_Torsional_Energy-OPLS-2005>
3.04686689376831

> <r_mmod_Van_der_Waal_Energy-OPLS-2005>
136.158508300781

> <r_mmod_Electrostatic_Energy-OPLS-2005>
-230.547424316406

> <r_mmod_Solvation_Energy-OPLS-2005>
-509.103515625

> <b_mmod_Minimization_Converged-OPLS-2005>
0

> <r_mmod_RMS_Derivative-OPLS-2005>
2.32976150512695

$$$$
97
                    3D
 Structure written by MMmdl.
158166  0  0  1  0            999 V2000
  -30.5830  -14.7443   20.5189 C   0  0  0  0  0  0
  -30.4447  -12.4734   19.4606 C   0  0  0  0  0  0
  -29.5097  -12.5146   18.2306 C   0  0  0  0  0  0
  -28.0372  -12.3282   18.6498 C   0  0  0  0  0  0
  -27.6422  -13.2254   19.8522 C   0  0  2  0  0  0
  -28.6849  -13.1316   20.9850 C   0  0  0  0  0  0
  -25.2518  -13.8163   20.5684 C   0  0  0  0  0  0
  -24.1813  -13.0442   20.9225 C   0  0  0  0  0  0
  -24.6387  -11.6908   20.8757 C   0  0  0  0  0  0
  -23.9076  -10.4296   21.0423 C   0  0  0  0  0  0
  -24.3629   -9.4204   21.9191 C   0  0  0  0  0  0
  -23.6307   -8.2240   22.0757 C   0  0  0  0  0  0
  -22.4289   -8.0278   21.3541 C   0  0  0  0  0  0
  -21.9934   -9.0258   20.4651 C   0  0  0  0  0  0
  -22.7267  -10.2134   20.3066 C   0  0  0  0  0  0
  -21.6841   -6.0745   22.5292 C   0  0  0  0  0  0
  -21.3990   -6.5641   23.8229 C   0  0  0  0  0  0
  -21.3654   -5.6793   24.9188 C   0  0  0  0  0  0
  -21.6047   -4.3064   24.7241 C   0  0  0  0  0  0
  -21.8811   -3.8160   23.4361 C   0  0  0  0  0  0
  -21.9190   -4.6973   22.3409 C   0  0  0  0  0  0
  -22.7837  -13.5217   21.1921 C   0  0  0  0  0  0
  -22.1663   -4.2167   21.0985 F   0  0  0  0  0  0
  -21.5643   -3.4548   25.7756 F   0  0  0  0  0  0
  -29.9821  -13.5113   20.4110 N   0  0  0  0  0  0
  -26.2931  -12.9362   20.3274 N   0  0  0  0  0  0
  -25.9310  -11.6524   20.5747 N   0  0  0  0  0  0
  -22.0489  -12.8167   22.0444 N   0  0  0  0  0  0
  -25.4204  -15.1882   20.4058 N   0  0  0  0  0  0
  -31.7687  -14.8851   20.2031 O   0  0  0  0  0  0
  -21.6629   -6.8886   21.4253 O   0  0  0  0  0  0
  -22.3536  -14.5554   20.6807 O   0  0  0  0  0  0
  -24.6284  -31.8558   23.2000 C   0  0  0  0  0  0
  -25.9112  -32.4761   23.8334 C   0  0  1  0  0  0
  -27.2293  -27.2881   20.1645 C   0  0  0  0  0  0
  -25.5902  -33.8568   24.2260 N   0  0  0  0  0  0
  -23.4215  -30.4758   21.5448 C   0  0  2  0  0  0
  -24.8728  -28.9153   20.1254 C   0  0  0  0  0  0
  -22.7483  -29.4608   22.4984 C   0  0  0  0  0  0
  -18.0272  -28.1380   22.8488 C   0  0  0  0  0  0
  -24.1452  -36.7263   23.2649 C   0  0  0  0  0  0
  -25.9630  -30.7859   21.3669 C   0  0  0  0  0  0
  -26.0430  -29.4070   20.7191 C   0  0  0  0  0  0
  -27.2284  -28.6070   20.7180 C   0  0  0  0  0  0
  -26.0397  -26.8468   19.5501 C   0  0  0  0  0  0
  -24.8751  -27.6430   19.5305 C   0  0  0  0  0  0
  -23.6371  -29.7951   20.1673 C   0  0  0  0  0  0
  -25.4083  -36.3069   24.0342 C   0  0  1  0  0  0
  -20.5879  -28.3679   23.1298 C   0  0  2  0  0  0
  -20.6758  -26.9396   22.5418 C   0  0  0  0  0  0
  -19.5723  -26.6359   21.5227 C   0  0  0  0  0  0
  -18.1888  -26.7923   22.1619 C   0  0  0  0  0  0
  -19.1531  -28.8852   23.2866 C   0  0  0  0  0  0
  -18.9477  -30.1456   23.8859 C   0  0  0  0  0  0
  -17.6480  -30.6595   24.0558 C   0  0  0  0  0  0
  -25.9027  -34.9442   23.5105 C   0  0  0  0  0  0
  -16.5366  -29.9086   23.6370 C   0  0  0  0  0  0
  -16.7264  -28.6511   23.0370 C   0  0  0  0  0  0
  -26.4501  -31.6608   25.0724 C   0  0  0  0  0  0
  -25.3719  -31.3746   26.1455 C   0  0  0  0  0  0
  -27.0398  -30.3058   24.6178 C   0  0  0  0  0  0
  -27.6042  -32.4390   25.7483 C   0  0  0  0  0  0
  -27.5556  -37.1758   24.8469 C   0  0  0  0  0  0
  -21.4191  -29.3030   22.3714 N   0  0  0  0  0  0
  -26.4249  -37.3773   23.9449 N   0  0  0  0  0  0
  -24.6905  -31.0565   22.0953 N   0  0  0  0  0  0
  -23.4178  -28.8133   23.3081 O   0  0  0  0  0  0
  -28.3373  -26.4254   20.1831 O   0  0  0  0  0  0
  -26.5594  -34.8919   22.4669 O   0  0  0  0  0  0
  -23.5457  -32.1367   23.7330 O   0  0  0  0  0  0
  -28.6096  -23.7904   20.1856 C   0  0  0  0  0  0
  -28.2300  -21.8372   21.9929 C   0  0  0  0  0  0
  -28.8037  -20.4043   22.2481 C   0  0  0  0  0  0
  -29.4592  -21.1688   20.1000 C   0  0  0  0  0  0
  -29.1514  -22.4828   20.9429 C   0  0  1  0  0  0
  -27.7849  -18.2389   20.3637 C   0  0  0  0  0  0
  -28.2333  -25.1413   20.9460 C   0  0  0  0  0  0
  -30.1019  -17.2948   21.1567 C   0  0  0  0  0  0
  -29.2934  -18.5353   20.4789 C   0  0  2  0  0  0
  -29.7750  -15.8316   20.8228 N   0  0  0  0  0  0
  -29.5510  -19.9669   21.0293 N   0  3  2  0  0  0
  -28.5001  -23.7563   18.9565 O   0  0  0  0  0  0
  -31.4795  -12.6320   19.1515 H   0  0  0  0  0  0
  -30.4216  -11.4902   19.9339 H   0  0  0  0  0  0
  -29.7951  -11.7403   17.5166 H   0  0  0  0  0  0
  -29.6229  -13.4663   17.7086 H   0  0  0  0  0  0
  -27.9057  -11.2790   18.9164 H   0  0  0  0  0  0
  -27.3741  -12.5108   17.8045 H   0  0  0  0  0  0
  -27.6422  -14.2494   19.4784 H   0  0  0  0  0  0
  -28.7293  -12.1162   21.3822 H   0  0  0  0  0  0
  -28.4148  -13.7753   21.8236 H   0  0  0  0  0  0
  -25.2766   -9.5673   22.4786 H   0  0  0  0  0  0
  -24.0013   -7.4617   22.7456 H   0  0  0  0  0  0
  -21.0876   -8.8775   19.8940 H   0  0  0  0  0  0
  -22.3729  -10.9681   19.6188 H   0  0  0  0  0  0
  -21.1944   -7.6145   23.9737 H   0  0  0  0  0  0
  -21.1493   -6.0523   25.9090 H   0  0  0  0  0  0
  -22.0587   -2.7626   23.2858 H   0  0  0  0  0  0
  -22.4093  -11.9769   22.4732 H   0  0  0  0  0  0
  -21.1125  -13.1193   22.2738 H   0  0  0  0  0  0
  -24.6434  -15.8345   20.4900 H   0  0  0  0  0  0
  -26.2429  -15.6130   20.0005 H   0  0  0  0  0  0
  -26.7166  -32.5425   23.1067 H   0  0  0  0  0  0
  -25.0112  -33.9716   25.0450 H   0  0  0  0  0  0
  -22.7146  -31.2949   21.3912 H   0  0  0  0  0  0
  -23.3739  -35.9567   23.3307 H   0  0  0  0  0  0
  -24.3543  -36.8888   22.2060 H   0  0  0  0  0  0
  -23.7176  -37.6443   23.6691 H   0  0  0  0  0  0
  -26.0782  -31.5454   20.5917 H   0  0  0  0  0  0
  -26.8489  -30.8485   21.9878 H   0  0  0  0  0  0
  -28.1313  -28.9815   21.1826 H   0  0  0  0  0  0
  -26.0067  -25.8621   19.1063 H   0  0  0  0  0  0
  -23.9739  -27.2516   19.0789 H   0  0  0  0  0  0
  -23.7392  -30.5620   19.3995 H   0  0  0  0  0  0
  -22.7576  -29.2158   19.8782 H   0  0  0  0  0  0
  -25.1239  -36.1903   25.0834 H   0  0  0  0  0  0
  -20.9946  -28.3241   24.1432 H   0  0  0  0  0  0
  -20.5697  -26.2266   23.3604 H   0  0  0  0  0  0
  -21.6610  -26.7422   22.1168 H   0  0  0  0  0  0
  -19.6888  -25.6267   21.1247 H   0  0  0  0  0  0
  -19.6681  -27.3178   20.6757 H   0  0  0  0  0  0
  -17.4166  -26.6733   21.3993 H   0  0  0  0  0  0
  -18.0237  -26.0044   22.8991 H   0  0  0  0  0  0
  -19.7951  -30.7284   24.2179 H   0  0  0  0  0  0
  -17.5041  -31.6295   24.5124 H   0  0  0  0  0  0
  -15.5368  -30.2971   23.7760 H   0  0  0  0  0  0
  -15.8655  -28.0841   22.7117 H   0  0  0  0  0  0
  -24.5887  -30.7109   25.7790 H   0  0  0  0  0  0
  -24.8919  -32.2909   26.4920 H   0  0  0  0  0  0
  -25.8029  -30.8898   27.0230 H   0  0  0  0  0  0
  -26.3025  -29.6749   24.1215 H   0  0  0  0  0  0
  -27.4155  -29.7367   25.4696 H   0  0  0  0  0  0
  -27.8823  -30.4397   23.9388 H   0  0  0  0  0  0
  -27.2666  -33.3762   26.1948 H   0  0  0  0  0  0
  -28.3901  -32.6869   25.0320 H   0  0  0  0  0  0
  -28.0645  -31.8579   26.5488 H   0  0  0  0  0  0
  -28.2530  -38.0086   24.7586 H   0  0  0  0  0  0
  -28.1082  -36.2631   24.6205 H   0  0  0  0  0  0
  -27.2277  -37.1298   25.8861 H   0  0  0  0  0  0
  -20.9401  -29.8749   21.6902 H   0  0  0  0  0  0
  -26.0118  -38.2830   24.1521 H   0  0  0  0  0  0
  -28.1723  -22.4156   22.9153 H   0  0  0  0  0  0
  -27.2160  -21.7588   21.5968 H   0  0  0  0  0  0
  -28.0132  -19.7231   22.5566 H   0  0  0  0  0  0
  -29.5097  -20.4297   23.0819 H   0  0  0  0  0  0
  -30.3738  -21.2762   19.5137 H   0  0  0  0  0  0
  -28.6448  -21.0061   19.3923 H   0  0  0  0  0  0
  -30.0661  -22.7835   21.4585 H   0  0  0  0  0  0
  -27.6077  -17.3398   19.7757 H   0  0  0  0  0  0
  -27.2574  -19.0580   19.8711 H   0  0  0  0  0  0
  -27.3140  -18.0788   21.3342 H   0  0  0  0  0  0
  -28.9030  -25.2188   21.8017 H   0  0  0  0  0  0
  -27.2313  -25.0312   21.3650 H   0  0  0  0  0  0
  -29.9570  -17.3727   22.2337 H   0  0  0  0  0  0
  -31.1694  -17.4491   21.0042 H   0  0  0  0  0  0
  -29.6570  -18.5736   19.4513 H   0  0  0  0  0  0
  -28.8118  -15.5752   20.9757 H   0  0  0  0  0  0
  -30.5221  -19.9581   21.3085 H   0  0  0  0  0  0
  1 25  1  0  0  0
  1 30  2  0  0  0
  1 80  1  0  0  0
  2  3  1  0  0  0
  2 25  1  0  0  0
  2 83  1  0  0  0
  2 84  1  0  0  0
  3  4  1  0  0  0
  3 85  1  0  0  0
  3 86  1  0  0  0
  4  5  1  0  0  0
  4 87  1  0  0  0
  4 88  1  0  0  0
  5  6  1  0  0  0
  5 26  1  0  0  0
  5 89  1  0  0  0
  6 25  1  0  0  0
  6 90  1  0  0  0
  6 91  1  0  0  0
  7  8  2  0  0  0
  7 26  1  0  0  0
  7 29  1  0  0  0
  8  9  1  0  0  0
  8 22  1  0  0  0
  9 10  1  0  0  0
  9 27  2  0  0  0
 10 11  2  0  0  0
 10 15  1  0  0  0
 11 12  1  0  0  0
 11 92  1  0  0  0
 12 13  2  0  0  0
 12 93  1  0  0  0
 13 14  1  0  0  0
 13 31  1  0  0  0
 14 15  2  0  0  0
 14 94  1  0  0  0
 15 95  1  0  0  0
 16 17  2  0  0  0
 16 21  1  0  0  0
 16 31  1  0  0  0
 17 18  1  0  0  0
 17 96  1  0  0  0
 18 19  2  0  0  0
 18 97  1  0  0  0
 19 20  1  0  0  0
 19 24  1  0  0  0
 20 21  2  0  0  0
 20 98  1  0  0  0
 21 23  1  0  0  0
 22 28  1  0  0  0
 22 32  2  0  0  0
 26 27  1  0  0  0
 28 99  1  0  0  0
 28100  1  0  0  0
 29101  1  0  0  0
 29102  1  0  0  0
 33 34  1  0  0  0
 33 66  1  0  0  0
 33 70  2  0  0  0
 34 36  1  0  0  0
 34 59  1  0  0  0
 34103  1  0  0  0
 35 44  2  0  0  0
 35 45  1  0  0  0
 35 68  1  0  0  0
 36 56  1  0  0  0
 36104  1  0  0  0
 37 39  1  0  0  0
 37 47  1  0  0  0
 37 66  1  0  0  0
 37105  1  0  0  0
 38 43  2  0  0  0
 38 46  1  0  0  0
 38 47  1  0  0  0
 39 64  1  0  0  0
 39 67  2  0  0  0
 40 52  1  0  0  0
 40 53  2  0  0  0
 40 58  1  0  0  0
 41106  1  0  0  0
 41107  1  0  0  0
 41108  1  0  0  0
 41 48  1  0  0  0
 42 43  1  0  0  0
 42 66  1  0  0  0
 42109  1  0  0  0
 42110  1  0  0  0
 43 44  1  0  0  0
 44111  1  0  0  0
 45 46  2  0  0  0
 45112  1  0  0  0
 46113  1  0  0  0
 47114  1  0  0  0
 47115  1  0  0  0
 48 56  1  0  0  0
 48 65  1  0  0  0
 48116  1  0  0  0
 49 50  1  0  0  0
 49 53  1  0  0  0
 49 64  1  0  0  0
 49117  1  0  0  0
 50 51  1  0  0  0
 50118  1  0  0  0
 50119  1  0  0  0
 51 52  1  0  0  0
 51120  1  0  0  0
 51121  1  0  0  0
 52122  1  0  0  0
 52123  1  0  0  0
 53 54  1  0  0  0
 54 55  2  0  0  0
 54124  1  0  0  0
 55 57  1  0  0  0
 55125  1  0  0  0
 56 69  2  0  0  0
 57 58  2  0  0  0
 57126  1  0  0  0
 58127  1  0  0  0
 59 60  1  0  0  0
 59 61  1  0  0  0
 59 62  1  0  0  0
 60128  1  0  0  0
 60129  1  0  0  0
 60130  1  0  0  0
 61131  1  0  0  0
 61132  1  0  0  0
 61133  1  0  0  0
 62134  1  0  0  0
 62135  1  0  0  0
 62136  1  0  0  0
 63 65  1  0  0  0
 63137  1  0  0  0
 63138  1  0  0  0
 63139  1  0  0  0
 64140  1  0  0  0
 65141  1  0  0  0
 68 77  1  0  0  0
 71 77  1  0  0  0
 71 82  2  0  0  0
 71 75  1  0  0  0
 72 73  1  0  0  0
 72 75  1  0  0  0
 72142  1  0  0  0
 72143  1  0  0  0
 73144  1  0  0  0
 73145  1  0  0  0
 73 81  1  0  0  0
 74 75  1  0  0  0
 74 81  1  0  0  0
 74146  1  0  0  0
 74147  1  0  0  0
 75148  1  0  0  0
 76149  1  0  0  0
 76150  1  0  0  0
 76151  1  0  0  0
 76 79  1  0  0  0
 77152  1  0  0  0
 77153  1  0  0  0
 78 79  1  0  0  0
 78 80  1  0  0  0
 78154  1  0  0  0
 78155  1  0  0  0
 79 81  1  0  0  0
 79156  1  0  0  0
 80157  1  0  0  0
 81158  1  0  0  0
M  CHG  1  81   1
M  ISO  4   1 100  68 101  77 101  80 100
M  END
> <chiral flag>
0

> <version>
0

> <s_m_source_file>
/data/baiqing/PycharmProjects/Reinvent-master-3.2/result/LINK_invent/BTK/process_docking_weight1_custom_sum_contain_oxygen_bond_distance_aromatic_linkinvent_7_9_3/rearranged_h_0111.sdf

> <i_m_source_file_index>
98

> <r_mmod_Potential_Energy-OPLS-2005>
34.5574760437012

> <r_mmod_Stretch_Energy-OPLS-2005>
115.254997253418

> <r_mmod_Bend_Energy-OPLS-2005>
189.275238037109

> <r_mmod_Torsional_Energy-OPLS-2005>
300.204925537109

> <r_mmod_Improper_Torsional_Energy-OPLS-2005>
4.14109516143799

> <r_mmod_Van_der_Waal_Energy-OPLS-2005>
108.637245178223

> <r_mmod_Electrostatic_Energy-OPLS-2005>
-279.487121582031

> <r_mmod_Solvation_Energy-OPLS-2005>
-482.071441650391

> <b_mmod_Minimization_Converged-OPLS-2005>
0

> <r_mmod_RMS_Derivative-OPLS-2005>
4.11548709869385

$$$$
