0
                    3D
 Structure written by MMmdl.
163171  0  0  1  0            999 V2000
  -30.6308  -14.7305   20.4598 C   0  0  0  0  0  0
  -30.4380  -12.4156   19.4941 C   0  0  0  0  0  0
  -29.5214  -12.4974   18.2516 C   0  0  0  0  0  0
  -28.0427  -12.3336   18.6541 C   0  0  0  0  0  0
  -27.6465  -13.2343   19.8556 C   0  0  2  0  0  0
  -28.6764  -13.1592   21.0021 C   0  0  0  0  0  0
  -25.2532  -13.8223   20.5674 C   0  0  0  0  0  0
  -24.1819  -13.0465   20.9181 C   0  0  0  0  0  0
  -24.6412  -11.6940   20.8733 C   0  0  0  0  0  0
  -23.9087  -10.4310   21.0418 C   0  0  0  0  0  0
  -24.3635   -9.4223   21.9191 C   0  0  0  0  0  0
  -23.6305   -8.2256   22.0755 C   0  0  0  0  0  0
  -22.4285   -8.0295   21.3551 C   0  0  0  0  0  0
  -21.9932   -9.0275   20.4650 C   0  0  0  0  0  0
  -22.7260  -10.2151   20.3063 C   0  0  0  0  0  0
  -21.6854   -6.0749   22.5287 C   0  0  0  0  0  0
  -21.4013   -6.5645   23.8217 C   0  0  0  0  0  0
  -21.3656   -5.6797   24.9175 C   0  0  0  0  0  0
  -21.6046   -4.3067   24.7233 C   0  0  0  0  0  0
  -21.8816   -3.8156   23.4350 C   0  0  0  0  0  0
  -21.9191   -4.6974   22.3405 C   0  0  0  0  0  0
  -22.7843  -13.5244   21.1869 C   0  0  0  0  0  0
  -22.1660   -4.2159   21.0989 F   0  0  0  0  0  0
  -21.5629   -3.4546   25.7744 F   0  0  0  0  0  0
  -29.9968  -13.4579   20.4453 N   0  0  0  0  0  0
  -26.2956  -12.9432   20.3269 N   0  0  0  0  0  0
  -25.9336  -11.6571   20.5736 N   0  0  0  0  0  0
  -22.0485  -12.8215   22.0416 N   0  0  0  0  0  0
  -25.4275  -15.1942   20.4118 N   0  0  0  0  0  0
  -31.7872  -14.8898   20.0643 O   0  0  0  0  0  0
  -21.6650   -6.8893   21.4250 O   0  0  0  0  0  0
  -22.3518  -14.5547   20.6722 O   0  0  0  0  0  0
  -24.6316  -31.8547   23.1995 C   0  0  0  0  0  0
  -25.9133  -32.4758   23.8355 C   0  0  1  0  0  0
  -27.2202  -27.2561   20.1228 C   0  0  0  0  0  0
  -25.5918  -33.8559   24.2282 N   0  0  0  0  0  0
  -23.4304  -30.4792   21.5422 C   0  0  2  0  0  0
  -24.8784  -28.9276   20.1108 C   0  0  0  0  0  0
  -22.7509  -29.4594   22.4900 C   0  0  0  0  0  0
  -18.0298  -28.1383   22.8474 C   0  0  0  0  0  0
  -24.1482  -36.7290   23.2645 C   0  0  0  0  0  0
  -25.9784  -30.7644   21.3825 C   0  0  0  0  0  0
  -26.0523  -29.3870   20.7233 C   0  0  0  0  0  0
  -27.2255  -28.5633   20.7187 C   0  0  0  0  0  0
  -26.0206  -26.8709   19.4785 C   0  0  0  0  0  0
  -24.8686  -27.6781   19.4784 C   0  0  0  0  0  0
  -23.6508  -29.8156   20.1581 C   0  0  0  0  0  0
  -25.4106  -36.3081   24.0333 C   0  0  1  0  0  0
  -20.5897  -28.3699   23.1253 C   0  0  2  0  0  0
  -20.6774  -26.9403   22.5395 C   0  0  0  0  0  0
  -19.5760  -26.6377   21.5195 C   0  0  0  0  0  0
  -18.1939  -26.7920   22.1605 C   0  0  0  0  0  0
  -19.1547  -28.8857   23.2865 C   0  0  0  0  0  0
  -18.9475  -30.1456   23.8890 C   0  0  0  0  0  0
  -17.6475  -30.6586   24.0553 C   0  0  0  0  0  0
  -25.9055  -34.9438   23.5118 C   0  0  0  0  0  0
  -16.5373  -29.9078   23.6326 C   0  0  0  0  0  0
  -16.7280  -28.6495   23.0350 C   0  0  0  0  0  0
  -26.4501  -31.6581   25.0753 C   0  0  0  0  0  0
  -25.3717  -31.3674   26.1472 C   0  0  0  0  0  0
  -27.0373  -30.3010   24.6236 C   0  0  0  0  0  0
  -27.6096  -32.4318   25.7489 C   0  0  0  0  0  0
  -27.5581  -37.1792   24.8462 C   0  0  0  0  0  0
  -21.4212  -29.3062   22.3646 N   0  0  0  0  0  0
  -26.4287  -37.3773   23.9409 N   0  0  0  0  0  0
  -24.6997  -31.0502   22.0982 N   0  0  0  0  0  0
  -23.4195  -28.8113   23.2987 O   0  0  0  0  0  0
  -28.3085  -26.3498   20.1806 O   0  0  0  0  0  0
  -26.5631  -34.8903   22.4694 O   0  0  0  0  0  0
  -23.5461  -32.1400   23.7268 O   0  0  0  0  0  0
  -29.7355  -18.3226   17.9779 C   0  0  0  0  0  0
  -29.6132  -19.6860   20.0423 C   0  0  0  0  0  0
  -29.7733  -17.1094   20.1265 C   0  0  0  0  0  0
  -29.7703  -17.1200   18.7141 C   0  0  0  0  0  0
  -29.6868  -19.5826   18.6244 C   0  0  0  0  0  0
  -29.6740  -18.4126   20.7706 C   0  0  0  0  0  0
  -29.7594  -18.2545   16.4572 C   0  0  0  0  0  0
  -32.3527  -22.2845   23.0447 C   0  0  0  0  0  0
  -30.9831  -21.7377   22.6288 C   0  0  0  0  0  0
  -29.1015  -23.7105   20.3640 C   0  0  0  0  0  0
  -30.9538  -21.3800   21.1347 C   0  0  0  0  0  0
  -28.6342  -22.1456   20.3532 C   0  0  0  0  0  0
  -28.0260  -24.8750   20.0413 C   0  0  0  0  0  0
  -29.6214  -21.0163   20.6526 N   0  0  0  0  0  0
  -29.7599  -15.8431   20.7912 O   0  0  0  0  0  0
  -29.7662  -15.9450   18.0373 F   0  0  0  0  0  0
  -29.7973  -21.0047   17.6322 Cl  0  0  0  0  0  0
  -29.6089  -18.4257   22.4982 Cl  0  0  0  0  0  0
  -31.4821  -12.5423   19.2035 H   0  0  0  0  0  0
  -30.3727  -11.4308   19.9586 H   0  0  0  0  0  0
  -29.8000  -11.7300   17.5280 H   0  0  0  0  0  0
  -29.6628  -13.4539   17.7474 H   0  0  0  0  0  0
  -27.8907  -11.2845   18.9123 H   0  0  0  0  0  0
  -27.3937  -12.5331   17.8000 H   0  0  0  0  0  0
  -27.6503  -14.2586   19.4823 H   0  0  0  0  0  0
  -28.6811  -12.1690   21.4600 H   0  0  0  0  0  0
  -28.4205  -13.8621   21.7979 H   0  0  0  0  0  0
  -25.2784   -9.5685   22.4756 H   0  0  0  0  0  0
  -24.0017   -7.4649   22.7472 H   0  0  0  0  0  0
  -21.0860   -8.8799   19.8951 H   0  0  0  0  0  0
  -22.3738  -10.9688   19.6165 H   0  0  0  0  0  0
  -21.1996   -7.6148   23.9725 H   0  0  0  0  0  0
  -21.1480   -6.0527   25.9081 H   0  0  0  0  0  0
  -22.0592   -2.7619   23.2858 H   0  0  0  0  0  0
  -22.4110  -11.9866   22.4777 H   0  0  0  0  0  0
  -21.1102  -13.1234   22.2639 H   0  0  0  0  0  0
  -24.6697  -15.8567   20.5316 H   0  0  0  0  0  0
  -26.2917  -15.6272   20.1118 H   0  0  0  0  0  0
  -26.7201  -32.5390   23.1096 H   0  0  0  0  0  0
  -25.0024  -33.9690   25.0403 H   0  0  0  0  0  0
  -22.7304  -31.3041   21.3934 H   0  0  0  0  0  0
  -23.3758  -35.9607   23.3297 H   0  0  0  0  0  0
  -24.3575  -36.8929   22.2065 H   0  0  0  0  0  0
  -23.7220  -37.6480   23.6682 H   0  0  0  0  0  0
  -26.1188  -31.5216   20.6108 H   0  0  0  0  0  0
  -26.8554  -30.8145   22.0155 H   0  0  0  0  0  0
  -28.1231  -28.9021   21.2172 H   0  0  0  0  0  0
  -25.9356  -25.9187   18.9777 H   0  0  0  0  0  0
  -23.9701  -27.3252   18.9905 H   0  0  0  0  0  0
  -23.7745  -30.5934   19.4037 H   0  0  0  0  0  0
  -22.7682  -29.2519   19.8511 H   0  0  0  0  0  0
  -25.1270  -36.1945   25.0818 H   0  0  0  0  0  0
  -21.0016  -28.3284   24.1370 H   0  0  0  0  0  0
  -20.5657  -26.2297   23.3600 H   0  0  0  0  0  0
  -21.6643  -26.7398   22.1204 H   0  0  0  0  0  0
  -19.6915  -25.6288   21.1231 H   0  0  0  0  0  0
  -19.6707  -27.3185   20.6721 H   0  0  0  0  0  0
  -17.4195  -26.6678   21.4018 H   0  0  0  0  0  0
  -18.0350  -26.0048   22.8986 H   0  0  0  0  0  0
  -19.7953  -30.7264   24.2272 H   0  0  0  0  0  0
  -17.5027  -31.6268   24.5157 H   0  0  0  0  0  0
  -15.5376  -30.2980   23.7659 H   0  0  0  0  0  0
  -15.8672  -28.0818   22.7079 H   0  0  0  0  0  0
  -24.5957  -30.6947   25.7785 H   0  0  0  0  0  0
  -24.8811  -32.2788   26.4907 H   0  0  0  0  0  0
  -25.8051  -30.8870   27.0256 H   0  0  0  0  0  0
  -26.2964  -29.6730   24.1286 H   0  0  0  0  0  0
  -27.4099  -29.7300   25.4750 H   0  0  0  0  0  0
  -27.8795  -30.4309   23.9446 H   0  0  0  0  0  0
  -27.2794  -33.3662   26.2036 H   0  0  0  0  0  0
  -28.3905  -32.6814   25.0294 H   0  0  0  0  0  0
  -28.0759  -31.8445   26.5414 H   0  0  0  0  0  0
  -28.2592  -38.0101   24.7545 H   0  0  0  0  0  0
  -28.1097  -36.2640   24.6257 H   0  0  0  0  0  0
  -27.2299  -37.1398   25.8865 H   0  0  0  0  0  0
  -20.9411  -29.8810   21.6867 H   0  0  0  0  0  0
  -26.0186  -38.2842   24.1444 H   0  0  0  0  0  0
  -29.7199  -17.2325   16.0817 H   0  0  0  0  0  0
  -30.6710  -18.7101   16.0711 H   0  0  0  0  0  0
  -28.9045  -18.7840   16.0371 H   0  0  0  0  0  0
  -32.3612  -22.5712   24.0961 H   0  0  0  0  0  0
  -32.6163  -23.1664   22.4595 H   0  0  0  0  0  0
  -33.1343  -21.5394   22.8939 H   0  0  0  0  0  0
  -30.2184  -22.4739   22.8715 H   0  0  0  0  0  0
  -30.7541  -20.8575   23.2294 H   0  0  0  0  0  0
  -29.9214  -23.8261   19.6562 H   0  0  0  0  0  0
  -29.5238  -23.9403   21.3389 H   0  0  0  0  0  0
  -31.6686  -20.5779   20.9460 H   0  0  0  0  0  0
  -31.3184  -22.2242   20.5495 H   0  0  0  0  0  0
  -28.1388  -21.9439   19.4041 H   0  0  0  0  0  0
  -27.8351  -22.0509   21.0897 H   0  0  0  0  0  0
  -27.1502  -24.6586   20.6548 H   0  0  0  0  0  0
  -27.7193  -24.7072   19.0096 H   0  0  0  0  0  0
  1 25  1  0  0  0
  1 30  2  0  0  0
  1 85  1  0  0  0
  2  3  1  0  0  0
  2 25  1  0  0  0
  2 89  1  0  0  0
  2 90  1  0  0  0
  3  4  1  0  0  0
  3 91  1  0  0  0
  3 92  1  0  0  0
  4  5  1  0  0  0
  4 93  1  0  0  0
  4 94  1  0  0  0
  5  6  1  0  0  0
  5 26  1  0  0  0
  5 95  1  0  0  0
  6 25  1  0  0  0
  6 96  1  0  0  0
  6 97  1  0  0  0
  7  8  2  0  0  0
  7 26  1  0  0  0
  7 29  1  0  0  0
  8  9  1  0  0  0
  8 22  1  0  0  0
  9 10  1  0  0  0
  9 27  2  0  0  0
 10 11  2  0  0  0
 10 15  1  0  0  0
 11 12  1  0  0  0
 11 98  1  0  0  0
 12 13  2  0  0  0
 12 99  1  0  0  0
 13 14  1  0  0  0
 13 31  1  0  0  0
 14 15  2  0  0  0
 14100  1  0  0  0
 15101  1  0  0  0
 16 17  2  0  0  0
 16 21  1  0  0  0
 16 31  1  0  0  0
 17 18  1  0  0  0
 17102  1  0  0  0
 18 19  2  0  0  0
 18103  1  0  0  0
 19 20  1  0  0  0
 19 24  1  0  0  0
 20 21  2  0  0  0
 20104  1  0  0  0
 21 23  1  0  0  0
 22 28  1  0  0  0
 22 32  2  0  0  0
 26 27  1  0  0  0
 28105  1  0  0  0
 28106  1  0  0  0
 29107  1  0  0  0
 29108  1  0  0  0
 33 34  1  0  0  0
 33 66  1  0  0  0
 33 70  2  0  0  0
 34 36  1  0  0  0
 34 59  1  0  0  0
 34109  1  0  0  0
 35 44  2  0  0  0
 35 45  1  0  0  0
 35 68  1  0  0  0
 36 56  1  0  0  0
 36110  1  0  0  0
 37 39  1  0  0  0
 37 47  1  0  0  0
 37 66  1  0  0  0
 37111  1  0  0  0
 38 43  2  0  0  0
 38 46  1  0  0  0
 38 47  1  0  0  0
 39 64  1  0  0  0
 39 67  2  0  0  0
 40 52  1  0  0  0
 40 53  2  0  0  0
 40 58  1  0  0  0
 41112  1  0  0  0
 41113  1  0  0  0
 41114  1  0  0  0
 41 48  1  0  0  0
 42 43  1  0  0  0
 42 66  1  0  0  0
 42115  1  0  0  0
 42116  1  0  0  0
 43 44  1  0  0  0
 44117  1  0  0  0
 45 46  2  0  0  0
 45118  1  0  0  0
 46119  1  0  0  0
 47120  1  0  0  0
 47121  1  0  0  0
 48 56  1  0  0  0
 48 65  1  0  0  0
 48122  1  0  0  0
 49 50  1  0  0  0
 49 53  1  0  0  0
 49 64  1  0  0  0
 49123  1  0  0  0
 50 51  1  0  0  0
 50124  1  0  0  0
 50125  1  0  0  0
 51 52  1  0  0  0
 51126  1  0  0  0
 51127  1  0  0  0
 52128  1  0  0  0
 52129  1  0  0  0
 53 54  1  0  0  0
 54 55  2  0  0  0
 54130  1  0  0  0
 55 57  1  0  0  0
 55131  1  0  0  0
 56 69  2  0  0  0
 57 58  2  0  0  0
 57132  1  0  0  0
 58133  1  0  0  0
 59 60  1  0  0  0
 59 61  1  0  0  0
 59 62  1  0  0  0
 60134  1  0  0  0
 60135  1  0  0  0
 60136  1  0  0  0
 61137  1  0  0  0
 61138  1  0  0  0
 61139  1  0  0  0
 62140  1  0  0  0
 62141  1  0  0  0
 62142  1  0  0  0
 63 65  1  0  0  0
 63143  1  0  0  0
 63144  1  0  0  0
 63145  1  0  0  0
 64146  1  0  0  0
 65147  1  0  0  0
 68 83  1  0  0  0
 71 74  2  0  0  0
 71 75  1  0  0  0
 71 77  1  0  0  0
 72 75  2  0  0  0
 72 76  1  0  0  0
 72 84  1  0  0  0
 73 74  1  0  0  0
 73 76  2  0  0  0
 73 85  1  0  0  0
 74 86  1  0  0  0
 75 87  1  0  0  0
 76 88  1  0  0  0
 77148  1  0  0  0
 77149  1  0  0  0
 77150  1  0  0  0
 78 79  1  0  0  0
 78151  1  0  0  0
 78152  1  0  0  0
 78153  1  0  0  0
 79 81  1  0  0  0
 79154  1  0  0  0
 79155  1  0  0  0
 80 82  1  0  0  0
 80 83  1  0  0  0
 80156  1  0  0  0
 80157  1  0  0  0
 81 84  1  0  0  0
 81158  1  0  0  0
 81159  1  0  0  0
 82 84  1  0  0  0
 82160  1  0  0  0
 82161  1  0  0  0
 83162  1  0  0  0
 83163  1  0  0  0
M  ISO  4   1 100  68 101  83 101  85 100
M  END
> <chiral flag>
0

> <version>
0

> <s_m_source_file>
/data/baiqing/PycharmProjects/Reinvent-master-3.2/result/LINK_invent/BTK/process_docking_weight1_custom_sum_contain_oxygen_bond_distance_aromatic_linkinvent_7_9_3/rearranged_h_0027.sdf

> <i_m_source_file_index>
1

> <r_mmod_Potential_Energy-OPLS-2005>
251.075485229492

> <r_mmod_Stretch_Energy-OPLS-2005>
138.204177856445

> <r_mmod_Bend_Energy-OPLS-2005>
166.797775268555

> <r_mmod_Torsional_Energy-OPLS-2005>
219.038543701172

> <r_mmod_Improper_Torsional_Energy-OPLS-2005>
6.28285360336304

> <r_mmod_Van_der_Waal_Energy-OPLS-2005>
144.115539550781

> <r_mmod_Electrostatic_Energy-OPLS-2005>
-313.779541015625

> <r_mmod_Solvation_Energy-OPLS-2005>
-191.731079101562

> <b_mmod_Minimization_Converged-OPLS-2005>
0

> <r_mmod_RMS_Derivative-OPLS-2005>
2.17903065681458

$$$$
1
                    3D
 Structure written by MMmdl.
176184  0  0  1  0            999 V2000
  -30.7339  -14.4949   20.3684 C   0  0  0  0  0  0
  -30.4210  -12.2434   19.4750 C   0  0  0  0  0  0
  -29.5106  -12.3436   18.2351 C   0  0  0  0  0  0
  -28.0159  -12.2855   18.6342 C   0  0  0  0  0  0
  -27.6458  -13.1666   19.8627 C   0  0  2  0  0  0
  -28.7071  -13.0470   20.9765 C   0  0  0  0  0  0
  -25.2547  -13.8063   20.5711 C   0  0  0  0  0  0
  -24.1776  -13.0378   20.9270 C   0  0  0  0  0  0
  -24.6277  -11.6854   20.8822 C   0  0  0  0  0  0
  -23.8949  -10.4261   21.0466 C   0  0  0  0  0  0
  -24.3532   -9.4204   21.9238 C   0  0  0  0  0  0
  -23.6244   -8.2223   22.0775 C   0  0  0  0  0  0
  -22.4234   -8.0258   21.3552 C   0  0  0  0  0  0
  -21.9855   -9.0229   20.4664 C   0  0  0  0  0  0
  -22.7144  -10.2128   20.3093 C   0  0  0  0  0  0
  -21.6810   -6.0731   22.5287 C   0  0  0  0  0  0
  -21.3976   -6.5634   23.8219 C   0  0  0  0  0  0
  -21.3666   -5.6784   24.9177 C   0  0  0  0  0  0
  -21.6070   -4.3042   24.7220 C   0  0  0  0  0  0
  -21.8821   -3.8146   23.4319 C   0  0  0  0  0  0
  -21.9168   -4.6976   22.3384 C   0  0  0  0  0  0
  -22.7815  -13.5241   21.1903 C   0  0  0  0  0  0
  -22.1656   -4.2172   21.0971 F   0  0  0  0  0  0
  -21.5645   -3.4531   25.7739 F   0  0  0  0  0  0
  -30.0331  -13.3213   20.3961 N   0  0  0  0  0  0
  -26.2938  -12.9111   20.3414 N   0  0  0  0  0  0
  -25.9180  -11.6336   20.5874 N   0  0  0  0  0  0
  -22.0390  -12.8281   22.0466 N   0  0  0  0  0  0
  -25.4261  -15.1764   20.4009 N   0  0  0  0  0  0
  -31.9512  -14.4841   20.2045 O   0  0  0  0  0  0
  -21.6614   -6.8867   21.4249 O   0  0  0  0  0  0
  -22.3556  -14.5552   20.6725 O   0  0  0  0  0  0
  -24.6111  -31.8689   23.2112 C   0  0  0  0  0  0
  -25.9010  -32.4826   23.8396 C   0  0  1  0  0  0
  -27.2377  -27.4719   20.0731 C   0  0  0  0  0  0
  -25.5878  -33.8624   24.2334 N   0  0  0  0  0  0
  -23.3974  -30.4896   21.5541 C   0  0  2  0  0  0
  -24.8441  -28.9586   20.1125 C   0  0  0  0  0  0
  -22.7400  -29.4652   22.5029 C   0  0  0  0  0  0
  -18.0275  -28.1380   22.8488 C   0  0  0  0  0  0
  -24.1484  -36.7319   23.2639 C   0  0  0  0  0  0
  -25.9214  -30.8434   21.3568 C   0  0  0  0  0  0
  -26.0025  -29.4798   20.7042 C   0  0  0  0  0  0
  -27.2049  -28.7424   20.6842 C   0  0  0  0  0  0
  -26.0678  -26.9505   19.4865 C   0  0  0  0  0  0
  -24.8707  -27.6911   19.5028 C   0  0  0  0  0  0
  -23.6020  -29.8192   20.1684 C   0  0  0  0  0  0
  -25.4098  -36.3108   24.0341 C   0  0  1  0  0  0
  -20.5866  -28.3655   23.1335 C   0  0  2  0  0  0
  -20.6765  -26.9392   22.5415 C   0  0  0  0  0  0
  -19.5745  -26.6384   21.5210 C   0  0  0  0  0  0
  -18.1928  -26.7926   22.1626 C   0  0  0  0  0  0
  -19.1522  -28.8837   23.2911 C   0  0  0  0  0  0
  -18.9442  -30.1451   23.8911 C   0  0  0  0  0  0
  -17.6440  -30.6582   24.0561 C   0  0  0  0  0  0
  -25.9025  -34.9472   23.5132 C   0  0  0  0  0  0
  -16.5337  -29.9076   23.6323 C   0  0  0  0  0  0
  -16.7265  -28.6498   23.0339 C   0  0  0  0  0  0
  -26.4450  -31.6608   25.0714 C   0  0  0  0  0  0
  -25.3760  -31.3689   26.1501 C   0  0  0  0  0  0
  -27.0282  -30.3065   24.6056 C   0  0  0  0  0  0
  -27.6036  -32.4330   25.7464 C   0  0  0  0  0  0
  -27.5573  -37.1810   24.8461 C   0  0  0  0  0  0
  -21.4136  -29.3019   22.3755 N   0  0  0  0  0  0
  -26.4283  -37.3783   23.9411 N   0  0  0  0  0  0
  -24.6620  -31.0797   22.0999 N   0  0  0  0  0  0
  -23.4198  -28.8191   23.3041 O   0  0  0  0  0  0
  -28.3939  -26.7368   20.0669 O   0  0  0  0  0  0
  -26.5585  -34.8917   22.4692 O   0  0  0  0  0  0
  -23.5318  -32.1433   23.7535 O   0  0  0  0  0  0
  -31.3443  -25.5330   18.7721 C   0  0  0  0  0  0
  -31.2747  -25.3735   17.4153 C   0  0  0  0  0  0
  -30.5605  -24.1606   17.2285 C   0  0  0  0  0  0
  -30.1711  -23.6324   18.4282 C   0  0  0  0  0  0
  -31.8309  -26.2920   16.3591 C   0  0  0  0  0  0
  -28.9952  -16.1727   21.2571 C   0  0  0  0  0  0
  -29.4679  -15.9672   18.7166 C   0  0  0  0  0  0
  -29.3459  -22.4066   18.7258 C   0  0  0  0  0  0
  -30.6400  -18.4274   19.7152 C   0  0  0  0  0  0
  -31.6725  -19.5595   19.8528 C   0  0  0  0  0  0
  -31.1190  -17.0439   20.2268 C   0  0  0  0  0  0
  -29.9302  -25.5611   21.5632 C   0  0  0  0  0  0
  -30.5742  -24.3580   20.8558 C   0  0  0  0  0  0
  -31.2567  -20.8159   19.0616 C   0  0  0  0  0  0
  -28.4701  -25.8439   21.1736 C   0  0  0  0  0  0
  -30.0487  -15.8953   20.1592 C   0  0  0  0  0  0
  -30.6717  -24.4950   19.4040 N   0  0  0  0  0  0
  -30.0050  -21.3999   19.5861 N   0  3  0  0  0  0
  -30.1924  -23.4786   15.6850 Cl  0  0  0  0  0  0
  -31.4729  -12.2880   19.1893 H   0  0  0  0  0  0
  -30.2908  -11.2748   19.9595 H   0  0  0  0  0  0
  -29.7322  -11.5138   17.5606 H   0  0  0  0  0  0
  -29.7416  -13.2411   17.6660 H   0  0  0  0  0  0
  -27.7951  -11.2441   18.8664 H   0  0  0  0  0  0
  -27.3881  -12.5343   17.7797 H   0  0  0  0  0  0
  -27.6180  -14.1850   19.5133 H   0  0  0  0  0  0
  -28.4825  -13.7017   21.8170 H   0  0  0  0  0  0
  -28.6882  -12.0431   21.4009 H   0  0  0  0  0  0
  -25.2672   -9.5702   22.4823 H   0  0  0  0  0  0
  -24.0005   -7.4587   22.7421 H   0  0  0  0  0  0
  -21.0836   -8.8699   19.8907 H   0  0  0  0  0  0
  -22.3615  -10.9677   19.6198 H   0  0  0  0  0  0
  -21.1958   -7.6140   23.9754 H   0  0  0  0  0  0
  -21.1489   -6.0498   25.9104 H   0  0  0  0  0  0
  -22.0587   -2.7622   23.2805 H   0  0  0  0  0  0
  -22.3905  -11.9937   22.4943 H   0  0  0  0  0  0
  -21.1012  -13.1399   22.2582 H   0  0  0  0  0  0
  -24.6594  -15.8323   20.5072 H   0  0  0  0  0  0
  -26.2815  -15.6162   20.0856 H   0  0  0  0  0  0
  -26.7076  -32.5542   23.1164 H   0  0  0  0  0  0
  -25.0053  -33.9783   25.0496 H   0  0  0  0  0  0
  -22.6846  -31.3061   21.4175 H   0  0  0  0  0  0
  -23.3731  -35.9663   23.3306 H   0  0  0  0  0  0
  -24.3582  -36.8926   22.2049 H   0  0  0  0  0  0
  -23.7247  -37.6529   23.6653 H   0  0  0  0  0  0
  -26.0275  -31.6119   20.5900 H   0  0  0  0  0  0
  -26.8109  -30.8988   21.9717 H   0  0  0  0  0  0
  -28.1047  -29.1430   21.1319 H   0  0  0  0  0  0
  -26.0855  -25.9776   19.0162 H   0  0  0  0  0  0
  -23.9794  -27.2861   19.0451 H   0  0  0  0  0  0
  -23.6993  -30.5940   19.4069 H   0  0  0  0  0  0
  -22.7258  -29.2352   19.8779 H   0  0  0  0  0  0
  -25.1272  -36.1969   25.0829 H   0  0  0  0  0  0
  -20.9946  -28.3195   24.1467 H   0  0  0  0  0  0
  -20.5679  -26.2242   23.3589 H   0  0  0  0  0  0
  -21.6638  -26.7450   22.1203 H   0  0  0  0  0  0
  -19.6903  -25.6297   21.1236 H   0  0  0  0  0  0
  -19.6693  -27.3205   20.6751 H   0  0  0  0  0  0
  -17.4196  -26.6669   21.4032 H   0  0  0  0  0  0
  -18.0335  -26.0070   22.9027 H   0  0  0  0  0  0
  -19.7915  -30.7265   24.2285 H   0  0  0  0  0  0
  -17.4992  -31.6265   24.5163 H   0  0  0  0  0  0
  -15.5342  -30.2977   23.7654 H   0  0  0  0  0  0
  -15.8665  -28.0832   22.7043 H   0  0  0  0  0  0
  -24.5905  -30.7056   25.7843 H   0  0  0  0  0  0
  -24.8990  -32.2843   26.5018 H   0  0  0  0  0  0
  -25.8160  -30.8806   27.0215 H   0  0  0  0  0  0
  -26.2806  -29.6822   24.1152 H   0  0  0  0  0  0
  -27.4116  -29.7280   25.4469 H   0  0  0  0  0  0
  -27.8603  -30.4380   23.9139 H   0  0  0  0  0  0
  -27.2655  -33.3605   26.2091 H   0  0  0  0  0  0
  -28.3820  -32.6952   25.0287 H   0  0  0  0  0  0
  -28.0751  -31.8450   26.5348 H   0  0  0  0  0  0
  -28.2597  -38.0101   24.7512 H   0  0  0  0  0  0
  -28.1072  -36.2641   24.6291 H   0  0  0  0  0  0
  -27.2304  -37.1456   25.8866 H   0  0  0  0  0  0
  -20.9289  -29.8719   21.6965 H   0  0  0  0  0  0
  -26.0180  -38.2857   24.1421 H   0  0  0  0  0  0
  -31.7997  -26.3180   19.3614 H   0  0  0  0  0  0
  -32.8421  -25.9857   16.0927 H   0  0  0  0  0  0
  -31.8607  -27.3215   16.7197 H   0  0  0  0  0  0
  -31.2169  -26.2705   15.4582 H   0  0  0  0  0  0
  -29.3287  -15.7826   22.2193 H   0  0  0  0  0  0
  -28.0365  -15.7254   21.0258 H   0  0  0  0  0  0
  -28.7867  -17.2278   21.4100 H   0  0  0  0  0  0
  -28.7632  -16.7868   18.5959 H   0  0  0  0  0  0
  -28.9664  -15.0837   18.3558 H   0  0  0  0  0  0
  -30.2705  -16.1129   17.9939 H   0  0  0  0  0  0
  -29.0548  -21.9177   17.7942 H   0  0  0  0  0  0
  -28.4117  -22.7103   19.2008 H   0  0  0  0  0  0
  -30.3921  -18.3492   18.6575 H   0  0  0  0  0  0
  -29.7213  -18.7223   20.2135 H   0  0  0  0  0  0
  -31.8374  -19.7938   20.9062 H   0  0  0  0  0  0
  -32.6319  -19.2231   19.4569 H   0  0  0  0  0  0
  -31.9863  -16.7935   19.6154 H   0  0  0  0  0  0
  -31.5044  -17.1191   21.2435 H   0  0  0  0  0  0
  -30.5435  -26.4539   21.4370 H   0  0  0  0  0  0
  -29.9528  -25.3483   22.6329 H   0  0  0  0  0  0
  -30.0034  -23.4703   21.1173 H   0  0  0  0  0  0
  -31.5808  -24.2007   21.2441 H   0  0  0  0  0  0
  -31.1410  -20.5548   18.0098 H   0  0  0  0  0  0
  -32.0458  -21.5699   19.1001 H   0  0  0  0  0  0
  -27.9681  -26.2765   22.0431 H   0  0  0  0  0  0
  -27.9449  -24.9156   20.9430 H   0  0  0  0  0  0
  -29.3435  -20.6546   19.7227 H   0  0  0  0  0  0
  -30.1842  -21.8116   20.4859 H   0  0  0  0  0  0
  1 25  1  0  0  0
  1 30  2  0  0  0
  1 86  1  0  0  0
  2  3  1  0  0  0
  2 25  1  0  0  0
  2 90  1  0  0  0
  2 91  1  0  0  0
  3  4  1  0  0  0
  3 92  1  0  0  0
  3 93  1  0  0  0
  4  5  1  0  0  0
  4 94  1  0  0  0
  4 95  1  0  0  0
  5  6  1  0  0  0
  5 26  1  0  0  0
  5 96  1  0  0  0
  6 25  1  0  0  0
  6 97  1  0  0  0
  6 98  1  0  0  0
  7  8  2  0  0  0
  7 26  1  0  0  0
  7 29  1  0  0  0
  8  9  1  0  0  0
  8 22  1  0  0  0
  9 10  1  0  0  0
  9 27  2  0  0  0
 10 11  2  0  0  0
 10 15  1  0  0  0
 11 12  1  0  0  0
 11 99  1  0  0  0
 12 13  2  0  0  0
 12100  1  0  0  0
 13 14  1  0  0  0
 13 31  1  0  0  0
 14 15  2  0  0  0
 14101  1  0  0  0
 15102  1  0  0  0
 16 17  2  0  0  0
 16 21  1  0  0  0
 16 31  1  0  0  0
 17 18  1  0  0  0
 17103  1  0  0  0
 18 19  2  0  0  0
 18104  1  0  0  0
 19 20  1  0  0  0
 19 24  1  0  0  0
 20 21  2  0  0  0
 20105  1  0  0  0
 21 23  1  0  0  0
 22 28  1  0  0  0
 22 32  2  0  0  0
 26 27  1  0  0  0
 28106  1  0  0  0
 28107  1  0  0  0
 29108  1  0  0  0
 29109  1  0  0  0
 33 34  1  0  0  0
 33 66  1  0  0  0
 33 70  2  0  0  0
 34 36  1  0  0  0
 34 59  1  0  0  0
 34110  1  0  0  0
 35 44  2  0  0  0
 35 45  1  0  0  0
 35 68  1  0  0  0
 36 56  1  0  0  0
 36111  1  0  0  0
 37 39  1  0  0  0
 37 47  1  0  0  0
 37 66  1  0  0  0
 37112  1  0  0  0
 38 43  2  0  0  0
 38 46  1  0  0  0
 38 47  1  0  0  0
 39 64  1  0  0  0
 39 67  2  0  0  0
 40 52  1  0  0  0
 40 53  2  0  0  0
 40 58  1  0  0  0
 41113  1  0  0  0
 41114  1  0  0  0
 41115  1  0  0  0
 41 48  1  0  0  0
 42 43  1  0  0  0
 42 66  1  0  0  0
 42116  1  0  0  0
 42117  1  0  0  0
 43 44  1  0  0  0
 44118  1  0  0  0
 45 46  2  0  0  0
 45119  1  0  0  0
 46120  1  0  0  0
 47121  1  0  0  0
 47122  1  0  0  0
 48 56  1  0  0  0
 48 65  1  0  0  0
 48123  1  0  0  0
 49 50  1  0  0  0
 49 53  1  0  0  0
 49 64  1  0  0  0
 49124  1  0  0  0
 50 51  1  0  0  0
 50125  1  0  0  0
 50126  1  0  0  0
 51 52  1  0  0  0
 51127  1  0  0  0
 51128  1  0  0  0
 52129  1  0  0  0
 52130  1  0  0  0
 53 54  1  0  0  0
 54 55  2  0  0  0
 54131  1  0  0  0
 55 57  1  0  0  0
 55132  1  0  0  0
 56 69  2  0  0  0
 57 58  2  0  0  0
 57133  1  0  0  0
 58134  1  0  0  0
 59 60  1  0  0  0
 59 61  1  0  0  0
 59 62  1  0  0  0
 60135  1  0  0  0
 60136  1  0  0  0
 60137  1  0  0  0
 61138  1  0  0  0
 61139  1  0  0  0
 61140  1  0  0  0
 62141  1  0  0  0
 62142  1  0  0  0
 62143  1  0  0  0
 63 65  1  0  0  0
 63144  1  0  0  0
 63145  1  0  0  0
 63146  1  0  0  0
 64147  1  0  0  0
 65148  1  0  0  0
 68 85  1  0  0  0
 71 72  2  0  0  0
 71 87  1  0  0  0
 71149  1  0  0  0
 72 73  1  0  0  0
 72 75  1  0  0  0
 73 74  2  0  0  0
 73 89  1  0  0  0
 74 78  1  0  0  0
 74 87  1  0  0  0
 75150  1  0  0  0
 75151  1  0  0  0
 75152  1  0  0  0
 76153  1  0  0  0
 76154  1  0  0  0
 76155  1  0  0  0
 76 86  1  0  0  0
 77 86  1  0  0  0
 77156  1  0  0  0
 77157  1  0  0  0
 77158  1  0  0  0
 78 88  1  0  0  0
 78159  1  0  0  0
 78160  1  0  0  0
 79 80  1  0  0  0
 79 81  1  0  0  0
 79161  1  0  0  0
 79162  1  0  0  0
 80 84  1  0  0  0
 80163  1  0  0  0
 80164  1  0  0  0
 81 86  1  0  0  0
 81165  1  0  0  0
 81166  1  0  0  0
 82 83  1  0  0  0
 82 85  1  0  0  0
 82167  1  0  0  0
 82168  1  0  0  0
 83 87  1  0  0  0
 83169  1  0  0  0
 83170  1  0  0  0
 84 88  1  0  0  0
 84171  1  0  0  0
 84172  1  0  0  0
 85173  1  0  0  0
 85174  1  0  0  0
 88175  1  0  0  0
 88176  1  0  0  0
M  CHG  1  88   1
M  ISO  4   1 100  68 101  85 101  86 100
M  END
> <chiral flag>
0

> <version>
0

> <s_m_source_file>
/data/baiqing/PycharmProjects/Reinvent-master-3.2/result/LINK_invent/BTK/process_docking_weight1_custom_sum_contain_oxygen_bond_distance_aromatic_linkinvent_7_9_3/rearranged_h_0027.sdf

> <i_m_source_file_index>
2

> <r_mmod_Potential_Energy-OPLS-2005>
-69.0848693847656

> <r_mmod_Stretch_Energy-OPLS-2005>
38.9098281860352

> <r_mmod_Bend_Energy-OPLS-2005>
120.710968017578

> <r_mmod_Torsional_Energy-OPLS-2005>
273.504302978516

> <r_mmod_Improper_Torsional_Energy-OPLS-2005>
8.57389736175537

> <r_mmod_Van_der_Waal_Energy-OPLS-2005>
141.946151733398

> <r_mmod_Electrostatic_Energy-OPLS-2005>
-243.327194213867

> <r_mmod_Solvation_Energy-OPLS-2005>
-444.507781982422

> <b_mmod_Minimization_Converged-OPLS-2005>
0

> <r_mmod_RMS_Derivative-OPLS-2005>
5.05733966827393

$$$$
2
                    3D
 Structure written by MMmdl.
162170  0  0  1  0            999 V2000
  -30.7511  -14.4623   20.3570 C   0  0  0  0  0  0
  -30.4357  -12.2734   19.4134 C   0  0  0  0  0  0
  -29.5092  -12.4768   18.1882 C   0  0  0  0  0  0
  -28.0231  -12.3738   18.5988 C   0  0  0  0  0  0
  -27.6702  -13.2294   19.8510 C   0  0  2  0  0  0
  -28.7361  -13.0985   20.9685 C   0  0  0  0  0  0
  -25.2659  -13.8209   20.5688 C   0  0  0  0  0  0
  -24.1897  -13.0397   20.9177 C   0  0  0  0  0  0
  -24.6523  -11.6914   20.8737 C   0  0  0  0  0  0
  -23.9159  -10.4284   21.0385 C   0  0  0  0  0  0
  -24.3680   -9.4213   21.9169 C   0  0  0  0  0  0
  -23.6328   -8.2264   22.0761 C   0  0  0  0  0  0
  -22.4289   -8.0319   21.3569 C   0  0  0  0  0  0
  -21.9949   -9.0297   20.4657 C   0  0  0  0  0  0
  -22.7317  -10.2159   20.3051 C   0  0  0  0  0  0
  -21.6861   -6.0756   22.5280 C   0  0  0  0  0  0
  -21.4021   -6.5660   23.8213 C   0  0  0  0  0  0
  -21.3657   -5.6805   24.9172 C   0  0  0  0  0  0
  -21.6041   -4.3070   24.7215 C   0  0  0  0  0  0
  -21.8822   -3.8168   23.4338 C   0  0  0  0  0  0
  -21.9199   -4.6988   22.3396 C   0  0  0  0  0  0
  -22.7929  -13.5259   21.1803 C   0  0  0  0  0  0
  -22.1668   -4.2181   21.0974 F   0  0  0  0  0  0
  -21.5621   -3.4543   25.7724 F   0  0  0  0  0  0
  -30.0722  -13.2978   20.3877 N   0  0  0  0  0  0
  -26.3143  -12.9407   20.3343 N   0  0  0  0  0  0
  -25.9480  -11.6526   20.5756 N   0  0  0  0  0  0
  -22.0564  -12.8221   22.0366 N   0  0  0  0  0  0
  -25.4288  -15.1892   20.4161 N   0  0  0  0  0  0
  -31.9696  -14.5610   20.2823 O   0  0  0  0  0  0
  -21.6650   -6.8902   21.4242 O   0  0  0  0  0  0
  -22.3585  -14.5522   20.6658 O   0  0  0  0  0  0
  -24.6192  -31.8662   23.2221 C   0  0  0  0  0  0
  -25.9084  -32.4768   23.8464 C   0  0  1  0  0  0
  -27.1343  -27.3400   20.0521 C   0  0  0  0  0  0
  -25.5962  -33.8667   24.2283 N   0  0  0  0  0  0
  -23.3959  -30.5105   21.5636 C   0  0  2  0  0  0
  -24.8107  -28.9940   20.0942 C   0  0  0  0  0  0
  -22.7412  -29.4659   22.4980 C   0  0  0  0  0  0
  -18.0285  -28.1368   22.8537 C   0  0  0  0  0  0
  -24.1496  -36.7316   23.2660 C   0  0  0  0  0  0
  -25.9506  -30.7859   21.3953 C   0  0  0  0  0  0
  -25.9949  -29.4416   20.7019 C   0  0  0  0  0  0
  -27.1574  -28.6161   20.6950 C   0  0  0  0  0  0
  -25.9434  -26.9963   19.3874 C   0  0  0  0  0  0
  -24.7875  -27.7640   19.4339 C   0  0  0  0  0  0
  -23.5985  -29.8870   20.1630 C   0  0  0  0  0  0
  -25.4120  -36.3130   24.0336 C   0  0  1  0  0  0
  -20.5873  -28.3685   23.1302 C   0  0  2  0  0  0
  -20.6786  -26.9420   22.5409 C   0  0  0  0  0  0
  -19.5789  -26.6393   21.5175 C   0  0  0  0  0  0
  -18.1954  -26.7929   22.1619 C   0  0  0  0  0  0
  -19.1538  -28.8833   23.2913 C   0  0  0  0  0  0
  -18.9470  -30.1421   23.8915 C   0  0  0  0  0  0
  -17.6484  -30.6593   24.0566 C   0  0  0  0  0  0
  -25.9097  -34.9489   23.5077 C   0  0  0  0  0  0
  -16.5367  -29.9065   23.6348 C   0  0  0  0  0  0
  -16.7264  -28.6479   23.0358 C   0  0  0  0  0  0
  -26.4502  -31.6625   25.0823 C   0  0  0  0  0  0
  -25.3733  -31.3744   26.1518 C   0  0  0  0  0  0
  -27.0305  -30.3027   24.6234 C   0  0  0  0  0  0
  -27.6081  -32.4351   25.7574 C   0  0  0  0  0  0
  -27.5547  -37.1808   24.8450 C   0  0  0  0  0  0
  -21.4151  -29.3027   22.3749 N   0  0  0  0  0  0
  -26.4273  -37.3768   23.9437 N   0  0  0  0  0  0
  -24.6732  -31.0621   22.1205 N   0  0  0  0  0  0
  -23.4109  -28.8222   23.3150 O   0  0  0  0  0  0
  -28.2256  -26.5019   19.9969 O   0  0  0  0  0  0
  -26.5603  -34.8861   22.4613 O   0  0  0  0  0  0
  -23.5399  -32.1631   23.7457 O   0  0  0  0  0  0
  -26.2888  -21.2024   18.6638 C   0  0  0  0  0  0
  -26.9287  -22.3596   18.1751 C   0  0  0  0  0  0
  -28.1854  -22.2527   17.5358 C   0  0  0  0  0  0
  -28.3723  -19.9718   18.4341 C   0  0  0  0  0  0
  -27.0082  -20.0009   18.7766 C   0  0  0  0  0  0
  -28.9031  -21.0316   17.6695 C   0  0  0  0  0  0
  -28.7893  -23.4397   16.7991 C   0  0  0  0  0  0
  -26.2936  -23.7022   18.4998 C   0  0  0  0  0  0
  -29.3107  -19.0120   19.1715 C   0  0  0  0  0  0
  -26.7634  -24.2049   19.8972 C   0  0  0  0  0  0
  -29.2721  -17.5201   18.8710 C   0  0  0  0  0  0
  -29.8661  -16.6980   20.0193 C   0  0  0  0  0  0
  -28.0962  -25.0356   20.0488 C   0  0  0  0  0  0
  -30.0975  -15.3460   19.6067 N   0  0  0  0  0  0
  -26.2156  -18.6627   19.5159 Cl  0  0  0  0  0  0
  -30.4751  -20.8444   16.9787 Cl  0  0  0  0  0  0
  -31.4839  -12.3502   19.1038 H   0  0  0  0  0  0
  -30.3001  -11.2890   19.8560 H   0  0  0  0  0  0
  -29.7418  -11.7493   17.4075 H   0  0  0  0  0  0
  -29.6801  -13.4530   17.7180 H   0  0  0  0  0  0
  -27.8090  -11.3264   18.7818 H   0  0  0  0  0  0
  -27.3822  -12.6746   17.7646 H   0  0  0  0  0  0
  -27.6674  -14.2715   19.5281 H   0  0  0  0  0  0
  -28.7035  -12.1117   21.4294 H   0  0  0  0  0  0
  -28.5483  -13.8418   21.7475 H   0  0  0  0  0  0
  -25.2827   -9.5655   22.4729 H   0  0  0  0  0  0
  -24.0034   -7.4642   22.7486 H   0  0  0  0  0  0
  -21.0871   -8.8838   19.8956 H   0  0  0  0  0  0
  -22.3802  -10.9697   19.6155 H   0  0  0  0  0  0
  -21.2019   -7.6168   23.9728 H   0  0  0  0  0  0
  -21.1464   -6.0530   25.9078 H   0  0  0  0  0  0
  -22.0602   -2.7629   23.2821 H   0  0  0  0  0  0
  -22.4222  -11.9933   22.4768 H   0  0  0  0  0  0
  -21.1181  -13.1230   22.2556 H   0  0  0  0  0  0
  -24.6551  -15.8366   20.5167 H   0  0  0  0  0  0
  -26.2854  -15.6409   20.1160 H   0  0  0  0  0  0
  -26.7038  -32.5339   23.1168 H   0  0  0  0  0  0
  -25.0168  -33.9903   25.0421 H   0  0  0  0  0  0
  -22.7136  -31.3501   21.4484 H   0  0  0  0  0  0
  -23.3684  -35.9689   23.3341 H   0  0  0  0  0  0
  -24.3622  -36.8906   22.2065 H   0  0  0  0  0  0
  -23.7229  -37.6548   23.6650 H   0  0  0  0  0  0
  -26.0876  -31.5701   20.6466 H   0  0  0  0  0  0
  -26.8369  -30.8216   22.0228 H   0  0  0  0  0  0
  -28.0565  -28.9419   21.2028 H   0  0  0  0  0  0
  -25.8365  -26.1264   18.7897 H   0  0  0  0  0  0
  -23.8984  -27.4047   18.9223 H   0  0  0  0  0  0
  -23.7584  -30.6871   19.4441 H   0  0  0  0  0  0
  -22.7058  -29.3562   19.8277 H   0  0  0  0  0  0
  -25.1248  -36.2086   25.0806 H   0  0  0  0  0  0
  -20.9877  -28.3214   24.1456 H   0  0  0  0  0  0
  -20.5665  -26.2272   23.3589 H   0  0  0  0  0  0
  -21.6679  -26.7535   22.1218 H   0  0  0  0  0  0
  -19.6946  -25.6268   21.1253 H   0  0  0  0  0  0
  -19.6681  -27.3198   20.6678 H   0  0  0  0  0  0
  -17.4210  -26.6654   21.4007 H   0  0  0  0  0  0
  -18.0395  -25.9988   22.8969 H   0  0  0  0  0  0
  -19.7920  -30.7232   24.2267 H   0  0  0  0  0  0
  -17.5024  -31.6300   24.5172 H   0  0  0  0  0  0
  -15.5354  -30.2980   23.7632 H   0  0  0  0  0  0
  -15.8660  -28.0781   22.7063 H   0  0  0  0  0  0
  -24.5939  -30.7069   25.7799 H   0  0  0  0  0  0
  -24.8929  -32.2938   26.4911 H   0  0  0  0  0  0
  -25.8097  -30.8949   27.0298 H   0  0  0  0  0  0
  -26.2875  -29.6780   24.1231 H   0  0  0  0  0  0
  -27.3975  -29.7283   25.4766 H   0  0  0  0  0  0
  -27.8769  -30.4262   23.9434 H   0  0  0  0  0  0
  -27.2686  -33.3613   26.2192 H   0  0  0  0  0  0
  -28.3872  -32.6947   25.0401 H   0  0  0  0  0  0
  -28.0748  -31.8455   26.5471 H   0  0  0  0  0  0
  -28.2543  -38.0111   24.7459 H   0  0  0  0  0  0
  -28.1062  -36.2648   24.6325 H   0  0  0  0  0  0
  -27.2308  -37.1485   25.8854 H   0  0  0  0  0  0
  -20.9367  -29.8845   21.7052 H   0  0  0  0  0  0
  -26.0165  -38.2849   24.1396 H   0  0  0  0  0  0
  -25.2859  -21.2503   19.0593 H   0  0  0  0  0  0
  -28.5708  -24.3683   17.3034 H   0  0  0  0  0  0
  -28.3939  -23.5437   15.7862 H   0  0  0  0  0  0
  -29.8744  -23.3876   16.7476 H   0  0  0  0  0  0
  -25.2107  -23.5431   18.5583 H   0  0  0  0  0  0
  -26.4173  -24.4003   17.6809 H   0  0  0  0  0  0
  -29.0952  -19.1822   20.2239 H   0  0  0  0  0  0
  -30.3346  -19.3385   19.0521 H   0  0  0  0  0  0
  -26.8612  -23.3073   20.5047 H   0  0  0  0  0  0
  -25.9350  -24.6986   20.4025 H   0  0  0  0  0  0
  -29.8041  -17.3424   17.9410 H   0  0  0  0  0  0
  -28.2665  -17.1650   18.7143 H   0  0  0  0  0  0
  -29.1274  -16.5629   20.7980 H   0  0  0  0  0  0
  -30.7555  -17.1767   20.4436 H   0  0  0  0  0  0
  -28.8554  -24.6621   19.3698 H   0  0  0  0  0  0
  -28.4972  -24.7997   21.0502 H   0  0  0  0  0  0
  -30.3748  -15.3035   18.6322 H   0  0  0  0  0  0
  1 25  1  0  0  0
  1 30  2  0  0  0
  1 84  1  0  0  0
  2  3  1  0  0  0
  2 25  1  0  0  0
  2 87  1  0  0  0
  2 88  1  0  0  0
  3  4  1  0  0  0
  3 89  1  0  0  0
  3 90  1  0  0  0
  4  5  1  0  0  0
  4 91  1  0  0  0
  4 92  1  0  0  0
  5  6  1  0  0  0
  5 26  1  0  0  0
  5 93  1  0  0  0
  6 25  1  0  0  0
  6 94  1  0  0  0
  6 95  1  0  0  0
  7  8  2  0  0  0
  7 26  1  0  0  0
  7 29  1  0  0  0
  8  9  1  0  0  0
  8 22  1  0  0  0
  9 10  1  0  0  0
  9 27  2  0  0  0
 10 11  2  0  0  0
 10 15  1  0  0  0
 11 12  1  0  0  0
 11 96  1  0  0  0
 12 13  2  0  0  0
 12 97  1  0  0  0
 13 14  1  0  0  0
 13 31  1  0  0  0
 14 15  2  0  0  0
 14 98  1  0  0  0
 15 99  1  0  0  0
 16 17  2  0  0  0
 16 21  1  0  0  0
 16 31  1  0  0  0
 17 18  1  0  0  0
 17100  1  0  0  0
 18 19  2  0  0  0
 18101  1  0  0  0
 19 20  1  0  0  0
 19 24  1  0  0  0
 20 21  2  0  0  0
 20102  1  0  0  0
 21 23  1  0  0  0
 22 28  1  0  0  0
 22 32  2  0  0  0
 26 27  1  0  0  0
 28103  1  0  0  0
 28104  1  0  0  0
 29105  1  0  0  0
 29106  1  0  0  0
 33 34  1  0  0  0
 33 66  1  0  0  0
 33 70  2  0  0  0
 34 36  1  0  0  0
 34 59  1  0  0  0
 34107  1  0  0  0
 35 44  2  0  0  0
 35 45  1  0  0  0
 35 68  1  0  0  0
 36 56  1  0  0  0
 36108  1  0  0  0
 37 39  1  0  0  0
 37 47  1  0  0  0
 37 66  1  0  0  0
 37109  1  0  0  0
 38 43  2  0  0  0
 38 46  1  0  0  0
 38 47  1  0  0  0
 39 64  1  0  0  0
 39 67  2  0  0  0
 40 52  1  0  0  0
 40 53  2  0  0  0
 40 58  1  0  0  0
 41110  1  0  0  0
 41111  1  0  0  0
 41112  1  0  0  0
 41 48  1  0  0  0
 42 43  1  0  0  0
 42 66  1  0  0  0
 42113  1  0  0  0
 42114  1  0  0  0
 43 44  1  0  0  0
 44115  1  0  0  0
 45 46  2  0  0  0
 45116  1  0  0  0
 46117  1  0  0  0
 47118  1  0  0  0
 47119  1  0  0  0
 48 56  1  0  0  0
 48 65  1  0  0  0
 48120  1  0  0  0
 49 50  1  0  0  0
 49 53  1  0  0  0
 49 64  1  0  0  0
 49121  1  0  0  0
 50 51  1  0  0  0
 50122  1  0  0  0
 50123  1  0  0  0
 51 52  1  0  0  0
 51124  1  0  0  0
 51125  1  0  0  0
 52126  1  0  0  0
 52127  1  0  0  0
 53 54  1  0  0  0
 54 55  2  0  0  0
 54128  1  0  0  0
 55 57  1  0  0  0
 55129  1  0  0  0
 56 69  2  0  0  0
 57 58  2  0  0  0
 57130  1  0  0  0
 58131  1  0  0  0
 59 60  1  0  0  0
 59 61  1  0  0  0
 59 62  1  0  0  0
 60132  1  0  0  0
 60133  1  0  0  0
 60134  1  0  0  0
 61135  1  0  0  0
 61136  1  0  0  0
 61137  1  0  0  0
 62138  1  0  0  0
 62139  1  0  0  0
 62140  1  0  0  0
 63 65  1  0  0  0
 63141  1  0  0  0
 63142  1  0  0  0
 63143  1  0  0  0
 64144  1  0  0  0
 65145  1  0  0  0
 68 83  1  0  0  0
 71 72  2  0  0  0
 71 75  1  0  0  0
 71146  1  0  0  0
 72 73  1  0  0  0
 72 78  1  0  0  0
 73 76  2  0  0  0
 73 77  1  0  0  0
 74 75  2  0  0  0
 74 76  1  0  0  0
 74 79  1  0  0  0
 75 85  1  0  0  0
 76 86  1  0  0  0
 77147  1  0  0  0
 77148  1  0  0  0
 77149  1  0  0  0
 78 80  1  0  0  0
 78150  1  0  0  0
 78151  1  0  0  0
 79 81  1  0  0  0
 79152  1  0  0  0
 79153  1  0  0  0
 80 83  1  0  0  0
 80154  1  0  0  0
 80155  1  0  0  0
 81 82  1  0  0  0
 81156  1  0  0  0
 81157  1  0  0  0
 82 84  1  0  0  0
 82158  1  0  0  0
 82159  1  0  0  0
 83160  1  0  0  0
 83161  1  0  0  0
 84162  1  0  0  0
M  ISO  4   1 100  68 101  83 101  84 100
M  END
> <chiral flag>
0

> <version>
0

> <s_m_source_file>
/data/baiqing/PycharmProjects/Reinvent-master-3.2/result/LINK_invent/BTK/process_docking_weight1_custom_sum_contain_oxygen_bond_distance_aromatic_linkinvent_7_9_3/rearranged_h_0027.sdf

> <i_m_source_file_index>
3

> <r_mmod_Potential_Energy-OPLS-2005>
255.75325012207

> <r_mmod_Stretch_Energy-OPLS-2005>
46.5355987548828

> <r_mmod_Bend_Energy-OPLS-2005>
158.879592895508

> <r_mmod_Torsional_Energy-OPLS-2005>
365.51513671875

> <r_mmod_Improper_Torsional_Energy-OPLS-2005>
38.9368209838867

> <r_mmod_Van_der_Waal_Energy-OPLS-2005>
171.733184814453

> <r_mmod_Electrostatic_Energy-OPLS-2005>
-386.876373291016

> <r_mmod_Solvation_Energy-OPLS-2005>
-194.226959228516

> <b_mmod_Minimization_Converged-OPLS-2005>
0

> <r_mmod_RMS_Derivative-OPLS-2005>
19.4066619873047

$$$$
3
                    3D
 Structure written by MMmdl.
150158  0  0  1  0            999 V2000
  -30.5777  -14.8584   20.3858 C   0  0  0  0  0  0
  -30.4399  -12.5235   19.4788 C   0  0  0  0  0  0
  -29.5240  -12.4971   18.2362 C   0  0  0  0  0  0
  -28.0612  -12.2658   18.6608 C   0  0  0  0  0  0
  -27.6285  -13.2248   19.8022 C   0  0  2  0  0  0
  -28.6633  -13.2462   20.9464 C   0  0  0  0  0  0
  -25.2509  -13.8115   20.5577 C   0  0  0  0  0  0
  -24.1817  -13.0384   20.9197 C   0  0  0  0  0  0
  -24.6381  -11.6854   20.8700 C   0  0  0  0  0  0
  -23.9068  -10.4223   21.0358 C   0  0  0  0  0  0
  -24.3628   -9.4159   21.9151 C   0  0  0  0  0  0
  -23.6296   -8.2209   22.0733 C   0  0  0  0  0  0
  -22.4282   -8.0239   21.3531 C   0  0  0  0  0  0
  -21.9896   -9.0204   20.4649 C   0  0  0  0  0  0
  -22.7224  -10.2076   20.3028 C   0  0  0  0  0  0
  -21.6839   -6.0726   22.5287 C   0  0  0  0  0  0
  -21.3983   -6.5628   23.8225 C   0  0  0  0  0  0
  -21.3651   -5.6787   24.9188 C   0  0  0  0  0  0
  -21.6052   -4.3062   24.7234 C   0  0  0  0  0  0
  -21.8831   -3.8148   23.4357 C   0  0  0  0  0  0
  -21.9184   -4.6953   22.3407 C   0  0  0  0  0  0
  -22.7861  -13.5187   21.1945 C   0  0  0  0  0  0
  -22.1672   -4.2145   21.0996 F   0  0  0  0  0  0
  -21.5632   -3.4534   25.7752 F   0  0  0  0  0  0
  -29.9539  -13.6211   20.3539 N   0  0  0  0  0  0
  -26.2877  -12.9321   20.2962 N   0  0  0  0  0  0
  -25.9307  -11.6480   20.5592 N   0  0  0  0  0  0
  -22.0537  -12.8098   22.0456 N   0  0  0  0  0  0
  -25.4197  -15.1849   20.4007 N   0  0  0  0  0  0
  -31.7880  -14.9022   20.1563 O   0  0  0  0  0  0
  -21.6628   -6.8863   21.4244 O   0  0  0  0  0  0
  -22.3521  -14.5478   20.6799 O   0  0  0  0  0  0
  -24.6388  -31.8471   23.1944 C   0  0  0  0  0  0
  -25.9176  -32.4713   23.8319 C   0  0  1  0  0  0
  -27.2172  -27.1866   20.1224 C   0  0  0  0  0  0
  -25.5938  -33.8513   24.2246 N   0  0  0  0  0  0
  -23.4409  -30.4751   21.5337 C   0  0  2  0  0  0
  -24.8885  -28.9078   20.1108 C   0  0  0  0  0  0
  -22.7528  -29.4611   22.4839 C   0  0  0  0  0  0
  -18.0280  -28.1333   22.8570 C   0  0  0  0  0  0
  -24.1501  -36.7275   23.2636 C   0  0  0  0  0  0
  -25.9965  -30.7332   21.3888 C   0  0  0  0  0  0
  -26.0670  -29.3508   20.7268 C   0  0  0  0  0  0
  -27.2318  -28.5044   20.7179 C   0  0  0  0  0  0
  -26.0121  -26.8282   19.4813 C   0  0  0  0  0  0
  -24.8708  -27.6560   19.4765 C   0  0  0  0  0  0
  -23.6720  -29.8146   20.1503 C   0  0  0  0  0  0
  -25.4127  -36.3053   24.0328 C   0  0  1  0  0  0
  -20.5874  -28.3772   23.1257 C   0  0  2  0  0  0
  -20.6818  -26.9524   22.5314 C   0  0  0  0  0  0
  -19.5689  -26.6497   21.5205 C   0  0  0  0  0  0
  -18.1992  -26.7781   22.1944 C   0  0  0  0  0  0
  -19.1509  -28.8898   23.2863 C   0  0  0  0  0  0
  -18.9368  -30.1507   23.8819 C   0  0  0  0  0  0
  -17.6352  -30.6604   24.0437 C   0  0  0  0  0  0
  -25.9071  -34.9423   23.5107 C   0  0  0  0  0  0
  -16.5271  -29.9028   23.6242 C   0  0  0  0  0  0
  -16.7249  -28.6384   23.0411 C   0  0  0  0  0  0
  -26.4517  -31.6546   25.0722 C   0  0  0  0  0  0
  -25.3729  -31.3691   26.1428 C   0  0  0  0  0  0
  -27.0365  -30.2951   24.6268 C   0  0  0  0  0  0
  -27.6079  -32.4284   25.7470 C   0  0  0  0  0  0
  -27.5598  -37.1803   24.8466 C   0  0  0  0  0  0
  -21.4213  -29.3181   22.3717 N   0  0  0  0  0  0
  -26.4314  -37.3756   23.9400 N   0  0  0  0  0  0
  -24.7111  -31.0393   22.0933 N   0  0  0  0  0  0
  -23.4213  -28.8048   23.2862 O   0  0  0  0  0  0
  -28.2908  -26.2410   20.1705 O   0  0  0  0  0  0
  -26.5657  -34.8896   22.4689 O   0  0  0  0  0  0
  -23.5523  -32.1344   23.7214 O   0  0  0  0  0  0
  -29.3348  -21.1122   21.3869 C   0  0  0  0  0  0
  -29.5914  -19.6851   21.3267 C   0  0  0  0  0  0
  -29.1260  -21.9583   20.2419 C   0  0  0  0  0  0
  -29.6534  -18.9438   20.1104 C   0  0  0  0  0  0
  -29.0974  -21.1975   19.0283 C   0  0  0  0  0  0
  -29.3435  -19.7644   18.9644 C   0  0  0  0  0  0
  -29.2078  -23.5987   20.3184 C   0  0  0  0  0  0
  -30.3404  -17.4636   20.0009 C   0  0  0  0  0  0
  -28.0489  -24.7336   19.9922 C   0  0  0  0  0  0
  -29.8264  -16.0539   20.4167 N   0  0  0  0  0  0
  -28.8462  -22.0669   17.5544 Cl  0  0  0  0  0  0
  -29.3435  -19.0186   17.4019 Cl  0  0  0  0  0  0
  -31.4765  -12.6597   19.1681 H   0  0  0  0  0  0
  -30.4132  -11.5726   20.0115 H   0  0  0  0  0  0
  -29.8524  -11.7284   17.5384 H   0  0  0  0  0  0
  -29.6036  -13.4448   17.7051 H   0  0  0  0  0  0
  -27.9887  -11.2338   19.0014 H   0  0  0  0  0  0
  -27.3993  -12.3480   17.7970 H   0  0  0  0  0  0
  -27.5890  -14.2160   19.3479 H   0  0  0  0  0  0
  -28.7272  -12.2644   21.4268 H   0  0  0  0  0  0
  -28.3700  -13.9728   21.7066 H   0  0  0  0  0  0
  -25.2780   -9.5609   22.4725 H   0  0  0  0  0  0
  -24.0003   -7.4572   22.7422 H   0  0  0  0  0  0
  -21.0842   -8.8705   19.8956 H   0  0  0  0  0  0
  -22.3686  -10.9603   19.6131 H   0  0  0  0  0  0
  -21.1966   -7.6138   23.9718 H   0  0  0  0  0  0
  -21.1476   -6.0524   25.9093 H   0  0  0  0  0  0
  -22.0630   -2.7600   23.2863 H   0  0  0  0  0  0
  -22.4178  -11.9700   22.4691 H   0  0  0  0  0  0
  -21.1172  -13.1096   22.2812 H   0  0  0  0  0  0
  -24.6413  -15.8287   20.5084 H   0  0  0  0  0  0
  -26.2413  -15.6243   20.0040 H   0  0  0  0  0  0
  -26.7234  -32.5325   23.1034 H   0  0  0  0  0  0
  -25.0030  -33.9633   25.0356 H   0  0  0  0  0  0
  -22.7425  -31.2990   21.3861 H   0  0  0  0  0  0
  -23.3772  -35.9603   23.3283 H   0  0  0  0  0  0
  -24.3601  -36.8909   22.2058 H   0  0  0  0  0  0
  -23.7258  -37.6466   23.6678 H   0  0  0  0  0  0
  -26.1573  -31.4928   20.6218 H   0  0  0  0  0  0
  -26.8603  -30.7721   22.0389 H   0  0  0  0  0  0
  -28.1285  -28.8418   21.2192 H   0  0  0  0  0  0
  -25.9208  -25.8736   18.9834 H   0  0  0  0  0  0
  -23.9715  -27.3106   18.9855 H   0  0  0  0  0  0
  -23.8328  -30.5948   19.4067 H   0  0  0  0  0  0
  -22.7804  -29.2764   19.8228 H   0  0  0  0  0  0
  -25.1317  -36.1898   25.0829 H   0  0  0  0  0  0
  -20.9975  -28.3279   24.1348 H   0  0  0  0  0  0
  -20.5885  -26.2397   23.3539 H   0  0  0  0  0  0
  -21.6635  -26.7651   22.0959 H   0  0  0  0  0  0
  -19.6917  -25.6502   21.1079 H   0  0  0  0  0  0
  -19.6354  -27.3436   20.6819 H   0  0  0  0  0  0
  -17.4049  -26.6064   21.4669 H   0  0  0  0  0  0
  -18.0890  -26.0089   22.9587 H   0  0  0  0  0  0
  -19.7791  -30.7427   24.2168 H   0  0  0  0  0  0
  -17.4858  -31.6326   24.4927 H   0  0  0  0  0  0
  -15.5264  -30.2941   23.7455 H   0  0  0  0  0  0
  -15.8690  -28.0593   22.7209 H   0  0  0  0  0  0
  -24.5951  -30.6986   25.7750 H   0  0  0  0  0  0
  -24.8854  -32.2836   26.4818 H   0  0  0  0  0  0
  -25.8029  -30.8896   27.0234 H   0  0  0  0  0  0
  -26.2965  -29.6679   24.1287 H   0  0  0  0  0  0
  -27.4000  -29.7236   25.4818 H   0  0  0  0  0  0
  -27.8866  -30.4185   23.9559 H   0  0  0  0  0  0
  -27.2720  -33.3618   26.2006 H   0  0  0  0  0  0
  -28.3883  -32.6785   25.0270 H   0  0  0  0  0  0
  -28.0751  -31.8422   26.5400 H   0  0  0  0  0  0
  -28.2604  -38.0107   24.7510 H   0  0  0  0  0  0
  -28.1099  -36.2640   24.6291 H   0  0  0  0  0  0
  -27.2310  -37.1443   25.8864 H   0  0  0  0  0  0
  -20.9369  -29.9154   21.7154 H   0  0  0  0  0  0
  -26.0185  -38.2835   24.1362 H   0  0  0  0  0  0
  -29.4009  -21.5796   22.3609 H   0  0  0  0  0  0
  -29.8422  -19.1667   22.2464 H   0  0  0  0  0  0
  -30.0335  -23.8448   19.6437 H   0  0  0  0  0  0
  -29.6035  -23.8350   21.3116 H   0  0  0  0  0  0
  -31.2905  -17.5764   20.5289 H   0  0  0  0  0  0
  -30.6604  -17.3448   18.9623 H   0  0  0  0  0  0
  -27.1545  -24.4788   20.5664 H   0  0  0  0  0  0
  -27.7728  -24.6023   18.9448 H   0  0  0  0  0  0
  -28.8336  -15.9498   20.5425 H   0  0  0  0  0  0
  1 25  1  0  0  0
  1 30  2  0  0  0
  1 80  1  0  0  0
  2  3  1  0  0  0
  2 25  1  0  0  0
  2 83  1  0  0  0
  2 84  1  0  0  0
  3  4  1  0  0  0
  3 85  1  0  0  0
  3 86  1  0  0  0
  4  5  1  0  0  0
  4 87  1  0  0  0
  4 88  1  0  0  0
  5  6  1  0  0  0
  5 26  1  0  0  0
  5 89  1  0  0  0
  6 25  1  0  0  0
  6 90  1  0  0  0
  6 91  1  0  0  0
  7  8  2  0  0  0
  7 26  1  0  0  0
  7 29  1  0  0  0
  8  9  1  0  0  0
  8 22  1  0  0  0
  9 10  1  0  0  0
  9 27  2  0  0  0
 10 11  2  0  0  0
 10 15  1  0  0  0
 11 12  1  0  0  0
 11 92  1  0  0  0
 12 13  2  0  0  0
 12 93  1  0  0  0
 13 14  1  0  0  0
 13 31  1  0  0  0
 14 15  2  0  0  0
 14 94  1  0  0  0
 15 95  1  0  0  0
 16 17  2  0  0  0
 16 21  1  0  0  0
 16 31  1  0  0  0
 17 18  1  0  0  0
 17 96  1  0  0  0
 18 19  2  0  0  0
 18 97  1  0  0  0
 19 20  1  0  0  0
 19 24  1  0  0  0
 20 21  2  0  0  0
 20 98  1  0  0  0
 21 23  1  0  0  0
 22 28  1  0  0  0
 22 32  2  0  0  0
 26 27  1  0  0  0
 28 99  1  0  0  0
 28100  1  0  0  0
 29101  1  0  0  0
 29102  1  0  0  0
 33 34  1  0  0  0
 33 66  1  0  0  0
 33 70  2  0  0  0
 34 36  1  0  0  0
 34 59  1  0  0  0
 34103  1  0  0  0
 35 44  2  0  0  0
 35 45  1  0  0  0
 35 68  1  0  0  0
 36 56  1  0  0  0
 36104  1  0  0  0
 37 39  1  0  0  0
 37 47  1  0  0  0
 37 66  1  0  0  0
 37105  1  0  0  0
 38 43  2  0  0  0
 38 46  1  0  0  0
 38 47  1  0  0  0
 39 64  1  0  0  0
 39 67  2  0  0  0
 40 52  1  0  0  0
 40 53  2  0  0  0
 40 58  1  0  0  0
 41106  1  0  0  0
 41107  1  0  0  0
 41108  1  0  0  0
 41 48  1  0  0  0
 42 43  1  0  0  0
 42 66  1  0  0  0
 42109  1  0  0  0
 42110  1  0  0  0
 43 44  1  0  0  0
 44111  1  0  0  0
 45 46  2  0  0  0
 45112  1  0  0  0
 46113  1  0  0  0
 47114  1  0  0  0
 47115  1  0  0  0
 48 56  1  0  0  0
 48 65  1  0  0  0
 48116  1  0  0  0
 49 50  1  0  0  0
 49 53  1  0  0  0
 49 64  1  0  0  0
 49117  1  0  0  0
 50 51  1  0  0  0
 50118  1  0  0  0
 50119  1  0  0  0
 51 52  1  0  0  0
 51120  1  0  0  0
 51121  1  0  0  0
 52122  1  0  0  0
 52123  1  0  0  0
 53 54  1  0  0  0
 54 55  2  0  0  0
 54124  1  0  0  0
 55 57  1  0  0  0
 55125  1  0  0  0
 56 69  2  0  0  0
 57 58  2  0  0  0
 57126  1  0  0  0
 58127  1  0  0  0
 59 60  1  0  0  0
 59 61  1  0  0  0
 59 62  1  0  0  0
 60128  1  0  0  0
 60129  1  0  0  0
 60130  1  0  0  0
 61131  1  0  0  0
 61132  1  0  0  0
 61133  1  0  0  0
 62134  1  0  0  0
 62135  1  0  0  0
 62136  1  0  0  0
 63 65  1  0  0  0
 63137  1  0  0  0
 63138  1  0  0  0
 63139  1  0  0  0
 64140  1  0  0  0
 65141  1  0  0  0
 68 79  1  0  0  0
 71 72  2  0  0  0
 71 73  1  0  0  0
 71142  1  0  0  0
 72 74  1  0  0  0
 72143  1  0  0  0
 73 75  2  0  0  0
 73 77  1  0  0  0
 74 76  2  0  0  0
 74 78  1  0  0  0
 75 76  1  0  0  0
 75 81  1  0  0  0
 76 82  1  0  0  0
 77 79  1  0  0  0
 77144  1  0  0  0
 77145  1  0  0  0
 78 80  1  0  0  0
 78146  1  0  0  0
 78147  1  0  0  0
 79148  1  0  0  0
 79149  1  0  0  0
 80150  1  0  0  0
M  ISO  4   1 100  68 101  79 101  80 100
M  END
> <chiral flag>
0

> <version>
0

> <s_m_source_file>
/data/baiqing/PycharmProjects/Reinvent-master-3.2/result/LINK_invent/BTK/process_docking_weight1_custom_sum_contain_oxygen_bond_distance_aromatic_linkinvent_7_9_3/rearranged_h_0027.sdf

> <i_m_source_file_index>
4

> <r_mmod_Potential_Energy-OPLS-2005>
357.077880859375

> <r_mmod_Stretch_Energy-OPLS-2005>
186.719284057617

> <r_mmod_Bend_Energy-OPLS-2005>
224.139465332031

> <r_mmod_Torsional_Energy-OPLS-2005>
225.382537841797

> <r_mmod_Improper_Torsional_Energy-OPLS-2005>
10.5910530090332

> <r_mmod_Van_der_Waal_Energy-OPLS-2005>
137.541213989258

> <r_mmod_Electrostatic_Energy-OPLS-2005>
-365.156921386719

> <r_mmod_Solvation_Energy-OPLS-2005>
-207.834243774414

> <b_mmod_Minimization_Converged-OPLS-2005>
0

> <r_mmod_RMS_Derivative-OPLS-2005>
7.84385967254639

$$$$
4
                    3D
 Structure written by MMmdl.
159167  0  0  1  0            999 V2000
  -30.6228  -14.7027   20.4131 C   0  0  0  0  0  0
  -30.4289  -12.4084   19.4829 C   0  0  0  0  0  0
  -29.5220  -12.4837   18.2350 C   0  0  0  0  0  0
  -28.0375  -12.3471   18.6332 C   0  0  0  0  0  0
  -27.6416  -13.2370   19.8441 C   0  0  2  0  0  0
  -28.6840  -13.1621   20.9818 C   0  0  0  0  0  0
  -25.2481  -13.8194   20.5715 C   0  0  0  0  0  0
  -24.1800  -13.0411   20.9241 C   0  0  0  0  0  0
  -24.6414  -11.6911   20.8783 C   0  0  0  0  0  0
  -23.9091  -10.4275   21.0448 C   0  0  0  0  0  0
  -24.3641   -9.4180   21.9234 C   0  0  0  0  0  0
  -23.6280   -8.2216   22.0800 C   0  0  0  0  0  0
  -22.4243   -8.0307   21.3606 C   0  0  0  0  0  0
  -21.9885   -9.0280   20.4687 C   0  0  0  0  0  0
  -22.7259  -10.2143   20.3093 C   0  0  0  0  0  0
  -21.6812   -6.0773   22.5334 C   0  0  0  0  0  0
  -21.4009   -6.5673   23.8286 C   0  0  0  0  0  0
  -21.3668   -5.6802   24.9231 C   0  0  0  0  0  0
  -21.6020   -4.3073   24.7252 C   0  0  0  0  0  0
  -21.8789   -3.8177   23.4365 C   0  0  0  0  0  0
  -21.9162   -4.7012   22.3437 C   0  0  0  0  0  0
  -22.7818  -13.5213   21.1881 C   0  0  0  0  0  0
  -22.1630   -4.2214   21.1004 F   0  0  0  0  0  0
  -21.5601   -3.4539   25.7756 F   0  0  0  0  0  0
  -29.9925  -13.4809   20.4018 N   0  0  0  0  0  0
  -26.2919  -12.9435   20.3199 N   0  0  0  0  0  0
  -25.9322  -11.6572   20.5716 N   0  0  0  0  0  0
  -22.0354  -12.8311   22.0430 N   0  0  0  0  0  0
  -25.4053  -15.1932   20.4216 N   0  0  0  0  0  0
  -31.8316  -14.7709   20.1882 O   0  0  0  0  0  0
  -21.6585   -6.8916   21.4294 O   0  0  0  0  0  0
  -22.3563  -14.5518   20.6677 O   0  0  0  0  0  0
  -24.6279  -31.8611   23.2004 C   0  0  0  0  0  0
  -25.9103  -32.4797   23.8350 C   0  0  1  0  0  0
  -27.2304  -27.2901   20.1236 C   0  0  0  0  0  0
  -25.5916  -33.8589   24.2322 N   0  0  0  0  0  0
  -23.4246  -30.4808   21.5434 C   0  0  2  0  0  0
  -24.8749  -28.9360   20.1045 C   0  0  0  0  0  0
  -22.7513  -29.4604   22.4912 C   0  0  0  0  0  0
  -18.0305  -28.1404   22.8481 C   0  0  0  0  0  0
  -24.1476  -36.7284   23.2636 C   0  0  0  0  0  0
  -25.9655  -30.7800   21.3741 C   0  0  0  0  0  0
  -26.0394  -29.4008   20.7258 C   0  0  0  0  0  0
  -27.2125  -28.5857   20.7361 C   0  0  0  0  0  0
  -26.0551  -26.9095   19.4314 C   0  0  0  0  0  0
  -24.8875  -27.6994   19.4439 C   0  0  0  0  0  0
  -23.6407  -29.8152   20.1584 C   0  0  0  0  0  0
  -25.4093  -36.3103   24.0353 C   0  0  1  0  0  0
  -20.5906  -28.3715   23.1258 C   0  0  2  0  0  0
  -20.6784  -26.9429   22.5410 C   0  0  0  0  0  0
  -19.5760  -26.6383   21.5215 C   0  0  0  0  0  0
  -18.1936  -26.7938   22.1627 C   0  0  0  0  0  0
  -19.1552  -28.8872   23.2864 C   0  0  0  0  0  0
  -18.9481  -30.1456   23.8912 C   0  0  0  0  0  0
  -17.6481  -30.6599   24.0558 C   0  0  0  0  0  0
  -25.9038  -34.9466   23.5137 C   0  0  0  0  0  0
  -16.5375  -29.9110   23.6301 C   0  0  0  0  0  0
  -16.7285  -28.6517   23.0339 C   0  0  0  0  0  0
  -26.4493  -31.6581   25.0697 C   0  0  0  0  0  0
  -25.3722  -31.3670   26.1417 C   0  0  0  0  0  0
  -27.0333  -30.3039   24.6057 C   0  0  0  0  0  0
  -27.6094  -32.4272   25.7449 C   0  0  0  0  0  0
  -27.5574  -37.1792   24.8470 C   0  0  0  0  0  0
  -21.4221  -29.3055   22.3645 N   0  0  0  0  0  0
  -26.4281  -37.3795   23.9422 N   0  0  0  0  0  0
  -24.6918  -31.0576   22.0975 N   0  0  0  0  0  0
  -23.4210  -28.8150   23.2996 O   0  0  0  0  0  0
  -28.3443  -26.4275   20.2260 O   0  0  0  0  0  0
  -26.5615  -34.8942   22.4714 O   0  0  0  0  0  0
  -23.5434  -32.1423   23.7301 O   0  0  0  0  0  0
  -31.0226  -18.7051   18.2363 C   0  0  0  0  0  0
  -29.6426  -18.4144   20.6241 C   0  0  0  0  0  0
  -30.6985  -19.8609   18.9731 C   0  0  0  0  0  0
  -30.6914  -17.4061   18.6702 C   0  0  0  0  0  0
  -29.9159  -19.7654   20.1534 C   0  0  0  0  0  0
  -30.0801  -17.2073   19.9425 C   0  0  0  0  0  0
  -31.2570  -21.1825   18.4618 C   0  0  0  0  0  0
  -30.9864  -16.2767   17.6885 C   0  0  0  0  0  0
  -29.5288  -21.0893   20.9474 C   0  0  0  0  0  0
  -28.8164  -22.3397   20.2169 C   0  0  0  0  0  0
  -29.0674  -23.8567   20.6888 C   0  0  0  0  0  0
  -28.2447  -24.9795   19.8768 C   0  0  0  0  0  0
  -29.8328  -15.8396   20.4711 N   0  0  0  0  0  0
  -31.4811  -12.5063   19.2044 H   0  0  0  0  0  0
  -30.3323  -11.4359   19.9669 H   0  0  0  0  0  0
  -29.7945  -11.7018   17.5234 H   0  0  0  0  0  0
  -29.6835  -13.4225   17.7078 H   0  0  0  0  0  0
  -27.8640  -11.2991   18.8781 H   0  0  0  0  0  0
  -27.3973  -12.5717   17.7799 H   0  0  0  0  0  0
  -27.6337  -14.2612   19.4733 H   0  0  0  0  0  0
  -28.6885  -12.1707   21.4372 H   0  0  0  0  0  0
  -28.4354  -13.8642   21.7808 H   0  0  0  0  0  0
  -25.2776   -9.5612   22.4832 H   0  0  0  0  0  0
  -23.9991   -7.4567   22.7484 H   0  0  0  0  0  0
  -21.0836   -8.8832   19.8969 H   0  0  0  0  0  0
  -22.3775  -10.9709   19.6216 H   0  0  0  0  0  0
  -21.2041   -7.6189   23.9822 H   0  0  0  0  0  0
  -21.1507   -6.0538   25.9151 H   0  0  0  0  0  0
  -22.0551   -2.7639   23.2839 H   0  0  0  0  0  0
  -22.3847  -12.0030   22.5022 H   0  0  0  0  0  0
  -21.0993  -13.1517   22.2485 H   0  0  0  0  0  0
  -24.6158  -15.8199   20.5213 H   0  0  0  0  0  0
  -26.2431  -15.6612   20.0938 H   0  0  0  0  0  0
  -26.7154  -32.5495   23.1084 H   0  0  0  0  0  0
  -25.0033  -33.9731   25.0445 H   0  0  0  0  0  0
  -22.7190  -31.3011   21.3983 H   0  0  0  0  0  0
  -23.3774  -35.9578   23.3284 H   0  0  0  0  0  0
  -24.3571  -36.8911   22.2055 H   0  0  0  0  0  0
  -23.7194  -37.6469   23.6653 H   0  0  0  0  0  0
  -26.0798  -31.5280   20.5879 H   0  0  0  0  0  0
  -26.8542  -30.8533   21.9877 H   0  0  0  0  0  0
  -28.0969  -28.9327   21.2498 H   0  0  0  0  0  0
  -26.0067  -25.9922   18.8653 H   0  0  0  0  0  0
  -24.0013  -27.3552   18.9275 H   0  0  0  0  0  0
  -23.7622  -30.5921   19.4027 H   0  0  0  0  0  0
  -22.7622  -29.2413   19.8549 H   0  0  0  0  0  0
  -25.1251  -36.1969   25.0846 H   0  0  0  0  0  0
  -20.9990  -28.3324   24.1380 H   0  0  0  0  0  0
  -20.5685  -26.2342   23.3635 H   0  0  0  0  0  0
  -21.6655  -26.7442   22.1215 H   0  0  0  0  0  0
  -19.6918  -25.6285   21.1265 H   0  0  0  0  0  0
  -19.6684  -27.3173   20.6731 H   0  0  0  0  0  0
  -17.4201  -26.6681   21.4037 H   0  0  0  0  0  0
  -18.0332  -26.0093   22.9042 H   0  0  0  0  0  0
  -19.7944  -30.7251   24.2326 H   0  0  0  0  0  0
  -17.5033  -31.6269   24.5167 H   0  0  0  0  0  0
  -15.5380  -30.3023   23.7587 H   0  0  0  0  0  0
  -15.8687  -28.0822   22.7070 H   0  0  0  0  0  0
  -24.5934  -30.6988   25.7713 H   0  0  0  0  0  0
  -24.8853  -32.2812   26.4828 H   0  0  0  0  0  0
  -25.8039  -30.8854   27.0199 H   0  0  0  0  0  0
  -26.2874  -29.6786   24.1141 H   0  0  0  0  0  0
  -27.4188  -29.7264   25.4461 H   0  0  0  0  0  0
  -27.8658  -30.4393   23.9153 H   0  0  0  0  0  0
  -27.2784  -33.3611   26.1990 H   0  0  0  0  0  0
  -28.3911  -32.6755   25.0256 H   0  0  0  0  0  0
  -28.0743  -31.8401   26.5378 H   0  0  0  0  0  0
  -28.2598  -38.0089   24.7540 H   0  0  0  0  0  0
  -28.1078  -36.2633   24.6259 H   0  0  0  0  0  0
  -27.2301  -37.1383   25.8878 H   0  0  0  0  0  0
  -20.9446  -29.8770   21.6821 H   0  0  0  0  0  0
  -26.0180  -38.2868   24.1464 H   0  0  0  0  0  0
  -31.5595  -18.8158   17.3026 H   0  0  0  0  0  0
  -29.1073  -18.3059   21.5564 H   0  0  0  0  0  0
  -32.2181  -21.0320   17.9649 H   0  0  0  0  0  0
  -31.4376  -21.8910   19.2691 H   0  0  0  0  0  0
  -30.5755  -21.6355   17.7408 H   0  0  0  0  0  0
  -31.0524  -16.6510   16.6662 H   0  0  0  0  0  0
  -30.1828  -15.5437   17.6902 H   0  0  0  0  0  0
  -31.9333  -15.7837   17.9089 H   0  0  0  0  0  0
  -30.4575  -21.4491   21.3910 H   0  0  0  0  0  0
  -28.9158  -20.8056   21.8063 H   0  0  0  0  0  0
  -27.7403  -22.1622   20.2388 H   0  0  0  0  0  0
  -29.0529  -22.3196   19.1573 H   0  0  0  0  0  0
  -30.1411  -24.0748   20.6474 H   0  0  0  0  0  0
  -28.8279  -23.9343   21.7539 H   0  0  0  0  0  0
  -27.2077  -24.6343   19.9230 H   0  0  0  0  0  0
  -28.5370  -24.9165   18.8214 H   0  0  0  0  0  0
  -28.8954  -15.6749   20.8060 H   0  0  0  0  0  0
  1 25  1  0  0  0
  1 30  2  0  0  0
  1 83  1  0  0  0
  2  3  1  0  0  0
  2 25  1  0  0  0
  2 84  1  0  0  0
  2 85  1  0  0  0
  3  4  1  0  0  0
  3 86  1  0  0  0
  3 87  1  0  0  0
  4  5  1  0  0  0
  4 88  1  0  0  0
  4 89  1  0  0  0
  5  6  1  0  0  0
  5 26  1  0  0  0
  5 90  1  0  0  0
  6 25  1  0  0  0
  6 91  1  0  0  0
  6 92  1  0  0  0
  7  8  2  0  0  0
  7 26  1  0  0  0
  7 29  1  0  0  0
  8  9  1  0  0  0
  8 22  1  0  0  0
  9 10  1  0  0  0
  9 27  2  0  0  0
 10 11  2  0  0  0
 10 15  1  0  0  0
 11 12  1  0  0  0
 11 93  1  0  0  0
 12 13  2  0  0  0
 12 94  1  0  0  0
 13 14  1  0  0  0
 13 31  1  0  0  0
 14 15  2  0  0  0
 14 95  1  0  0  0
 15 96  1  0  0  0
 16 17  2  0  0  0
 16 21  1  0  0  0
 16 31  1  0  0  0
 17 18  1  0  0  0
 17 97  1  0  0  0
 18 19  2  0  0  0
 18 98  1  0  0  0
 19 20  1  0  0  0
 19 24  1  0  0  0
 20 21  2  0  0  0
 20 99  1  0  0  0
 21 23  1  0  0  0
 22 28  1  0  0  0
 22 32  2  0  0  0
 26 27  1  0  0  0
 28100  1  0  0  0
 28101  1  0  0  0
 29102  1  0  0  0
 29103  1  0  0  0
 33 34  1  0  0  0
 33 66  1  0  0  0
 33 70  2  0  0  0
 34 36  1  0  0  0
 34 59  1  0  0  0
 34104  1  0  0  0
 35 44  2  0  0  0
 35 45  1  0  0  0
 35 68  1  0  0  0
 36 56  1  0  0  0
 36105  1  0  0  0
 37 39  1  0  0  0
 37 47  1  0  0  0
 37 66  1  0  0  0
 37106  1  0  0  0
 38 43  2  0  0  0
 38 46  1  0  0  0
 38 47  1  0  0  0
 39 64  1  0  0  0
 39 67  2  0  0  0
 40 52  1  0  0  0
 40 53  2  0  0  0
 40 58  1  0  0  0
 41107  1  0  0  0
 41108  1  0  0  0
 41109  1  0  0  0
 41 48  1  0  0  0
 42 43  1  0  0  0
 42 66  1  0  0  0
 42110  1  0  0  0
 42111  1  0  0  0
 43 44  1  0  0  0
 44112  1  0  0  0
 45 46  2  0  0  0
 45113  1  0  0  0
 46114  1  0  0  0
 47115  1  0  0  0
 47116  1  0  0  0
 48 56  1  0  0  0
 48 65  1  0  0  0
 48117  1  0  0  0
 49 50  1  0  0  0
 49 53  1  0  0  0
 49 64  1  0  0  0
 49118  1  0  0  0
 50 51  1  0  0  0
 50119  1  0  0  0
 50120  1  0  0  0
 51 52  1  0  0  0
 51121  1  0  0  0
 51122  1  0  0  0
 52123  1  0  0  0
 52124  1  0  0  0
 53 54  1  0  0  0
 54 55  2  0  0  0
 54125  1  0  0  0
 55 57  1  0  0  0
 55126  1  0  0  0
 56 69  2  0  0  0
 57 58  2  0  0  0
 57127  1  0  0  0
 58128  1  0  0  0
 59 60  1  0  0  0
 59 61  1  0  0  0
 59 62  1  0  0  0
 60129  1  0  0  0
 60130  1  0  0  0
 60131  1  0  0  0
 61132  1  0  0  0
 61133  1  0  0  0
 61134  1  0  0  0
 62135  1  0  0  0
 62136  1  0  0  0
 62137  1  0  0  0
 63 65  1  0  0  0
 63138  1  0  0  0
 63139  1  0  0  0
 63140  1  0  0  0
 64141  1  0  0  0
 65142  1  0  0  0
 68 82  1  0  0  0
 71 73  2  0  0  0
 71 74  1  0  0  0
 71143  1  0  0  0
 72 75  2  0  0  0
 72 76  1  0  0  0
 72144  1  0  0  0
 73 75  1  0  0  0
 73 77  1  0  0  0
 74 76  2  0  0  0
 74 78  1  0  0  0
 75 79  1  0  0  0
 76 83  1  0  0  0
 77145  1  0  0  0
 77146  1  0  0  0
 77147  1  0  0  0
 78148  1  0  0  0
 78149  1  0  0  0
 78150  1  0  0  0
 79 80  1  0  0  0
 79151  1  0  0  0
 79152  1  0  0  0
 80 81  1  0  0  0
 80153  1  0  0  0
 80154  1  0  0  0
 81 82  1  0  0  0
 81155  1  0  0  0
 81156  1  0  0  0
 82157  1  0  0  0
 82158  1  0  0  0
 83159  1  0  0  0
M  ISO  4   1 100  68 101  82 101  83 100
M  END
> <chiral flag>
0

> <version>
0

> <s_m_source_file>
/data/baiqing/PycharmProjects/Reinvent-master-3.2/result/LINK_invent/BTK/process_docking_weight1_custom_sum_contain_oxygen_bond_distance_aromatic_linkinvent_7_9_3/rearranged_h_0027.sdf

> <i_m_source_file_index>
5

> <r_mmod_Potential_Energy-OPLS-2005>
145.336090087891

> <r_mmod_Stretch_Energy-OPLS-2005>
112.26505279541

> <r_mmod_Bend_Energy-OPLS-2005>
152.157257080078

> <r_mmod_Torsional_Energy-OPLS-2005>
245.671997070312

> <r_mmod_Improper_Torsional_Energy-OPLS-2005>
5.69048309326172

> <r_mmod_Van_der_Waal_Energy-OPLS-2005>
149.465911865234

> <r_mmod_Electrostatic_Energy-OPLS-2005>
-389.652893066406

> <r_mmod_Solvation_Energy-OPLS-2005>
-203.901718139648

> <b_mmod_Minimization_Converged-OPLS-2005>
0

> <r_mmod_RMS_Derivative-OPLS-2005>
5.99050998687744

$$$$
5
                    3D
 Structure written by MMmdl.
161169  0  0  1  0            999 V2000
  -30.5997  -14.7527   20.4783 C   0  0  0  0  0  0
  -30.4322  -12.4634   19.4828 C   0  0  0  0  0  0
  -29.5119  -12.5144   18.2425 C   0  0  0  0  0  0
  -28.0380  -12.3306   18.6513 C   0  0  0  0  0  0
  -27.6398  -13.2300   19.8523 C   0  0  2  0  0  0
  -28.6804  -13.1553   20.9911 C   0  0  0  0  0  0
  -25.2495  -13.8186   20.5683 C   0  0  0  0  0  0
  -24.1794  -13.0434   20.9188 C   0  0  0  0  0  0
  -24.6384  -11.6906   20.8737 C   0  0  0  0  0  0
  -23.9075  -10.4288   21.0404 C   0  0  0  0  0  0
  -24.3630   -9.4189   21.9177 C   0  0  0  0  0  0
  -23.6304   -8.2226   22.0746 C   0  0  0  0  0  0
  -22.4280   -8.0276   21.3544 C   0  0  0  0  0  0
  -21.9921   -9.0239   20.4633 C   0  0  0  0  0  0
  -22.7252  -10.2121   20.3045 C   0  0  0  0  0  0
  -21.6841   -6.0737   22.5277 C   0  0  0  0  0  0
  -21.4015   -6.5638   23.8212 C   0  0  0  0  0  0
  -21.3659   -5.6793   24.9168 C   0  0  0  0  0  0
  -21.6051   -4.3055   24.7223 C   0  0  0  0  0  0
  -21.8820   -3.8144   23.4340 C   0  0  0  0  0  0
  -21.9195   -4.6968   22.3392 C   0  0  0  0  0  0
  -22.7810  -13.5192   21.1861 C   0  0  0  0  0  0
  -22.1656   -4.2151   21.0972 F   0  0  0  0  0  0
  -21.5632   -3.4540   25.7734 F   0  0  0  0  0  0
  -29.9828  -13.5216   20.4194 N   0  0  0  0  0  0
  -26.2912  -12.9386   20.3263 N   0  0  0  0  0  0
  -25.9313  -11.6531   20.5746 N   0  0  0  0  0  0
  -22.0481  -12.8168   22.0421 N   0  0  0  0  0  0
  -25.4200  -15.1924   20.4132 N   0  0  0  0  0  0
  -31.7782  -14.8595   20.1240 O   0  0  0  0  0  0
  -21.6635   -6.8879   21.4240 O   0  0  0  0  0  0
  -22.3474  -14.5495   20.6716 O   0  0  0  0  0  0
  -24.6276  -31.8572   23.1964 C   0  0  0  0  0  0
  -25.9098  -32.4772   23.8334 C   0  0  1  0  0  0
  -27.2246  -27.2715   20.1504 C   0  0  0  0  0  0
  -25.5890  -33.8578   24.2259 N   0  0  0  0  0  0
  -23.4278  -30.4725   21.5421 C   0  0  2  0  0  0
  -24.8780  -28.9149   20.1183 C   0  0  0  0  0  0
  -22.7507  -29.4593   22.4963 C   0  0  0  0  0  0
  -18.0274  -28.1385   22.8470 C   0  0  0  0  0  0
  -24.1508  -36.7289   23.2647 C   0  0  0  0  0  0
  -25.9733  -30.7715   21.3770 C   0  0  0  0  0  0
  -26.0484  -29.3943   20.7217 C   0  0  0  0  0  0
  -27.2291  -28.5850   20.7228 C   0  0  0  0  0  0
  -26.0356  -26.8452   19.5294 C   0  0  0  0  0  0
  -24.8742  -27.6467   19.5117 C   0  0  0  0  0  0
  -23.6424  -29.7976   20.1617 C   0  0  0  0  0  0
  -25.4138  -36.3105   24.0340 C   0  0  1  0  0  0
  -20.5885  -28.3689   23.1300 C   0  0  2  0  0  0
  -20.6790  -26.9408   22.5438 C   0  0  0  0  0  0
  -19.5758  -26.6375   21.5248 C   0  0  0  0  0  0
  -18.1910  -26.7928   22.1623 C   0  0  0  0  0  0
  -19.1527  -28.8860   23.2861 C   0  0  0  0  0  0
  -18.9462  -30.1456   23.8879 C   0  0  0  0  0  0
  -17.6467  -30.6590   24.0544 C   0  0  0  0  0  0
  -25.9073  -34.9465   23.5129 C   0  0  0  0  0  0
  -16.5348  -29.9091   23.6332 C   0  0  0  0  0  0
  -16.7267  -28.6508   23.0353 C   0  0  0  0  0  0
  -26.4436  -31.6595   25.0729 C   0  0  0  0  0  0
  -25.3617  -31.3731   26.1414 C   0  0  0  0  0  0
  -27.0283  -30.3020   24.6217 C   0  0  0  0  0  0
  -27.6032  -32.4321   25.7447 C   0  0  0  0  0  0
  -27.5605  -37.1791   24.8458 C   0  0  0  0  0  0
  -21.4226  -29.3017   22.3685 N   0  0  0  0  0  0
  -26.4327  -37.3787   23.9395 N   0  0  0  0  0  0
  -24.6949  -31.0536   22.0939 N   0  0  0  0  0  0
  -23.4206  -28.8140   23.3064 O   0  0  0  0  0  0
  -28.3212  -26.3891   20.1312 O   0  0  0  0  0  0
  -26.5686  -34.8926   22.4723 O   0  0  0  0  0  0
  -23.5429  -32.1387   23.7278 O   0  0  0  0  0  0
  -29.2151  -21.5149   24.1429 C   0  0  0  0  0  0
  -29.1619  -21.2242   21.7194 C   0  0  0  0  0  0
  -28.3735  -22.4820   21.6916 C   0  0  0  0  0  0
  -29.6906  -20.8766   22.9924 C   0  0  0  0  0  0
  -27.7387  -22.8011   22.9320 C   0  0  0  0  0  0
  -25.3148  -22.7743   23.7383 C   0  0  0  0  0  0
  -29.5030  -20.1598   20.5822 C   0  0  0  0  0  0
  -28.2413  -23.6005   20.5489 C   0  0  0  0  0  0
  -26.4349  -23.5915   23.0598 C   0  0  0  0  0  0
  -29.1588  -18.5702   20.8504 C   0  0  0  0  0  0
  -30.2153  -17.3653   20.5365 C   0  0  0  0  0  0
  -28.3179  -25.1813   21.0139 C   0  0  0  0  0  0
  -28.1945  -22.3804   24.1247 N   0  0  0  0  0  0
  -29.8339  -15.8879   20.7321 N   0  0  0  0  0  0
  -30.9549  -19.7078   23.1956 Cl  0  0  0  0  0  0
  -31.4740  -12.5917   19.1821 H   0  0  0  0  0  0
  -30.3799  -11.4851   19.9624 H   0  0  0  0  0  0
  -29.7976  -11.7454   17.5236 H   0  0  0  0  0  0
  -29.6321  -13.4724   17.7331 H   0  0  0  0  0  0
  -27.8964  -11.2814   18.9149 H   0  0  0  0  0  0
  -27.3810  -12.5186   17.8012 H   0  0  0  0  0  0
  -27.6365  -14.2522   19.4729 H   0  0  0  0  0  0
  -28.7155  -12.1477   21.4094 H   0  0  0  0  0  0
  -28.4086  -13.8193   21.8130 H   0  0  0  0  0  0
  -25.2786   -9.5656   22.4735 H   0  0  0  0  0  0
  -24.0009   -7.4614   22.7468 H   0  0  0  0  0  0
  -21.0847   -8.8757   19.8934 H   0  0  0  0  0  0
  -22.3716  -10.9655   19.6147 H   0  0  0  0  0  0
  -21.2001   -7.6146   23.9711 H   0  0  0  0  0  0
  -21.1486   -6.0522   25.9075 H   0  0  0  0  0  0
  -22.0608   -2.7611   23.2835 H   0  0  0  0  0  0
  -22.4141  -11.9847   22.4800 H   0  0  0  0  0  0
  -21.1092  -13.1166   22.2646 H   0  0  0  0  0  0
  -24.6554  -15.8489   20.5260 H   0  0  0  0  0  0
  -26.2683  -15.6319   20.0794 H   0  0  0  0  0  0
  -26.7164  -32.5420   23.1069 H   0  0  0  0  0  0
  -24.9897  -33.9704   25.0307 H   0  0  0  0  0  0
  -22.7240  -31.2930   21.3945 H   0  0  0  0  0  0
  -23.3808  -35.9583   23.3309 H   0  0  0  0  0  0
  -24.3593  -36.8927   22.2061 H   0  0  0  0  0  0
  -23.7218  -37.6473   23.6672 H   0  0  0  0  0  0
  -26.1225  -31.5349   20.6136 H   0  0  0  0  0  0
  -26.8470  -30.8144   22.0146 H   0  0  0  0  0  0
  -28.1313  -28.9457   21.1945 H   0  0  0  0  0  0
  -26.0067  -25.8688   19.0668 H   0  0  0  0  0  0
  -23.9755  -27.2709   19.0427 H   0  0  0  0  0  0
  -23.7483  -30.5700   19.3987 H   0  0  0  0  0  0
  -22.7628  -29.2190   19.8721 H   0  0  0  0  0  0
  -25.1316  -36.1981   25.0835 H   0  0  0  0  0  0
  -20.9938  -28.3292   24.1446 H   0  0  0  0  0  0
  -20.5766  -26.2279   23.3632 H   0  0  0  0  0  0
  -21.6642  -26.7474   22.1180 H   0  0  0  0  0  0
  -19.6936  -25.6301   21.1257 H   0  0  0  0  0  0
  -19.6725  -27.3201   20.6800 H   0  0  0  0  0  0
  -17.4202  -26.6677   21.3996 H   0  0  0  0  0  0
  -18.0258  -26.0091   22.9040 H   0  0  0  0  0  0
  -19.7949  -30.7229   24.2267 H   0  0  0  0  0  0
  -17.5034  -31.6277   24.5128 H   0  0  0  0  0  0
  -15.5347  -30.2970   23.7702 H   0  0  0  0  0  0
  -15.8657  -28.0813   22.7107 H   0  0  0  0  0  0
  -24.5826  -30.7067   25.7683 H   0  0  0  0  0  0
  -24.8716  -32.2863   26.4800 H   0  0  0  0  0  0
  -25.7858  -30.8900   27.0217 H   0  0  0  0  0  0
  -26.2867  -29.6763   24.1230 H   0  0  0  0  0  0
  -27.3950  -29.7299   25.4747 H   0  0  0  0  0  0
  -27.8754  -30.4320   23.9479 H   0  0  0  0  0  0
  -27.2730  -33.3673   26.1976 H   0  0  0  0  0  0
  -28.3803  -32.6801   25.0207 H   0  0  0  0  0  0
  -28.0717  -31.8453   26.5346 H   0  0  0  0  0  0
  -28.2616  -38.0103   24.7554 H   0  0  0  0  0  0
  -28.1123  -36.2635   24.6253 H   0  0  0  0  0  0
  -27.2310  -37.1395   25.8860 H   0  0  0  0  0  0
  -20.9449  -29.8704   21.6839 H   0  0  0  0  0  0
  -26.0244  -38.2884   24.1386 H   0  0  0  0  0  0
  -29.6075  -21.2599   25.1165 H   0  0  0  0  0  0
  -24.4011  -23.3596   23.8458 H   0  0  0  0  0  0
  -25.6064  -22.4477   24.7376 H   0  0  0  0  0  0
  -25.0697  -21.8819   23.1613 H   0  0  0  0  0  0
  -30.5737  -20.2405   20.3915 H   0  0  0  0  0  0
  -29.0336  -20.4774   19.6505 H   0  0  0  0  0  0
  -27.3038  -23.4345   20.0193 H   0  0  0  0  0  0
  -29.0328  -23.4173   19.8213 H   0  0  0  0  0  0
  -26.0600  -23.8909   22.0808 H   0  0  0  0  0  0
  -26.6201  -24.5008   23.6362 H   0  0  0  0  0  0
  -28.2296  -18.3540   20.3218 H   0  0  0  0  0  0
  -28.8789  -18.4622   21.8973 H   0  0  0  0  0  0
  -31.1035  -17.5353   21.1461 H   0  0  0  0  0  0
  -30.5478  -17.4681   19.5028 H   0  0  0  0  0  0
  -29.2553  -25.2723   21.5640 H   0  0  0  0  0  0
  -27.5646  -25.4069   21.7618 H   0  0  0  0  0  0
  -28.8818  -15.7079   21.0146 H   0  0  0  0  0  0
  1 25  1  0  0  0
  1 30  2  0  0  0
  1 84  1  0  0  0
  2  3  1  0  0  0
  2 25  1  0  0  0
  2 86  1  0  0  0
  2 87  1  0  0  0
  3  4  1  0  0  0
  3 88  1  0  0  0
  3 89  1  0  0  0
  4  5  1  0  0  0
  4 90  1  0  0  0
  4 91  1  0  0  0
  5  6  1  0  0  0
  5 26  1  0  0  0
  5 92  1  0  0  0
  6 25  1  0  0  0
  6 93  1  0  0  0
  6 94  1  0  0  0
  7  8  2  0  0  0
  7 26  1  0  0  0
  7 29  1  0  0  0
  8  9  1  0  0  0
  8 22  1  0  0  0
  9 10  1  0  0  0
  9 27  2  0  0  0
 10 11  2  0  0  0
 10 15  1  0  0  0
 11 12  1  0  0  0
 11 95  1  0  0  0
 12 13  2  0  0  0
 12 96  1  0  0  0
 13 14  1  0  0  0
 13 31  1  0  0  0
 14 15  2  0  0  0
 14 97  1  0  0  0
 15 98  1  0  0  0
 16 17  2  0  0  0
 16 21  1  0  0  0
 16 31  1  0  0  0
 17 18  1  0  0  0
 17 99  1  0  0  0
 18 19  2  0  0  0
 18100  1  0  0  0
 19 20  1  0  0  0
 19 24  1  0  0  0
 20 21  2  0  0  0
 20101  1  0  0  0
 21 23  1  0  0  0
 22 28  1  0  0  0
 22 32  2  0  0  0
 26 27  1  0  0  0
 28102  1  0  0  0
 28103  1  0  0  0
 29104  1  0  0  0
 29105  1  0  0  0
 33 34  1  0  0  0
 33 66  1  0  0  0
 33 70  2  0  0  0
 34 36  1  0  0  0
 34 59  1  0  0  0
 34106  1  0  0  0
 35 44  2  0  0  0
 35 45  1  0  0  0
 35 68  1  0  0  0
 36 56  1  0  0  0
 36107  1  0  0  0
 37 39  1  0  0  0
 37 47  1  0  0  0
 37 66  1  0  0  0
 37108  1  0  0  0
 38 43  2  0  0  0
 38 46  1  0  0  0
 38 47  1  0  0  0
 39 64  1  0  0  0
 39 67  2  0  0  0
 40 52  1  0  0  0
 40 53  2  0  0  0
 40 58  1  0  0  0
 41109  1  0  0  0
 41110  1  0  0  0
 41111  1  0  0  0
 41 48  1  0  0  0
 42 43  1  0  0  0
 42 66  1  0  0  0
 42112  1  0  0  0
 42113  1  0  0  0
 43 44  1  0  0  0
 44114  1  0  0  0
 45 46  2  0  0  0
 45115  1  0  0  0
 46116  1  0  0  0
 47117  1  0  0  0
 47118  1  0  0  0
 48 56  1  0  0  0
 48 65  1  0  0  0
 48119  1  0  0  0
 49 50  1  0  0  0
 49 53  1  0  0  0
 49 64  1  0  0  0
 49120  1  0  0  0
 50 51  1  0  0  0
 50121  1  0  0  0
 50122  1  0  0  0
 51 52  1  0  0  0
 51123  1  0  0  0
 51124  1  0  0  0
 52125  1  0  0  0
 52126  1  0  0  0
 53 54  1  0  0  0
 54 55  2  0  0  0
 54127  1  0  0  0
 55 57  1  0  0  0
 55128  1  0  0  0
 56 69  2  0  0  0
 57 58  2  0  0  0
 57129  1  0  0  0
 58130  1  0  0  0
 59 60  1  0  0  0
 59 61  1  0  0  0
 59 62  1  0  0  0
 60131  1  0  0  0
 60132  1  0  0  0
 60133  1  0  0  0
 61134  1  0  0  0
 61135  1  0  0  0
 61136  1  0  0  0
 62137  1  0  0  0
 62138  1  0  0  0
 62139  1  0  0  0
 63 65  1  0  0  0
 63140  1  0  0  0
 63141  1  0  0  0
 63142  1  0  0  0
 64143  1  0  0  0
 65144  1  0  0  0
 68 82  1  0  0  0
 71 74  2  0  0  0
 71 83  1  0  0  0
 71145  1  0  0  0
 72 73  2  0  0  0
 72 74  1  0  0  0
 72 77  1  0  0  0
 73 75  1  0  0  0
 73 78  1  0  0  0
 74 85  1  0  0  0
 75 79  1  0  0  0
 75 83  2  0  0  0
 76 79  1  0  0  0
 76146  1  0  0  0
 76147  1  0  0  0
 76148  1  0  0  0
 77 80  1  0  0  0
 77149  1  0  0  0
 77150  1  0  0  0
 78 82  1  0  0  0
 78151  1  0  0  0
 78152  1  0  0  0
 79153  1  0  0  0
 79154  1  0  0  0
 80 81  1  0  0  0
 80155  1  0  0  0
 80156  1  0  0  0
 81 84  1  0  0  0
 81157  1  0  0  0
 81158  1  0  0  0
 82159  1  0  0  0
 82160  1  0  0  0
 84161  1  0  0  0
M  ISO  4   1 100  68 101  82 101  84 100
M  END
> <chiral flag>
0

> <version>
0

> <s_m_source_file>
/data/baiqing/PycharmProjects/Reinvent-master-3.2/result/LINK_invent/BTK/process_docking_weight1_custom_sum_contain_oxygen_bond_distance_aromatic_linkinvent_7_9_3/rearranged_h_0027.sdf

> <i_m_source_file_index>
6

> <r_mmod_Potential_Energy-OPLS-2005>
190.060699462891

> <r_mmod_Stretch_Energy-OPLS-2005>
152.715194702148

> <r_mmod_Bend_Energy-OPLS-2005>
197.006286621094

> <r_mmod_Torsional_Energy-OPLS-2005>
306.038208007812

> <r_mmod_Improper_Torsional_Energy-OPLS-2005>
5.32187700271606

> <r_mmod_Van_der_Waal_Energy-OPLS-2005>
144.606369018555

> <r_mmod_Electrostatic_Energy-OPLS-2005>
-480.51220703125

> <r_mmod_Solvation_Energy-OPLS-2005>
-217.390518188477

> <b_mmod_Minimization_Converged-OPLS-2005>
0

> <r_mmod_RMS_Derivative-OPLS-2005>
3.28819632530212

$$$$
6
                    3D
 Structure written by MMmdl.
174182  0  0  1  0            999 V2000
  -30.6978  -14.4206   20.6183 C   0  0  0  0  0  0
  -30.4286  -12.2942   19.3952 C   0  0  0  0  0  0
  -29.4908  -12.5228   18.1917 C   0  0  0  0  0  0
  -28.0112  -12.3842   18.6054 C   0  0  0  0  0  0
  -27.6676  -13.1984   19.8812 C   0  0  2  0  0  0
  -28.7077  -12.9221   20.9894 C   0  0  0  0  0  0
  -25.2626  -13.8151   20.5674 C   0  0  0  0  0  0
  -24.1855  -13.0443   20.9153 C   0  0  0  0  0  0
  -24.6391  -11.6907   20.8723 C   0  0  0  0  0  0
  -23.9049  -10.4296   21.0412 C   0  0  0  0  0  0
  -24.3608   -9.4212   21.9190 C   0  0  0  0  0  0
  -23.6289   -8.2245   22.0757 C   0  0  0  0  0  0
  -22.4270   -8.0281   21.3544 C   0  0  0  0  0  0
  -21.9900   -9.0258   20.4651 C   0  0  0  0  0  0
  -22.7222  -10.2141   20.3063 C   0  0  0  0  0  0
  -21.6850   -6.0734   22.5275 C   0  0  0  0  0  0
  -21.4008   -6.5635   23.8212 C   0  0  0  0  0  0
  -21.3661   -5.6789   24.9178 C   0  0  0  0  0  0
  -21.6048   -4.3054   24.7227 C   0  0  0  0  0  0
  -21.8817   -3.8141   23.4351 C   0  0  0  0  0  0
  -21.9195   -4.6958   22.3402 C   0  0  0  0  0  0
  -22.7885  -13.5262   21.1832 C   0  0  0  0  0  0
  -22.1666   -4.2142   21.0983 F   0  0  0  0  0  0
  -21.5630   -3.4541   25.7743 F   0  0  0  0  0  0
  -30.0450  -13.2404   20.4514 N   0  0  0  0  0  0
  -26.3054  -12.9302   20.3386 N   0  0  0  0  0  0
  -25.9313  -11.6464   20.5754 N   0  0  0  0  0  0
  -22.0511  -12.8276   22.0398 N   0  0  0  0  0  0
  -25.4393  -15.1869   20.4127 N   0  0  0  0  0  0
  -31.7819  -14.6851   20.0918 O   0  0  0  0  0  0
  -21.6640   -6.8875   21.4240 O   0  0  0  0  0  0
  -22.3568  -14.5566   20.6678 O   0  0  0  0  0  0
  -24.6123  -31.8699   23.2124 C   0  0  0  0  0  0
  -25.9027  -32.4833   23.8412 C   0  0  1  0  0  0
  -27.2386  -27.4617   20.0690 C   0  0  0  0  0  0
  -25.5895  -33.8629   24.2346 N   0  0  0  0  0  0
  -23.3987  -30.4939   21.5524 C   0  0  2  0  0  0
  -24.8443  -28.9604   20.1170 C   0  0  0  0  0  0
  -22.7393  -29.4669   22.5000 C   0  0  0  0  0  0
  -18.0269  -28.1373   22.8493 C   0  0  0  0  0  0
  -24.1481  -36.7310   23.2636 C   0  0  0  0  0  0
  -25.9266  -30.8376   21.3659 C   0  0  0  0  0  0
  -26.0031  -29.4730   20.7143 C   0  0  0  0  0  0
  -27.2001  -28.7234   20.7017 C   0  0  0  0  0  0
  -26.0556  -26.9460   19.4949 C   0  0  0  0  0  0
  -24.8622  -27.6911   19.5134 C   0  0  0  0  0  0
  -23.6062  -29.8267   20.1667 C   0  0  0  0  0  0
  -25.4102  -36.3113   24.0338 C   0  0  1  0  0  0
  -20.5855  -28.3655   23.1324 C   0  0  2  0  0  0
  -20.6759  -26.9394   22.5420 C   0  0  0  0  0  0
  -19.5741  -26.6382   21.5210 C   0  0  0  0  0  0
  -18.1916  -26.7924   22.1619 C   0  0  0  0  0  0
  -19.1517  -28.8833   23.2906 C   0  0  0  0  0  0
  -18.9445  -30.1438   23.8914 C   0  0  0  0  0  0
  -17.6453  -30.6580   24.0568 C   0  0  0  0  0  0
  -25.9032  -34.9479   23.5139 C   0  0  0  0  0  0
  -16.5343  -29.9090   23.6324 C   0  0  0  0  0  0
  -16.7258  -28.6504   23.0347 C   0  0  0  0  0  0
  -26.4465  -31.6606   25.0731 C   0  0  0  0  0  0
  -25.3744  -31.3730   26.1495 C   0  0  0  0  0  0
  -27.0275  -30.3041   24.6101 C   0  0  0  0  0  0
  -27.6063  -32.4314   25.7468 C   0  0  0  0  0  0
  -27.5585  -37.1796   24.8456 C   0  0  0  0  0  0
  -21.4123  -29.3027   22.3734 N   0  0  0  0  0  0
  -26.4285  -37.3802   23.9420 N   0  0  0  0  0  0
  -24.6637  -31.0814   22.1018 N   0  0  0  0  0  0
  -23.4174  -28.8216   23.3040 O   0  0  0  0  0  0
  -28.4109  -26.7416   20.0498 O   0  0  0  0  0  0
  -26.5590  -34.8924   22.4697 O   0  0  0  0  0  0
  -23.5322  -32.1447   23.7534 O   0  0  0  0  0  0
  -28.9097  -17.4943   21.4502 C   0  0  0  0  0  0
  -28.0257  -17.5675   22.5686 C   0  0  0  0  0  0
  -28.2598  -18.2058   20.4654 C   0  0  0  0  0  0
  -28.7337  -18.0398   24.9387 C   0  0  0  0  0  0
  -29.2498  -17.3876   18.2591 C   0  0  0  0  0  0
  -25.9490  -19.3410   20.4002 C   0  0  0  0  0  0
  -30.2357  -16.7612   21.4311 C   0  0  0  0  0  0
  -28.2097  -16.9929   23.9476 C   0  0  0  0  0  0
  -29.6505  -22.4072   19.1109 C   0  0  0  0  0  0
  -28.8378  -23.7126   19.2481 C   0  0  0  0  0  0
  -28.8038  -21.1396   19.3301 C   0  0  0  0  0  0
  -29.6654  -24.9684   18.9105 C   0  0  0  0  0  0
  -29.5341  -19.8266   18.9674 C   0  0  0  0  0  0
  -28.8352  -26.2579   18.7738 C   0  0  0  0  0  0
  -28.6418  -18.5633   19.0460 C   0  0  2  0  0  0
  -26.9238  -18.2424   22.2998 N   0  0  0  0  0  0
  -27.0492  -18.6136   21.0117 N   0  0  0  0  0  0
  -30.0022  -15.3246   21.3199 N   0  0  0  0  0  0
  -31.4705  -12.4110   19.0916 H   0  0  0  0  0  0
  -30.3384  -11.2706   19.7613 H   0  0  0  0  0  0
  -29.7213  -11.8149   17.3939 H   0  0  0  0  0  0
  -29.6634  -13.5167   17.7758 H   0  0  0  0  0  0
  -27.8111  -11.3258   18.7752 H   0  0  0  0  0  0
  -27.3626  -12.6868   17.7826 H   0  0  0  0  0  0
  -27.7275  -14.2546   19.6169 H   0  0  0  0  0  0
  -28.6777  -11.8700   21.2749 H   0  0  0  0  0  0
  -28.4620  -13.4667   21.9016 H   0  0  0  0  0  0
  -25.2763   -9.5687   22.4762 H   0  0  0  0  0  0
  -23.9999   -7.4633   22.7474 H   0  0  0  0  0  0
  -21.0823   -8.8794   19.8964 H   0  0  0  0  0  0
  -22.3696  -10.9687   19.6170 H   0  0  0  0  0  0
  -21.1998   -7.6142   23.9721 H   0  0  0  0  0  0
  -21.1482   -6.0517   25.9080 H   0  0  0  0  0  0
  -22.0594   -2.7600   23.2865 H   0  0  0  0  0  0
  -22.4098  -11.9932   22.4799 H   0  0  0  0  0  0
  -21.1141  -13.1348   22.2592 H   0  0  0  0  0  0
  -24.6921  -15.8538   20.5682 H   0  0  0  0  0  0
  -26.3221  -15.6312   20.1940 H   0  0  0  0  0  0
  -26.7103  -32.5553   23.1183 H   0  0  0  0  0  0
  -25.0046  -33.9796   25.0491 H   0  0  0  0  0  0
  -22.6855  -31.3092   21.4154 H   0  0  0  0  0  0
  -23.3747  -35.9638   23.3290 H   0  0  0  0  0  0
  -24.3587  -36.8931   22.2053 H   0  0  0  0  0  0
  -23.7218  -37.6504   23.6655 H   0  0  0  0  0  0
  -26.0403  -31.6039   20.5979 H   0  0  0  0  0  0
  -26.8142  -30.8888   21.9848 H   0  0  0  0  0  0
  -28.0966  -29.1163   21.1611 H   0  0  0  0  0  0
  -26.0465  -25.9652   19.0408 H   0  0  0  0  0  0
  -23.9671  -27.2833   19.0646 H   0  0  0  0  0  0
  -23.7148  -30.6029   19.4083 H   0  0  0  0  0  0
  -22.7291  -29.2478   19.8707 H   0  0  0  0  0  0
  -25.1269  -36.1979   25.0827 H   0  0  0  0  0  0
  -20.9938  -28.3222   24.1447 H   0  0  0  0  0  0
  -20.5648  -26.2262   23.3604 H   0  0  0  0  0  0
  -21.6636  -26.7436   22.1224 H   0  0  0  0  0  0
  -19.6904  -25.6299   21.1228 H   0  0  0  0  0  0
  -19.6682  -27.3201   20.6749 H   0  0  0  0  0  0
  -17.4185  -26.6672   21.4022 H   0  0  0  0  0  0
  -18.0316  -26.0061   22.9007 H   0  0  0  0  0  0
  -19.7922  -30.7251   24.2290 H   0  0  0  0  0  0
  -17.5007  -31.6262   24.5172 H   0  0  0  0  0  0
  -15.5347  -30.3003   23.7632 H   0  0  0  0  0  0
  -15.8658  -28.0833   22.7056 H   0  0  0  0  0  0
  -24.5888  -30.7103   25.7846 H   0  0  0  0  0  0
  -24.8972  -32.2897   26.4972 H   0  0  0  0  0  0
  -25.8101  -30.8876   27.0236 H   0  0  0  0  0  0
  -26.2803  -29.6811   24.1168 H   0  0  0  0  0  0
  -27.4050  -29.7275   25.4556 H   0  0  0  0  0  0
  -27.8644  -30.4353   23.9237 H   0  0  0  0  0  0
  -27.2708  -33.3616   26.2068 H   0  0  0  0  0  0
  -28.3849  -32.6868   25.0265 H   0  0  0  0  0  0
  -28.0752  -31.8419   26.5357 H   0  0  0  0  0  0
  -28.2591  -38.0108   24.7536 H   0  0  0  0  0  0
  -28.1090  -36.2642   24.6227 H   0  0  0  0  0  0
  -27.2313  -37.1379   25.8861 H   0  0  0  0  0  0
  -20.9275  -29.8748   21.6959 H   0  0  0  0  0  0
  -26.0170  -38.2871   24.1454 H   0  0  0  0  0  0
  -28.8635  -17.6049   25.9294 H   0  0  0  0  0  0
  -28.0404  -18.8767   25.0296 H   0  0  0  0  0  0
  -29.6978  -18.4368   24.6184 H   0  0  0  0  0  0
  -28.6185  -16.5006   18.3271 H   0  0  0  0  0  0
  -30.2463  -17.1170   18.5990 H   0  0  0  0  0  0
  -29.3390  -17.6388   17.2016 H   0  0  0  0  0  0
  -26.2334  -20.3761   20.2200 H   0  0  0  0  0  0
  -25.0737  -19.3347   21.0509 H   0  0  0  0  0  0
  -25.6700  -18.8746   19.4552 H   0  0  0  0  0  0
  -30.7836  -16.9357   22.3572 H   0  0  0  0  0  0
  -30.8970  -17.1223   20.6452 H   0  0  0  0  0  0
  -28.8944  -16.1459   23.9163 H   0  0  0  0  0  0
  -27.2644  -16.5916   24.3146 H   0  0  0  0  0  0
  -30.4848  -22.4179   19.8137 H   0  0  0  0  0  0
  -30.0908  -22.3690   18.1131 H   0  0  0  0  0  0
  -28.4369  -23.8010   20.2588 H   0  0  0  0  0  0
  -27.9756  -23.6662   18.5811 H   0  0  0  0  0  0
  -27.9033  -21.2142   18.7191 H   0  0  0  0  0  0
  -28.4732  -21.1072   20.3691 H   0  0  0  0  0  0
  -30.1721  -24.8032   17.9583 H   0  0  0  0  0  0
  -30.4532  -25.1110   19.6503 H   0  0  0  0  0  0
  -30.4152  -19.6958   19.5973 H   0  0  0  0  0  0
  -29.9059  -19.9235   17.9463 H   0  0  0  0  0  0
  -28.0233  -26.0905   18.0661 H   0  0  0  0  0  0
  -29.4571  -27.0360   18.3289 H   0  0  0  0  0  0
  -27.7303  -18.7992   18.4982 H   0  0  0  0  0  0
  -29.1342  -14.9846   21.7016 H   0  0  0  0  0  0
  1 25  1  0  0  0
  1 30  2  0  0  0
  1 88  1  0  0  0
  2  3  1  0  0  0
  2 25  1  0  0  0
  2 89  1  0  0  0
  2 90  1  0  0  0
  3  4  1  0  0  0
  3 91  1  0  0  0
  3 92  1  0  0  0
  4  5  1  0  0  0
  4 93  1  0  0  0
  4 94  1  0  0  0
  5  6  1  0  0  0
  5 26  1  0  0  0
  5 95  1  0  0  0
  6 25  1  0  0  0
  6 96  1  0  0  0
  6 97  1  0  0  0
  7  8  2  0  0  0
  7 26  1  0  0  0
  7 29  1  0  0  0
  8  9  1  0  0  0
  8 22  1  0  0  0
  9 10  1  0  0  0
  9 27  2  0  0  0
 10 11  2  0  0  0
 10 15  1  0  0  0
 11 12  1  0  0  0
 11 98  1  0  0  0
 12 13  2  0  0  0
 12 99  1  0  0  0
 13 14  1  0  0  0
 13 31  1  0  0  0
 14 15  2  0  0  0
 14100  1  0  0  0
 15101  1  0  0  0
 16 17  2  0  0  0
 16 21  1  0  0  0
 16 31  1  0  0  0
 17 18  1  0  0  0
 17102  1  0  0  0
 18 19  2  0  0  0
 18103  1  0  0  0
 19 20  1  0  0  0
 19 24  1  0  0  0
 20 21  2  0  0  0
 20104  1  0  0  0
 21 23  1  0  0  0
 22 28  1  0  0  0
 22 32  2  0  0  0
 26 27  1  0  0  0
 28105  1  0  0  0
 28106  1  0  0  0
 29107  1  0  0  0
 29108  1  0  0  0
 33 34  1  0  0  0
 33 66  1  0  0  0
 33 70  2  0  0  0
 34 36  1  0  0  0
 34 59  1  0  0  0
 34109  1  0  0  0
 35 44  2  0  0  0
 35 45  1  0  0  0
 35 68  1  0  0  0
 36 56  1  0  0  0
 36110  1  0  0  0
 37 39  1  0  0  0
 37 47  1  0  0  0
 37 66  1  0  0  0
 37111  1  0  0  0
 38 43  2  0  0  0
 38 46  1  0  0  0
 38 47  1  0  0  0
 39 64  1  0  0  0
 39 67  2  0  0  0
 40 52  1  0  0  0
 40 53  2  0  0  0
 40 58  1  0  0  0
 41112  1  0  0  0
 41113  1  0  0  0
 41114  1  0  0  0
 41 48  1  0  0  0
 42 43  1  0  0  0
 42 66  1  0  0  0
 42115  1  0  0  0
 42116  1  0  0  0
 43 44  1  0  0  0
 44117  1  0  0  0
 45 46  2  0  0  0
 45118  1  0  0  0
 46119  1  0  0  0
 47120  1  0  0  0
 47121  1  0  0  0
 48 56  1  0  0  0
 48 65  1  0  0  0
 48122  1  0  0  0
 49 50  1  0  0  0
 49 53  1  0  0  0
 49 64  1  0  0  0
 49123  1  0  0  0
 50 51  1  0  0  0
 50124  1  0  0  0
 50125  1  0  0  0
 51 52  1  0  0  0
 51126  1  0  0  0
 51127  1  0  0  0
 52128  1  0  0  0
 52129  1  0  0  0
 53 54  1  0  0  0
 54 55  2  0  0  0
 54130  1  0  0  0
 55 57  1  0  0  0
 55131  1  0  0  0
 56 69  2  0  0  0
 57 58  2  0  0  0
 57132  1  0  0  0
 58133  1  0  0  0
 59 60  1  0  0  0
 59 61  1  0  0  0
 59 62  1  0  0  0
 60134  1  0  0  0
 60135  1  0  0  0
 60136  1  0  0  0
 61137  1  0  0  0
 61138  1  0  0  0
 61139  1  0  0  0
 62140  1  0  0  0
 62141  1  0  0  0
 62142  1  0  0  0
 63 65  1  0  0  0
 63143  1  0  0  0
 63144  1  0  0  0
 63145  1  0  0  0
 64146  1  0  0  0
 65147  1  0  0  0
 68 84  1  0  0  0
 71 72  1  0  0  0
 71 73  2  0  0  0
 71 77  1  0  0  0
 72 78  1  0  0  0
 72 86  2  0  0  0
 73 85  1  0  0  0
 73 87  1  0  0  0
 74 78  1  0  0  0
 74148  1  0  0  0
 74149  1  0  0  0
 74150  1  0  0  0
 75151  1  0  0  0
 75152  1  0  0  0
 75153  1  0  0  0
 75 85  1  0  0  0
 76 87  1  0  0  0
 76154  1  0  0  0
 76155  1  0  0  0
 76156  1  0  0  0
 77 88  1  0  0  0
 77157  1  0  0  0
 77158  1  0  0  0
 78159  1  0  0  0
 78160  1  0  0  0
 79 80  1  0  0  0
 79 81  1  0  0  0
 79161  1  0  0  0
 79162  1  0  0  0
 80 82  1  0  0  0
 80163  1  0  0  0
 80164  1  0  0  0
 81 83  1  0  0  0
 81165  1  0  0  0
 81166  1  0  0  0
 82 84  1  0  0  0
 82167  1  0  0  0
 82168  1  0  0  0
 83 85  1  0  0  0
 83169  1  0  0  0
 83170  1  0  0  0
 84171  1  0  0  0
 84172  1  0  0  0
 85173  1  0  0  0
 86 87  1  0  0  0
 88174  1  0  0  0
M  ISO  4   1 100  68 101  84 101  88 100
M  END
> <chiral flag>
0

> <version>
0

> <s_m_source_file>
/data/baiqing/PycharmProjects/Reinvent-master-3.2/result/LINK_invent/BTK/process_docking_weight1_custom_sum_contain_oxygen_bond_distance_aromatic_linkinvent_7_9_3/rearranged_h_0027.sdf

> <i_m_source_file_index>
7

> <r_mmod_Potential_Energy-OPLS-2005>
-141.006790161133

> <r_mmod_Stretch_Energy-OPLS-2005>
32.9145545959473

> <r_mmod_Bend_Energy-OPLS-2005>
96.4714202880859

> <r_mmod_Torsional_Energy-OPLS-2005>
220.353240966797

> <r_mmod_Improper_Torsional_Energy-OPLS-2005>
2.92615723609924

> <r_mmod_Van_der_Waal_Energy-OPLS-2005>
107.72696685791

> <r_mmod_Electrostatic_Energy-OPLS-2005>
-409.358520507812

> <r_mmod_Solvation_Energy-OPLS-2005>
-200.532730102539

> <b_mmod_Minimization_Converged-OPLS-2005>
0

> <r_mmod_RMS_Derivative-OPLS-2005>
1.44516587257385

$$$$
7
                    3D
 Structure written by MMmdl.
171179  0  0  1  0            999 V2000
  -30.8167  -14.3017   20.7207 C   0  0  0  0  0  0
  -30.4064  -12.2721   19.3812 C   0  0  0  0  0  0
  -29.4769  -12.5223   18.1825 C   0  0  0  0  0  0
  -28.0047  -12.3758   18.6065 C   0  0  0  0  0  0
  -27.6675  -13.2004   19.8752 C   0  0  2  0  0  0
  -28.7048  -12.9435   20.9899 C   0  0  0  0  0  0
  -25.2615  -13.8151   20.5671 C   0  0  0  0  0  0
  -24.1849  -13.0442   20.9159 C   0  0  0  0  0  0
  -24.6391  -11.6911   20.8717 C   0  0  0  0  0  0
  -23.9062  -10.4295   21.0393 C   0  0  0  0  0  0
  -24.3619   -9.4210   21.9179 C   0  0  0  0  0  0
  -23.6297   -8.2247   22.0750 C   0  0  0  0  0  0
  -22.4277   -8.0275   21.3542 C   0  0  0  0  0  0
  -21.9909   -9.0250   20.4652 C   0  0  0  0  0  0
  -22.7229  -10.2130   20.3052 C   0  0  0  0  0  0
  -21.6855   -6.0729   22.5285 C   0  0  0  0  0  0
  -21.4016   -6.5634   23.8210 C   0  0  0  0  0  0
  -21.3651   -5.6784   24.9173 C   0  0  0  0  0  0
  -21.6057   -4.3052   24.7226 C   0  0  0  0  0  0
  -21.8818   -3.8143   23.4346 C   0  0  0  0  0  0
  -21.9193   -4.6965   22.3403 C   0  0  0  0  0  0
  -22.7869  -13.5241   21.1835 C   0  0  0  0  0  0
  -22.1658   -4.2147   21.0981 F   0  0  0  0  0  0
  -21.5634   -3.4534   25.7739 F   0  0  0  0  0  0
  -30.0517  -13.2150   20.4519 N   0  0  0  0  0  0
  -26.3045  -12.9319   20.3366 N   0  0  0  0  0  0
  -25.9314  -11.6480   20.5763 N   0  0  0  0  0  0
  -22.0521  -12.8220   22.0400 N   0  0  0  0  0  0
  -25.4376  -15.1862   20.4074 N   0  0  0  0  0  0
  -31.8101  -14.6015   20.0527 O   0  0  0  0  0  0
  -21.6635   -6.8876   21.4239 O   0  0  0  0  0  0
  -22.3556  -14.5556   20.6705 O   0  0  0  0  0  0
  -24.6116  -31.8704   23.2083 C   0  0  0  0  0  0
  -25.9028  -32.4843   23.8369 C   0  0  1  0  0  0
  -27.2353  -27.4645   20.0854 C   0  0  0  0  0  0
  -25.5940  -33.8640   24.2330 N   0  0  0  0  0  0
  -23.3978  -30.4925   21.5463 C   0  0  2  0  0  0
  -24.8434  -28.9594   20.1103 C   0  0  0  0  0  0
  -22.7392  -29.4682   22.4969 C   0  0  0  0  0  0
  -18.0292  -28.1372   22.8520 C   0  0  0  0  0  0
  -24.1496  -36.7314   23.2637 C   0  0  0  0  0  0
  -25.9243  -30.8401   21.3575 C   0  0  0  0  0  0
  -26.0002  -29.4767   20.7080 C   0  0  0  0  0  0
  -27.1986  -28.7348   20.6910 C   0  0  0  0  0  0
  -26.0649  -26.9570   19.4770 C   0  0  0  0  0  0
  -24.8686  -27.6969   19.4917 C   0  0  0  0  0  0
  -23.6042  -29.8213   20.1618 C   0  0  0  0  0  0
  -25.4108  -36.3120   24.0346 C   0  0  1  0  0  0
  -20.5876  -28.3671   23.1317 C   0  0  2  0  0  0
  -20.6798  -26.9406   22.5415 C   0  0  0  0  0  0
  -19.5779  -26.6393   21.5224 C   0  0  0  0  0  0
  -18.1952  -26.7935   22.1620 C   0  0  0  0  0  0
  -19.1537  -28.8832   23.2934 C   0  0  0  0  0  0
  -18.9469  -30.1447   23.8934 C   0  0  0  0  0  0
  -17.6474  -30.6592   24.0564 C   0  0  0  0  0  0
  -25.9041  -34.9499   23.5122 C   0  0  0  0  0  0
  -16.5369  -29.9095   23.6317 C   0  0  0  0  0  0
  -16.7281  -28.6505   23.0361 C   0  0  0  0  0  0
  -26.4459  -31.6618   25.0684 C   0  0  0  0  0  0
  -25.3723  -31.3750   26.1438 C   0  0  0  0  0  0
  -27.0269  -30.3071   24.6011 C   0  0  0  0  0  0
  -27.6034  -32.4334   25.7432 C   0  0  0  0  0  0
  -27.5580  -37.1799   24.8469 C   0  0  0  0  0  0
  -21.4120  -29.3060   22.3726 N   0  0  0  0  0  0
  -26.4300  -37.3798   23.9418 N   0  0  0  0  0  0
  -24.6628  -31.0822   22.0974 N   0  0  0  0  0  0
  -23.4189  -28.8230   23.2994 O   0  0  0  0  0  0
  -28.4203  -26.7680   20.1011 O   0  0  0  0  0  0
  -26.5579  -34.8955   22.4664 O   0  0  0  0  0  0
  -23.5314  -32.1448   23.7500 O   0  0  0  0  0  0
  -31.1766  -18.7976   16.2466 C   0  0  0  0  0  0
  -31.7903  -18.2393   17.3797 C   0  0  0  0  0  0
  -30.6463  -20.1029   16.2964 C   0  0  0  0  0  0
  -31.8655  -18.9703   18.5828 C   0  0  0  0  0  0
  -30.7222  -20.8508   17.5005 C   0  0  0  0  0  0
  -31.3243  -20.2748   18.6498 C   0  0  0  0  0  0
  -30.0032  -20.6802   15.0452 C   0  0  0  0  0  0
  -32.5189  -18.3262   19.7933 C   0  0  0  0  0  0
  -30.1555  -22.2657   17.5666 C   0  0  0  0  0  0
  -31.4827  -17.7219   20.7573 C   0  0  0  0  0  0
  -28.6373  -22.2960   17.8413 C   0  0  0  0  0  0
  -28.2354  -23.1335   19.0668 C   0  0  0  0  0  0
  -32.1568  -16.9099   21.8788 C   0  0  0  0  0  0
  -28.6322  -24.6187   18.9876 C   0  0  0  0  0  0
  -31.2312  -15.9334   22.6390 C   0  0  0  0  0  0
  -28.3323  -25.3599   20.2930 C   0  0  0  0  0  0
  -30.4783  -14.9546   21.8412 N   0  0  0  0  0  0
  -31.3913  -21.1496   20.1485 Cl  0  0  0  0  0  0
  -31.4513  -12.3593   19.0756 H   0  0  0  0  0  0
  -30.2917  -11.2495   19.7415 H   0  0  0  0  0  0
  -29.7063  -11.8212   17.3778 H   0  0  0  0  0  0
  -29.6478  -13.5218   17.7818 H   0  0  0  0  0  0
  -27.8143  -11.3169   18.7911 H   0  0  0  0  0  0
  -27.3467  -12.6654   17.7858 H   0  0  0  0  0  0
  -27.7274  -14.2542   19.6019 H   0  0  0  0  0  0
  -28.6576  -11.9045   21.3161 H   0  0  0  0  0  0
  -28.4505  -13.5331   21.8700 H   0  0  0  0  0  0
  -25.2770   -9.5683   22.4738 H   0  0  0  0  0  0
  -24.0016   -7.4632   22.7454 H   0  0  0  0  0  0
  -21.0841   -8.8764   19.8948 H   0  0  0  0  0  0
  -22.3694  -10.9666   19.6156 H   0  0  0  0  0  0
  -21.1994   -7.6144   23.9721 H   0  0  0  0  0  0
  -21.1480   -6.0513   25.9081 H   0  0  0  0  0  0
  -22.0603   -2.7610   23.2844 H   0  0  0  0  0  0
  -22.4137  -11.9876   22.4774 H   0  0  0  0  0  0
  -21.1153  -13.1252   22.2633 H   0  0  0  0  0  0
  -24.6808  -15.8522   20.5223 H   0  0  0  0  0  0
  -26.3040  -15.6189   20.1121 H   0  0  0  0  0  0
  -26.7075  -32.5547   23.1113 H   0  0  0  0  0  0
  -25.0201  -33.9823   25.0548 H   0  0  0  0  0  0
  -22.6862  -31.3079   21.4011 H   0  0  0  0  0  0
  -23.3772  -35.9635   23.3317 H   0  0  0  0  0  0
  -24.3591  -36.8893   22.2040 H   0  0  0  0  0  0
  -23.7235  -37.6521   23.6630 H   0  0  0  0  0  0
  -26.0292  -31.6002   20.5818 H   0  0  0  0  0  0
  -26.8192  -30.9002   21.9655 H   0  0  0  0  0  0
  -28.0947  -29.1290   21.1471 H   0  0  0  0  0  0
  -26.0684  -25.9971   18.9813 H   0  0  0  0  0  0
  -23.9833  -27.2923   19.0209 H   0  0  0  0  0  0
  -23.7143  -30.5948   19.4027 H   0  0  0  0  0  0
  -22.7320  -29.2367   19.8662 H   0  0  0  0  0  0
  -25.1274  -36.1989   25.0840 H   0  0  0  0  0  0
  -20.9987  -28.3245   24.1424 H   0  0  0  0  0  0
  -20.5746  -26.2264   23.3599 H   0  0  0  0  0  0
  -21.6653  -26.7491   22.1157 H   0  0  0  0  0  0
  -19.6958  -25.6313   21.1248 H   0  0  0  0  0  0
  -19.6726  -27.3202   20.6760 H   0  0  0  0  0  0
  -17.4221  -26.6732   21.4014 H   0  0  0  0  0  0
  -18.0321  -26.0049   22.8974 H   0  0  0  0  0  0
  -19.7950  -30.7261   24.2302 H   0  0  0  0  0  0
  -17.5036  -31.6262   24.5168 H   0  0  0  0  0  0
  -15.5374  -30.3016   23.7626 H   0  0  0  0  0  0
  -15.8685  -28.0838   22.7059 H   0  0  0  0  0  0
  -24.5930  -30.7061   25.7790 H   0  0  0  0  0  0
  -24.8879  -32.2917   26.4826 H   0  0  0  0  0  0
  -25.8072  -30.8978   27.0238 H   0  0  0  0  0  0
  -26.2775  -29.6851   24.1107 H   0  0  0  0  0  0
  -27.4124  -29.7295   25.4429 H   0  0  0  0  0  0
  -27.8585  -30.4415   23.9082 H   0  0  0  0  0  0
  -27.2667  -33.3645   26.2011 H   0  0  0  0  0  0
  -28.3816  -32.6893   25.0227 H   0  0  0  0  0  0
  -28.0736  -31.8467   26.5334 H   0  0  0  0  0  0
  -28.2604  -38.0087   24.7501 H   0  0  0  0  0  0
  -28.1075  -36.2627   24.6305 H   0  0  0  0  0  0
  -27.2316  -37.1425   25.8877 H   0  0  0  0  0  0
  -20.9279  -29.8749   21.6920 H   0  0  0  0  0  0
  -26.0218  -38.2900   24.1384 H   0  0  0  0  0  0
  -31.1169  -18.2139   15.3363 H   0  0  0  0  0  0
  -32.2002  -17.2409   17.3220 H   0  0  0  0  0  0
  -29.8582  -19.9217   14.2749 H   0  0  0  0  0  0
  -30.6356  -21.4639   14.6268 H   0  0  0  0  0  0
  -29.0229  -21.1041   15.2670 H   0  0  0  0  0  0
  -33.1558  -19.0454   20.3091 H   0  0  0  0  0  0
  -33.1952  -17.5446   19.4436 H   0  0  0  0  0  0
  -30.3709  -22.7933   16.6380 H   0  0  0  0  0  0
  -30.7019  -22.8337   18.3157 H   0  0  0  0  0  0
  -30.8137  -17.0883   20.1758 H   0  0  0  0  0  0
  -30.8489  -18.4981   21.1894 H   0  0  0  0  0  0
  -28.2659  -21.2796   17.9899 H   0  0  0  0  0  0
  -28.1200  -22.6669   16.9552 H   0  0  0  0  0  0
  -28.6519  -22.6856   19.9698 H   0  0  0  0  0  0
  -27.1506  -23.0801   19.1742 H   0  0  0  0  0  0
  -32.6005  -17.6057   22.5938 H   0  0  0  0  0  0
  -33.0024  -16.3502   21.4756 H   0  0  0  0  0  0
  -28.1077  -25.0866   18.1553 H   0  0  0  0  0  0
  -29.6958  -24.7344   18.7796 H   0  0  0  0  0  0
  -30.5090  -16.5013   23.2243 H   0  0  0  0  0  0
  -31.8279  -15.3732   23.3609 H   0  0  0  0  0  0
  -29.0825  -25.0892   21.0364 H   0  0  0  0  0  0
  -27.3729  -25.0563   20.7168 H   0  0  0  0  0  0
  -29.6471  -14.5916   22.2860 H   0  0  0  0  0  0
  1 25  1  0  0  0
  1 30  2  0  0  0
  1 87  1  0  0  0
  2  3  1  0  0  0
  2 25  1  0  0  0
  2 89  1  0  0  0
  2 90  1  0  0  0
  3  4  1  0  0  0
  3 91  1  0  0  0
  3 92  1  0  0  0
  4  5  1  0  0  0
  4 93  1  0  0  0
  4 94  1  0  0  0
  5  6  1  0  0  0
  5 26  1  0  0  0
  5 95  1  0  0  0
  6 25  1  0  0  0
  6 96  1  0  0  0
  6 97  1  0  0  0
  7  8  2  0  0  0
  7 26  1  0  0  0
  7 29  1  0  0  0
  8  9  1  0  0  0
  8 22  1  0  0  0
  9 10  1  0  0  0
  9 27  2  0  0  0
 10 11  2  0  0  0
 10 15  1  0  0  0
 11 12  1  0  0  0
 11 98  1  0  0  0
 12 13  2  0  0  0
 12 99  1  0  0  0
 13 14  1  0  0  0
 13 31  1  0  0  0
 14 15  2  0  0  0
 14100  1  0  0  0
 15101  1  0  0  0
 16 17  2  0  0  0
 16 21  1  0  0  0
 16 31  1  0  0  0
 17 18  1  0  0  0
 17102  1  0  0  0
 18 19  2  0  0  0
 18103  1  0  0  0
 19 20  1  0  0  0
 19 24  1  0  0  0
 20 21  2  0  0  0
 20104  1  0  0  0
 21 23  1  0  0  0
 22 28  1  0  0  0
 22 32  2  0  0  0
 26 27  1  0  0  0
 28105  1  0  0  0
 28106  1  0  0  0
 29107  1  0  0  0
 29108  1  0  0  0
 33 34  1  0  0  0
 33 66  1  0  0  0
 33 70  2  0  0  0
 34 36  1  0  0  0
 34 59  1  0  0  0
 34109  1  0  0  0
 35 44  2  0  0  0
 35 45  1  0  0  0
 35 68  1  0  0  0
 36 56  1  0  0  0
 36110  1  0  0  0
 37 39  1  0  0  0
 37 47  1  0  0  0
 37 66  1  0  0  0
 37111  1  0  0  0
 38 43  2  0  0  0
 38 46  1  0  0  0
 38 47  1  0  0  0
 39 64  1  0  0  0
 39 67  2  0  0  0
 40 52  1  0  0  0
 40 53  2  0  0  0
 40 58  1  0  0  0
 41112  1  0  0  0
 41113  1  0  0  0
 41114  1  0  0  0
 41 48  1  0  0  0
 42 43  1  0  0  0
 42 66  1  0  0  0
 42115  1  0  0  0
 42116  1  0  0  0
 43 44  1  0  0  0
 44117  1  0  0  0
 45 46  2  0  0  0
 45118  1  0  0  0
 46119  1  0  0  0
 47120  1  0  0  0
 47121  1  0  0  0
 48 56  1  0  0  0
 48 65  1  0  0  0
 48122  1  0  0  0
 49 50  1  0  0  0
 49 53  1  0  0  0
 49 64  1  0  0  0
 49123  1  0  0  0
 50 51  1  0  0  0
 50124  1  0  0  0
 50125  1  0  0  0
 51 52  1  0  0  0
 51126  1  0  0  0
 51127  1  0  0  0
 52128  1  0  0  0
 52129  1  0  0  0
 53 54  1  0  0  0
 54 55  2  0  0  0
 54130  1  0  0  0
 55 57  1  0  0  0
 55131  1  0  0  0
 56 69  2  0  0  0
 57 58  2  0  0  0
 57132  1  0  0  0
 58133  1  0  0  0
 59 60  1  0  0  0
 59 61  1  0  0  0
 59 62  1  0  0  0
 60134  1  0  0  0
 60135  1  0  0  0
 60136  1  0  0  0
 61137  1  0  0  0
 61138  1  0  0  0
 61139  1  0  0  0
 62140  1  0  0  0
 62141  1  0  0  0
 62142  1  0  0  0
 63 65  1  0  0  0
 63143  1  0  0  0
 63144  1  0  0  0
 63145  1  0  0  0
 64146  1  0  0  0
 65147  1  0  0  0
 68 86  1  0  0  0
 71 72  2  0  0  0
 71 73  1  0  0  0
 71148  1  0  0  0
 72 74  1  0  0  0
 72149  1  0  0  0
 73 75  2  0  0  0
 73 77  1  0  0  0
 74 76  2  0  0  0
 74 78  1  0  0  0
 75 76  1  0  0  0
 75 79  1  0  0  0
 76 88  1  0  0  0
 77150  1  0  0  0
 77151  1  0  0  0
 77152  1  0  0  0
 78 80  1  0  0  0
 78153  1  0  0  0
 78154  1  0  0  0
 79 81  1  0  0  0
 79155  1  0  0  0
 79156  1  0  0  0
 80 83  1  0  0  0
 80157  1  0  0  0
 80158  1  0  0  0
 81 82  1  0  0  0
 81159  1  0  0  0
 81160  1  0  0  0
 82 84  1  0  0  0
 82161  1  0  0  0
 82162  1  0  0  0
 83 85  1  0  0  0
 83163  1  0  0  0
 83164  1  0  0  0
 84 86  1  0  0  0
 84165  1  0  0  0
 84166  1  0  0  0
 85 87  1  0  0  0
 85167  1  0  0  0
 85168  1  0  0  0
 86169  1  0  0  0
 86170  1  0  0  0
 87171  1  0  0  0
M  ISO  4   1 100  68 101  86 101  87 100
M  END
> <chiral flag>
0

> <version>
0

> <s_m_source_file>
/data/baiqing/PycharmProjects/Reinvent-master-3.2/result/LINK_invent/BTK/process_docking_weight1_custom_sum_contain_oxygen_bond_distance_aromatic_linkinvent_7_9_3/rearranged_h_0027.sdf

> <i_m_source_file_index>
8

> <r_mmod_Potential_Energy-OPLS-2005>
-29.9816112518311

> <r_mmod_Stretch_Energy-OPLS-2005>
33.2929306030273

> <r_mmod_Bend_Energy-OPLS-2005>
98.4296722412109

> <r_mmod_Torsional_Energy-OPLS-2005>
221.256881713867

> <r_mmod_Improper_Torsional_Energy-OPLS-2005>
2.66448569297791

> <r_mmod_Van_der_Waal_Energy-OPLS-2005>
162.086761474609

> <r_mmod_Electrostatic_Energy-OPLS-2005>
-361.188385009766

> <r_mmod_Solvation_Energy-OPLS-2005>
-195.581146240234

> <b_mmod_Minimization_Converged-OPLS-2005>
0

> <r_mmod_RMS_Derivative-OPLS-2005>
3.68307185173035

$$$$
8
                    3D
 Structure written by MMmdl.
169178  0  0  1  0            999 V2000
  -30.6947  -14.5240   20.5419 C   0  0  0  0  0  0
  -30.4260  -12.3276   19.4387 C   0  0  0  0  0  0
  -29.4977  -12.4958   18.2174 C   0  0  0  0  0  0
  -28.0205  -12.3515   18.6310 C   0  0  0  0  0  0
  -27.6588  -13.2117   19.8702 C   0  0  2  0  0  0
  -28.7029  -13.0282   20.9961 C   0  0  0  0  0  0
  -25.2523  -13.8119   20.5592 C   0  0  0  0  0  0
  -24.1824  -13.0401   20.9198 C   0  0  0  0  0  0
  -24.6409  -11.6882   20.8769 C   0  0  0  0  0  0
  -23.9075  -10.4273   21.0429 C   0  0  0  0  0  0
  -24.3624   -9.4182   21.9200 C   0  0  0  0  0  0
  -23.6296   -8.2220   22.0762 C   0  0  0  0  0  0
  -22.4276   -8.0271   21.3546 C   0  0  0  0  0  0
  -21.9921   -9.0245   20.4645 C   0  0  0  0  0  0
  -22.7254  -10.2124   20.3058 C   0  0  0  0  0  0
  -21.6843   -6.0735   22.5278 C   0  0  0  0  0  0
  -21.4009   -6.5640   23.8214 C   0  0  0  0  0  0
  -21.3658   -5.6793   24.9180 C   0  0  0  0  0  0
  -21.6042   -4.3052   24.7230 C   0  0  0  0  0  0
  -21.8817   -3.8147   23.4348 C   0  0  0  0  0  0
  -21.9190   -4.6962   22.3401 C   0  0  0  0  0  0
  -22.7846  -13.5197   21.1856 C   0  0  0  0  0  0
  -22.1660   -4.2149   21.0976 F   0  0  0  0  0  0
  -21.5629   -3.4528   25.7742 F   0  0  0  0  0  0
  -30.0331  -13.3336   20.4407 N   0  0  0  0  0  0
  -26.3010  -12.9335   20.3347 N   0  0  0  0  0  0
  -25.9342  -11.6493   20.5824 N   0  0  0  0  0  0
  -22.0488  -12.8191   22.0419 N   0  0  0  0  0  0
  -25.4083  -15.1808   20.3751 N   0  0  0  0  0  0
  -31.8383  -14.6687   20.1049 O   0  0  0  0  0  0
  -21.6630   -6.8877   21.4244 O   0  0  0  0  0  0
  -22.3520  -14.5504   20.6708 O   0  0  0  0  0  0
  -24.6163  -31.8663   23.2074 C   0  0  0  0  0  0
  -25.9041  -32.4812   23.8383 C   0  0  1  0  0  0
  -27.2389  -27.4123   20.1036 C   0  0  0  0  0  0
  -25.5906  -33.8609   24.2318 N   0  0  0  0  0  0
  -23.4072  -30.4880   21.5487 C   0  0  2  0  0  0
  -24.8573  -28.9544   20.1125 C   0  0  0  0  0  0
  -22.7421  -29.4637   22.4975 C   0  0  0  0  0  0
  -18.0278  -28.1348   22.8477 C   0  0  0  0  0  0
  -24.1496  -36.7310   23.2638 C   0  0  0  0  0  0
  -25.9386  -30.8273   21.3651 C   0  0  0  0  0  0
  -26.0195  -29.4612   20.7086 C   0  0  0  0  0  0
  -27.2161  -28.6997   20.6965 C   0  0  0  0  0  0
  -26.0602  -26.9343   19.4900 C   0  0  0  0  0  0
  -24.8733  -27.6913   19.4983 C   0  0  0  0  0  0
  -23.6183  -29.8204   20.1636 C   0  0  0  0  0  0
  -25.4111  -36.3104   24.0339 C   0  0  1  0  0  0
  -20.5869  -28.3647   23.1294 C   0  0  2  0  0  0
  -20.6762  -26.9380   22.5407 C   0  0  0  0  0  0
  -19.5749  -26.6371   21.5191 C   0  0  0  0  0  0
  -18.1929  -26.7902   22.1605 C   0  0  0  0  0  0
  -19.1528  -28.8811   23.2884 C   0  0  0  0  0  0
  -18.9461  -30.1420   23.8898 C   0  0  0  0  0  0
  -17.6464  -30.6566   24.0543 C   0  0  0  0  0  0
  -25.9036  -34.9468   23.5126 C   0  0  0  0  0  0
  -16.5354  -29.9064   23.6305 C   0  0  0  0  0  0
  -16.7269  -28.6469   23.0348 C   0  0  0  0  0  0
  -26.4469  -31.6581   25.0700 C   0  0  0  0  0  0
  -25.3746  -31.3671   26.1454 C   0  0  0  0  0  0
  -27.0285  -30.3025   24.6050 C   0  0  0  0  0  0
  -27.6038  -32.4306   25.7484 C   0  0  0  0  0  0
  -27.5593  -37.1802   24.8461 C   0  0  0  0  0  0
  -21.4143  -29.3028   22.3723 N   0  0  0  0  0  0
  -26.4297  -37.3790   23.9412 N   0  0  0  0  0  0
  -24.6717  -31.0748   22.0982 N   0  0  0  0  0  0
  -23.4191  -28.8176   23.3016 O   0  0  0  0  0  0
  -28.3795  -26.6250   20.1325 O   0  0  0  0  0  0
  -26.5591  -34.8925   22.4682 O   0  0  0  0  0  0
  -23.5353  -32.1419   23.7454 O   0  0  0  0  0  0
  -29.1992  -19.2409   21.3206 C   0  0  0  0  0  0
  -31.2469  -17.6243   20.3162 C   0  0  0  0  0  0
  -30.3197  -19.8764   20.7384 C   0  0  0  0  0  0
  -29.1057  -17.8309   21.4265 C   0  0  0  0  0  0
  -31.3471  -19.0376   20.2214 C   0  0  0  0  0  0
  -30.1316  -16.9893   20.9215 C   0  0  0  0  0  0
  -29.5816  -22.0779   19.5521 C   0  0  0  0  0  0
  -30.1093  -22.1307   22.0458 C   0  0  0  0  0  0
  -29.7410  -23.6275   19.5125 C   0  0  0  0  0  0
  -29.1126  -23.3150   21.9527 C   0  0  0  0  0  0
  -30.4035  -21.4289   20.6917 C   0  0  1  0  0  0
  -29.4228  -24.3729   20.8517 C   0  0  1  0  0  0
  -27.8766  -17.2360   22.0880 C   0  0  0  0  0  0
  -32.5772  -19.6245   19.5480 C   0  0  0  0  0  0
  -30.6332  -25.2150   21.3070 C   0  0  0  0  0  0
  -28.1750  -25.3148   20.7169 C   0  0  0  0  0  0
  -29.9643  -15.5556   21.0318 N   0  0  0  0  0  0
  -31.4700  -12.4222   19.1361 H   0  0  0  0  0  0
  -30.3307  -11.3250   19.8595 H   0  0  0  0  0  0
  -29.7444  -11.7563   17.4539 H   0  0  0  0  0  0
  -29.6600  -13.4729   17.7615 H   0  0  0  0  0  0
  -27.8412  -11.2984   18.8499 H   0  0  0  0  0  0
  -27.3682  -12.6027   17.7937 H   0  0  0  0  0  0
  -27.6919  -14.2540   19.5508 H   0  0  0  0  0  0
  -28.6870  -12.0014   21.3646 H   0  0  0  0  0  0
  -28.4606  -13.6507   21.8582 H   0  0  0  0  0  0
  -25.2763   -9.5642   22.4784 H   0  0  0  0  0  0
  -23.9988   -7.4602   22.7479 H   0  0  0  0  0  0
  -21.0852   -8.8763   19.8945 H   0  0  0  0  0  0
  -22.3717  -10.9666   19.6165 H   0  0  0  0  0  0
  -21.1998   -7.6146   23.9718 H   0  0  0  0  0  0
  -21.1488   -6.0522   25.9084 H   0  0  0  0  0  0
  -22.0601   -2.7603   23.2845 H   0  0  0  0  0  0
  -22.4108  -11.9845   22.4791 H   0  0  0  0  0  0
  -21.1108  -13.1218   22.2640 H   0  0  0  0  0  0
  -24.6184  -15.8144   20.4323 H   0  0  0  0  0  0
  -26.2246  -15.6021   19.9515 H   0  0  0  0  0  0
  -26.7099  -32.5526   23.1142 H   0  0  0  0  0  0
  -25.0086  -33.9759   25.0484 H   0  0  0  0  0  0
  -22.6966  -31.3036   21.4080 H   0  0  0  0  0  0
  -23.3772  -35.9630   23.3285 H   0  0  0  0  0  0
  -24.3603  -36.8917   22.2056 H   0  0  0  0  0  0
  -23.7237  -37.6501   23.6658 H   0  0  0  0  0  0
  -26.0545  -31.5966   20.6006 H   0  0  0  0  0  0
  -26.8234  -30.8771   21.9870 H   0  0  0  0  0  0
  -28.1130  -29.0824   21.1638 H   0  0  0  0  0  0
  -26.0505  -25.9737   18.9973 H   0  0  0  0  0  0
  -23.9838  -27.2942   19.0291 H   0  0  0  0  0  0
  -23.7286  -30.5963   19.4049 H   0  0  0  0  0  0
  -22.7415  -29.2399   19.8693 H   0  0  0  0  0  0
  -25.1292  -36.1971   25.0833 H   0  0  0  0  0  0
  -20.9973  -28.3232   24.1408 H   0  0  0  0  0  0
  -20.5671  -26.2259   23.3596 H   0  0  0  0  0  0
  -21.6633  -26.7417   22.1207 H   0  0  0  0  0  0
  -19.6914  -25.6290   21.1207 H   0  0  0  0  0  0
  -19.6687  -27.3186   20.6725 H   0  0  0  0  0  0
  -17.4200  -26.6640   21.4015 H   0  0  0  0  0  0
  -18.0320  -26.0038   22.8993 H   0  0  0  0  0  0
  -19.7946  -30.7200   24.2317 H   0  0  0  0  0  0
  -17.5032  -31.6266   24.5120 H   0  0  0  0  0  0
  -15.5358  -30.2970   23.7632 H   0  0  0  0  0  0
  -15.8664  -28.0789   22.7075 H   0  0  0  0  0  0
  -24.5949  -30.6974   25.7818 H   0  0  0  0  0  0
  -24.8922  -32.2812   26.4917 H   0  0  0  0  0  0
  -25.8132  -30.8869   27.0209 H   0  0  0  0  0  0
  -26.2806  -29.6803   24.1125 H   0  0  0  0  0  0
  -27.4066  -29.7237   25.4482 H   0  0  0  0  0  0
  -27.8647  -30.4330   23.9178 H   0  0  0  0  0  0
  -27.2636  -33.3605   26.2065 H   0  0  0  0  0  0
  -28.3871  -32.6855   25.0330 H   0  0  0  0  0  0
  -28.0678  -31.8420   26.5402 H   0  0  0  0  0  0
  -28.2582  -38.0132   24.7556 H   0  0  0  0  0  0
  -28.1113  -36.2653   24.6242 H   0  0  0  0  0  0
  -27.2311  -37.1420   25.8864 H   0  0  0  0  0  0
  -20.9306  -29.8775   21.6957 H   0  0  0  0  0  0
  -26.0185  -38.2862   24.1431 H   0  0  0  0  0  0
  -28.3951  -19.8514   21.7071 H   0  0  0  0  0  0
  -32.0534  -17.0374   19.9050 H   0  0  0  0  0  0
  -29.8997  -21.6611   18.5956 H   0  0  0  0  0  0
  -28.5287  -21.8128   19.6543 H   0  0  0  0  0  0
  -29.7266  -21.4214   22.7787 H   0  0  0  0  0  0
  -31.0492  -22.4764   22.4774 H   0  0  0  0  0  0
  -29.1216  -24.0239   18.7064 H   0  0  0  0  0  0
  -30.7632  -23.8503   19.2019 H   0  0  0  0  0  0
  -29.0521  -23.8024   22.9269 H   0  0  0  0  0  0
  -28.1167  -22.9042   21.7761 H   0  0  0  0  0  0
  -31.4398  -21.6886   20.4776 H   0  0  0  0  0  0
  -27.2488  -18.0032   22.5404 H   0  0  0  0  0  0
  -28.1526  -16.5290   22.8710 H   0  0  0  0  0  0
  -27.2765  -16.7184   21.3453 H   0  0  0  0  0  0
  -33.2096  -18.8487   19.1171 H   0  0  0  0  0  0
  -33.1815  -20.1801   20.2665 H   0  0  0  0  0  0
  -32.2892  -20.2992   18.7411 H   0  0  0  0  0  0
  -31.5225  -24.6016   21.4502 H   0  0  0  0  0  0
  -30.4304  -25.7260   22.2504 H   0  0  0  0  0  0
  -30.8869  -25.9806   20.5725 H   0  0  0  0  0  0
  -27.7676  -25.4873   21.7151 H   0  0  0  0  0  0
  -27.4034  -24.7629   20.1799 H   0  0  0  0  0  0
  -29.0768  -15.2646   21.4093 H   0  0  0  0  0  0
  1 25  1  0  0  0
  1 30  2  0  0  0
  1 87  1  0  0  0
  2  3  1  0  0  0
  2 25  1  0  0  0
  2 88  1  0  0  0
  2 89  1  0  0  0
  3  4  1  0  0  0
  3 90  1  0  0  0
  3 91  1  0  0  0
  4  5  1  0  0  0
  4 92  1  0  0  0
  4 93  1  0  0  0
  5  6  1  0  0  0
  5 26  1  0  0  0
  5 94  1  0  0  0
  6 25  1  0  0  0
  6 95  1  0  0  0
  6 96  1  0  0  0
  7  8  2  0  0  0
  7 26  1  0  0  0
  7 29  1  0  0  0
  8  9  1  0  0  0
  8 22  1  0  0  0
  9 10  1  0  0  0
  9 27  2  0  0  0
 10 11  2  0  0  0
 10 15  1  0  0  0
 11 12  1  0  0  0
 11 97  1  0  0  0
 12 13  2  0  0  0
 12 98  1  0  0  0
 13 14  1  0  0  0
 13 31  1  0  0  0
 14 15  2  0  0  0
 14 99  1  0  0  0
 15100  1  0  0  0
 16 17  2  0  0  0
 16 21  1  0  0  0
 16 31  1  0  0  0
 17 18  1  0  0  0
 17101  1  0  0  0
 18 19  2  0  0  0
 18102  1  0  0  0
 19 20  1  0  0  0
 19 24  1  0  0  0
 20 21  2  0  0  0
 20103  1  0  0  0
 21 23  1  0  0  0
 22 28  1  0  0  0
 22 32  2  0  0  0
 26 27  1  0  0  0
 28104  1  0  0  0
 28105  1  0  0  0
 29106  1  0  0  0
 29107  1  0  0  0
 33 34  1  0  0  0
 33 66  1  0  0  0
 33 70  2  0  0  0
 34 36  1  0  0  0
 34 59  1  0  0  0
 34108  1  0  0  0
 35 44  2  0  0  0
 35 45  1  0  0  0
 35 68  1  0  0  0
 36 56  1  0  0  0
 36109  1  0  0  0
 37 39  1  0  0  0
 37 47  1  0  0  0
 37 66  1  0  0  0
 37110  1  0  0  0
 38 43  2  0  0  0
 38 46  1  0  0  0
 38 47  1  0  0  0
 39 64  1  0  0  0
 39 67  2  0  0  0
 40 52  1  0  0  0
 40 53  2  0  0  0
 40 58  1  0  0  0
 41111  1  0  0  0
 41112  1  0  0  0
 41113  1  0  0  0
 41 48  1  0  0  0
 42 43  1  0  0  0
 42 66  1  0  0  0
 42114  1  0  0  0
 42115  1  0  0  0
 43 44  1  0  0  0
 44116  1  0  0  0
 45 46  2  0  0  0
 45117  1  0  0  0
 46118  1  0  0  0
 47119  1  0  0  0
 47120  1  0  0  0
 48 56  1  0  0  0
 48 65  1  0  0  0
 48121  1  0  0  0
 49 50  1  0  0  0
 49 53  1  0  0  0
 49 64  1  0  0  0
 49122  1  0  0  0
 50 51  1  0  0  0
 50123  1  0  0  0
 50124  1  0  0  0
 51 52  1  0  0  0
 51125  1  0  0  0
 51126  1  0  0  0
 52127  1  0  0  0
 52128  1  0  0  0
 53 54  1  0  0  0
 54 55  2  0  0  0
 54129  1  0  0  0
 55 57  1  0  0  0
 55130  1  0  0  0
 56 69  2  0  0  0
 57 58  2  0  0  0
 57131  1  0  0  0
 58132  1  0  0  0
 59 60  1  0  0  0
 59 61  1  0  0  0
 59 62  1  0  0  0
 60133  1  0  0  0
 60134  1  0  0  0
 60135  1  0  0  0
 61136  1  0  0  0
 61137  1  0  0  0
 61138  1  0  0  0
 62139  1  0  0  0
 62140  1  0  0  0
 62141  1  0  0  0
 63 65  1  0  0  0
 63142  1  0  0  0
 63143  1  0  0  0
 63144  1  0  0  0
 64145  1  0  0  0
 65146  1  0  0  0
 68 86  1  0  0  0
 71 73  2  0  0  0
 71 74  1  0  0  0
 71147  1  0  0  0
 72 75  2  0  0  0
 72 76  1  0  0  0
 72148  1  0  0  0
 73 75  1  0  0  0
 73 81  1  0  0  0
 74 76  2  0  0  0
 74 83  1  0  0  0
 75 84  1  0  0  0
 76 87  1  0  0  0
 77 79  1  0  0  0
 77 81  1  0  0  0
 77149  1  0  0  0
 77150  1  0  0  0
 78 80  1  0  0  0
 78 81  1  0  0  0
 78151  1  0  0  0
 78152  1  0  0  0
 79 82  1  0  0  0
 79153  1  0  0  0
 79154  1  0  0  0
 80 82  1  0  0  0
 80155  1  0  0  0
 80156  1  0  0  0
 81157  1  0  0  0
 82 85  1  0  0  0
 82 86  1  0  0  0
 83158  1  0  0  0
 83159  1  0  0  0
 83160  1  0  0  0
 84161  1  0  0  0
 84162  1  0  0  0
 84163  1  0  0  0
 85164  1  0  0  0
 85165  1  0  0  0
 85166  1  0  0  0
 86167  1  0  0  0
 86168  1  0  0  0
 87169  1  0  0  0
M  ISO  4   1 100  68 101  86 101  87 100
M  END
> <chiral flag>
0

> <version>
0

> <s_m_source_file>
/data/baiqing/PycharmProjects/Reinvent-master-3.2/result/LINK_invent/BTK/process_docking_weight1_custom_sum_contain_oxygen_bond_distance_aromatic_linkinvent_7_9_3/rearranged_h_0027.sdf

> <i_m_source_file_index>
9

> <r_mmod_Potential_Energy-OPLS-2005>
45.3415145874023

> <r_mmod_Stretch_Energy-OPLS-2005>
51.4654159545898

> <r_mmod_Bend_Energy-OPLS-2005>
116.093154907227

> <r_mmod_Torsional_Energy-OPLS-2005>
283.850738525391

> <r_mmod_Improper_Torsional_Energy-OPLS-2005>
3.92707014083862

> <r_mmod_Van_der_Waal_Energy-OPLS-2005>
166.796371459961

> <r_mmod_Electrostatic_Energy-OPLS-2005>
-407.471038818359

> <r_mmod_Solvation_Energy-OPLS-2005>
-188.822128295898

> <b_mmod_Minimization_Converged-OPLS-2005>
0

> <r_mmod_RMS_Derivative-OPLS-2005>
2.31062078475952

$$$$
9
                    3D
 Structure written by MMmdl.
171179  0  0  1  0            999 V2000
  -30.7551  -14.3508   20.6769 C   0  0  0  0  0  0
  -30.4180  -12.2757   19.3883 C   0  0  0  0  0  0
  -29.4830  -12.5222   18.1886 C   0  0  0  0  0  0
  -28.0059  -12.3820   18.6047 C   0  0  0  0  0  0
  -27.6678  -13.1962   19.8813 C   0  0  2  0  0  0
  -28.7052  -12.9161   20.9910 C   0  0  0  0  0  0
  -25.2616  -13.8144   20.5672 C   0  0  0  0  0  0
  -24.1853  -13.0436   20.9161 C   0  0  0  0  0  0
  -24.6384  -11.6898   20.8719 C   0  0  0  0  0  0
  -23.9051  -10.4289   21.0399 C   0  0  0  0  0  0
  -24.3603   -9.4208   21.9177 C   0  0  0  0  0  0
  -23.6288   -8.2241   22.0750 C   0  0  0  0  0  0
  -22.4268   -8.0280   21.3542 C   0  0  0  0  0  0
  -21.9900   -9.0249   20.4645 C   0  0  0  0  0  0
  -22.7221  -10.2132   20.3052 C   0  0  0  0  0  0
  -21.6854   -6.0735   22.5278 C   0  0  0  0  0  0
  -21.4013   -6.5635   23.8210 C   0  0  0  0  0  0
  -21.3659   -5.6791   24.9175 C   0  0  0  0  0  0
  -21.6043   -4.3053   24.7227 C   0  0  0  0  0  0
  -21.8820   -3.8146   23.4348 C   0  0  0  0  0  0
  -21.9190   -4.6962   22.3403 C   0  0  0  0  0  0
  -22.7875  -13.5245   21.1837 C   0  0  0  0  0  0
  -22.1661   -4.2148   21.0984 F   0  0  0  0  0  0
  -21.5628   -3.4535   25.7741 F   0  0  0  0  0  0
  -30.0491  -13.2133   20.4579 N   0  0  0  0  0  0
  -26.3049  -12.9297   20.3377 N   0  0  0  0  0  0
  -25.9309  -11.6466   20.5745 N   0  0  0  0  0  0
  -22.0516  -12.8233   22.0390 N   0  0  0  0  0  0
  -25.4363  -15.1857   20.4098 N   0  0  0  0  0  0
  -31.7966  -14.6372   20.0780 O   0  0  0  0  0  0
  -21.6633   -6.8875   21.4239 O   0  0  0  0  0  0
  -22.3566  -14.5561   20.6703 O   0  0  0  0  0  0
  -24.6092  -31.8704   23.2119 C   0  0  0  0  0  0
  -25.9006  -32.4839   23.8402 C   0  0  1  0  0  0
  -27.2652  -27.4900   20.0807 C   0  0  0  0  0  0
  -25.5889  -33.8642   24.2339 N   0  0  0  0  0  0
  -23.3954  -30.4920   21.5500 C   0  0  2  0  0  0
  -24.8488  -28.9591   20.1173 C   0  0  0  0  0  0
  -22.7373  -29.4670   22.4998 C   0  0  0  0  0  0
  -18.0268  -28.1360   22.8479 C   0  0  0  0  0  0
  -24.1485  -36.7318   23.2624 C   0  0  0  0  0  0
  -25.9168  -30.8527   21.3575 C   0  0  0  0  0  0
  -26.0015  -29.4905   20.7069 C   0  0  0  0  0  0
  -27.2103  -28.7653   20.6918 C   0  0  0  0  0  0
  -26.0907  -26.9567   19.5113 C   0  0  0  0  0  0
  -24.8841  -27.6851   19.5220 C   0  0  0  0  0  0
  -23.6048  -29.8177   20.1658 C   0  0  0  0  0  0
  -25.4105  -36.3132   24.0341 C   0  0  1  0  0  0
  -20.5852  -28.3653   23.1327 C   0  0  2  0  0  0
  -20.6771  -26.9392   22.5423 C   0  0  0  0  0  0
  -19.5760  -26.6373   21.5202 C   0  0  0  0  0  0
  -18.1928  -26.7910   22.1600 C   0  0  0  0  0  0
  -19.1515  -28.8817   23.2905 C   0  0  0  0  0  0
  -18.9453  -30.1419   23.8917 C   0  0  0  0  0  0
  -17.6460  -30.6581   24.0560 C   0  0  0  0  0  0
  -25.9036  -34.9497   23.5139 C   0  0  0  0  0  0
  -16.5352  -29.9092   23.6304 C   0  0  0  0  0  0
  -16.7257  -28.6505   23.0327 C   0  0  0  0  0  0
  -26.4450  -31.6606   25.0713 C   0  0  0  0  0  0
  -25.3728  -31.3743   26.1472 C   0  0  0  0  0  0
  -27.0238  -30.3040   24.6052 C   0  0  0  0  0  0
  -27.6048  -32.4301   25.7467 C   0  0  0  0  0  0
  -27.5610  -37.1794   24.8440 C   0  0  0  0  0  0
  -21.4109  -29.3033   22.3740 N   0  0  0  0  0  0
  -26.4284  -37.3824   23.9435 N   0  0  0  0  0  0
  -24.6579  -31.0842   22.0998 N   0  0  0  0  0  0
  -23.4167  -28.8205   23.3023 O   0  0  0  0  0  0
  -28.4062  -26.7217   19.9962 O   0  0  0  0  0  0
  -26.5596  -34.8945   22.4694 O   0  0  0  0  0  0
  -23.5303  -32.1442   23.7552 O   0  0  0  0  0  0
  -29.2548  -24.1550   17.9105 C   0  0  0  0  0  0
  -31.5212  -23.4622   18.4581 C   0  0  0  0  0  0
  -30.5681  -24.4873   18.2976 C   0  0  0  0  0  0
  -29.8459  -21.7759   17.8578 C   0  0  0  0  0  0
  -28.8912  -22.8114   17.6909 C   0  0  0  0  0  0
  -31.1676  -22.1156   18.2422 C   0  0  0  0  0  0
  -27.4460  -17.8685   18.1852 C   0  0  0  0  0  0
  -30.9503  -25.9359   18.5524 C   0  0  0  0  0  0
  -29.4592  -20.3146   17.6316 C   0  0  0  0  0  0
  -30.7988  -26.3438   20.0318 C   0  0  0  0  0  0
  -30.4128  -17.5111   20.7131 C   0  0  0  0  0  0
  -28.9597  -17.5333   20.1894 C   0  0  0  0  0  0
  -30.6550  -16.5363   21.8853 C   0  0  0  0  0  0
  -29.6552  -27.3360   20.2949 C   0  0  0  0  0  0
  -28.8168  -18.1984   18.8034 C   0  0  2  0  0  0
  -30.2147  -15.1777   21.5796 N   0  0  0  0  0  0
  -29.0429  -19.6603   18.8941 N   0  3  0  0  0  0
  -27.2581  -22.4674   17.2379 Cl  0  0  0  0  0  0
  -32.3737  -20.8987   18.4821 Cl  0  0  0  0  0  0
  -31.4607  -12.3788   19.0834 H   0  0  0  0  0  0
  -30.3152  -11.2500   19.7459 H   0  0  0  0  0  0
  -29.7110  -11.8220   17.3836 H   0  0  0  0  0  0
  -29.6569  -13.5204   17.7843 H   0  0  0  0  0  0
  -27.8066  -11.3233   18.7763 H   0  0  0  0  0  0
  -27.3538  -12.6837   17.7838 H   0  0  0  0  0  0
  -27.7316  -14.2515   19.6178 H   0  0  0  0  0  0
  -28.6657  -11.8646   21.2794 H   0  0  0  0  0  0
  -28.4547  -13.4659   21.8985 H   0  0  0  0  0  0
  -25.2751   -9.5685   22.4745 H   0  0  0  0  0  0
  -23.9999   -7.4635   22.7462 H   0  0  0  0  0  0
  -21.0830   -8.8767   19.8952 H   0  0  0  0  0  0
  -22.3680  -10.9668   19.6160 H   0  0  0  0  0  0
  -21.2008   -7.6140   23.9717 H   0  0  0  0  0  0
  -21.1476   -6.0517   25.9077 H   0  0  0  0  0  0
  -22.0600   -2.7609   23.2850 H   0  0  0  0  0  0
  -22.4118  -11.9882   22.4768 H   0  0  0  0  0  0
  -21.1142  -13.1268   22.2613 H   0  0  0  0  0  0
  -24.6734  -15.8436   20.5266 H   0  0  0  0  0  0
  -26.2970  -15.6234   20.1100 H   0  0  0  0  0  0
  -26.7084  -32.5586   23.1188 H   0  0  0  0  0  0
  -25.0071  -33.9812   25.0502 H   0  0  0  0  0  0
  -22.6818  -31.3068   21.4085 H   0  0  0  0  0  0
  -23.3794  -35.9602   23.3225 H   0  0  0  0  0  0
  -24.3616  -36.8999   22.2055 H   0  0  0  0  0  0
  -23.7175  -37.6477   23.6675 H   0  0  0  0  0  0
  -26.0229  -31.6236   20.5931 H   0  0  0  0  0  0
  -26.8058  -30.9086   21.9734 H   0  0  0  0  0  0
  -28.0849  -29.2051   21.1481 H   0  0  0  0  0  0
  -26.1181  -25.9800   19.0492 H   0  0  0  0  0  0
  -23.9968  -27.2617   19.0715 H   0  0  0  0  0  0
  -23.7092  -30.5913   19.4039 H   0  0  0  0  0  0
  -22.7317  -29.2330   19.8714 H   0  0  0  0  0  0
  -25.1269  -36.1995   25.0834 H   0  0  0  0  0  0
  -20.9938  -28.3222   24.1448 H   0  0  0  0  0  0
  -20.5663  -26.2257   23.3612 H   0  0  0  0  0  0
  -21.6659  -26.7434   22.1237 H   0  0  0  0  0  0
  -19.6947  -25.6281   21.1241 H   0  0  0  0  0  0
  -19.6727  -27.3176   20.6729 H   0  0  0  0  0  0
  -17.4208  -26.6639   21.3991 H   0  0  0  0  0  0
  -18.0329  -26.0044   22.8986 H   0  0  0  0  0  0
  -19.7936  -30.7207   24.2326 H   0  0  0  0  0  0
  -17.5032  -31.6265   24.5157 H   0  0  0  0  0  0
  -15.5367  -30.3018   23.7617 H   0  0  0  0  0  0
  -15.8646  -28.0852   22.7018 H   0  0  0  0  0  0
  -24.5876  -30.7106   25.7831 H   0  0  0  0  0  0
  -24.8945  -32.2919   26.4906 H   0  0  0  0  0  0
  -25.8081  -30.8922   27.0232 H   0  0  0  0  0  0
  -26.2748  -29.6848   24.1092 H   0  0  0  0  0  0
  -27.3985  -29.7228   25.4488 H   0  0  0  0  0  0
  -27.8606  -30.4337   23.9184 H   0  0  0  0  0  0
  -27.2695  -33.3617   26.2030 H   0  0  0  0  0  0
  -28.3870  -32.6830   25.0301 H   0  0  0  0  0  0
  -28.0680  -31.8413   26.5389 H   0  0  0  0  0  0
  -28.2551  -38.0165   24.7641 H   0  0  0  0  0  0
  -28.1185  -36.2724   24.6067 H   0  0  0  0  0  0
  -27.2359  -37.1201   25.8837 H   0  0  0  0  0  0
  -20.9253  -29.8757   21.6977 H   0  0  0  0  0  0
  -26.0179  -38.2886   24.1536 H   0  0  0  0  0  0
  -28.5144  -24.9336   17.7894 H   0  0  0  0  0  0
  -32.5314  -23.7041   18.7570 H   0  0  0  0  0  0
  -27.3262  -16.7899   18.0749 H   0  0  0  0  0  0
  -27.3312  -18.2992   17.1913 H   0  0  0  0  0  0
  -26.6244  -18.2253   18.8065 H   0  0  0  0  0  0
  -30.3590  -26.5889   17.9086 H   0  0  0  0  0  0
  -31.9869  -26.0805   18.2402 H   0  0  0  0  0  0
  -30.3022  -19.7796   17.1933 H   0  0  0  0  0  0
  -28.6679  -20.2377   16.8868 H   0  0  0  0  0  0
  -31.7268  -26.8233   20.3463 H   0  0  0  0  0  0
  -30.6966  -25.4680   20.6743 H   0  0  0  0  0  0
  -30.7123  -18.5132   21.0221 H   0  0  0  0  0  0
  -31.0872  -17.2451   19.8987 H   0  0  0  0  0  0
  -28.3038  -18.0066   20.9217 H   0  0  0  0  0  0
  -28.5969  -16.5102   20.0974 H   0  0  0  0  0  0
  -30.1201  -16.8776   22.7724 H   0  0  0  0  0  0
  -31.7139  -16.5241   22.1508 H   0  0  0  0  0  0
  -29.7982  -28.2315   19.6895 H   0  0  0  0  0  0
  -29.6818  -27.6353   21.3437 H   0  0  0  0  0  0
  -29.5804  -17.7682   18.1519 H   0  0  0  0  0  0
  -29.3812  -14.8470   22.0442 H   0  0  0  0  0  0
  -28.2165  -20.1098   19.2558 H   0  0  0  0  0  0
  -29.7850  -19.8112   19.5576 H   0  0  0  0  0  0
  1 25  1  0  0  0
  1 30  2  0  0  0
  1 86  1  0  0  0
  2  3  1  0  0  0
  2 25  1  0  0  0
  2 90  1  0  0  0
  2 91  1  0  0  0
  3  4  1  0  0  0
  3 92  1  0  0  0
  3 93  1  0  0  0
  4  5  1  0  0  0
  4 94  1  0  0  0
  4 95  1  0  0  0
  5  6  1  0  0  0
  5 26  1  0  0  0
  5 96  1  0  0  0
  6 25  1  0  0  0
  6 97  1  0  0  0
  6 98  1  0  0  0
  7  8  2  0  0  0
  7 26  1  0  0  0
  7 29  1  0  0  0
  8  9  1  0  0  0
  8 22  1  0  0  0
  9 10  1  0  0  0
  9 27  2  0  0  0
 10 11  2  0  0  0
 10 15  1  0  0  0
 11 12  1  0  0  0
 11 99  1  0  0  0
 12 13  2  0  0  0
 12100  1  0  0  0
 13 14  1  0  0  0
 13 31  1  0  0  0
 14 15  2  0  0  0
 14101  1  0  0  0
 15102  1  0  0  0
 16 17  2  0  0  0
 16 21  1  0  0  0
 16 31  1  0  0  0
 17 18  1  0  0  0
 17103  1  0  0  0
 18 19  2  0  0  0
 18104  1  0  0  0
 19 20  1  0  0  0
 19 24  1  0  0  0
 20 21  2  0  0  0
 20105  1  0  0  0
 21 23  1  0  0  0
 22 28  1  0  0  0
 22 32  2  0  0  0
 26 27  1  0  0  0
 28106  1  0  0  0
 28107  1  0  0  0
 29108  1  0  0  0
 29109  1  0  0  0
 33 34  1  0  0  0
 33 66  1  0  0  0
 33 70  2  0  0  0
 34 36  1  0  0  0
 34 59  1  0  0  0
 34110  1  0  0  0
 35 44  2  0  0  0
 35 45  1  0  0  0
 35 68  1  0  0  0
 36 56  1  0  0  0
 36111  1  0  0  0
 37 39  1  0  0  0
 37 47  1  0  0  0
 37 66  1  0  0  0
 37112  1  0  0  0
 38 43  2  0  0  0
 38 46  1  0  0  0
 38 47  1  0  0  0
 39 64  1  0  0  0
 39 67  2  0  0  0
 40 52  1  0  0  0
 40 53  2  0  0  0
 40 58  1  0  0  0
 41113  1  0  0  0
 41114  1  0  0  0
 41115  1  0  0  0
 41 48  1  0  0  0
 42 43  1  0  0  0
 42 66  1  0  0  0
 42116  1  0  0  0
 42117  1  0  0  0
 43 44  1  0  0  0
 44118  1  0  0  0
 45 46  2  0  0  0
 45119  1  0  0  0
 46120  1  0  0  0
 47121  1  0  0  0
 47122  1  0  0  0
 48 56  1  0  0  0
 48 65  1  0  0  0
 48123  1  0  0  0
 49 50  1  0  0  0
 49 53  1  0  0  0
 49 64  1  0  0  0
 49124  1  0  0  0
 50 51  1  0  0  0
 50125  1  0  0  0
 50126  1  0  0  0
 51 52  1  0  0  0
 51127  1  0  0  0
 51128  1  0  0  0
 52129  1  0  0  0
 52130  1  0  0  0
 53 54  1  0  0  0
 54 55  2  0  0  0
 54131  1  0  0  0
 55 57  1  0  0  0
 55132  1  0  0  0
 56 69  2  0  0  0
 57 58  2  0  0  0
 57133  1  0  0  0
 58134  1  0  0  0
 59 60  1  0  0  0
 59 61  1  0  0  0
 59 62  1  0  0  0
 60135  1  0  0  0
 60136  1  0  0  0
 60137  1  0  0  0
 61138  1  0  0  0
 61139  1  0  0  0
 61140  1  0  0  0
 62141  1  0  0  0
 62142  1  0  0  0
 62143  1  0  0  0
 63 65  1  0  0  0
 63144  1  0  0  0
 63145  1  0  0  0
 63146  1  0  0  0
 64147  1  0  0  0
 65148  1  0  0  0
 68 84  1  0  0  0
 71 73  2  0  0  0
 71 75  1  0  0  0
 71149  1  0  0  0
 72 73  1  0  0  0
 72 76  2  0  0  0
 72150  1  0  0  0
 73 78  1  0  0  0
 74 75  2  0  0  0
 74 76  1  0  0  0
 74 79  1  0  0  0
 75 88  1  0  0  0
 76 89  1  0  0  0
 77151  1  0  0  0
 77152  1  0  0  0
 77153  1  0  0  0
 77 85  1  0  0  0
 78 80  1  0  0  0
 78154  1  0  0  0
 78155  1  0  0  0
 79 87  1  0  0  0
 79156  1  0  0  0
 79157  1  0  0  0
 80 84  1  0  0  0
 80158  1  0  0  0
 80159  1  0  0  0
 81 82  1  0  0  0
 81 83  1  0  0  0
 81160  1  0  0  0
 81161  1  0  0  0
 82 85  1  0  0  0
 82162  1  0  0  0
 82163  1  0  0  0
 83 86  1  0  0  0
 83164  1  0  0  0
 83165  1  0  0  0
 84166  1  0  0  0
 84167  1  0  0  0
 85 87  1  0  0  0
 85168  1  0  0  0
 86169  1  0  0  0
 87170  1  0  0  0
 87171  1  0  0  0
M  CHG  1  87   1
M  ISO  4   1 100  68 101  84 101  86 100
M  END
> <chiral flag>
0

> <version>
0

> <s_m_source_file>
/data/baiqing/PycharmProjects/Reinvent-master-3.2/result/LINK_invent/BTK/process_docking_weight1_custom_sum_contain_oxygen_bond_distance_aromatic_linkinvent_7_9_3/rearranged_h_0027.sdf

> <i_m_source_file_index>
10

> <r_mmod_Potential_Energy-OPLS-2005>
-294.867248535156

> <r_mmod_Stretch_Energy-OPLS-2005>
33.2009735107422

> <r_mmod_Bend_Energy-OPLS-2005>
93.8604431152344

> <r_mmod_Torsional_Energy-OPLS-2005>
207.316024780273

> <r_mmod_Improper_Torsional_Energy-OPLS-2005>
1.86479580402374

> <r_mmod_Van_der_Waal_Energy-OPLS-2005>
144.269683837891

> <r_mmod_Electrostatic_Energy-OPLS-2005>
-338.51513671875

> <r_mmod_Solvation_Energy-OPLS-2005>
-442.856964111328

> <b_mmod_Minimization_Converged-OPLS-2005>
0

> <r_mmod_RMS_Derivative-OPLS-2005>
1.71735906600952

$$$$
10
                    3D
 Structure written by MMmdl.
151159  0  0  1  0            999 V2000
  -30.6233  -14.7170   20.4648 C   0  0  0  0  0  0
  -30.4189  -12.4383   19.4682 C   0  0  0  0  0  0
  -29.5069  -12.5181   18.2265 C   0  0  0  0  0  0
  -28.0296  -12.3464   18.6333 C   0  0  0  0  0  0
  -27.6374  -13.2336   19.8470 C   0  0  2  0  0  0
  -28.6793  -13.1582   20.9831 C   0  0  0  0  0  0
  -25.2485  -13.8178   20.5676 C   0  0  0  0  0  0
  -24.1786  -13.0423   20.9200 C   0  0  0  0  0  0
  -24.6387  -11.6906   20.8735 C   0  0  0  0  0  0
  -23.9063  -10.4290   21.0406 C   0  0  0  0  0  0
  -24.3616   -9.4223   21.9188 C   0  0  0  0  0  0
  -23.6294   -8.2255   22.0756 C   0  0  0  0  0  0
  -22.4286   -8.0277   21.3534 C   0  0  0  0  0  0
  -21.9918   -9.0255   20.4641 C   0  0  0  0  0  0
  -22.7237  -10.2132   20.3058 C   0  0  0  0  0  0
  -21.6846   -6.0740   22.5287 C   0  0  0  0  0  0
  -21.4008   -6.5642   23.8224 C   0  0  0  0  0  0
  -21.3665   -5.6794   24.9175 C   0  0  0  0  0  0
  -21.6057   -4.3056   24.7228 C   0  0  0  0  0  0
  -21.8818   -3.8155   23.4340 C   0  0  0  0  0  0
  -21.9187   -4.6971   22.3399 C   0  0  0  0  0  0
  -22.7816  -13.5210   21.1885 C   0  0  0  0  0  0
  -22.1656   -4.2163   21.0971 F   0  0  0  0  0  0
  -21.5638   -3.4537   25.7736 F   0  0  0  0  0  0
  -29.9822  -13.5015   20.4014 N   0  0  0  0  0  0
  -26.2907  -12.9398   20.3248 N   0  0  0  0  0  0
  -25.9305  -11.6527   20.5703 N   0  0  0  0  0  0
  -22.0465  -12.8221   22.0474 N   0  0  0  0  0  0
  -25.4173  -15.1901   20.4051 N   0  0  0  0  0  0
  -31.8137  -14.7969   20.1527 O   0  0  0  0  0  0
  -21.6634   -6.8883   21.4245 O   0  0  0  0  0  0
  -22.3518  -14.5536   20.6745 O   0  0  0  0  0  0
  -24.6292  -31.8546   23.1992 C   0  0  0  0  0  0
  -25.9104  -32.4769   23.8352 C   0  0  1  0  0  0
  -27.2165  -27.2699   20.1448 C   0  0  0  0  0  0
  -25.5875  -33.8575   24.2251 N   0  0  0  0  0  0
  -23.4266  -30.4751   21.5439 C   0  0  2  0  0  0
  -24.8723  -28.9139   20.1195 C   0  0  0  0  0  0
  -22.7503  -29.4591   22.4951 C   0  0  0  0  0  0
  -18.0292  -28.1389   22.8499 C   0  0  0  0  0  0
  -24.1483  -36.7308   23.2651 C   0  0  0  0  0  0
  -25.9701  -30.7692   21.3766 C   0  0  0  0  0  0
  -26.0427  -29.3900   20.7244 C   0  0  0  0  0  0
  -27.2234  -28.5836   20.7177 C   0  0  0  0  0  0
  -26.0257  -26.8444   19.5264 C   0  0  0  0  0  0
  -24.8676  -27.6484   19.5079 C   0  0  0  0  0  0
  -23.6449  -29.8044   20.1619 C   0  0  0  0  0  0
  -25.4113  -36.3091   24.0332 C   0  0  1  0  0  0
  -20.5898  -28.3690   23.1290 C   0  0  2  0  0  0
  -20.6786  -26.9413   22.5419 C   0  0  0  0  0  0
  -19.5753  -26.6379   21.5231 C   0  0  0  0  0  0
  -18.1935  -26.7935   22.1638 C   0  0  0  0  0  0
  -19.1553  -28.8864   23.2887 C   0  0  0  0  0  0
  -18.9467  -30.1473   23.8890 C   0  0  0  0  0  0
  -17.6464  -30.6595   24.0570 C   0  0  0  0  0  0
  -25.9047  -34.9454   23.5108 C   0  0  0  0  0  0
  -16.5355  -29.9084   23.6335 C   0  0  0  0  0  0
  -16.7279  -28.6504   23.0350 C   0  0  0  0  0  0
  -26.4472  -31.6617   25.0757 C   0  0  0  0  0  0
  -25.3706  -31.3746   26.1492 C   0  0  0  0  0  0
  -27.0347  -30.3041   24.6264 C   0  0  0  0  0  0
  -27.6015  -32.4397   25.7507 C   0  0  0  0  0  0
  -27.5577  -37.1829   24.8471 C   0  0  0  0  0  0
  -21.4217  -29.3022   22.3675 N   0  0  0  0  0  0
  -26.4301  -37.3774   23.9388 N   0  0  0  0  0  0
  -24.6942  -31.0524   22.0960 N   0  0  0  0  0  0
  -23.4200  -28.8133   23.3060 O   0  0  0  0  0  0
  -28.3231  -26.4044   20.1223 O   0  0  0  0  0  0
  -26.5648  -34.8912   22.4696 O   0  0  0  0  0  0
  -23.5443  -32.1365   23.7286 O   0  0  0  0  0  0
  -28.1123  -18.7847   20.5950 C   0  0  0  0  0  0
  -29.5368  -18.6185   20.5946 C   0  0  0  0  0  0
  -27.8225  -20.1354   20.6564 C   0  0  0  0  0  0
  -29.9662  -19.9521   20.6234 C   0  0  0  0  0  0
  -30.4234  -17.2919   20.5856 C   0  0  0  0  0  0
  -28.3692  -23.6272   20.1171 C   0  0  0  0  0  0
  -29.0570  -22.4452   20.9870 C   0  0  0  0  0  0
  -28.2499  -25.0842   20.8241 C   0  0  0  0  0  0
  -28.9507  -20.9421   20.6923 N   0  0  0  0  0  0
  -29.8839  -15.8697   20.6691 N   0  0  0  0  0  0
  -26.2475  -20.8136   20.7729 Cl  0  0  0  0  0  0
  -31.6203  -20.4270   20.6498 Cl  0  0  0  0  0  0
  -31.4653  -12.5371   19.1774 H   0  0  0  0  0  0
  -30.3325  -11.4615   19.9429 H   0  0  0  0  0  0
  -29.7902  -11.7575   17.4990 H   0  0  0  0  0  0
  -29.6387  -13.4806   17.7290 H   0  0  0  0  0  0
  -27.8769  -11.2932   18.8746 H   0  0  0  0  0  0
  -27.3783  -12.5642   17.7852 H   0  0  0  0  0  0
  -27.6332  -14.2596   19.4783 H   0  0  0  0  0  0
  -28.7045  -12.1605   21.4238 H   0  0  0  0  0  0
  -28.4155  -13.8417   21.7900 H   0  0  0  0  0  0
  -25.2759   -9.5712   22.4761 H   0  0  0  0  0  0
  -24.0017   -7.4645   22.7473 H   0  0  0  0  0  0
  -21.0851   -8.8771   19.8939 H   0  0  0  0  0  0
  -22.3691  -10.9678   19.6169 H   0  0  0  0  0  0
  -21.1993   -7.6149   23.9736 H   0  0  0  0  0  0
  -21.1486   -6.0515   25.9094 H   0  0  0  0  0  0
  -22.0581   -2.7616   23.2826 H   0  0  0  0  0  0
  -22.4084  -11.9906   22.4900 H   0  0  0  0  0  0
  -21.1091  -13.1252   22.2690 H   0  0  0  0  0  0
  -24.6428  -15.8390   20.4981 H   0  0  0  0  0  0
  -26.2555  -15.6227   20.0399 H   0  0  0  0  0  0
  -26.7183  -32.5410   23.1108 H   0  0  0  0  0  0
  -24.9956  -33.9710   25.0354 H   0  0  0  0  0  0
  -22.7216  -31.2972   21.3983 H   0  0  0  0  0  0
  -23.3740  -35.9650   23.3347 H   0  0  0  0  0  0
  -24.3568  -36.8906   22.2061 H   0  0  0  0  0  0
  -23.7247  -37.6516   23.6669 H   0  0  0  0  0  0
  -26.1092  -31.5264   20.6042 H   0  0  0  0  0  0
  -26.8466  -30.8214   22.0114 H   0  0  0  0  0  0
  -28.1282  -28.9472   21.1815 H   0  0  0  0  0  0
  -25.9903  -25.8696   19.0614 H   0  0  0  0  0  0
  -23.9700  -27.2779   19.0318 H   0  0  0  0  0  0
  -23.7765  -30.5792   19.4054 H   0  0  0  0  0  0
  -22.7616  -29.2416   19.8556 H   0  0  0  0  0  0
  -25.1313  -36.1965   25.0831 H   0  0  0  0  0  0
  -20.9990  -28.3273   24.1413 H   0  0  0  0  0  0
  -20.5702  -26.2307   23.3620 H   0  0  0  0  0  0
  -21.6652  -26.7449   22.1207 H   0  0  0  0  0  0
  -19.6912  -25.6287   21.1266 H   0  0  0  0  0  0
  -19.6690  -27.3191   20.6760 H   0  0  0  0  0  0
  -17.4207  -26.6698   21.4030 H   0  0  0  0  0  0
  -18.0326  -26.0077   22.9031 H   0  0  0  0  0  0
  -19.7944  -30.7308   24.2236 H   0  0  0  0  0  0
  -17.5008  -31.6263   24.5180 H   0  0  0  0  0  0
  -15.5354  -30.2970   23.7665 H   0  0  0  0  0  0
  -15.8688  -28.0817   22.7048 H   0  0  0  0  0  0
  -24.5860  -30.7121   25.7824 H   0  0  0  0  0  0
  -24.8901  -32.2895   26.4966 H   0  0  0  0  0  0
  -25.8017  -30.8883   27.0252 H   0  0  0  0  0  0
  -26.2919  -29.6735   24.1363 H   0  0  0  0  0  0
  -27.4109  -29.7368   25.4791 H   0  0  0  0  0  0
  -27.8762  -30.4335   23.9458 H   0  0  0  0  0  0
  -27.2610  -33.3695   26.2077 H   0  0  0  0  0  0
  -28.3789  -32.6987   25.0310 H   0  0  0  0  0  0
  -28.0745  -31.8563   26.5414 H   0  0  0  0  0  0
  -28.2643  -38.0078   24.7455 H   0  0  0  0  0  0
  -28.1025  -36.2610   24.6389 H   0  0  0  0  0  0
  -27.2295  -37.1599   25.8876 H   0  0  0  0  0  0
  -20.9413  -29.8713   21.6854 H   0  0  0  0  0  0
  -26.0202  -38.2870   24.1318 H   0  0  0  0  0  0
  -27.3750  -17.9971   20.5868 H   0  0  0  0  0  0
  -31.1252  -17.3963   21.4145 H   0  0  0  0  0  0
  -31.0442  -17.3517   19.6896 H   0  0  0  0  0  0
  -27.3686  -23.3176   19.8200 H   0  0  0  0  0  0
  -28.9233  -23.7323   19.1853 H   0  0  0  0  0  0
  -28.6888  -22.5601   22.0064 H   0  0  0  0  0  0
  -30.1160  -22.6868   21.0591 H   0  0  0  0  0  0
  -29.0804  -25.1343   21.5288 H   0  0  0  0  0  0
  -27.3668  -25.0773   21.4660 H   0  0  0  0  0  0
  -28.9006  -15.7549   20.8614 H   0  0  0  0  0  0
  1 25  1  0  0  0
  1 30  2  0  0  0
  1 80  1  0  0  0
  2  3  1  0  0  0
  2 25  1  0  0  0
  2 83  1  0  0  0
  2 84  1  0  0  0
  3  4  1  0  0  0
  3 85  1  0  0  0
  3 86  1  0  0  0
  4  5  1  0  0  0
  4 87  1  0  0  0
  4 88  1  0  0  0
  5  6  1  0  0  0
  5 26  1  0  0  0
  5 89  1  0  0  0
  6 25  1  0  0  0
  6 90  1  0  0  0
  6 91  1  0  0  0
  7  8  2  0  0  0
  7 26  1  0  0  0
  7 29  1  0  0  0
  8  9  1  0  0  0
  8 22  1  0  0  0
  9 10  1  0  0  0
  9 27  2  0  0  0
 10 11  2  0  0  0
 10 15  1  0  0  0
 11 12  1  0  0  0
 11 92  1  0  0  0
 12 13  2  0  0  0
 12 93  1  0  0  0
 13 14  1  0  0  0
 13 31  1  0  0  0
 14 15  2  0  0  0
 14 94  1  0  0  0
 15 95  1  0  0  0
 16 17  2  0  0  0
 16 21  1  0  0  0
 16 31  1  0  0  0
 17 18  1  0  0  0
 17 96  1  0  0  0
 18 19  2  0  0  0
 18 97  1  0  0  0
 19 20  1  0  0  0
 19 24  1  0  0  0
 20 21  2  0  0  0
 20 98  1  0  0  0
 21 23  1  0  0  0
 22 28  1  0  0  0
 22 32  2  0  0  0
 26 27  1  0  0  0
 28 99  1  0  0  0
 28100  1  0  0  0
 29101  1  0  0  0
 29102  1  0  0  0
 33 34  1  0  0  0
 33 66  1  0  0  0
 33 70  2  0  0  0
 34 36  1  0  0  0
 34 59  1  0  0  0
 34103  1  0  0  0
 35 44  2  0  0  0
 35 45  1  0  0  0
 35 68  1  0  0  0
 36 56  1  0  0  0
 36104  1  0  0  0
 37 39  1  0  0  0
 37 47  1  0  0  0
 37 66  1  0  0  0
 37105  1  0  0  0
 38 43  2  0  0  0
 38 46  1  0  0  0
 38 47  1  0  0  0
 39 64  1  0  0  0
 39 67  2  0  0  0
 40 52  1  0  0  0
 40 53  2  0  0  0
 40 58  1  0  0  0
 41106  1  0  0  0
 41107  1  0  0  0
 41108  1  0  0  0
 41 48  1  0  0  0
 42 43  1  0  0  0
 42 66  1  0  0  0
 42109  1  0  0  0
 42110  1  0  0  0
 43 44  1  0  0  0
 44111  1  0  0  0
 45 46  2  0  0  0
 45112  1  0  0  0
 46113  1  0  0  0
 47114  1  0  0  0
 47115  1  0  0  0
 48 56  1  0  0  0
 48 65  1  0  0  0
 48116  1  0  0  0
 49 50  1  0  0  0
 49 53  1  0  0  0
 49 64  1  0  0  0
 49117  1  0  0  0
 50 51  1  0  0  0
 50118  1  0  0  0
 50119  1  0  0  0
 51 52  1  0  0  0
 51120  1  0  0  0
 51121  1  0  0  0
 52122  1  0  0  0
 52123  1  0  0  0
 53 54  1  0  0  0
 54 55  2  0  0  0
 54124  1  0  0  0
 55 57  1  0  0  0
 55125  1  0  0  0
 56 69  2  0  0  0
 57 58  2  0  0  0
 57126  1  0  0  0
 58127  1  0  0  0
 59 60  1  0  0  0
 59 61  1  0  0  0
 59 62  1  0  0  0
 60128  1  0  0  0
 60129  1  0  0  0
 60130  1  0  0  0
 61131  1  0  0  0
 61132  1  0  0  0
 61133  1  0  0  0
 62134  1  0  0  0
 62135  1  0  0  0
 62136  1  0  0  0
 63 65  1  0  0  0
 63137  1  0  0  0
 63138  1  0  0  0
 63139  1  0  0  0
 64140  1  0  0  0
 65141  1  0  0  0
 68 78  1  0  0  0
 71 72  1  0  0  0
 71 73  2  0  0  0
 71142  1  0  0  0
 72 74  2  0  0  0
 72 75  1  0  0  0
 73 79  1  0  0  0
 73 81  1  0  0  0
 74 79  1  0  0  0
 74 82  1  0  0  0
 75 80  1  0  0  0
 75143  1  0  0  0
 75144  1  0  0  0
 76 77  1  0  0  0
 76 78  1  0  0  0
 76145  1  0  0  0
 76146  1  0  0  0
 77 79  1  0  0  0
 77147  1  0  0  0
 77148  1  0  0  0
 78149  1  0  0  0
 78150  1  0  0  0
 80151  1  0  0  0
M  ISO  4   1 100  68 101  78 101  80 100
M  END
> <chiral flag>
0

> <version>
0

> <s_m_source_file>
/data/baiqing/PycharmProjects/Reinvent-master-3.2/result/LINK_invent/BTK/process_docking_weight1_custom_sum_contain_oxygen_bond_distance_aromatic_linkinvent_7_9_3/rearranged_h_0027.sdf

> <i_m_source_file_index>
11

> <r_mmod_Potential_Energy-OPLS-2005>
121.631622314453

> <r_mmod_Stretch_Energy-OPLS-2005>
110.149604797363

> <r_mmod_Bend_Energy-OPLS-2005>
197.54475402832

> <r_mmod_Torsional_Energy-OPLS-2005>
240.565078735352

> <r_mmod_Improper_Torsional_Energy-OPLS-2005>
6.65605115890503

> <r_mmod_Van_der_Waal_Energy-OPLS-2005>
108.28409576416

> <r_mmod_Electrostatic_Energy-OPLS-2005>
-411.211059570312

> <r_mmod_Solvation_Energy-OPLS-2005>
-204.809661865234

> <b_mmod_Minimization_Converged-OPLS-2005>
0

> <r_mmod_RMS_Derivative-OPLS-2005>
2.80416965484619

$$$$
11
                    3D
 Structure written by MMmdl.
184193  0  0  1  0            999 V2000
  -30.7840  -14.4719   20.7138 C   0  0  0  0  0  0
  -30.4467  -12.3608   19.4676 C   0  0  0  0  0  0
  -29.5345  -12.5484   18.2457 C   0  0  0  0  0  0
  -28.0552  -12.3970   18.6422 C   0  0  0  0  0  0
  -27.6806  -13.2263   19.8983 C   0  0  2  0  0  0
  -28.7150  -13.0325   21.0319 C   0  0  0  0  0  0
  -25.2631  -13.8160   20.5705 C   0  0  0  0  0  0
  -24.1899  -13.0458   20.9196 C   0  0  0  0  0  0
  -24.6478  -11.6918   20.8664 C   0  0  0  0  0  0
  -23.9124  -10.4300   21.0328 C   0  0  0  0  0  0
  -24.3649   -9.4239   21.9146 C   0  0  0  0  0  0
  -23.6322   -8.2290   22.0748 C   0  0  0  0  0  0
  -22.4298   -8.0290   21.3558 C   0  0  0  0  0  0
  -21.9928   -9.0260   20.4652 C   0  0  0  0  0  0
  -22.7260  -10.2154   20.3021 C   0  0  0  0  0  0
  -21.6887   -6.0736   22.5282 C   0  0  0  0  0  0
  -21.4008   -6.5625   23.8216 C   0  0  0  0  0  0
  -21.3678   -5.6777   24.9184 C   0  0  0  0  0  0
  -21.6063   -4.3043   24.7235 C   0  0  0  0  0  0
  -21.8830   -3.8144   23.4359 C   0  0  0  0  0  0
  -21.9209   -4.6960   22.3413 C   0  0  0  0  0  0
  -22.7887  -13.5210   21.1898 C   0  0  0  0  0  0
  -22.1665   -4.2141   21.0995 F   0  0  0  0  0  0
  -21.5657   -3.4518   25.7761 F   0  0  0  0  0  0
  -30.0605  -13.3332   20.5058 N   0  0  0  0  0  0
  -26.3139  -12.9415   20.3428 N   0  0  0  0  0  0
  -25.9432  -11.6538   20.5748 N   0  0  0  0  0  0
  -22.0541  -12.8146   22.0410 N   0  0  0  0  0  0
  -25.4300  -15.1916   20.4176 N   0  0  0  0  0  0
  -31.7916  -14.7351   20.0507 O   0  0  0  0  0  0
  -21.6679   -6.8886   21.4252 O   0  0  0  0  0  0
  -22.3561  -14.5573   20.6851 O   0  0  0  0  0  0
  -24.6095  -31.8661   23.2081 C   0  0  0  0  0  0
  -25.8962  -32.4814   23.8376 C   0  0  1  0  0  0
  -27.2014  -27.3948   20.1038 C   0  0  0  0  0  0
  -25.5882  -33.8630   24.2293 N   0  0  0  0  0  0
  -23.4037  -30.4841   21.5498 C   0  0  2  0  0  0
  -24.8483  -28.9551   20.1107 C   0  0  0  0  0  0
  -22.7414  -29.4566   22.4992 C   0  0  0  0  0  0
  -18.0257  -28.1297   22.8498 C   0  0  0  0  0  0
  -24.1506  -36.7327   23.2649 C   0  0  0  0  0  0
  -25.9391  -30.8117   21.3778 C   0  0  0  0  0  0
  -26.0085  -29.4500   20.7142 C   0  0  0  0  0  0
  -27.1902  -28.6712   20.7124 C   0  0  0  0  0  0
  -26.0195  -26.9214   19.4949 C   0  0  0  0  0  0
  -24.8468  -27.6907   19.5045 C   0  0  0  0  0  0
  -23.6115  -29.8188   20.1638 C   0  0  0  0  0  0
  -25.4131  -36.3138   24.0359 C   0  0  1  0  0  0
  -20.5846  -28.3556   23.1378 C   0  0  2  0  0  0
  -20.6768  -26.9308   22.5445 C   0  0  0  0  0  0
  -19.5752  -26.6314   21.5251 C   0  0  0  0  0  0
  -18.1905  -26.7838   22.1608 C   0  0  0  0  0  0
  -19.1510  -28.8735   23.2917 C   0  0  0  0  0  0
  -18.9443  -30.1365   23.8890 C   0  0  0  0  0  0
  -17.6452  -30.6521   24.0520 C   0  0  0  0  0  0
  -25.9062  -34.9503   23.5148 C   0  0  0  0  0  0
  -16.5348  -29.9014   23.6358 C   0  0  0  0  0  0
  -16.7245  -28.6429   23.0394 C   0  0  0  0  0  0
  -26.4388  -31.6593   25.0713 C   0  0  0  0  0  0
  -25.3704  -31.3729   26.1520 C   0  0  0  0  0  0
  -27.0160  -30.3014   24.6074 C   0  0  0  0  0  0
  -27.5915  -32.4377   25.7457 C   0  0  0  0  0  0
  -27.5613  -37.1816   24.8465 C   0  0  0  0  0  0
  -21.4138  -29.2941   22.3807 N   0  0  0  0  0  0
  -26.4342  -37.3799   23.9402 N   0  0  0  0  0  0
  -24.6675  -31.0721   22.1004 N   0  0  0  0  0  0
  -23.4218  -28.8125   23.3035 O   0  0  0  0  0  0
  -28.3531  -26.6325   20.1393 O   0  0  0  0  0  0
  -26.5645  -34.8943   22.4704 O   0  0  0  0  0  0
  -23.5279  -32.1449   23.7421 O   0  0  0  0  0  0
  -32.2709  -21.3323   22.8032 C   0  0  0  0  0  0
  -32.9927  -18.8537   21.8078 C   0  0  0  0  0  0
  -31.2215  -20.4063   22.5402 C   0  0  0  0  0  0
  -31.6120  -19.0745   22.0965 C   0  0  0  0  0  0
  -34.0019  -19.8069   22.0503 C   0  0  0  0  0  0
  -33.6319  -21.0430   22.6127 C   0  0  0  0  0  0
  -28.5289  -20.1426   22.4264 C   0  0  0  0  0  0
  -29.5115  -22.0221   23.8006 C   0  0  0  0  0  0
  -27.1491  -20.8636   22.5477 C   0  0  0  0  0  0
  -29.7765  -21.0326   22.6177 C   0  0  1  0  0  0
  -28.1102  -22.7147   23.8480 C   0  0  2  0  0  0
  -35.6912  -19.7089   20.1565 C   0  0  0  0  0  0
  -26.1496  -23.3836   25.4307 C   0  0  0  0  0  0
  -30.6742  -17.8611   21.8045 C   0  0  0  0  0  0
  -35.4487  -19.4875   21.6587 C   0  0  0  0  0  0
  -27.4110  -22.5227   25.2227 C   0  0  0  0  0  0
  -27.5746  -24.6031   21.3847 C   0  0  0  0  0  0
  -31.1815  -16.4396   22.2475 C   0  0  0  0  0  0
  -27.4197  -23.0468   21.3807 C   0  0  0  0  0  0
  -28.2116  -25.1937   20.0956 C   0  0  0  0  0  0
  -30.4030  -15.2831   21.7272 N   0  0  0  0  0  0
  -27.2234  -22.3429   22.7035 N   0  3  1  0  0  0
  -34.7977  -22.2591   23.0149 Cl  0  0  0  0  0  0
  -31.4932  -12.4740   19.1683 H   0  0  0  0  0  0
  -30.3623  -11.3482   19.8629 H   0  0  0  0  0  0
  -29.7970  -11.8101   17.4876 H   0  0  0  0  0  0
  -29.7128  -13.5311   17.8055 H   0  0  0  0  0  0
  -27.8791  -11.3387   18.8303 H   0  0  0  0  0  0
  -27.4176  -12.6806   17.8073 H   0  0  0  0  0  0
  -27.7219  -14.2781   19.6070 H   0  0  0  0  0  0
  -28.6935  -12.0070   21.4060 H   0  0  0  0  0  0
  -28.4550  -13.6590   21.8864 H   0  0  0  0  0  0
  -25.2798   -9.5746   22.4723 H   0  0  0  0  0  0
  -24.0066   -7.4676   22.7430 H   0  0  0  0  0  0
  -21.0876   -8.8739   19.8924 H   0  0  0  0  0  0
  -22.3663  -10.9685   19.6127 H   0  0  0  0  0  0
  -21.1943   -7.6120   23.9731 H   0  0  0  0  0  0
  -21.1493   -6.0492   25.9095 H   0  0  0  0  0  0
  -22.0591   -2.7602   23.2864 H   0  0  0  0  0  0
  -22.4141  -11.9762   22.4715 H   0  0  0  0  0  0
  -21.1182  -13.1180   22.2727 H   0  0  0  0  0  0
  -24.6568  -15.8364   20.5316 H   0  0  0  0  0  0
  -26.2882  -15.6438   20.1279 H   0  0  0  0  0  0
  -26.6974  -32.5491   23.1077 H   0  0  0  0  0  0
  -24.9997  -33.9795   25.0414 H   0  0  0  0  0  0
  -22.6909  -31.2957   21.3983 H   0  0  0  0  0  0
  -23.3823  -35.9595   23.3323 H   0  0  0  0  0  0
  -24.3593  -36.8942   22.2060 H   0  0  0  0  0  0
  -23.7206  -37.6525   23.6629 H   0  0  0  0  0  0
  -26.0907  -31.5802   20.6167 H   0  0  0  0  0  0
  -26.8128  -30.8376   22.0166 H   0  0  0  0  0  0
  -28.0846  -29.0134   21.2082 H   0  0  0  0  0  0
  -25.9611  -25.9549   19.0223 H   0  0  0  0  0  0
  -23.9526  -27.2970   19.0484 H   0  0  0  0  0  0
  -23.7084  -30.5880   19.3948 H   0  0  0  0  0  0
  -22.7386  -29.2277   19.8799 H   0  0  0  0  0  0
  -25.1279  -36.2058   25.0857 H   0  0  0  0  0  0
  -20.9888  -28.3060   24.1529 H   0  0  0  0  0  0
  -20.5791  -26.2081   23.3572 H   0  0  0  0  0  0
  -21.6614  -26.7455   22.1148 H   0  0  0  0  0  0
  -19.6990  -25.6282   21.1179 H   0  0  0  0  0  0
  -19.6731  -27.3191   20.6854 H   0  0  0  0  0  0
  -17.4221  -26.6648   21.3969 H   0  0  0  0  0  0
  -18.0273  -25.9935   22.8944 H   0  0  0  0  0  0
  -19.7942  -30.7169   24.2241 H   0  0  0  0  0  0
  -17.5033  -31.6225   24.5066 H   0  0  0  0  0  0
  -15.5363  -30.2905   23.7695 H   0  0  0  0  0  0
  -15.8629  -28.0733   22.7171 H   0  0  0  0  0  0
  -24.5885  -30.6995   25.8015 H   0  0  0  0  0  0
  -24.8876  -32.2876   26.4972 H   0  0  0  0  0  0
  -25.8155  -30.9014   27.0290 H   0  0  0  0  0  0
  -26.2649  -29.6887   24.1068 H   0  0  0  0  0  0
  -27.3851  -29.7137   25.4484 H   0  0  0  0  0  0
  -27.8531  -30.4314   23.9205 H   0  0  0  0  0  0
  -27.2435  -33.3681   26.1957 H   0  0  0  0  0  0
  -28.3715  -32.6995   25.0302 H   0  0  0  0  0  0
  -28.0536  -31.8594   26.5463 H   0  0  0  0  0  0
  -28.2612  -38.0134   24.7580 H   0  0  0  0  0  0
  -28.1130  -36.2687   24.6195 H   0  0  0  0  0  0
  -27.2342  -37.1385   25.8867 H   0  0  0  0  0  0
  -20.9294  -29.8660   21.7042 H   0  0  0  0  0  0
  -26.0302  -38.2910   24.1356 H   0  0  0  0  0  0
  -32.0588  -22.3480   23.1095 H   0  0  0  0  0  0
  -33.3159  -17.9252   21.3614 H   0  0  0  0  0  0
  -28.5803  -19.6590   21.4510 H   0  0  0  0  0  0
  -28.5198  -19.3698   23.1947 H   0  0  0  0  0  0
  -30.2002  -22.8640   23.7666 H   0  0  0  0  0  0
  -29.7196  -21.5227   24.7487 H   0  0  0  0  0  0
  -26.6256  -20.4576   23.4143 H   0  0  0  0  0  0
  -26.5038  -20.5993   21.7133 H   0  0  0  0  0  0
  -29.8188  -21.6572   21.7283 H   0  0  0  0  0  0
  -28.2835  -23.7851   23.8391 H   0  0  0  0  0  0
  -35.4476  -20.7331   19.8744 H   0  0  0  0  0  0
  -35.0838  -19.0389   19.5428 H   0  0  0  0  0  0
  -36.7331  -19.5340   19.8888 H   0  0  0  0  0  0
  -25.7926  -23.3125   26.4588 H   0  0  0  0  0  0
  -25.3235  -23.0653   24.7922 H   0  0  0  0  0  0
  -26.3397  -24.4395   25.2317 H   0  0  0  0  0  0
  -30.4400  -17.8661   20.7364 H   0  0  0  0  0  0
  -29.7281  -17.9471   22.3187 H   0  0  0  0  0  0
  -35.6703  -18.4503   21.9071 H   0  0  0  0  0  0
  -36.1622  -20.0782   22.2368 H   0  0  0  0  0  0
  -28.1211  -22.7846   26.0094 H   0  0  0  0  0  0
  -27.1617  -21.4788   25.4045 H   0  0  0  0  0  0
  -28.2128  -24.9511   22.1870 H   0  0  0  0  0  0
  -26.5993  -25.0589   21.5553 H   0  0  0  0  0  0
  -31.1381  -16.3951   23.3378 H   0  0  0  0  0  0
  -32.2303  -16.2795   21.9995 H   0  0  0  0  0  0
  -28.2387  -22.5972   20.8310 H   0  0  0  0  0  0
  -26.5505  -22.8137   20.7687 H   0  0  0  0  0  0
  -27.6981  -24.8562   19.1953 H   0  0  0  0  0  0
  -29.2182  -24.7868   19.9983 H   0  0  0  0  0  0
  -29.6158  -14.9762   22.2852 H   0  0  0  0  0  0
  -26.2979  -22.6257   22.9942 H   0  0  0  0  0  0
  1 25  1  0  0  0
  1 30  2  0  0  0
  1 91  1  0  0  0
  2  3  1  0  0  0
  2 25  1  0  0  0
  2 94  1  0  0  0
  2 95  1  0  0  0
  3  4  1  0  0  0
  3 96  1  0  0  0
  3 97  1  0  0  0
  4  5  1  0  0  0
  4 98  1  0  0  0
  4 99  1  0  0  0
  5  6  1  0  0  0
  5 26  1  0  0  0
  5100  1  0  0  0
  6 25  1  0  0  0
  6101  1  0  0  0
  6102  1  0  0  0
  7  8  2  0  0  0
  7 26  1  0  0  0
  7 29  1  0  0  0
  8  9  1  0  0  0
  8 22  1  0  0  0
  9 10  1  0  0  0
  9 27  2  0  0  0
 10 11  2  0  0  0
 10 15  1  0  0  0
 11 12  1  0  0  0
 11103  1  0  0  0
 12 13  2  0  0  0
 12104  1  0  0  0
 13 14  1  0  0  0
 13 31  1  0  0  0
 14 15  2  0  0  0
 14105  1  0  0  0
 15106  1  0  0  0
 16 17  2  0  0  0
 16 21  1  0  0  0
 16 31  1  0  0  0
 17 18  1  0  0  0
 17107  1  0  0  0
 18 19  2  0  0  0
 18108  1  0  0  0
 19 20  1  0  0  0
 19 24  1  0  0  0
 20 21  2  0  0  0
 20109  1  0  0  0
 21 23  1  0  0  0
 22 28  1  0  0  0
 22 32  2  0  0  0
 26 27  1  0  0  0
 28110  1  0  0  0
 28111  1  0  0  0
 29112  1  0  0  0
 29113  1  0  0  0
 33 34  1  0  0  0
 33 66  1  0  0  0
 33 70  2  0  0  0
 34 36  1  0  0  0
 34 59  1  0  0  0
 34114  1  0  0  0
 35 44  2  0  0  0
 35 45  1  0  0  0
 35 68  1  0  0  0
 36 56  1  0  0  0
 36115  1  0  0  0
 37 39  1  0  0  0
 37 47  1  0  0  0
 37 66  1  0  0  0
 37116  1  0  0  0
 38 43  2  0  0  0
 38 46  1  0  0  0
 38 47  1  0  0  0
 39 64  1  0  0  0
 39 67  2  0  0  0
 40 52  1  0  0  0
 40 53  2  0  0  0
 40 58  1  0  0  0
 41117  1  0  0  0
 41118  1  0  0  0
 41119  1  0  0  0
 41 48  1  0  0  0
 42 43  1  0  0  0
 42 66  1  0  0  0
 42120  1  0  0  0
 42121  1  0  0  0
 43 44  1  0  0  0
 44122  1  0  0  0
 45 46  2  0  0  0
 45123  1  0  0  0
 46124  1  0  0  0
 47125  1  0  0  0
 47126  1  0  0  0
 48 56  1  0  0  0
 48 65  1  0  0  0
 48127  1  0  0  0
 49 50  1  0  0  0
 49 53  1  0  0  0
 49 64  1  0  0  0
 49128  1  0  0  0
 50 51  1  0  0  0
 50129  1  0  0  0
 50130  1  0  0  0
 51 52  1  0  0  0
 51131  1  0  0  0
 51132  1  0  0  0
 52133  1  0  0  0
 52134  1  0  0  0
 53 54  1  0  0  0
 54 55  2  0  0  0
 54135  1  0  0  0
 55 57  1  0  0  0
 55136  1  0  0  0
 56 69  2  0  0  0
 57 58  2  0  0  0
 57137  1  0  0  0
 58138  1  0  0  0
 59 60  1  0  0  0
 59 61  1  0  0  0
 59 62  1  0  0  0
 60139  1  0  0  0
 60140  1  0  0  0
 60141  1  0  0  0
 61142  1  0  0  0
 61143  1  0  0  0
 61144  1  0  0  0
 62145  1  0  0  0
 62146  1  0  0  0
 62147  1  0  0  0
 63 65  1  0  0  0
 63148  1  0  0  0
 63149  1  0  0  0
 63150  1  0  0  0
 64151  1  0  0  0
 65152  1  0  0  0
 68 90  1  0  0  0
 71 73  2  0  0  0
 71 76  1  0  0  0
 71153  1  0  0  0
 72 74  2  0  0  0
 72 75  1  0  0  0
 72154  1  0  0  0
 73 74  1  0  0  0
 73 80  1  0  0  0
 74 84  1  0  0  0
 75 76  2  0  0  0
 75 85  1  0  0  0
 76 93  1  0  0  0
 77 79  1  0  0  0
 77 80  1  0  0  0
 77155  1  0  0  0
 77156  1  0  0  0
 78 80  1  0  0  0
 78 81  1  0  0  0
 78157  1  0  0  0
 78158  1  0  0  0
 79 92  1  0  0  0
 79159  1  0  0  0
 79160  1  0  0  0
 80161  1  0  0  0
 81 86  1  0  0  0
 81 92  1  0  0  0
 81162  1  0  0  0
 82 85  1  0  0  0
 82163  1  0  0  0
 82164  1  0  0  0
 82165  1  0  0  0
 83 86  1  0  0  0
 83166  1  0  0  0
 83167  1  0  0  0
 83168  1  0  0  0
 84 88  1  0  0  0
 84169  1  0  0  0
 84170  1  0  0  0
 85171  1  0  0  0
 85172  1  0  0  0
 86173  1  0  0  0
 86174  1  0  0  0
 87 89  1  0  0  0
 87 90  1  0  0  0
 87175  1  0  0  0
 87176  1  0  0  0
 88 91  1  0  0  0
 88177  1  0  0  0
 88178  1  0  0  0
 89179  1  0  0  0
 89180  1  0  0  0
 89 92  1  0  0  0
 90181  1  0  0  0
 90182  1  0  0  0
 91183  1  0  0  0
 92184  1  0  0  0
M  CHG  1  92   1
M  ISO  4   1 100  68 101  90 101  91 100
M  END
> <chiral flag>
0

> <version>
0

> <s_m_source_file>
/data/baiqing/PycharmProjects/Reinvent-master-3.2/result/LINK_invent/BTK/process_docking_weight1_custom_sum_contain_oxygen_bond_distance_aromatic_linkinvent_7_9_3/rearranged_h_0027.sdf

> <i_m_source_file_index>
12

> <r_mmod_Potential_Energy-OPLS-2005>
17.7660255432129

> <r_mmod_Stretch_Energy-OPLS-2005>
68.954460144043

> <r_mmod_Bend_Energy-OPLS-2005>
171.466873168945

> <r_mmod_Torsional_Energy-OPLS-2005>
286.359161376953

> <r_mmod_Improper_Torsional_Energy-OPLS-2005>
3.2620894908905

> <r_mmod_Van_der_Waal_Energy-OPLS-2005>
177.295318603516

> <r_mmod_Electrostatic_Energy-OPLS-2005>
-270.256164550781

> <r_mmod_Solvation_Energy-OPLS-2005>
-439.797302246094

> <b_mmod_Minimization_Converged-OPLS-2005>
0

> <r_mmod_RMS_Derivative-OPLS-2005>
7.85237169265747

$$$$
12
                    3D
 Structure written by MMmdl.
165173  0  0  1  0            999 V2000
  -30.6183  -14.9829   20.3028 C   0  0  0  0  0  0
  -30.4283  -12.5832   19.4862 C   0  0  0  0  0  0
  -29.5149  -12.4080   18.2562 C   0  0  0  0  0  0
  -28.0446  -12.2501   18.6875 C   0  0  0  0  0  0
  -27.6117  -13.2270   19.8130 C   0  0  2  0  0  0
  -28.6757  -13.3712   20.9226 C   0  0  0  0  0  0
  -25.2433  -13.8099   20.5810 C   0  0  0  0  0  0
  -24.1705  -13.0376   20.9282 C   0  0  0  0  0  0
  -24.6320  -11.6850   20.8837 C   0  0  0  0  0  0
  -23.9019  -10.4232   21.0475 C   0  0  0  0  0  0
  -24.3585   -9.4164   21.9257 C   0  0  0  0  0  0
  -23.6295   -8.2187   22.0825 C   0  0  0  0  0  0
  -22.4280   -8.0235   21.3617 C   0  0  0  0  0  0
  -21.9915   -9.0167   20.4675 C   0  0  0  0  0  0
  -22.7226  -10.2054   20.3100 C   0  0  0  0  0  0
  -21.6841   -6.0694   22.5341 C   0  0  0  0  0  0
  -21.3993   -6.5601   23.8278 C   0  0  0  0  0  0
  -21.3608   -5.6760   24.9234 C   0  0  0  0  0  0
  -21.6047   -4.3029   24.7274 C   0  0  0  0  0  0
  -21.8803   -3.8116   23.4387 C   0  0  0  0  0  0
  -21.9185   -4.6926   22.3448 C   0  0  0  0  0  0
  -22.7738  -13.5205   21.1890 C   0  0  0  0  0  0
  -22.1634   -4.2120   21.1023 F   0  0  0  0  0  0
  -21.5667   -3.4505   25.7771 F   0  0  0  0  0  0
  -29.9289  -13.7609   20.2590 N   0  0  0  0  0  0
  -26.2823  -12.9301   20.3305 N   0  0  0  0  0  0
  -25.9246  -11.6451   20.5850 N   0  0  0  0  0  0
  -22.0323  -12.8261   22.0458 N   0  0  0  0  0  0
  -25.4135  -15.1813   20.4337 N   0  0  0  0  0  0
  -31.8338  -14.8304   20.3268 O   0  0  0  0  0  0
  -21.6670   -6.8821   21.4305 O   0  0  0  0  0  0
  -22.3457  -14.5516   20.6668 O   0  0  0  0  0  0
  -24.6453  -31.8424   23.1874 C   0  0  0  0  0  0
  -25.9228  -32.4686   23.8252 C   0  0  1  0  0  0
  -27.2053  -27.1317   20.1279 C   0  0  0  0  0  0
  -25.5989  -33.8484   24.2192 N   0  0  0  0  0  0
  -23.4464  -30.4606   21.5356 C   0  0  2  0  0  0
  -24.8896  -28.8897   20.1072 C   0  0  0  0  0  0
  -22.7568  -29.4521   22.4867 C   0  0  0  0  0  0
  -18.0291  -28.1389   22.8461 C   0  0  0  0  0  0
  -24.1491  -36.7224   23.2631 C   0  0  0  0  0  0
  -26.0041  -30.7116   21.3859 C   0  0  0  0  0  0
  -26.0704  -29.3244   20.7234 C   0  0  0  0  0  0
  -27.2319  -28.4613   20.7148 C   0  0  0  0  0  0
  -26.0003  -26.8032   19.4694 C   0  0  0  0  0  0
  -24.8669  -27.6453   19.4595 C   0  0  0  0  0  0
  -23.6677  -29.7927   20.1537 C   0  0  0  0  0  0
  -25.4116  -36.3008   24.0326 C   0  0  1  0  0  0
  -20.5911  -28.3717   23.1233 C   0  0  2  0  0  0
  -20.6769  -26.9420   22.5406 C   0  0  0  0  0  0
  -19.5767  -26.6374   21.5182 C   0  0  0  0  0  0
  -18.1937  -26.7928   22.1583 C   0  0  0  0  0  0
  -19.1553  -28.8868   23.2850 C   0  0  0  0  0  0
  -18.9468  -30.1456   23.8902 C   0  0  0  0  0  0
  -17.6467  -30.6601   24.0544 C   0  0  0  0  0  0
  -25.9062  -34.9393   23.5052 C   0  0  0  0  0  0
  -16.5353  -29.9100   23.6322 C   0  0  0  0  0  0
  -16.7273  -28.6509   23.0354 C   0  0  0  0  0  0
  -26.4552  -31.6543   25.0687 C   0  0  0  0  0  0
  -25.3758  -31.3745   26.1416 C   0  0  0  0  0  0
  -27.0388  -30.2931   24.6237 C   0  0  0  0  0  0
  -27.6110  -32.4291   25.7486 C   0  0  0  0  0  0
  -27.5578  -37.1743   24.8470 C   0  0  0  0  0  0
  -21.4268  -29.3045   22.3632 N   0  0  0  0  0  0
  -26.4279  -37.3718   23.9420 N   0  0  0  0  0  0
  -24.7182  -31.0257   22.0919 N   0  0  0  0  0  0
  -23.4198  -28.8035   23.2997 O   0  0  0  0  0  0
  -28.2547  -26.1423   20.1930 O   0  0  0  0  0  0
  -26.5643  -34.8891   22.4629 O   0  0  0  0  0  0
  -23.5578  -32.1305   23.7106 O   0  0  0  0  0  0
  -29.5087  -18.9473   20.1708 C   0  0  0  0  0  0
  -29.8419  -20.3987   20.0523 C   0  0  0  0  0  0
  -31.2371  -20.6249   19.9452 C   0  0  0  0  0  0
  -31.8156  -18.2027   20.1546 C   0  0  0  0  0  0
  -30.4420  -17.7670   20.1607 C   0  0  0  0  0  0
  -32.1689  -19.5750   20.1007 C   0  0  0  0  0  0
  -31.8110  -21.9748   19.5567 C   0  0  0  0  0  0
  -33.0194  -17.2698   20.0633 C   0  0  0  0  0  0
  -27.8841  -16.8122   18.6169 C   0  0  0  0  0  0
  -30.1457  -16.6634   17.4514 C   0  0  0  0  0  0
  -28.7828  -21.6819   19.9189 C   0  0  0  0  0  0
  -29.0453  -23.3354   20.2543 C   0  0  0  0  0  0
  -27.9837  -24.6177   19.9842 C   0  0  0  0  0  0
  -29.2864  -16.1693   18.6338 C   0  0  0  0  0  0
  -30.0262  -16.2691   19.9259 N   0  0  0  0  0  0
  -33.4833  -19.9112   20.1241 F   0  0  0  0  0  0
  -31.4584  -12.7024   19.1534 H   0  0  0  0  0  0
  -30.4243  -11.6840   20.1068 H   0  0  0  0  0  0
  -29.8190  -11.5235   17.6945 H   0  0  0  0  0  0
  -29.6300  -13.2479   17.5707 H   0  0  0  0  0  0
  -27.9268  -11.2277   19.0478 H   0  0  0  0  0  0
  -27.3878  -12.3351   17.8208 H   0  0  0  0  0  0
  -27.5100  -14.1864   19.3220 H   0  0  0  0  0  0
  -28.7965  -12.4439   21.4859 H   0  0  0  0  0  0
  -28.3760  -14.1384   21.6376 H   0  0  0  0  0  0
  -25.2722   -9.5669   22.4843 H   0  0  0  0  0  0
  -23.9997   -7.4553   22.7539 H   0  0  0  0  0  0
  -21.0869   -8.8581   19.8972 H   0  0  0  0  0  0
  -22.3657  -10.9536   19.6189 H   0  0  0  0  0  0
  -21.1968   -7.6115   23.9762 H   0  0  0  0  0  0
  -21.1432   -6.0509   25.9136 H   0  0  0  0  0  0
  -22.0601   -2.7581   23.2923 H   0  0  0  0  0  0
  -22.3892  -11.9942   22.4949 H   0  0  0  0  0  0
  -21.0930  -13.1348   22.2580 H   0  0  0  0  0  0
  -24.6587  -15.8464   20.5680 H   0  0  0  0  0  0
  -26.2796  -15.6074   20.1352 H   0  0  0  0  0  0
  -26.7287  -32.5284   23.0972 H   0  0  0  0  0  0
  -25.0178  -33.9565   25.0375 H   0  0  0  0  0  0
  -22.7504  -31.2888   21.3810 H   0  0  0  0  0  0
  -23.3757  -35.9547   23.3281 H   0  0  0  0  0  0
  -24.3558  -36.8858   22.2037 H   0  0  0  0  0  0
  -23.7216  -37.6409   23.6676 H   0  0  0  0  0  0
  -26.1554  -31.4600   20.6070 H   0  0  0  0  0  0
  -26.8837  -30.7646   22.0179 H   0  0  0  0  0  0
  -28.1417  -28.7810   21.2035 H   0  0  0  0  0  0
  -25.8979  -25.8560   18.9643 H   0  0  0  0  0  0
  -23.9716  -27.3130   18.9493 H   0  0  0  0  0  0
  -23.8080  -30.5722   19.4032 H   0  0  0  0  0  0
  -22.7824  -29.2364   19.8368 H   0  0  0  0  0  0
  -25.1261  -36.1844   25.0811 H   0  0  0  0  0  0
  -20.9978  -28.3310   24.1358 H   0  0  0  0  0  0
  -20.5570  -26.2325   23.3612 H   0  0  0  0  0  0
  -21.6633  -26.7374   22.1235 H   0  0  0  0  0  0
  -19.6932  -25.6267   21.1252 H   0  0  0  0  0  0
  -19.6732  -27.3164   20.6698 H   0  0  0  0  0  0
  -17.4177  -26.6656   21.4014 H   0  0  0  0  0  0
  -18.0381  -26.0084   22.9000 H   0  0  0  0  0  0
  -19.7946  -30.7265   24.2296 H   0  0  0  0  0  0
  -17.5020  -31.6279   24.5140 H   0  0  0  0  0  0
  -15.5362  -30.2999   23.7648 H   0  0  0  0  0  0
  -15.8661  -28.0822   22.7095 H   0  0  0  0  0  0
  -24.5983  -30.7024   25.7779 H   0  0  0  0  0  0
  -24.8884  -32.2906   26.4759 H   0  0  0  0  0  0
  -25.8055  -30.9017   27.0253 H   0  0  0  0  0  0
  -26.2993  -29.6677   24.1205 H   0  0  0  0  0  0
  -27.3987  -29.7204   25.4795 H   0  0  0  0  0  0
  -27.8918  -30.4168   23.9559 H   0  0  0  0  0  0
  -27.2770  -33.3661   26.1973 H   0  0  0  0  0  0
  -28.3993  -32.6707   25.0344 H   0  0  0  0  0  0
  -28.0702  -31.8438   26.5472 H   0  0  0  0  0  0
  -28.2545  -38.0079   24.7496 H   0  0  0  0  0  0
  -28.1108  -36.2574   24.6310 H   0  0  0  0  0  0
  -27.2289  -37.1424   25.8876 H   0  0  0  0  0  0
  -20.9510  -29.8756   21.6802 H   0  0  0  0  0  0
  -26.0146  -38.2774   24.1482 H   0  0  0  0  0  0
  -28.4531  -18.7337   20.2157 H   0  0  0  0  0  0
  -31.2552  -22.3747   18.7081 H   0  0  0  0  0  0
  -32.8426  -21.9054   19.2063 H   0  0  0  0  0  0
  -31.7960  -22.6736   20.3909 H   0  0  0  0  0  0
  -32.9301  -16.6219   19.1934 H   0  0  0  0  0  0
  -33.1455  -16.7028   20.9851 H   0  0  0  0  0  0
  -33.9719  -17.7769   19.9161 H   0  0  0  0  0  0
  -27.9119  -17.8520   18.2875 H   0  0  0  0  0  0
  -27.4040  -16.7824   19.5927 H   0  0  0  0  0  0
  -27.2365  -16.2961   17.9058 H   0  0  0  0  0  0
  -29.6990  -16.3592   16.5041 H   0  0  0  0  0  0
  -31.1488  -16.2352   17.4776 H   0  0  0  0  0  0
  -30.2516  -17.7508   17.4269 H   0  0  0  0  0  0
  -27.8928  -21.3834   20.4738 H   0  0  0  0  0  0
  -28.4587  -21.6496   18.8768 H   0  0  0  0  0  0
  -29.9154  -23.6647   19.6994 H   0  0  0  0  0  0
  -29.3374  -23.4012   21.3007 H   0  0  0  0  0  0
  -27.0804  -24.3904   20.5518 H   0  0  0  0  0  0
  -27.6789  -24.5193   18.9429 H   0  0  0  0  0  0
  -29.1091  -15.1366   18.3766 H   0  0  0  0  0  0
  1 25  1  0  0  0
  1 30  2  0  0  0
  1 85  1  0  0  0
  2  3  1  0  0  0
  2 25  1  0  0  0
  2 87  1  0  0  0
  2 88  1  0  0  0
  3  4  1  0  0  0
  3 89  1  0  0  0
  3 90  1  0  0  0
  4  5  1  0  0  0
  4 91  1  0  0  0
  4 92  1  0  0  0
  5  6  1  0  0  0
  5 26  1  0  0  0
  5 93  1  0  0  0
  6 25  1  0  0  0
  6 94  1  0  0  0
  6 95  1  0  0  0
  7  8  2  0  0  0
  7 26  1  0  0  0
  7 29  1  0  0  0
  8  9  1  0  0  0
  8 22  1  0  0  0
  9 10  1  0  0  0
  9 27  2  0  0  0
 10 11  2  0  0  0
 10 15  1  0  0  0
 11 12  1  0  0  0
 11 96  1  0  0  0
 12 13  2  0  0  0
 12 97  1  0  0  0
 13 14  1  0  0  0
 13 31  1  0  0  0
 14 15  2  0  0  0
 14 98  1  0  0  0
 15 99  1  0  0  0
 16 17  2  0  0  0
 16 21  1  0  0  0
 16 31  1  0  0  0
 17 18  1  0  0  0
 17100  1  0  0  0
 18 19  2  0  0  0
 18101  1  0  0  0
 19 20  1  0  0  0
 19 24  1  0  0  0
 20 21  2  0  0  0
 20102  1  0  0  0
 21 23  1  0  0  0
 22 28  1  0  0  0
 22 32  2  0  0  0
 26 27  1  0  0  0
 28103  1  0  0  0
 28104  1  0  0  0
 29105  1  0  0  0
 29106  1  0  0  0
 33 34  1  0  0  0
 33 66  1  0  0  0
 33 70  2  0  0  0
 34 36  1  0  0  0
 34 59  1  0  0  0
 34107  1  0  0  0
 35 44  2  0  0  0
 35 45  1  0  0  0
 35 68  1  0  0  0
 36 56  1  0  0  0
 36108  1  0  0  0
 37 39  1  0  0  0
 37 47  1  0  0  0
 37 66  1  0  0  0
 37109  1  0  0  0
 38 43  2  0  0  0
 38 46  1  0  0  0
 38 47  1  0  0  0
 39 64  1  0  0  0
 39 67  2  0  0  0
 40 52  1  0  0  0
 40 53  2  0  0  0
 40 58  1  0  0  0
 41110  1  0  0  0
 41111  1  0  0  0
 41112  1  0  0  0
 41 48  1  0  0  0
 42 43  1  0  0  0
 42 66  1  0  0  0
 42113  1  0  0  0
 42114  1  0  0  0
 43 44  1  0  0  0
 44115  1  0  0  0
 45 46  2  0  0  0
 45116  1  0  0  0
 46117  1  0  0  0
 47118  1  0  0  0
 47119  1  0  0  0
 48 56  1  0  0  0
 48 65  1  0  0  0
 48120  1  0  0  0
 49 50  1  0  0  0
 49 53  1  0  0  0
 49 64  1  0  0  0
 49121  1  0  0  0
 50 51  1  0  0  0
 50122  1  0  0  0
 50123  1  0  0  0
 51 52  1  0  0  0
 51124  1  0  0  0
 51125  1  0  0  0
 52126  1  0  0  0
 52127  1  0  0  0
 53 54  1  0  0  0
 54 55  2  0  0  0
 54128  1  0  0  0
 55 57  1  0  0  0
 55129  1  0  0  0
 56 69  2  0  0  0
 57 58  2  0  0  0
 57130  1  0  0  0
 58131  1  0  0  0
 59 60  1  0  0  0
 59 61  1  0  0  0
 59 62  1  0  0  0
 60132  1  0  0  0
 60133  1  0  0  0
 60134  1  0  0  0
 61135  1  0  0  0
 61136  1  0  0  0
 61137  1  0  0  0
 62138  1  0  0  0
 62139  1  0  0  0
 62140  1  0  0  0
 63 65  1  0  0  0
 63141  1  0  0  0
 63142  1  0  0  0
 63143  1  0  0  0
 64144  1  0  0  0
 65145  1  0  0  0
 68 83  1  0  0  0
 71 72  2  0  0  0
 71 75  1  0  0  0
 71146  1  0  0  0
 72 73  1  0  0  0
 72 81  1  0  0  0
 73 76  2  0  0  0
 73 77  1  0  0  0
 74 75  2  0  0  0
 74 76  1  0  0  0
 74 78  1  0  0  0
 75 85  1  0  0  0
 76 86  1  0  0  0
 77147  1  0  0  0
 77148  1  0  0  0
 77149  1  0  0  0
 78150  1  0  0  0
 78151  1  0  0  0
 78152  1  0  0  0
 79153  1  0  0  0
 79154  1  0  0  0
 79155  1  0  0  0
 79 84  1  0  0  0
 80 84  1  0  0  0
 80156  1  0  0  0
 80157  1  0  0  0
 80158  1  0  0  0
 81 82  1  0  0  0
 81159  1  0  0  0
 81160  1  0  0  0
 82 83  1  0  0  0
 82161  1  0  0  0
 82162  1  0  0  0
 83163  1  0  0  0
 83164  1  0  0  0
 84 85  1  0  0  0
 84165  1  0  0  0
M  ISO  4   1 100  68 101  83 101  85 100
M  END
> <chiral flag>
0

> <version>
0

> <s_m_source_file>
/data/baiqing/PycharmProjects/Reinvent-master-3.2/result/LINK_invent/BTK/process_docking_weight1_custom_sum_contain_oxygen_bond_distance_aromatic_linkinvent_7_9_3/rearranged_h_0027.sdf

> <i_m_source_file_index>
13

> <r_mmod_Potential_Energy-OPLS-2005>
916.084350585938

> <r_mmod_Stretch_Energy-OPLS-2005>
318.124786376953

> <r_mmod_Bend_Energy-OPLS-2005>
299.415405273438

> <r_mmod_Torsional_Energy-OPLS-2005>
330.399810791016

> <r_mmod_Improper_Torsional_Energy-OPLS-2005>
16.5168914794922

> <r_mmod_Van_der_Waal_Energy-OPLS-2005>
177.013748168945

> <r_mmod_Electrostatic_Energy-OPLS-2005>
-271.945617675781

> <r_mmod_Solvation_Energy-OPLS-2005>
-176.082901000977

> <b_mmod_Minimization_Converged-OPLS-2005>
0

> <r_mmod_RMS_Derivative-OPLS-2005>
5.03369045257568

$$$$
13
                    3D
 Structure written by MMmdl.
149157  0  0  1  0            999 V2000
  -30.5246  -14.9547   20.4191 C   0  0  0  0  0  0
  -30.4337  -12.5953   19.4891 C   0  0  0  0  0  0
  -29.5209  -12.5524   18.2439 C   0  0  0  0  0  0
  -28.0467  -12.3499   18.6391 C   0  0  0  0  0  0
  -27.6231  -13.2574   19.8255 C   0  0  2  0  0  0
  -28.6607  -13.2723   20.9646 C   0  0  0  0  0  0
  -25.2443  -13.8253   20.5674 C   0  0  0  0  0  0
  -24.1780  -13.0463   20.9232 C   0  0  0  0  0  0
  -24.6408  -11.6944   20.8732 C   0  0  0  0  0  0
  -23.9089  -10.4309   21.0380 C   0  0  0  0  0  0
  -24.3648   -9.4226   21.9147 C   0  0  0  0  0  0
  -23.6316   -8.2263   22.0724 C   0  0  0  0  0  0
  -22.4296   -8.0288   21.3522 C   0  0  0  0  0  0
  -21.9932   -9.0257   20.4610 C   0  0  0  0  0  0
  -22.7278  -10.2136   20.3005 C   0  0  0  0  0  0
  -21.6854   -6.0740   22.5279 C   0  0  0  0  0  0
  -21.4027   -6.5640   23.8218 C   0  0  0  0  0  0
  -21.3678   -5.6793   24.9172 C   0  0  0  0  0  0
  -21.6054   -4.3048   24.7222 C   0  0  0  0  0  0
  -21.8832   -3.8156   23.4337 C   0  0  0  0  0  0
  -21.9209   -4.6965   22.3401 C   0  0  0  0  0  0
  -22.7806  -13.5198   21.1910 C   0  0  0  0  0  0
  -22.1665   -4.2150   21.0973 F   0  0  0  0  0  0
  -21.5626   -3.4532   25.7729 F   0  0  0  0  0  0
  -29.9371  -13.6905   20.3727 N   0  0  0  0  0  0
  -26.2848  -12.9481   20.3132 N   0  0  0  0  0  0
  -25.9320  -11.6612   20.5647 N   0  0  0  0  0  0
  -22.0446  -12.8175   22.0458 N   0  0  0  0  0  0
  -25.4108  -15.1984   20.4150 N   0  0  0  0  0  0
  -31.7357  -15.0184   20.1650 O   0  0  0  0  0  0
  -21.6637   -6.8881   21.4236 O   0  0  0  0  0  0
  -22.3477  -14.5481   20.6709 O   0  0  0  0  0  0
  -24.6473  -31.8434   23.1876 C   0  0  0  0  0  0
  -25.9244  -32.4696   23.8282 C   0  0  1  0  0  0
  -27.1893  -27.0978   20.1654 C   0  0  0  0  0  0
  -25.5997  -33.8509   24.2207 N   0  0  0  0  0  0
  -23.4528  -30.4633   21.5365 C   0  0  2  0  0  0
  -24.8924  -28.8888   20.1098 C   0  0  0  0  0  0
  -22.7609  -29.4543   22.4887 C   0  0  0  0  0  0
  -18.0304  -28.1373   22.8469 C   0  0  0  0  0  0
  -24.1495  -36.7245   23.2646 C   0  0  0  0  0  0
  -26.0108  -30.7044   21.3929 C   0  0  0  0  0  0
  -26.0734  -29.3142   20.7317 C   0  0  0  0  0  0
  -27.2267  -28.4374   20.7367 C   0  0  0  0  0  0
  -25.9863  -26.7857   19.4955 C   0  0  0  0  0  0
  -24.8655  -27.6422   19.4703 C   0  0  0  0  0  0
  -23.6725  -29.7973   20.1535 C   0  0  0  0  0  0
  -25.4136  -36.3056   24.0313 C   0  0  1  0  0  0
  -20.5931  -28.3703   23.1212 C   0  0  2  0  0  0
  -20.6782  -26.9397   22.5396 C   0  0  0  0  0  0
  -19.5752  -26.6348   21.5213 C   0  0  0  0  0  0
  -18.1933  -26.7903   22.1619 C   0  0  0  0  0  0
  -19.1564  -28.8858   23.2826 C   0  0  0  0  0  0
  -18.9469  -30.1456   23.8847 C   0  0  0  0  0  0
  -17.6462  -30.6562   24.0548 C   0  0  0  0  0  0
  -25.9082  -34.9426   23.5066 C   0  0  0  0  0  0
  -16.5359  -29.9034   23.6348 C   0  0  0  0  0  0
  -16.7284  -28.6461   23.0352 C   0  0  0  0  0  0
  -26.4529  -31.6567   25.0740 C   0  0  0  0  0  0
  -25.3689  -31.3764   26.1420 C   0  0  0  0  0  0
  -27.0428  -30.2966   24.6378 C   0  0  0  0  0  0
  -27.6080  -32.4312   25.7515 C   0  0  0  0  0  0
  -27.5586  -37.1792   24.8459 C   0  0  0  0  0  0
  -21.4309  -29.3034   22.3627 N   0  0  0  0  0  0
  -26.4298  -37.3772   23.9404 N   0  0  0  0  0  0
  -24.7246  -31.0246   22.0946 N   0  0  0  0  0  0
  -23.4224  -28.8111   23.3071 O   0  0  0  0  0  0
  -28.2114  -26.0753   20.2446 O   0  0  0  0  0  0
  -26.5673  -34.8928   22.4648 O   0  0  0  0  0  0
  -23.5575  -32.1336   23.7068 O   0  0  0  0  0  0
  -29.4590  -20.4174   20.3861 C   0  0  0  0  0  0
  -26.9168  -19.6613   20.7766 C   0  0  0  0  0  0
  -28.4968  -21.5501   20.4948 C   0  0  0  0  0  0
  -27.1771  -21.0602   20.7048 C   0  0  0  0  0  0
  -29.1216  -18.9689   20.4826 C   0  0  0  0  0  0
  -28.8583  -23.1868   20.4851 C   0  0  0  0  0  0
  -30.1291  -17.6658   20.3786 C   0  0  0  0  0  0
  -27.8551  -24.5421   20.2258 C   0  0  0  0  0  0
  -27.8267  -18.6538   20.6732 N   0  0  0  0  0  0
  -29.7469  -16.1404   20.5386 N   0  0  0  0  0  0
  -25.8309  -22.1214   20.8959 Cl  0  0  0  0  0  0
  -31.4683  -12.7568   19.1805 H   0  0  0  0  0  0
  -30.4158  -11.6375   20.0116 H   0  0  0  0  0  0
  -29.8456  -11.7708   17.5549 H   0  0  0  0  0  0
  -29.6184  -13.4975   17.7074 H   0  0  0  0  0  0
  -27.9210  -11.3022   18.9079 H   0  0  0  0  0  0
  -27.3965  -12.5210   17.7777 H   0  0  0  0  0  0
  -27.5792  -14.2674   19.4166 H   0  0  0  0  0  0
  -28.7442  -12.2867   21.4253 H   0  0  0  0  0  0
  -28.3540  -13.9576   21.7537 H   0  0  0  0  0  0
  -25.2774   -9.5705   22.4730 H   0  0  0  0  0  0
  -24.0050   -7.4651   22.7428 H   0  0  0  0  0  0
  -21.0872   -8.8750   19.8899 H   0  0  0  0  0  0
  -22.3711  -10.9667   19.6111 H   0  0  0  0  0  0
  -21.1983   -7.6143   23.9741 H   0  0  0  0  0  0
  -21.1493   -6.0492   25.9091 H   0  0  0  0  0  0
  -22.0587   -2.7611   23.2833 H   0  0  0  0  0  0
  -22.4053  -11.9861   22.4905 H   0  0  0  0  0  0
  -21.1016  -13.1138   22.2526 H   0  0  0  0  0  0
  -24.6415  -15.8484   20.5216 H   0  0  0  0  0  0
  -26.2606  -15.6498   20.1039 H   0  0  0  0  0  0
  -26.7337  -32.5279   23.1031 H   0  0  0  0  0  0
  -25.0159  -33.9627   25.0367 H   0  0  0  0  0  0
  -22.7580  -31.2933   21.3894 H   0  0  0  0  0  0
  -23.3788  -35.9541   23.3279 H   0  0  0  0  0  0
  -24.3570  -36.8889   22.2061 H   0  0  0  0  0  0
  -23.7199  -37.6418   23.6683 H   0  0  0  0  0  0
  -26.1806  -31.4637   20.6282 H   0  0  0  0  0  0
  -26.8765  -30.7451   22.0431 H   0  0  0  0  0  0
  -28.1267  -28.7559   21.2444 H   0  0  0  0  0  0
  -25.8715  -25.8343   19.0022 H   0  0  0  0  0  0
  -23.9685  -27.3157   18.9625 H   0  0  0  0  0  0
  -23.8078  -30.5773   19.4015 H   0  0  0  0  0  0
  -22.7847  -29.2420   19.8461 H   0  0  0  0  0  0
  -25.1331  -36.1902   25.0803 H   0  0  0  0  0  0
  -21.0001  -28.3258   24.1337 H   0  0  0  0  0  0
  -20.5621  -26.2342   23.3628 H   0  0  0  0  0  0
  -21.6645  -26.7351   22.1225 H   0  0  0  0  0  0
  -19.6901  -25.6247   21.1249 H   0  0  0  0  0  0
  -19.6653  -27.3152   20.6731 H   0  0  0  0  0  0
  -17.4205  -26.6649   21.4004 H   0  0  0  0  0  0
  -18.0291  -26.0034   22.9001 H   0  0  0  0  0  0
  -19.7959  -30.7297   24.2143 H   0  0  0  0  0  0
  -17.5017  -31.6240   24.5163 H   0  0  0  0  0  0
  -15.5349  -30.2912   23.7701 H   0  0  0  0  0  0
  -15.8699  -28.0772   22.7062 H   0  0  0  0  0  0
  -24.5871  -30.7117   25.7709 H   0  0  0  0  0  0
  -24.8870  -32.2951   26.4781 H   0  0  0  0  0  0
  -25.7932  -30.8957   27.0250 H   0  0  0  0  0  0
  -26.3082  -29.6667   24.1360 H   0  0  0  0  0  0
  -27.4006  -29.7281   25.4974 H   0  0  0  0  0  0
  -27.8996  -30.4194   23.9756 H   0  0  0  0  0  0
  -27.2715  -33.3645   26.2045 H   0  0  0  0  0  0
  -28.3926  -32.6813   25.0355 H   0  0  0  0  0  0
  -28.0739  -31.8472   26.5470 H   0  0  0  0  0  0
  -28.2613  -38.0095   24.7570 H   0  0  0  0  0  0
  -28.1105  -36.2641   24.6238 H   0  0  0  0  0  0
  -27.2317  -37.1358   25.8869 H   0  0  0  0  0  0
  -20.9523  -29.8791   21.6861 H   0  0  0  0  0  0
  -26.0180  -38.2855   24.1384 H   0  0  0  0  0  0
  -30.4987  -20.6724   20.2259 H   0  0  0  0  0  0
  -25.9005  -19.3278   20.9486 H   0  0  0  0  0  0
  -29.6899  -23.2875   19.7898 H   0  0  0  0  0  0
  -29.2958  -23.3457   21.4700 H   0  0  0  0  0  0
  -30.9319  -17.8547   21.0916 H   0  0  0  0  0  0
  -30.6036  -17.7520   19.4004 H   0  0  0  0  0  0
  -27.0583  -24.4707   20.9666 H   0  0  0  0  0  0
  -27.3836  -24.3491   19.2647 H   0  0  0  0  0  0
  -28.7642  -15.9926   20.7110 H   0  0  0  0  0  0
  1 25  1  0  0  0
  1 30  2  0  0  0
  1 80  1  0  0  0
  2  3  1  0  0  0
  2 25  1  0  0  0
  2 82  1  0  0  0
  2 83  1  0  0  0
  3  4  1  0  0  0
  3 84  1  0  0  0
  3 85  1  0  0  0
  4  5  1  0  0  0
  4 86  1  0  0  0
  4 87  1  0  0  0
  5  6  1  0  0  0
  5 26  1  0  0  0
  5 88  1  0  0  0
  6 25  1  0  0  0
  6 89  1  0  0  0
  6 90  1  0  0  0
  7  8  2  0  0  0
  7 26  1  0  0  0
  7 29  1  0  0  0
  8  9  1  0  0  0
  8 22  1  0  0  0
  9 10  1  0  0  0
  9 27  2  0  0  0
 10 11  2  0  0  0
 10 15  1  0  0  0
 11 12  1  0  0  0
 11 91  1  0  0  0
 12 13  2  0  0  0
 12 92  1  0  0  0
 13 14  1  0  0  0
 13 31  1  0  0  0
 14 15  2  0  0  0
 14 93  1  0  0  0
 15 94  1  0  0  0
 16 17  2  0  0  0
 16 21  1  0  0  0
 16 31  1  0  0  0
 17 18  1  0  0  0
 17 95  1  0  0  0
 18 19  2  0  0  0
 18 96  1  0  0  0
 19 20  1  0  0  0
 19 24  1  0  0  0
 20 21  2  0  0  0
 20 97  1  0  0  0
 21 23  1  0  0  0
 22 28  1  0  0  0
 22 32  2  0  0  0
 26 27  1  0  0  0
 28 98  1  0  0  0
 28 99  1  0  0  0
 29100  1  0  0  0
 29101  1  0  0  0
 33 34  1  0  0  0
 33 66  1  0  0  0
 33 70  2  0  0  0
 34 36  1  0  0  0
 34 59  1  0  0  0
 34102  1  0  0  0
 35 44  2  0  0  0
 35 45  1  0  0  0
 35 68  1  0  0  0
 36 56  1  0  0  0
 36103  1  0  0  0
 37 39  1  0  0  0
 37 47  1  0  0  0
 37 66  1  0  0  0
 37104  1  0  0  0
 38 43  2  0  0  0
 38 46  1  0  0  0
 38 47  1  0  0  0
 39 64  1  0  0  0
 39 67  2  0  0  0
 40 52  1  0  0  0
 40 53  2  0  0  0
 40 58  1  0  0  0
 41105  1  0  0  0
 41106  1  0  0  0
 41107  1  0  0  0
 41 48  1  0  0  0
 42 43  1  0  0  0
 42 66  1  0  0  0
 42108  1  0  0  0
 42109  1  0  0  0
 43 44  1  0  0  0
 44110  1  0  0  0
 45 46  2  0  0  0
 45111  1  0  0  0
 46112  1  0  0  0
 47113  1  0  0  0
 47114  1  0  0  0
 48 56  1  0  0  0
 48 65  1  0  0  0
 48115  1  0  0  0
 49 50  1  0  0  0
 49 53  1  0  0  0
 49 64  1  0  0  0
 49116  1  0  0  0
 50 51  1  0  0  0
 50117  1  0  0  0
 50118  1  0  0  0
 51 52  1  0  0  0
 51119  1  0  0  0
 51120  1  0  0  0
 52121  1  0  0  0
 52122  1  0  0  0
 53 54  1  0  0  0
 54 55  2  0  0  0
 54123  1  0  0  0
 55 57  1  0  0  0
 55124  1  0  0  0
 56 69  2  0  0  0
 57 58  2  0  0  0
 57125  1  0  0  0
 58126  1  0  0  0
 59 60  1  0  0  0
 59 61  1  0  0  0
 59 62  1  0  0  0
 60127  1  0  0  0
 60128  1  0  0  0
 60129  1  0  0  0
 61130  1  0  0  0
 61131  1  0  0  0
 61132  1  0  0  0
 62133  1  0  0  0
 62134  1  0  0  0
 62135  1  0  0  0
 63 65  1  0  0  0
 63136  1  0  0  0
 63137  1  0  0  0
 63138  1  0  0  0
 64139  1  0  0  0
 65140  1  0  0  0
 68 78  1  0  0  0
 71 73  2  0  0  0
 71 75  1  0  0  0
 71141  1  0  0  0
 72 74  2  0  0  0
 72 79  1  0  0  0
 72142  1  0  0  0
 73 74  1  0  0  0
 73 76  1  0  0  0
 74 81  1  0  0  0
 75 77  1  0  0  0
 75 79  2  0  0  0
 76 78  1  0  0  0
 76143  1  0  0  0
 76144  1  0  0  0
 77 80  1  0  0  0
 77145  1  0  0  0
 77146  1  0  0  0
 78147  1  0  0  0
 78148  1  0  0  0
 80149  1  0  0  0
M  ISO  4   1 100  68 101  78 101  80 100
M  END
> <chiral flag>
0

> <version>
0

> <s_m_source_file>
/data/baiqing/PycharmProjects/Reinvent-master-3.2/result/LINK_invent/BTK/process_docking_weight1_custom_sum_contain_oxygen_bond_distance_aromatic_linkinvent_7_9_3/rearranged_h_0027.sdf

> <i_m_source_file_index>
14

> <r_mmod_Potential_Energy-OPLS-2005>
306.281341552734

> <r_mmod_Stretch_Energy-OPLS-2005>
274.897125244141

> <r_mmod_Bend_Energy-OPLS-2005>
250.739196777344

> <r_mmod_Torsional_Energy-OPLS-2005>
204.223114013672

> <r_mmod_Improper_Torsional_Energy-OPLS-2005>
4.53498840332031

> <r_mmod_Van_der_Waal_Energy-OPLS-2005>
132.987503051758

> <r_mmod_Electrostatic_Energy-OPLS-2005>
-558.916931152344

> <r_mmod_Solvation_Energy-OPLS-2005>
-217.563995361328

> <b_mmod_Minimization_Converged-OPLS-2005>
0

> <r_mmod_RMS_Derivative-OPLS-2005>
4.9721794128418

$$$$
14
                    3D
 Structure written by MMmdl.
150158  0  0  1  0            999 V2000
  -30.5911  -14.8500   20.4317 C   0  0  0  0  0  0
  -30.4315  -12.5214   19.4942 C   0  0  0  0  0  0
  -29.5195  -12.5215   18.2475 C   0  0  0  0  0  0
  -28.0444  -12.3379   18.6542 C   0  0  0  0  0  0
  -27.6340  -13.2503   19.8419 C   0  0  2  0  0  0
  -28.6761  -13.2354   20.9798 C   0  0  0  0  0  0
  -25.2451  -13.8225   20.5686 C   0  0  0  0  0  0
  -24.1769  -13.0450   20.9220 C   0  0  0  0  0  0
  -24.6404  -11.6941   20.8759 C   0  0  0  0  0  0
  -23.9093  -10.4302   21.0407 C   0  0  0  0  0  0
  -24.3644   -9.4215   21.9185 C   0  0  0  0  0  0
  -23.6307   -8.2250   22.0754 C   0  0  0  0  0  0
  -22.4288   -8.0286   21.3539 C   0  0  0  0  0  0
  -21.9929   -9.0269   20.4644 C   0  0  0  0  0  0
  -22.7262  -10.2148   20.3056 C   0  0  0  0  0  0
  -21.6866   -6.0738   22.5273 C   0  0  0  0  0  0
  -21.4023   -6.5634   23.8210 C   0  0  0  0  0  0
  -21.3666   -5.6783   24.9169 C   0  0  0  0  0  0
  -21.6050   -4.3048   24.7216 C   0  0  0  0  0  0
  -21.8813   -3.8144   23.4334 C   0  0  0  0  0  0
  -21.9191   -4.6962   22.3393 C   0  0  0  0  0  0
  -22.7781  -13.5216   21.1868 C   0  0  0  0  0  0
  -22.1651   -4.2149   21.0967 F   0  0  0  0  0  0
  -21.5637   -3.4525   25.7729 F   0  0  0  0  0  0
  -29.9638  -13.6147   20.3875 N   0  0  0  0  0  0
  -26.2898  -12.9470   20.3236 N   0  0  0  0  0  0
  -25.9336  -11.6603   20.5746 N   0  0  0  0  0  0
  -22.0421  -12.8223   22.0435 N   0  0  0  0  0  0
  -25.4091  -15.1956   20.4115 N   0  0  0  0  0  0
  -31.7904  -14.8992   20.1447 O   0  0  0  0  0  0
  -21.6642   -6.8891   21.4239 O   0  0  0  0  0  0
  -22.3464  -14.5510   20.6692 O   0  0  0  0  0  0
  -24.6370  -31.8486   23.1939 C   0  0  0  0  0  0
  -25.9160  -32.4728   23.8303 C   0  0  1  0  0  0
  -27.2138  -27.1904   20.1485 C   0  0  0  0  0  0
  -25.5925  -33.8533   24.2221 N   0  0  0  0  0  0
  -23.4381  -30.4693   21.5389 C   0  0  2  0  0  0
  -24.8868  -28.9059   20.1097 C   0  0  0  0  0  0
  -22.7535  -29.4554   22.4888 C   0  0  0  0  0  0
  -18.0290  -28.1393   22.8481 C   0  0  0  0  0  0
  -24.1487  -36.7278   23.2643 C   0  0  0  0  0  0
  -25.9889  -30.7416   21.3830 C   0  0  0  0  0  0
  -26.0611  -29.3574   20.7254 C   0  0  0  0  0  0
  -27.2269  -28.5138   20.7291 C   0  0  0  0  0  0
  -26.0160  -26.8255   19.4958 C   0  0  0  0  0  0
  -24.8740  -27.6522   19.4801 C   0  0  0  0  0  0
  -23.6614  -29.8022   20.1560 C   0  0  0  0  0  0
  -25.4120  -36.3064   24.0320 C   0  0  1  0  0  0
  -20.5898  -28.3708   23.1265 C   0  0  2  0  0  0
  -20.6781  -26.9416   22.5423 C   0  0  0  0  0  0
  -19.5759  -26.6377   21.5227 C   0  0  0  0  0  0
  -18.1934  -26.7936   22.1627 C   0  0  0  0  0  0
  -19.1544  -28.8869   23.2863 C   0  0  0  0  0  0
  -18.9459  -30.1469   23.8880 C   0  0  0  0  0  0
  -17.6457  -30.6593   24.0565 C   0  0  0  0  0  0
  -25.9060  -34.9429   23.5080 C   0  0  0  0  0  0
  -16.5350  -29.9087   23.6333 C   0  0  0  0  0  0
  -16.7275  -28.6507   23.0348 C   0  0  0  0  0  0
  -26.4500  -31.6578   25.0721 C   0  0  0  0  0  0
  -25.3692  -31.3747   26.1421 C   0  0  0  0  0  0
  -27.0357  -30.2991   24.6252 C   0  0  0  0  0  0
  -27.6042  -32.4325   25.7500 C   0  0  0  0  0  0
  -27.5579  -37.1796   24.8455 C   0  0  0  0  0  0
  -21.4230  -29.3040   22.3640 N   0  0  0  0  0  0
  -26.4293  -37.3766   23.9401 N   0  0  0  0  0  0
  -24.7075  -31.0391   22.0949 N   0  0  0  0  0  0
  -23.4199  -28.8092   23.3014 O   0  0  0  0  0  0
  -28.2833  -26.2460   20.2252 O   0  0  0  0  0  0
  -26.5646  -34.8905   22.4658 O   0  0  0  0  0  0
  -23.5503  -32.1327   23.7199 O   0  0  0  0  0  0
  -29.2023  -21.1391   21.6365 C   0  0  0  0  0  0
  -29.1919  -21.2008   19.2772 C   0  0  0  0  0  0
  -29.0866  -21.9744   20.4762 C   0  0  0  0  0  0
  -29.6787  -18.9610   20.4131 C   0  0  0  0  0  0
  -29.4879  -19.7191   21.6156 C   0  0  0  0  0  0
  -29.4696  -19.7768   19.2426 C   0  0  0  0  0  0
  -29.1457  -23.6091   20.5602 C   0  0  0  0  0  0
  -30.4112  -17.4909   20.3724 C   0  0  0  0  0  0
  -28.0307  -24.7344   20.1018 C   0  0  0  0  0  0
  -29.8602  -16.0469   20.5731 N   0  0  0  0  0  0
  -29.7164  -18.9299   23.1350 Cl  0  0  0  0  0  0
  -29.6497  -19.0615   17.6798 Cl  0  0  0  0  0  0
  -31.4729  -12.6490   19.1929 H   0  0  0  0  0  0
  -30.3873  -11.5602   20.0088 H   0  0  0  0  0  0
  -29.8217  -11.7286   17.5612 H   0  0  0  0  0  0
  -29.6364  -13.4599   17.7021 H   0  0  0  0  0  0
  -27.9074  -11.2917   18.9274 H   0  0  0  0  0  0
  -27.3927  -12.5164   17.7983 H   0  0  0  0  0  0
  -27.6124  -14.2659   19.4450 H   0  0  0  0  0  0
  -28.7371  -12.2501   21.4438 H   0  0  0  0  0  0
  -28.3950  -13.9318   21.7716 H   0  0  0  0  0  0
  -25.2803   -9.5678   22.4757 H   0  0  0  0  0  0
  -24.0012   -7.4647   22.7478 H   0  0  0  0  0  0
  -21.0858   -8.8808   19.8965 H   0  0  0  0  0  0
  -22.3736  -10.9691   19.6160 H   0  0  0  0  0  0
  -21.2019   -7.6142   23.9714 H   0  0  0  0  0  0
  -21.1497   -6.0510   25.9076 H   0  0  0  0  0  0
  -22.0592   -2.7604   23.2827 H   0  0  0  0  0  0
  -22.4046  -11.9915   22.4873 H   0  0  0  0  0  0
  -21.1026  -13.1245   22.2603 H   0  0  0  0  0  0
  -24.6375  -15.8442   20.5253 H   0  0  0  0  0  0
  -26.2471  -15.6405   20.0612 H   0  0  0  0  0  0
  -26.7225  -32.5353   23.1035 H   0  0  0  0  0  0
  -25.0040  -33.9649   25.0350 H   0  0  0  0  0  0
  -22.7387  -31.2947   21.3906 H   0  0  0  0  0  0
  -23.3757  -35.9599   23.3288 H   0  0  0  0  0  0
  -24.3588  -36.8927   22.2063 H   0  0  0  0  0  0
  -23.7225  -37.6466   23.6686 H   0  0  0  0  0  0
  -26.1314  -31.4968   20.6089 H   0  0  0  0  0  0
  -26.8655  -30.7962   22.0174 H   0  0  0  0  0  0
  -28.1231  -28.8513   21.2309 H   0  0  0  0  0  0
  -25.9302  -25.8661   19.0087 H   0  0  0  0  0  0
  -23.9764  -27.3050   18.9873 H   0  0  0  0  0  0
  -23.7940  -30.5793   19.4023 H   0  0  0  0  0  0
  -22.7765  -29.2434   19.8472 H   0  0  0  0  0  0
  -25.1308  -36.1910   25.0816 H   0  0  0  0  0  0
  -20.9989  -28.3295   24.1389 H   0  0  0  0  0  0
  -20.5693  -26.2309   23.3630 H   0  0  0  0  0  0
  -21.6641  -26.7438   22.1207 H   0  0  0  0  0  0
  -19.6918  -25.6283   21.1266 H   0  0  0  0  0  0
  -19.6708  -27.3181   20.6754 H   0  0  0  0  0  0
  -17.4209  -26.6676   21.4028 H   0  0  0  0  0  0
  -18.0327  -26.0090   22.9032 H   0  0  0  0  0  0
  -19.7930  -30.7294   24.2239 H   0  0  0  0  0  0
  -17.5004  -31.6274   24.5175 H   0  0  0  0  0  0
  -15.5349  -30.2984   23.7668 H   0  0  0  0  0  0
  -15.8671  -28.0834   22.7057 H   0  0  0  0  0  0
  -24.5865  -30.7111   25.7729 H   0  0  0  0  0  0
  -24.8879  -32.2921   26.4820 H   0  0  0  0  0  0
  -25.7968  -30.8925   27.0218 H   0  0  0  0  0  0
  -26.2961  -29.6731   24.1247 H   0  0  0  0  0  0
  -27.3992  -29.7271   25.4798 H   0  0  0  0  0  0
  -27.8852  -30.4260   23.9537 H   0  0  0  0  0  0
  -27.2652  -33.3634   26.2051 H   0  0  0  0  0  0
  -28.3863  -32.6868   25.0337 H   0  0  0  0  0  0
  -28.0693  -31.8466   26.5437 H   0  0  0  0  0  0
  -28.2581  -38.0110   24.7528 H   0  0  0  0  0  0
  -28.1090  -36.2641   24.6252 H   0  0  0  0  0  0
  -27.2294  -37.1408   25.8856 H   0  0  0  0  0  0
  -20.9424  -29.8763   21.6838 H   0  0  0  0  0  0
  -26.0166  -38.2832   24.1428 H   0  0  0  0  0  0
  -29.1615  -21.6177   22.6053 H   0  0  0  0  0  0
  -29.1430  -21.7253   18.3330 H   0  0  0  0  0  0
  -30.0676  -23.8770   20.0447 H   0  0  0  0  0  0
  -29.3585  -23.8291   21.6069 H   0  0  0  0  0  0
  -31.2189  -17.5749   21.1001 H   0  0  0  0  0  0
  -30.9466  -17.4554   19.4238 H   0  0  0  0  0  0
  -27.1191  -24.5144   20.6600 H   0  0  0  0  0  0
  -27.7938  -24.5391   19.0562 H   0  0  0  0  0  0
  -28.8760  -15.9591   20.7701 H   0  0  0  0  0  0
  1 25  1  0  0  0
  1 30  2  0  0  0
  1 80  1  0  0  0
  2  3  1  0  0  0
  2 25  1  0  0  0
  2 83  1  0  0  0
  2 84  1  0  0  0
  3  4  1  0  0  0
  3 85  1  0  0  0
  3 86  1  0  0  0
  4  5  1  0  0  0
  4 87  1  0  0  0
  4 88  1  0  0  0
  5  6  1  0  0  0
  5 26  1  0  0  0
  5 89  1  0  0  0
  6 25  1  0  0  0
  6 90  1  0  0  0
  6 91  1  0  0  0
  7  8  2  0  0  0
  7 26  1  0  0  0
  7 29  1  0  0  0
  8  9  1  0  0  0
  8 22  1  0  0  0
  9 10  1  0  0  0
  9 27  2  0  0  0
 10 11  2  0  0  0
 10 15  1  0  0  0
 11 12  1  0  0  0
 11 92  1  0  0  0
 12 13  2  0  0  0
 12 93  1  0  0  0
 13 14  1  0  0  0
 13 31  1  0  0  0
 14 15  2  0  0  0
 14 94  1  0  0  0
 15 95  1  0  0  0
 16 17  2  0  0  0
 16 21  1  0  0  0
 16 31  1  0  0  0
 17 18  1  0  0  0
 17 96  1  0  0  0
 18 19  2  0  0  0
 18 97  1  0  0  0
 19 20  1  0  0  0
 19 24  1  0  0  0
 20 21  2  0  0  0
 20 98  1  0  0  0
 21 23  1  0  0  0
 22 28  1  0  0  0
 22 32  2  0  0  0
 26 27  1  0  0  0
 28 99  1  0  0  0
 28100  1  0  0  0
 29101  1  0  0  0
 29102  1  0  0  0
 33 34  1  0  0  0
 33 66  1  0  0  0
 33 70  2  0  0  0
 34 36  1  0  0  0
 34 59  1  0  0  0
 34103  1  0  0  0
 35 44  2  0  0  0
 35 45  1  0  0  0
 35 68  1  0  0  0
 36 56  1  0  0  0
 36104  1  0  0  0
 37 39  1  0  0  0
 37 47  1  0  0  0
 37 66  1  0  0  0
 37105  1  0  0  0
 38 43  2  0  0  0
 38 46  1  0  0  0
 38 47  1  0  0  0
 39 64  1  0  0  0
 39 67  2  0  0  0
 40 52  1  0  0  0
 40 53  2  0  0  0
 40 58  1  0  0  0
 41106  1  0  0  0
 41107  1  0  0  0
 41108  1  0  0  0
 41 48  1  0  0  0
 42 43  1  0  0  0
 42 66  1  0  0  0
 42109  1  0  0  0
 42110  1  0  0  0
 43 44  1  0  0  0
 44111  1  0  0  0
 45 46  2  0  0  0
 45112  1  0  0  0
 46113  1  0  0  0
 47114  1  0  0  0
 47115  1  0  0  0
 48 56  1  0  0  0
 48 65  1  0  0  0
 48116  1  0  0  0
 49 50  1  0  0  0
 49 53  1  0  0  0
 49 64  1  0  0  0
 49117  1  0  0  0
 50 51  1  0  0  0
 50118  1  0  0  0
 50119  1  0  0  0
 51 52  1  0  0  0
 51120  1  0  0  0
 51121  1  0  0  0
 52122  1  0  0  0
 52123  1  0  0  0
 53 54  1  0  0  0
 54 55  2  0  0  0
 54124  1  0  0  0
 55 57  1  0  0  0
 55125  1  0  0  0
 56 69  2  0  0  0
 57 58  2  0  0  0
 57126  1  0  0  0
 58127  1  0  0  0
 59 60  1  0  0  0
 59 61  1  0  0  0
 59 62  1  0  0  0
 60128  1  0  0  0
 60129  1  0  0  0
 60130  1  0  0  0
 61131  1  0  0  0
 61132  1  0  0  0
 61133  1  0  0  0
 62134  1  0  0  0
 62135  1  0  0  0
 62136  1  0  0  0
 63 65  1  0  0  0
 63137  1  0  0  0
 63138  1  0  0  0
 63139  1  0  0  0
 64140  1  0  0  0
 65141  1  0  0  0
 68 79  1  0  0  0
 71 73  2  0  0  0
 71 75  1  0  0  0
 71142  1  0  0  0
 72 73  1  0  0  0
 72 76  2  0  0  0
 72143  1  0  0  0
 73 77  1  0  0  0
 74 75  2  0  0  0
 74 76  1  0  0  0
 74 78  1  0  0  0
 75 81  1  0  0  0
 76 82  1  0  0  0
 77 79  1  0  0  0
 77144  1  0  0  0
 77145  1  0  0  0
 78 80  1  0  0  0
 78146  1  0  0  0
 78147  1  0  0  0
 79148  1  0  0  0
 79149  1  0  0  0
 80150  1  0  0  0
M  ISO  4   1 100  68 101  79 101  80 100
M  END
> <chiral flag>
0

> <version>
0

> <s_m_source_file>
/data/baiqing/PycharmProjects/Reinvent-master-3.2/result/LINK_invent/BTK/process_docking_weight1_custom_sum_contain_oxygen_bond_distance_aromatic_linkinvent_7_9_3/rearranged_h_0027.sdf

> <i_m_source_file_index>
15

> <r_mmod_Potential_Energy-OPLS-2005>
350.174652099609

> <r_mmod_Stretch_Energy-OPLS-2005>
182.834915161133

> <r_mmod_Bend_Energy-OPLS-2005>
229.239868164062

> <r_mmod_Torsional_Energy-OPLS-2005>
224.670303344727

> <r_mmod_Improper_Torsional_Energy-OPLS-2005>
9.78382587432861

> <r_mmod_Van_der_Waal_Energy-OPLS-2005>
133.140899658203

> <r_mmod_Electrostatic_Energy-OPLS-2005>
-362.283416748047

> <r_mmod_Solvation_Energy-OPLS-2005>
-204.640426635742

> <b_mmod_Minimization_Converged-OPLS-2005>
0

> <r_mmod_RMS_Derivative-OPLS-2005>
1.88802683353424

$$$$
15
                    3D
 Structure written by MMmdl.
186194  0  0  1  0            999 V2000
  -30.7373  -14.3973   20.5543 C   0  0  0  0  0  0
  -30.4145  -12.2572   19.4051 C   0  0  0  0  0  0
  -29.4883  -12.4868   18.1961 C   0  0  0  0  0  0
  -28.0099  -12.3601   18.6149 C   0  0  0  0  0  0
  -27.6645  -13.1954   19.8755 C   0  0  2  0  0  0
  -28.7117  -12.9746   20.9934 C   0  0  0  0  0  0
  -25.2637  -13.8074   20.5720 C   0  0  0  0  0  0
  -24.1854  -13.0399   20.9182 C   0  0  0  0  0  0
  -24.6389  -11.6858   20.8730 C   0  0  0  0  0  0
  -23.9027  -10.4262   21.0405 C   0  0  0  0  0  0
  -24.3569   -9.4170   21.9194 C   0  0  0  0  0  0
  -23.6252   -8.2203   22.0732 C   0  0  0  0  0  0
  -22.4246   -8.0229   21.3517 C   0  0  0  0  0  0
  -21.9877   -9.0217   20.4631 C   0  0  0  0  0  0
  -22.7186  -10.2099   20.3061 C   0  0  0  0  0  0
  -21.6842   -6.0707   22.5269 C   0  0  0  0  0  0
  -21.4011   -6.5618   23.8199 C   0  0  0  0  0  0
  -21.3679   -5.6786   24.9172 C   0  0  0  0  0  0
  -21.6042   -4.3033   24.7238 C   0  0  0  0  0  0
  -21.8815   -3.8123   23.4356 C   0  0  0  0  0  0
  -21.9178   -4.6928   22.3406 C   0  0  0  0  0  0
  -22.7882  -13.5230   21.1853 C   0  0  0  0  0  0
  -22.1645   -4.2113   21.0986 F   0  0  0  0  0  0
  -21.5645   -3.4531   25.7752 F   0  0  0  0  0  0
  -30.0442  -13.2394   20.4285 N   0  0  0  0  0  0
  -26.3069  -12.9251   20.3425 N   0  0  0  0  0  0
  -25.9311  -11.6417   20.5787 N   0  0  0  0  0  0
  -22.0510  -12.8232   22.0415 N   0  0  0  0  0  0
  -25.4450  -15.1780   20.4133 N   0  0  0  0  0  0
  -31.8893  -14.5554   20.1476 O   0  0  0  0  0  0
  -21.6608   -6.8831   21.4221 O   0  0  0  0  0  0
  -22.3617  -14.5576   20.6744 O   0  0  0  0  0  0
  -24.6169  -31.8700   23.2129 C   0  0  0  0  0  0
  -25.9068  -32.4822   23.8407 C   0  0  1  0  0  0
  -27.2161  -27.4410   20.0499 C   0  0  0  0  0  0
  -25.5929  -33.8624   24.2335 N   0  0  0  0  0  0
  -23.3999  -30.4991   21.5590 C   0  0  2  0  0  0
  -24.8320  -28.9642   20.1263 C   0  0  0  0  0  0
  -22.7416  -29.4691   22.5045 C   0  0  0  0  0  0
  -18.0265  -28.1396   22.8487 C   0  0  0  0  0  0
  -24.1492  -36.7312   23.2636 C   0  0  0  0  0  0
  -25.9309  -30.8334   21.3620 C   0  0  0  0  0  0
  -26.0006  -29.4690   20.7074 C   0  0  0  0  0  0
  -27.1977  -28.7156   20.6633 C   0  0  0  0  0  0
  -25.9994  -26.9199   19.5532 C   0  0  0  0  0  0
  -24.8217  -27.6829   19.5564 C   0  0  0  0  0  0
  -23.6003  -29.8378   20.1718 C   0  0  0  0  0  0
  -25.4112  -36.3110   24.0344 C   0  0  1  0  0  0
  -20.5860  -28.3676   23.1339 C   0  0  2  0  0  0
  -20.6753  -26.9411   22.5485 C   0  0  0  0  0  0
  -19.5770  -26.6360   21.5240 C   0  0  0  0  0  0
  -18.1923  -26.7933   22.1625 C   0  0  0  0  0  0
  -19.1526  -28.8855   23.2895 C   0  0  0  0  0  0
  -18.9451  -30.1462   23.8920 C   0  0  0  0  0  0
  -17.6449  -30.6596   24.0576 C   0  0  0  0  0  0
  -25.9047  -34.9478   23.5136 C   0  0  0  0  0  0
  -16.5350  -29.9087   23.6352 C   0  0  0  0  0  0
  -16.7266  -28.6530   23.0331 C   0  0  0  0  0  0
  -26.4470  -31.6599   25.0734 C   0  0  0  0  0  0
  -25.3719  -31.3716   26.1477 C   0  0  0  0  0  0
  -27.0299  -30.3048   24.6095 C   0  0  0  0  0  0
  -27.6057  -32.4308   25.7478 C   0  0  0  0  0  0
  -27.5585  -37.1814   24.8468 C   0  0  0  0  0  0
  -21.4148  -29.3053   22.3776 N   0  0  0  0  0  0
  -26.4298  -37.3795   23.9406 N   0  0  0  0  0  0
  -24.6684  -31.0816   22.1026 N   0  0  0  0  0  0
  -23.4211  -28.8247   23.3087 O   0  0  0  0  0  0
  -28.4168  -26.7645   19.9471 O   0  0  0  0  0  0
  -26.5579  -34.8919   22.4685 O   0  0  0  0  0  0
  -23.5358  -32.1468   23.7533 O   0  0  0  0  0  0
  -28.9090  -18.0884   21.4884 C   0  0  0  0  0  0
  -29.1454  -17.7583   20.1409 C   0  0  0  0  0  0
  -27.9171  -20.2277   20.8211 C   0  0  0  0  0  0
  -28.1417  -19.8972   19.4524 C   0  0  0  0  0  0
  -28.2956  -19.3062   21.8282 C   0  0  0  0  0  0
  -28.7573  -18.6632   19.1239 C   0  0  0  0  0  0
  -27.2663  -21.5420   21.2427 C   0  0  0  0  0  0
  -27.7271  -20.8488   18.3243 C   0  0  0  0  0  0
  -29.8309  -16.4525   19.7576 C   0  0  0  0  0  0
  -26.2990  -20.5971   17.7894 C   0  0  0  0  0  0
  -25.3995  -21.8541   17.7566 C   0  0  0  0  0  0
  -24.4306  -21.8592   16.5615 C   0  0  0  0  0  0
  -23.6104  -23.1587   16.4020 C   0  0  0  0  0  0
  -23.0461  -23.3368   14.9724 C   0  0  0  0  0  0
  -23.6939  -24.4772   14.1512 C   0  0  0  0  0  0
  -25.2437  -24.4626   14.1184 C   0  0  0  0  0  0
  -25.8769  -25.6817   14.8243 C   0  0  0  0  0  0
  -27.2848  -25.4439   15.4228 C   0  0  0  0  0  0
  -27.2643  -25.6659   16.9474 C   0  0  0  0  0  0
  -28.6055  -25.5533   17.7024 C   0  0  0  0  0  0
  -28.4919  -25.5016   19.2567 C   0  0  0  0  0  0
  -29.9811  -15.4615   20.8225 N   0  0  0  0  0  0
  -28.0157  -19.6302   23.5033 Cl  0  0  0  0  0  0
  -29.0442  -18.2369   17.4668 Cl  0  0  0  0  0  0
  -31.4605  -12.3397   19.1037 H   0  0  0  0  0  0
  -30.2920  -11.2442   19.7929 H   0  0  0  0  0  0
  -29.7153  -11.7639   17.4124 H   0  0  0  0  0  0
  -29.6720  -13.4736   17.7674 H   0  0  0  0  0  0
  -27.8157  -11.3022   18.8108 H   0  0  0  0  0  0
  -27.3598  -12.6415   17.7882 H   0  0  0  0  0  0
  -27.7032  -14.2418   19.5741 H   0  0  0  0  0  0
  -28.5053  -13.6149   21.8527 H   0  0  0  0  0  0
  -28.6674  -11.9483   21.3625 H   0  0  0  0  0  0
  -25.2717   -9.5625   22.4791 H   0  0  0  0  0  0
  -23.9942   -7.4600   22.7469 H   0  0  0  0  0  0
  -21.0790   -8.8715   19.8979 H   0  0  0  0  0  0
  -22.3627  -10.9629   19.6165 H   0  0  0  0  0  0
  -21.2008   -7.6126   23.9680 H   0  0  0  0  0  0
  -21.1525   -6.0529   25.9071 H   0  0  0  0  0  0
  -22.0592   -2.7576   23.2872 H   0  0  0  0  0  0
  -22.4097  -11.9883   22.4816 H   0  0  0  0  0  0
  -21.1140  -13.1282   22.2643 H   0  0  0  0  0  0
  -24.6948  -15.8464   20.5442 H   0  0  0  0  0  0
  -26.3257  -15.6096   20.1650 H   0  0  0  0  0  0
  -26.7139  -32.5517   23.1165 H   0  0  0  0  0  0
  -25.0103  -33.9796   25.0492 H   0  0  0  0  0  0
  -22.6886  -31.3174   21.4245 H   0  0  0  0  0  0
  -23.3754  -35.9650   23.3309 H   0  0  0  0  0  0
  -24.3593  -36.8911   22.2049 H   0  0  0  0  0  0
  -23.7255  -37.6526   23.6633 H   0  0  0  0  0  0
  -26.0435  -31.6011   20.5949 H   0  0  0  0  0  0
  -26.8195  -30.8817   21.9804 H   0  0  0  0  0  0
  -28.1071  -29.1183   21.0886 H   0  0  0  0  0  0
  -25.9242  -25.9284   19.1445 H   0  0  0  0  0  0
  -23.9114  -27.2755   19.1360 H   0  0  0  0  0  0
  -23.7181  -30.6137   19.4150 H   0  0  0  0  0  0
  -22.7195  -29.2644   19.8746 H   0  0  0  0  0  0
  -25.1291  -36.1974   25.0840 H   0  0  0  0  0  0
  -20.9945  -28.3284   24.1467 H   0  0  0  0  0  0
  -20.5613  -26.2317   23.3691 H   0  0  0  0  0  0
  -21.6647  -26.7451   22.1323 H   0  0  0  0  0  0
  -19.6938  -25.6286   21.1254 H   0  0  0  0  0  0
  -19.6734  -27.3173   20.6781 H   0  0  0  0  0  0
  -17.4225  -26.6684   21.3994 H   0  0  0  0  0  0
  -18.0288  -26.0090   22.9019 H   0  0  0  0  0  0
  -19.7933  -30.7288   24.2269 H   0  0  0  0  0  0
  -17.5036  -31.6288   24.5179 H   0  0  0  0  0  0
  -15.5363  -30.3021   23.7705 H   0  0  0  0  0  0
  -15.8654  -28.0894   22.7002 H   0  0  0  0  0  0
  -24.5878  -30.7084   25.7796 H   0  0  0  0  0  0
  -24.8931  -32.2885   26.4927 H   0  0  0  0  0  0
  -25.8062  -30.8858   27.0231 H   0  0  0  0  0  0
  -26.2852  -29.6816   24.1128 H   0  0  0  0  0  0
  -27.4061  -29.7264   25.4544 H   0  0  0  0  0  0
  -27.8680  -30.4382   23.9254 H   0  0  0  0  0  0
  -27.2696  -33.3601   26.2096 H   0  0  0  0  0  0
  -28.3834  -32.6897   25.0275 H   0  0  0  0  0  0
  -28.0760  -31.8407   26.5356 H   0  0  0  0  0  0
  -28.2610  -38.0097   24.7507 H   0  0  0  0  0  0
  -28.1069  -36.2640   24.6302 H   0  0  0  0  0  0
  -27.2302  -37.1475   25.8866 H   0  0  0  0  0  0
  -20.9251  -29.8751   21.7019 H   0  0  0  0  0  0
  -26.0186  -38.2874   24.1396 H   0  0  0  0  0  0
  -29.1905  -17.4157   22.2827 H   0  0  0  0  0  0
  -26.1957  -21.4030   21.3939 H   0  0  0  0  0  0
  -27.3978  -22.3487   20.5300 H   0  0  0  0  0  0
  -27.6952  -21.9087   22.1750 H   0  0  0  0  0  0
  -28.4243  -20.7457   17.4943 H   0  0  0  0  0  0
  -27.8873  -21.8872   18.5997 H   0  0  0  0  0  0
  -30.8042  -16.7128   19.3384 H   0  0  0  0  0  0
  -29.2669  -15.9870   18.9470 H   0  0  0  0  0  0
  -25.8006  -19.8094   18.3555 H   0  0  0  0  0  0
  -26.3989  -20.1866   16.7858 H   0  0  0  0  0  0
  -24.8428  -21.9323   18.6928 H   0  0  0  0  0  0
  -26.0189  -22.7480   17.6968 H   0  0  0  0  0  0
  -23.7503  -21.0081   16.6304 H   0  0  0  0  0  0
  -25.0204  -21.7006   15.6585 H   0  0  0  0  0  0
  -24.2087  -24.0312   16.6689 H   0  0  0  0  0  0
  -22.7860  -23.1471   17.1160 H   0  0  0  0  0  0
  -21.9734  -23.5277   15.0314 H   0  0  0  0  0  0
  -23.1275  -22.3984   14.4215 H   0  0  0  0  0  0
  -23.3197  -25.4336   14.5203 H   0  0  0  0  0  0
  -23.3187  -24.4141   13.1277 H   0  0  0  0  0  0
  -25.5892  -24.4342   13.0843 H   0  0  0  0  0  0
  -25.6140  -23.5415   14.5607 H   0  0  0  0  0  0
  -25.2074  -26.0169   15.6182 H   0  0  0  0  0  0
  -25.9129  -26.5189   14.1265 H   0  0  0  0  0  0
  -27.9983  -26.1281   14.9611 H   0  0  0  0  0  0
  -27.6391  -24.4380   15.1920 H   0  0  0  0  0  0
  -26.5681  -24.9383   17.3627 H   0  0  0  0  0  0
  -26.8527  -26.6582   17.1276 H   0  0  0  0  0  0
  -29.2828  -26.3533   17.3990 H   0  0  0  0  0  0
  -29.0836  -24.6249   17.3843 H   0  0  0  0  0  0
  -29.4117  -25.0435   19.6221 H   0  0  0  0  0  0
  -27.7146  -24.8099   19.5830 H   0  0  0  0  0  0
  -30.2089  -15.8817   21.7122 H   0  0  0  0  0  0
  1 25  1  0  0  0
  1 30  2  0  0  0
  1 92  1  0  0  0
  2  3  1  0  0  0
  2 25  1  0  0  0
  2 95  1  0  0  0
  2 96  1  0  0  0
  3  4  1  0  0  0
  3 97  1  0  0  0
  3 98  1  0  0  0
  4  5  1  0  0  0
  4 99  1  0  0  0
  4100  1  0  0  0
  5  6  1  0  0  0
  5 26  1  0  0  0
  5101  1  0  0  0
  6 25  1  0  0  0
  6102  1  0  0  0
  6103  1  0  0  0
  7  8  2  0  0  0
  7 26  1  0  0  0
  7 29  1  0  0  0
  8  9  1  0  0  0
  8 22  1  0  0  0
  9 10  1  0  0  0
  9 27  2  0  0  0
 10 11  2  0  0  0
 10 15  1  0  0  0
 11 12  1  0  0  0
 11104  1  0  0  0
 12 13  2  0  0  0
 12105  1  0  0  0
 13 14  1  0  0  0
 13 31  1  0  0  0
 14 15  2  0  0  0
 14106  1  0  0  0
 15107  1  0  0  0
 16 17  2  0  0  0
 16 21  1  0  0  0
 16 31  1  0  0  0
 17 18  1  0  0  0
 17108  1  0  0  0
 18 19  2  0  0  0
 18109  1  0  0  0
 19 20  1  0  0  0
 19 24  1  0  0  0
 20 21  2  0  0  0
 20110  1  0  0  0
 21 23  1  0  0  0
 22 28  1  0  0  0
 22 32  2  0  0  0
 26 27  1  0  0  0
 28111  1  0  0  0
 28112  1  0  0  0
 29113  1  0  0  0
 29114  1  0  0  0
 33 34  1  0  0  0
 33 66  1  0  0  0
 33 70  2  0  0  0
 34 36  1  0  0  0
 34 59  1  0  0  0
 34115  1  0  0  0
 35 44  2  0  0  0
 35 45  1  0  0  0
 35 68  1  0  0  0
 36 56  1  0  0  0
 36116  1  0  0  0
 37 39  1  0  0  0
 37 47  1  0  0  0
 37 66  1  0  0  0
 37117  1  0  0  0
 38 43  2  0  0  0
 38 46  1  0  0  0
 38 47  1  0  0  0
 39 64  1  0  0  0
 39 67  2  0  0  0
 40 52  1  0  0  0
 40 53  2  0  0  0
 40 58  1  0  0  0
 41118  1  0  0  0
 41119  1  0  0  0
 41120  1  0  0  0
 41 48  1  0  0  0
 42 43  1  0  0  0
 42 66  1  0  0  0
 42121  1  0  0  0
 42122  1  0  0  0
 43 44  1  0  0  0
 44123  1  0  0  0
 45 46  2  0  0  0
 45124  1  0  0  0
 46125  1  0  0  0
 47126  1  0  0  0
 47127  1  0  0  0
 48 56  1  0  0  0
 48 65  1  0  0  0
 48128  1  0  0  0
 49 50  1  0  0  0
 49 53  1  0  0  0
 49 64  1  0  0  0
 49129  1  0  0  0
 50 51  1  0  0  0
 50130  1  0  0  0
 50131  1  0  0  0
 51 52  1  0  0  0
 51132  1  0  0  0
 51133  1  0  0  0
 52134  1  0  0  0
 52135  1  0  0  0
 53 54  1  0  0  0
 54 55  2  0  0  0
 54136  1  0  0  0
 55 57  1  0  0  0
 55137  1  0  0  0
 56 69  2  0  0  0
 57 58  2  0  0  0
 57138  1  0  0  0
 58139  1  0  0  0
 59 60  1  0  0  0
 59 61  1  0  0  0
 59 62  1  0  0  0
 60140  1  0  0  0
 60141  1  0  0  0
 60142  1  0  0  0
 61143  1  0  0  0
 61144  1  0  0  0
 61145  1  0  0  0
 62146  1  0  0  0
 62147  1  0  0  0
 62148  1  0  0  0
 63 65  1  0  0  0
 63149  1  0  0  0
 63150  1  0  0  0
 63151  1  0  0  0
 64152  1  0  0  0
 65153  1  0  0  0
 68 91  1  0  0  0
 71 72  2  0  0  0
 71 75  1  0  0  0
 71154  1  0  0  0
 72 76  1  0  0  0
 72 79  1  0  0  0
 73 74  1  0  0  0
 73 75  2  0  0  0
 73 77  1  0  0  0
 74 76  2  0  0  0
 74 78  1  0  0  0
 75 93  1  0  0  0
 76 94  1  0  0  0
 77155  1  0  0  0
 77156  1  0  0  0
 77157  1  0  0  0
 78 80  1  0  0  0
 78158  1  0  0  0
 78159  1  0  0  0
 79 92  1  0  0  0
 79160  1  0  0  0
 79161  1  0  0  0
 80 81  1  0  0  0
 80162  1  0  0  0
 80163  1  0  0  0
 81 82  1  0  0  0
 81164  1  0  0  0
 81165  1  0  0  0
 82 83  1  0  0  0
 82166  1  0  0  0
 82167  1  0  0  0
 83 84  1  0  0  0
 83168  1  0  0  0
 83169  1  0  0  0
 84 85  1  0  0  0
 84170  1  0  0  0
 84171  1  0  0  0
 85 86  1  0  0  0
 85172  1  0  0  0
 85173  1  0  0  0
 86 87  1  0  0  0
 86174  1  0  0  0
 86175  1  0  0  0
 87 88  1  0  0  0
 87176  1  0  0  0
 87177  1  0  0  0
 88 89  1  0  0  0
 88178  1  0  0  0
 88179  1  0  0  0
 89 90  1  0  0  0
 89180  1  0  0  0
 89181  1  0  0  0
 90 91  1  0  0  0
 90182  1  0  0  0
 90183  1  0  0  0
 91184  1  0  0  0
 91185  1  0  0  0
 92186  1  0  0  0
M  ISO  4   1 100  68 101  91 101  92 100
M  END
> <chiral flag>
0

> <version>
0

> <s_m_source_file>
/data/baiqing/PycharmProjects/Reinvent-master-3.2/result/LINK_invent/BTK/process_docking_weight1_custom_sum_contain_oxygen_bond_distance_aromatic_linkinvent_7_9_3/rearranged_h_0027.sdf

> <i_m_source_file_index>
16

> <r_mmod_Potential_Energy-OPLS-2005>
92.2642593383789

> <r_mmod_Stretch_Energy-OPLS-2005>
39.0642395019531

> <r_mmod_Bend_Energy-OPLS-2005>
121.043228149414

> <r_mmod_Torsional_Energy-OPLS-2005>
326.750366210938

> <r_mmod_Improper_Torsional_Energy-OPLS-2005>
13.3610792160034

> <r_mmod_Van_der_Waal_Energy-OPLS-2005>
163.722869873047

> <r_mmod_Electrostatic_Energy-OPLS-2005>
-397.872009277344

> <r_mmod_Solvation_Energy-OPLS-2005>
-189.314849853516

> <b_mmod_Minimization_Converged-OPLS-2005>
0

> <r_mmod_RMS_Derivative-OPLS-2005>
4.49930095672607

$$$$
16
                    3D
 Structure written by MMmdl.
154162  0  0  1  0            999 V2000
  -30.6188  -14.7312   20.4586 C   0  0  0  0  0  0
  -30.4316  -12.4463   19.4796 C   0  0  0  0  0  0
  -29.5102  -12.5094   18.2410 C   0  0  0  0  0  0
  -28.0371  -12.3318   18.6552 C   0  0  0  0  0  0
  -27.6436  -13.2322   19.8567 C   0  0  2  0  0  0
  -28.6874  -13.1658   20.9944 C   0  0  0  0  0  0
  -25.2509  -13.8201   20.5697 C   0  0  0  0  0  0
  -24.1799  -13.0445   20.9205 C   0  0  0  0  0  0
  -24.6390  -11.6924   20.8759 C   0  0  0  0  0  0
  -23.9071  -10.4298   21.0416 C   0  0  0  0  0  0
  -24.3622   -9.4210   21.9194 C   0  0  0  0  0  0
  -23.6298   -8.2245   22.0760 C   0  0  0  0  0  0
  -22.4283   -8.0289   21.3543 C   0  0  0  0  0  0
  -21.9924   -9.0262   20.4644 C   0  0  0  0  0  0
  -22.7249  -10.2141   20.3062 C   0  0  0  0  0  0
  -21.6851   -6.0744   22.5269 C   0  0  0  0  0  0
  -21.4005   -6.5639   23.8205 C   0  0  0  0  0  0
  -21.3662   -5.6791   24.9166 C   0  0  0  0  0  0
  -21.6053   -4.3055   24.7212 C   0  0  0  0  0  0
  -21.8817   -3.8149   23.4331 C   0  0  0  0  0  0
  -21.9189   -4.6971   22.3391 C   0  0  0  0  0  0
  -22.7820  -13.5230   21.1861 C   0  0  0  0  0  0
  -22.1661   -4.2161   21.0969 F   0  0  0  0  0  0
  -21.5639   -3.4542   25.7727 F   0  0  0  0  0  0
  -29.9919  -13.5070   20.4145 N   0  0  0  0  0  0
  -26.2947  -12.9409   20.3322 N   0  0  0  0  0  0
  -25.9328  -11.6547   20.5784 N   0  0  0  0  0  0
  -22.0459  -12.8216   22.0414 N   0  0  0  0  0  0
  -25.4184  -15.1924   20.4084 N   0  0  0  0  0  0
  -31.8013  -14.8300   20.1207 O   0  0  0  0  0  0
  -21.6638   -6.8893   21.4236 O   0  0  0  0  0  0
  -22.3500  -14.5538   20.6717 O   0  0  0  0  0  0
  -24.6332  -31.8538   23.1998 C   0  0  0  0  0  0
  -25.9158  -32.4739   23.8333 C   0  0  1  0  0  0
  -27.2139  -27.2571   20.1296 C   0  0  0  0  0  0
  -25.5955  -33.8539   24.2261 N   0  0  0  0  0  0
  -23.4287  -30.4778   21.5438 C   0  0  2  0  0  0
  -24.8746  -28.9300   20.1064 C   0  0  0  0  0  0
  -22.7513  -29.4582   22.4923 C   0  0  0  0  0  0
  -18.0288  -28.1392   22.8484 C   0  0  0  0  0  0
  -24.1479  -36.7273   23.2638 C   0  0  0  0  0  0
  -25.9743  -30.7674   21.3784 C   0  0  0  0  0  0
  -26.0465  -29.3894   20.7214 C   0  0  0  0  0  0
  -27.2172  -28.5652   20.7243 C   0  0  0  0  0  0
  -26.0235  -26.8757   19.4697 C   0  0  0  0  0  0
  -24.8704  -27.6827   19.4669 C   0  0  0  0  0  0
  -23.6462  -29.8171   20.1571 C   0  0  0  0  0  0
  -25.4104  -36.3051   24.0328 C   0  0  1  0  0  0
  -20.5893  -28.3691   23.1286 C   0  0  2  0  0  0
  -20.6782  -26.9410   22.5413 C   0  0  0  0  0  0
  -19.5753  -26.6385   21.5222 C   0  0  0  0  0  0
  -18.1925  -26.7932   22.1626 C   0  0  0  0  0  0
  -19.1543  -28.8864   23.2873 C   0  0  0  0  0  0
  -18.9462  -30.1474   23.8867 C   0  0  0  0  0  0
  -17.6462  -30.6586   24.0570 C   0  0  0  0  0  0
  -25.9058  -34.9427   23.5093 C   0  0  0  0  0  0
  -16.5356  -29.9079   23.6342 C   0  0  0  0  0  0
  -16.7273  -28.6512   23.0337 C   0  0  0  0  0  0
  -26.4527  -31.6559   25.0723 C   0  0  0  0  0  0
  -25.3744  -31.3682   26.1444 C   0  0  0  0  0  0
  -27.0393  -30.2981   24.6196 C   0  0  0  0  0  0
  -27.6080  -32.4297   25.7491 C   0  0  0  0  0  0
  -27.5566  -37.1790   24.8466 C   0  0  0  0  0  0
  -21.4219  -29.3037   22.3684 N   0  0  0  0  0  0
  -26.4270  -37.3760   23.9419 N   0  0  0  0  0  0
  -24.6978  -31.0508   22.0972 N   0  0  0  0  0  0
  -23.4214  -28.8116   23.3019 O   0  0  0  0  0  0
  -28.2987  -26.3502   20.2131 O   0  0  0  0  0  0
  -26.5620  -34.8908   22.4660 O   0  0  0  0  0  0
  -23.5487  -32.1364   23.7305 O   0  0  0  0  0  0
  -29.5258  -19.9043   20.2598 C   0  0  0  0  0  0
  -29.3746  -18.5967   20.8775 C   0  0  0  0  0  0
  -27.7545  -19.6969   22.3950 C   0  0  0  0  0  0
  -28.8187  -21.1081   20.6610 C   0  0  0  0  0  0
  -28.4776  -18.5442   21.9780 C   0  0  0  0  0  0
  -27.8874  -20.9450   21.7210 C   0  0  0  0  0  0
  -26.7994  -19.5650   23.5830 C   0  0  0  0  0  0
  -30.2265  -17.3255   20.3977 C   0  0  0  0  0  0
  -28.0516  -24.8795   19.9856 C   0  0  0  0  0  0
  -29.0182  -23.7097   20.5507 C   0  0  0  0  0  0
  -29.8517  -15.8653   20.6602 N   0  0  0  0  0  0
  -28.9640  -22.3384   19.9476 O   0  0  0  0  0  0
  -28.2343  -17.0627   22.8463 Cl  0  0  0  0  0  0
  -26.8138  -22.2422   22.1407 Cl  0  0  0  0  0  0
  -31.4733  -12.5660   19.1782 H   0  0  0  0  0  0
  -30.3706  -11.4684   19.9612 H   0  0  0  0  0  0
  -29.7920  -11.7407   17.5206 H   0  0  0  0  0  0
  -29.6364  -13.4680   17.7345 H   0  0  0  0  0  0
  -27.8972  -11.2836   18.9220 H   0  0  0  0  0  0
  -27.3777  -12.5208   17.8073 H   0  0  0  0  0  0
  -27.6387  -14.2544   19.4772 H   0  0  0  0  0  0
  -28.7148  -12.1704   21.4404 H   0  0  0  0  0  0
  -28.4240  -13.8547   21.7993 H   0  0  0  0  0  0
  -25.2762   -9.5688   22.4782 H   0  0  0  0  0  0
  -24.0003   -7.4636   22.7482 H   0  0  0  0  0  0
  -21.0858   -8.8775   19.8946 H   0  0  0  0  0  0
  -22.3703  -10.9686   19.6180 H   0  0  0  0  0  0
  -21.1984   -7.6143   23.9710 H   0  0  0  0  0  0
  -21.1496   -6.0520   25.9073 H   0  0  0  0  0  0
  -22.0596   -2.7615   23.2820 H   0  0  0  0  0  0
  -22.4068  -11.9867   22.4776 H   0  0  0  0  0  0
  -21.1090  -13.1254   22.2640 H   0  0  0  0  0  0
  -24.6492  -15.8442   20.5164 H   0  0  0  0  0  0
  -26.2698  -15.6347   20.0889 H   0  0  0  0  0  0
  -26.7234  -32.5388   23.1082 H   0  0  0  0  0  0
  -25.0135  -33.9672   25.0434 H   0  0  0  0  0  0
  -22.7249  -31.2999   21.4001 H   0  0  0  0  0  0
  -23.3741  -35.9604   23.3289 H   0  0  0  0  0  0
  -24.3570  -36.8907   22.2053 H   0  0  0  0  0  0
  -23.7249  -37.6477   23.6677 H   0  0  0  0  0  0
  -26.1086  -31.5245   20.6043 H   0  0  0  0  0  0
  -26.8558  -30.8206   22.0054 H   0  0  0  0  0  0
  -28.1094  -28.9062   21.2307 H   0  0  0  0  0  0
  -25.9467  -25.9265   18.9602 H   0  0  0  0  0  0
  -23.9773  -27.3313   18.9687 H   0  0  0  0  0  0
  -23.7683  -30.5959   19.4026 H   0  0  0  0  0  0
  -22.7645  -29.2505   19.8531 H   0  0  0  0  0  0
  -25.1282  -36.1881   25.0818 H   0  0  0  0  0  0
  -20.9978  -28.3256   24.1413 H   0  0  0  0  0  0
  -20.5709  -26.2283   23.3611 H   0  0  0  0  0  0
  -21.6650  -26.7440   22.1195 H   0  0  0  0  0  0
  -19.6915  -25.6300   21.1244 H   0  0  0  0  0  0
  -19.6700  -27.3201   20.6766 H   0  0  0  0  0  0
  -17.4208  -26.6710   21.4002 H   0  0  0  0  0  0
  -18.0294  -26.0061   22.9002 H   0  0  0  0  0  0
  -19.7938  -30.7317   24.2197 H   0  0  0  0  0  0
  -17.5009  -31.6256   24.5194 H   0  0  0  0  0  0
  -15.5357  -30.2973   23.7692 H   0  0  0  0  0  0
  -15.8677  -28.0851   22.7033 H   0  0  0  0  0  0
  -24.5979  -30.6955   25.7792 H   0  0  0  0  0  0
  -24.8865  -32.2824   26.4825 H   0  0  0  0  0  0
  -25.8082  -30.8925   27.0245 H   0  0  0  0  0  0
  -26.2987  -29.6696   24.1242 H   0  0  0  0  0  0
  -27.4127  -29.7268   25.4705 H   0  0  0  0  0  0
  -27.8822  -30.4275   23.9407 H   0  0  0  0  0  0
  -27.2722  -33.3641   26.1994 H   0  0  0  0  0  0
  -28.3931  -32.6771   25.0336 H   0  0  0  0  0  0
  -28.0695  -31.8451   26.5462 H   0  0  0  0  0  0
  -28.2569  -38.0096   24.7532 H   0  0  0  0  0  0
  -28.1078  -36.2639   24.6265 H   0  0  0  0  0  0
  -27.2298  -37.1414   25.8869 H   0  0  0  0  0  0
  -20.9418  -29.8759   21.6883 H   0  0  0  0  0  0
  -26.0136  -38.2820   24.1432 H   0  0  0  0  0  0
  -30.2179  -19.9870   19.4341 H   0  0  0  0  0  0
  -27.2717  -19.0231   24.4026 H   0  0  0  0  0  0
  -25.9013  -19.0221   23.2862 H   0  0  0  0  0  0
  -26.4895  -20.5153   24.0111 H   0  0  0  0  0  0
  -31.2324  -17.4701   20.7938 H   0  0  0  0  0  0
  -30.3360  -17.4185   19.3164 H   0  0  0  0  0  0
  -27.0576  -24.6297   20.3579 H   0  0  0  0  0  0
  -28.0056  -24.7523   18.9042 H   0  0  0  0  0  0
  -28.9611  -23.6673   21.6376 H   0  0  0  0  0  0
  -30.0393  -24.0407   20.3629 H   0  0  0  0  0  0
  -28.8958  -15.7068   20.9403 H   0  0  0  0  0  0
  1 25  1  0  0  0
  1 30  2  0  0  0
  1 81  1  0  0  0
  2  3  1  0  0  0
  2 25  1  0  0  0
  2 85  1  0  0  0
  2 86  1  0  0  0
  3  4  1  0  0  0
  3 87  1  0  0  0
  3 88  1  0  0  0
  4  5  1  0  0  0
  4 89  1  0  0  0
  4 90  1  0  0  0
  5  6  1  0  0  0
  5 26  1  0  0  0
  5 91  1  0  0  0
  6 25  1  0  0  0
  6 92  1  0  0  0
  6 93  1  0  0  0
  7  8  2  0  0  0
  7 26  1  0  0  0
  7 29  1  0  0  0
  8  9  1  0  0  0
  8 22  1  0  0  0
  9 10  1  0  0  0
  9 27  2  0  0  0
 10 11  2  0  0  0
 10 15  1  0  0  0
 11 12  1  0  0  0
 11 94  1  0  0  0
 12 13  2  0  0  0
 12 95  1  0  0  0
 13 14  1  0  0  0
 13 31  1  0  0  0
 14 15  2  0  0  0
 14 96  1  0  0  0
 15 97  1  0  0  0
 16 17  2  0  0  0
 16 21  1  0  0  0
 16 31  1  0  0  0
 17 18  1  0  0  0
 17 98  1  0  0  0
 18 19  2  0  0  0
 18 99  1  0  0  0
 19 20  1  0  0  0
 19 24  1  0  0  0
 20 21  2  0  0  0
 20100  1  0  0  0
 21 23  1  0  0  0
 22 28  1  0  0  0
 22 32  2  0  0  0
 26 27  1  0  0  0
 28101  1  0  0  0
 28102  1  0  0  0
 29103  1  0  0  0
 29104  1  0  0  0
 33 34  1  0  0  0
 33 66  1  0  0  0
 33 70  2  0  0  0
 34 36  1  0  0  0
 34 59  1  0  0  0
 34105  1  0  0  0
 35 44  2  0  0  0
 35 45  1  0  0  0
 35 68  1  0  0  0
 36 56  1  0  0  0
 36106  1  0  0  0
 37 39  1  0  0  0
 37 47  1  0  0  0
 37 66  1  0  0  0
 37107  1  0  0  0
 38 43  2  0  0  0
 38 46  1  0  0  0
 38 47  1  0  0  0
 39 64  1  0  0  0
 39 67  2  0  0  0
 40 52  1  0  0  0
 40 53  2  0  0  0
 40 58  1  0  0  0
 41108  1  0  0  0
 41109  1  0  0  0
 41110  1  0  0  0
 41 48  1  0  0  0
 42 43  1  0  0  0
 42 66  1  0  0  0
 42111  1  0  0  0
 42112  1  0  0  0
 43 44  1  0  0  0
 44113  1  0  0  0
 45 46  2  0  0  0
 45114  1  0  0  0
 46115  1  0  0  0
 47116  1  0  0  0
 47117  1  0  0  0
 48 56  1  0  0  0
 48 65  1  0  0  0
 48118  1  0  0  0
 49 50  1  0  0  0
 49 53  1  0  0  0
 49 64  1  0  0  0
 49119  1  0  0  0
 50 51  1  0  0  0
 50120  1  0  0  0
 50121  1  0  0  0
 51 52  1  0  0  0
 51122  1  0  0  0
 51123  1  0  0  0
 52124  1  0  0  0
 52125  1  0  0  0
 53 54  1  0  0  0
 54 55  2  0  0  0
 54126  1  0  0  0
 55 57  1  0  0  0
 55127  1  0  0  0
 56 69  2  0  0  0
 57 58  2  0  0  0
 57128  1  0  0  0
 58129  1  0  0  0
 59 60  1  0  0  0
 59 61  1  0  0  0
 59 62  1  0  0  0
 60130  1  0  0  0
 60131  1  0  0  0
 60132  1  0  0  0
 61133  1  0  0  0
 61134  1  0  0  0
 61135  1  0  0  0
 62136  1  0  0  0
 62137  1  0  0  0
 62138  1  0  0  0
 63 65  1  0  0  0
 63139  1  0  0  0
 63140  1  0  0  0
 63141  1  0  0  0
 64142  1  0  0  0
 65143  1  0  0  0
 68 79  1  0  0  0
 71 72  2  0  0  0
 71 74  1  0  0  0
 71144  1  0  0  0
 72 75  1  0  0  0
 72 78  1  0  0  0
 73 75  2  0  0  0
 73 76  1  0  0  0
 73 77  1  0  0  0
 74 76  2  0  0  0
 74 82  1  0  0  0
 75 83  1  0  0  0
 76 84  1  0  0  0
 77145  1  0  0  0
 77146  1  0  0  0
 77147  1  0  0  0
 78 81  1  0  0  0
 78148  1  0  0  0
 78149  1  0  0  0
 79 80  1  0  0  0
 79150  1  0  0  0
 79151  1  0  0  0
 80 82  1  0  0  0
 80152  1  0  0  0
 80153  1  0  0  0
 81154  1  0  0  0
M  ISO  4   1 100  68 101  79 101  81 100
M  END
> <chiral flag>
0

> <version>
0

> <s_m_source_file>
/data/baiqing/PycharmProjects/Reinvent-master-3.2/result/LINK_invent/BTK/process_docking_weight1_custom_sum_contain_oxygen_bond_distance_aromatic_linkinvent_7_9_3/rearranged_h_0027.sdf

> <i_m_source_file_index>
17

> <r_mmod_Potential_Energy-OPLS-2005>
165.853118896484

> <r_mmod_Stretch_Energy-OPLS-2005>
125.36555480957

> <r_mmod_Bend_Energy-OPLS-2005>
174.810211181641

> <r_mmod_Torsional_Energy-OPLS-2005>
216.563598632812

> <r_mmod_Improper_Torsional_Energy-OPLS-2005>
5.8139533996582

> <r_mmod_Van_der_Waal_Energy-OPLS-2005>
154.675765991211

> <r_mmod_Electrostatic_Energy-OPLS-2005>
-393.742919921875

> <r_mmod_Solvation_Energy-OPLS-2005>
-203.204559326172

> <b_mmod_Minimization_Converged-OPLS-2005>
0

> <r_mmod_RMS_Derivative-OPLS-2005>
1.47155702114105

$$$$
17
                    3D
 Structure written by MMmdl.
166174  0  0  1  0            999 V2000
  -30.6847  -14.3684   20.6201 C   0  0  0  0  0  0
  -30.4000  -12.2678   19.3657 C   0  0  0  0  0  0
  -29.4683  -12.5414   18.1684 C   0  0  0  0  0  0
  -27.9776  -12.4302   18.5616 C   0  0  0  0  0  0
  -27.6511  -13.1972   19.8726 C   0  0  2  0  0  0
  -28.6878  -12.8840   20.9692 C   0  0  0  0  0  0
  -25.2560  -13.8180   20.5638 C   0  0  0  0  0  0
  -24.1783  -13.0484   20.9147 C   0  0  0  0  0  0
  -24.6299  -11.6913   20.8661 C   0  0  0  0  0  0
  -23.8943  -10.4331   21.0354 C   0  0  0  0  0  0
  -24.3557   -9.4286   21.9144 C   0  0  0  0  0  0
  -23.6308   -8.2275   22.0680 C   0  0  0  0  0  0
  -22.4304   -8.0277   21.3478 C   0  0  0  0  0  0
  -21.9896   -9.0232   20.4575 C   0  0  0  0  0  0
  -22.7133  -10.2144   20.2995 C   0  0  0  0  0  0
  -21.6895   -6.0751   22.5280 C   0  0  0  0  0  0
  -21.4037   -6.5641   23.8210 C   0  0  0  0  0  0
  -21.3621   -5.6777   24.9159 C   0  0  0  0  0  0
  -21.6043   -4.3048   24.7207 C   0  0  0  0  0  0
  -21.8832   -3.8144   23.4312 C   0  0  0  0  0  0
  -21.9212   -4.6960   22.3390 C   0  0  0  0  0  0
  -22.7817  -13.5294   21.1808 C   0  0  0  0  0  0
  -22.1693   -4.2151   21.0965 F   0  0  0  0  0  0
  -21.5589   -3.4508   25.7699 F   0  0  0  0  0  0
  -30.0212  -13.2020   20.4316 N   0  0  0  0  0  0
  -26.2936  -12.9288   20.3312 N   0  0  0  0  0  0
  -25.9202  -11.6448   20.5661 N   0  0  0  0  0  0
  -22.0411  -12.8329   22.0352 N   0  0  0  0  0  0
  -25.4346  -15.1908   20.4054 N   0  0  0  0  0  0
  -31.8082  -14.5972   20.1606 O   0  0  0  0  0  0
  -21.6663   -6.8885   21.4223 O   0  0  0  0  0  0
  -22.3499  -14.5588   20.6623 O   0  0  0  0  0  0
  -24.6158  -31.8709   23.2123 C   0  0  0  0  0  0
  -25.9052  -32.4833   23.8416 C   0  0  1  0  0  0
  -27.2424  -27.4432   20.0852 C   0  0  0  0  0  0
  -25.5908  -33.8629   24.2340 N   0  0  0  0  0  0
  -23.4055  -30.4996   21.5494 C   0  0  2  0  0  0
  -24.8525  -28.9699   20.1172 C   0  0  0  0  0  0
  -22.7419  -29.4708   22.4936 C   0  0  0  0  0  0
  -18.0277  -28.1421   22.8509 C   0  0  0  0  0  0
  -24.1471  -36.7280   23.2649 C   0  0  0  0  0  0
  -25.9382  -30.8388   21.3707 C   0  0  0  0  0  0
  -26.0139  -29.4770   20.7120 C   0  0  0  0  0  0
  -27.2101  -28.7194   20.6942 C   0  0  0  0  0  0
  -26.0434  -26.9380   19.5231 C   0  0  0  0  0  0
  -24.8598  -27.6989   19.5260 C   0  0  0  0  0  0
  -23.6178  -29.8409   20.1624 C   0  0  0  0  0  0
  -25.4097  -36.3097   24.0339 C   0  0  1  0  0  0
  -20.5877  -28.3705   23.1294 C   0  0  2  0  0  0
  -20.6754  -26.9428   22.5417 C   0  0  0  0  0  0
  -19.5727  -26.6402   21.5225 C   0  0  0  0  0  0
  -18.1910  -26.7969   22.1636 C   0  0  0  0  0  0
  -19.1539  -28.8868   23.2916 C   0  0  0  0  0  0
  -18.9463  -30.1465   23.8941 C   0  0  0  0  0  0
  -17.6477  -30.6623   24.0576 C   0  0  0  0  0  0
  -25.9045  -34.9476   23.5133 C   0  0  0  0  0  0
  -16.5352  -29.9140   23.6325 C   0  0  0  0  0  0
  -16.7272  -28.6559   23.0349 C   0  0  0  0  0  0
  -26.4475  -31.6610   25.0740 C   0  0  0  0  0  0
  -25.3724  -31.3706   26.1472 C   0  0  0  0  0  0
  -27.0329  -30.3046   24.6150 C   0  0  0  0  0  0
  -27.6049  -32.4349   25.7500 C   0  0  0  0  0  0
  -27.5565  -37.1799   24.8468 C   0  0  0  0  0  0
  -21.4142  -29.3075   22.3687 N   0  0  0  0  0  0
  -26.4271  -37.3789   23.9424 N   0  0  0  0  0  0
  -24.6707  -31.0834   22.1016 N   0  0  0  0  0  0
  -23.4185  -28.8236   23.2979 O   0  0  0  0  0  0
  -28.4354  -26.7367   20.0574 O   0  0  0  0  0  0
  -26.5611  -34.8928   22.4699 O   0  0  0  0  0  0
  -23.5344  -32.1470   23.7502 O   0  0  0  0  0  0
  -31.5266  -21.2381   19.4565 C   0  0  0  0  0  0
  -31.1702  -19.8538   19.3916 C   0  0  0  0  0  0
  -31.3098  -21.8133   18.2260 C   0  0  0  0  0  0
  -30.9306  -19.6290   18.0608 C   0  0  0  0  0  0
  -32.0110  -21.9269   20.7063 C   0  0  0  0  0  0
  -30.7412  -20.8825   15.8991 C   0  0  0  0  0  0
  -31.0909  -18.9338   20.6016 C   0  0  0  0  0  0
  -31.3583  -23.2636   17.8175 C   0  0  0  0  0  0
  -30.6624  -17.4918   20.3183 C   0  0  0  0  0  0
  -29.9993  -23.9837   17.9580 C   0  0  0  0  0  0
  -29.8693  -24.8924   19.2016 C   0  0  0  0  0  0
  -30.4104  -16.6522   21.5843 C   0  0  0  0  0  0
  -28.4580  -25.4974   19.3379 C   0  0  0  0  0  0
  -30.9907  -20.7941   17.3332 N   0  0  0  0  0  0
  -29.9674  -15.3057   21.2514 N   0  0  0  0  0  0
  -30.5490  -18.1421   17.2656 Cl  0  0  0  0  0  0
  -31.4399  -12.3850   19.0602 H   0  0  0  0  0  0
  -30.2979  -11.2347   19.7112 H   0  0  0  0  0  0
  -29.6934  -11.8642   17.3425 H   0  0  0  0  0  0
  -29.6503  -13.5495   17.7906 H   0  0  0  0  0  0
  -27.7140  -11.3775   18.6636 H   0  0  0  0  0  0
  -27.3542  -12.8062   17.7485 H   0  0  0  0  0  0
  -27.7190  -14.2586   19.6384 H   0  0  0  0  0  0
  -28.6431  -11.8209   21.2188 H   0  0  0  0  0  0
  -28.4571  -13.3968   21.9035 H   0  0  0  0  0  0
  -25.2664   -9.5849   22.4731 H   0  0  0  0  0  0
  -24.0046   -7.4681   22.7420 H   0  0  0  0  0  0
  -21.0793   -8.8716   19.8940 H   0  0  0  0  0  0
  -22.3522  -10.9673   19.6127 H   0  0  0  0  0  0
  -21.2067   -7.6155   23.9724 H   0  0  0  0  0  0
  -21.1412   -6.0489   25.9065 H   0  0  0  0  0  0
  -22.0648   -2.7601   23.2805 H   0  0  0  0  0  0
  -22.3991  -12.0055   22.4891 H   0  0  0  0  0  0
  -21.0984  -13.1322   22.2377 H   0  0  0  0  0  0
  -24.6682  -15.8531   20.4809 H   0  0  0  0  0  0
  -26.3001  -15.6155   20.0915 H   0  0  0  0  0  0
  -26.7141  -32.5573   23.1211 H   0  0  0  0  0  0
  -24.9964  -33.9782   25.0417 H   0  0  0  0  0  0
  -22.6966  -31.3190   21.4112 H   0  0  0  0  0  0
  -23.3755  -35.9593   23.3302 H   0  0  0  0  0  0
  -24.3554  -36.8905   22.2066 H   0  0  0  0  0  0
  -23.7198  -37.6465   23.6674 H   0  0  0  0  0  0
  -26.0644  -31.6158   20.6149 H   0  0  0  0  0  0
  -26.8197  -30.8776   21.9985 H   0  0  0  0  0  0
  -28.1079  -29.1168   21.1475 H   0  0  0  0  0  0
  -25.9863  -25.9540   19.0839 H   0  0  0  0  0  0
  -23.9606  -27.2952   19.0807 H   0  0  0  0  0  0
  -23.7340  -30.6217   19.4090 H   0  0  0  0  0  0
  -22.7419  -29.2660   19.8576 H   0  0  0  0  0  0
  -25.1274  -36.1944   25.0829 H   0  0  0  0  0  0
  -20.9998  -28.3285   24.1403 H   0  0  0  0  0  0
  -20.5632  -26.2331   23.3621 H   0  0  0  0  0  0
  -21.6620  -26.7446   22.1219 H   0  0  0  0  0  0
  -19.6862  -25.6305   21.1268 H   0  0  0  0  0  0
  -19.6664  -27.3197   20.6740 H   0  0  0  0  0  0
  -17.4172  -26.6749   21.4034 H   0  0  0  0  0  0
  -18.0283  -26.0111   22.9027 H   0  0  0  0  0  0
  -19.7939  -30.7262   24.2344 H   0  0  0  0  0  0
  -17.5032  -31.6298   24.5184 H   0  0  0  0  0  0
  -15.5358  -30.3064   23.7609 H   0  0  0  0  0  0
  -15.8668  -28.0884   22.7031 H   0  0  0  0  0  0
  -24.5861  -30.7128   25.7752 H   0  0  0  0  0  0
  -24.8967  -32.2866   26.4982 H   0  0  0  0  0  0
  -25.8032  -30.8774   27.0197 H   0  0  0  0  0  0
  -26.2897  -29.6801   24.1180 H   0  0  0  0  0  0
  -27.4063  -29.7283   25.4630 H   0  0  0  0  0  0
  -27.8746  -30.4354   23.9344 H   0  0  0  0  0  0
  -27.2674  -33.3682   26.2026 H   0  0  0  0  0  0
  -28.3868  -32.6866   25.0320 H   0  0  0  0  0  0
  -28.0712  -31.8512   26.5451 H   0  0  0  0  0  0
  -28.2573  -38.0099   24.7510 H   0  0  0  0  0  0
  -28.1053  -36.2625   24.6287 H   0  0  0  0  0  0
  -27.2282  -37.1445   25.8869 H   0  0  0  0  0  0
  -20.9290  -29.8828   21.6940 H   0  0  0  0  0  0
  -26.0144  -38.2859   24.1436 H   0  0  0  0  0  0
  -31.2351  -21.9045   21.4695 H   0  0  0  0  0  0
  -32.2969  -22.9607   20.5254 H   0  0  0  0  0  0
  -32.8881  -21.4090   21.0981 H   0  0  0  0  0  0
  -31.4979  -20.3142   15.3559 H   0  0  0  0  0  0
  -30.7503  -21.9062   15.5359 H   0  0  0  0  0  0
  -29.7631  -20.4578   15.6766 H   0  0  0  0  0  0
  -30.3677  -19.3718   21.2904 H   0  0  0  0  0  0
  -32.0546  -18.9355   21.1119 H   0  0  0  0  0  0
  -31.7073  -23.3506   16.7922 H   0  0  0  0  0  0
  -32.1224  -23.7920   18.3859 H   0  0  0  0  0  0
  -31.4276  -17.0329   19.6953 H   0  0  0  0  0  0
  -29.7384  -17.4902   19.7435 H   0  0  0  0  0  0
  -29.1821  -23.2606   17.9092 H   0  0  0  0  0  0
  -29.8656  -24.6266   17.0855 H   0  0  0  0  0  0
  -30.5988  -25.6974   19.1121 H   0  0  0  0  0  0
  -30.1257  -24.3385   20.1065 H   0  0  0  0  0  0
  -29.6326  -17.1165   22.1940 H   0  0  0  0  0  0
  -31.2976  -16.5888   22.2136 H   0  0  0  0  0  0
  -27.8102  -24.7733   19.8391 H   0  0  0  0  0  0
  -28.0636  -25.6637   18.3348 H   0  0  0  0  0  0
  -29.0186  -15.0609   21.5002 H   0  0  0  0  0  0
  1 25  1  0  0  0
  1 30  2  0  0  0
  1 85  1  0  0  0
  2  3  1  0  0  0
  2 25  1  0  0  0
  2 87  1  0  0  0
  2 88  1  0  0  0
  3  4  1  0  0  0
  3 89  1  0  0  0
  3 90  1  0  0  0
  4  5  1  0  0  0
  4 91  1  0  0  0
  4 92  1  0  0  0
  5  6  1  0  0  0
  5 26  1  0  0  0
  5 93  1  0  0  0
  6 25  1  0  0  0
  6 94  1  0  0  0
  6 95  1  0  0  0
  7  8  2  0  0  0
  7 26  1  0  0  0
  7 29  1  0  0  0
  8  9  1  0  0  0
  8 22  1  0  0  0
  9 10  1  0  0  0
  9 27  2  0  0  0
 10 11  2  0  0  0
 10 15  1  0  0  0
 11 12  1  0  0  0
 11 96  1  0  0  0
 12 13  2  0  0  0
 12 97  1  0  0  0
 13 14  1  0  0  0
 13 31  1  0  0  0
 14 15  2  0  0  0
 14 98  1  0  0  0
 15 99  1  0  0  0
 16 17  2  0  0  0
 16 21  1  0  0  0
 16 31  1  0  0  0
 17 18  1  0  0  0
 17100  1  0  0  0
 18 19  2  0  0  0
 18101  1  0  0  0
 19 20  1  0  0  0
 19 24  1  0  0  0
 20 21  2  0  0  0
 20102  1  0  0  0
 21 23  1  0  0  0
 22 28  1  0  0  0
 22 32  2  0  0  0
 26 27  1  0  0  0
 28103  1  0  0  0
 28104  1  0  0  0
 29105  1  0  0  0
 29106  1  0  0  0
 33 34  1  0  0  0
 33 66  1  0  0  0
 33 70  2  0  0  0
 34 36  1  0  0  0
 34 59  1  0  0  0
 34107  1  0  0  0
 35 44  2  0  0  0
 35 45  1  0  0  0
 35 68  1  0  0  0
 36 56  1  0  0  0
 36108  1  0  0  0
 37 39  1  0  0  0
 37 47  1  0  0  0
 37 66  1  0  0  0
 37109  1  0  0  0
 38 43  2  0  0  0
 38 46  1  0  0  0
 38 47  1  0  0  0
 39 64  1  0  0  0
 39 67  2  0  0  0
 40 52  1  0  0  0
 40 53  2  0  0  0
 40 58  1  0  0  0
 41110  1  0  0  0
 41111  1  0  0  0
 41112  1  0  0  0
 41 48  1  0  0  0
 42 43  1  0  0  0
 42 66  1  0  0  0
 42113  1  0  0  0
 42114  1  0  0  0
 43 44  1  0  0  0
 44115  1  0  0  0
 45 46  2  0  0  0
 45116  1  0  0  0
 46117  1  0  0  0
 47118  1  0  0  0
 47119  1  0  0  0
 48 56  1  0  0  0
 48 65  1  0  0  0
 48120  1  0  0  0
 49 50  1  0  0  0
 49 53  1  0  0  0
 49 64  1  0  0  0
 49121  1  0  0  0
 50 51  1  0  0  0
 50122  1  0  0  0
 50123  1  0  0  0
 51 52  1  0  0  0
 51124  1  0  0  0
 51125  1  0  0  0
 52126  1  0  0  0
 52127  1  0  0  0
 53 54  1  0  0  0
 54 55  2  0  0  0
 54128  1  0  0  0
 55 57  1  0  0  0
 55129  1  0  0  0
 56 69  2  0  0  0
 57 58  2  0  0  0
 57130  1  0  0  0
 58131  1  0  0  0
 59 60  1  0  0  0
 59 61  1  0  0  0
 59 62  1  0  0  0
 60132  1  0  0  0
 60133  1  0  0  0
 60134  1  0  0  0
 61135  1  0  0  0
 61136  1  0  0  0
 61137  1  0  0  0
 62138  1  0  0  0
 62139  1  0  0  0
 62140  1  0  0  0
 63 65  1  0  0  0
 63141  1  0  0  0
 63142  1  0  0  0
 63143  1  0  0  0
 64144  1  0  0  0
 65145  1  0  0  0
 68 83  1  0  0  0
 71 72  1  0  0  0
 71 73  2  0  0  0
 71 75  1  0  0  0
 72 74  2  0  0  0
 72 77  1  0  0  0
 73 78  1  0  0  0
 73 84  1  0  0  0
 74 84  1  0  0  0
 74 86  1  0  0  0
 75146  1  0  0  0
 75147  1  0  0  0
 75148  1  0  0  0
 76 84  1  0  0  0
 76149  1  0  0  0
 76150  1  0  0  0
 76151  1  0  0  0
 77 79  1  0  0  0
 77152  1  0  0  0
 77153  1  0  0  0
 78 80  1  0  0  0
 78154  1  0  0  0
 78155  1  0  0  0
 79 82  1  0  0  0
 79156  1  0  0  0
 79157  1  0  0  0
 80 81  1  0  0  0
 80158  1  0  0  0
 80159  1  0  0  0
 81 83  1  0  0  0
 81160  1  0  0  0
 81161  1  0  0  0
 82 85  1  0  0  0
 82162  1  0  0  0
 82163  1  0  0  0
 83164  1  0  0  0
 83165  1  0  0  0
 85166  1  0  0  0
M  ISO  4   1 100  68 101  83 101  85 100
M  END
> <chiral flag>
0

> <version>
0

> <s_m_source_file>
/data/baiqing/PycharmProjects/Reinvent-master-3.2/result/LINK_invent/BTK/process_docking_weight1_custom_sum_contain_oxygen_bond_distance_aromatic_linkinvent_7_9_3/rearranged_h_0027.sdf

> <i_m_source_file_index>
18

> <r_mmod_Potential_Energy-OPLS-2005>
-85.7039413452148

> <r_mmod_Stretch_Energy-OPLS-2005>
33.1286582946777

> <r_mmod_Bend_Energy-OPLS-2005>
114.182518005371

> <r_mmod_Torsional_Energy-OPLS-2005>
207.750778198242

> <r_mmod_Improper_Torsional_Energy-OPLS-2005>
2.95814895629883

> <r_mmod_Van_der_Waal_Energy-OPLS-2005>
142.716659545898

> <r_mmod_Electrostatic_Energy-OPLS-2005>
-389.456848144531

> <r_mmod_Solvation_Energy-OPLS-2005>
-208.700820922852

> <b_mmod_Minimization_Converged-OPLS-2005>
0

> <r_mmod_RMS_Derivative-OPLS-2005>
5.70922708511353

$$$$
18
                    3D
 Structure written by MMmdl.
162170  0  0  1  0            999 V2000
  -30.6241  -14.5505   20.5511 C   0  0  0  0  0  0
  -30.4450  -12.3493   19.4240 C   0  0  0  0  0  0
  -29.5032  -12.5020   18.2083 C   0  0  0  0  0  0
  -28.0236  -12.3479   18.6225 C   0  0  0  0  0  0
  -27.6588  -13.1952   19.8698 C   0  0  2  0  0  0
  -28.7049  -12.9875   20.9887 C   0  0  0  0  0  0
  -25.2600  -13.8120   20.5678 C   0  0  0  0  0  0
  -24.1839  -13.0418   20.9174 C   0  0  0  0  0  0
  -24.6373  -11.6879   20.8736 C   0  0  0  0  0  0
  -23.9029  -10.4281   21.0411 C   0  0  0  0  0  0
  -24.3592   -9.4204   21.9189 C   0  0  0  0  0  0
  -23.6276   -8.2235   22.0762 C   0  0  0  0  0  0
  -22.4259   -8.0267   21.3543 C   0  0  0  0  0  0
  -21.9887   -9.0241   20.4647 C   0  0  0  0  0  0
  -22.7206  -10.2124   20.3059 C   0  0  0  0  0  0
  -21.6847   -6.0720   22.5273 C   0  0  0  0  0  0
  -21.4011   -6.5627   23.8206 C   0  0  0  0  0  0
  -21.3664   -5.6783   24.9164 C   0  0  0  0  0  0
  -21.6048   -4.3045   24.7216 C   0  0  0  0  0  0
  -21.8822   -3.8135   23.4339 C   0  0  0  0  0  0
  -21.9193   -4.6953   22.3394 C   0  0  0  0  0  0
  -22.7873  -13.5242   21.1842 C   0  0  0  0  0  0
  -22.1659   -4.2140   21.0972 F   0  0  0  0  0  0
  -21.5638   -3.4533   25.7732 F   0  0  0  0  0  0
  -30.0219  -13.3342   20.4297 N   0  0  0  0  0  0
  -26.3012  -12.9261   20.3346 N   0  0  0  0  0  0
  -25.9292  -11.6434   20.5765 N   0  0  0  0  0  0
  -22.0491  -12.8246   22.0391 N   0  0  0  0  0  0
  -25.4352  -15.1838   20.4082 N   0  0  0  0  0  0
  -31.7870  -14.7628   20.1921 O   0  0  0  0  0  0
  -21.6628   -6.8860   21.4233 O   0  0  0  0  0  0
  -22.3579  -14.5565   20.6707 O   0  0  0  0  0  0
  -24.6154  -31.8635   23.2060 C   0  0  0  0  0  0
  -25.9039  -32.4806   23.8364 C   0  0  1  0  0  0
  -27.2380  -27.3951   20.1255 C   0  0  0  0  0  0
  -25.5889  -33.8608   24.2293 N   0  0  0  0  0  0
  -23.4056  -30.4854   21.5464 C   0  0  2  0  0  0
  -24.8567  -28.9388   20.1206 C   0  0  0  0  0  0
  -22.7415  -29.4640   22.4977 C   0  0  0  0  0  0
  -18.0283  -28.1353   22.8505 C   0  0  0  0  0  0
  -24.1487  -36.7317   23.2643 C   0  0  0  0  0  0
  -25.9367  -30.8209   21.3619 C   0  0  0  0  0  0
  -26.0171  -29.4476   20.7194 C   0  0  0  0  0  0
  -27.2121  -28.6855   20.7120 C   0  0  0  0  0  0
  -26.0625  -26.9030   19.5229 C   0  0  0  0  0  0
  -24.8770  -27.6689   19.5163 C   0  0  0  0  0  0
  -23.6179  -29.8108   20.1637 C   0  0  0  0  0  0
  -25.4102  -36.3105   24.0332 C   0  0  1  0  0  0
  -20.5872  -28.3647   23.1314 C   0  0  2  0  0  0
  -20.6772  -26.9383   22.5411 C   0  0  0  0  0  0
  -19.5751  -26.6367   21.5214 C   0  0  0  0  0  0
  -18.1927  -26.7901   22.1622 C   0  0  0  0  0  0
  -19.1531  -28.8819   23.2909 C   0  0  0  0  0  0
  -18.9462  -30.1437   23.8897 C   0  0  0  0  0  0
  -17.6463  -30.6567   24.0580 C   0  0  0  0  0  0
  -25.9035  -34.9469   23.5111 C   0  0  0  0  0  0
  -16.5360  -29.9067   23.6332 C   0  0  0  0  0  0
  -16.7273  -28.6484   23.0343 C   0  0  0  0  0  0
  -26.4456  -31.6586   25.0702 C   0  0  0  0  0  0
  -25.3730  -31.3698   26.1467 C   0  0  0  0  0  0
  -27.0272  -30.3024   24.6066 C   0  0  0  0  0  0
  -27.6024  -32.4320   25.7476 C   0  0  0  0  0  0
  -27.5589  -37.1796   24.8461 C   0  0  0  0  0  0
  -21.4142  -29.3019   22.3723 N   0  0  0  0  0  0
  -26.4282  -37.3789   23.9439 N   0  0  0  0  0  0
  -24.6705  -31.0713   22.0970 N   0  0  0  0  0  0
  -23.4173  -28.8204   23.3038 O   0  0  0  0  0  0
  -28.4032  -26.6533   20.0553 O   0  0  0  0  0  0
  -26.5602  -34.8933   22.4683 O   0  0  0  0  0  0
  -23.5332  -32.1423   23.7418 O   0  0  0  0  0  0
  -29.9755  -18.0415   20.7147 C   0  0  0  0  0  0
  -30.0485  -19.3143   21.3588 C   0  0  0  0  0  0
  -30.0977  -19.3468   22.7818 C   0  0  0  0  0  0
  -30.0135  -18.1356   23.5283 C   0  0  0  0  0  0
  -29.9723  -16.8229   21.4517 C   0  0  0  0  0  0
  -29.9768  -16.8830   22.8639 C   0  0  0  0  0  0
  -30.2492  -20.6742   23.5229 C   0  0  0  0  0  0
  -29.9495  -18.1823   25.0552 C   0  0  0  0  0  0
  -30.1649  -20.6174   20.5137 C   0  0  0  0  0  0
  -28.4584  -24.1054   20.3097 C   0  0  0  0  0  0
  -29.2312  -22.9613   21.0670 C   0  0  0  0  0  0
  -28.5636  -25.5304   20.9560 C   0  0  0  0  0  0
  -29.7533  -15.5534   20.8192 N   0  0  0  0  0  0
  -29.0054  -21.5701   20.5367 N   0  3  0  0  0  0
  -29.9105  -15.4057   23.7727 Cl  0  0  0  0  0  0
  -31.4842  -12.4921   19.1233 H   0  0  0  0  0  0
  -30.3869  -11.3411   19.8373 H   0  0  0  0  0  0
  -29.7561  -11.7642   17.4457 H   0  0  0  0  0  0
  -29.6533  -13.4802   17.7480 H   0  0  0  0  0  0
  -27.8481  -11.2918   18.8313 H   0  0  0  0  0  0
  -27.3700  -12.6058   17.7887 H   0  0  0  0  0  0
  -27.6916  -14.2382   19.5566 H   0  0  0  0  0  0
  -28.7061  -11.9471   21.3198 H   0  0  0  0  0  0
  -28.4633  -13.5752   21.8755 H   0  0  0  0  0  0
  -25.2736   -9.5685   22.4762 H   0  0  0  0  0  0
  -23.9983   -7.4629   22.7487 H   0  0  0  0  0  0
  -21.0815   -8.8750   19.8956 H   0  0  0  0  0  0
  -22.3660  -10.9661   19.6167 H   0  0  0  0  0  0
  -21.1997   -7.6136   23.9702 H   0  0  0  0  0  0
  -21.1491   -6.0512   25.9068 H   0  0  0  0  0  0
  -22.0603   -2.7598   23.2836 H   0  0  0  0  0  0
  -22.4075  -11.9870   22.4733 H   0  0  0  0  0  0
  -21.1138  -13.1334   22.2635 H   0  0  0  0  0  0
  -24.6688  -15.8387   20.5186 H   0  0  0  0  0  0
  -26.2793  -15.6225   20.0651 H   0  0  0  0  0  0
  -26.7099  -32.5518   23.1110 H   0  0  0  0  0  0
  -25.0075  -33.9777   25.0463 H   0  0  0  0  0  0
  -22.6967  -31.3032   21.4027 H   0  0  0  0  0  0
  -23.3751  -35.9645   23.3274 H   0  0  0  0  0  0
  -24.3603  -36.8958   22.2068 H   0  0  0  0  0  0
  -23.7215  -37.6507   23.6667 H   0  0  0  0  0  0
  -26.0452  -31.5794   20.5838 H   0  0  0  0  0  0
  -26.8236  -30.8822   21.9804 H   0  0  0  0  0  0
  -28.1127  -29.0848   21.1582 H   0  0  0  0  0  0
  -26.0686  -25.9305   19.0513 H   0  0  0  0  0  0
  -23.9901  -27.2728   19.0390 H   0  0  0  0  0  0
  -23.7236  -30.5851   19.4028 H   0  0  0  0  0  0
  -22.7407  -29.2312   19.8720 H   0  0  0  0  0  0
  -25.1257  -36.1956   25.0811 H   0  0  0  0  0  0
  -20.9983  -28.3201   24.1423 H   0  0  0  0  0  0
  -20.5673  -26.2253   23.3593 H   0  0  0  0  0  0
  -21.6642  -26.7406   22.1214 H   0  0  0  0  0  0
  -19.6931  -25.6279   21.1234 H   0  0  0  0  0  0
  -19.6699  -27.3191   20.6756 H   0  0  0  0  0  0
  -17.4212  -26.6678   21.4016 H   0  0  0  0  0  0
  -18.0326  -26.0007   22.8972 H   0  0  0  0  0  0
  -19.7941  -30.7261   24.2243 H   0  0  0  0  0  0
  -17.5019  -31.6249   24.5163 H   0  0  0  0  0  0
  -15.5359  -30.2979   23.7626 H   0  0  0  0  0  0
  -15.8680  -28.0815   22.7030 H   0  0  0  0  0  0
  -24.5924  -30.6995   25.7844 H   0  0  0  0  0  0
  -24.8905  -32.2860   26.4899 H   0  0  0  0  0  0
  -25.8108  -30.8920   27.0243 H   0  0  0  0  0  0
  -26.2799  -29.6814   24.1110 H   0  0  0  0  0  0
  -27.4045  -29.7222   25.4497 H   0  0  0  0  0  0
  -27.8628  -30.4348   23.9185 H   0  0  0  0  0  0
  -27.2619  -33.3626   26.2017 H   0  0  0  0  0  0
  -28.3840  -32.6857   25.0311 H   0  0  0  0  0  0
  -28.0660  -31.8469   26.5422 H   0  0  0  0  0  0
  -28.2545  -38.0157   24.7565 H   0  0  0  0  0  0
  -28.1123  -36.2678   24.6160 H   0  0  0  0  0  0
  -27.2333  -37.1302   25.8870 H   0  0  0  0  0  0
  -20.9296  -29.8732   21.6941 H   0  0  0  0  0  0
  -26.0163  -38.2854   24.1477 H   0  0  0  0  0  0
  -29.9230  -17.9925   19.6353 H   0  0  0  0  0  0
  -30.8271  -21.4069   22.9629 H   0  0  0  0  0  0
  -30.7861  -20.5562   24.4634 H   0  0  0  0  0  0
  -29.2706  -21.1002   23.7461 H   0  0  0  0  0  0
  -29.3289  -19.0104   25.3998 H   0  0  0  0  0  0
  -30.9472  -18.2993   25.4793 H   0  0  0  0  0  0
  -29.5032  -17.2908   25.4926 H   0  0  0  0  0  0
  -30.2906  -20.3249   19.4705 H   0  0  0  0  0  0
  -31.1002  -21.1191   20.7582 H   0  0  0  0  0  0
  -27.4025  -23.8473   20.2200 H   0  0  0  0  0  0
  -28.8478  -24.1590   19.2925 H   0  0  0  0  0  0
  -28.9539  -22.9679   22.1213 H   0  0  0  0  0  0
  -30.2948  -23.2007   21.0397 H   0  0  0  0  0  0
  -29.5659  -25.6462   21.3721 H   0  0  0  0  0  0
  -27.8848  -25.6094   21.8079 H   0  0  0  0  0  0
  -28.8179  -15.1991   20.9433 H   0  0  0  0  0  0
  -28.2361  -21.1336   21.0167 H   0  0  0  0  0  0
  -28.7280  -21.6631   19.5745 H   0  0  0  0  0  0
  1 25  1  0  0  0
  1 30  2  0  0  0
  1 83  1  0  0  0
  2  3  1  0  0  0
  2 25  1  0  0  0
  2 86  1  0  0  0
  2 87  1  0  0  0
  3  4  1  0  0  0
  3 88  1  0  0  0
  3 89  1  0  0  0
  4  5  1  0  0  0
  4 90  1  0  0  0
  4 91  1  0  0  0
  5  6  1  0  0  0
  5 26  1  0  0  0
  5 92  1  0  0  0
  6 25  1  0  0  0
  6 93  1  0  0  0
  6 94  1  0  0  0
  7  8  2  0  0  0
  7 26  1  0  0  0
  7 29  1  0  0  0
  8  9  1  0  0  0
  8 22  1  0  0  0
  9 10  1  0  0  0
  9 27  2  0  0  0
 10 11  2  0  0  0
 10 15  1  0  0  0
 11 12  1  0  0  0
 11 95  1  0  0  0
 12 13  2  0  0  0
 12 96  1  0  0  0
 13 14  1  0  0  0
 13 31  1  0  0  0
 14 15  2  0  0  0
 14 97  1  0  0  0
 15 98  1  0  0  0
 16 17  2  0  0  0
 16 21  1  0  0  0
 16 31  1  0  0  0
 17 18  1  0  0  0
 17 99  1  0  0  0
 18 19  2  0  0  0
 18100  1  0  0  0
 19 20  1  0  0  0
 19 24  1  0  0  0
 20 21  2  0  0  0
 20101  1  0  0  0
 21 23  1  0  0  0
 22 28  1  0  0  0
 22 32  2  0  0  0
 26 27  1  0  0  0
 28102  1  0  0  0
 28103  1  0  0  0
 29104  1  0  0  0
 29105  1  0  0  0
 33 34  1  0  0  0
 33 66  1  0  0  0
 33 70  2  0  0  0
 34 36  1  0  0  0
 34 59  1  0  0  0
 34106  1  0  0  0
 35 44  2  0  0  0
 35 45  1  0  0  0
 35 68  1  0  0  0
 36 56  1  0  0  0
 36107  1  0  0  0
 37 39  1  0  0  0
 37 47  1  0  0  0
 37 66  1  0  0  0
 37108  1  0  0  0
 38 43  2  0  0  0
 38 46  1  0  0  0
 38 47  1  0  0  0
 39 64  1  0  0  0
 39 67  2  0  0  0
 40 52  1  0  0  0
 40 53  2  0  0  0
 40 58  1  0  0  0
 41109  1  0  0  0
 41110  1  0  0  0
 41111  1  0  0  0
 41 48  1  0  0  0
 42 43  1  0  0  0
 42 66  1  0  0  0
 42112  1  0  0  0
 42113  1  0  0  0
 43 44  1  0  0  0
 44114  1  0  0  0
 45 46  2  0  0  0
 45115  1  0  0  0
 46116  1  0  0  0
 47117  1  0  0  0
 47118  1  0  0  0
 48 56  1  0  0  0
 48 65  1  0  0  0
 48119  1  0  0  0
 49 50  1  0  0  0
 49 53  1  0  0  0
 49 64  1  0  0  0
 49120  1  0  0  0
 50 51  1  0  0  0
 50121  1  0  0  0
 50122  1  0  0  0
 51 52  1  0  0  0
 51123  1  0  0  0
 51124  1  0  0  0
 52125  1  0  0  0
 52126  1  0  0  0
 53 54  1  0  0  0
 54 55  2  0  0  0
 54127  1  0  0  0
 55 57  1  0  0  0
 55128  1  0  0  0
 56 69  2  0  0  0
 57 58  2  0  0  0
 57129  1  0  0  0
 58130  1  0  0  0
 59 60  1  0  0  0
 59 61  1  0  0  0
 59 62  1  0  0  0
 60131  1  0  0  0
 60132  1  0  0  0
 60133  1  0  0  0
 61134  1  0  0  0
 61135  1  0  0  0
 61136  1  0  0  0
 62137  1  0  0  0
 62138  1  0  0  0
 62139  1  0  0  0
 63 65  1  0  0  0
 63140  1  0  0  0
 63141  1  0  0  0
 63142  1  0  0  0
 64143  1  0  0  0
 65144  1  0  0  0
 68 82  1  0  0  0
 71 72  2  0  0  0
 71 75  1  0  0  0
 71145  1  0  0  0
 72 73  1  0  0  0
 72 79  1  0  0  0
 73 74  2  0  0  0
 73 77  1  0  0  0
 74 76  1  0  0  0
 74 78  1  0  0  0
 75 76  2  0  0  0
 75 83  1  0  0  0
 76 85  1  0  0  0
 77146  1  0  0  0
 77147  1  0  0  0
 77148  1  0  0  0
 78149  1  0  0  0
 78150  1  0  0  0
 78151  1  0  0  0
 79 84  1  0  0  0
 79152  1  0  0  0
 79153  1  0  0  0
 80 81  1  0  0  0
 80 82  1  0  0  0
 80154  1  0  0  0
 80155  1  0  0  0
 81 84  1  0  0  0
 81156  1  0  0  0
 81157  1  0  0  0
 82158  1  0  0  0
 82159  1  0  0  0
 83160  1  0  0  0
 84161  1  0  0  0
 84162  1  0  0  0
M  CHG  1  84   1
M  ISO  4   1 100  68 101  82 101  83 100
M  END
> <chiral flag>
0

> <version>
0

> <s_m_source_file>
/data/baiqing/PycharmProjects/Reinvent-master-3.2/result/LINK_invent/BTK/process_docking_weight1_custom_sum_contain_oxygen_bond_distance_aromatic_linkinvent_7_9_3/rearranged_h_0027.sdf

> <i_m_source_file_index>
19

> <r_mmod_Potential_Energy-OPLS-2005>
-180.577789306641

> <r_mmod_Stretch_Energy-OPLS-2005>
52.8249893188477

> <r_mmod_Bend_Energy-OPLS-2005>
113.549980163574

> <r_mmod_Torsional_Energy-OPLS-2005>
277.894775390625

> <r_mmod_Improper_Torsional_Energy-OPLS-2005>
10.0385303497314

> <r_mmod_Van_der_Waal_Energy-OPLS-2005>
147.946731567383

> <r_mmod_Electrostatic_Energy-OPLS-2005>
-323.961151123047

> <r_mmod_Solvation_Energy-OPLS-2005>
-481.737457275391

> <b_mmod_Minimization_Converged-OPLS-2005>
0

> <r_mmod_RMS_Derivative-OPLS-2005>
2.33552861213684

$$$$
19
                    3D
 Structure written by MMmdl.
171180  0  0  1  0            999 V2000
  -30.7708  -14.3704   20.6204 C   0  0  0  0  0  0
  -30.4034  -12.2611   19.4108 C   0  0  0  0  0  0
  -29.4858  -12.5041   18.1975 C   0  0  0  0  0  0
  -28.0075  -12.3792   18.6133 C   0  0  0  0  0  0
  -27.6648  -13.2097   19.8805 C   0  0  2  0  0  0
  -28.7023  -12.9693   21.0000 C   0  0  0  0  0  0
  -25.2566  -13.8178   20.5682 C   0  0  0  0  0  0
  -24.1816  -13.0434   20.9172 C   0  0  0  0  0  0
  -24.6371  -11.6900   20.8696 C   0  0  0  0  0  0
  -23.9035  -10.4286   21.0381 C   0  0  0  0  0  0
  -24.3591   -9.4214   21.9157 C   0  0  0  0  0  0
  -23.6281   -8.2245   22.0744 C   0  0  0  0  0  0
  -22.4264   -8.0270   21.3540 C   0  0  0  0  0  0
  -21.9893   -9.0230   20.4630 C   0  0  0  0  0  0
  -22.7204  -10.2117   20.3038 C   0  0  0  0  0  0
  -21.6849   -6.0717   22.5281 C   0  0  0  0  0  0
  -21.4007   -6.5627   23.8208 C   0  0  0  0  0  0
  -21.3669   -5.6790   24.9175 C   0  0  0  0  0  0
  -21.6049   -4.3051   24.7235 C   0  0  0  0  0  0
  -21.8820   -3.8134   23.4356 C   0  0  0  0  0  0
  -21.9185   -4.6945   22.3403 C   0  0  0  0  0  0
  -22.7839  -13.5220   21.1842 C   0  0  0  0  0  0
  -22.1655   -4.2128   21.0982 F   0  0  0  0  0  0
  -21.5641   -3.4536   25.7751 F   0  0  0  0  0  0
  -30.0444  -13.2368   20.4499 N   0  0  0  0  0  0
  -26.3026  -12.9356   20.3375 N   0  0  0  0  0  0
  -25.9299  -11.6506   20.5747 N   0  0  0  0  0  0
  -22.0472  -12.8204   22.0415 N   0  0  0  0  0  0
  -25.4295  -15.1874   20.4118 N   0  0  0  0  0  0
  -31.8567  -14.5697   20.0636 O   0  0  0  0  0  0
  -21.6636   -6.8854   21.4246 O   0  0  0  0  0  0
  -22.3514  -14.5516   20.6700 O   0  0  0  0  0  0
  -24.6115  -31.8695   23.2154 C   0  0  0  0  0  0
  -25.9038  -32.4820   23.8427 C   0  0  1  0  0  0
  -27.2433  -27.4761   20.0909 C   0  0  0  0  0  0
  -25.5921  -33.8617   24.2364 N   0  0  0  0  0  0
  -23.4006  -30.4923   21.5505 C   0  0  2  0  0  0
  -24.8491  -28.9629   20.1126 C   0  0  0  0  0  0
  -22.7406  -29.4629   22.4990 C   0  0  0  0  0  0
  -18.0262  -28.1362   22.8487 C   0  0  0  0  0  0
  -24.1491  -36.7325   23.2637 C   0  0  0  0  0  0
  -25.9230  -30.8479   21.3625 C   0  0  0  0  0  0
  -26.0033  -29.4856   20.7082 C   0  0  0  0  0  0
  -27.2028  -28.7482   20.7015 C   0  0  0  0  0  0
  -26.0810  -26.9601   19.4840 C   0  0  0  0  0  0
  -24.8804  -27.6958   19.4991 C   0  0  0  0  0  0
  -23.6122  -29.8271   20.1613 C   0  0  0  0  0  0
  -25.4107  -36.3103   24.0335 C   0  0  1  0  0  0
  -20.5860  -28.3626   23.1311 C   0  0  2  0  0  0
  -20.6769  -26.9359   22.5427 C   0  0  0  0  0  0
  -19.5745  -26.6370   21.5203 C   0  0  0  0  0  0
  -18.1903  -26.7917   22.1596 C   0  0  0  0  0  0
  -19.1526  -28.8812   23.2890 C   0  0  0  0  0  0
  -18.9457  -30.1428   23.8907 C   0  0  0  0  0  0
  -17.6459  -30.6592   24.0541 C   0  0  0  0  0  0
  -25.9037  -34.9469   23.5138 C   0  0  0  0  0  0
  -16.5339  -29.9103   23.6291 C   0  0  0  0  0  0
  -16.7249  -28.6498   23.0331 C   0  0  0  0  0  0
  -26.4502  -31.6583   25.0738 C   0  0  0  0  0  0
  -25.3786  -31.3680   26.1513 C   0  0  0  0  0  0
  -27.0314  -30.3025   24.6059 C   0  0  0  0  0  0
  -27.6059  -32.4326   25.7494 C   0  0  0  0  0  0
  -27.5580  -37.1803   24.8445 C   0  0  0  0  0  0
  -21.4135  -29.3019   22.3735 N   0  0  0  0  0  0
  -26.4287  -37.3792   23.9408 N   0  0  0  0  0  0
  -24.6618  -31.0858   22.0999 N   0  0  0  0  0  0
  -23.4185  -28.8145   23.3001 O   0  0  0  0  0  0
  -28.3905  -26.7229   20.0822 O   0  0  0  0  0  0
  -26.5571  -34.8919   22.4683 O   0  0  0  0  0  0
  -23.5315  -32.1376   23.7599 O   0  0  0  0  0  0
  -27.9408  -22.2884   23.0779 C   0  0  0  0  0  0
  -27.4856  -23.4735   23.6853 C   0  0  0  0  0  0
  -26.3663  -23.3994   24.5463 C   0  0  0  0  0  0
  -27.2605  -21.0845   23.3126 C   0  0  0  0  0  0
  -25.7692  -22.1328   24.7537 C   0  0  0  0  0  0
  -28.9552  -17.5164   21.2145 C   0  0  0  0  0  0
  -29.5906  -16.5222   23.4234 C   0  0  0  0  0  0
  -30.0199  -16.6307   20.5592 C   0  0  0  0  0  0
  -30.5723  -15.5883   22.6861 C   0  0  0  0  0  0
  -29.3678  -17.8450   22.6645 C   0  0  0  0  0  0
  -24.5763  -21.9907   25.6798 C   0  0  0  0  0  0
  -28.1919  -24.7732   23.3388 C   0  0  0  0  0  0
  -27.7024  -19.8399   22.5619 C   0  0  0  0  0  0
  -28.4103  -18.7898   23.4352 C   0  0  0  0  0  0
  -27.9899  -25.1307   21.8569 C   0  0  0  0  0  0
  -28.8304  -26.3218   21.3802 C   0  0  0  0  0  0
  -26.1995  -20.9981   24.1454 N   0  0  0  0  0  0
  -30.1631  -15.3674   21.2922 N   0  0  0  0  0  0
  -25.7229  -24.8132   25.3148 Cl  0  0  0  0  0  0
  -31.4531  -12.3219   19.1165 H   0  0  0  0  0  0
  -30.2608  -11.2459   19.7870 H   0  0  0  0  0  0
  -29.7077  -11.7832   17.4082 H   0  0  0  0  0  0
  -29.6765  -13.4910   17.7715 H   0  0  0  0  0  0
  -27.8101  -11.3243   18.8024 H   0  0  0  0  0  0
  -27.3565  -12.6646   17.7862 H   0  0  0  0  0  0
  -27.7180  -14.2627   19.6013 H   0  0  0  0  0  0
  -28.6484  -11.9344   21.3452 H   0  0  0  0  0  0
  -28.4702  -13.5817   21.8729 H   0  0  0  0  0  0
  -25.2730   -9.5700   22.4729 H   0  0  0  0  0  0
  -23.9985   -7.4646   22.7473 H   0  0  0  0  0  0
  -21.0821   -8.8723   19.8938 H   0  0  0  0  0  0
  -22.3634  -10.9643   19.6150 H   0  0  0  0  0  0
  -21.1998   -7.6134   23.9705 H   0  0  0  0  0  0
  -21.1496   -6.0517   25.9073 H   0  0  0  0  0  0
  -22.0589   -2.7599   23.2863 H   0  0  0  0  0  0
  -22.4109  -11.9881   22.4819 H   0  0  0  0  0  0
  -21.1083  -13.1212   22.2588 H   0  0  0  0  0  0
  -24.6722  -15.8490   20.5391 H   0  0  0  0  0  0
  -26.2958  -15.6252   20.1244 H   0  0  0  0  0  0
  -26.7123  -32.5536   23.1205 H   0  0  0  0  0  0
  -25.0114  -33.9785   25.0546 H   0  0  0  0  0  0
  -22.6881  -31.3063   21.4104 H   0  0  0  0  0  0
  -23.3740  -35.9658   23.3297 H   0  0  0  0  0  0
  -24.3604  -36.8935   22.2056 H   0  0  0  0  0  0
  -23.7261  -37.6537   23.6656 H   0  0  0  0  0  0
  -26.0352  -31.6237   20.6036 H   0  0  0  0  0  0
  -26.8082  -30.8957   21.9850 H   0  0  0  0  0  0
  -28.0925  -29.1513   21.1662 H   0  0  0  0  0  0
  -26.1081  -25.9833   19.0200 H   0  0  0  0  0  0
  -23.9930  -27.2889   19.0359 H   0  0  0  0  0  0
  -23.7229  -30.6031   19.4036 H   0  0  0  0  0  0
  -22.7376  -29.2486   19.8600 H   0  0  0  0  0  0
  -25.1285  -36.1968   25.0830 H   0  0  0  0  0  0
  -20.9919  -28.3222   24.1436 H   0  0  0  0  0  0
  -20.5678  -26.2254   23.3651 H   0  0  0  0  0  0
  -21.6637  -26.7443   22.1189 H   0  0  0  0  0  0
  -19.6937  -25.6276   21.1246 H   0  0  0  0  0  0
  -19.6711  -27.3203   20.6742 H   0  0  0  0  0  0
  -17.4192  -26.6641   21.3986 H   0  0  0  0  0  0
  -18.0257  -26.0105   22.9027 H   0  0  0  0  0  0
  -19.7954  -30.7185   24.2346 H   0  0  0  0  0  0
  -17.5037  -31.6283   24.5128 H   0  0  0  0  0  0
  -15.5344  -30.2993   23.7680 H   0  0  0  0  0  0
  -15.8627  -28.0840   22.7050 H   0  0  0  0  0  0
  -24.5967  -30.7017   25.7878 H   0  0  0  0  0  0
  -24.8998  -32.2828   26.4998 H   0  0  0  0  0  0
  -25.8199  -30.8841   27.0242 H   0  0  0  0  0  0
  -26.2785  -29.6799   24.1196 H   0  0  0  0  0  0
  -27.4173  -29.7280   25.4499 H   0  0  0  0  0  0
  -27.8610  -30.4360   23.9101 H   0  0  0  0  0  0
  -27.2625  -33.3603   26.2083 H   0  0  0  0  0  0
  -28.3842  -32.6923   25.0314 H   0  0  0  0  0  0
  -28.0731  -31.8452   26.5411 H   0  0  0  0  0  0
  -28.2553  -38.0153   24.7539 H   0  0  0  0  0  0
  -28.1129  -36.2682   24.6191 H   0  0  0  0  0  0
  -27.2304  -37.1324   25.8850 H   0  0  0  0  0  0
  -20.9336  -29.8802   21.6979 H   0  0  0  0  0  0
  -26.0188  -38.2850   24.1485 H   0  0  0  0  0  0
  -28.7848  -22.3127   22.4013 H   0  0  0  0  0  0
  -27.9842  -17.0217   21.1892 H   0  0  0  0  0  0
  -28.8652  -18.4135   20.6037 H   0  0  0  0  0  0
  -29.9635  -16.7205   24.4275 H   0  0  0  0  0  0
  -28.6361  -16.0094   23.5489 H   0  0  0  0  0  0
  -30.9812  -17.1498   20.5365 H   0  0  0  0  0  0
  -29.7501  -16.4471   19.5165 H   0  0  0  0  0  0
  -30.6332  -14.6347   23.2166 H   0  0  0  0  0  0
  -31.5777  -16.0134   22.7030 H   0  0  0  0  0  0
  -30.3291  -18.3589   22.6013 H   0  0  0  0  0  0
  -24.8280  -22.3565   26.6773 H   0  0  0  0  0  0
  -24.2492  -20.9568   25.7705 H   0  0  0  0  0  0
  -23.7371  -22.5793   25.3059 H   0  0  0  0  0  0
  -29.2509  -24.6613   23.5690 H   0  0  0  0  0  0
  -27.8381  -25.5930   23.9631 H   0  0  0  0  0  0
  -28.3738  -20.1795   21.7734 H   0  0  0  0  0  0
  -26.8535  -19.3770   22.0586 H   0  0  0  0  0  0
  -29.0016  -19.3033   24.1977 H   0  0  0  0  0  0
  -27.6523  -18.2295   23.9819 H   0  0  0  0  0  0
  -26.9272  -25.3192   21.6963 H   0  0  0  0  0  0
  -28.2397  -24.2797   21.2227 H   0  0  0  0  0  0
  -29.8762  -26.0243   21.3189 H   0  0  0  0  0  0
  -28.7874  -27.1381   22.1025 H   0  0  0  0  0  0
  1 25  1  0  0  0
  1 30  2  0  0  0
  1 88  1  0  0  0
  2  3  1  0  0  0
  2 25  1  0  0  0
  2 90  1  0  0  0
  2 91  1  0  0  0
  3  4  1  0  0  0
  3 92  1  0  0  0
  3 93  1  0  0  0
  4  5  1  0  0  0
  4 94  1  0  0  0
  4 95  1  0  0  0
  5  6  1  0  0  0
  5 26  1  0  0  0
  5 96  1  0  0  0
  6 25  1  0  0  0
  6 97  1  0  0  0
  6 98  1  0  0  0
  7  8  2  0  0  0
  7 26  1  0  0  0
  7 29  1  0  0  0
  8  9  1  0  0  0
  8 22  1  0  0  0
  9 10  1  0  0  0
  9 27  2  0  0  0
 10 11  2  0  0  0
 10 15  1  0  0  0
 11 12  1  0  0  0
 11 99  1  0  0  0
 12 13  2  0  0  0
 12100  1  0  0  0
 13 14  1  0  0  0
 13 31  1  0  0  0
 14 15  2  0  0  0
 14101  1  0  0  0
 15102  1  0  0  0
 16 17  2  0  0  0
 16 21  1  0  0  0
 16 31  1  0  0  0
 17 18  1  0  0  0
 17103  1  0  0  0
 18 19  2  0  0  0
 18104  1  0  0  0
 19 20  1  0  0  0
 19 24  1  0  0  0
 20 21  2  0  0  0
 20105  1  0  0  0
 21 23  1  0  0  0
 22 28  1  0  0  0
 22 32  2  0  0  0
 26 27  1  0  0  0
 28106  1  0  0  0
 28107  1  0  0  0
 29108  1  0  0  0
 29109  1  0  0  0
 33 34  1  0  0  0
 33 66  1  0  0  0
 33 70  2  0  0  0
 34 36  1  0  0  0
 34 59  1  0  0  0
 34110  1  0  0  0
 35 44  2  0  0  0
 35 45  1  0  0  0
 35 68  1  0  0  0
 36 56  1  0  0  0
 36111  1  0  0  0
 37 39  1  0  0  0
 37 47  1  0  0  0
 37 66  1  0  0  0
 37112  1  0  0  0
 38 43  2  0  0  0
 38 46  1  0  0  0
 38 47  1  0  0  0
 39 64  1  0  0  0
 39 67  2  0  0  0
 40 52  1  0  0  0
 40 53  2  0  0  0
 40 58  1  0  0  0
 41113  1  0  0  0
 41114  1  0  0  0
 41115  1  0  0  0
 41 48  1  0  0  0
 42 43  1  0  0  0
 42 66  1  0  0  0
 42116  1  0  0  0
 42117  1  0  0  0
 43 44  1  0  0  0
 44118  1  0  0  0
 45 46  2  0  0  0
 45119  1  0  0  0
 46120  1  0  0  0
 47121  1  0  0  0
 47122  1  0  0  0
 48 56  1  0  0  0
 48 65  1  0  0  0
 48123  1  0  0  0
 49 50  1  0  0  0
 49 53  1  0  0  0
 49 64  1  0  0  0
 49124  1  0  0  0
 50 51  1  0  0  0
 50125  1  0  0  0
 50126  1  0  0  0
 51 52  1  0  0  0
 51127  1  0  0  0
 51128  1  0  0  0
 52129  1  0  0  0
 52130  1  0  0  0
 53 54  1  0  0  0
 54 55  2  0  0  0
 54131  1  0  0  0
 55 57  1  0  0  0
 55132  1  0  0  0
 56 69  2  0  0  0
 57 58  2  0  0  0
 57133  1  0  0  0
 58134  1  0  0  0
 59 60  1  0  0  0
 59 61  1  0  0  0
 59 62  1  0  0  0
 60135  1  0  0  0
 60136  1  0  0  0
 60137  1  0  0  0
 61138  1  0  0  0
 61139  1  0  0  0
 61140  1  0  0  0
 62141  1  0  0  0
 62142  1  0  0  0
 62143  1  0  0  0
 63 65  1  0  0  0
 63144  1  0  0  0
 63145  1  0  0  0
 63146  1  0  0  0
 64147  1  0  0  0
 65148  1  0  0  0
 68 86  1  0  0  0
 71 72  2  0  0  0
 71 74  1  0  0  0
 71149  1  0  0  0
 72 73  1  0  0  0
 72 82  1  0  0  0
 73 75  2  0  0  0
 73 89  1  0  0  0
 74 83  1  0  0  0
 74 87  2  0  0  0
 75 81  1  0  0  0
 75 87  1  0  0  0
 76 78  1  0  0  0
 76 80  1  0  0  0
 76150  1  0  0  0
 76151  1  0  0  0
 77 79  1  0  0  0
 77 80  1  0  0  0
 77152  1  0  0  0
 77153  1  0  0  0
 78 88  1  0  0  0
 78154  1  0  0  0
 78155  1  0  0  0
 79 88  1  0  0  0
 79156  1  0  0  0
 79157  1  0  0  0
 80 84  1  0  0  0
 80158  1  0  0  0
 81159  1  0  0  0
 81160  1  0  0  0
 81161  1  0  0  0
 82 85  1  0  0  0
 82162  1  0  0  0
 82163  1  0  0  0
 83 84  1  0  0  0
 83164  1  0  0  0
 83165  1  0  0  0
 84166  1  0  0  0
 84167  1  0  0  0
 85 86  1  0  0  0
 85168  1  0  0  0
 85169  1  0  0  0
 86170  1  0  0  0
 86171  1  0  0  0
M  ISO  4   1 100  68 101  86 101  88 100
M  END
> <chiral flag>
0

> <version>
0

> <s_m_source_file>
/data/baiqing/PycharmProjects/Reinvent-master-3.2/result/LINK_invent/BTK/process_docking_weight1_custom_sum_contain_oxygen_bond_distance_aromatic_linkinvent_7_9_3/rearranged_h_0027.sdf

> <i_m_source_file_index>
20

> <r_mmod_Potential_Energy-OPLS-2005>
36.0656356811523

> <r_mmod_Stretch_Energy-OPLS-2005>
34.4326210021973

> <r_mmod_Bend_Energy-OPLS-2005>
99.633430480957

> <r_mmod_Torsional_Energy-OPLS-2005>
332.265747070312

> <r_mmod_Improper_Torsional_Energy-OPLS-2005>
7.88823175430298

> <r_mmod_Van_der_Waal_Energy-OPLS-2005>
160.886367797852

> <r_mmod_Electrostatic_Energy-OPLS-2005>
-409.732269287109

> <r_mmod_Solvation_Energy-OPLS-2005>
-197.615966796875

> <b_mmod_Minimization_Converged-OPLS-2005>
0

> <r_mmod_RMS_Derivative-OPLS-2005>
4.92382383346558

$$$$
20
                    3D
 Structure written by MMmdl.
169178  0  0  1  0            999 V2000
  -30.7544  -14.3594   20.6252 C   0  0  0  0  0  0
  -30.4106  -12.2596   19.4000 C   0  0  0  0  0  0
  -29.4872  -12.5147   18.1941 C   0  0  0  0  0  0
  -28.0076  -12.3865   18.6055 C   0  0  0  0  0  0
  -27.6680  -13.2028   19.8811 C   0  0  2  0  0  0
  -28.7049  -12.9347   20.9951 C   0  0  0  0  0  0
  -25.2612  -13.8156   20.5670 C   0  0  0  0  0  0
  -24.1850  -13.0441   20.9165 C   0  0  0  0  0  0
  -24.6396  -11.6904   20.8719 C   0  0  0  0  0  0
  -23.9063  -10.4293   21.0398 C   0  0  0  0  0  0
  -24.3609   -9.4211   21.9178 C   0  0  0  0  0  0
  -23.6288   -8.2245   22.0750 C   0  0  0  0  0  0
  -22.4271   -8.0282   21.3542 C   0  0  0  0  0  0
  -21.9908   -9.0256   20.4644 C   0  0  0  0  0  0
  -22.7235  -10.2133   20.3043 C   0  0  0  0  0  0
  -21.6853   -6.0737   22.5281 C   0  0  0  0  0  0
  -21.4005   -6.5634   23.8210 C   0  0  0  0  0  0
  -21.3652   -5.6784   24.9173 C   0  0  0  0  0  0
  -21.6044   -4.3052   24.7226 C   0  0  0  0  0  0
  -21.8817   -3.8149   23.4344 C   0  0  0  0  0  0
  -21.9194   -4.6964   22.3402 C   0  0  0  0  0  0
  -22.7874  -13.5248   21.1827 C   0  0  0  0  0  0
  -22.1669   -4.2154   21.0981 F   0  0  0  0  0  0
  -21.5626   -3.4530   25.7739 F   0  0  0  0  0  0
  -30.0490  -13.2141   20.4570 N   0  0  0  0  0  0
  -26.3053  -12.9326   20.3377 N   0  0  0  0  0  0
  -25.9320  -11.6484   20.5747 N   0  0  0  0  0  0
  -22.0502  -12.8239   22.0372 N   0  0  0  0  0  0
  -25.4335  -15.1873   20.4090 N   0  0  0  0  0  0
  -31.8295  -14.5734   20.0579 O   0  0  0  0  0  0
  -21.6631   -6.8881   21.4243 O   0  0  0  0  0  0
  -22.3571  -14.5563   20.6682 O   0  0  0  0  0  0
  -24.6039  -31.8713   23.2122 C   0  0  0  0  0  0
  -25.8962  -32.4852   23.8396 C   0  0  1  0  0  0
  -27.2734  -27.5055   20.1089 C   0  0  0  0  0  0
  -25.5829  -33.8646   24.2317 N   0  0  0  0  0  0
  -23.3891  -30.4912   21.5500 C   0  0  2  0  0  0
  -24.8435  -28.9592   20.1196 C   0  0  0  0  0  0
  -22.7346  -29.4678   22.5026 C   0  0  0  0  0  0
  -18.0253  -28.1373   22.8494 C   0  0  0  0  0  0
  -24.1464  -36.7345   23.2647 C   0  0  0  0  0  0
  -25.9043  -30.8679   21.3466 C   0  0  0  0  0  0
  -25.9913  -29.5034   20.7031 C   0  0  0  0  0  0
  -27.2023  -28.7944   20.6863 C   0  0  0  0  0  0
  -26.1049  -26.9606   19.5332 C   0  0  0  0  0  0
  -24.8926  -27.6822   19.5285 C   0  0  0  0  0  0
  -23.5953  -29.8102   20.1673 C   0  0  0  0  0  0
  -25.4087  -36.3138   24.0337 C   0  0  1  0  0  0
  -20.5833  -28.3647   23.1347 C   0  0  2  0  0  0
  -20.6734  -26.9386   22.5452 C   0  0  0  0  0  0
  -19.5731  -26.6383   21.5222 C   0  0  0  0  0  0
  -18.1896  -26.7931   22.1598 C   0  0  0  0  0  0
  -19.1504  -28.8819   23.2921 C   0  0  0  0  0  0
  -18.9445  -30.1423   23.8932 C   0  0  0  0  0  0
  -17.6456  -30.6585   24.0569 C   0  0  0  0  0  0
  -25.9012  -34.9501   23.5137 C   0  0  0  0  0  0
  -16.5339  -29.9100   23.6316 C   0  0  0  0  0  0
  -16.7250  -28.6513   23.0338 C   0  0  0  0  0  0
  -26.4443  -31.6622   25.0702 C   0  0  0  0  0  0
  -25.3750  -31.3715   26.1490 C   0  0  0  0  0  0
  -27.0295  -30.3084   24.6035 C   0  0  0  0  0  0
  -27.6018  -32.4363   25.7441 C   0  0  0  0  0  0
  -27.5585  -37.1805   24.8440 C   0  0  0  0  0  0
  -21.4085  -29.3013   22.3755 N   0  0  0  0  0  0
  -26.4271  -37.3822   23.9425 N   0  0  0  0  0  0
  -24.6509  -31.0883   22.0977 N   0  0  0  0  0  0
  -23.4154  -28.8232   23.3054 O   0  0  0  0  0  0
  -28.4260  -26.7470   20.0698 O   0  0  0  0  0  0
  -26.5605  -34.8946   22.4716 O   0  0  0  0  0  0
  -23.5260  -32.1417   23.7570 O   0  0  0  0  0  0
  -30.4164  -18.7145   22.8228 C   0  0  0  0  0  0
  -31.0847  -17.3628   20.4592 C   0  0  0  0  0  0
  -31.0265  -19.4246   21.7628 C   0  0  0  0  0  0
  -30.4996  -16.6453   21.5290 C   0  0  0  0  0  0
  -30.1490  -17.3370   22.7075 C   0  0  0  0  0  0
  -31.3508  -18.7356   20.5691 C   0  0  0  0  0  0
  -30.0152  -21.6917   21.3925 C   0  0  0  0  0  0
  -31.6761  -21.4458   23.2484 C   0  0  0  0  0  0
  -30.3057  -23.1962   21.3465 C   0  0  0  0  0  0
  -31.9569  -22.9594   23.1782 C   0  0  0  0  0  0
  -31.2577  -20.9271   21.8612 C   0  0  1  0  0  0
  -29.7144  -25.9703   22.7466 C   0  0  0  0  0  0
  -29.7733  -27.3532   22.0863 C   0  0  0  0  0  0
  -31.0243  -25.1710   22.6125 C   0  0  0  0  0  0
  -29.6529  -27.3182   20.5421 C   0  0  0  0  0  0
  -30.1906  -15.2620   21.4369 N   0  0  0  0  0  0
  -30.7814  -23.7114   22.6613 N   0  3  1  0  0  0
  -29.3776  -16.5102   24.0153 Cl  0  0  0  0  0  0
  -32.0351  -19.5399   19.1978 Cl  0  0  0  0  0  0
  -31.4566  -12.3380   19.0978 H   0  0  0  0  0  0
  -30.2876  -11.2395   19.7654 H   0  0  0  0  0  0
  -29.7142  -11.8117   17.3915 H   0  0  0  0  0  0
  -29.6750  -13.5105   17.7905 H   0  0  0  0  0  0
  -27.7999  -11.3298   18.7755 H   0  0  0  0  0  0
  -27.3605  -12.6929   17.7829 H   0  0  0  0  0  0
  -27.7296  -14.2580   19.6147 H   0  0  0  0  0  0
  -28.6582  -11.8893   21.3041 H   0  0  0  0  0  0
  -28.4663  -13.5083   21.8913 H   0  0  0  0  0  0
  -25.2758   -9.5683   22.4748 H   0  0  0  0  0  0
  -24.0004   -7.4631   22.7459 H   0  0  0  0  0  0
  -21.0842   -8.8768   19.8947 H   0  0  0  0  0  0
  -22.3703  -10.9660   19.6136 H   0  0  0  0  0  0
  -21.1986   -7.6138   23.9714 H   0  0  0  0  0  0
  -21.1471   -6.0513   25.9077 H   0  0  0  0  0  0
  -22.0599   -2.7613   23.2839 H   0  0  0  0  0  0
  -22.4097  -11.9889   22.4754 H   0  0  0  0  0  0
  -21.1114  -13.1272   22.2556 H   0  0  0  0  0  0
  -24.6679  -15.8437   20.5180 H   0  0  0  0  0  0
  -26.2940  -15.6272   20.1071 H   0  0  0  0  0  0
  -26.7029  -32.5615   23.1177 H   0  0  0  0  0  0
  -24.9875  -33.9802   25.0386 H   0  0  0  0  0  0
  -22.6744  -31.3045   21.4072 H   0  0  0  0  0  0
  -23.3730  -35.9671   23.3287 H   0  0  0  0  0  0
  -24.3562  -36.8997   22.2068 H   0  0  0  0  0  0
  -23.7198  -37.6530   23.6688 H   0  0  0  0  0  0
  -25.9899  -31.6328   20.5737 H   0  0  0  0  0  0
  -26.8002  -30.9374   21.9511 H   0  0  0  0  0  0
  -28.0671  -29.2714   21.1182 H   0  0  0  0  0  0
  -26.1385  -25.9767   19.0864 H   0  0  0  0  0  0
  -24.0102  -27.2497   19.0786 H   0  0  0  0  0  0
  -23.6881  -30.5760   19.3970 H   0  0  0  0  0  0
  -22.7274  -29.2121   19.8832 H   0  0  0  0  0  0
  -25.1250  -36.2004   25.0824 H   0  0  0  0  0  0
  -20.9921  -28.3232   24.1468 H   0  0  0  0  0  0
  -20.5622  -26.2256   23.3637 H   0  0  0  0  0  0
  -21.6618  -26.7432   22.1271 H   0  0  0  0  0  0
  -19.6897  -25.6300   21.1239 H   0  0  0  0  0  0
  -19.6690  -27.3211   20.6768 H   0  0  0  0  0  0
  -17.4187  -26.6730   21.3964 H   0  0  0  0  0  0
  -18.0250  -26.0045   22.8954 H   0  0  0  0  0  0
  -19.7931  -30.7212   24.2325 H   0  0  0  0  0  0
  -17.5029  -31.6264   24.5179 H   0  0  0  0  0  0
  -15.5347  -30.3020   23.7616 H   0  0  0  0  0  0
  -15.8645  -28.0852   22.7026 H   0  0  0  0  0  0
  -24.5857  -30.7145   25.7828 H   0  0  0  0  0  0
  -24.9032  -32.2883   26.5028 H   0  0  0  0  0  0
  -25.8128  -30.8798   27.0185 H   0  0  0  0  0  0
  -26.2820  -29.6818   24.1171 H   0  0  0  0  0  0
  -27.4171  -29.7340   25.4455 H   0  0  0  0  0  0
  -27.8586  -30.4421   23.9090 H   0  0  0  0  0  0
  -27.2598  -33.3588   26.2138 H   0  0  0  0  0  0
  -28.3734  -32.7071   25.0228 H   0  0  0  0  0  0
  -28.0817  -31.8468   26.5258 H   0  0  0  0  0  0
  -28.2557  -38.0148   24.7548 H   0  0  0  0  0  0
  -28.1106  -36.2679   24.6141 H   0  0  0  0  0  0
  -27.2332  -37.1331   25.8849 H   0  0  0  0  0  0
  -20.9238  -29.8712   21.6962 H   0  0  0  0  0  0
  -26.0162  -38.2886   24.1485 H   0  0  0  0  0  0
  -30.1230  -19.2178   23.7305 H   0  0  0  0  0  0
  -31.3242  -16.8841   19.5218 H   0  0  0  0  0  0
  -29.7204  -21.3570   20.3975 H   0  0  0  0  0  0
  -29.1687  -21.4851   22.0480 H   0  0  0  0  0  0
  -30.9023  -21.2606   23.9932 H   0  0  0  0  0  0
  -32.5701  -20.9243   23.5927 H   0  0  0  0  0  0
  -29.4054  -23.7197   21.0269 H   0  0  0  0  0  0
  -31.0606  -23.3950   20.5837 H   0  0  0  0  0  0
  -32.8214  -23.1519   22.5402 H   0  0  0  0  0  0
  -32.2186  -23.3228   24.1729 H   0  0  0  0  0  0
  -32.0851  -21.1781   21.1981 H   0  0  0  0  0  0
  -28.8585  -25.4319   22.3392 H   0  0  0  0  0  0
  -29.4968  -26.0876   23.8090 H   0  0  0  0  0  0
  -30.7027  -27.8533   22.3644 H   0  0  0  0  0  0
  -28.9821  -27.9588   22.5242 H   0  0  0  0  0  0
  -31.6946  -25.4747   23.4186 H   0  0  0  0  0  0
  -31.5537  -25.4134   21.6905 H   0  0  0  0  0  0
  -30.4643  -26.7190   20.1295 H   0  0  0  0  0  0
  -29.8034  -28.3128   20.1201 H   0  0  0  0  0  0
  -29.4244  -14.9386   22.0073 H   0  0  0  0  0  0
  -30.0416  -23.5688   23.3331 H   0  0  0  0  0  0
  1 25  1  0  0  0
  1 30  2  0  0  0
  1 86  1  0  0  0
  2  3  1  0  0  0
  2 25  1  0  0  0
  2 90  1  0  0  0
  2 91  1  0  0  0
  3  4  1  0  0  0
  3 92  1  0  0  0
  3 93  1  0  0  0
  4  5  1  0  0  0
  4 94  1  0  0  0
  4 95  1  0  0  0
  5  6  1  0  0  0
  5 26  1  0  0  0
  5 96  1  0  0  0
  6 25  1  0  0  0
  6 97  1  0  0  0
  6 98  1  0  0  0
  7  8  2  0  0  0
  7 26  1  0  0  0
  7 29  1  0  0  0
  8  9  1  0  0  0
  8 22  1  0  0  0
  9 10  1  0  0  0
  9 27  2  0  0  0
 10 11  2  0  0  0
 10 15  1  0  0  0
 11 12  1  0  0  0
 11 99  1  0  0  0
 12 13  2  0  0  0
 12100  1  0  0  0
 13 14  1  0  0  0
 13 31  1  0  0  0
 14 15  2  0  0  0
 14101  1  0  0  0
 15102  1  0  0  0
 16 17  2  0  0  0
 16 21  1  0  0  0
 16 31  1  0  0  0
 17 18  1  0  0  0
 17103  1  0  0  0
 18 19  2  0  0  0
 18104  1  0  0  0
 19 20  1  0  0  0
 19 24  1  0  0  0
 20 21  2  0  0  0
 20105  1  0  0  0
 21 23  1  0  0  0
 22 28  1  0  0  0
 22 32  2  0  0  0
 26 27  1  0  0  0
 28106  1  0  0  0
 28107  1  0  0  0
 29108  1  0  0  0
 29109  1  0  0  0
 33 34  1  0  0  0
 33 66  1  0  0  0
 33 70  2  0  0  0
 34 36  1  0  0  0
 34 59  1  0  0  0
 34110  1  0  0  0
 35 44  2  0  0  0
 35 45  1  0  0  0
 35 68  1  0  0  0
 36 56  1  0  0  0
 36111  1  0  0  0
 37 39  1  0  0  0
 37 47  1  0  0  0
 37 66  1  0  0  0
 37112  1  0  0  0
 38 43  2  0  0  0
 38 46  1  0  0  0
 38 47  1  0  0  0
 39 64  1  0  0  0
 39 67  2  0  0  0
 40 52  1  0  0  0
 40 53  2  0  0  0
 40 58  1  0  0  0
 41113  1  0  0  0
 41114  1  0  0  0
 41115  1  0  0  0
 41 48  1  0  0  0
 42 43  1  0  0  0
 42 66  1  0  0  0
 42116  1  0  0  0
 42117  1  0  0  0
 43 44  1  0  0  0
 44118  1  0  0  0
 45 46  2  0  0  0
 45119  1  0  0  0
 46120  1  0  0  0
 47121  1  0  0  0
 47122  1  0  0  0
 48 56  1  0  0  0
 48 65  1  0  0  0
 48123  1  0  0  0
 49 50  1  0  0  0
 49 53  1  0  0  0
 49 64  1  0  0  0
 49124  1  0  0  0
 50 51  1  0  0  0
 50125  1  0  0  0
 50126  1  0  0  0
 51 52  1  0  0  0
 51127  1  0  0  0
 51128  1  0  0  0
 52129  1  0  0  0
 52130  1  0  0  0
 53 54  1  0  0  0
 54 55  2  0  0  0
 54131  1  0  0  0
 55 57  1  0  0  0
 55132  1  0  0  0
 56 69  2  0  0  0
 57 58  2  0  0  0
 57133  1  0  0  0
 58134  1  0  0  0
 59 60  1  0  0  0
 59 61  1  0  0  0
 59 62  1  0  0  0
 60135  1  0  0  0
 60136  1  0  0  0
 60137  1  0  0  0
 61138  1  0  0  0
 61139  1  0  0  0
 61140  1  0  0  0
 62141  1  0  0  0
 62142  1  0  0  0
 62143  1  0  0  0
 63 65  1  0  0  0
 63144  1  0  0  0
 63145  1  0  0  0
 63146  1  0  0  0
 64147  1  0  0  0
 65148  1  0  0  0
 68 85  1  0  0  0
 71 73  2  0  0  0
 71 75  1  0  0  0
 71149  1  0  0  0
 72 74  1  0  0  0
 72 76  2  0  0  0
 72150  1  0  0  0
 73 76  1  0  0  0
 73 81  1  0  0  0
 74 75  2  0  0  0
 74 86  1  0  0  0
 75 88  1  0  0  0
 76 89  1  0  0  0
 77 79  1  0  0  0
 77 81  1  0  0  0
 77151  1  0  0  0
 77152  1  0  0  0
 78 80  1  0  0  0
 78 81  1  0  0  0
 78153  1  0  0  0
 78154  1  0  0  0
 79 87  1  0  0  0
 79155  1  0  0  0
 79156  1  0  0  0
 80 87  1  0  0  0
 80157  1  0  0  0
 80158  1  0  0  0
 81159  1  0  0  0
 82 83  1  0  0  0
 82 84  1  0  0  0
 82160  1  0  0  0
 82161  1  0  0  0
 83 85  1  0  0  0
 83162  1  0  0  0
 83163  1  0  0  0
 84164  1  0  0  0
 84165  1  0  0  0
 84 87  1  0  0  0
 85166  1  0  0  0
 85167  1  0  0  0
 86168  1  0  0  0
 87169  1  0  0  0
M  CHG  1  87   1
M  ISO  4   1 100  68 101  85 101  86 100
M  END
> <chiral flag>
0

> <version>
0

> <s_m_source_file>
/data/baiqing/PycharmProjects/Reinvent-master-3.2/result/LINK_invent/BTK/process_docking_weight1_custom_sum_contain_oxygen_bond_distance_aromatic_linkinvent_7_9_3/rearranged_h_0027.sdf

> <i_m_source_file_index>
21

> <r_mmod_Potential_Energy-OPLS-2005>
-153.631973266602

> <r_mmod_Stretch_Energy-OPLS-2005>
33.6357536315918

> <r_mmod_Bend_Energy-OPLS-2005>
103.317153930664

> <r_mmod_Torsional_Energy-OPLS-2005>
244.444702148438

> <r_mmod_Improper_Torsional_Energy-OPLS-2005>
2.29255414009094

> <r_mmod_Van_der_Waal_Energy-OPLS-2005>
175.089904785156

> <r_mmod_Electrostatic_Energy-OPLS-2005>
-284.007293701172

> <r_mmod_Solvation_Energy-OPLS-2005>
-435.457305908203

> <b_mmod_Minimization_Converged-OPLS-2005>
0

> <r_mmod_RMS_Derivative-OPLS-2005>
1.69138538837433

$$$$
21
                    3D
 Structure written by MMmdl.
156164  0  0  1  0            999 V2000
  -30.6952  -14.4454   20.6296 C   0  0  0  0  0  0
  -30.4346  -12.3178   19.3912 C   0  0  0  0  0  0
  -29.4921  -12.5138   18.1879 C   0  0  0  0  0  0
  -28.0117  -12.3858   18.6036 C   0  0  0  0  0  0
  -27.6664  -13.2004   19.8778 C   0  0  2  0  0  0
  -28.7079  -12.9387   20.9847 C   0  0  0  0  0  0
  -25.2624  -13.8136   20.5647 C   0  0  0  0  0  0
  -24.1869  -13.0425   20.9162 C   0  0  0  0  0  0
  -24.6418  -11.6893   20.8751 C   0  0  0  0  0  0
  -23.9087  -10.4284   21.0422 C   0  0  0  0  0  0
  -24.3645   -9.4196   21.9186 C   0  0  0  0  0  0
  -23.6317   -8.2236   22.0751 C   0  0  0  0  0  0
  -22.4289   -8.0290   21.3559 C   0  0  0  0  0  0
  -21.9938   -9.0263   20.4652 C   0  0  0  0  0  0
  -22.7274  -10.2134   20.3065 C   0  0  0  0  0  0
  -21.6860   -6.0745   22.5284 C   0  0  0  0  0  0
  -21.4009   -6.5642   23.8214 C   0  0  0  0  0  0
  -21.3649   -5.6791   24.9171 C   0  0  0  0  0  0
  -21.6051   -4.3059   24.7220 C   0  0  0  0  0  0
  -21.8826   -3.8157   23.4342 C   0  0  0  0  0  0
  -21.9201   -4.6977   22.3407 C   0  0  0  0  0  0
  -22.7903  -13.5240   21.1828 C   0  0  0  0  0  0
  -22.1664   -4.2161   21.0983 F   0  0  0  0  0  0
  -21.5644   -3.4546   25.7729 F   0  0  0  0  0  0
  -30.0356  -13.2721   20.4387 N   0  0  0  0  0  0
  -26.3055  -12.9294   20.3366 N   0  0  0  0  0  0
  -25.9344  -11.6469   20.5786 N   0  0  0  0  0  0
  -22.0532  -12.8239   22.0378 N   0  0  0  0  0  0
  -25.4395  -15.1845   20.4013 N   0  0  0  0  0  0
  -31.7998  -14.6865   20.1302 O   0  0  0  0  0  0
  -21.6659   -6.8887   21.4246 O   0  0  0  0  0  0
  -22.3593  -14.5551   20.6690 O   0  0  0  0  0  0
  -24.6113  -31.8709   23.2124 C   0  0  0  0  0  0
  -25.9006  -32.4859   23.8410 C   0  0  1  0  0  0
  -27.2278  -27.4448   20.0952 C   0  0  0  0  0  0
  -25.5859  -33.8646   24.2338 N   0  0  0  0  0  0
  -23.3991  -30.4942   21.5543 C   0  0  2  0  0  0
  -24.8429  -28.9618   20.1176 C   0  0  0  0  0  0
  -22.7400  -29.4671   22.5030 C   0  0  0  0  0  0
  -18.0268  -28.1375   22.8493 C   0  0  0  0  0  0
  -24.1483  -36.7327   23.2644 C   0  0  0  0  0  0
  -25.9267  -30.8410   21.3618 C   0  0  0  0  0  0
  -26.0030  -29.4738   20.7130 C   0  0  0  0  0  0
  -27.1990  -28.7217   20.6991 C   0  0  0  0  0  0
  -26.0566  -26.9513   19.4836 C   0  0  0  0  0  0
  -24.8651  -27.6987   19.5013 C   0  0  0  0  0  0
  -23.6042  -29.8269   20.1686 C   0  0  0  0  0  0
  -25.4105  -36.3147   24.0349 C   0  0  1  0  0  0
  -20.5864  -28.3647   23.1345 C   0  0  2  0  0  0
  -20.6757  -26.9384   22.5441 C   0  0  0  0  0  0
  -19.5741  -26.6378   21.5243 C   0  0  0  0  0  0
  -18.1909  -26.7925   22.1634 C   0  0  0  0  0  0
  -19.1522  -28.8827   23.2915 C   0  0  0  0  0  0
  -18.9449  -30.1431   23.8921 C   0  0  0  0  0  0
  -17.6449  -30.6584   24.0564 C   0  0  0  0  0  0
  -25.9027  -34.9502   23.5155 C   0  0  0  0  0  0
  -16.5337  -29.9086   23.6324 C   0  0  0  0  0  0
  -16.7258  -28.6502   23.0352 C   0  0  0  0  0  0
  -26.4423  -31.6627   25.0730 C   0  0  0  0  0  0
  -25.3669  -31.3735   26.1467 C   0  0  0  0  0  0
  -27.0256  -30.3090   24.6076 C   0  0  0  0  0  0
  -27.6014  -32.4334   25.7478 C   0  0  0  0  0  0
  -27.5589  -37.1817   24.8463 C   0  0  0  0  0  0
  -21.4129  -29.3019   22.3752 N   0  0  0  0  0  0
  -26.4302  -37.3829   23.9414 N   0  0  0  0  0  0
  -24.6647  -31.0817   22.1013 N   0  0  0  0  0  0
  -23.4189  -28.8222   23.3075 O   0  0  0  0  0  0
  -28.3968  -26.7204   20.0553 O   0  0  0  0  0  0
  -26.5612  -34.8944   22.4737 O   0  0  0  0  0  0
  -23.5308  -32.1436   23.7532 O   0  0  0  0  0  0
  -29.7705  -19.8532   19.8523 C   0  0  0  0  0  0
  -30.3583  -18.6485   20.2844 C   0  0  0  0  0  0
  -28.5812  -20.3334   20.4436 C   0  0  0  0  0  0
  -29.7752  -17.8894   21.3211 C   0  0  0  0  0  0
  -27.9732  -19.5663   21.4706 C   0  0  0  0  0  0
  -28.5636  -18.3484   21.9034 C   0  0  0  0  0  0
  -27.9710  -21.6465   19.9334 C   0  0  0  0  0  0
  -30.5145  -16.6505   21.8424 C   0  0  0  0  0  0
  -28.4184  -22.9076   20.7083 C   0  0  0  0  0  0
  -28.0587  -24.2342   19.9948 C   0  0  0  0  0  0
  -28.4198  -25.4987   20.8103 C   0  0  0  0  0  0
  -30.0223  -15.3571   21.3549 N   0  0  0  0  0  0
  -26.5111  -20.1243   22.2171 Cl  0  0  0  0  0  0
  -27.8087  -17.4290   23.1622 Cl  0  0  0  0  0  0
  -31.4709  -12.4548   19.0763 H   0  0  0  0  0  0
  -30.3696  -11.2957   19.7653 H   0  0  0  0  0  0
  -29.7189  -11.7840   17.4084 H   0  0  0  0  0  0
  -29.6689  -13.4964   17.7463 H   0  0  0  0  0  0
  -27.7989  -11.3298   18.7714 H   0  0  0  0  0  0
  -27.3664  -12.6941   17.7811 H   0  0  0  0  0  0
  -27.7218  -14.2561   19.6123 H   0  0  0  0  0  0
  -28.6911  -11.8876   21.2764 H   0  0  0  0  0  0
  -28.4618  -13.4875   21.8945 H   0  0  0  0  0  0
  -25.2787   -9.5682   22.4756 H   0  0  0  0  0  0
  -24.0037   -7.4627   22.7465 H   0  0  0  0  0  0
  -21.0877   -8.8801   19.8948 H   0  0  0  0  0  0
  -22.3748  -10.9687   19.6187 H   0  0  0  0  0  0
  -21.1987   -7.6143   23.9725 H   0  0  0  0  0  0
  -21.1457   -6.0510   25.9068 H   0  0  0  0  0  0
  -22.0619   -2.7622   23.2849 H   0  0  0  0  0  0
  -22.4157  -11.9915   22.4798 H   0  0  0  0  0  0
  -21.1143  -13.1273   22.2522 H   0  0  0  0  0  0
  -24.6913  -15.8555   20.5367 H   0  0  0  0  0  0
  -26.3042  -15.6126   20.0952 H   0  0  0  0  0  0
  -26.7069  -32.5565   23.1158 H   0  0  0  0  0  0
  -24.9941  -33.9819   25.0434 H   0  0  0  0  0  0
  -22.6869  -31.3107   21.4166 H   0  0  0  0  0  0
  -23.3769  -35.9646   23.3323 H   0  0  0  0  0  0
  -24.3569  -36.8931   22.2060 H   0  0  0  0  0  0
  -23.7212  -37.6524   23.6637 H   0  0  0  0  0  0
  -26.0339  -31.6068   20.5929 H   0  0  0  0  0  0
  -26.8178  -30.8987   21.9747 H   0  0  0  0  0  0
  -28.0976  -29.1162   21.1517 H   0  0  0  0  0  0
  -26.0663  -26.0035   18.9681 H   0  0  0  0  0  0
  -23.9754  -27.3043   19.0302 H   0  0  0  0  0  0
  -23.7068  -30.6033   19.4102 H   0  0  0  0  0  0
  -22.7270  -29.2479   19.8747 H   0  0  0  0  0  0
  -25.1284  -36.2030   25.0848 H   0  0  0  0  0  0
  -20.9930  -28.3194   24.1481 H   0  0  0  0  0  0
  -20.5709  -26.2236   23.3614 H   0  0  0  0  0  0
  -21.6618  -26.7456   22.1203 H   0  0  0  0  0  0
  -19.6906  -25.6309   21.1230 H   0  0  0  0  0  0
  -19.6694  -27.3213   20.6799 H   0  0  0  0  0  0
  -17.4193  -26.6697   21.4014 H   0  0  0  0  0  0
  -18.0276  -26.0074   22.9027 H   0  0  0  0  0  0
  -19.7925  -30.7241   24.2311 H   0  0  0  0  0  0
  -17.5008  -31.6275   24.5152 H   0  0  0  0  0  0
  -15.5338  -30.3003   23.7657 H   0  0  0  0  0  0
  -15.8646  -28.0833   22.7073 H   0  0  0  0  0  0
  -24.5821  -30.7126   25.7760 H   0  0  0  0  0  0
  -24.8863  -32.2894   26.4918 H   0  0  0  0  0  0
  -25.7972  -30.8853   27.0222 H   0  0  0  0  0  0
  -26.2800  -29.6882   24.1086 H   0  0  0  0  0  0
  -27.4016  -29.7291   25.4515 H   0  0  0  0  0  0
  -27.8631  -30.4461   23.9236 H   0  0  0  0  0  0
  -27.2660  -33.3631   26.2095 H   0  0  0  0  0  0
  -28.3785  -32.6921   25.0267 H   0  0  0  0  0  0
  -28.0727  -31.8435   26.5348 H   0  0  0  0  0  0
  -28.2614  -38.0111   24.7530 H   0  0  0  0  0  0
  -28.1082  -36.2643   24.6265 H   0  0  0  0  0  0
  -27.2300  -37.1443   25.8865 H   0  0  0  0  0  0
  -20.9288  -29.8726   21.6956 H   0  0  0  0  0  0
  -26.0206  -38.2925   24.1405 H   0  0  0  0  0  0
  -30.2477  -20.4168   19.0614 H   0  0  0  0  0  0
  -31.2827  -18.3206   19.8273 H   0  0  0  0  0  0
  -26.8831  -21.5773   19.9425 H   0  0  0  0  0  0
  -28.2344  -21.7618   18.8815 H   0  0  0  0  0  0
  -30.4401  -16.6391   22.9303 H   0  0  0  0  0  0
  -31.5816  -16.7582   21.6402 H   0  0  0  0  0  0
  -29.4990  -22.8781   20.8446 H   0  0  0  0  0  0
  -27.9801  -22.8896   21.7066 H   0  0  0  0  0  0
  -26.9921  -24.2405   19.7749 H   0  0  0  0  0  0
  -28.5749  -24.2671   19.0350 H   0  0  0  0  0  0
  -29.4379  -25.3924   21.1847 H   0  0  0  0  0  0
  -27.7823  -25.5706   21.6940 H   0  0  0  0  0  0
  -29.1103  -15.0748   21.6768 H   0  0  0  0  0  0
  1 25  1  0  0  0
  1 30  2  0  0  0
  1 82  1  0  0  0
  2  3  1  0  0  0
  2 25  1  0  0  0
  2 85  1  0  0  0
  2 86  1  0  0  0
  3  4  1  0  0  0
  3 87  1  0  0  0
  3 88  1  0  0  0
  4  5  1  0  0  0
  4 89  1  0  0  0
  4 90  1  0  0  0
  5  6  1  0  0  0
  5 26  1  0  0  0
  5 91  1  0  0  0
  6 25  1  0  0  0
  6 92  1  0  0  0
  6 93  1  0  0  0
  7  8  2  0  0  0
  7 26  1  0  0  0
  7 29  1  0  0  0
  8  9  1  0  0  0
  8 22  1  0  0  0
  9 10  1  0  0  0
  9 27  2  0  0  0
 10 11  2  0  0  0
 10 15  1  0  0  0
 11 12  1  0  0  0
 11 94  1  0  0  0
 12 13  2  0  0  0
 12 95  1  0  0  0
 13 14  1  0  0  0
 13 31  1  0  0  0
 14 15  2  0  0  0
 14 96  1  0  0  0
 15 97  1  0  0  0
 16 17  2  0  0  0
 16 21  1  0  0  0
 16 31  1  0  0  0
 17 18  1  0  0  0
 17 98  1  0  0  0
 18 19  2  0  0  0
 18 99  1  0  0  0
 19 20  1  0  0  0
 19 24  1  0  0  0
 20 21  2  0  0  0
 20100  1  0  0  0
 21 23  1  0  0  0
 22 28  1  0  0  0
 22 32  2  0  0  0
 26 27  1  0  0  0
 28101  1  0  0  0
 28102  1  0  0  0
 29103  1  0  0  0
 29104  1  0  0  0
 33 34  1  0  0  0
 33 66  1  0  0  0
 33 70  2  0  0  0
 34 36  1  0  0  0
 34 59  1  0  0  0
 34105  1  0  0  0
 35 44  2  0  0  0
 35 45  1  0  0  0
 35 68  1  0  0  0
 36 56  1  0  0  0
 36106  1  0  0  0
 37 39  1  0  0  0
 37 47  1  0  0  0
 37 66  1  0  0  0
 37107  1  0  0  0
 38 43  2  0  0  0
 38 46  1  0  0  0
 38 47  1  0  0  0
 39 64  1  0  0  0
 39 67  2  0  0  0
 40 52  1  0  0  0
 40 53  2  0  0  0
 40 58  1  0  0  0
 41108  1  0  0  0
 41109  1  0  0  0
 41110  1  0  0  0
 41 48  1  0  0  0
 42 43  1  0  0  0
 42 66  1  0  0  0
 42111  1  0  0  0
 42112  1  0  0  0
 43 44  1  0  0  0
 44113  1  0  0  0
 45 46  2  0  0  0
 45114  1  0  0  0
 46115  1  0  0  0
 47116  1  0  0  0
 47117  1  0  0  0
 48 56  1  0  0  0
 48 65  1  0  0  0
 48118  1  0  0  0
 49 50  1  0  0  0
 49 53  1  0  0  0
 49 64  1  0  0  0
 49119  1  0  0  0
 50 51  1  0  0  0
 50120  1  0  0  0
 50121  1  0  0  0
 51 52  1  0  0  0
 51122  1  0  0  0
 51123  1  0  0  0
 52124  1  0  0  0
 52125  1  0  0  0
 53 54  1  0  0  0
 54 55  2  0  0  0
 54126  1  0  0  0
 55 57  1  0  0  0
 55127  1  0  0  0
 56 69  2  0  0  0
 57 58  2  0  0  0
 57128  1  0  0  0
 58129  1  0  0  0
 59 60  1  0  0  0
 59 61  1  0  0  0
 59 62  1  0  0  0
 60130  1  0  0  0
 60131  1  0  0  0
 60132  1  0  0  0
 61133  1  0  0  0
 61134  1  0  0  0
 61135  1  0  0  0
 62136  1  0  0  0
 62137  1  0  0  0
 62138  1  0  0  0
 63 65  1  0  0  0
 63139  1  0  0  0
 63140  1  0  0  0
 63141  1  0  0  0
 64142  1  0  0  0
 65143  1  0  0  0
 68 81  1  0  0  0
 71 72  2  0  0  0
 71 73  1  0  0  0
 71144  1  0  0  0
 72 74  1  0  0  0
 72145  1  0  0  0
 73 75  2  0  0  0
 73 77  1  0  0  0
 74 76  2  0  0  0
 74 78  1  0  0  0
 75 76  1  0  0  0
 75 83  1  0  0  0
 76 84  1  0  0  0
 77 79  1  0  0  0
 77146  1  0  0  0
 77147  1  0  0  0
 78 82  1  0  0  0
 78148  1  0  0  0
 78149  1  0  0  0
 79 80  1  0  0  0
 79150  1  0  0  0
 79151  1  0  0  0
 80 81  1  0  0  0
 80152  1  0  0  0
 80153  1  0  0  0
 81154  1  0  0  0
 81155  1  0  0  0
 82156  1  0  0  0
M  ISO  4   1 100  68 101  81 101  82 100
M  END
> <chiral flag>
0

> <version>
0

> <s_m_source_file>
/data/baiqing/PycharmProjects/Reinvent-master-3.2/result/LINK_invent/BTK/process_docking_weight1_custom_sum_contain_oxygen_bond_distance_aromatic_linkinvent_7_9_3/rearranged_h_0027.sdf

> <i_m_source_file_index>
22

> <r_mmod_Potential_Energy-OPLS-2005>
-58.1687240600586

> <r_mmod_Stretch_Energy-OPLS-2005>
36.2984962463379

> <r_mmod_Bend_Energy-OPLS-2005>
89.6379623413086

> <r_mmod_Torsional_Energy-OPLS-2005>
217.85969543457

> <r_mmod_Improper_Torsional_Energy-OPLS-2005>
2.35547304153442

> <r_mmod_Van_der_Waal_Energy-OPLS-2005>
145.434387207031

> <r_mmod_Electrostatic_Energy-OPLS-2005>
-364.718902587891

> <r_mmod_Solvation_Energy-OPLS-2005>
-194.867080688477

> <b_mmod_Minimization_Converged-OPLS-2005>
0

> <r_mmod_RMS_Derivative-OPLS-2005>
2.80699992179871

$$$$
22
                    3D
 Structure written by MMmdl.
181190  0  0  1  0            999 V2000
  -30.7179  -14.4585   20.5822 C   0  0  0  0  0  0
  -30.4375  -12.3081   19.4203 C   0  0  0  0  0  0
  -29.5033  -12.5011   18.2046 C   0  0  0  0  0  0
  -28.0240  -12.3634   18.6163 C   0  0  0  0  0  0
  -27.6677  -13.2036   19.8694 C   0  0  2  0  0  0
  -28.7072  -12.9872   20.9937 C   0  0  0  0  0  0
  -25.2640  -13.8176   20.5663 C   0  0  0  0  0  0
  -24.1885  -13.0469   20.9125 C   0  0  0  0  0  0
  -24.6417  -11.6936   20.8700 C   0  0  0  0  0  0
  -23.9091  -10.4322   21.0388 C   0  0  0  0  0  0
  -24.3632   -9.4223   21.9168 C   0  0  0  0  0  0
  -23.6279   -8.2275   22.0767 C   0  0  0  0  0  0
  -22.4263   -8.0312   21.3565 C   0  0  0  0  0  0
  -21.9907   -9.0293   20.4664 C   0  0  0  0  0  0
  -22.7261  -10.2165   20.3043 C   0  0  0  0  0  0
  -21.6866   -6.0751   22.5273 C   0  0  0  0  0  0
  -21.4025   -6.5637   23.8207 C   0  0  0  0  0  0
  -21.3647   -5.6782   24.9171 C   0  0  0  0  0  0
  -21.6027   -4.3040   24.7216 C   0  0  0  0  0  0
  -21.8828   -3.8159   23.4335 C   0  0  0  0  0  0
  -21.9194   -4.6980   22.3393 C   0  0  0  0  0  0
  -22.7897  -13.5283   21.1759 C   0  0  0  0  0  0
  -22.1666   -4.2174   21.0979 F   0  0  0  0  0  0
  -21.5608   -3.4519   25.7727 F   0  0  0  0  0  0
  -30.0427  -13.2854   20.4443 N   0  0  0  0  0  0
  -26.3070  -12.9325   20.3331 N   0  0  0  0  0  0
  -25.9331  -11.6494   20.5711 N   0  0  0  0  0  0
  -22.0496  -12.8336   22.0312 N   0  0  0  0  0  0
  -25.4354  -15.1907   20.4097 N   0  0  0  0  0  0
  -31.8304  -14.6630   20.0944 O   0  0  0  0  0  0
  -21.6628   -6.8904   21.4245 O   0  0  0  0  0  0
  -22.3573  -14.5553   20.6568 O   0  0  0  0  0  0
  -24.6248  -31.8616   23.2095 C   0  0  0  0  0  0
  -25.9131  -32.4763   23.8383 C   0  0  1  0  0  0
  -27.2236  -27.4112   20.0379 C   0  0  0  0  0  0
  -25.5960  -33.8564   24.2295 N   0  0  0  0  0  0
  -23.4093  -30.4925   21.5529 C   0  0  2  0  0  0
  -24.8483  -28.9655   20.1075 C   0  0  0  0  0  0
  -22.7428  -29.4650   22.4981 C   0  0  0  0  0  0
  -18.0295  -28.1374   22.8501 C   0  0  0  0  0  0
  -24.1491  -36.7271   23.2635 C   0  0  0  0  0  0
  -25.9489  -30.8120   21.3743 C   0  0  0  0  0  0
  -26.0205  -29.4580   20.6929 C   0  0  0  0  0  0
  -27.2129  -28.6892   20.6551 C   0  0  0  0  0  0
  -26.0138  -26.9281   19.4996 C   0  0  0  0  0  0
  -24.8407  -27.6962   19.5129 C   0  0  0  0  0  0
  -23.6131  -29.8347   20.1668 C   0  0  0  0  0  0
  -25.4116  -36.3065   24.0334 C   0  0  1  0  0  0
  -20.5871  -28.3658   23.1297 C   0  0  2  0  0  0
  -20.6776  -26.9386   22.5399 C   0  0  0  0  0  0
  -19.5758  -26.6375   21.5203 C   0  0  0  0  0  0
  -18.1943  -26.7932   22.1625 C   0  0  0  0  0  0
  -19.1534  -28.8841   23.2900 C   0  0  0  0  0  0
  -18.9464  -30.1457   23.8884 C   0  0  0  0  0  0
  -17.6460  -30.6583   24.0562 C   0  0  0  0  0  0
  -25.9050  -34.9433   23.5097 C   0  0  0  0  0  0
  -16.5352  -29.9069   23.6339 C   0  0  0  0  0  0
  -16.7277  -28.6489   23.0351 C   0  0  0  0  0  0
  -26.4513  -31.6570   25.0726 C   0  0  0  0  0  0
  -25.3759  -31.3771   26.1473 C   0  0  0  0  0  0
  -27.0341  -30.2979   24.6203 C   0  0  0  0  0  0
  -27.6058  -32.4335   25.7496 C   0  0  0  0  0  0
  -27.5599  -37.1789   24.8465 C   0  0  0  0  0  0
  -21.4150  -29.3043   22.3718 N   0  0  0  0  0  0
  -26.4301  -37.3757   23.9400 N   0  0  0  0  0  0
  -24.6789  -31.0699   22.1014 N   0  0  0  0  0  0
  -23.4191  -28.8208   23.3045 O   0  0  0  0  0  0
  -28.3267  -26.5737   20.0929 O   0  0  0  0  0  0
  -26.5574  -34.8896   22.4638 O   0  0  0  0  0  0
  -23.5434  -32.1433   23.7442 O   0  0  0  0  0  0
  -30.4756  -19.9403   20.1565 C   0  0  0  0  0  0
  -28.3521  -21.3996   21.2233 C   0  0  0  0  0  0
  -29.3438  -19.2378   20.6254 C   0  0  0  0  0  0
  -29.4654  -22.1158   20.7291 C   0  0  0  0  0  0
  -28.2726  -19.9933   21.1663 C   0  0  0  0  0  0
  -30.5496  -21.3539   20.2028 C   0  0  0  0  0  0
  -26.3010  -23.9987   16.7405 C   0  0  0  0  0  0
  -27.5244  -23.1475   16.8718 C   0  0  1  0  0  0
  -27.3603  -24.3582   17.7833 C   0  0  1  0  0  0
  -27.4253  -21.7379   17.4089 C   0  0  0  0  0  0
  -27.7416  -26.6175   16.6592 C   0  0  0  0  0  0
  -31.3624  -25.1380   18.1807 C   0  0  0  0  0  0
  -31.2347  -24.9503   21.6256 C   0  0  0  0  0  0
  -29.2588  -17.7107   20.4688 C   0  0  0  0  0  0
  -29.3272  -23.6574   20.7504 C   0  0  0  0  0  0
  -30.3511  -16.8800   21.1871 C   0  0  0  0  0  0
  -28.3271  -25.5503   17.6172 C   0  0  1  0  0  0
  -30.4309  -25.5462   19.3382 C   0  0  1  0  0  0
  -29.0416  -26.1810   18.8975 C   0  0  2  0  0  0
  -30.0178  -15.4479   21.1601 N   0  0  0  0  0  0
  -30.5168  -24.4844   20.4113 N   0  3  1  0  0  0
  -26.8201  -19.2382   21.7269 Cl  0  0  0  0  0  0
  -31.9935  -22.0788   19.5871 Cl  0  0  0  0  0  0
  -31.4799  -12.4230   19.1133 H   0  0  0  0  0  0
  -30.3571  -11.2972   19.8254 H   0  0  0  0  0  0
  -29.7495  -11.7739   17.4305 H   0  0  0  0  0  0
  -29.6694  -13.4824   17.7577 H   0  0  0  0  0  0
  -27.8249  -11.3093   18.8052 H   0  0  0  0  0  0
  -27.3838  -12.6482   17.7799 H   0  0  0  0  0  0
  -27.7124  -14.2499   19.5663 H   0  0  0  0  0  0
  -28.6828  -11.9570   21.3490 H   0  0  0  0  0  0
  -28.4627  -13.5960   21.8651 H   0  0  0  0  0  0
  -25.2813   -9.5682   22.4693 H   0  0  0  0  0  0
  -23.9991   -7.4679   22.7481 H   0  0  0  0  0  0
  -21.0832   -8.8835   19.8961 H   0  0  0  0  0  0
  -22.3757  -10.9686   19.6114 H   0  0  0  0  0  0
  -21.2052   -7.6149   23.9743 H   0  0  0  0  0  0
  -21.1420   -6.0491   25.9068 H   0  0  0  0  0  0
  -22.0616   -2.7615   23.2821 H   0  0  0  0  0  0
  -22.4096  -12.0073   22.4856 H   0  0  0  0  0  0
  -21.1092  -13.1388   22.2386 H   0  0  0  0  0  0
  -24.6790  -15.8501   20.5529 H   0  0  0  0  0  0
  -26.2930  -15.6328   20.1083 H   0  0  0  0  0  0
  -26.7179  -32.5417   23.1122 H   0  0  0  0  0  0
  -25.0178  -33.9710   25.0491 H   0  0  0  0  0  0
  -22.7015  -31.3129   21.4221 H   0  0  0  0  0  0
  -23.3732  -35.9623   23.3298 H   0  0  0  0  0  0
  -24.3605  -36.8880   22.2052 H   0  0  0  0  0  0
  -23.7268  -37.6487   23.6640 H   0  0  0  0  0  0
  -26.0968  -31.5944   20.6298 H   0  0  0  0  0  0
  -26.8241  -30.8316   22.0112 H   0  0  0  0  0  0
  -28.1188  -29.0637   21.1115 H   0  0  0  0  0  0
  -25.9318  -25.9371   19.0952 H   0  0  0  0  0  0
  -23.9294  -27.2887   19.0965 H   0  0  0  0  0  0
  -23.7193  -30.6169   19.4146 H   0  0  0  0  0  0
  -22.7324  -29.2599   19.8737 H   0  0  0  0  0  0
  -25.1296  -36.1926   25.0832 H   0  0  0  0  0  0
  -20.9988  -28.3224   24.1400 H   0  0  0  0  0  0
  -20.5656  -26.2259   23.3588 H   0  0  0  0  0  0
  -21.6649  -26.7419   22.1192 H   0  0  0  0  0  0
  -19.6892  -25.6285   21.1234 H   0  0  0  0  0  0
  -19.6701  -27.3173   20.6721 H   0  0  0  0  0  0
  -17.4203  -26.6692   21.4017 H   0  0  0  0  0  0
  -18.0338  -26.0064   22.9005 H   0  0  0  0  0  0
  -19.7928  -30.7302   24.2207 H   0  0  0  0  0  0
  -17.5001  -31.6249   24.5170 H   0  0  0  0  0  0
  -15.5342  -30.2948   23.7678 H   0  0  0  0  0  0
  -15.8689  -28.0799   22.7055 H   0  0  0  0  0  0
  -24.5881  -30.7160   25.7834 H   0  0  0  0  0  0
  -24.8990  -32.2962   26.4890 H   0  0  0  0  0  0
  -25.8093  -30.8955   27.0252 H   0  0  0  0  0  0
  -26.2914  -29.6743   24.1199 H   0  0  0  0  0  0
  -27.3981  -29.7251   25.4748 H   0  0  0  0  0  0
  -27.8822  -30.4203   23.9464 H   0  0  0  0  0  0
  -27.2622  -33.3612   26.2105 H   0  0  0  0  0  0
  -28.3860  -32.6978   25.0333 H   0  0  0  0  0  0
  -28.0744  -31.8454   26.5407 H   0  0  0  0  0  0
  -28.2600  -38.0098   24.7499 H   0  0  0  0  0  0
  -28.1132  -36.2630   24.6305 H   0  0  0  0  0  0
  -27.2322  -37.1451   25.8873 H   0  0  0  0  0  0
  -20.9321  -29.8734   21.6909 H   0  0  0  0  0  0
  -26.0183  -38.2839   24.1378 H   0  0  0  0  0  0
  -31.2975  -19.3829   19.7284 H   0  0  0  0  0  0
  -27.5069  -21.9454   21.6171 H   0  0  0  0  0  0
  -25.3598  -23.5825   17.0996 H   0  0  0  0  0  0
  -26.2071  -24.5817   15.8256 H   0  0  0  0  0  0
  -28.2356  -23.2414   16.0523 H   0  0  0  0  0  0
  -26.9908  -24.1790   18.7855 H   0  0  0  0  0  0
  -26.9696  -21.0869   16.6631 H   0  0  0  0  0  0
  -26.8204  -21.7048   18.3137 H   0  0  0  0  0  0
  -28.4213  -21.3592   17.6382 H   0  0  0  0  0  0
  -27.7227  -26.2461   15.6340 H   0  0  0  0  0  0
  -28.3360  -27.5288   16.6314 H   0  0  0  0  0  0
  -26.7215  -26.8986   16.9160 H   0  0  0  0  0  0
  -31.4178  -25.9129   17.4184 H   0  0  0  0  0  0
  -31.0396  -24.2163   17.6917 H   0  0  0  0  0  0
  -32.3776  -24.9685   18.5453 H   0  0  0  0  0  0
  -31.4269  -24.1246   22.3147 H   0  0  0  0  0  0
  -30.6513  -25.7059   22.1535 H   0  0  0  0  0  0
  -32.2027  -25.3870   21.3653 H   0  0  0  0  0  0
  -29.2847  -17.4894   19.4018 H   0  0  0  0  0  0
  -28.2909  -17.3510   20.8067 H   0  0  0  0  0  0
  -28.9617  -23.9611   21.7343 H   0  0  0  0  0  0
  -28.5208  -23.8849   20.0778 H   0  0  0  0  0  0
  -30.4237  -17.1799   22.2330 H   0  0  0  0  0  0
  -31.3267  -17.0703   20.7372 H   0  0  0  0  0  0
  -29.1358  -25.1511   17.0100 H   0  0  0  0  0  0
  -30.9376  -26.4112   19.7679 H   0  0  0  0  0  0
  -29.3624  -27.1524   18.5266 H   0  0  0  0  0  0
  -29.1133  -15.1868   21.5196 H   0  0  0  0  0  0
  -31.1463  -23.7986   20.0122 H   0  0  0  0  0  0
  1 25  1  0  0  0
  1 30  2  0  0  0
  1 90  1  0  0  0
  2  3  1  0  0  0
  2 25  1  0  0  0
  2 94  1  0  0  0
  2 95  1  0  0  0
  3  4  1  0  0  0
  3 96  1  0  0  0
  3 97  1  0  0  0
  4  5  1  0  0  0
  4 98  1  0  0  0
  4 99  1  0  0  0
  5  6  1  0  0  0
  5 26  1  0  0  0
  5100  1  0  0  0
  6 25  1  0  0  0
  6101  1  0  0  0
  6102  1  0  0  0
  7  8  2  0  0  0
  7 26  1  0  0  0
  7 29  1  0  0  0
  8  9  1  0  0  0
  8 22  1  0  0  0
  9 10  1  0  0  0
  9 27  2  0  0  0
 10 11  2  0  0  0
 10 15  1  0  0  0
 11 12  1  0  0  0
 11103  1  0  0  0
 12 13  2  0  0  0
 12104  1  0  0  0
 13 14  1  0  0  0
 13 31  1  0  0  0
 14 15  2  0  0  0
 14105  1  0  0  0
 15106  1  0  0  0
 16 17  2  0  0  0
 16 21  1  0  0  0
 16 31  1  0  0  0
 17 18  1  0  0  0
 17107  1  0  0  0
 18 19  2  0  0  0
 18108  1  0  0  0
 19 20  1  0  0  0
 19 24  1  0  0  0
 20 21  2  0  0  0
 20109  1  0  0  0
 21 23  1  0  0  0
 22 28  1  0  0  0
 22 32  2  0  0  0
 26 27  1  0  0  0
 28110  1  0  0  0
 28111  1  0  0  0
 29112  1  0  0  0
 29113  1  0  0  0
 33 34  1  0  0  0
 33 66  1  0  0  0
 33 70  2  0  0  0
 34 36  1  0  0  0
 34 59  1  0  0  0
 34114  1  0  0  0
 35 44  2  0  0  0
 35 45  1  0  0  0
 35 68  1  0  0  0
 36 56  1  0  0  0
 36115  1  0  0  0
 37 39  1  0  0  0
 37 47  1  0  0  0
 37 66  1  0  0  0
 37116  1  0  0  0
 38 43  2  0  0  0
 38 46  1  0  0  0
 38 47  1  0  0  0
 39 64  1  0  0  0
 39 67  2  0  0  0
 40 52  1  0  0  0
 40 53  2  0  0  0
 40 58  1  0  0  0
 41117  1  0  0  0
 41118  1  0  0  0
 41119  1  0  0  0
 41 48  1  0  0  0
 42 43  1  0  0  0
 42 66  1  0  0  0
 42120  1  0  0  0
 42121  1  0  0  0
 43 44  1  0  0  0
 44122  1  0  0  0
 45 46  2  0  0  0
 45123  1  0  0  0
 46124  1  0  0  0
 47125  1  0  0  0
 47126  1  0  0  0
 48 56  1  0  0  0
 48 65  1  0  0  0
 48127  1  0  0  0
 49 50  1  0  0  0
 49 53  1  0  0  0
 49 64  1  0  0  0
 49128  1  0  0  0
 50 51  1  0  0  0
 50129  1  0  0  0
 50130  1  0  0  0
 51 52  1  0  0  0
 51131  1  0  0  0
 51132  1  0  0  0
 52133  1  0  0  0
 52134  1  0  0  0
 53 54  1  0  0  0
 54 55  2  0  0  0
 54135  1  0  0  0
 55 57  1  0  0  0
 55136  1  0  0  0
 56 69  2  0  0  0
 57 58  2  0  0  0
 57137  1  0  0  0
 58138  1  0  0  0
 59 60  1  0  0  0
 59 61  1  0  0  0
 59 62  1  0  0  0
 60139  1  0  0  0
 60140  1  0  0  0
 60141  1  0  0  0
 61142  1  0  0  0
 61143  1  0  0  0
 61144  1  0  0  0
 62145  1  0  0  0
 62146  1  0  0  0
 62147  1  0  0  0
 63 65  1  0  0  0
 63148  1  0  0  0
 63149  1  0  0  0
 63150  1  0  0  0
 64151  1  0  0  0
 65152  1  0  0  0
 68 89  1  0  0  0
 71 73  2  0  0  0
 71 76  1  0  0  0
 71153  1  0  0  0
 72 74  1  0  0  0
 72 75  2  0  0  0
 72154  1  0  0  0
 73 75  1  0  0  0
 73 84  1  0  0  0
 74 76  2  0  0  0
 74 85  1  0  0  0
 75 92  1  0  0  0
 76 93  1  0  0  0
 77 78  1  0  0  0
 77155  1  0  0  0
 77156  1  0  0  0
 77 79  1  0  0  0
 78 79  1  0  0  0
 78 80  1  0  0  0
 78157  1  0  0  0
 79 87  1  0  0  0
 79158  1  0  0  0
 80159  1  0  0  0
 80160  1  0  0  0
 80161  1  0  0  0
 81162  1  0  0  0
 81163  1  0  0  0
 81164  1  0  0  0
 81 87  1  0  0  0
 82165  1  0  0  0
 82166  1  0  0  0
 82167  1  0  0  0
 82 88  1  0  0  0
 83168  1  0  0  0
 83169  1  0  0  0
 83170  1  0  0  0
 83 91  1  0  0  0
 84 86  1  0  0  0
 84171  1  0  0  0
 84172  1  0  0  0
 85 91  1  0  0  0
 85173  1  0  0  0
 85174  1  0  0  0
 86 90  1  0  0  0
 86175  1  0  0  0
 86176  1  0  0  0
 87 89  1  0  0  0
 87177  1  0  0  0
 88 89  1  0  0  0
 88 91  1  0  0  0
 88178  1  0  0  0
 89179  1  0  0  0
 90180  1  0  0  0
 91181  1  0  0  0
M  CHG  1  91   1
M  ISO  4   1 100  68 101  89 101  90 100
M  END
> <chiral flag>
0

> <version>
0

> <s_m_source_file>
/data/baiqing/PycharmProjects/Reinvent-master-3.2/result/LINK_invent/BTK/process_docking_weight1_custom_sum_contain_oxygen_bond_distance_aromatic_linkinvent_7_9_3/rearranged_h_0027.sdf

> <i_m_source_file_index>
23

> <r_mmod_Potential_Energy-OPLS-2005>
62.8746681213379

> <r_mmod_Stretch_Energy-OPLS-2005>
55.8320274353027

> <r_mmod_Bend_Energy-OPLS-2005>
186.982116699219

> <r_mmod_Torsional_Energy-OPLS-2005>
333.570770263672

> <r_mmod_Improper_Torsional_Energy-OPLS-2005>
4.39676713943481

> <r_mmod_Van_der_Waal_Energy-OPLS-2005>
150.604888916016

> <r_mmod_Electrostatic_Energy-OPLS-2005>
-293.955993652344

> <r_mmod_Solvation_Energy-OPLS-2005>
-392.864715576172

> <b_mmod_Minimization_Converged-OPLS-2005>
0

> <r_mmod_RMS_Derivative-OPLS-2005>
4.71539258956909

$$$$
23
                    3D
 Structure written by MMmdl.
185194  0  0  1  0            999 V2000
  -30.7034  -14.4082   20.6341 C   0  0  0  0  0  0
  -30.4125  -12.2849   19.4205 C   0  0  0  0  0  0
  -29.4880  -12.5264   18.2093 C   0  0  0  0  0  0
  -28.0080  -12.3845   18.6105 C   0  0  0  0  0  0
  -27.6580  -13.1947   19.8864 C   0  0  2  0  0  0
  -28.6923  -12.9363   21.0034 C   0  0  0  0  0  0
  -25.2481  -13.7877   20.5739 C   0  0  0  0  0  0
  -24.1731  -13.0238   20.9160 C   0  0  0  0  0  0
  -24.6339  -11.6741   20.8667 C   0  0  0  0  0  0
  -23.9041  -10.4177   21.0344 C   0  0  0  0  0  0
  -24.3622   -9.4146   21.9160 C   0  0  0  0  0  0
  -23.6291   -8.2212   22.0768 C   0  0  0  0  0  0
  -22.4285   -8.0243   21.3547 C   0  0  0  0  0  0
  -21.9885   -9.0203   20.4660 C   0  0  0  0  0  0
  -22.7211  -10.2065   20.3027 C   0  0  0  0  0  0
  -21.6851   -6.0752   22.5290 C   0  0  0  0  0  0
  -21.3994   -6.5662   23.8216 C   0  0  0  0  0  0
  -21.3629   -5.6816   24.9173 C   0  0  0  0  0  0
  -21.6052   -4.3089   24.7223 C   0  0  0  0  0  0
  -21.8804   -3.8177   23.4345 C   0  0  0  0  0  0
  -21.9186   -4.6986   22.3402 C   0  0  0  0  0  0
  -22.7780  -13.5090   21.1845 C   0  0  0  0  0  0
  -22.1653   -4.2182   21.0978 F   0  0  0  0  0  0
  -21.5640   -3.4566   25.7729 F   0  0  0  0  0  0
  -30.0343  -13.2388   20.4689 N   0  0  0  0  0  0
  -26.2962  -12.9156   20.3387 N   0  0  0  0  0  0
  -25.9265  -11.6311   20.5695 N   0  0  0  0  0  0
  -22.0425  -12.8145   22.0422 N   0  0  0  0  0  0
  -25.4056  -15.1523   20.4364 N   0  0  0  0  0  0
  -31.7793  -14.6615   20.0799 O   0  0  0  0  0  0
  -21.6640   -6.8888   21.4261 O   0  0  0  0  0  0
  -22.3516  -14.5437   20.6707 O   0  0  0  0  0  0
  -24.6112  -31.8774   23.2114 C   0  0  0  0  0  0
  -25.9007  -32.4847   23.8437 C   0  0  1  0  0  0
  -27.2314  -27.4808   20.1018 C   0  0  0  0  0  0
  -25.5855  -33.8648   24.2346 N   0  0  0  0  0  0
  -23.3890  -30.5040   21.5562 C   0  0  2  0  0  0
  -24.8318  -28.9683   20.1284 C   0  0  0  0  0  0
  -22.7376  -29.4740   22.5083 C   0  0  0  0  0  0
  -18.0287  -28.1323   22.8516 C   0  0  0  0  0  0
  -24.1468  -36.7362   23.2617 C   0  0  0  0  0  0
  -25.9130  -30.8563   21.3553 C   0  0  0  0  0  0
  -25.9877  -29.4860   20.7259 C   0  0  0  0  0  0
  -27.1838  -28.7413   20.7290 C   0  0  0  0  0  0
  -26.0497  -26.9596   19.5277 C   0  0  0  0  0  0
  -24.8549  -27.6963   19.5310 C   0  0  0  0  0  0
  -23.5956  -29.8352   20.1715 C   0  0  0  0  0  0
  -25.4065  -36.3137   24.0334 C   0  0  1  0  0  0
  -20.5834  -28.3706   23.1377 C   0  0  2  0  0  0
  -20.6856  -26.9516   22.5304 C   0  0  0  0  0  0
  -19.5742  -26.6407   21.5192 C   0  0  0  0  0  0
  -18.1974  -26.7826   22.1758 C   0  0  0  0  0  0
  -19.1486  -28.8845   23.2916 C   0  0  0  0  0  0
  -18.9353  -30.1474   23.8903 C   0  0  0  0  0  0
  -17.6339  -30.6579   24.0498 C   0  0  0  0  0  0
  -25.8997  -34.9494   23.5122 C   0  0  0  0  0  0
  -16.5277  -29.8981   23.6270 C   0  0  0  0  0  0
  -16.7246  -28.6391   23.0327 C   0  0  0  0  0  0
  -26.4400  -31.6626   25.0772 C   0  0  0  0  0  0
  -25.3664  -31.3776   26.1543 C   0  0  0  0  0  0
  -27.0118  -30.3024   24.6110 C   0  0  0  0  0  0
  -27.6002  -32.4344   25.7518 C   0  0  0  0  0  0
  -27.5527  -37.1834   24.8441 C   0  0  0  0  0  0
  -21.4114  -29.3145   22.3931 N   0  0  0  0  0  0
  -26.4226  -37.3847   23.9411 N   0  0  0  0  0  0
  -24.6581  -31.0881   22.1028 N   0  0  0  0  0  0
  -23.4200  -28.8250   23.3056 O   0  0  0  0  0  0
  -28.4272  -26.8026   20.0760 O   0  0  0  0  0  0
  -26.5585  -34.8919   22.4706 O   0  0  0  0  0  0
  -23.5306  -32.1567   23.7463 O   0  0  0  0  0  0
  -26.1904  -20.7682   20.9660 C   0  0  0  0  0  0
  -26.8453  -19.8195   21.7821 C   0  0  0  0  0  0
  -26.1134  -20.2711   19.6829 C   0  0  0  0  0  0
  -27.0670  -18.7208   21.0042 C   0  0  0  0  0  0
  -25.7650  -22.1514   21.4029 C   0  0  0  0  0  0
  -25.4862  -23.0744   20.2134 C   0  0  0  0  0  0
  -26.2076  -22.5931   18.9323 C   0  0  1  0  0  0
  -25.7632  -21.1533   18.4863 C   0  0  0  0  0  0
  -27.2788  -20.0132   23.2172 C   0  0  0  0  0  0
  -24.2514  -21.0857   18.1839 C   0  0  0  0  0  0
  -26.5644  -20.8160   17.2045 C   0  0  0  0  0  0
  -26.0063  -17.8316   17.3660 C   0  0  0  0  0  0
  -27.9013  -17.5283   21.3882 C   0  0  0  0  0  0
  -29.3078  -17.6091   20.7636 C   0  0  0  0  0  0
  -28.3267  -24.7108   18.7820 C   0  0  0  0  0  0
  -26.1438  -17.7443   18.8857 C   0  0  0  0  0  0
  -30.3735  -16.7433   21.4591 C   0  0  0  0  0  0
  -27.3987  -24.3720   17.5732 C   0  0  0  0  0  0
  -28.7925  -26.1770   18.8478 C   0  0  0  0  0  0
  -26.4409  -18.8998   19.7605 N   0  0  0  0  0  0
  -30.0570  -15.3213   21.3670 N   0  0  0  0  0  0
  -26.1334  -23.6412   17.8893 N   0  3  0  0  0  0
  -31.4598  -12.3840   19.1265 H   0  0  0  0  0  0
  -30.3073  -11.2646   19.7990 H   0  0  0  0  0  0
  -29.7326  -11.8325   17.4048 H   0  0  0  0  0  0
  -29.6621  -13.5293   17.8153 H   0  0  0  0  0  0
  -27.8034  -11.3259   18.7731 H   0  0  0  0  0  0
  -27.3622  -12.6915   17.7849 H   0  0  0  0  0  0
  -27.7130  -14.2509   19.6197 H   0  0  0  0  0  0
  -28.6554  -11.8922   21.3139 H   0  0  0  0  0  0
  -28.4367  -13.5026   21.8989 H   0  0  0  0  0  0
  -25.2758   -9.5705   22.4729 H   0  0  0  0  0  0
  -24.0019   -7.4646   22.7487 H   0  0  0  0  0  0
  -21.0820   -8.8708   19.8983 H   0  0  0  0  0  0
  -22.3632  -10.9623   19.6166 H   0  0  0  0  0  0
  -21.1946   -7.6171   23.9721 H   0  0  0  0  0  0
  -21.1468   -6.0548   25.9084 H   0  0  0  0  0  0
  -22.0592   -2.7650   23.2822 H   0  0  0  0  0  0
  -22.4037  -11.9806   22.4812 H   0  0  0  0  0  0
  -21.1044  -13.1190   22.2636 H   0  0  0  0  0  0
  -24.6299  -15.7908   20.5625 H   0  0  0  0  0  0
  -26.2595  -15.6035   20.1482 H   0  0  0  0  0  0
  -26.7086  -32.5568   23.1231 H   0  0  0  0  0  0
  -24.9946  -33.9831   25.0457 H   0  0  0  0  0  0
  -22.6727  -31.3201   21.4211 H   0  0  0  0  0  0
  -23.3665  -35.9765   23.3292 H   0  0  0  0  0  0
  -24.3570  -36.8940   22.2020 H   0  0  0  0  0  0
  -23.7209  -37.6587   23.6590 H   0  0  0  0  0  0
  -25.9980  -31.6192   20.5795 H   0  0  0  0  0  0
  -26.8183  -30.9316   21.9484 H   0  0  0  0  0  0
  -28.0715  -29.1504   21.1931 H   0  0  0  0  0  0
  -26.0193  -25.9768   19.1000 H   0  0  0  0  0  0
  -23.9638  -27.2866   19.0728 H   0  0  0  0  0  0
  -23.7028  -30.6114   19.4097 H   0  0  0  0  0  0
  -22.7210  -29.2546   19.8813 H   0  0  0  0  0  0
  -25.1179  -36.2021   25.0810 H   0  0  0  0  0  0
  -20.9853  -28.3166   24.1513 H   0  0  0  0  0  0
  -21.6705  -26.7826   22.0934 H   0  0  0  0  0  0
  -20.6035  -26.2293   23.3446 H   0  0  0  0  0  0
  -19.7009  -25.6333   21.1207 H   0  0  0  0  0  0
  -19.6498  -27.3242   20.6734 H   0  0  0  0  0  0
  -17.4114  -26.6361   21.4301 H   0  0  0  0  0  0
  -18.0592  -26.0024   22.9246 H   0  0  0  0  0  0
  -19.7778  -30.7355   24.2308 H   0  0  0  0  0  0
  -17.4799  -31.6263   24.5056 H   0  0  0  0  0  0
  -15.5235  -30.2791   23.7646 H   0  0  0  0  0  0
  -15.8699  -28.0660   22.6989 H   0  0  0  0  0  0
  -24.5878  -30.7044   25.7891 H   0  0  0  0  0  0
  -24.8885  -32.2994   26.4891 H   0  0  0  0  0  0
  -25.8108  -30.9049   27.0325 H   0  0  0  0  0  0
  -26.2681  -29.6972   24.0919 H   0  0  0  0  0  0
  -27.3501  -29.7030   25.4558 H   0  0  0  0  0  0
  -27.8688  -30.4215   23.9485 H   0  0  0  0  0  0
  -27.2608  -33.3629   26.2123 H   0  0  0  0  0  0
  -28.3828  -32.6937   25.0372 H   0  0  0  0  0  0
  -28.0677  -31.8473   26.5433 H   0  0  0  0  0  0
  -28.2541  -38.0132   24.7456 H   0  0  0  0  0  0
  -28.1005  -36.2637   24.6283 H   0  0  0  0  0  0
  -27.2263  -37.1541   25.8859 H   0  0  0  0  0  0
  -20.9231  -29.8888   21.7195 H   0  0  0  0  0  0
  -26.0085  -38.2890   24.1548 H   0  0  0  0  0  0
  -26.5709  -22.5855   21.9976 H   0  0  0  0  0  0
  -24.8889  -22.0793   22.0524 H   0  0  0  0  0  0
  -25.7756  -24.0894   20.4893 H   0  0  0  0  0  0
  -24.4141  -23.1324   20.0256 H   0  0  0  0  0  0
  -27.2588  -22.4609   19.1874 H   0  0  0  0  0  0
  -26.7216  -20.8148   23.7018 H   0  0  0  0  0  0
  -28.3385  -20.2653   23.2547 H   0  0  0  0  0  0
  -27.1137  -19.1071   23.8005 H   0  0  0  0  0  0
  -23.6445  -21.3276   19.0558 H   0  0  0  0  0  0
  -23.9495  -20.0829   17.8831 H   0  0  0  0  0  0
  -23.9718  -21.7627   17.3763 H   0  0  0  0  0  0
  -25.9924  -20.1993   16.5202 H   0  0  0  0  0  0
  -27.5152  -20.3325   17.4341 H   0  0  0  0  0  0
  -26.8027  -21.6667   16.5732 H   0  0  0  0  0  0
  -25.1057  -18.3639   17.0659 H   0  0  0  0  0  0
  -25.8843  -16.8277   16.9582 H   0  0  0  0  0  0
  -26.8967  -18.2275   16.8844 H   0  0  0  0  0  0
  -27.4200  -16.5884   21.1435 H   0  0  0  0  0  0
  -28.0088  -17.5072   22.4722 H   0  0  0  0  0  0
  -29.6462  -18.6445   20.8291 H   0  0  0  0  0  0
  -29.2562  -17.3853   19.6956 H   0  0  0  0  0  0
  -29.2156  -24.0734   18.7163 H   0  0  0  0  0  0
  -27.8911  -24.4587   19.7448 H   0  0  0  0  0  0
  -26.9016  -16.9833   19.0556 H   0  0  0  0  0  0
  -25.1946  -17.3527   19.2461 H   0  0  0  0  0  0
  -30.4493  -17.0159   22.5122 H   0  0  0  0  0  0
  -31.3491  -16.9652   21.0220 H   0  0  0  0  0  0
  -27.9776  -23.8042   16.8469 H   0  0  0  0  0  0
  -27.1110  -25.2805   17.0424 H   0  0  0  0  0  0
  -28.4275  -26.7620   18.0034 H   0  0  0  0  0  0
  -29.8799  -26.2228   18.7705 H   0  0  0  0  0  0
  -29.2211  -15.0006   21.8359 H   0  0  0  0  0  0
  -25.4101  -24.2901   18.1552 H   0  0  0  0  0  0
  -25.8135  -23.2051   17.0388 H   0  0  0  0  0  0
  1 25  1  0  0  0
  1 30  2  0  0  0
  1 91  1  0  0  0
  2  3  1  0  0  0
  2 25  1  0  0  0
  2 93  1  0  0  0
  2 94  1  0  0  0
  3  4  1  0  0  0
  3 95  1  0  0  0
  3 96  1  0  0  0
  4  5  1  0  0  0
  4 97  1  0  0  0
  4 98  1  0  0  0
  5  6  1  0  0  0
  5 26  1  0  0  0
  5 99  1  0  0  0
  6 25  1  0  0  0
  6100  1  0  0  0
  6101  1  0  0  0
  7  8  2  0  0  0
  7 26  1  0  0  0
  7 29  1  0  0  0
  8  9  1  0  0  0
  8 22  1  0  0  0
  9 10  1  0  0  0
  9 27  2  0  0  0
 10 11  2  0  0  0
 10 15  1  0  0  0
 11 12  1  0  0  0
 11102  1  0  0  0
 12 13  2  0  0  0
 12103  1  0  0  0
 13 14  1  0  0  0
 13 31  1  0  0  0
 14 15  2  0  0  0
 14104  1  0  0  0
 15105  1  0  0  0
 16 17  2  0  0  0
 16 21  1  0  0  0
 16 31  1  0  0  0
 17 18  1  0  0  0
 17106  1  0  0  0
 18 19  2  0  0  0
 18107  1  0  0  0
 19 20  1  0  0  0
 19 24  1  0  0  0
 20 21  2  0  0  0
 20108  1  0  0  0
 21 23  1  0  0  0
 22 28  1  0  0  0
 22 32  2  0  0  0
 26 27  1  0  0  0
 28109  1  0  0  0
 28110  1  0  0  0
 29111  1  0  0  0
 29112  1  0  0  0
 33 34  1  0  0  0
 33 66  1  0  0  0
 33 70  2  0  0  0
 34 36  1  0  0  0
 34 59  1  0  0  0
 34113  1  0  0  0
 35 44  2  0  0  0
 35 45  1  0  0  0
 35 68  1  0  0  0
 36 56  1  0  0  0
 36114  1  0  0  0
 37 39  1  0  0  0
 37 47  1  0  0  0
 37 66  1  0  0  0
 37115  1  0  0  0
 38 43  2  0  0  0
 38 46  1  0  0  0
 38 47  1  0  0  0
 39 64  1  0  0  0
 39 67  2  0  0  0
 40 52  1  0  0  0
 40 53  2  0  0  0
 40 58  1  0  0  0
 41116  1  0  0  0
 41117  1  0  0  0
 41118  1  0  0  0
 41 48  1  0  0  0
 42 43  1  0  0  0
 42 66  1  0  0  0
 42119  1  0  0  0
 42120  1  0  0  0
 43 44  1  0  0  0
 44121  1  0  0  0
 45 46  2  0  0  0
 45122  1  0  0  0
 46123  1  0  0  0
 47124  1  0  0  0
 47125  1  0  0  0
 48 56  1  0  0  0
 48 65  1  0  0  0
 48126  1  0  0  0
 49 50  1  0  0  0
 49 53  1  0  0  0
 49 64  1  0  0  0
 49127  1  0  0  0
 50 51  1  0  0  0
 50128  1  0  0  0
 50129  1  0  0  0
 51 52  1  0  0  0
 51130  1  0  0  0
 51131  1  0  0  0
 52132  1  0  0  0
 52133  1  0  0  0
 53 54  1  0  0  0
 54 55  2  0  0  0
 54134  1  0  0  0
 55 57  1  0  0  0
 55135  1  0  0  0
 56 69  2  0  0  0
 57 58  2  0  0  0
 57136  1  0  0  0
 58137  1  0  0  0
 59 60  1  0  0  0
 59 61  1  0  0  0
 59 62  1  0  0  0
 60138  1  0  0  0
 60139  1  0  0  0
 60140  1  0  0  0
 61141  1  0  0  0
 61142  1  0  0  0
 61143  1  0  0  0
 62144  1  0  0  0
 62145  1  0  0  0
 62146  1  0  0  0
 63 65  1  0  0  0
 63147  1  0  0  0
 63148  1  0  0  0
 63149  1  0  0  0
 64150  1  0  0  0
 65151  1  0  0  0
 68 89  1  0  0  0
 71 72  1  0  0  0
 71 73  2  0  0  0
 71 75  1  0  0  0
 72 74  2  0  0  0
 72 79  1  0  0  0
 73 78  1  0  0  0
 73 90  1  0  0  0
 74 83  1  0  0  0
 74 90  1  0  0  0
 75 76  1  0  0  0
 75152  1  0  0  0
 75153  1  0  0  0
 76 77  1  0  0  0
 76154  1  0  0  0
 76155  1  0  0  0
 77 78  1  0  0  0
 77 92  1  0  0  0
 77156  1  0  0  0
 78 80  1  0  0  0
 78 81  1  0  0  0
 79157  1  0  0  0
 79158  1  0  0  0
 79159  1  0  0  0
 80160  1  0  0  0
 80161  1  0  0  0
 80162  1  0  0  0
 81163  1  0  0  0
 81164  1  0  0  0
 81165  1  0  0  0
 82 86  1  0  0  0
 82166  1  0  0  0
 82167  1  0  0  0
 82168  1  0  0  0
 83 84  1  0  0  0
 83169  1  0  0  0
 83170  1  0  0  0
 84 87  1  0  0  0
 84171  1  0  0  0
 84172  1  0  0  0
 85 88  1  0  0  0
 85 89  1  0  0  0
 85173  1  0  0  0
 85174  1  0  0  0
 86 90  1  0  0  0
 86175  1  0  0  0
 86176  1  0  0  0
 87 91  1  0  0  0
 87177  1  0  0  0
 87178  1  0  0  0
 88 92  1  0  0  0
 88179  1  0  0  0
 88180  1  0  0  0
 89181  1  0  0  0
 89182  1  0  0  0
 91183  1  0  0  0
 92184  1  0  0  0
 92185  1  0  0  0
M  CHG  1  92   1
M  ISO  4   1 100  68 101  89 101  91 100
M  END
> <chiral flag>
0

> <version>
0

> <s_m_source_file>
/data/baiqing/PycharmProjects/Reinvent-master-3.2/result/LINK_invent/BTK/process_docking_weight1_custom_sum_contain_oxygen_bond_distance_aromatic_linkinvent_7_9_3/rearranged_h_0027.sdf

> <i_m_source_file_index>
24

> <r_mmod_Potential_Energy-OPLS-2005>
-92.9808197021484

> <r_mmod_Stretch_Energy-OPLS-2005>
41.1504707336426

> <r_mmod_Bend_Energy-OPLS-2005>
172.487152099609

> <r_mmod_Torsional_Energy-OPLS-2005>
351.221801757812

> <r_mmod_Improper_Torsional_Energy-OPLS-2005>
3.70713520050049

> <r_mmod_Van_der_Waal_Energy-OPLS-2005>
163.104705810547

> <r_mmod_Electrostatic_Energy-OPLS-2005>
-387.249542236328

> <r_mmod_Solvation_Energy-OPLS-2005>
-446.348510742188

> <b_mmod_Minimization_Converged-OPLS-2005>
0

> <r_mmod_RMS_Derivative-OPLS-2005>
6.8049488067627

$$$$
24
                    3D
 Structure written by MMmdl.
184193  0  0  1  0            999 V2000
  -30.5732  -15.0452   20.3851 C   0  0  0  0  0  0
  -30.4179  -12.6553   19.5165 C   0  0  0  0  0  0
  -29.5180  -12.5425   18.2678 C   0  0  0  0  0  0
  -28.0579  -12.3107   18.6910 C   0  0  0  0  0  0
  -27.6166  -13.2688   19.8291 C   0  0  2  0  0  0
  -28.6551  -13.3863   20.9640 C   0  0  0  0  0  0
  -25.2400  -13.8257   20.5773 C   0  0  0  0  0  0
  -24.1737  -13.0442   20.9247 C   0  0  0  0  0  0
  -24.6382  -11.6938   20.8757 C   0  0  0  0  0  0
  -23.9086  -10.4299   21.0407 C   0  0  0  0  0  0
  -24.3632   -9.4208   21.9180 C   0  0  0  0  0  0
  -23.6304   -8.2241   22.0750 C   0  0  0  0  0  0
  -22.4280   -8.0287   21.3547 C   0  0  0  0  0  0
  -21.9921   -9.0262   20.4649 C   0  0  0  0  0  0
  -22.7254  -10.2136   20.3059 C   0  0  0  0  0  0
  -21.6852   -6.0742   22.5286 C   0  0  0  0  0  0
  -21.4017   -6.5639   23.8222 C   0  0  0  0  0  0
  -21.3657   -5.6781   24.9181 C   0  0  0  0  0  0
  -21.6048   -4.3050   24.7222 C   0  0  0  0  0  0
  -21.8809   -3.8149   23.4339 C   0  0  0  0  0  0
  -21.9182   -4.6966   22.3403 C   0  0  0  0  0  0
  -22.7760  -13.5202   21.1893 C   0  0  0  0  0  0
  -22.1654   -4.2159   21.0975 F   0  0  0  0  0  0
  -21.5627   -3.4529   25.7733 F   0  0  0  0  0  0
  -29.9176  -13.8023   20.3438 N   0  0  0  0  0  0
  -26.2835  -12.9528   20.3267 N   0  0  0  0  0  0
  -25.9323  -11.6637   20.5753 N   0  0  0  0  0  0
  -22.0396  -12.8214   22.0455 N   0  0  0  0  0  0
  -25.4042  -15.1983   20.4264 N   0  0  0  0  0  0
  -31.7838  -14.9794   20.1354 O   0  0  0  0  0  0
  -21.6631   -6.8889   21.4251 O   0  0  0  0  0  0
  -22.3448  -14.5488   20.6695 O   0  0  0  0  0  0
  -24.6498  -31.8376   23.1825 C   0  0  0  0  0  0
  -25.9239  -32.4665   23.8248 C   0  0  1  0  0  0
  -27.2205  -27.0636   20.1692 C   0  0  0  0  0  0
  -25.5960  -33.8476   24.2159 N   0  0  0  0  0  0
  -23.4572  -30.4545   21.5292 C   0  0  2  0  0  0
  -24.9095  -28.8652   20.1170 C   0  0  0  0  0  0
  -22.7598  -29.4513   22.4830 C   0  0  0  0  0  0
  -18.0310  -28.1397   22.8465 C   0  0  0  0  0  0
  -24.1489  -36.7230   23.2643 C   0  0  0  0  0  0
  -26.0192  -30.6887   21.3938 C   0  0  0  0  0  0
  -26.0903  -29.2918   20.7384 C   0  0  0  0  0  0
  -27.2454  -28.4098   20.7415 C   0  0  0  0  0  0
  -26.0120  -26.7580   19.5051 C   0  0  0  0  0  0
  -24.8869  -27.6136   19.4842 C   0  0  0  0  0  0
  -23.6905  -29.7779   20.1524 C   0  0  0  0  0  0
  -25.4123  -36.3017   24.0315 C   0  0  1  0  0  0
  -20.5926  -28.3735   23.1210 C   0  0  2  0  0  0
  -20.6794  -26.9431   22.5399 C   0  0  0  0  0  0
  -19.5772  -26.6378   21.5204 C   0  0  0  0  0  0
  -18.1951  -26.7933   22.1610 C   0  0  0  0  0  0
  -19.1569  -28.8883   23.2830 C   0  0  0  0  0  0
  -18.9483  -30.1474   23.8860 C   0  0  0  0  0  0
  -17.6482  -30.6595   24.0552 C   0  0  0  0  0  0
  -25.9085  -34.9393   23.5051 C   0  0  0  0  0  0
  -16.5371  -29.9085   23.6342 C   0  0  0  0  0  0
  -16.7295  -28.6504   23.0361 C   0  0  0  0  0  0
  -26.4540  -31.6554   25.0719 C   0  0  0  0  0  0
  -25.3706  -31.3770   26.1407 C   0  0  0  0  0  0
  -27.0408  -30.2929   24.6359 C   0  0  0  0  0  0
  -27.6067  -32.4328   25.7501 C   0  0  0  0  0  0
  -27.5577  -37.1768   24.8461 C   0  0  0  0  0  0
  -21.4279  -29.3050   22.3578 N   0  0  0  0  0  0
  -26.4281  -37.3734   23.9415 N   0  0  0  0  0  0
  -24.7288  -31.0170   22.0895 N   0  0  0  0  0  0
  -23.4212  -28.8077   23.3022 O   0  0  0  0  0  0
  -28.2665  -26.0455   20.2113 O   0  0  0  0  0  0
  -26.5669  -34.8897   22.4635 O   0  0  0  0  0  0
  -23.5604  -32.1292   23.7001 O   0  0  0  0  0  0
  -30.6602  -22.1970   21.3125 C   0  0  0  0  0  0
  -30.8759  -17.3970   21.2174 C   0  0  0  0  0  0
  -29.2869  -17.2604   19.5851 C   0  0  0  0  0  0
  -29.6659  -19.8922   20.5794 C   0  0  2  0  0  0
  -30.4173  -23.5820   20.7678 C   0  0  2  0  0  0
  -30.4086  -18.8929   21.6560 C   0  0  2  0  0  0
  -29.0794  -23.1424   20.1829 C   0  0  1  0  0  0
  -29.2670  -21.5933   21.0031 C   0  0  2  0  0  0
  -28.6630  -18.7606   19.9603 C   0  0  0  0  0  0
  -27.4471  -18.4821   20.8709 C   0  0  0  0  0  0
  -28.1096  -19.3611   18.6551 C   0  0  0  0  0  0
  -32.8491  -24.3329   20.5240 C   0  0  0  0  0  0
  -32.6214  -20.5205   26.0362 C   0  0  0  0  0  0
  -31.4669  -24.2281   19.8621 C   0  0  0  0  0  0
  -31.6710  -19.4518   22.3875 C   0  0  0  0  0  0
  -27.9981  -24.4796   20.3463 C   0  0  0  0  0  0
  -32.7880  -20.1871   24.5508 C   0  0  0  0  0  0
  -31.4706  -19.7738   23.8768 C   0  0  0  0  0  0
  -28.2541  -21.5780   22.1705 C   0  0  0  0  0  0
  -29.9713  -16.3547   20.6128 N   0  0  0  0  0  0
  -28.4014  -22.6724   22.9181 F   0  0  0  0  0  0
  -27.0170  -21.6062   21.6802 F   0  0  0  0  0  0
  -28.3756  -20.5365   22.9868 F   0  0  0  0  0  0
  -31.4542  -12.7826   19.2009 H   0  0  0  0  0  0
  -30.4033  -11.7306   20.0941 H   0  0  0  0  0  0
  -29.8603  -11.7312   17.6246 H   0  0  0  0  0  0
  -29.5903  -13.4572   17.6770 H   0  0  0  0  0  0
  -27.9773  -11.2783   19.0324 H   0  0  0  0  0  0
  -27.3926  -12.3998   17.8317 H   0  0  0  0  0  0
  -27.5533  -14.2529   19.3643 H   0  0  0  0  0  0
  -28.7640  -12.4467   21.5069 H   0  0  0  0  0  0
  -28.3349  -14.1357   21.6907 H   0  0  0  0  0  0
  -25.2774   -9.5672   22.4757 H   0  0  0  0  0  0
  -24.0002   -7.4627   22.7471 H   0  0  0  0  0  0
  -21.0850   -8.8782   19.8968 H   0  0  0  0  0  0
  -22.3713  -10.9668   19.6171 H   0  0  0  0  0  0
  -21.2020   -7.6146   23.9740 H   0  0  0  0  0  0
  -21.1493   -6.0509   25.9085 H   0  0  0  0  0  0
  -22.0589   -2.7616   23.2827 H   0  0  0  0  0  0
  -22.3996  -11.9902   22.4895 H   0  0  0  0  0  0
  -21.1004  -13.1263   22.2629 H   0  0  0  0  0  0
  -24.6383  -15.8495   20.5650 H   0  0  0  0  0  0
  -26.2680  -15.6484   20.1558 H   0  0  0  0  0  0
  -26.7301  -32.5249   23.0971 H   0  0  0  0  0  0
  -25.0088  -33.9573   25.0296 H   0  0  0  0  0  0
  -22.7642  -31.2829   21.3676 H   0  0  0  0  0  0
  -23.3779  -35.9531   23.3262 H   0  0  0  0  0  0
  -24.3579  -36.8913   22.2067 H   0  0  0  0  0  0
  -23.7210  -37.6396   23.6715 H   0  0  0  0  0  0
  -26.1854  -31.4398   20.6204 H   0  0  0  0  0  0
  -26.8851  -30.7401   22.0426 H   0  0  0  0  0  0
  -28.1457  -28.7347   21.2443 H   0  0  0  0  0  0
  -25.9060  -25.8119   18.9975 H   0  0  0  0  0  0
  -23.9889  -27.2821   18.9819 H   0  0  0  0  0  0
  -23.8363  -30.5494   19.3954 H   0  0  0  0  0  0
  -22.8033  -29.2256   19.8373 H   0  0  0  0  0  0
  -25.1312  -36.1829   25.0804 H   0  0  0  0  0  0
  -21.0016  -28.3333   24.1331 H   0  0  0  0  0  0
  -20.5670  -26.2350   23.3626 H   0  0  0  0  0  0
  -21.6660  -26.7420   22.1205 H   0  0  0  0  0  0
  -19.6932  -25.6278   21.1260 H   0  0  0  0  0  0
  -19.6714  -27.3164   20.6713 H   0  0  0  0  0  0
  -17.4219  -26.6670   21.4016 H   0  0  0  0  0  0
  -18.0354  -26.0083   22.9016 H   0  0  0  0  0  0
  -19.7962  -30.7290   24.2219 H   0  0  0  0  0  0
  -17.5041  -31.6271   24.5161 H   0  0  0  0  0  0
  -15.5372  -30.2977   23.7687 H   0  0  0  0  0  0
  -15.8691  -28.0810   22.7102 H   0  0  0  0  0  0
  -24.5871  -30.7139   25.7723 H   0  0  0  0  0  0
  -24.8916  -32.2962   26.4783 H   0  0  0  0  0  0
  -25.7968  -30.8962   27.0221 H   0  0  0  0  0  0
  -26.3039  -29.6638   24.1351 H   0  0  0  0  0  0
  -27.3968  -29.7253   25.4968 H   0  0  0  0  0  0
  -27.8976  -30.4136   23.9728 H   0  0  0  0  0  0
  -27.2672  -33.3673   26.1974 H   0  0  0  0  0  0
  -28.3927  -32.6808   25.0359 H   0  0  0  0  0  0
  -28.0674  -31.8515   26.5497 H   0  0  0  0  0  0
  -28.2571  -38.0091   24.7534 H   0  0  0  0  0  0
  -28.1098  -36.2616   24.6252 H   0  0  0  0  0  0
  -27.2296  -37.1371   25.8866 H   0  0  0  0  0  0
  -20.9509  -29.8754   21.6732 H   0  0  0  0  0  0
  -26.0142  -38.2794   24.1446 H   0  0  0  0  0  0
  -30.9470  -22.1894   22.3643 H   0  0  0  0  0  0
  -31.4370  -21.7596   20.6889 H   0  0  0  0  0  0
  -31.2907  -16.9111   22.1033 H   0  0  0  0  0  0
  -31.7183  -17.5191   20.5328 H   0  0  0  0  0  0
  -30.0028  -17.3959   18.7715 H   0  0  0  0  0  0
  -28.4916  -16.6598   19.1410 H   0  0  0  0  0  0
  -30.4092  -19.9983   19.7884 H   0  0  0  0  0  0
  -30.2198  -24.2280   21.6261 H   0  0  0  0  0  0
  -29.6856  -18.6959   22.4436 H   0  0  0  0  0  0
  -29.2238  -22.9357   19.1213 H   0  0  0  0  0  0
  -27.7209  -18.0041   21.8106 H   0  0  0  0  0  0
  -26.7459  -17.8081   20.3799 H   0  0  0  0  0  0
  -26.8813  -19.3774   21.1036 H   0  0  0  0  0  0
  -28.9036  -19.5372   17.9287 H   0  0  0  0  0  0
  -27.6175  -20.3178   18.8315 H   0  0  0  0  0  0
  -27.3814  -18.7012   18.1833 H   0  0  0  0  0  0
  -33.5700  -24.7944   19.8475 H   0  0  0  0  0  0
  -33.2422  -23.3520   20.7942 H   0  0  0  0  0  0
  -32.8087  -24.9388   21.4304 H   0  0  0  0  0  0
  -33.5847  -20.7550   26.4908 H   0  0  0  0  0  0
  -32.1964  -19.6820   26.5880 H   0  0  0  0  0  0
  -31.9691  -21.3830   26.1764 H   0  0  0  0  0  0
  -31.1358  -25.2253   19.5692 H   0  0  0  0  0  0
  -31.5638  -23.6612   18.9343 H   0  0  0  0  0  0
  -32.1499  -20.2647   21.8635 H   0  0  0  0  0  0
  -32.4763  -18.7172   22.3655 H   0  0  0  0  0  0
  -27.5238  -24.3919   21.3235 H   0  0  0  0  0  0
  -27.1882  -24.2618   19.6544 H   0  0  0  0  0  0
  -33.5185  -19.3822   24.4504 H   0  0  0  0  0  0
  -33.2105  -21.0491   24.0332 H   0  0  0  0  0  0
  -31.0755  -18.8903   24.3814 H   0  0  0  0  0  0
  -30.7264  -20.5591   24.0025 H   0  0  0  0  0  0
  1 25  1  0  0  0
  1 30  2  0  0  0
  1 90  1  0  0  0
  2  3  1  0  0  0
  2 25  1  0  0  0
  2 94  1  0  0  0
  2 95  1  0  0  0
  3  4  1  0  0  0
  3 96  1  0  0  0
  3 97  1  0  0  0
  4  5  1  0  0  0
  4 98  1  0  0  0
  4 99  1  0  0  0
  5  6  1  0  0  0
  5 26  1  0  0  0
  5100  1  0  0  0
  6 25  1  0  0  0
  6101  1  0  0  0
  6102  1  0  0  0
  7  8  2  0  0  0
  7 26  1  0  0  0
  7 29  1  0  0  0
  8  9  1  0  0  0
  8 22  1  0  0  0
  9 10  1  0  0  0
  9 27  2  0  0  0
 10 11  2  0  0  0
 10 15  1  0  0  0
 11 12  1  0  0  0
 11103  1  0  0  0
 12 13  2  0  0  0
 12104  1  0  0  0
 13 14  1  0  0  0
 13 31  1  0  0  0
 14 15  2  0  0  0
 14105  1  0  0  0
 15106  1  0  0  0
 16 17  2  0  0  0
 16 21  1  0  0  0
 16 31  1  0  0  0
 17 18  1  0  0  0
 17107  1  0  0  0
 18 19  2  0  0  0
 18108  1  0  0  0
 19 20  1  0  0  0
 19 24  1  0  0  0
 20 21  2  0  0  0
 20109  1  0  0  0
 21 23  1  0  0  0
 22 28  1  0  0  0
 22 32  2  0  0  0
 26 27  1  0  0  0
 28110  1  0  0  0
 28111  1  0  0  0
 29112  1  0  0  0
 29113  1  0  0  0
 33 34  1  0  0  0
 33 66  1  0  0  0
 33 70  2  0  0  0
 34 36  1  0  0  0
 34 59  1  0  0  0
 34114  1  0  0  0
 35 44  2  0  0  0
 35 45  1  0  0  0
 35 68  1  0  0  0
 36 56  1  0  0  0
 36115  1  0  0  0
 37 39  1  0  0  0
 37 47  1  0  0  0
 37 66  1  0  0  0
 37116  1  0  0  0
 38 43  2  0  0  0
 38 46  1  0  0  0
 38 47  1  0  0  0
 39 64  1  0  0  0
 39 67  2  0  0  0
 40 52  1  0  0  0
 40 53  2  0  0  0
 40 58  1  0  0  0
 41117  1  0  0  0
 41118  1  0  0  0
 41119  1  0  0  0
 41 48  1  0  0  0
 42 43  1  0  0  0
 42 66  1  0  0  0
 42120  1  0  0  0
 42121  1  0  0  0
 43 44  1  0  0  0
 44122  1  0  0  0
 45 46  2  0  0  0
 45123  1  0  0  0
 46124  1  0  0  0
 47125  1  0  0  0
 47126  1  0  0  0
 48 56  1  0  0  0
 48 65  1  0  0  0
 48127  1  0  0  0
 49 50  1  0  0  0
 49 53  1  0  0  0
 49 64  1  0  0  0
 49128  1  0  0  0
 50 51  1  0  0  0
 50129  1  0  0  0
 50130  1  0  0  0
 51 52  1  0  0  0
 51131  1  0  0  0
 51132  1  0  0  0
 52133  1  0  0  0
 52134  1  0  0  0
 53 54  1  0  0  0
 54 55  2  0  0  0
 54135  1  0  0  0
 55 57  1  0  0  0
 55136  1  0  0  0
 56 69  2  0  0  0
 57 58  2  0  0  0
 57137  1  0  0  0
 58138  1  0  0  0
 59 60  1  0  0  0
 59 61  1  0  0  0
 59 62  1  0  0  0
 60139  1  0  0  0
 60140  1  0  0  0
 60141  1  0  0  0
 61142  1  0  0  0
 61143  1  0  0  0
 61144  1  0  0  0
 62145  1  0  0  0
 62146  1  0  0  0
 62147  1  0  0  0
 63 65  1  0  0  0
 63148  1  0  0  0
 63149  1  0  0  0
 63150  1  0  0  0
 64151  1  0  0  0
 65152  1  0  0  0
 68 86  1  0  0  0
 71 75  1  0  0  0
 71153  1  0  0  0
 71154  1  0  0  0
 71 78  1  0  0  0
 72 76  1  0  0  0
 72 90  1  0  0  0
 72155  1  0  0  0
 72156  1  0  0  0
 73 79  1  0  0  0
 73 90  1  0  0  0
 73157  1  0  0  0
 73158  1  0  0  0
 74 76  1  0  0  0
 74 78  1  0  0  0
 74 79  1  0  0  0
 74159  1  0  0  0
 75 77  1  0  0  0
 75 84  1  0  0  0
 75160  1  0  0  0
 76 85  1  0  0  0
 76161  1  0  0  0
 77 78  1  0  0  0
 77 86  1  0  0  0
 77162  1  0  0  0
 78 89  1  0  0  0
 79 80  1  0  0  0
 79 81  1  0  0  0
 80163  1  0  0  0
 80164  1  0  0  0
 80165  1  0  0  0
 81166  1  0  0  0
 81167  1  0  0  0
 81168  1  0  0  0
 82 84  1  0  0  0
 82169  1  0  0  0
 82170  1  0  0  0
 82171  1  0  0  0
 83 87  1  0  0  0
 83172  1  0  0  0
 83173  1  0  0  0
 83174  1  0  0  0
 84175  1  0  0  0
 84176  1  0  0  0
 85 88  1  0  0  0
 85177  1  0  0  0
 85178  1  0  0  0
 86179  1  0  0  0
 86180  1  0  0  0
 87 88  1  0  0  0
 87181  1  0  0  0
 87182  1  0  0  0
 88183  1  0  0  0
 88184  1  0  0  0
 89 91  1  0  0  0
 89 92  1  0  0  0
 89 93  1  0  0  0
M  ISO  4   1 100  68 101  86 101  90 100
M  END
> <chiral flag>
0

> <version>
0

> <s_m_source_file>
/data/baiqing/PycharmProjects/Reinvent-master-3.2/result/LINK_invent/BTK/process_docking_weight1_custom_sum_contain_oxygen_bond_distance_aromatic_linkinvent_7_9_3/rearranged_h_0027.sdf

> <i_m_source_file_index>
25

> <r_mmod_Potential_Energy-OPLS-2005>
1266.58056640625

> <r_mmod_Stretch_Energy-OPLS-2005>
425.328796386719

> <r_mmod_Bend_Energy-OPLS-2005>
477.610168457031

> <r_mmod_Torsional_Energy-OPLS-2005>
427.086364746094

> <r_mmod_Improper_Torsional_Energy-OPLS-2005>
7.31575393676758

> <r_mmod_Van_der_Waal_Energy-OPLS-2005>
131.851638793945

> <r_mmod_Electrostatic_Energy-OPLS-2005>
-292.261169433594

> <r_mmod_Solvation_Energy-OPLS-2005>
-172.073989868164

> <b_mmod_Minimization_Converged-OPLS-2005>
0

> <r_mmod_RMS_Derivative-OPLS-2005>
2.05755996704102

$$$$
25
                    3D
 Structure written by MMmdl.
156164  0  0  1  0            999 V2000
  -30.7310  -14.4428   20.5921 C   0  0  0  0  0  0
  -30.4132  -12.2979   19.4152 C   0  0  0  0  0  0
  -29.4839  -12.4962   18.2032 C   0  0  0  0  0  0
  -28.0081  -12.3679   18.6241 C   0  0  0  0  0  0
  -27.6614  -13.2146   19.8792 C   0  0  2  0  0  0
  -28.7049  -12.9939   20.9985 C   0  0  0  0  0  0
  -25.2565  -13.8196   20.5653 C   0  0  0  0  0  0
  -24.1812  -13.0459   20.9192 C   0  0  0  0  0  0
  -24.6394  -11.6938   20.8781 C   0  0  0  0  0  0
  -23.9080  -10.4295   21.0444 C   0  0  0  0  0  0
  -24.3628   -9.4201   21.9215 C   0  0  0  0  0  0
  -23.6288   -8.2234   22.0773 C   0  0  0  0  0  0
  -22.4278   -8.0290   21.3550 C   0  0  0  0  0  0
  -21.9924   -9.0270   20.4664 C   0  0  0  0  0  0
  -22.7270  -10.2145   20.3085 C   0  0  0  0  0  0
  -21.6851   -6.0739   22.5279 C   0  0  0  0  0  0
  -21.4003   -6.5635   23.8218 C   0  0  0  0  0  0
  -21.3660   -5.6786   24.9175 C   0  0  0  0  0  0
  -21.6055   -4.3048   24.7218 C   0  0  0  0  0  0
  -21.8821   -3.8145   23.4335 C   0  0  0  0  0  0
  -21.9186   -4.6960   22.3401 C   0  0  0  0  0  0
  -22.7832  -13.5253   21.1847 C   0  0  0  0  0  0
  -22.1653   -4.2149   21.0973 F   0  0  0  0  0  0
  -21.5638   -3.4546   25.7728 F   0  0  0  0  0  0
  -30.0338  -13.2854   20.4389 N   0  0  0  0  0  0
  -26.3031  -12.9389   20.3432 N   0  0  0  0  0  0
  -25.9339  -11.6550   20.5860 N   0  0  0  0  0  0
  -22.0450  -12.8255   22.0414 N   0  0  0  0  0  0
  -25.4241  -15.1888   20.3958 N   0  0  0  0  0  0
  -31.8313  -14.6230   20.0607 O   0  0  0  0  0  0
  -21.6636   -6.8891   21.4248 O   0  0  0  0  0  0
  -22.3517  -14.5535   20.6675 O   0  0  0  0  0  0
  -24.6093  -31.8673   23.2082 C   0  0  0  0  0  0
  -25.8976  -32.4832   23.8354 C   0  0  1  0  0  0
  -27.2382  -27.4387   20.1016 C   0  0  0  0  0  0
  -25.5838  -33.8630   24.2281 N   0  0  0  0  0  0
  -23.3951  -30.4931   21.5464 C   0  0  2  0  0  0
  -24.8436  -28.9549   20.1147 C   0  0  0  0  0  0
  -22.7307  -29.4694   22.4949 C   0  0  0  0  0  0
  -18.0250  -28.1311   22.8537 C   0  0  0  0  0  0
  -24.1481  -36.7320   23.2643 C   0  0  0  0  0  0
  -25.9218  -30.8367   21.3600 C   0  0  0  0  0  0
  -26.0009  -29.4714   20.7108 C   0  0  0  0  0  0
  -27.1961  -28.7188   20.7027 C   0  0  0  0  0  0
  -26.0599  -26.9351   19.5009 C   0  0  0  0  0  0
  -24.8691  -27.6875   19.5054 C   0  0  0  0  0  0
  -23.5992  -29.8156   20.1636 C   0  0  0  0  0  0
  -25.4113  -36.3140   24.0333 C   0  0  1  0  0  0
  -20.5826  -28.3647   23.1213 C   0  0  2  0  0  0
  -20.6735  -26.9395   22.5202 C   0  0  0  0  0  0
  -19.5621  -26.6392   21.5086 C   0  0  0  0  0  0
  -18.1902  -26.7824   22.1732 C   0  0  0  0  0  0
  -19.1496  -28.8796   23.2901 C   0  0  0  0  0  0
  -18.9417  -30.1407   23.8916 C   0  0  0  0  0  0
  -17.6421  -30.6539   24.0541 C   0  0  0  0  0  0
  -25.9020  -34.9503   23.5120 C   0  0  0  0  0  0
  -16.5300  -29.9026   23.6319 C   0  0  0  0  0  0
  -16.7242  -28.6448   23.0354 C   0  0  0  0  0  0
  -26.4439  -31.6625   25.0676 C   0  0  0  0  0  0
  -25.3692  -31.3714   26.1397 C   0  0  0  0  0  0
  -27.0272  -30.3071   24.6053 C   0  0  0  0  0  0
  -27.6009  -32.4352   25.7439 C   0  0  0  0  0  0
  -27.5587  -37.1810   24.8467 C   0  0  0  0  0  0
  -21.4045  -29.3027   22.3604 N   0  0  0  0  0  0
  -26.4317  -37.3810   23.9395 N   0  0  0  0  0  0
  -24.6611  -31.0772   22.0983 N   0  0  0  0  0  0
  -23.4055  -28.8266   23.3029 O   0  0  0  0  0  0
  -28.4391  -26.7545   20.1217 O   0  0  0  0  0  0
  -26.5608  -34.8981   22.4699 O   0  0  0  0  0  0
  -23.5283  -32.1404   23.7487 O   0  0  0  0  0  0
  -28.6434  -18.0859   21.2466 C   0  0  0  0  0  0
  -30.7599  -19.1964   21.6715 C   0  0  0  0  0  0
  -30.0313  -18.0011   21.5020 C   0  0  0  0  0  0
  -28.7320  -20.5496   21.4276 C   0  0  0  0  0  0
  -28.0000  -19.3494   21.2040 C   0  0  0  0  0  0
  -30.1280  -20.4511   21.6517 C   0  0  0  0  0  0
  -28.0412  -21.9206   21.5283 C   0  0  0  0  0  0
  -30.8064  -16.6900   21.6432 C   0  0  0  0  0  0
  -28.3032  -22.8997   20.3553 C   0  0  0  0  0  0
  -28.0761  -24.3830   20.7488 C   0  0  0  0  0  0
  -28.5339  -25.3954   19.6750 C   0  0  0  0  0  0
  -30.1392  -15.4229   21.2990 N   0  0  0  0  0  0
  -26.2977  -19.3925   20.9035 Cl  0  0  0  0  0  0
  -31.1000  -21.8516   21.9414 Cl  0  0  0  0  0  0
  -31.4573  -12.3849   19.1063 H   0  0  0  0  0  0
  -30.3035  -11.2874   19.8157 H   0  0  0  0  0  0
  -29.7147  -11.7590   17.4310 H   0  0  0  0  0  0
  -29.6550  -13.4783   17.7564 H   0  0  0  0  0  0
  -27.8187  -11.3164   18.8348 H   0  0  0  0  0  0
  -27.3505  -12.6244   17.7949 H   0  0  0  0  0  0
  -27.7068  -14.2627   19.5827 H   0  0  0  0  0  0
  -28.6753  -11.9573   21.3424 H   0  0  0  0  0  0
  -28.4760  -13.5997   21.8761 H   0  0  0  0  0  0
  -25.2785   -9.5649   22.4805 H   0  0  0  0  0  0
  -24.0001   -7.4610   22.7480 H   0  0  0  0  0  0
  -21.0865   -8.8783   19.8953 H   0  0  0  0  0  0
  -22.3743  -10.9669   19.6174 H   0  0  0  0  0  0
  -21.1988   -7.6148   23.9714 H   0  0  0  0  0  0
  -21.1492   -6.0520   25.9081 H   0  0  0  0  0  0
  -22.0603   -2.7608   23.2830 H   0  0  0  0  0  0
  -22.4027  -11.9924   22.4835 H   0  0  0  0  0  0
  -21.1060  -13.1266   22.2581 H   0  0  0  0  0  0
  -24.6483  -15.8395   20.4683 H   0  0  0  0  0  0
  -26.2748  -15.6192   20.0552 H   0  0  0  0  0  0
  -26.7016  -32.5527   23.1087 H   0  0  0  0  0  0
  -25.0017  -33.9784   25.0446 H   0  0  0  0  0  0
  -22.6907  -31.3148   21.4021 H   0  0  0  0  0  0
  -23.3770  -35.9629   23.3336 H   0  0  0  0  0  0
  -24.3575  -36.8904   22.2057 H   0  0  0  0  0  0
  -23.7213  -37.6519   23.6637 H   0  0  0  0  0  0
  -26.0197  -31.6062   20.5930 H   0  0  0  0  0  0
  -26.8106  -30.8851   21.9791 H   0  0  0  0  0  0
  -28.0924  -29.1179   21.1576 H   0  0  0  0  0  0
  -26.0390  -25.9704   19.0168 H   0  0  0  0  0  0
  -23.9808  -27.2797   19.0419 H   0  0  0  0  0  0
  -23.6804  -30.5753   19.3856 H   0  0  0  0  0  0
  -22.7300  -29.2160   19.8917 H   0  0  0  0  0  0
  -25.1302  -36.2023   25.0828 H   0  0  0  0  0  0
  -20.9941  -28.3235   24.1307 H   0  0  0  0  0  0
  -21.6578  -26.7448   22.0921 H   0  0  0  0  0  0
  -20.5655  -26.2245   23.3357 H   0  0  0  0  0  0
  -19.6781  -25.6308   21.1087 H   0  0  0  0  0  0
  -19.6410  -27.3209   20.6624 H   0  0  0  0  0  0
  -17.3958  -26.6343   21.4399 H   0  0  0  0  0  0
  -18.0632  -25.9957   22.9222 H   0  0  0  0  0  0
  -19.7892  -30.7200   24.2311 H   0  0  0  0  0  0
  -17.4947  -31.6202   24.5122 H   0  0  0  0  0  0
  -15.5291  -30.2904   23.7635 H   0  0  0  0  0  0
  -15.8671  -28.0775   22.7043 H   0  0  0  0  0  0
  -24.5852  -30.7102   25.7674 H   0  0  0  0  0  0
  -24.8919  -32.2883   26.4864 H   0  0  0  0  0  0
  -25.8018  -30.8819   27.0122 H   0  0  0  0  0  0
  -26.2805  -29.6817   24.1136 H   0  0  0  0  0  0
  -27.4061  -29.7324   25.4504 H   0  0  0  0  0  0
  -27.8631  -30.4384   23.9178 H   0  0  0  0  0  0
  -27.2596  -33.3620   26.2064 H   0  0  0  0  0  0
  -28.3793  -32.6951   25.0253 H   0  0  0  0  0  0
  -28.0698  -31.8439   26.5310 H   0  0  0  0  0  0
  -28.2625  -38.0090   24.7531 H   0  0  0  0  0  0
  -28.1058  -36.2619   24.6295 H   0  0  0  0  0  0
  -27.2288  -37.1488   25.8865 H   0  0  0  0  0  0
  -20.9203  -29.8586   21.6681 H   0  0  0  0  0  0
  -26.0219  -38.2889   24.1408 H   0  0  0  0  0  0
  -28.0553  -17.1906   21.1020 H   0  0  0  0  0  0
  -31.8277  -19.1570   21.8395 H   0  0  0  0  0  0
  -28.3884  -22.3736   22.4591 H   0  0  0  0  0  0
  -26.9673  -21.8146   21.6774 H   0  0  0  0  0  0
  -31.7231  -16.8208   21.0636 H   0  0  0  0  0  0
  -31.1339  -16.6172   22.6781 H   0  0  0  0  0  0
  -27.6842  -22.6265   19.5014 H   0  0  0  0  0  0
  -29.3321  -22.7973   20.0130 H   0  0  0  0  0  0
  -27.0274  -24.5533   21.0045 H   0  0  0  0  0  0
  -28.6486  -24.5876   21.6531 H   0  0  0  0  0  0
  -29.5933  -25.2078   19.4878 H   0  0  0  0  0  0
  -28.0355  -25.2437   18.7178 H   0  0  0  0  0  0
  -29.2412  -15.2250   21.7129 H   0  0  0  0  0  0
  1 25  1  0  0  0
  1 30  2  0  0  0
  1 82  1  0  0  0
  2  3  1  0  0  0
  2 25  1  0  0  0
  2 85  1  0  0  0
  2 86  1  0  0  0
  3  4  1  0  0  0
  3 87  1  0  0  0
  3 88  1  0  0  0
  4  5  1  0  0  0
  4 89  1  0  0  0
  4 90  1  0  0  0
  5  6  1  0  0  0
  5 26  1  0  0  0
  5 91  1  0  0  0
  6 25  1  0  0  0
  6 92  1  0  0  0
  6 93  1  0  0  0
  7  8  2  0  0  0
  7 26  1  0  0  0
  7 29  1  0  0  0
  8  9  1  0  0  0
  8 22  1  0  0  0
  9 10  1  0  0  0
  9 27  2  0  0  0
 10 11  2  0  0  0
 10 15  1  0  0  0
 11 12  1  0  0  0
 11 94  1  0  0  0
 12 13  2  0  0  0
 12 95  1  0  0  0
 13 14  1  0  0  0
 13 31  1  0  0  0
 14 15  2  0  0  0
 14 96  1  0  0  0
 15 97  1  0  0  0
 16 17  2  0  0  0
 16 21  1  0  0  0
 16 31  1  0  0  0
 17 18  1  0  0  0
 17 98  1  0  0  0
 18 19  2  0  0  0
 18 99  1  0  0  0
 19 20  1  0  0  0
 19 24  1  0  0  0
 20 21  2  0  0  0
 20100  1  0  0  0
 21 23  1  0  0  0
 22 28  1  0  0  0
 22 32  2  0  0  0
 26 27  1  0  0  0
 28101  1  0  0  0
 28102  1  0  0  0
 29103  1  0  0  0
 29104  1  0  0  0
 33 34  1  0  0  0
 33 66  1  0  0  0
 33 70  2  0  0  0
 34 36  1  0  0  0
 34 59  1  0  0  0
 34105  1  0  0  0
 35 44  2  0  0  0
 35 45  1  0  0  0
 35 68  1  0  0  0
 36 56  1  0  0  0
 36106  1  0  0  0
 37 39  1  0  0  0
 37 47  1  0  0  0
 37 66  1  0  0  0
 37107  1  0  0  0
 38 43  2  0  0  0
 38 46  1  0  0  0
 38 47  1  0  0  0
 39 64  1  0  0  0
 39 67  2  0  0  0
 40 52  1  0  0  0
 40 53  2  0  0  0
 40 58  1  0  0  0
 41108  1  0  0  0
 41109  1  0  0  0
 41110  1  0  0  0
 41 48  1  0  0  0
 42 43  1  0  0  0
 42 66  1  0  0  0
 42111  1  0  0  0
 42112  1  0  0  0
 43 44  1  0  0  0
 44113  1  0  0  0
 45 46  2  0  0  0
 45114  1  0  0  0
 46115  1  0  0  0
 47116  1  0  0  0
 47117  1  0  0  0
 48 56  1  0  0  0
 48 65  1  0  0  0
 48118  1  0  0  0
 49 50  1  0  0  0
 49 53  1  0  0  0
 49 64  1  0  0  0
 49119  1  0  0  0
 50 51  1  0  0  0
 50120  1  0  0  0
 50121  1  0  0  0
 51 52  1  0  0  0
 51122  1  0  0  0
 51123  1  0  0  0
 52124  1  0  0  0
 52125  1  0  0  0
 53 54  1  0  0  0
 54 55  2  0  0  0
 54126  1  0  0  0
 55 57  1  0  0  0
 55127  1  0  0  0
 56 69  2  0  0  0
 57 58  2  0  0  0
 57128  1  0  0  0
 58129  1  0  0  0
 59 60  1  0  0  0
 59 61  1  0  0  0
 59 62  1  0  0  0
 60130  1  0  0  0
 60131  1  0  0  0
 60132  1  0  0  0
 61133  1  0  0  0
 61134  1  0  0  0
 61135  1  0  0  0
 62136  1  0  0  0
 62137  1  0  0  0
 62138  1  0  0  0
 63 65  1  0  0  0
 63139  1  0  0  0
 63140  1  0  0  0
 63141  1  0  0  0
 64142  1  0  0  0
 65143  1  0  0  0
 68 81  1  0  0  0
 71 73  2  0  0  0
 71 75  1  0  0  0
 71144  1  0  0  0
 72 73  1  0  0  0
 72 76  2  0  0  0
 72145  1  0  0  0
 73 78  1  0  0  0
 74 75  2  0  0  0
 74 76  1  0  0  0
 74 77  1  0  0  0
 75 83  1  0  0  0
 76 84  1  0  0  0
 77 79  1  0  0  0
 77146  1  0  0  0
 77147  1  0  0  0
 78 82  1  0  0  0
 78148  1  0  0  0
 78149  1  0  0  0
 79 80  1  0  0  0
 79150  1  0  0  0
 79151  1  0  0  0
 80 81  1  0  0  0
 80152  1  0  0  0
 80153  1  0  0  0
 81154  1  0  0  0
 81155  1  0  0  0
 82156  1  0  0  0
M  ISO  4   1 100  68 101  81 101  82 100
M  END
> <chiral flag>
0

> <version>
0

> <s_m_source_file>
/data/baiqing/PycharmProjects/Reinvent-master-3.2/result/LINK_invent/BTK/process_docking_weight1_custom_sum_contain_oxygen_bond_distance_aromatic_linkinvent_7_9_3/rearranged_h_0027.sdf

> <i_m_source_file_index>
26

> <r_mmod_Potential_Energy-OPLS-2005>
-113.82349395752

> <r_mmod_Stretch_Energy-OPLS-2005>
37.3885726928711

> <r_mmod_Bend_Energy-OPLS-2005>
108.083930969238

> <r_mmod_Torsional_Energy-OPLS-2005>
182.941070556641

> <r_mmod_Improper_Torsional_Energy-OPLS-2005>
2.57392263412476

> <r_mmod_Van_der_Waal_Energy-OPLS-2005>
154.416030883789

> <r_mmod_Electrostatic_Energy-OPLS-2005>
-408.316497802734

> <r_mmod_Solvation_Energy-OPLS-2005>
-201.980545043945

> <b_mmod_Minimization_Converged-OPLS-2005>
0

> <r_mmod_RMS_Derivative-OPLS-2005>
4.95587253570557

$$$$
26
                    3D
 Structure written by MMmdl.
154162  0  0  1  0            999 V2000
  -30.7036  -14.5717   20.4697 C   0  0  0  0  0  0
  -30.3977  -12.3456   19.4424 C   0  0  0  0  0  0
  -29.4896  -12.4884   18.2045 C   0  0  0  0  0  0
  -28.0086  -12.3628   18.6049 C   0  0  0  0  0  0
  -27.6339  -13.2384   19.8301 C   0  0  2  0  0  0
  -28.6774  -13.1316   20.9622 C   0  0  0  0  0  0
  -25.2472  -13.8187   20.5688 C   0  0  0  0  0  0
  -24.1777  -13.0401   20.9184 C   0  0  0  0  0  0
  -24.6365  -11.6911   20.8669 C   0  0  0  0  0  0
  -23.9033  -10.4279   21.0346 C   0  0  0  0  0  0
  -24.3597   -9.4229   21.9138 C   0  0  0  0  0  0
  -23.6305   -8.2229   22.0725 C   0  0  0  0  0  0
  -22.4261   -8.0245   21.3534 C   0  0  0  0  0  0
  -21.9868   -9.0187   20.4624 C   0  0  0  0  0  0
  -22.7171  -10.2101   20.3016 C   0  0  0  0  0  0
  -21.6867   -6.0706   22.5269 C   0  0  0  0  0  0
  -21.4005   -6.5606   23.8204 C   0  0  0  0  0  0
  -21.3690   -5.6767   24.9172 C   0  0  0  0  0  0
  -21.6047   -4.3031   24.7207 C   0  0  0  0  0  0
  -21.8824   -3.8109   23.4332 C   0  0  0  0  0  0
  -21.9201   -4.6934   22.3391 C   0  0  0  0  0  0
  -22.7779  -13.5179   21.1869 C   0  0  0  0  0  0
  -22.1694   -4.2128   21.0969 F   0  0  0  0  0  0
  -21.5652   -3.4508   25.7721 F   0  0  0  0  0  0
  -30.0038  -13.3995   20.3973 N   0  0  0  0  0  0
  -26.2893  -12.9412   20.3153 N   0  0  0  0  0  0
  -25.9298  -11.6547   20.5631 N   0  0  0  0  0  0
  -22.0448  -12.8127   22.0439 N   0  0  0  0  0  0
  -25.4081  -15.1912   20.4234 N   0  0  0  0  0  0
  -31.8870  -14.6371   20.1379 O   0  0  0  0  0  0
  -21.6646   -6.8830   21.4224 O   0  0  0  0  0  0
  -22.3469  -14.5470   20.6753 O   0  0  0  0  0  0
  -24.6284  -31.8679   23.2102 C   0  0  0  0  0  0
  -25.9169  -32.4799   23.8395 C   0  0  1  0  0  0
  -27.1948  -27.4017   20.0708 C   0  0  0  0  0  0
  -25.5997  -33.8588   24.2347 N   0  0  0  0  0  0
  -23.4122  -30.5071   21.5516 C   0  0  2  0  0  0
  -24.8382  -28.9822   20.1044 C   0  0  0  0  0  0
  -22.7444  -29.4747   22.4916 C   0  0  0  0  0  0
  -18.0314  -28.1394   22.8499 C   0  0  0  0  0  0
  -24.1484  -36.7341   23.2655 C   0  0  0  0  0  0
  -25.9464  -30.8284   21.3559 C   0  0  0  0  0  0
  -26.0137  -29.4658   20.6934 C   0  0  0  0  0  0
  -27.2027  -28.6899   20.6670 C   0  0  0  0  0  0
  -25.9926  -26.9639   19.4564 C   0  0  0  0  0  0
  -24.8239  -27.7314   19.4815 C   0  0  0  0  0  0
  -23.6131  -29.8593   20.1606 C   0  0  0  0  0  0
  -25.4089  -36.3096   24.0355 C   0  0  1  0  0  0
  -20.5902  -28.3731   23.1241 C   0  0  2  0  0  0
  -20.6752  -26.9446   22.5398 C   0  0  0  0  0  0
  -19.5726  -26.6377   21.5203 C   0  0  0  0  0  0
  -18.1924  -26.7940   22.1636 C   0  0  0  0  0  0
  -19.1566  -28.8865   23.2886 C   0  0  0  0  0  0
  -18.9494  -30.1447   23.8944 C   0  0  0  0  0  0
  -17.6492  -30.6592   24.0595 C   0  0  0  0  0  0
  -25.9040  -34.9461   23.5150 C   0  0  0  0  0  0
  -16.5382  -29.9122   23.6297 C   0  0  0  0  0  0
  -16.7302  -28.6526   23.0339 C   0  0  0  0  0  0
  -26.4531  -31.6544   25.0725 C   0  0  0  0  0  0
  -25.3823  -31.3645   26.1509 C   0  0  0  0  0  0
  -27.0326  -30.2985   24.6033 C   0  0  0  0  0  0
  -27.6105  -32.4221   25.7542 C   0  0  0  0  0  0
  -27.5575  -37.1837   24.8475 C   0  0  0  0  0  0
  -21.4154  -29.3156   22.3666 N   0  0  0  0  0  0
  -26.4272  -37.3786   23.9434 N   0  0  0  0  0  0
  -24.6847  -31.0761   22.1019 N   0  0  0  0  0  0
  -23.4203  -28.8258   23.2956 O   0  0  0  0  0  0
  -28.3105  -26.5718   20.1208 O   0  0  0  0  0  0
  -26.5574  -34.8938   22.4687 O   0  0  0  0  0  0
  -23.5450  -32.1468   23.7436 O   0  0  0  0  0  0
  -29.3575  -16.4687   19.4613 C   0  0  0  0  0  0
  -29.7693  -18.1582   21.6505 C   0  0  0  0  0  0
  -30.0099  -15.9267   20.5961 C   0  0  0  0  0  0
  -29.0719  -18.6745   20.5306 C   0  0  0  0  0  0
  -28.8877  -17.8015   19.4307 C   0  0  0  0  0  0
  -30.2150  -16.8040   21.6974 C   0  0  0  0  0  0
  -28.3837  -20.0683   20.5538 C   0  0  0  0  0  0
  -29.2389  -21.3779   20.5522 C   0  0  0  0  0  0
  -28.3622  -22.6791   20.5592 C   0  0  0  0  0  0
  -29.0470  -24.0635   20.2753 C   0  0  0  0  0  0
  -27.9846  -25.1597   20.0038 C   0  0  0  0  0  0
  -28.2466  -18.2440   18.3239 F   0  0  0  0  0  0
  -31.0041  -16.2582   23.1367 Cl  0  0  0  0  0  0
  -31.4463  -12.4086   19.1552 H   0  0  0  0  0  0
  -30.2663  -11.3609   19.8889 H   0  0  0  0  0  0
  -29.7354  -11.7274   17.4604 H   0  0  0  0  0  0
  -29.6546  -13.4505   17.7216 H   0  0  0  0  0  0
  -27.8139  -11.3126   18.8194 H   0  0  0  0  0  0
  -27.3779  -12.6256   17.7543 H   0  0  0  0  0  0
  -27.6269  -14.2677   19.4719 H   0  0  0  0  0  0
  -28.6488  -12.1374   21.4105 H   0  0  0  0  0  0
  -28.4416  -13.8462   21.7524 H   0  0  0  0  0  0
  -25.2774   -9.5719   22.4677 H   0  0  0  0  0  0
  -24.0072   -7.4602   22.7395 H   0  0  0  0  0  0
  -21.0819   -8.8617   19.8905 H   0  0  0  0  0  0
  -22.3593  -10.9591   19.6091 H   0  0  0  0  0  0
  -21.1978   -7.6106   23.9697 H   0  0  0  0  0  0
  -21.1547   -6.0498   25.9092 H   0  0  0  0  0  0
  -22.0588   -2.7562   23.2816 H   0  0  0  0  0  0
  -22.4222  -11.9979   22.4994 H   0  0  0  0  0  0
  -21.0971  -13.0983   22.2499 H   0  0  0  0  0  0
  -24.6258  -15.8203   20.5699 H   0  0  0  0  0  0
  -26.2508  -15.6613   20.1191 H   0  0  0  0  0  0
  -26.7249  -32.5446   23.1159 H   0  0  0  0  0  0
  -25.0123  -33.9697   25.0474 H   0  0  0  0  0  0
  -22.7162  -31.3378   21.4175 H   0  0  0  0  0  0
  -23.3707  -35.9715   23.3300 H   0  0  0  0  0  0
  -24.3615  -36.8963   22.2081 H   0  0  0  0  0  0
  -23.7259  -37.6564   23.6655 H   0  0  0  0  0  0
  -26.0499  -31.5920   20.5849 H   0  0  0  0  0  0
  -26.8456  -30.8807   21.9594 H   0  0  0  0  0  0
  -28.1111  -29.0668   21.1182 H   0  0  0  0  0  0
  -25.8954  -26.0126   18.9587 H   0  0  0  0  0  0
  -23.9225  -27.3488   19.0230 H   0  0  0  0  0  0
  -23.7465  -30.6483   19.4196 H   0  0  0  0  0  0
  -22.7266  -29.3056   19.8456 H   0  0  0  0  0  0
  -25.1241  -36.1982   25.0838 H   0  0  0  0  0  0
  -21.0032  -28.3301   24.1345 H   0  0  0  0  0  0
  -20.5526  -26.2412   23.3632 H   0  0  0  0  0  0
  -21.6627  -26.7367   22.1279 H   0  0  0  0  0  0
  -19.6867  -25.6264   21.1286 H   0  0  0  0  0  0
  -19.6633  -27.3131   20.6673 H   0  0  0  0  0  0
  -17.4177  -26.6711   21.4052 H   0  0  0  0  0  0
  -18.0349  -26.0056   22.9014 H   0  0  0  0  0  0
  -19.7975  -30.7243   24.2320 H   0  0  0  0  0  0
  -17.5071  -31.6267   24.5223 H   0  0  0  0  0  0
  -15.5395  -30.3066   23.7528 H   0  0  0  0  0  0
  -15.8716  -28.0850   22.7000 H   0  0  0  0  0  0
  -24.5997  -30.6959   25.7913 H   0  0  0  0  0  0
  -24.9029  -32.2787   26.5013 H   0  0  0  0  0  0
  -25.8252  -30.8834   27.0244 H   0  0  0  0  0  0
  -26.2821  -29.6783   24.1117 H   0  0  0  0  0  0
  -27.4174  -29.7170   25.4428 H   0  0  0  0  0  0
  -27.8631  -30.4342   23.9099 H   0  0  0  0  0  0
  -27.2722  -33.3508   26.2158 H   0  0  0  0  0  0
  -28.3954  -32.6786   25.0416 H   0  0  0  0  0  0
  -28.0724  -31.8303   26.5467 H   0  0  0  0  0  0
  -28.2575  -38.0143   24.7469 H   0  0  0  0  0  0
  -28.1071  -36.2670   24.6300 H   0  0  0  0  0  0
  -27.2334  -37.1506   25.8891 H   0  0  0  0  0  0
  -20.9286  -29.9115   21.7110 H   0  0  0  0  0  0
  -26.0160  -38.2871   24.1397 H   0  0  0  0  0  0
  -29.2470  -15.8598   18.5758 H   0  0  0  0  0  0
  -29.9521  -18.8048   22.4955 H   0  0  0  0  0  0
  -27.7142  -20.0840   21.4137 H   0  0  0  0  0  0
  -27.7170  -20.1271   19.6951 H   0  0  0  0  0  0
  -29.8642  -21.3859   19.6593 H   0  0  0  0  0  0
  -29.8971  -21.3773   21.4217 H   0  0  0  0  0  0
  -27.8206  -22.7366   21.5082 H   0  0  0  0  0  0
  -27.5882  -22.5568   19.8005 H   0  0  0  0  0  0
  -29.6537  -23.9896   19.3719 H   0  0  0  0  0  0
  -29.7165  -24.3553   21.0862 H   0  0  0  0  0  0
  -27.1308  -24.9582   20.6578 H   0  0  0  0  0  0
  -27.6570  -24.9780   18.9805 H   0  0  0  0  0  0
  1 25  1  0  0  0
  1 30  2  0  0  0
  1 73  1  0  0  0
  2  3  1  0  0  0
  2 25  1  0  0  0
  2 84  1  0  0  0
  2 85  1  0  0  0
  3  4  1  0  0  0
  3 86  1  0  0  0
  3 87  1  0  0  0
  4  5  1  0  0  0
  4 88  1  0  0  0
  4 89  1  0  0  0
  5  6  1  0  0  0
  5 26  1  0  0  0
  5 90  1  0  0  0
  6 25  1  0  0  0
  6 91  1  0  0  0
  6 92  1  0  0  0
  7  8  2  0  0  0
  7 26  1  0  0  0
  7 29  1  0  0  0
  8  9  1  0  0  0
  8 22  1  0  0  0
  9 10  1  0  0  0
  9 27  2  0  0  0
 10 11  2  0  0  0
 10 15  1  0  0  0
 11 12  1  0  0  0
 11 93  1  0  0  0
 12 13  2  0  0  0
 12 94  1  0  0  0
 13 14  1  0  0  0
 13 31  1  0  0  0
 14 15  2  0  0  0
 14 95  1  0  0  0
 15 96  1  0  0  0
 16 17  2  0  0  0
 16 21  1  0  0  0
 16 31  1  0  0  0
 17 18  1  0  0  0
 17 97  1  0  0  0
 18 19  2  0  0  0
 18 98  1  0  0  0
 19 20  1  0  0  0
 19 24  1  0  0  0
 20 21  2  0  0  0
 20 99  1  0  0  0
 21 23  1  0  0  0
 22 28  1  0  0  0
 22 32  2  0  0  0
 26 27  1  0  0  0
 28100  1  0  0  0
 28101  1  0  0  0
 29102  1  0  0  0
 29103  1  0  0  0
 33 34  1  0  0  0
 33 66  1  0  0  0
 33 70  2  0  0  0
 34 36  1  0  0  0
 34 59  1  0  0  0
 34104  1  0  0  0
 35 44  2  0  0  0
 35 45  1  0  0  0
 35 68  1  0  0  0
 36 56  1  0  0  0
 36105  1  0  0  0
 37 39  1  0  0  0
 37 47  1  0  0  0
 37 66  1  0  0  0
 37106  1  0  0  0
 38 43  2  0  0  0
 38 46  1  0  0  0
 38 47  1  0  0  0
 39 64  1  0  0  0
 39 67  2  0  0  0
 40 52  1  0  0  0
 40 53  2  0  0  0
 40 58  1  0  0  0
 41107  1  0  0  0
 41108  1  0  0  0
 41109  1  0  0  0
 41 48  1  0  0  0
 42 43  1  0  0  0
 42 66  1  0  0  0
 42110  1  0  0  0
 42111  1  0  0  0
 43 44  1  0  0  0
 44112  1  0  0  0
 45 46  2  0  0  0
 45113  1  0  0  0
 46114  1  0  0  0
 47115  1  0  0  0
 47116  1  0  0  0
 48 56  1  0  0  0
 48 65  1  0  0  0
 48117  1  0  0  0
 49 50  1  0  0  0
 49 53  1  0  0  0
 49 64  1  0  0  0
 49118  1  0  0  0
 50 51  1  0  0  0
 50119  1  0  0  0
 50120  1  0  0  0
 51 52  1  0  0  0
 51121  1  0  0  0
 51122  1  0  0  0
 52123  1  0  0  0
 52124  1  0  0  0
 53 54  1  0  0  0
 54 55  2  0  0  0
 54125  1  0  0  0
 55 57  1  0  0  0
 55126  1  0  0  0
 56 69  2  0  0  0
 57 58  2  0  0  0
 57127  1  0  0  0
 58128  1  0  0  0
 59 60  1  0  0  0
 59 61  1  0  0  0
 59 62  1  0  0  0
 60129  1  0  0  0
 60130  1  0  0  0
 60131  1  0  0  0
 61132  1  0  0  0
 61133  1  0  0  0
 61134  1  0  0  0
 62135  1  0  0  0
 62136  1  0  0  0
 62137  1  0  0  0
 63 65  1  0  0  0
 63138  1  0  0  0
 63139  1  0  0  0
 63140  1  0  0  0
 64141  1  0  0  0
 65142  1  0  0  0
 68 81  1  0  0  0
 71 73  2  0  0  0
 71 75  1  0  0  0
 71143  1  0  0  0
 72 74  1  0  0  0
 72 76  2  0  0  0
 72144  1  0  0  0
 73 76  1  0  0  0
 74 75  2  0  0  0
 74 77  1  0  0  0
 75 82  1  0  0  0
 76 83  1  0  0  0
 77 78  1  0  0  0
 77145  1  0  0  0
 77146  1  0  0  0
 78 79  1  0  0  0
 78147  1  0  0  0
 78148  1  0  0  0
 79 80  1  0  0  0
 79149  1  0  0  0
 79150  1  0  0  0
 80 81  1  0  0  0
 80151  1  0  0  0
 80152  1  0  0  0
 81153  1  0  0  0
 81154  1  0  0  0
M  ISO  4   1 100  68 101  73 100  81 101
M  END
> <chiral flag>
0

> <version>
0

> <s_m_source_file>
/data/baiqing/PycharmProjects/Reinvent-master-3.2/result/LINK_invent/BTK/process_docking_weight1_custom_sum_contain_oxygen_bond_distance_aromatic_linkinvent_7_9_3/rearranged_h_0027.sdf

> <i_m_source_file_index>
27

> <r_mmod_Potential_Energy-OPLS-2005>
92.7791900634766

> <r_mmod_Stretch_Energy-OPLS-2005>
50.1615982055664

> <r_mmod_Bend_Energy-OPLS-2005>
120.10075378418

> <r_mmod_Torsional_Energy-OPLS-2005>
220.297714233398

> <r_mmod_Improper_Torsional_Energy-OPLS-2005>
10.5792961120605

> <r_mmod_Van_der_Waal_Energy-OPLS-2005>
149.733505249023

> <r_mmod_Electrostatic_Energy-OPLS-2005>
-316.322784423828

> <r_mmod_Solvation_Energy-OPLS-2005>
-178.386016845703

> <b_mmod_Minimization_Converged-OPLS-2005>
0

> <r_mmod_RMS_Derivative-OPLS-2005>
7.00178813934326

$$$$
27
                    3D
 Structure written by MMmdl.
174182  0  0  1  0            999 V2000
  -30.7127  -14.4327   20.3781 C   0  0  0  0  0  0
  -30.4055  -12.2284   19.4392 C   0  0  0  0  0  0
  -29.4943  -12.4289   18.2083 C   0  0  0  0  0  0
  -28.0117  -12.3342   18.6223 C   0  0  0  0  0  0
  -27.6542  -13.2058   19.8562 C   0  0  2  0  0  0
  -28.7063  -13.0537   20.9844 C   0  0  0  0  0  0
  -25.2581  -13.8161   20.5700 C   0  0  0  0  0  0
  -24.1852  -13.0438   20.9216 C   0  0  0  0  0  0
  -24.6396  -11.6906   20.8751 C   0  0  0  0  0  0
  -23.9064  -10.4286   21.0426 C   0  0  0  0  0  0
  -24.3620   -9.4195   21.9203 C   0  0  0  0  0  0
  -23.6294   -8.2229   22.0762 C   0  0  0  0  0  0
  -22.4267   -8.0274   21.3557 C   0  0  0  0  0  0
  -21.9911   -9.0259   20.4671 C   0  0  0  0  0  0
  -22.7235  -10.2136   20.3087 C   0  0  0  0  0  0
  -21.6870   -6.0743   22.5284 C   0  0  0  0  0  0
  -21.4021   -6.5644   23.8213 C   0  0  0  0  0  0
  -21.3650   -5.6793   24.9175 C   0  0  0  0  0  0
  -21.6033   -4.3055   24.7225 C   0  0  0  0  0  0
  -21.8825   -3.8148   23.4346 C   0  0  0  0  0  0
  -21.9187   -4.6974   22.3389 C   0  0  0  0  0  0
  -22.7873  -13.5246   21.1847 C   0  0  0  0  0  0
  -22.1671   -4.2157   21.0976 F   0  0  0  0  0  0
  -21.5610   -3.4527   25.7736 F   0  0  0  0  0  0
  -30.0432  -13.2612   20.4126 N   0  0  0  0  0  0
  -26.3008  -12.9340   20.3331 N   0  0  0  0  0  0
  -25.9323  -11.6493   20.5803 N   0  0  0  0  0  0
  -22.0503  -12.8257   22.0432 N   0  0  0  0  0  0
  -25.4208  -15.1886   20.4063 N   0  0  0  0  0  0
  -31.9244  -14.5251   20.2047 O   0  0  0  0  0  0
  -21.6627   -6.8887   21.4250 O   0  0  0  0  0  0
  -22.3554  -14.5540   20.6678 O   0  0  0  0  0  0
  -24.6109  -31.8746   23.2138 C   0  0  0  0  0  0
  -25.9024  -32.4851   23.8406 C   0  0  1  0  0  0
  -27.2123  -27.4775   20.0803 C   0  0  0  0  0  0
  -25.5915  -33.8649   24.2363 N   0  0  0  0  0  0
  -23.3940  -30.5035   21.5527 C   0  0  2  0  0  0
  -24.8325  -28.9822   20.1059 C   0  0  0  0  0  0
  -22.7377  -29.4713   22.4986 C   0  0  0  0  0  0
  -18.0267  -28.1371   22.8485 C   0  0  0  0  0  0
  -24.1491  -36.7335   23.2633 C   0  0  0  0  0  0
  -25.9193  -30.8544   21.3585 C   0  0  0  0  0  0
  -25.9921  -29.4940   20.7031 C   0  0  0  0  0  0
  -27.1894  -28.7492   20.6861 C   0  0  0  0  0  0
  -26.0440  -26.9833   19.4591 C   0  0  0  0  0  0
  -24.8512  -27.7253   19.4803 C   0  0  0  0  0  0
  -23.5958  -29.8455   20.1624 C   0  0  0  0  0  0
  -25.4105  -36.3137   24.0338 C   0  0  1  0  0  0
  -20.5858  -28.3670   23.1299 C   0  0  2  0  0  0
  -20.6752  -26.9409   22.5400 C   0  0  0  0  0  0
  -19.5741  -26.6392   21.5191 C   0  0  0  0  0  0
  -18.1923  -26.7917   22.1618 C   0  0  0  0  0  0
  -19.1517  -28.8825   23.2902 C   0  0  0  0  0  0
  -18.9455  -30.1424   23.8927 C   0  0  0  0  0  0
  -17.6462  -30.6574   24.0566 C   0  0  0  0  0  0
  -25.9032  -34.9497   23.5144 C   0  0  0  0  0  0
  -16.5349  -29.9091   23.6314 C   0  0  0  0  0  0
  -16.7257  -28.6505   23.0335 C   0  0  0  0  0  0
  -26.4471  -31.6592   25.0698 C   0  0  0  0  0  0
  -25.3771  -31.3689   26.1471 C   0  0  0  0  0  0
  -27.0266  -30.3028   24.6033 C   0  0  0  0  0  0
  -27.6075  -32.4273   25.7459 C   0  0  0  0  0  0
  -27.5585  -37.1819   24.8460 C   0  0  0  0  0  0
  -21.4112  -29.3070   22.3721 N   0  0  0  0  0  0
  -26.4302  -37.3809   23.9412 N   0  0  0  0  0  0
  -24.6598  -31.0906   22.1018 N   0  0  0  0  0  0
  -23.4183  -28.8249   23.2991 O   0  0  0  0  0  0
  -28.3728  -26.7490   20.0827 O   0  0  0  0  0  0
  -26.5587  -34.8932   22.4700 O   0  0  0  0  0  0
  -23.5321  -32.1471   23.7581 O   0  0  0  0  0  0
  -30.0884  -17.7495   19.0121 C   0  0  0  0  0  0
  -30.9988  -19.9190   19.6977 C   0  0  0  0  0  0
  -28.8774  -18.3718   18.6455 C   0  0  0  0  0  0
  -31.1551  -18.5242   19.5263 C   0  0  0  0  0  0
  -29.7737  -20.5319   19.3314 C   0  0  0  0  0  0
  -28.7203  -19.7589   18.7994 C   0  0  0  0  0  0
  -32.1355  -20.7332   20.3179 C   0  0  0  0  0  0
  -30.2387  -16.2540   18.8135 C   0  0  0  0  0  0
  -32.2437  -20.6435   21.8624 C   0  0  0  0  0  0
  -31.0701  -19.9440   22.5857 C   0  0  0  0  0  0
  -30.9390  -20.2823   24.0825 C   0  0  0  0  0  0
  -30.5831  -21.7498   24.3919 C   0  0  0  0  0  0
  -29.5237  -22.3442   23.4499 C   0  0  0  0  0  0
  -28.9726  -23.6923   23.9261 C   0  0  0  0  0  0
  -28.0802  -24.3495   22.8619 C   0  0  0  0  0  0
  -28.8816  -25.2329   21.8862 C   0  0  0  0  0  0
  -28.2230  -25.3978   20.5126 C   0  0  0  0  0  0
  -29.9200  -15.4408   19.9961 N   0  0  0  0  0  0
  -27.8543  -17.6296   18.1464 F   0  0  0  0  0  0
  -32.6520  -17.7658   19.9658 Cl  0  0  0  0  0  0
  -29.5371  -22.2323   19.5517 Cl  0  0  0  0  0  0
  -27.2252  -20.4979   18.3324 Cl  0  0  0  0  0  0
  -31.4578  -12.2715   19.1498 H   0  0  0  0  0  0
  -30.2531  -11.2416   19.8785 H   0  0  0  0  0  0
  -29.7171  -11.6706   17.4561 H   0  0  0  0  0  0
  -29.6953  -13.3917   17.7368 H   0  0  0  0  0  0
  -27.8054  -11.2885   18.8462 H   0  0  0  0  0  0
  -27.3696  -12.5891   17.7801 H   0  0  0  0  0  0
  -27.6644  -14.2348   19.5032 H   0  0  0  0  0  0
  -28.6580  -12.0595   21.4302 H   0  0  0  0  0  0
  -28.5174  -13.7655   21.7898 H   0  0  0  0  0  0
  -25.2781   -9.5652   22.4769 H   0  0  0  0  0  0
  -23.9994   -7.4622   22.7474 H   0  0  0  0  0  0
  -21.0836   -8.8792   19.8981 H   0  0  0  0  0  0
  -22.3706  -10.9683   19.6193 H   0  0  0  0  0  0
  -21.2037   -7.6157   23.9734 H   0  0  0  0  0  0
  -21.1461   -6.0517   25.9086 H   0  0  0  0  0  0
  -22.0607   -2.7610   23.2832 H   0  0  0  0  0  0
  -22.4112  -11.9926   22.4840 H   0  0  0  0  0  0
  -21.1143  -13.1326   22.2655 H   0  0  0  0  0  0
  -24.6409  -15.8285   20.5100 H   0  0  0  0  0  0
  -26.2534  -15.6375   20.0505 H   0  0  0  0  0  0
  -26.7110  -32.5568   23.1187 H   0  0  0  0  0  0
  -25.0060  -33.9828   25.0500 H   0  0  0  0  0  0
  -22.6801  -31.3198   21.4215 H   0  0  0  0  0  0
  -23.3743  -35.9677   23.3316 H   0  0  0  0  0  0
  -24.3588  -36.8928   22.2046 H   0  0  0  0  0  0
  -23.7254  -37.6550   23.6627 H   0  0  0  0  0  0
  -26.0219  -31.6246   20.5925 H   0  0  0  0  0  0
  -26.8110  -30.9076   21.9705 H   0  0  0  0  0  0
  -28.0874  -29.1410   21.1430 H   0  0  0  0  0  0
  -26.0441  -26.0282   18.9530 H   0  0  0  0  0  0
  -23.9635  -27.3346   19.0007 H   0  0  0  0  0  0
  -23.7040  -30.6252   19.4083 H   0  0  0  0  0  0
  -22.7193  -29.2667   19.8668 H   0  0  0  0  0  0
  -25.1281  -36.2017   25.0828 H   0  0  0  0  0  0
  -20.9953  -28.3248   24.1421 H   0  0  0  0  0  0
  -20.5627  -26.2303   23.3606 H   0  0  0  0  0  0
  -21.6629  -26.7443   22.1228 H   0  0  0  0  0  0
  -19.6916  -25.6312   21.1212 H   0  0  0  0  0  0
  -19.6664  -27.3211   20.6729 H   0  0  0  0  0  0
  -17.4192  -26.6648   21.4026 H   0  0  0  0  0  0
  -18.0340  -26.0039   22.8999 H   0  0  0  0  0  0
  -19.7928  -30.7207   24.2327 H   0  0  0  0  0  0
  -17.5025  -31.6247   24.5172 H   0  0  0  0  0  0
  -15.5354  -30.3015   23.7584 H   0  0  0  0  0  0
  -15.8667  -28.0829   22.7039 H   0  0  0  0  0  0
  -24.5937  -30.7041   25.7822 H   0  0  0  0  0  0
  -24.8964  -32.2840   26.4935 H   0  0  0  0  0  0
  -25.8142  -30.8853   27.0214 H   0  0  0  0  0  0
  -26.2780  -29.6813   24.1112 H   0  0  0  0  0  0
  -27.4071  -29.7238   25.4455 H   0  0  0  0  0  0
  -27.8603  -30.4329   23.9129 H   0  0  0  0  0  0
  -27.2722  -33.3549   26.2098 H   0  0  0  0  0  0
  -28.3856  -32.6862   25.0272 H   0  0  0  0  0  0
  -28.0771  -31.8349   26.5321 H   0  0  0  0  0  0
  -28.2620  -38.0104   24.7506 H   0  0  0  0  0  0
  -28.1075  -36.2643   24.6290 H   0  0  0  0  0  0
  -27.2312  -37.1474   25.8866 H   0  0  0  0  0  0
  -20.9256  -29.8843   21.7013 H   0  0  0  0  0  0
  -26.0206  -38.2893   24.1402 H   0  0  0  0  0  0
  -32.0483  -21.7772   20.0297 H   0  0  0  0  0  0
  -33.0809  -20.4361   19.8632 H   0  0  0  0  0  0
  -29.5690  -15.9347   18.0130 H   0  0  0  0  0  0
  -31.2331  -16.0527   18.4077 H   0  0  0  0  0  0
  -32.3863  -21.6539   22.2471 H   0  0  0  0  0  0
  -33.1583  -20.1084   22.1233 H   0  0  0  0  0  0
  -31.1876  -18.8654   22.4756 H   0  0  0  0  0  0
  -30.1191  -20.1740   22.1099 H   0  0  0  0  0  0
  -30.1562  -19.6475   24.4987 H   0  0  0  0  0  0
  -31.8527  -20.0058   24.6092 H   0  0  0  0  0  0
  -31.4838  -22.3621   24.3432 H   0  0  0  0  0  0
  -30.2342  -21.8121   25.4251 H   0  0  0  0  0  0
  -28.6988  -21.6405   23.3344 H   0  0  0  0  0  0
  -29.9652  -22.4674   22.4596 H   0  0  0  0  0  0
  -29.7928  -24.3631   24.1882 H   0  0  0  0  0  0
  -28.4033  -23.5349   24.8435 H   0  0  0  0  0  0
  -27.3313  -24.9665   23.3589 H   0  0  0  0  0  0
  -27.5200  -23.5803   22.3290 H   0  0  0  0  0  0
  -29.8798  -24.8270   21.7283 H   0  0  0  0  0  0
  -29.0205  -26.2119   22.3473 H   0  0  0  0  0  0
  -27.1917  -25.0452   20.5603 H   0  0  0  0  0  0
  -28.7139  -24.7693   19.7748 H   0  0  0  0  0  0
  -28.9388  -15.3066   20.1797 H   0  0  0  0  0  0
  1 25  1  0  0  0
  1 30  2  0  0  0
  1 88  1  0  0  0
  2  3  1  0  0  0
  2 25  1  0  0  0
  2 93  1  0  0  0
  2 94  1  0  0  0
  3  4  1  0  0  0
  3 95  1  0  0  0
  3 96  1  0  0  0
  4  5  1  0  0  0
  4 97  1  0  0  0
  4 98  1  0  0  0
  5  6  1  0  0  0
  5 26  1  0  0  0
  5 99  1  0  0  0
  6 25  1  0  0  0
  6100  1  0  0  0
  6101  1  0  0  0
  7  8  2  0  0  0
  7 26  1  0  0  0
  7 29  1  0  0  0
  8  9  1  0  0  0
  8 22  1  0  0  0
  9 10  1  0  0  0
  9 27  2  0  0  0
 10 11  2  0  0  0
 10 15  1  0  0  0
 11 12  1  0  0  0
 11102  1  0  0  0
 12 13  2  0  0  0
 12103  1  0  0  0
 13 14  1  0  0  0
 13 31  1  0  0  0
 14 15  2  0  0  0
 14104  1  0  0  0
 15105  1  0  0  0
 16 17  2  0  0  0
 16 21  1  0  0  0
 16 31  1  0  0  0
 17 18  1  0  0  0
 17106  1  0  0  0
 18 19  2  0  0  0
 18107  1  0  0  0
 19 20  1  0  0  0
 19 24  1  0  0  0
 20 21  2  0  0  0
 20108  1  0  0  0
 21 23  1  0  0  0
 22 28  1  0  0  0
 22 32  2  0  0  0
 26 27  1  0  0  0
 28109  1  0  0  0
 28110  1  0  0  0
 29111  1  0  0  0
 29112  1  0  0  0
 33 34  1  0  0  0
 33 66  1  0  0  0
 33 70  2  0  0  0
 34 36  1  0  0  0
 34 59  1  0  0  0
 34113  1  0  0  0
 35 44  2  0  0  0
 35 45  1  0  0  0
 35 68  1  0  0  0
 36 56  1  0  0  0
 36114  1  0  0  0
 37 39  1  0  0  0
 37 47  1  0  0  0
 37 66  1  0  0  0
 37115  1  0  0  0
 38 43  2  0  0  0
 38 46  1  0  0  0
 38 47  1  0  0  0
 39 64  1  0  0  0
 39 67  2  0  0  0
 40 52  1  0  0  0
 40 53  2  0  0  0
 40 58  1  0  0  0
 41116  1  0  0  0
 41117  1  0  0  0
 41118  1  0  0  0
 41 48  1  0  0  0
 42 43  1  0  0  0
 42 66  1  0  0  0
 42119  1  0  0  0
 42120  1  0  0  0
 43 44  1  0  0  0
 44121  1  0  0  0
 45 46  2  0  0  0
 45122  1  0  0  0
 46123  1  0  0  0
 47124  1  0  0  0
 47125  1  0  0  0
 48 56  1  0  0  0
 48 65  1  0  0  0
 48126  1  0  0  0
 49 50  1  0  0  0
 49 53  1  0  0  0
 49 64  1  0  0  0
 49127  1  0  0  0
 50 51  1  0  0  0
 50128  1  0  0  0
 50129  1  0  0  0
 51 52  1  0  0  0
 51130  1  0  0  0
 51131  1  0  0  0
 52132  1  0  0  0
 52133  1  0  0  0
 53 54  1  0  0  0
 54 55  2  0  0  0
 54134  1  0  0  0
 55 57  1  0  0  0
 55135  1  0  0  0
 56 69  2  0  0  0
 57 58  2  0  0  0
 57136  1  0  0  0
 58137  1  0  0  0
 59 60  1  0  0  0
 59 61  1  0  0  0
 59 62  1  0  0  0
 60138  1  0  0  0
 60139  1  0  0  0
 60140  1  0  0  0
 61141  1  0  0  0
 61142  1  0  0  0
 61143  1  0  0  0
 62144  1  0  0  0
 62145  1  0  0  0
 62146  1  0  0  0
 63 65  1  0  0  0
 63147  1  0  0  0
 63148  1  0  0  0
 63149  1  0  0  0
 64150  1  0  0  0
 65151  1  0  0  0
 68 87  1  0  0  0
 71 73  2  0  0  0
 71 74  1  0  0  0
 71 78  1  0  0  0
 72 74  2  0  0  0
 72 75  1  0  0  0
 72 77  1  0  0  0
 73 76  1  0  0  0
 73 89  1  0  0  0
 74 90  1  0  0  0
 75 76  2  0  0  0
 75 91  1  0  0  0
 76 92  1  0  0  0
 77 79  1  0  0  0
 77152  1  0  0  0
 77153  1  0  0  0
 78 88  1  0  0  0
 78154  1  0  0  0
 78155  1  0  0  0
 79 80  1  0  0  0
 79156  1  0  0  0
 79157  1  0  0  0
 80 81  1  0  0  0
 80158  1  0  0  0
 80159  1  0  0  0
 81 82  1  0  0  0
 81160  1  0  0  0
 81161  1  0  0  0
 82 83  1  0  0  0
 82162  1  0  0  0
 82163  1  0  0  0
 83 84  1  0  0  0
 83164  1  0  0  0
 83165  1  0  0  0
 84 85  1  0  0  0
 84166  1  0  0  0
 84167  1  0  0  0
 85 86  1  0  0  0
 85168  1  0  0  0
 85169  1  0  0  0
 86 87  1  0  0  0
 86170  1  0  0  0
 86171  1  0  0  0
 87172  1  0  0  0
 87173  1  0  0  0
 88174  1  0  0  0
M  ISO  4   1 100  68 101  87 101  88 100
M  END
> <chiral flag>
0

> <version>
0

> <s_m_source_file>
/data/baiqing/PycharmProjects/Reinvent-master-3.2/result/LINK_invent/BTK/process_docking_weight1_custom_sum_contain_oxygen_bond_distance_aromatic_linkinvent_7_9_3/rearranged_h_0027.sdf

> <i_m_source_file_index>
28

> <r_mmod_Potential_Energy-OPLS-2005>
80.4209442138672

> <r_mmod_Stretch_Energy-OPLS-2005>
32.1290473937988

> <r_mmod_Bend_Energy-OPLS-2005>
93.2379913330078

> <r_mmod_Torsional_Energy-OPLS-2005>
298.168762207031

> <r_mmod_Improper_Torsional_Energy-OPLS-2005>
20.5287094116211

> <r_mmod_Van_der_Waal_Energy-OPLS-2005>
159.435592651367

> <r_mmod_Electrostatic_Energy-OPLS-2005>
-349.723297119141

> <r_mmod_Solvation_Energy-OPLS-2005>
-199.822998046875

> <b_mmod_Minimization_Converged-OPLS-2005>
0

> <r_mmod_RMS_Derivative-OPLS-2005>
4.08899021148682

$$$$
28
                    3D
 Structure written by MMmdl.
163172  0  0  1  0            999 V2000
  -30.7414  -14.4404   20.5922 C   0  0  0  0  0  0
  -30.4115  -12.3040   19.4057 C   0  0  0  0  0  0
  -29.4846  -12.5143   18.1937 C   0  0  0  0  0  0
  -28.0066  -12.3787   18.6077 C   0  0  0  0  0  0
  -27.6567  -13.2145   19.8686 C   0  0  2  0  0  0
  -28.7015  -13.0001   20.9856 C   0  0  0  0  0  0
  -25.2553  -13.8178   20.5672 C   0  0  0  0  0  0
  -24.1819  -13.0433   20.9176 C   0  0  0  0  0  0
  -24.6390  -11.6910   20.8729 C   0  0  0  0  0  0
  -23.9065  -10.4286   21.0402 C   0  0  0  0  0  0
  -24.3614   -9.4210   21.9190 C   0  0  0  0  0  0
  -23.6291   -8.2247   22.0761 C   0  0  0  0  0  0
  -22.4275   -8.0285   21.3545 C   0  0  0  0  0  0
  -21.9914   -9.0251   20.4640 C   0  0  0  0  0  0
  -22.7241  -10.2132   20.3047 C   0  0  0  0  0  0
  -21.6850   -6.0742   22.5281 C   0  0  0  0  0  0
  -21.4014   -6.5641   23.8217 C   0  0  0  0  0  0
  -21.3654   -5.6794   24.9176 C   0  0  0  0  0  0
  -21.6045   -4.3057   24.7228 C   0  0  0  0  0  0
  -21.8822   -3.8145   23.4344 C   0  0  0  0  0  0
  -21.9192   -4.6967   22.3401 C   0  0  0  0  0  0
  -22.7836  -13.5232   21.1825 C   0  0  0  0  0  0
  -22.1661   -4.2148   21.0985 F   0  0  0  0  0  0
  -21.5628   -3.4537   25.7743 F   0  0  0  0  0  0
  -30.0304  -13.2932   20.4241 N   0  0  0  0  0  0
  -26.3001  -12.9365   20.3347 N   0  0  0  0  0  0
  -25.9318  -11.6508   20.5750 N   0  0  0  0  0  0
  -22.0469  -12.8207   22.0370 N   0  0  0  0  0  0
  -25.4260  -15.1900   20.4086 N   0  0  0  0  0  0
  -31.8874  -14.5757   20.1638 O   0  0  0  0  0  0
  -21.6643   -6.8882   21.4247 O   0  0  0  0  0  0
  -22.3531  -14.5546   20.6697 O   0  0  0  0  0  0
  -24.6113  -31.8730   23.2134 C   0  0  0  0  0  0
  -25.9025  -32.4848   23.8424 C   0  0  1  0  0  0
  -27.2473  -27.4746   20.1029 C   0  0  0  0  0  0
  -25.5907  -33.8643   24.2378 N   0  0  0  0  0  0
  -23.3975  -30.4948   21.5511 C   0  0  2  0  0  0
  -24.8495  -28.9639   20.1168 C   0  0  0  0  0  0
  -22.7397  -29.4698   22.5012 C   0  0  0  0  0  0
  -18.0282  -28.1398   22.8518 C   0  0  0  0  0  0
  -24.1478  -36.7318   23.2632 C   0  0  0  0  0  0
  -25.9171  -30.8549   21.3541 C   0  0  0  0  0  0
  -26.0007  -29.4834   20.7218 C   0  0  0  0  0  0
  -27.2008  -28.7423   20.7282 C   0  0  0  0  0  0
  -26.0854  -26.9679   19.4896 C   0  0  0  0  0  0
  -24.8827  -27.7000   19.5023 C   0  0  0  0  0  0
  -23.6066  -29.8227   20.1653 C   0  0  0  0  0  0
  -25.4095  -36.3127   24.0343 C   0  0  1  0  0  0
  -20.5865  -28.3696   23.1346 C   0  0  2  0  0  0
  -20.6786  -26.9439   22.5442 C   0  0  0  0  0  0
  -19.5776  -26.6424   21.5230 C   0  0  0  0  0  0
  -18.1932  -26.7967   22.1623 C   0  0  0  0  0  0
  -19.1526  -28.8860   23.2932 C   0  0  0  0  0  0
  -18.9456  -30.1471   23.8945 C   0  0  0  0  0  0
  -17.6454  -30.6608   24.0586 C   0  0  0  0  0  0
  -25.9034  -34.9493   23.5163 C   0  0  0  0  0  0
  -16.5346  -29.9115   23.6316 C   0  0  0  0  0  0
  -16.7262  -28.6529   23.0336 C   0  0  0  0  0  0
  -26.4473  -31.6569   25.0697 C   0  0  0  0  0  0
  -25.3758  -31.3558   26.1427 C   0  0  0  0  0  0
  -27.0285  -30.3045   24.5946 C   0  0  0  0  0  0
  -27.6087  -32.4223   25.7451 C   0  0  0  0  0  0
  -27.5572  -37.1821   24.8465 C   0  0  0  0  0  0
  -21.4135  -29.3042   22.3730 N   0  0  0  0  0  0
  -26.4293  -37.3812   23.9406 N   0  0  0  0  0  0
  -24.6605  -31.0873   22.1010 N   0  0  0  0  0  0
  -23.4168  -28.8280   23.3082 O   0  0  0  0  0  0
  -28.3794  -26.7009   20.0290 O   0  0  0  0  0  0
  -26.5577  -34.8948   22.4707 O   0  0  0  0  0  0
  -23.5320  -32.1457   23.7557 O   0  0  0  0  0  0
  -30.0739  -19.1632   21.3584 C   0  0  0  0  0  0
  -30.0895  -20.3878   20.6468 C   0  0  0  0  0  0
  -30.6006  -20.4179   19.3257 C   0  0  0  0  0  0
  -30.5762  -17.9682   20.7854 C   0  0  0  0  0  0
  -31.0558  -18.0114   19.4555 C   0  0  0  0  0  0
  -31.0647  -19.2208   18.7323 C   0  0  0  0  0  0
  -29.5719  -21.6625   21.3176 C   0  0  0  0  0  0
  -30.7103  -21.7290   18.5501 C   0  0  0  0  0  0
  -29.9532  -22.9065   19.1708 C   0  0  0  0  0  0
  -30.1257  -22.9661   20.6964 C   0  0  1  0  0  0
  -30.7094  -16.7084   21.6573 C   0  0  0  0  0  0
  -29.4562  -24.2309   21.2798 C   0  0  0  0  0  0
  -30.2186  -25.5497   21.0026 C   0  0  0  0  0  0
  -29.3198  -26.7926   21.0926 C   0  0  0  0  0  0
  -30.0933  -15.4587   21.1833 N   0  0  0  0  0  0
  -31.5500  -16.9027   18.8613 F   0  0  0  0  0  0
  -31.6942  -19.2233   17.1199 Cl  0  0  0  0  0  0
  -31.4558  -12.3940   19.1008 H   0  0  0  0  0  0
  -30.3043  -11.2947   19.8038 H   0  0  0  0  0  0
  -29.7198  -11.7967   17.4072 H   0  0  0  0  0  0
  -29.6560  -13.5039   17.7679 H   0  0  0  0  0  0
  -27.8071  -11.3226   18.7915 H   0  0  0  0  0  0
  -27.3598  -12.6709   17.7789 H   0  0  0  0  0  0
  -27.6981  -14.2632   19.5735 H   0  0  0  0  0  0
  -28.6741  -11.9668   21.3356 H   0  0  0  0  0  0
  -28.4691  -13.6118   21.8584 H   0  0  0  0  0  0
  -25.2760   -9.5694   22.4760 H   0  0  0  0  0  0
  -23.9997   -7.4649   22.7486 H   0  0  0  0  0  0
  -21.0852   -8.8769   19.8938 H   0  0  0  0  0  0
  -22.3709  -10.9669   19.6147 H   0  0  0  0  0  0
  -21.2005   -7.6148   23.9720 H   0  0  0  0  0  0
  -21.1472   -6.0525   25.9086 H   0  0  0  0  0  0
  -22.0601   -2.7604   23.2853 H   0  0  0  0  0  0
  -22.4066  -11.9850   22.4726 H   0  0  0  0  0  0
  -21.1082  -13.1223   22.2548 H   0  0  0  0  0  0
  -24.6575  -15.8443   20.5129 H   0  0  0  0  0  0
  -26.2796  -15.6304   20.0866 H   0  0  0  0  0  0
  -26.7116  -32.5617   23.1219 H   0  0  0  0  0  0
  -25.0069  -33.9800   25.0530 H   0  0  0  0  0  0
  -22.6848  -31.3104   21.4092 H   0  0  0  0  0  0
  -23.3766  -35.9628   23.3298 H   0  0  0  0  0  0
  -24.3580  -36.8940   22.2052 H   0  0  0  0  0  0
  -23.7219  -37.6520   23.6645 H   0  0  0  0  0  0
  -25.9983  -31.6088   20.5695 H   0  0  0  0  0  0
  -26.8167  -30.9354   21.9519 H   0  0  0  0  0  0
  -28.0824  -29.1597   21.1963 H   0  0  0  0  0  0
  -26.1186  -26.0000   19.0080 H   0  0  0  0  0  0
  -24.0007  -27.2935   19.0291 H   0  0  0  0  0  0
  -23.7072  -30.5957   19.4017 H   0  0  0  0  0  0
  -22.7349  -29.2348   19.8755 H   0  0  0  0  0  0
  -25.1270  -36.2003   25.0839 H   0  0  0  0  0  0
  -20.9952  -28.3296   24.1467 H   0  0  0  0  0  0
  -20.5742  -26.2307   23.3628 H   0  0  0  0  0  0
  -21.6656  -26.7523   22.1200 H   0  0  0  0  0  0
  -19.6949  -25.6340   21.1238 H   0  0  0  0  0  0
  -19.6726  -27.3269   20.6789 H   0  0  0  0  0  0
  -17.4217  -26.6756   21.3996 H   0  0  0  0  0  0
  -18.0299  -26.0081   22.8986 H   0  0  0  0  0  0
  -19.7920  -30.7282   24.2338 H   0  0  0  0  0  0
  -17.4998  -31.6279   24.5212 H   0  0  0  0  0  0
  -15.5351  -30.3031   23.7624 H   0  0  0  0  0  0
  -15.8659  -28.0877   22.7005 H   0  0  0  0  0  0
  -24.6099  -30.6707   25.7758 H   0  0  0  0  0  0
  -24.8709  -32.2616   26.4800 H   0  0  0  0  0  0
  -25.8160  -30.8853   27.0222 H   0  0  0  0  0  0
  -26.2777  -29.6826   24.1052 H   0  0  0  0  0  0
  -27.4194  -29.7244   25.4314 H   0  0  0  0  0  0
  -27.8544  -30.4446   23.8965 H   0  0  0  0  0  0
  -27.2815  -33.3594   26.1973 H   0  0  0  0  0  0
  -28.3932  -32.6638   25.0258 H   0  0  0  0  0  0
  -28.0692  -31.8325   26.5399 H   0  0  0  0  0  0
  -28.2587  -38.0123   24.7516 H   0  0  0  0  0  0
  -28.1077  -36.2656   24.6284 H   0  0  0  0  0  0
  -27.2283  -37.1445   25.8868 H   0  0  0  0  0  0
  -20.9318  -29.8712   21.6885 H   0  0  0  0  0  0
  -26.0194  -38.2892   24.1419 H   0  0  0  0  0  0
  -29.7034  -19.1517   22.3755 H   0  0  0  0  0  0
  -29.8016  -21.6339   22.3844 H   0  0  0  0  0  0
  -28.4833  -21.6552   21.2402 H   0  0  0  0  0  0
  -30.3578  -21.5880   17.5273 H   0  0  0  0  0  0
  -31.7694  -21.9794   18.4839 H   0  0  0  0  0  0
  -28.8917  -22.8102   18.9390 H   0  0  0  0  0  0
  -30.2761  -23.8275   18.6867 H   0  0  0  0  0  0
  -31.1916  -23.0113   20.9235 H   0  0  0  0  0  0
  -30.2843  -16.9133   22.6396 H   0  0  0  0  0  0
  -31.7735  -16.5494   21.8407 H   0  0  0  0  0  0
  -29.3496  -24.1265   22.3597 H   0  0  0  0  0  0
  -28.4396  -24.2942   20.8883 H   0  0  0  0  0  0
  -30.6826  -25.5366   20.0178 H   0  0  0  0  0  0
  -31.0435  -25.6463   21.7094 H   0  0  0  0  0  0
  -29.9150  -27.7001   20.9860 H   0  0  0  0  0  0
  -28.8240  -26.8331   22.0644 H   0  0  0  0  0  0
  -29.1348  -15.2922   21.4505 H   0  0  0  0  0  0
  1 25  1  0  0  0
  1 30  2  0  0  0
  1 85  1  0  0  0
  2  3  1  0  0  0
  2 25  1  0  0  0
  2 88  1  0  0  0
  2 89  1  0  0  0
  3  4  1  0  0  0
  3 90  1  0  0  0
  3 91  1  0  0  0
  4  5  1  0  0  0
  4 92  1  0  0  0
  4 93  1  0  0  0
  5  6  1  0  0  0
  5 26  1  0  0  0
  5 94  1  0  0  0
  6 25  1  0  0  0
  6 95  1  0  0  0
  6 96  1  0  0  0
  7  8  2  0  0  0
  7 26  1  0  0  0
  7 29  1  0  0  0
  8  9  1  0  0  0
  8 22  1  0  0  0
  9 10  1  0  0  0
  9 27  2  0  0  0
 10 11  2  0  0  0
 10 15  1  0  0  0
 11 12  1  0  0  0
 11 97  1  0  0  0
 12 13  2  0  0  0
 12 98  1  0  0  0
 13 14  1  0  0  0
 13 31  1  0  0  0
 14 15  2  0  0  0
 14 99  1  0  0  0
 15100  1  0  0  0
 16 17  2  0  0  0
 16 21  1  0  0  0
 16 31  1  0  0  0
 17 18  1  0  0  0
 17101  1  0  0  0
 18 19  2  0  0  0
 18102  1  0  0  0
 19 20  1  0  0  0
 19 24  1  0  0  0
 20 21  2  0  0  0
 20103  1  0  0  0
 21 23  1  0  0  0
 22 28  1  0  0  0
 22 32  2  0  0  0
 26 27  1  0  0  0
 28104  1  0  0  0
 28105  1  0  0  0
 29106  1  0  0  0
 29107  1  0  0  0
 33 34  1  0  0  0
 33 66  1  0  0  0
 33 70  2  0  0  0
 34 36  1  0  0  0
 34 59  1  0  0  0
 34108  1  0  0  0
 35 44  2  0  0  0
 35 45  1  0  0  0
 35 68  1  0  0  0
 36 56  1  0  0  0
 36109  1  0  0  0
 37 39  1  0  0  0
 37 47  1  0  0  0
 37 66  1  0  0  0
 37110  1  0  0  0
 38 43  2  0  0  0
 38 46  1  0  0  0
 38 47  1  0  0  0
 39 64  1  0  0  0
 39 67  2  0  0  0
 40 52  1  0  0  0
 40 53  2  0  0  0
 40 58  1  0  0  0
 41111  1  0  0  0
 41112  1  0  0  0
 41113  1  0  0  0
 41 48  1  0  0  0
 42 43  1  0  0  0
 42 66  1  0  0  0
 42114  1  0  0  0
 42115  1  0  0  0
 43 44  1  0  0  0
 44116  1  0  0  0
 45 46  2  0  0  0
 45117  1  0  0  0
 46118  1  0  0  0
 47119  1  0  0  0
 47120  1  0  0  0
 48 56  1  0  0  0
 48 65  1  0  0  0
 48121  1  0  0  0
 49 50  1  0  0  0
 49 53  1  0  0  0
 49 64  1  0  0  0
 49122  1  0  0  0
 50 51  1  0  0  0
 50123  1  0  0  0
 50124  1  0  0  0
 51 52  1  0  0  0
 51125  1  0  0  0
 51126  1  0  0  0
 52127  1  0  0  0
 52128  1  0  0  0
 53 54  1  0  0  0
 54 55  2  0  0  0
 54129  1  0  0  0
 55 57  1  0  0  0
 55130  1  0  0  0
 56 69  2  0  0  0
 57 58  2  0  0  0
 57131  1  0  0  0
 58132  1  0  0  0
 59 60  1  0  0  0
 59 61  1  0  0  0
 59 62  1  0  0  0
 60133  1  0  0  0
 60134  1  0  0  0
 60135  1  0  0  0
 61136  1  0  0  0
 61137  1  0  0  0
 61138  1  0  0  0
 62139  1  0  0  0
 62140  1  0  0  0
 62141  1  0  0  0
 63 65  1  0  0  0
 63142  1  0  0  0
 63143  1  0  0  0
 63144  1  0  0  0
 64145  1  0  0  0
 65146  1  0  0  0
 68 84  1  0  0  0
 71 72  2  0  0  0
 71 74  1  0  0  0
 71147  1  0  0  0
 72 73  1  0  0  0
 72 77  1  0  0  0
 73 76  2  0  0  0
 73 78  1  0  0  0
 74 75  2  0  0  0
 74 81  1  0  0  0
 75 76  1  0  0  0
 75 86  1  0  0  0
 76 87  1  0  0  0
 77 80  1  0  0  0
 77148  1  0  0  0
 77149  1  0  0  0
 78 79  1  0  0  0
 78150  1  0  0  0
 78151  1  0  0  0
 79 80  1  0  0  0
 79152  1  0  0  0
 79153  1  0  0  0
 80 82  1  0  0  0
 80154  1  0  0  0
 81 85  1  0  0  0
 81155  1  0  0  0
 81156  1  0  0  0
 82 83  1  0  0  0
 82157  1  0  0  0
 82158  1  0  0  0
 83 84  1  0  0  0
 83159  1  0  0  0
 83160  1  0  0  0
 84161  1  0  0  0
 84162  1  0  0  0
 85163  1  0  0  0
M  ISO  4   1 100  68 101  84 101  85 100
M  END
> <chiral flag>
0

> <version>
0

> <s_m_source_file>
/data/baiqing/PycharmProjects/Reinvent-master-3.2/result/LINK_invent/BTK/process_docking_weight1_custom_sum_contain_oxygen_bond_distance_aromatic_linkinvent_7_9_3/rearranged_h_0027.sdf

> <i_m_source_file_index>
29

> <r_mmod_Potential_Energy-OPLS-2005>
-28.8526782989502

> <r_mmod_Stretch_Energy-OPLS-2005>
35.402946472168

> <r_mmod_Bend_Energy-OPLS-2005>
99.032096862793

> <r_mmod_Torsional_Energy-OPLS-2005>
215.385009765625

> <r_mmod_Improper_Torsional_Energy-OPLS-2005>
2.85824108123779

> <r_mmod_Van_der_Waal_Energy-OPLS-2005>
158.110397338867

> <r_mmod_Electrostatic_Energy-OPLS-2005>
-342.09423828125

> <r_mmod_Solvation_Energy-OPLS-2005>
-208.800933837891

> <b_mmod_Minimization_Converged-OPLS-2005>
0

> <r_mmod_RMS_Derivative-OPLS-2005>
2.82502269744873

$$$$
29
                    3D
 Structure written by MMmdl.
165174  0  0  1  0            999 V2000
  -30.8525  -14.3172   20.7566 C   0  0  0  0  0  0
  -30.3898  -12.3185   19.3690 C   0  0  0  0  0  0
  -29.4667  -12.5828   18.1720 C   0  0  0  0  0  0
  -27.9883  -12.4878   18.5672 C   0  0  0  0  0  0
  -27.6614  -13.2517   19.8780 C   0  0  2  0  0  0
  -28.7060  -13.0421   20.9956 C   0  0  0  0  0  0
  -25.2533  -13.8296   20.5554 C   0  0  0  0  0  0
  -24.1833  -13.0520   20.9128 C   0  0  0  0  0  0
  -24.6445  -11.7019   20.8773 C   0  0  0  0  0  0
  -23.9032  -10.4410   21.0377 C   0  0  0  0  0  0
  -24.3626   -9.4345   21.9144 C   0  0  0  0  0  0
  -23.6331   -8.2359   22.0748 C   0  0  0  0  0  0
  -22.4277   -8.0382   21.3572 C   0  0  0  0  0  0
  -21.9914   -9.0339   20.4622 C   0  0  0  0  0  0
  -22.7211  -10.2250   20.2989 C   0  0  0  0  0  0
  -21.6906   -6.0801   22.5294 C   0  0  0  0  0  0
  -21.4013   -6.5651   23.8227 C   0  0  0  0  0  0
  -21.3635   -5.6793   24.9183 C   0  0  0  0  0  0
  -21.6037   -4.3051   24.7254 C   0  0  0  0  0  0
  -21.8832   -3.8157   23.4381 C   0  0  0  0  0  0
  -21.9214   -4.7006   22.3425 C   0  0  0  0  0  0
  -22.7825  -13.5317   21.1772 C   0  0  0  0  0  0
  -22.1669   -4.2164   21.1014 F   0  0  0  0  0  0
  -21.5614   -3.4516   25.7766 F   0  0  0  0  0  0
  -30.0526  -13.2657   20.4367 N   0  0  0  0  0  0
  -26.3049  -12.9541   20.3378 N   0  0  0  0  0  0
  -25.9415  -11.6660   20.5939 N   0  0  0  0  0  0
  -22.0429  -12.8363   22.0358 N   0  0  0  0  0  0
  -25.4192  -15.2018   20.3796 N   0  0  0  0  0  0
  -31.7341  -14.7653   20.0173 O   0  0  0  0  0  0
  -21.6643   -6.8974   21.4268 O   0  0  0  0  0  0
  -22.3553  -14.5632   20.6655 O   0  0  0  0  0  0
  -24.6168  -31.8726   23.2168 C   0  0  0  0  0  0
  -25.9063  -32.4834   23.8443 C   0  0  1  0  0  0
  -27.1872  -27.3881   20.0979 C   0  0  0  0  0  0
  -25.5913  -33.8640   24.2356 N   0  0  0  0  0  0
  -23.4015  -30.5075   21.5587 C   0  0  2  0  0  0
  -24.8424  -28.9915   20.1007 C   0  0  0  0  0  0
  -22.7433  -29.4701   22.4984 C   0  0  0  0  0  0
  -18.0292  -28.1374   22.8514 C   0  0  0  0  0  0
  -24.1497  -36.7320   23.2633 C   0  0  0  0  0  0
  -25.9395  -30.8188   21.3862 C   0  0  0  0  0  0
  -26.0058  -29.4605   20.7179 C   0  0  0  0  0  0
  -27.1860  -28.6663   20.7224 C   0  0  0  0  0  0
  -26.0209  -27.0022   19.3939 C   0  0  0  0  0  0
  -24.8480  -27.7649   19.4286 C   0  0  0  0  0  0
  -23.6071  -29.8606   20.1671 C   0  0  0  0  0  0
  -25.4113  -36.3129   24.0337 C   0  0  1  0  0  0
  -20.5881  -28.3665   23.1315 C   0  0  2  0  0  0
  -20.6778  -26.9399   22.5402 C   0  0  0  0  0  0
  -19.5747  -26.6384   21.5218 C   0  0  0  0  0  0
  -18.1932  -26.7923   22.1644 C   0  0  0  0  0  0
  -19.1538  -28.8836   23.2912 C   0  0  0  0  0  0
  -18.9463  -30.1451   23.8902 C   0  0  0  0  0  0
  -17.6461  -30.6571   24.0575 C   0  0  0  0  0  0
  -25.9043  -34.9493   23.5128 C   0  0  0  0  0  0
  -16.5352  -29.9067   23.6333 C   0  0  0  0  0  0
  -16.7282  -28.6489   23.0351 C   0  0  0  0  0  0
  -26.4478  -31.6609   25.0771 C   0  0  0  0  0  0
  -25.3730  -31.3708   26.1505 C   0  0  0  0  0  0
  -27.0311  -30.3040   24.6183 C   0  0  0  0  0  0
  -27.6062  -32.4330   25.7511 C   0  0  0  0  0  0
  -27.5587  -37.1820   24.8467 C   0  0  0  0  0  0
  -21.4168  -29.3046   22.3729 N   0  0  0  0  0  0
  -26.4313  -37.3797   23.9400 N   0  0  0  0  0  0
  -24.6688  -31.0826   22.1064 N   0  0  0  0  0  0
  -23.4226  -28.8228   23.3012 O   0  0  0  0  0  0
  -28.2807  -26.5305   20.2076 O   0  0  0  0  0  0
  -26.5614  -34.8933   22.4706 O   0  0  0  0  0  0
  -23.5373  -32.1501   23.7536 O   0  0  0  0  0  0
  -29.5152  -17.9515   23.1978 C   0  0  0  0  0  0
  -29.2571  -18.4003   20.5123 C   0  0  0  0  0  0
  -29.0191  -19.1962   22.7904 C   0  0  0  0  0  0
  -28.9226  -19.4384   21.4035 C   0  0  0  0  0  0
  -29.9556  -17.0222   22.2375 C   0  0  0  0  0  0
  -28.6658  -20.2429   23.8336 C   0  0  0  0  0  0
  -28.5313  -20.8105   20.8702 C   0  0  0  0  0  0
  -28.5608  -21.6761   23.2754 C   0  0  0  0  0  0
  -27.8303  -21.6909   21.9239 C   0  0  1  0  0  0
  -31.6878  -13.6335   22.8314 C   0  0  0  0  0  0
  -30.8798  -15.8990   22.7089 C   0  0  0  0  0  0
  -28.5011  -24.1099   21.1954 C   0  0  0  0  0  0
  -27.9951  -25.0986   20.0930 C   0  0  0  0  0  0
  -29.7821  -17.2173   20.9110 N   0  0  0  0  0  0
  -30.8486  -14.5714   22.0747 N   0  0  0  0  0  0
  -27.4653  -23.0494   21.4358 N   0  3  0  0  0  0
  -31.4378  -12.3882   19.0804 H   0  0  0  0  0  0
  -30.2402  -11.3076   19.7456 H   0  0  0  0  0  0
  -29.6858  -11.8879   17.3605 H   0  0  0  0  0  0
  -29.6465  -13.5832   17.7777 H   0  0  0  0  0  0
  -27.6949  -11.4427   18.6188 H   0  0  0  0  0  0
  -27.3844  -12.9076   17.7659 H   0  0  0  0  0  0
  -27.6953  -14.3117   19.6142 H   0  0  0  0  0  0
  -28.6495  -12.0414   21.4305 H   0  0  0  0  0  0
  -28.4678  -13.7384   21.8020 H   0  0  0  0  0  0
  -25.2832   -9.5943   22.4648 H   0  0  0  0  0  0
  -24.0108   -7.4842   22.7510 H   0  0  0  0  0  0
  -21.0797   -8.8797   19.8963 H   0  0  0  0  0  0
  -22.3622  -10.9727   19.6064 H   0  0  0  0  0  0
  -21.1952   -7.6137   23.9763 H   0  0  0  0  0  0
  -21.1400   -6.0489   25.9095 H   0  0  0  0  0  0
  -22.0624   -2.7613   23.2867 H   0  0  0  0  0  0
  -22.3961  -11.9997   22.4691 H   0  0  0  0  0  0
  -21.1076  -13.1450   22.2517 H   0  0  0  0  0  0
  -24.6550  -15.8583   20.4730 H   0  0  0  0  0  0
  -26.2798  -15.6337   20.0654 H   0  0  0  0  0  0
  -26.7119  -32.5546   23.1204 H   0  0  0  0  0  0
  -25.0058  -33.9797   25.0488 H   0  0  0  0  0  0
  -22.6864  -31.3239   21.4352 H   0  0  0  0  0  0
  -23.3760  -35.9654   23.3331 H   0  0  0  0  0  0
  -24.3587  -36.8900   22.2040 H   0  0  0  0  0  0
  -23.7254  -37.6536   23.6628 H   0  0  0  0  0  0
  -26.0720  -31.5928   20.6309 H   0  0  0  0  0  0
  -26.8186  -30.8552   22.0163 H   0  0  0  0  0  0
  -28.0720  -29.0093   21.2353 H   0  0  0  0  0  0
  -25.9603  -26.0969   18.8050 H   0  0  0  0  0  0
  -23.9664  -27.4160   18.9129 H   0  0  0  0  0  0
  -23.7143  -30.6453   19.4176 H   0  0  0  0  0  0
  -22.7227  -29.2945   19.8715 H   0  0  0  0  0  0
  -25.1291  -36.1998   25.0829 H   0  0  0  0  0  0
  -20.9992  -28.3211   24.1436 H   0  0  0  0  0  0
  -20.5688  -26.2271   23.3593 H   0  0  0  0  0  0
  -21.6646  -26.7445   22.1183 H   0  0  0  0  0  0
  -19.6900  -25.6299   21.1239 H   0  0  0  0  0  0
  -19.6660  -27.3211   20.6763 H   0  0  0  0  0  0
  -17.4191  -26.6696   21.4045 H   0  0  0  0  0  0
  -18.0326  -26.0041   22.9018 H   0  0  0  0  0  0
  -19.7924  -30.7295   24.2251 H   0  0  0  0  0  0
  -17.4995  -31.6259   24.5179 H   0  0  0  0  0  0
  -15.5341  -30.2972   23.7644 H   0  0  0  0  0  0
  -15.8694  -28.0819   22.7041 H   0  0  0  0  0  0
  -24.5898  -30.7068   25.7822 H   0  0  0  0  0  0
  -24.8931  -32.2864   26.4988 H   0  0  0  0  0  0
  -25.8076  -30.8833   27.0246 H   0  0  0  0  0  0
  -26.2877  -29.6804   24.1205 H   0  0  0  0  0  0
  -27.4023  -29.7273   25.4670 H   0  0  0  0  0  0
  -27.8757  -30.4346   23.9410 H   0  0  0  0  0  0
  -27.2693  -33.3617   26.2144 H   0  0  0  0  0  0
  -28.3843  -32.6922   25.0307 H   0  0  0  0  0  0
  -28.0788  -31.8421   26.5382 H   0  0  0  0  0  0
  -28.2623  -38.0099   24.7502 H   0  0  0  0  0  0
  -28.1068  -36.2631   24.6329 H   0  0  0  0  0  0
  -27.2300  -37.1501   25.8869 H   0  0  0  0  0  0
  -20.9300  -29.8773   21.6966 H   0  0  0  0  0  0
  -26.0216  -38.2891   24.1366 H   0  0  0  0  0  0
  -29.6443  -17.7591   24.2556 H   0  0  0  0  0  0
  -29.1660  -18.5497   19.4464 H   0  0  0  0  0  0
  -29.4080  -20.2055   24.6347 H   0  0  0  0  0  0
  -27.7141  -19.9393   24.2764 H   0  0  0  0  0  0
  -27.8981  -20.6837   19.9914 H   0  0  0  0  0  0
  -29.4486  -21.2802   20.5196 H   0  0  0  0  0  0
  -29.5545  -22.1034   23.1500 H   0  0  0  0  0  0
  -28.0483  -22.3009   24.0039 H   0  0  0  0  0  0
  -26.8685  -21.2070   22.1020 H   0  0  0  0  0  0
  -31.9129  -13.9604   23.8466 H   0  0  0  0  0  0
  -32.6569  -13.4962   22.3414 H   0  0  0  0  0  0
  -31.2136  -12.6619   22.8759 H   0  0  0  0  0  0
  -30.6407  -15.7388   23.7624 H   0  0  0  0  0  0
  -31.8994  -16.2870   22.6925 H   0  0  0  0  0  0
  -28.6644  -24.6389   22.1357 H   0  0  0  0  0  0
  -29.4629  -23.6776   20.9094 H   0  0  0  0  0  0
  -26.9259  -24.9219   20.1337 H   0  0  0  0  0  0
  -28.3048  -24.7476   19.1079 H   0  0  0  0  0  0
  -26.7842  -23.4243   22.0789 H   0  0  0  0  0  0
  -26.9681  -22.8987   20.5702 H   0  0  0  0  0  0
  1 25  1  0  0  0
  1 30  2  0  0  0
  1 85  1  0  0  0
  2  3  1  0  0  0
  2 25  1  0  0  0
  2 87  1  0  0  0
  2 88  1  0  0  0
  3  4  1  0  0  0
  3 89  1  0  0  0
  3 90  1  0  0  0
  4  5  1  0  0  0
  4 91  1  0  0  0
  4 92  1  0  0  0
  5  6  1  0  0  0
  5 26  1  0  0  0
  5 93  1  0  0  0
  6 25  1  0  0  0
  6 94  1  0  0  0
  6 95  1  0  0  0
  7  8  2  0  0  0
  7 26  1  0  0  0
  7 29  1  0  0  0
  8  9  1  0  0  0
  8 22  1  0  0  0
  9 10  1  0  0  0
  9 27  2  0  0  0
 10 11  2  0  0  0
 10 15  1  0  0  0
 11 12  1  0  0  0
 11 96  1  0  0  0
 12 13  2  0  0  0
 12 97  1  0  0  0
 13 14  1  0  0  0
 13 31  1  0  0  0
 14 15  2  0  0  0
 14 98  1  0  0  0
 15 99  1  0  0  0
 16 17  2  0  0  0
 16 21  1  0  0  0
 16 31  1  0  0  0
 17 18  1  0  0  0
 17100  1  0  0  0
 18 19  2  0  0  0
 18101  1  0  0  0
 19 20  1  0  0  0
 19 24  1  0  0  0
 20 21  2  0  0  0
 20102  1  0  0  0
 21 23  1  0  0  0
 22 28  1  0  0  0
 22 32  2  0  0  0
 26 27  1  0  0  0
 28103  1  0  0  0
 28104  1  0  0  0
 29105  1  0  0  0
 29106  1  0  0  0
 33 34  1  0  0  0
 33 66  1  0  0  0
 33 70  2  0  0  0
 34 36  1  0  0  0
 34 59  1  0  0  0
 34107  1  0  0  0
 35 44  2  0  0  0
 35 45  1  0  0  0
 35 68  1  0  0  0
 36 56  1  0  0  0
 36108  1  0  0  0
 37 39  1  0  0  0
 37 47  1  0  0  0
 37 66  1  0  0  0
 37109  1  0  0  0
 38 43  2  0  0  0
 38 46  1  0  0  0
 38 47  1  0  0  0
 39 64  1  0  0  0
 39 67  2  0  0  0
 40 52  1  0  0  0
 40 53  2  0  0  0
 40 58  1  0  0  0
 41110  1  0  0  0
 41111  1  0  0  0
 41112  1  0  0  0
 41 48  1  0  0  0
 42 43  1  0  0  0
 42 66  1  0  0  0
 42113  1  0  0  0
 42114  1  0  0  0
 43 44  1  0  0  0
 44115  1  0  0  0
 45 46  2  0  0  0
 45116  1  0  0  0
 46117  1  0  0  0
 47118  1  0  0  0
 47119  1  0  0  0
 48 56  1  0  0  0
 48 65  1  0  0  0
 48120  1  0  0  0
 49 50  1  0  0  0
 49 53  1  0  0  0
 49 64  1  0  0  0
 49121  1  0  0  0
 50 51  1  0  0  0
 50122  1  0  0  0
 50123  1  0  0  0
 51 52  1  0  0  0
 51124  1  0  0  0
 51125  1  0  0  0
 52126  1  0  0  0
 52127  1  0  0  0
 53 54  1  0  0  0
 54 55  2  0  0  0
 54128  1  0  0  0
 55 57  1  0  0  0
 55129  1  0  0  0
 56 69  2  0  0  0
 57 58  2  0  0  0
 57130  1  0  0  0
 58131  1  0  0  0
 59 60  1  0  0  0
 59 61  1  0  0  0
 59 62  1  0  0  0
 60132  1  0  0  0
 60133  1  0  0  0
 60134  1  0  0  0
 61135  1  0  0  0
 61136  1  0  0  0
 61137  1  0  0  0
 62138  1  0  0  0
 62139  1  0  0  0
 62140  1  0  0  0
 63 65  1  0  0  0
 63141  1  0  0  0
 63142  1  0  0  0
 63143  1  0  0  0
 64144  1  0  0  0
 65145  1  0  0  0
 68 83  1  0  0  0
 71 73  2  0  0  0
 71 75  1  0  0  0
 71146  1  0  0  0
 72 74  2  0  0  0
 72 84  1  0  0  0
 72147  1  0  0  0
 73 74  1  0  0  0
 73 76  1  0  0  0
 74 77  1  0  0  0
 75 81  1  0  0  0
 75 84  2  0  0  0
 76 78  1  0  0  0
 76148  1  0  0  0
 76149  1  0  0  0
 77 79  1  0  0  0
 77150  1  0  0  0
 77151  1  0  0  0
 78 79  1  0  0  0
 78152  1  0  0  0
 78153  1  0  0  0
 79 86  1  0  0  0
 79154  1  0  0  0
 80 85  1  0  0  0
 80155  1  0  0  0
 80156  1  0  0  0
 80157  1  0  0  0
 81 85  1  0  0  0
 81158  1  0  0  0
 81159  1  0  0  0
 82 83  1  0  0  0
 82 86  1  0  0  0
 82160  1  0  0  0
 82161  1  0  0  0
 83162  1  0  0  0
 83163  1  0  0  0
 86164  1  0  0  0
 86165  1  0  0  0
M  CHG  1  86   1
M  ISO  4   1 100  68 101  83 101  85 100
M  END
> <chiral flag>
0

> <version>
0

> <s_m_source_file>
/data/baiqing/PycharmProjects/Reinvent-master-3.2/result/LINK_invent/BTK/process_docking_weight1_custom_sum_contain_oxygen_bond_distance_aromatic_linkinvent_7_9_3/rearranged_h_0027.sdf

> <i_m_source_file_index>
30

> <r_mmod_Potential_Energy-OPLS-2005>
-188.186981201172

> <r_mmod_Stretch_Energy-OPLS-2005>
43.3414459228516

> <r_mmod_Bend_Energy-OPLS-2005>
132.892242431641

> <r_mmod_Torsional_Energy-OPLS-2005>
309.202575683594

> <r_mmod_Improper_Torsional_Energy-OPLS-2005>
14.2720928192139

> <r_mmod_Van_der_Waal_Energy-OPLS-2005>
177.205429077148

> <r_mmod_Electrostatic_Energy-OPLS-2005>
-429.24560546875

> <r_mmod_Solvation_Energy-OPLS-2005>
-465.216827392578

> <b_mmod_Minimization_Converged-OPLS-2005>
0

> <r_mmod_RMS_Derivative-OPLS-2005>
9.0733003616333

$$$$
30
                    3D
 Structure written by MMmdl.
173183  0  0  1  0            999 V2000
  -30.8124  -14.2908   20.7452 C   0  0  0  0  0  0
  -30.4074  -12.2839   19.3711 C   0  0  0  0  0  0
  -29.4698  -12.5371   18.1800 C   0  0  0  0  0  0
  -28.0008  -12.3765   18.6066 C   0  0  0  0  0  0
  -27.6640  -13.1998   19.8748 C   0  0  2  0  0  0
  -28.7005  -12.9453   20.9903 C   0  0  0  0  0  0
  -25.2606  -13.8155   20.5664 C   0  0  0  0  0  0
  -24.1846  -13.0443   20.9156 C   0  0  0  0  0  0
  -24.6391  -11.6904   20.8718 C   0  0  0  0  0  0
  -23.9059  -10.4293   21.0398 C   0  0  0  0  0  0
  -24.3610   -9.4214   21.9180 C   0  0  0  0  0  0
  -23.6286   -8.2249   22.0762 C   0  0  0  0  0  0
  -22.4270   -8.0283   21.3550 C   0  0  0  0  0  0
  -21.9897   -9.0253   20.4656 C   0  0  0  0  0  0
  -22.7224  -10.2136   20.3056 C   0  0  0  0  0  0
  -21.6859   -6.0733   22.5284 C   0  0  0  0  0  0
  -21.4015   -6.5639   23.8218 C   0  0  0  0  0  0
  -21.3655   -5.6791   24.9179 C   0  0  0  0  0  0
  -21.6045   -4.3058   24.7228 C   0  0  0  0  0  0
  -21.8816   -3.8150   23.4349 C   0  0  0  0  0  0
  -21.9191   -4.6962   22.3403 C   0  0  0  0  0  0
  -22.7873  -13.5254   21.1834 C   0  0  0  0  0  0
  -22.1661   -4.2149   21.0984 F   0  0  0  0  0  0
  -21.5625   -3.4541   25.7737 F   0  0  0  0  0  0
  -30.0509  -13.2093   20.4554 N   0  0  0  0  0  0
  -26.3037  -12.9313   20.3358 N   0  0  0  0  0  0
  -25.9313  -11.6472   20.5747 N   0  0  0  0  0  0
  -22.0522  -12.8237   22.0389 N   0  0  0  0  0  0
  -25.4349  -15.1872   20.4080 N   0  0  0  0  0  0
  -31.7574  -14.6742   20.0461 O   0  0  0  0  0  0
  -21.6644   -6.8879   21.4249 O   0  0  0  0  0  0
  -22.3552  -14.5570   20.6703 O   0  0  0  0  0  0
  -24.6109  -31.8688   23.2120 C   0  0  0  0  0  0
  -25.9000  -32.4838   23.8400 C   0  0  1  0  0  0
  -27.2277  -27.4480   20.0915 C   0  0  0  0  0  0
  -25.5870  -33.8633   24.2328 N   0  0  0  0  0  0
  -23.3976  -30.4940   21.5527 C   0  0  2  0  0  0
  -24.8401  -28.9661   20.1118 C   0  0  0  0  0  0
  -22.7402  -29.4664   22.5002 C   0  0  0  0  0  0
  -18.0270  -28.1363   22.8486 C   0  0  0  0  0  0
  -24.1484  -36.7312   23.2648 C   0  0  0  0  0  0
  -25.9252  -30.8388   21.3640 C   0  0  0  0  0  0
  -26.0006  -29.4763   20.7073 C   0  0  0  0  0  0
  -27.1963  -28.7256   20.6916 C   0  0  0  0  0  0
  -26.0507  -26.9549   19.4810 C   0  0  0  0  0  0
  -24.8604  -27.7042   19.4958 C   0  0  0  0  0  0
  -23.6011  -29.8284   20.1663 C   0  0  0  0  0  0
  -25.4104  -36.3122   24.0346 C   0  0  1  0  0  0
  -20.5860  -28.3642   23.1321 C   0  0  2  0  0  0
  -20.6763  -26.9376   22.5425 C   0  0  0  0  0  0
  -19.5755  -26.6360   21.5213 C   0  0  0  0  0  0
  -18.1916  -26.7911   22.1602 C   0  0  0  0  0  0
  -19.1521  -28.8816   23.2905 C   0  0  0  0  0  0
  -18.9462  -30.1429   23.8907 C   0  0  0  0  0  0
  -17.6468  -30.6576   24.0563 C   0  0  0  0  0  0
  -25.9026  -34.9486   23.5130 C   0  0  0  0  0  0
  -16.5354  -29.9076   23.6340 C   0  0  0  0  0  0
  -16.7258  -28.6496   23.0342 C   0  0  0  0  0  0
  -26.4438  -31.6617   25.0730 C   0  0  0  0  0  0
  -25.3727  -31.3709   26.1512 C   0  0  0  0  0  0
  -27.0266  -30.3068   24.6073 C   0  0  0  0  0  0
  -27.6031  -32.4344   25.7459 C   0  0  0  0  0  0
  -27.5591  -37.1800   24.8471 C   0  0  0  0  0  0
  -21.4135  -29.3023   22.3748 N   0  0  0  0  0  0
  -26.4295  -37.3799   23.9419 N   0  0  0  0  0  0
  -24.6629  -31.0811   22.1012 N   0  0  0  0  0  0
  -23.4192  -28.8211   23.3030 O   0  0  0  0  0  0
  -28.3997  -26.7197   20.1326 O   0  0  0  0  0  0
  -26.5605  -34.8932   22.4706 O   0  0  0  0  0  0
  -23.5310  -32.1421   23.7532 O   0  0  0  0  0  0
  -29.9234  -20.0656   26.0242 C   0  0  0  0  0  0
  -29.4928  -20.0309   23.2410 C   0  0  0  0  0  0
  -29.6059  -23.4131   24.6280 C   0  0  0  0  0  0
  -29.7922  -21.2974   25.3435 C   0  0  0  0  0  0
  -29.6479  -18.8166   23.9413 C   0  0  0  0  0  0
  -29.8302  -22.6681   25.7566 C   0  0  0  0  0  0
  -29.5667  -21.2571   23.9352 C   0  0  0  0  0  0
  -29.8540  -18.8411   25.3369 C   0  0  0  0  0  0
  -27.6844  -23.5058   22.0503 C   0  0  0  0  0  0
  -30.1602  -24.0946   21.6448 C   0  0  0  0  0  0
  -27.5513  -24.9812   21.6444 C   0  0  0  0  0  0
  -29.7043  -24.6666   20.2875 C   0  0  0  0  0  0
  -29.1545  -23.0376   22.1653 C   0  0  1  0  0  0
  -28.2914  -25.2998   20.3204 C   0  0  2  0  0  0
  -30.0568  -23.1807   27.1463 C   0  0  0  0  0  0
  -29.6404  -17.4911   23.1964 C   0  0  0  0  0  0
  -31.0154  -17.1880   22.5694 C   0  0  0  0  0  0
  -31.4558  -15.7195   22.6819 C   0  0  0  0  0  0
  -29.4537  -22.5816   23.5210 N   0  0  0  0  0  0
  -30.5799  -14.8037   21.9591 N   0  0  0  0  0  0
  -30.0002  -17.6858   26.0265 F   0  0  0  0  0  0
  -31.4492  -12.3864   19.0612 H   0  0  0  0  0  0
  -30.3046  -11.2559   19.7209 H   0  0  0  0  0  0
  -29.7001  -11.8511   17.3641 H   0  0  0  0  0  0
  -29.6325  -13.5434   17.7903 H   0  0  0  0  0  0
  -27.8188  -11.3163   18.7917 H   0  0  0  0  0  0
  -27.3382  -12.6591   17.7875 H   0  0  0  0  0  0
  -27.7241  -14.2532   19.6004 H   0  0  0  0  0  0
  -28.6489  -11.9112   21.3323 H   0  0  0  0  0  0
  -28.4441  -13.5537   21.8578 H   0  0  0  0  0  0
  -25.2759   -9.5693   22.4746 H   0  0  0  0  0  0
  -24.0007   -7.4640   22.7484 H   0  0  0  0  0  0
  -21.0829   -8.8767   19.8960 H   0  0  0  0  0  0
  -22.3684  -10.9670   19.6162 H   0  0  0  0  0  0
  -21.2015   -7.6147   23.9725 H   0  0  0  0  0  0
  -21.1475   -6.0521   25.9083 H   0  0  0  0  0  0
  -22.0598   -2.7607   23.2853 H   0  0  0  0  0  0
  -22.4122  -11.9877   22.4740 H   0  0  0  0  0  0
  -21.1157  -13.1285   22.2653 H   0  0  0  0  0  0
  -24.6733  -15.8478   20.5226 H   0  0  0  0  0  0
  -26.2987  -15.6241   20.1103 H   0  0  0  0  0  0
  -26.7076  -32.5537   23.1161 H   0  0  0  0  0  0
  -25.0063  -33.9807   25.0507 H   0  0  0  0  0  0
  -22.6845  -31.3108   21.4162 H   0  0  0  0  0  0
  -23.3758  -35.9636   23.3319 H   0  0  0  0  0  0
  -24.3583  -36.8911   22.2065 H   0  0  0  0  0  0
  -23.7222  -37.6514   23.6647 H   0  0  0  0  0  0
  -26.0388  -31.6068   20.5972 H   0  0  0  0  0  0
  -26.8133  -30.8846   21.9838 H   0  0  0  0  0  0
  -28.0907  -29.1120   21.1599 H   0  0  0  0  0  0
  -26.0309  -25.9943   18.9890 H   0  0  0  0  0  0
  -23.9688  -27.3066   19.0293 H   0  0  0  0  0  0
  -23.7007  -30.6042   19.4065 H   0  0  0  0  0  0
  -22.7255  -29.2467   19.8735 H   0  0  0  0  0  0
  -25.1267  -36.1993   25.0833 H   0  0  0  0  0  0
  -20.9949  -28.3197   24.1443 H   0  0  0  0  0  0
  -20.5646  -26.2248   23.3606 H   0  0  0  0  0  0
  -21.6634  -26.7396   22.1235 H   0  0  0  0  0  0
  -19.6925  -25.6274   21.1234 H   0  0  0  0  0  0
  -19.6714  -27.3192   20.6757 H   0  0  0  0  0  0
  -17.4202  -26.6690   21.3984 H   0  0  0  0  0  0
  -18.0296  -26.0020   22.8952 H   0  0  0  0  0  0
  -19.7944  -30.7242   24.2263 H   0  0  0  0  0  0
  -17.5025  -31.6258   24.5157 H   0  0  0  0  0  0
  -15.5361  -30.2983   23.7649 H   0  0  0  0  0  0
  -15.8654  -28.0825   22.7037 H   0  0  0  0  0  0
  -24.5986  -30.6911   25.7921 H   0  0  0  0  0  0
  -24.8818  -32.2849   26.4866 H   0  0  0  0  0  0
  -25.8142  -30.9037   27.0323 H   0  0  0  0  0  0
  -26.2791  -29.6846   24.1149 H   0  0  0  0  0  0
  -27.4090  -29.7268   25.4478 H   0  0  0  0  0  0
  -27.8580  -30.4404   23.9153 H   0  0  0  0  0  0
  -27.2659  -33.3645   26.2026 H   0  0  0  0  0  0
  -28.3813  -32.6902   25.0261 H   0  0  0  0  0  0
  -28.0716  -31.8490   26.5370 H   0  0  0  0  0  0
  -28.2614  -38.0096   24.7513 H   0  0  0  0  0  0
  -28.1075  -36.2621   24.6276 H   0  0  0  0  0  0
  -27.2322  -37.1447   25.8883 H   0  0  0  0  0  0
  -20.9285  -29.8751   21.6984 H   0  0  0  0  0  0
  -26.0196  -38.2877   24.1433 H   0  0  0  0  0  0
  -30.0847  -20.0640   27.0917 H   0  0  0  0  0  0
  -29.3314  -20.0178   22.1739 H   0  0  0  0  0  0
  -29.5314  -24.4874   24.5246 H   0  0  0  0  0  0
  -27.1715  -22.8910   21.3083 H   0  0  0  0  0  0
  -27.1447  -23.3357   22.9835 H   0  0  0  0  0  0
  -30.2771  -24.9160   22.3517 H   0  0  0  0  0  0
  -31.1482  -23.6417   21.5425 H   0  0  0  0  0  0
  -27.9479  -25.6085   22.4445 H   0  0  0  0  0  0
  -26.4940  -25.2316   21.5650 H   0  0  0  0  0  0
  -29.7007  -23.8480   19.5656 H   0  0  0  0  0  0
  -30.4342  -25.3830   19.9094 H   0  0  0  0  0  0
  -29.2575  -22.1737   21.5088 H   0  0  0  0  0  0
  -27.7452  -24.8606   19.4857 H   0  0  0  0  0  0
  -30.0104  -24.2695   27.1896 H   0  0  0  0  0  0
  -31.0353  -22.8800   27.5215 H   0  0  0  0  0  0
  -29.3095  -22.7909   27.8376 H   0  0  0  0  0  0
  -28.8654  -17.4997   22.4284 H   0  0  0  0  0  0
  -29.3530  -16.6999   23.8900 H   0  0  0  0  0  0
  -31.7767  -17.7782   23.0815 H   0  0  0  0  0  0
  -31.0388  -17.5252   21.5321 H   0  0  0  0  0  0
  -31.4695  -15.4186   23.7312 H   0  0  0  0  0  0
  -32.4857  -15.6155   22.3329 H   0  0  0  0  0  0
  -29.8223  -14.3828   22.4763 H   0  0  0  0  0  0
  1 25  1  0  0  0
  1 30  2  0  0  0
  1 90  1  0  0  0
  2  3  1  0  0  0
  2 25  1  0  0  0
  2 92  1  0  0  0
  2 93  1  0  0  0
  3  4  1  0  0  0
  3 94  1  0  0  0
  3 95  1  0  0  0
  4  5  1  0  0  0
  4 96  1  0  0  0
  4 97  1  0  0  0
  5  6  1  0  0  0
  5 26  1  0  0  0
  5 98  1  0  0  0
  6 25  1  0  0  0
  6 99  1  0  0  0
  6100  1  0  0  0
  7  8  2  0  0  0
  7 26  1  0  0  0
  7 29  1  0  0  0
  8  9  1  0  0  0
  8 22  1  0  0  0
  9 10  1  0  0  0
  9 27  2  0  0  0
 10 11  2  0  0  0
 10 15  1  0  0  0
 11 12  1  0  0  0
 11101  1  0  0  0
 12 13  2  0  0  0
 12102  1  0  0  0
 13 14  1  0  0  0
 13 31  1  0  0  0
 14 15  2  0  0  0
 14103  1  0  0  0
 15104  1  0  0  0
 16 17  2  0  0  0
 16 21  1  0  0  0
 16 31  1  0  0  0
 17 18  1  0  0  0
 17105  1  0  0  0
 18 19  2  0  0  0
 18106  1  0  0  0
 19 20  1  0  0  0
 19 24  1  0  0  0
 20 21  2  0  0  0
 20107  1  0  0  0
 21 23  1  0  0  0
 22 28  1  0  0  0
 22 32  2  0  0  0
 26 27  1  0  0  0
 28108  1  0  0  0
 28109  1  0  0  0
 29110  1  0  0  0
 29111  1  0  0  0
 33 34  1  0  0  0
 33 66  1  0  0  0
 33 70  2  0  0  0
 34 36  1  0  0  0
 34 59  1  0  0  0
 34112  1  0  0  0
 35 44  2  0  0  0
 35 45  1  0  0  0
 35 68  1  0  0  0
 36 56  1  0  0  0
 36113  1  0  0  0
 37 39  1  0  0  0
 37 47  1  0  0  0
 37 66  1  0  0  0
 37114  1  0  0  0
 38 43  2  0  0  0
 38 46  1  0  0  0
 38 47  1  0  0  0
 39 64  1  0  0  0
 39 67  2  0  0  0
 40 52  1  0  0  0
 40 53  2  0  0  0
 40 58  1  0  0  0
 41115  1  0  0  0
 41116  1  0  0  0
 41117  1  0  0  0
 41 48  1  0  0  0
 42 43  1  0  0  0
 42 66  1  0  0  0
 42118  1  0  0  0
 42119  1  0  0  0
 43 44  1  0  0  0
 44120  1  0  0  0
 45 46  2  0  0  0
 45121  1  0  0  0
 46122  1  0  0  0
 47123  1  0  0  0
 47124  1  0  0  0
 48 56  1  0  0  0
 48 65  1  0  0  0
 48125  1  0  0  0
 49 50  1  0  0  0
 49 53  1  0  0  0
 49 64  1  0  0  0
 49126  1  0  0  0
 50 51  1  0  0  0
 50127  1  0  0  0
 50128  1  0  0  0
 51 52  1  0  0  0
 51129  1  0  0  0
 51130  1  0  0  0
 52131  1  0  0  0
 52132  1  0  0  0
 53 54  1  0  0  0
 54 55  2  0  0  0
 54133  1  0  0  0
 55 57  1  0  0  0
 55134  1  0  0  0
 56 69  2  0  0  0
 57 58  2  0  0  0
 57135  1  0  0  0
 58136  1  0  0  0
 59 60  1  0  0  0
 59 61  1  0  0  0
 59 62  1  0  0  0
 60137  1  0  0  0
 60138  1  0  0  0
 60139  1  0  0  0
 61140  1  0  0  0
 61141  1  0  0  0
 61142  1  0  0  0
 62143  1  0  0  0
 62144  1  0  0  0
 62145  1  0  0  0
 63 65  1  0  0  0
 63146  1  0  0  0
 63147  1  0  0  0
 63148  1  0  0  0
 64149  1  0  0  0
 65150  1  0  0  0
 68 84  1  0  0  0
 71 74  2  0  0  0
 71 78  1  0  0  0
 71151  1  0  0  0
 72 75  1  0  0  0
 72 77  2  0  0  0
 72152  1  0  0  0
 73 76  2  0  0  0
 73 89  1  0  0  0
 73153  1  0  0  0
 74 76  1  0  0  0
 74 77  1  0  0  0
 75 78  2  0  0  0
 75 86  1  0  0  0
 76 85  1  0  0  0
 77 89  1  0  0  0
 78 91  1  0  0  0
 79 81  1  0  0  0
 79 83  1  0  0  0
 79154  1  0  0  0
 79155  1  0  0  0
 80 82  1  0  0  0
 80 83  1  0  0  0
 80156  1  0  0  0
 80157  1  0  0  0
 81 84  1  0  0  0
 81158  1  0  0  0
 81159  1  0  0  0
 82 84  1  0  0  0
 82160  1  0  0  0
 82161  1  0  0  0
 83 89  1  0  0  0
 83162  1  0  0  0
 84163  1  0  0  0
 85164  1  0  0  0
 85165  1  0  0  0
 85166  1  0  0  0
 86 87  1  0  0  0
 86167  1  0  0  0
 86168  1  0  0  0
 87 88  1  0  0  0
 87169  1  0  0  0
 87170  1  0  0  0
 88 90  1  0  0  0
 88171  1  0  0  0
 88172  1  0  0  0
 90173  1  0  0  0
M  ISO  4   1 100  68 101  84 101  90 100
M  END
> <chiral flag>
0

> <version>
0

> <s_m_source_file>
/data/baiqing/PycharmProjects/Reinvent-master-3.2/result/LINK_invent/BTK/process_docking_weight1_custom_sum_contain_oxygen_bond_distance_aromatic_linkinvent_7_9_3/rearranged_h_0027.sdf

> <i_m_source_file_index>
31

> <r_mmod_Potential_Energy-OPLS-2005>
-20.4377689361572

> <r_mmod_Stretch_Energy-OPLS-2005>
33.9651565551758

> <r_mmod_Bend_Energy-OPLS-2005>
93.7011642456055

> <r_mmod_Torsional_Energy-OPLS-2005>
283.487731933594

> <r_mmod_Improper_Torsional_Energy-OPLS-2005>
4.07249975204468

> <r_mmod_Van_der_Waal_Energy-OPLS-2005>
157.651290893555

> <r_mmod_Electrostatic_Energy-OPLS-2005>
-405.398162841797

> <r_mmod_Solvation_Energy-OPLS-2005>
-197.811187744141

> <b_mmod_Minimization_Converged-OPLS-2005>
0

> <r_mmod_RMS_Derivative-OPLS-2005>
2.16012191772461

$$$$
31
                    3D
 Structure written by MMmdl.
165173  0  0  1  0            999 V2000
  -30.7055  -14.4055   20.5383 C   0  0  0  0  0  0
  -30.4141  -12.2551   19.4095 C   0  0  0  0  0  0
  -29.4749  -12.4607   18.1993 C   0  0  0  0  0  0
  -27.9877  -12.3777   18.6059 C   0  0  0  0  0  0
  -27.6580  -13.1824   19.8921 C   0  0  2  0  0  0
  -28.7110  -12.9332   21.0000 C   0  0  0  0  0  0
  -25.2611  -13.8161   20.5782 C   0  0  0  0  0  0
  -24.1801  -13.0459   20.9234 C   0  0  0  0  0  0
  -24.6342  -11.6919   20.8821 C   0  0  0  0  0  0
  -23.8991  -10.4336   21.0450 C   0  0  0  0  0  0
  -24.3574   -9.4251   21.9215 C   0  0  0  0  0  0
  -23.6284   -8.2277   22.0797 C   0  0  0  0  0  0
  -22.4306   -8.0287   21.3528 C   0  0  0  0  0  0
  -21.9973   -9.0238   20.4558 C   0  0  0  0  0  0
  -22.7250  -10.2160   20.2994 C   0  0  0  0  0  0
  -21.6876   -6.0748   22.5266 C   0  0  0  0  0  0
  -21.4047   -6.5675   23.8196 C   0  0  0  0  0  0
  -21.3660   -5.6825   24.9157 C   0  0  0  0  0  0
  -21.6060   -4.3080   24.7218 C   0  0  0  0  0  0
  -21.8822   -3.8165   23.4331 C   0  0  0  0  0  0
  -21.9199   -4.6975   22.3390 C   0  0  0  0  0  0
  -22.7834  -13.5240   21.1861 C   0  0  0  0  0  0
  -22.1629   -4.2149   21.0959 F   0  0  0  0  0  0
  -21.5636   -3.4589   25.7750 F   0  0  0  0  0  0
  -30.0425  -13.2269   20.4420 N   0  0  0  0  0  0
  -26.2994  -12.9248   20.3514 N   0  0  0  0  0  0
  -25.9264  -11.6457   20.5905 N   0  0  0  0  0  0
  -22.0480  -12.8231   22.0454 N   0  0  0  0  0  0
  -25.4453  -15.1879   20.4199 N   0  0  0  0  0  0
  -31.8392  -14.5972   20.0977 O   0  0  0  0  0  0
  -21.6664   -6.8886   21.4232 O   0  0  0  0  0  0
  -22.3484  -14.5552   20.6734 O   0  0  0  0  0  0
  -24.6090  -31.8729   23.2138 C   0  0  0  0  0  0
  -25.9008  -32.4827   23.8405 C   0  0  1  0  0  0
  -27.2477  -27.4962   20.0721 C   0  0  0  0  0  0
  -25.5926  -33.8628   24.2363 N   0  0  0  0  0  0
  -23.3922  -30.4966   21.5525 C   0  0  2  0  0  0
  -24.8388  -28.9681   20.1115 C   0  0  0  0  0  0
  -22.7358  -29.4674   22.4999 C   0  0  0  0  0  0
  -18.0264  -28.1387   22.8485 C   0  0  0  0  0  0
  -24.1494  -36.7319   23.2628 C   0  0  0  0  0  0
  -25.9129  -30.8511   21.3572 C   0  0  0  0  0  0
  -25.9910  -29.4851   20.7129 C   0  0  0  0  0  0
  -27.1930  -28.7534   20.7015 C   0  0  0  0  0  0
  -26.0789  -26.9795   19.4634 C   0  0  0  0  0  0
  -24.8744  -27.7062   19.4899 C   0  0  0  0  0  0
  -23.5984  -29.8316   20.1641 C   0  0  0  0  0  0
  -25.4097  -36.3100   24.0336 C   0  0  1  0  0  0
  -20.5848  -28.3639   23.1344 C   0  0  2  0  0  0
  -20.6752  -26.9385   22.5432 C   0  0  0  0  0  0
  -19.5735  -26.6397   21.5213 C   0  0  0  0  0  0
  -18.1907  -26.7944   22.1628 C   0  0  0  0  0  0
  -19.1516  -28.8826   23.2922 C   0  0  0  0  0  0
  -18.9456  -30.1437   23.8927 C   0  0  0  0  0  0
  -17.6458  -30.6586   24.0570 C   0  0  0  0  0  0
  -25.9013  -34.9465   23.5122 C   0  0  0  0  0  0
  -16.5342  -29.9091   23.6314 C   0  0  0  0  0  0
  -16.7260  -28.6520   23.0305 C   0  0  0  0  0  0
  -26.4489  -31.6568   25.0667 C   0  0  0  0  0  0
  -25.3814  -31.3668   26.1466 C   0  0  0  0  0  0
  -27.0268  -30.3016   24.5938 C   0  0  0  0  0  0
  -27.6092  -32.4238   25.7436 C   0  0  0  0  0  0
  -27.5577  -37.1792   24.8457 C   0  0  0  0  0  0
  -21.4099  -29.3009   22.3741 N   0  0  0  0  0  0
  -26.4284  -37.3779   23.9417 N   0  0  0  0  0  0
  -24.6564  -31.0867   22.1011 N   0  0  0  0  0  0
  -23.4164  -28.8217   23.3007 O   0  0  0  0  0  0
  -28.4695  -26.8629   20.0681 O   0  0  0  0  0  0
  -26.5549  -34.8907   22.4668 O   0  0  0  0  0  0
  -23.5296  -32.1509   23.7531 O   0  0  0  0  0  0
  -28.4737  -16.5402   18.6347 C   0  0  0  0  0  0
  -29.0391  -17.3650   19.6313 C   0  0  0  0  0  0
  -26.8846  -18.2894   18.0135 C   0  0  0  0  0  0
  -27.5348  -19.1767   18.9120 C   0  0  0  0  0  0
  -27.3984  -16.9829   17.8499 C   0  0  0  0  0  0
  -28.6037  -18.7074   19.7244 C   0  0  0  0  0  0
  -25.6899  -18.7347   17.1744 C   0  0  0  0  0  0
  -30.1332  -16.8220   20.5574 C   0  0  0  0  0  0
  -27.1640  -20.6548   18.9655 C   0  0  0  0  0  0
  -27.9665  -23.1671   20.5743 C   0  0  0  0  0  0
  -27.9185  -24.6621   20.8860 C   0  0  0  0  0  0
  -26.5662  -22.5200   20.4886 C   0  0  0  0  0  0
  -28.5326  -25.4900   19.7456 C   0  0  0  0  0  0
  -29.9277  -15.4213   20.9214 N   0  0  0  0  0  0
  -26.6481  -21.0596   20.2873 N   0  3  0  0  0  0
  -26.7565  -15.9007   16.6667 Cl  0  0  0  0  0  0
  -29.3901  -19.7833   20.8345 Cl  0  0  0  0  0  0
  -31.4577  -12.3477   19.1011 H   0  0  0  0  0  0
  -30.3147  -11.2462   19.8095 H   0  0  0  0  0  0
  -29.6767  -11.7023   17.4427 H   0  0  0  0  0  0
  -29.6710  -13.4201   17.7191 H   0  0  0  0  0  0
  -27.7339  -11.3247   18.7388 H   0  0  0  0  0  0
  -27.3604  -12.7278   17.7848 H   0  0  0  0  0  0
  -27.6959  -14.2322   19.6331 H   0  0  0  0  0  0
  -28.6801  -11.8919   21.3323 H   0  0  0  0  0  0
  -28.4905  -13.5271   21.8900 H   0  0  0  0  0  0
  -25.2724   -9.5773   22.4765 H   0  0  0  0  0  0
  -24.0052   -7.4705   22.7550 H   0  0  0  0  0  0
  -21.0992   -8.8676   19.8767 H   0  0  0  0  0  0
  -22.3744  -10.9685   19.6039 H   0  0  0  0  0  0
  -21.2068   -7.6182   23.9705 H   0  0  0  0  0  0
  -21.1466   -6.0550   25.9052 H   0  0  0  0  0  0
  -22.0613   -2.7630   23.2843 H   0  0  0  0  0  0
  -22.4154  -11.9925   22.4871 H   0  0  0  0  0  0
  -21.1118  -13.1274   22.2684 H   0  0  0  0  0  0
  -24.6923  -15.8580   20.5230 H   0  0  0  0  0  0
  -26.3032  -15.6120   20.0982 H   0  0  0  0  0  0
  -26.7037  -32.5566   23.1134 H   0  0  0  0  0  0
  -25.0091  -33.9816   25.0516 H   0  0  0  0  0  0
  -22.6762  -31.3091   21.4157 H   0  0  0  0  0  0
  -23.3719  -35.9691   23.3302 H   0  0  0  0  0  0
  -24.3615  -36.8919   22.2043 H   0  0  0  0  0  0
  -23.7265  -37.6534   23.6639 H   0  0  0  0  0  0
  -26.0004  -31.6074   20.5767 H   0  0  0  0  0  0
  -26.8121  -30.9240   21.9588 H   0  0  0  0  0  0
  -28.0820  -29.1556   21.1709 H   0  0  0  0  0  0
  -26.0802  -26.0303   18.9497 H   0  0  0  0  0  0
  -23.9964  -27.3037   19.0085 H   0  0  0  0  0  0
  -23.6946  -30.6140   19.4101 H   0  0  0  0  0  0
  -22.7242  -29.2493   19.8689 H   0  0  0  0  0  0
  -25.1238  -36.1973   25.0823 H   0  0  0  0  0  0
  -20.9947  -28.3223   24.1457 H   0  0  0  0  0  0
  -20.5645  -26.2240   23.3593 H   0  0  0  0  0  0
  -21.6620  -26.7421   22.1228 H   0  0  0  0  0  0
  -19.6896  -25.6312   21.1206 H   0  0  0  0  0  0
  -19.6715  -27.3237   20.6758 H   0  0  0  0  0  0
  -17.4179  -26.6681   21.4027 H   0  0  0  0  0  0
  -18.0330  -26.0091   22.9032 H   0  0  0  0  0  0
  -19.7925  -30.7245   24.2330 H   0  0  0  0  0  0
  -17.4997  -31.6265   24.5162 H   0  0  0  0  0  0
  -15.5337  -30.2986   23.7619 H   0  0  0  0  0  0
  -15.8670  -28.0855   22.6957 H   0  0  0  0  0  0
  -24.5981  -30.7000   25.7856 H   0  0  0  0  0  0
  -24.9018  -32.2825   26.4943 H   0  0  0  0  0  0
  -25.8238  -30.8854   27.0201 H   0  0  0  0  0  0
  -26.2778  -29.6821   24.0982 H   0  0  0  0  0  0
  -27.4098  -29.7174   25.4316 H   0  0  0  0  0  0
  -27.8604  -30.4336   23.9025 H   0  0  0  0  0  0
  -27.2753  -33.3525   26.2094 H   0  0  0  0  0  0
  -28.3910  -32.6823   25.0272 H   0  0  0  0  0  0
  -28.0768  -31.8278   26.5292 H   0  0  0  0  0  0
  -28.2551  -38.0106   24.7458 H   0  0  0  0  0  0
  -28.1096  -36.2630   24.6317 H   0  0  0  0  0  0
  -27.2304  -37.1477   25.8856 H   0  0  0  0  0  0
  -20.9228  -29.8763   21.7010 H   0  0  0  0  0  0
  -26.0163  -38.2857   24.1433 H   0  0  0  0  0  0
  -28.8577  -15.5496   18.4556 H   0  0  0  0  0  0
  -26.0280  -19.2222   16.2594 H   0  0  0  0  0  0
  -25.0341  -19.4143   17.7181 H   0  0  0  0  0  0
  -25.0613  -17.8922   16.8894 H   0  0  0  0  0  0
  -30.1996  -17.3799   21.4908 H   0  0  0  0  0  0
  -31.0881  -16.9701   20.0525 H   0  0  0  0  0  0
  -26.4443  -20.9561   18.2068 H   0  0  0  0  0  0
  -28.0785  -21.1855   18.7047 H   0  0  0  0  0  0
  -28.5733  -22.6687   21.3292 H   0  0  0  0  0  0
  -28.5058  -23.0333   19.6372 H   0  0  0  0  0  0
  -28.4695  -24.8618   21.8049 H   0  0  0  0  0  0
  -26.8936  -24.9659   21.0933 H   0  0  0  0  0  0
  -25.9806  -22.9653   19.6802 H   0  0  0  0  0  0
  -26.0150  -22.7077   21.4131 H   0  0  0  0  0  0
  -28.0851  -25.2770   18.7738 H   0  0  0  0  0  0
  -29.5883  -25.2356   19.6439 H   0  0  0  0  0  0
  -29.0195  -15.1676   21.2731 H   0  0  0  0  0  0
  -27.2625  -20.6799   20.9912 H   0  0  0  0  0  0
  -25.7348  -20.6510   20.4177 H   0  0  0  0  0  0
  1 25  1  0  0  0
  1 30  2  0  0  0
  1 84  1  0  0  0
  2  3  1  0  0  0
  2 25  1  0  0  0
  2 88  1  0  0  0
  2 89  1  0  0  0
  3  4  1  0  0  0
  3 90  1  0  0  0
  3 91  1  0  0  0
  4  5  1  0  0  0
  4 92  1  0  0  0
  4 93  1  0  0  0
  5  6  1  0  0  0
  5 26  1  0  0  0
  5 94  1  0  0  0
  6 25  1  0  0  0
  6 95  1  0  0  0
  6 96  1  0  0  0
  7  8  2  0  0  0
  7 26  1  0  0  0
  7 29  1  0  0  0
  8  9  1  0  0  0
  8 22  1  0  0  0
  9 10  1  0  0  0
  9 27  2  0  0  0
 10 11  2  0  0  0
 10 15  1  0  0  0
 11 12  1  0  0  0
 11 97  1  0  0  0
 12 13  2  0  0  0
 12 98  1  0  0  0
 13 14  1  0  0  0
 13 31  1  0  0  0
 14 15  2  0  0  0
 14 99  1  0  0  0
 15100  1  0  0  0
 16 17  2  0  0  0
 16 21  1  0  0  0
 16 31  1  0  0  0
 17 18  1  0  0  0
 17101  1  0  0  0
 18 19  2  0  0  0
 18102  1  0  0  0
 19 20  1  0  0  0
 19 24  1  0  0  0
 20 21  2  0  0  0
 20103  1  0  0  0
 21 23  1  0  0  0
 22 28  1  0  0  0
 22 32  2  0  0  0
 26 27  1  0  0  0
 28104  1  0  0  0
 28105  1  0  0  0
 29106  1  0  0  0
 29107  1  0  0  0
 33 34  1  0  0  0
 33 66  1  0  0  0
 33 70  2  0  0  0
 34 36  1  0  0  0
 34 59  1  0  0  0
 34108  1  0  0  0
 35 44  2  0  0  0
 35 45  1  0  0  0
 35 68  1  0  0  0
 36 56  1  0  0  0
 36109  1  0  0  0
 37 39  1  0  0  0
 37 47  1  0  0  0
 37 66  1  0  0  0
 37110  1  0  0  0
 38 43  2  0  0  0
 38 46  1  0  0  0
 38 47  1  0  0  0
 39 64  1  0  0  0
 39 67  2  0  0  0
 40 52  1  0  0  0
 40 53  2  0  0  0
 40 58  1  0  0  0
 41111  1  0  0  0
 41112  1  0  0  0
 41113  1  0  0  0
 41 48  1  0  0  0
 42 43  1  0  0  0
 42 66  1  0  0  0
 42114  1  0  0  0
 42115  1  0  0  0
 43 44  1  0  0  0
 44116  1  0  0  0
 45 46  2  0  0  0
 45117  1  0  0  0
 46118  1  0  0  0
 47119  1  0  0  0
 47120  1  0  0  0
 48 56  1  0  0  0
 48 65  1  0  0  0
 48121  1  0  0  0
 49 50  1  0  0  0
 49 53  1  0  0  0
 49 64  1  0  0  0
 49122  1  0  0  0
 50 51  1  0  0  0
 50123  1  0  0  0
 50124  1  0  0  0
 51 52  1  0  0  0
 51125  1  0  0  0
 51126  1  0  0  0
 52127  1  0  0  0
 52128  1  0  0  0
 53 54  1  0  0  0
 54 55  2  0  0  0
 54129  1  0  0  0
 55 57  1  0  0  0
 55130  1  0  0  0
 56 69  2  0  0  0
 57 58  2  0  0  0
 57131  1  0  0  0
 58132  1  0  0  0
 59 60  1  0  0  0
 59 61  1  0  0  0
 59 62  1  0  0  0
 60133  1  0  0  0
 60134  1  0  0  0
 60135  1  0  0  0
 61136  1  0  0  0
 61137  1  0  0  0
 61138  1  0  0  0
 62139  1  0  0  0
 62140  1  0  0  0
 62141  1  0  0  0
 63 65  1  0  0  0
 63142  1  0  0  0
 63143  1  0  0  0
 63144  1  0  0  0
 64145  1  0  0  0
 65146  1  0  0  0
 68 83  1  0  0  0
 71 72  2  0  0  0
 71 75  1  0  0  0
 71147  1  0  0  0
 72 76  1  0  0  0
 72 78  1  0  0  0
 73 74  1  0  0  0
 73 75  2  0  0  0
 73 77  1  0  0  0
 74 76  2  0  0  0
 74 79  1  0  0  0
 75 86  1  0  0  0
 76 87  1  0  0  0
 77148  1  0  0  0
 77149  1  0  0  0
 77150  1  0  0  0
 78 84  1  0  0  0
 78151  1  0  0  0
 78152  1  0  0  0
 79 85  1  0  0  0
 79153  1  0  0  0
 79154  1  0  0  0
 80 81  1  0  0  0
 80 82  1  0  0  0
 80155  1  0  0  0
 80156  1  0  0  0
 81 83  1  0  0  0
 81157  1  0  0  0
 81158  1  0  0  0
 82 85  1  0  0  0
 82159  1  0  0  0
 82160  1  0  0  0
 83161  1  0  0  0
 83162  1  0  0  0
 84163  1  0  0  0
 85164  1  0  0  0
 85165  1  0  0  0
M  CHG  1  85   1
M  ISO  4   1 100  68 101  83 101  84 100
M  END
> <chiral flag>
0

> <version>
0

> <s_m_source_file>
/data/baiqing/PycharmProjects/Reinvent-master-3.2/result/LINK_invent/BTK/process_docking_weight1_custom_sum_contain_oxygen_bond_distance_aromatic_linkinvent_7_9_3/rearranged_h_0027.sdf

> <i_m_source_file_index>
32

> <r_mmod_Potential_Energy-OPLS-2005>
-291.318511962891

> <r_mmod_Stretch_Energy-OPLS-2005>
32.4898300170898

> <r_mmod_Bend_Energy-OPLS-2005>
96.5103073120117

> <r_mmod_Torsional_Energy-OPLS-2005>
207.06071472168

> <r_mmod_Improper_Torsional_Energy-OPLS-2005>
7.02987957000732

> <r_mmod_Van_der_Waal_Energy-OPLS-2005>
167.047317504883

> <r_mmod_Electrostatic_Energy-OPLS-2005>
-336.793060302734

> <r_mmod_Solvation_Energy-OPLS-2005>
-477.372924804688

> <b_mmod_Minimization_Converged-OPLS-2005>
0

> <r_mmod_RMS_Derivative-OPLS-2005>
5.36385726928711

$$$$
32
                    3D
 Structure written by MMmdl.
162170  0  0  1  0            999 V2000
  -30.7698  -14.4295   20.6469 C   0  0  0  0  0  0
  -30.4141  -12.3096   19.4306 C   0  0  0  0  0  0
  -29.4872  -12.5236   18.2169 C   0  0  0  0  0  0
  -28.0100  -12.3854   18.6264 C   0  0  0  0  0  0
  -27.6604  -13.2202   19.8863 C   0  0  2  0  0  0
  -28.7061  -13.0077   21.0067 C   0  0  0  0  0  0
  -25.2524  -13.8183   20.5686 C   0  0  0  0  0  0
  -24.1781  -13.0426   20.9174 C   0  0  0  0  0  0
  -24.6351  -11.6906   20.8759 C   0  0  0  0  0  0
  -23.9006  -10.4281   21.0446 C   0  0  0  0  0  0
  -24.3562   -9.4182   21.9207 C   0  0  0  0  0  0
  -23.6246   -8.2200   22.0751 C   0  0  0  0  0  0
  -22.4227   -8.0240   21.3548 C   0  0  0  0  0  0
  -21.9883   -9.0221   20.4650 C   0  0  0  0  0  0
  -22.7194  -10.2112   20.3081 C   0  0  0  0  0  0
  -21.6835   -6.0689   22.5268 C   0  0  0  0  0  0
  -21.4012   -6.5595   23.8204 C   0  0  0  0  0  0
  -21.3682   -5.6762   24.9172 C   0  0  0  0  0  0
  -21.6041   -4.3025   24.7243 C   0  0  0  0  0  0
  -21.8823   -3.8107   23.4375 C   0  0  0  0  0  0
  -21.9170   -4.6907   22.3409 C   0  0  0  0  0  0
  -22.7812  -13.5214   21.1831 C   0  0  0  0  0  0
  -22.1646   -4.2078   21.1001 F   0  0  0  0  0  0
  -21.5644   -3.4529   25.7791 F   0  0  0  0  0  0
  -30.0445  -13.2927   20.4616 N   0  0  0  0  0  0
  -26.3004  -12.9366   20.3459 N   0  0  0  0  0  0
  -25.9301  -11.6505   20.5849 N   0  0  0  0  0  0
  -22.0464  -12.8220   22.0423 N   0  0  0  0  0  0
  -25.4118  -15.1875   20.3986 N   0  0  0  0  0  0
  -31.8693  -14.6013   20.1174 O   0  0  0  0  0  0
  -21.6588   -6.8834   21.4246 O   0  0  0  0  0  0
  -22.3485  -14.5518   20.6699 O   0  0  0  0  0  0
  -24.6225  -31.8735   23.2226 C   0  0  0  0  0  0
  -25.9111  -32.4846   23.8491 C   0  0  1  0  0  0
  -27.1840  -27.4029   20.0553 C   0  0  0  0  0  0
  -25.5958  -33.8649   24.2399 N   0  0  0  0  0  0
  -23.4044  -30.5174   21.5661 C   0  0  2  0  0  0
  -24.8325  -29.0043   20.1110 C   0  0  0  0  0  0
  -22.7451  -29.4739   22.4985 C   0  0  0  0  0  0
  -18.0288  -28.1429   22.8545 C   0  0  0  0  0  0
  -24.1480  -36.7321   23.2634 C   0  0  0  0  0  0
  -25.9489  -30.8210   21.3906 C   0  0  0  0  0  0
  -26.0073  -29.4641   20.7185 C   0  0  0  0  0  0
  -27.1849  -28.6677   20.7010 C   0  0  0  0  0  0
  -25.9770  -27.0115   19.4054 C   0  0  0  0  0  0
  -24.8120  -27.7743   19.4578 C   0  0  0  0  0  0
  -23.6066  -29.8795   20.1729 C   0  0  0  0  0  0
  -25.4100  -36.3132   24.0353 C   0  0  1  0  0  0
  -20.5868  -28.3757   23.1318 C   0  0  2  0  0  0
  -20.6678  -26.9435   22.5549 C   0  0  0  0  0  0
  -19.5765  -26.6508   21.5248 C   0  0  0  0  0  0
  -18.1947  -26.7945   22.1718 C   0  0  0  0  0  0
  -19.1542  -28.8940   23.2879 C   0  0  0  0  0  0
  -18.9504  -30.1611   23.8743 C   0  0  0  0  0  0
  -17.6538  -30.6764   24.0455 C   0  0  0  0  0  0
  -25.9045  -34.9489   23.5161 C   0  0  0  0  0  0
  -16.5428  -29.9186   23.6358 C   0  0  0  0  0  0
  -16.7284  -28.6562   23.0409 C   0  0  0  0  0  0
  -26.4494  -31.6626   25.0835 C   0  0  0  0  0  0
  -25.3752  -31.3733   26.1585 C   0  0  0  0  0  0
  -27.0302  -30.3052   24.6245 C   0  0  0  0  0  0
  -27.6048  -32.4348   25.7577 C   0  0  0  0  0  0
  -27.5585  -37.1819   24.8470 C   0  0  0  0  0  0
  -21.4159  -29.3153   22.3788 N   0  0  0  0  0  0
  -26.4299  -37.3807   23.9412 N   0  0  0  0  0  0
  -24.6782  -31.0853   22.1156 N   0  0  0  0  0  0
  -23.4236  -28.8167   23.2936 O   0  0  0  0  0  0
  -28.2964  -26.5541   20.0770 O   0  0  0  0  0  0
  -26.5578  -34.8922   22.4706 O   0  0  0  0  0  0
  -23.5414  -32.1493   23.7585 O   0  0  0  0  0  0
  -29.6268  -19.3251   19.1545 C   0  0  0  0  0  0
  -28.8635  -20.2442   19.8933 C   0  0  0  0  0  0
  -28.6673  -19.9902   21.2795 C   0  0  0  0  0  0
  -29.3396  -18.8902   21.9063 C   0  0  0  0  0  0
  -30.0810  -17.9402   21.1251 C   0  0  0  0  0  0
  -30.2193  -18.1997   19.7366 C   0  0  0  0  0  0
  -27.7097  -20.8656   22.0858 C   0  0  0  0  0  0
  -29.2794  -18.7790   23.4300 C   0  0  0  0  0  0
  -28.2417  -21.3718   19.0451 C   0  0  0  0  0  0
  -30.7883  -16.6993   21.7326 C   0  0  0  0  0  0
  -27.7832  -22.7435   19.6084 C   0  0  0  0  0  0
  -28.7834  -23.9190   19.8847 C   0  0  0  0  0  0
  -27.9537  -25.2033   19.6781 C   0  0  0  0  0  0
  -30.2053  -15.3831   21.4127 N   0  0  0  0  0  0
  -31.1576  -17.2050   18.6844 Cl  0  0  0  0  0  0
  -31.4544  -12.4022   19.1205 H   0  0  0  0  0  0
  -30.3100  -11.3007   19.8353 H   0  0  0  0  0  0
  -29.7188  -11.8106   17.4257 H   0  0  0  0  0  0
  -29.6586  -13.5153   17.7920 H   0  0  0  0  0  0
  -27.8225  -11.3297   18.8260 H   0  0  0  0  0  0
  -27.3560  -12.6597   17.7999 H   0  0  0  0  0  0
  -27.6997  -14.2693   19.5937 H   0  0  0  0  0  0
  -28.6805  -11.9772   21.3602 H   0  0  0  0  0  0
  -28.4605  -13.6186   21.8756 H   0  0  0  0  0  0
  -25.2715   -9.5610   22.4779 H   0  0  0  0  0  0
  -23.9915   -7.4587   22.7484 H   0  0  0  0  0  0
  -21.0785   -8.8726   19.9003 H   0  0  0  0  0  0
  -22.3627  -10.9622   19.6169 H   0  0  0  0  0  0
  -21.2027   -7.6109   23.9672 H   0  0  0  0  0  0
  -21.1496   -6.0527   25.9063 H   0  0  0  0  0  0
  -22.0581   -2.7564   23.2912 H   0  0  0  0  0  0
  -22.4097  -11.9901   22.4854 H   0  0  0  0  0  0
  -21.1098  -13.1298   22.2621 H   0  0  0  0  0  0
  -24.6216  -15.8211   20.4563 H   0  0  0  0  0  0
  -26.2487  -15.6249   20.0364 H   0  0  0  0  0  0
  -26.7186  -32.5507   23.1243 H   0  0  0  0  0  0
  -25.0108  -33.9831   25.0543 H   0  0  0  0  0  0
  -22.6968  -31.3401   21.4452 H   0  0  0  0  0  0
  -23.3736  -35.9661   23.3317 H   0  0  0  0  0  0
  -24.3571  -36.8909   22.2043 H   0  0  0  0  0  0
  -23.7227  -37.6541   23.6625 H   0  0  0  0  0  0
  -26.0906  -31.5925   20.6324 H   0  0  0  0  0  0
  -26.8305  -30.8475   22.0216 H   0  0  0  0  0  0
  -28.0833  -29.0126   21.1911 H   0  0  0  0  0  0
  -25.8565  -26.1006   18.8389 H   0  0  0  0  0  0
  -23.9130  -27.4265   18.9652 H   0  0  0  0  0  0
  -23.7301  -30.6630   19.4223 H   0  0  0  0  0  0
  -22.7208  -29.3179   19.8693 H   0  0  0  0  0  0
  -25.1255  -36.2023   25.0850 H   0  0  0  0  0  0
  -20.9966  -28.3367   24.1426 H   0  0  0  0  0  0
  -20.5283  -26.2446   23.3832 H   0  0  0  0  0  0
  -21.6557  -26.7293   22.1498 H   0  0  0  0  0  0
  -19.6734  -27.3448   20.6908 H   0  0  0  0  0  0
  -19.7013  -25.6526   21.1064 H   0  0  0  0  0  0
  -17.4168  -26.6611   21.4195 H   0  0  0  0  0  0
  -18.0455  -26.0131   22.9174 H   0  0  0  0  0  0
  -19.7951  -30.7554   24.1971 H   0  0  0  0  0  0
  -17.5141  -31.6487   24.4998 H   0  0  0  0  0  0
  -15.5476  -30.3137   23.7739 H   0  0  0  0  0  0
  -15.8659  -28.0871   22.7214 H   0  0  0  0  0  0
  -24.5944  -30.7035   25.7978 H   0  0  0  0  0  0
  -24.8900  -32.2873   26.5035 H   0  0  0  0  0  0
  -25.8128  -30.8954   27.0354 H   0  0  0  0  0  0
  -26.2876  -29.6855   24.1212 H   0  0  0  0  0  0
  -27.3948  -29.7261   25.4730 H   0  0  0  0  0  0
  -27.8775  -30.4345   23.9493 H   0  0  0  0  0  0
  -27.2672  -33.3641   26.2166 H   0  0  0  0  0  0
  -28.3850  -32.6921   25.0405 H   0  0  0  0  0  0
  -28.0731  -31.8470   26.5489 H   0  0  0  0  0  0
  -28.2614  -38.0097   24.7505 H   0  0  0  0  0  0
  -28.1062  -36.2637   24.6305 H   0  0  0  0  0  0
  -27.2300  -37.1486   25.8867 H   0  0  0  0  0  0
  -20.9262  -29.9142   21.7288 H   0  0  0  0  0  0
  -26.0200  -38.2902   24.1364 H   0  0  0  0  0  0
  -29.7573  -19.4665   18.0900 H   0  0  0  0  0  0
  -26.7502  -20.9335   21.5749 H   0  0  0  0  0  0
  -28.1286  -21.8604   22.2469 H   0  0  0  0  0  0
  -27.4525  -20.4692   23.0645 H   0  0  0  0  0  0
  -29.2857  -19.7672   23.8896 H   0  0  0  0  0  0
  -30.1434  -18.3043   23.8803 H   0  0  0  0  0  0
  -28.3824  -18.2552   23.7532 H   0  0  0  0  0  0
  -27.3648  -20.9139   18.5842 H   0  0  0  0  0  0
  -28.9019  -21.5803   18.2006 H   0  0  0  0  0  0
  -31.8332  -16.7304   21.4253 H   0  0  0  0  0  0
  -30.8527  -16.7310   22.8148 H   0  0  0  0  0  0
  -27.0573  -22.6617   20.4109 H   0  0  0  0  0  0
  -27.1495  -23.0862   18.7884 H   0  0  0  0  0  0
  -29.6297  -23.9080   19.1980 H   0  0  0  0  0  0
  -29.1807  -23.8597   20.9000 H   0  0  0  0  0  0
  -27.0394  -24.9589   20.2190 H   0  0  0  0  0  0
  -27.7439  -25.2366   18.6090 H   0  0  0  0  0  0
  -29.3393  -15.1550   21.8724 H   0  0  0  0  0  0
  1 25  1  0  0  0
  1 30  2  0  0  0
  1 84  1  0  0  0
  2  3  1  0  0  0
  2 25  1  0  0  0
  2 86  1  0  0  0
  2 87  1  0  0  0
  3  4  1  0  0  0
  3 88  1  0  0  0
  3 89  1  0  0  0
  4  5  1  0  0  0
  4 90  1  0  0  0
  4 91  1  0  0  0
  5  6  1  0  0  0
  5 26  1  0  0  0
  5 92  1  0  0  0
  6 25  1  0  0  0
  6 93  1  0  0  0
  6 94  1  0  0  0
  7  8  2  0  0  0
  7 26  1  0  0  0
  7 29  1  0  0  0
  8  9  1  0  0  0
  8 22  1  0  0  0
  9 10  1  0  0  0
  9 27  2  0  0  0
 10 11  2  0  0  0
 10 15  1  0  0  0
 11 12  1  0  0  0
 11 95  1  0  0  0
 12 13  2  0  0  0
 12 96  1  0  0  0
 13 14  1  0  0  0
 13 31  1  0  0  0
 14 15  2  0  0  0
 14 97  1  0  0  0
 15 98  1  0  0  0
 16 17  2  0  0  0
 16 21  1  0  0  0
 16 31  1  0  0  0
 17 18  1  0  0  0
 17 99  1  0  0  0
 18 19  2  0  0  0
 18100  1  0  0  0
 19 20  1  0  0  0
 19 24  1  0  0  0
 20 21  2  0  0  0
 20101  1  0  0  0
 21 23  1  0  0  0
 22 28  1  0  0  0
 22 32  2  0  0  0
 26 27  1  0  0  0
 28102  1  0  0  0
 28103  1  0  0  0
 29104  1  0  0  0
 29105  1  0  0  0
 33 34  1  0  0  0
 33 66  1  0  0  0
 33 70  2  0  0  0
 34 36  1  0  0  0
 34 59  1  0  0  0
 34106  1  0  0  0
 35 44  2  0  0  0
 35 45  1  0  0  0
 35 68  1  0  0  0
 36 56  1  0  0  0
 36107  1  0  0  0
 37 39  1  0  0  0
 37 47  1  0  0  0
 37 66  1  0  0  0
 37108  1  0  0  0
 38 43  2  0  0  0
 38 46  1  0  0  0
 38 47  1  0  0  0
 39 64  1  0  0  0
 39 67  2  0  0  0
 40 52  1  0  0  0
 40 53  2  0  0  0
 40 58  1  0  0  0
 41109  1  0  0  0
 41110  1  0  0  0
 41111  1  0  0  0
 41 48  1  0  0  0
 42 43  1  0  0  0
 42 66  1  0  0  0
 42112  1  0  0  0
 42113  1  0  0  0
 43 44  1  0  0  0
 44114  1  0  0  0
 45 46  2  0  0  0
 45115  1  0  0  0
 46116  1  0  0  0
 47117  1  0  0  0
 47118  1  0  0  0
 48 56  1  0  0  0
 48 65  1  0  0  0
 48119  1  0  0  0
 49 50  1  0  0  0
 49 53  1  0  0  0
 49 64  1  0  0  0
 49120  1  0  0  0
 50 51  1  0  0  0
 50121  1  0  0  0
 50122  1  0  0  0
 51 52  1  0  0  0
 51123  1  0  0  0
 51124  1  0  0  0
 52125  1  0  0  0
 52126  1  0  0  0
 53 54  1  0  0  0
 54 55  2  0  0  0
 54127  1  0  0  0
 55 57  1  0  0  0
 55128  1  0  0  0
 56 69  2  0  0  0
 57 58  2  0  0  0
 57129  1  0  0  0
 58130  1  0  0  0
 59 60  1  0  0  0
 59 61  1  0  0  0
 59 62  1  0  0  0
 60131  1  0  0  0
 60132  1  0  0  0
 60133  1  0  0  0
 61134  1  0  0  0
 61135  1  0  0  0
 61136  1  0  0  0
 62137  1  0  0  0
 62138  1  0  0  0
 62139  1  0  0  0
 63 65  1  0  0  0
 63140  1  0  0  0
 63141  1  0  0  0
 63142  1  0  0  0
 64143  1  0  0  0
 65144  1  0  0  0
 68 83  1  0  0  0
 71 72  2  0  0  0
 71 76  1  0  0  0
 71145  1  0  0  0
 72 73  1  0  0  0
 72 79  1  0  0  0
 73 74  2  0  0  0
 73 77  1  0  0  0
 74 75  1  0  0  0
 74 78  1  0  0  0
 75 76  2  0  0  0
 75 80  1  0  0  0
 76 85  1  0  0  0
 77146  1  0  0  0
 77147  1  0  0  0
 77148  1  0  0  0
 78149  1  0  0  0
 78150  1  0  0  0
 78151  1  0  0  0
 79 81  1  0  0  0
 79152  1  0  0  0
 79153  1  0  0  0
 80 84  1  0  0  0
 80154  1  0  0  0
 80155  1  0  0  0
 81 82  1  0  0  0
 81156  1  0  0  0
 81157  1  0  0  0
 82 83  1  0  0  0
 82158  1  0  0  0
 82159  1  0  0  0
 83160  1  0  0  0
 83161  1  0  0  0
 84162  1  0  0  0
M  ISO  4   1 100  68 101  83 101  84 100
M  END
> <chiral flag>
0

> <version>
0

> <s_m_source_file>
/data/baiqing/PycharmProjects/Reinvent-master-3.2/result/LINK_invent/BTK/process_docking_weight1_custom_sum_contain_oxygen_bond_distance_aromatic_linkinvent_7_9_3/rearranged_h_0027.sdf

> <i_m_source_file_index>
33

> <r_mmod_Potential_Energy-OPLS-2005>
53.9677352905273

> <r_mmod_Stretch_Energy-OPLS-2005>
50.0976791381836

> <r_mmod_Bend_Energy-OPLS-2005>
171.713562011719

> <r_mmod_Torsional_Energy-OPLS-2005>
202.502380371094

> <r_mmod_Improper_Torsional_Energy-OPLS-2005>
2.64880871772766

> <r_mmod_Van_der_Waal_Energy-OPLS-2005>
200.646636962891

> <r_mmod_Electrostatic_Energy-OPLS-2005>
-393.286712646484

> <r_mmod_Solvation_Energy-OPLS-2005>
-203.979095458984

> <b_mmod_Minimization_Converged-OPLS-2005>
0

> <r_mmod_RMS_Derivative-OPLS-2005>
6.22048997879028

$$$$
33
                    3D
 Structure written by MMmdl.
155163  0  0  1  0            999 V2000
  -30.6305  -14.6376   20.5107 C   0  0  0  0  0  0
  -30.4406  -12.3698   19.4562 C   0  0  0  0  0  0
  -29.5127  -12.5137   18.2286 C   0  0  0  0  0  0
  -28.0328  -12.3547   18.6335 C   0  0  0  0  0  0
  -27.6541  -13.2192   19.8660 C   0  0  2  0  0  0
  -28.6876  -13.0604   21.0007 C   0  0  0  0  0  0
  -25.2556  -13.8180   20.5674 C   0  0  0  0  0  0
  -24.1822  -13.0443   20.9171 C   0  0  0  0  0  0
  -24.6395  -11.6913   20.8722 C   0  0  0  0  0  0
  -23.9066  -10.4294   21.0398 C   0  0  0  0  0  0
  -24.3619   -9.4211   21.9179 C   0  0  0  0  0  0
  -23.6290   -8.2249   22.0756 C   0  0  0  0  0  0
  -22.4273   -8.0283   21.3545 C   0  0  0  0  0  0
  -21.9909   -9.0257   20.4645 C   0  0  0  0  0  0
  -22.7238  -10.2135   20.3050 C   0  0  0  0  0  0
  -21.6855   -6.0733   22.5278 C   0  0  0  0  0  0
  -21.4018   -6.5636   23.8212 C   0  0  0  0  0  0
  -21.3661   -5.6791   24.9176 C   0  0  0  0  0  0
  -21.6044   -4.3054   24.7227 C   0  0  0  0  0  0
  -21.8819   -3.8144   23.4349 C   0  0  0  0  0  0
  -21.9195   -4.6960   22.3404 C   0  0  0  0  0  0
  -22.7845  -13.5232   21.1844 C   0  0  0  0  0  0
  -22.1660   -4.2144   21.0981 F   0  0  0  0  0  0
  -21.5630   -3.4537   25.7739 F   0  0  0  0  0  0
  -30.0132  -13.3664   20.4514 N   0  0  0  0  0  0
  -26.2983  -12.9367   20.3298 N   0  0  0  0  0  0
  -25.9319  -11.6518   20.5726 N   0  0  0  0  0  0
  -22.0495  -12.8218   22.0403 N   0  0  0  0  0  0
  -25.4283  -15.1900   20.4114 N   0  0  0  0  0  0
  -31.7667  -14.8664   20.0890 O   0  0  0  0  0  0
  -21.6641   -6.8877   21.4240 O   0  0  0  0  0  0
  -22.3527  -14.5540   20.6700 O   0  0  0  0  0  0
  -24.6264  -31.8604   23.2027 C   0  0  0  0  0  0
  -25.9109  -32.4783   23.8356 C   0  0  1  0  0  0
  -27.2229  -27.3174   20.1128 C   0  0  0  0  0  0
  -25.5925  -33.8583   24.2284 N   0  0  0  0  0  0
  -23.4197  -30.4845   21.5466 C   0  0  2  0  0  0
  -24.8655  -28.9416   20.1119 C   0  0  0  0  0  0
  -22.7473  -29.4626   22.4943 C   0  0  0  0  0  0
  -18.0283  -28.1384   22.8487 C   0  0  0  0  0  0
  -24.1489  -36.7296   23.2637 C   0  0  0  0  0  0
  -25.9616  -30.7915   21.3733 C   0  0  0  0  0  0
  -26.0360  -29.4189   20.7147 C   0  0  0  0  0  0
  -27.2184  -28.6199   20.7035 C   0  0  0  0  0  0
  -26.0257  -26.8953   19.4873 C   0  0  0  0  0  0
  -24.8628  -27.6857   19.4892 C   0  0  0  0  0  0
  -23.6338  -29.8214   20.1616 C   0  0  0  0  0  0
  -25.4115  -36.3089   24.0330 C   0  0  1  0  0  0
  -20.5883  -28.3689   23.1286 C   0  0  2  0  0  0
  -20.6774  -26.9413   22.5412 C   0  0  0  0  0  0
  -19.5751  -26.6384   21.5212 C   0  0  0  0  0  0
  -18.1929  -26.7927   22.1625 C   0  0  0  0  0  0
  -19.1535  -28.8852   23.2883 C   0  0  0  0  0  0
  -18.9459  -30.1454   23.8899 C   0  0  0  0  0  0
  -17.6460  -30.6589   24.0561 C   0  0  0  0  0  0
  -25.9052  -34.9456   23.5109 C   0  0  0  0  0  0
  -16.5352  -29.9089   23.6329 C   0  0  0  0  0  0
  -16.7271  -28.6503   23.0353 C   0  0  0  0  0  0
  -26.4491  -31.6584   25.0721 C   0  0  0  0  0  0
  -25.3723  -31.3723   26.1446 C   0  0  0  0  0  0
  -27.0324  -30.3008   24.6163 C   0  0  0  0  0  0
  -27.6052  -32.4312   25.7495 C   0  0  0  0  0  0
  -27.5581  -37.1805   24.8465 C   0  0  0  0  0  0
  -21.4186  -29.3045   22.3683 N   0  0  0  0  0  0
  -26.4294  -37.3782   23.9409 N   0  0  0  0  0  0
  -24.6884  -31.0614   22.0981 N   0  0  0  0  0  0
  -23.4197  -28.8161   23.3019 O   0  0  0  0  0  0
  -28.3406  -26.4661   20.1576 O   0  0  0  0  0  0
  -26.5622  -34.8922   22.4675 O   0  0  0  0  0  0
  -23.5427  -32.1401   23.7357 O   0  0  0  0  0  0
  -29.5543  -19.0727   19.3728 C   0  0  0  0  0  0
  -29.8745  -19.9533   20.4415 C   0  0  0  0  0  0
  -29.8899  -17.0235   20.7480 C   0  0  0  0  0  0
  -29.5515  -17.6522   19.5183 C   0  0  0  0  0  0
  -30.1841  -19.3240   21.6828 C   0  0  0  0  0  0
  -30.1855  -17.8968   21.8304 C   0  0  0  0  0  0
  -29.9785  -24.3830   21.7307 C   0  0  0  0  0  0
  -30.0713  -21.5039   20.2005 C   0  0  0  0  0  0
  -28.1015  -25.0002   20.0983 C   0  0  0  0  0  0
  -29.3008  -23.9910   20.4018 C   0  0  2  0  0  0
  -28.9407  -22.4980   20.4018 N   0  3  0  0  0  0
  -29.7385  -15.6353   20.9490 O   0  0  0  0  0  0
  -29.0915  -16.6855   18.1613 Cl  0  0  0  0  0  0
  -30.5840  -20.3142   23.0468 Cl  0  0  0  0  0  0
  -30.5377  -17.1949   23.3744 Cl  0  0  0  0  0  0
  -31.4833  -12.5066   19.1649 H   0  0  0  0  0  0
  -30.3713  -11.3657   19.8776 H   0  0  0  0  0  0
  -29.7738  -11.7751   17.4696 H   0  0  0  0  0  0
  -29.6619  -13.4914   17.7672 H   0  0  0  0  0  0
  -27.8625  -11.3004   18.8553 H   0  0  0  0  0  0
  -27.3838  -12.5964   17.7909 H   0  0  0  0  0  0
  -27.6795  -14.2581   19.5378 H   0  0  0  0  0  0
  -28.6766  -12.0408   21.3884 H   0  0  0  0  0  0
  -28.4400  -13.7039   21.8465 H   0  0  0  0  0  0
  -25.2768   -9.5686   22.4749 H   0  0  0  0  0  0
  -23.9997   -7.4644   22.7480 H   0  0  0  0  0  0
  -21.0841   -8.8777   19.8949 H   0  0  0  0  0  0
  -22.3699  -10.9674   19.6157 H   0  0  0  0  0  0
  -21.2012   -7.6145   23.9713 H   0  0  0  0  0  0
  -21.1483   -6.0523   25.9078 H   0  0  0  0  0  0
  -22.0597   -2.7605   23.2855 H   0  0  0  0  0  0
  -22.4117  -11.9871   22.4770 H   0  0  0  0  0  0
  -21.1118  -13.1245   22.2627 H   0  0  0  0  0  0
  -24.6650  -15.8482   20.5217 H   0  0  0  0  0  0
  -26.2868  -15.6250   20.0991 H   0  0  0  0  0  0
  -26.7175  -32.5459   23.1106 H   0  0  0  0  0  0
  -25.0068  -33.9730   25.0425 H   0  0  0  0  0  0
  -22.7133  -31.3052   21.4047 H   0  0  0  0  0  0
  -23.3755  -35.9623   23.3295 H   0  0  0  0  0  0
  -24.3581  -36.8922   22.2054 H   0  0  0  0  0  0
  -23.7235  -37.6492   23.6665 H   0  0  0  0  0  0
  -26.0904  -31.5550   20.6047 H   0  0  0  0  0  0
  -26.8430  -30.8418   22.0009 H   0  0  0  0  0  0
  -28.1169  -28.9832   21.1829 H   0  0  0  0  0  0
  -25.9518  -25.9401   18.9912 H   0  0  0  0  0  0
  -23.9663  -27.3161   19.0104 H   0  0  0  0  0  0
  -23.7521  -30.5987   19.4059 H   0  0  0  0  0  0
  -22.7540  -29.2505   19.8596 H   0  0  0  0  0  0
  -25.1293  -36.1946   25.0821 H   0  0  0  0  0  0
  -20.9970  -28.3263   24.1409 H   0  0  0  0  0  0
  -20.5681  -26.2296   23.3607 H   0  0  0  0  0  0
  -21.6643  -26.7451   22.1203 H   0  0  0  0  0  0
  -19.6915  -25.6295   21.1244 H   0  0  0  0  0  0
  -19.6688  -27.3193   20.6741 H   0  0  0  0  0  0
  -17.4199  -26.6668   21.4027 H   0  0  0  0  0  0
  -18.0334  -26.0069   22.9022 H   0  0  0  0  0  0
  -19.7935  -30.7265   24.2273 H   0  0  0  0  0  0
  -17.5018  -31.6271   24.5160 H   0  0  0  0  0  0
  -15.5353  -30.2995   23.7652 H   0  0  0  0  0  0
  -15.8667  -28.0825   22.7073 H   0  0  0  0  0  0
  -24.5893  -30.7081   25.7770 H   0  0  0  0  0  0
  -24.8921  -32.2890   26.4875 H   0  0  0  0  0  0
  -25.8043  -30.8891   27.0219 H   0  0  0  0  0  0
  -26.2890  -29.6768   24.1189 H   0  0  0  0  0  0
  -27.4025  -29.7255   25.4660 H   0  0  0  0  0  0
  -27.8761  -30.4292   23.9378 H   0  0  0  0  0  0
  -27.2666  -33.3617   26.2063 H   0  0  0  0  0  0
  -28.3870  -32.6859   25.0326 H   0  0  0  0  0  0
  -28.0707  -31.8435   26.5419 H   0  0  0  0  0  0
  -28.2598  -38.0105   24.7520 H   0  0  0  0  0  0
  -28.1081  -36.2636   24.6287 H   0  0  0  0  0  0
  -27.2300  -37.1449   25.8868 H   0  0  0  0  0  0
  -20.9360  -29.8772   21.6898 H   0  0  0  0  0  0
  -26.0178  -38.2858   24.1408 H   0  0  0  0  0  0
  -29.3238  -19.4864   18.4015 H   0  0  0  0  0  0
  -30.2733  -25.4332   21.7213 H   0  0  0  0  0  0
  -30.8832  -23.8057   21.9196 H   0  0  0  0  0  0
  -29.3089  -24.2420   22.5801 H   0  0  0  0  0  0
  -30.4213  -21.6271   19.1747 H   0  0  0  0  0  0
  -30.9190  -21.8185   20.8072 H   0  0  0  0  0  0
  -27.2874  -24.7681   20.7874 H   0  0  0  0  0  0
  -27.7407  -24.7583   19.0986 H   0  0  0  0  0  0
  -30.0277  -24.1391   19.6018 H   0  0  0  0  0  0
  -28.4667  -22.2753   21.2627 H   0  0  0  0  0  0
  -28.2813  -22.3247   19.6583 H   0  0  0  0  0  0
  1 25  1  0  0  0
  1 30  2  0  0  0
  1 82  1  0  0  0
  2  3  1  0  0  0
  2 25  1  0  0  0
  2 86  1  0  0  0
  2 87  1  0  0  0
  3  4  1  0  0  0
  3 88  1  0  0  0
  3 89  1  0  0  0
  4  5  1  0  0  0
  4 90  1  0  0  0
  4 91  1  0  0  0
  5  6  1  0  0  0
  5 26  1  0  0  0
  5 92  1  0  0  0
  6 25  1  0  0  0
  6 93  1  0  0  0
  6 94  1  0  0  0
  7  8  2  0  0  0
  7 26  1  0  0  0
  7 29  1  0  0  0
  8  9  1  0  0  0
  8 22  1  0  0  0
  9 10  1  0  0  0
  9 27  2  0  0  0
 10 11  2  0  0  0
 10 15  1  0  0  0
 11 12  1  0  0  0
 11 95  1  0  0  0
 12 13  2  0  0  0
 12 96  1  0  0  0
 13 14  1  0  0  0
 13 31  1  0  0  0
 14 15  2  0  0  0
 14 97  1  0  0  0
 15 98  1  0  0  0
 16 17  2  0  0  0
 16 21  1  0  0  0
 16 31  1  0  0  0
 17 18  1  0  0  0
 17 99  1  0  0  0
 18 19  2  0  0  0
 18100  1  0  0  0
 19 20  1  0  0  0
 19 24  1  0  0  0
 20 21  2  0  0  0
 20101  1  0  0  0
 21 23  1  0  0  0
 22 28  1  0  0  0
 22 32  2  0  0  0
 26 27  1  0  0  0
 28102  1  0  0  0
 28103  1  0  0  0
 29104  1  0  0  0
 29105  1  0  0  0
 33 34  1  0  0  0
 33 66  1  0  0  0
 33 70  2  0  0  0
 34 36  1  0  0  0
 34 59  1  0  0  0
 34106  1  0  0  0
 35 44  2  0  0  0
 35 45  1  0  0  0
 35 68  1  0  0  0
 36 56  1  0  0  0
 36107  1  0  0  0
 37 39  1  0  0  0
 37 47  1  0  0  0
 37 66  1  0  0  0
 37108  1  0  0  0
 38 43  2  0  0  0
 38 46  1  0  0  0
 38 47  1  0  0  0
 39 64  1  0  0  0
 39 67  2  0  0  0
 40 52  1  0  0  0
 40 53  2  0  0  0
 40 58  1  0  0  0
 41109  1  0  0  0
 41110  1  0  0  0
 41111  1  0  0  0
 41 48  1  0  0  0
 42 43  1  0  0  0
 42 66  1  0  0  0
 42112  1  0  0  0
 42113  1  0  0  0
 43 44  1  0  0  0
 44114  1  0  0  0
 45 46  2  0  0  0
 45115  1  0  0  0
 46116  1  0  0  0
 47117  1  0  0  0
 47118  1  0  0  0
 48 56  1  0  0  0
 48 65  1  0  0  0
 48119  1  0  0  0
 49 50  1  0  0  0
 49 53  1  0  0  0
 49 64  1  0  0  0
 49120  1  0  0  0
 50 51  1  0  0  0
 50121  1  0  0  0
 50122  1  0  0  0
 51 52  1  0  0  0
 51123  1  0  0  0
 51124  1  0  0  0
 52125  1  0  0  0
 52126  1  0  0  0
 53 54  1  0  0  0
 54 55  2  0  0  0
 54127  1  0  0  0
 55 57  1  0  0  0
 55128  1  0  0  0
 56 69  2  0  0  0
 57 58  2  0  0  0
 57129  1  0  0  0
 58130  1  0  0  0
 59 60  1  0  0  0
 59 61  1  0  0  0
 59 62  1  0  0  0
 60131  1  0  0  0
 60132  1  0  0  0
 60133  1  0  0  0
 61134  1  0  0  0
 61135  1  0  0  0
 61136  1  0  0  0
 62137  1  0  0  0
 62138  1  0  0  0
 62139  1  0  0  0
 63 65  1  0  0  0
 63140  1  0  0  0
 63141  1  0  0  0
 63142  1  0  0  0
 64143  1  0  0  0
 65144  1  0  0  0
 68 79  1  0  0  0
 71 72  2  0  0  0
 71 74  1  0  0  0
 71145  1  0  0  0
 72 75  1  0  0  0
 72 78  1  0  0  0
 73 74  2  0  0  0
 73 76  1  0  0  0
 73 82  1  0  0  0
 74 83  1  0  0  0
 75 76  2  0  0  0
 75 84  1  0  0  0
 76 85  1  0  0  0
 77146  1  0  0  0
 77147  1  0  0  0
 77148  1  0  0  0
 77 80  1  0  0  0
 78 81  1  0  0  0
 78149  1  0  0  0
 78150  1  0  0  0
 79 80  1  0  0  0
 79151  1  0  0  0
 79152  1  0  0  0
 80 81  1  0  0  0
 80153  1  0  0  0
 81154  1  0  0  0
 81155  1  0  0  0
M  CHG  1  81   1
M  ISO  4   1 100  68 101  79 101  82 100
M  END
> <chiral flag>
0

> <version>
0

> <s_m_source_file>
/data/baiqing/PycharmProjects/Reinvent-master-3.2/result/LINK_invent/BTK/process_docking_weight1_custom_sum_contain_oxygen_bond_distance_aromatic_linkinvent_7_9_3/rearranged_h_0027.sdf

> <i_m_source_file_index>
34

> <r_mmod_Potential_Energy-OPLS-2005>
-122.551406860352

> <r_mmod_Stretch_Energy-OPLS-2005>
84.7525482177734

> <r_mmod_Bend_Energy-OPLS-2005>
129.485260009766

> <r_mmod_Torsional_Energy-OPLS-2005>
178.0625

> <r_mmod_Improper_Torsional_Energy-OPLS-2005>
5.59075307846069

> <r_mmod_Van_der_Waal_Energy-OPLS-2005>
132.710968017578

> <r_mmod_Electrostatic_Energy-OPLS-2005>
-229.700424194336

> <r_mmod_Solvation_Energy-OPLS-2005>
-470.478668212891

> <b_mmod_Minimization_Converged-OPLS-2005>
0

> <r_mmod_RMS_Derivative-OPLS-2005>
0.49982938170433

$$$$
34
                    3D
 Structure written by MMmdl.
165173  0  0  1  0            999 V2000
  -30.7695  -14.4042   20.5340 C   0  0  0  0  0  0
  -30.4004  -12.2592   19.4211 C   0  0  0  0  0  0
  -29.4847  -12.4874   18.2040 C   0  0  0  0  0  0
  -28.0047  -12.3730   18.6186 C   0  0  0  0  0  0
  -27.6589  -13.2172   19.8754 C   0  0  2  0  0  0
  -28.7052  -13.0204   20.9964 C   0  0  0  0  0  0
  -25.2558  -13.8178   20.5722 C   0  0  0  0  0  0
  -24.1836  -13.0445   20.9193 C   0  0  0  0  0  0
  -24.6396  -11.6914   20.8738 C   0  0  0  0  0  0
  -23.9075  -10.4298   21.0390 C   0  0  0  0  0  0
  -24.3616   -9.4211   21.9164 C   0  0  0  0  0  0
  -23.6300   -8.2241   22.0744 C   0  0  0  0  0  0
  -22.4277   -8.0281   21.3542 C   0  0  0  0  0  0
  -21.9915   -9.0251   20.4640 C   0  0  0  0  0  0
  -22.7245  -10.2132   20.3048 C   0  0  0  0  0  0
  -21.6861   -6.0733   22.5270 C   0  0  0  0  0  0
  -21.4028   -6.5641   23.8211 C   0  0  0  0  0  0
  -21.3656   -5.6792   24.9166 C   0  0  0  0  0  0
  -21.6044   -4.3048   24.7220 C   0  0  0  0  0  0
  -21.8827   -3.8140   23.4341 C   0  0  0  0  0  0
  -21.9199   -4.6959   22.3391 C   0  0  0  0  0  0
  -22.7854  -13.5217   21.1848 C   0  0  0  0  0  0
  -22.1670   -4.2144   21.0971 F   0  0  0  0  0  0
  -21.5623   -3.4536   25.7732 F   0  0  0  0  0  0
  -30.0403  -13.2663   20.4268 N   0  0  0  0  0  0
  -26.3020  -12.9379   20.3407 N   0  0  0  0  0  0
  -25.9329  -11.6525   20.5785 N   0  0  0  0  0  0
  -22.0514  -12.8198   22.0413 N   0  0  0  0  0  0
  -25.4268  -15.1897   20.4123 N   0  0  0  0  0  0
  -31.9283  -14.4964   20.1291 O   0  0  0  0  0  0
  -21.6650   -6.8870   21.4237 O   0  0  0  0  0  0
  -22.3531  -14.5525   20.6705 O   0  0  0  0  0  0
  -24.6085  -31.8688   23.2165 C   0  0  0  0  0  0
  -25.8982  -32.4830   23.8438 C   0  0  1  0  0  0
  -27.2313  -27.4689   20.1003 C   0  0  0  0  0  0
  -25.5854  -33.8638   24.2350 N   0  0  0  0  0  0
  -23.3976  -30.4941   21.5534 C   0  0  2  0  0  0
  -24.8465  -28.9680   20.1141 C   0  0  0  0  0  0
  -22.7371  -29.4660   22.4989 C   0  0  0  0  0  0
  -18.0279  -28.1401   22.8536 C   0  0  0  0  0  0
  -24.1490  -36.7336   23.2649 C   0  0  0  0  0  0
  -25.9225  -30.8479   21.3652 C   0  0  0  0  0  0
  -26.0018  -29.4848   20.7140 C   0  0  0  0  0  0
  -27.1988  -28.7378   20.7118 C   0  0  0  0  0  0
  -26.0719  -26.9652   19.4784 C   0  0  0  0  0  0
  -24.8747  -27.7057   19.4941 C   0  0  0  0  0  0
  -23.6056  -29.8290   20.1669 C   0  0  0  0  0  0
  -25.4097  -36.3116   24.0357 C   0  0  1  0  0  0
  -20.5866  -28.3645   23.1355 C   0  0  2  0  0  0
  -20.6754  -26.9384   22.5439 C   0  0  0  0  0  0
  -19.5737  -26.6391   21.5245 C   0  0  0  0  0  0
  -18.1915  -26.7954   22.1639 C   0  0  0  0  0  0
  -19.1527  -28.8839   23.2957 C   0  0  0  0  0  0
  -18.9456  -30.1444   23.8983 C   0  0  0  0  0  0
  -17.6464  -30.6603   24.0620 C   0  0  0  0  0  0
  -25.9030  -34.9484   23.5150 C   0  0  0  0  0  0
  -16.5358  -29.9115   23.6360 C   0  0  0  0  0  0
  -16.7273  -28.6530   23.0380 C   0  0  0  0  0  0
  -26.4444  -31.6593   25.0747 C   0  0  0  0  0  0
  -25.3726  -31.3667   26.1503 C   0  0  0  0  0  0
  -27.0265  -30.3043   24.6080 C   0  0  0  0  0  0
  -27.6048  -32.4312   25.7481 C   0  0  0  0  0  0
  -27.5581  -37.1800   24.8466 C   0  0  0  0  0  0
  -21.4099  -29.3030   22.3747 N   0  0  0  0  0  0
  -26.4282  -37.3804   23.9436 N   0  0  0  0  0  0
  -24.6602  -31.0846   22.1040 N   0  0  0  0  0  0
  -23.4166  -28.8174   23.2995 O   0  0  0  0  0  0
  -28.3767  -26.7173   20.1169 O   0  0  0  0  0  0
  -26.5589  -34.8913   22.4713 O   0  0  0  0  0  0
  -23.5293  -32.1407   23.7601 O   0  0  0  0  0  0
  -28.4685  -17.9585   21.2451 C   0  0  0  0  0  0
  -29.8410  -17.9050   21.5434 C   0  0  0  0  0  0
  -29.6048  -19.9421   22.9054 C   0  0  0  0  0  0
  -28.2288  -20.0249   22.5385 C   0  0  0  0  0  0
  -27.6701  -19.0050   21.7282 C   0  0  0  0  0  0
  -30.4112  -18.8952   22.3835 C   0  0  0  0  0  0
  -30.2619  -20.9784   23.8182 C   0  0  0  0  0  0
  -30.9228  -17.3112   19.3847 C   0  0  0  0  0  0
  -27.3427  -21.2066   22.9437 C   0  0  0  0  0  0
  -27.8388  -24.5066   21.0128 C   0  0  0  0  0  0
  -27.9440  -23.5263   22.1987 C   0  0  0  0  0  0
  -28.4870  -25.8806   21.2718 C   0  0  0  0  0  0
  -30.6927  -16.8523   20.8442 C   0  0  2  0  0  0
  -30.1072  -15.5047   20.9078 N   0  0  0  0  0  0
  -27.3041  -22.2301   21.8770 N   0  3  0  0  0  0
  -26.0104  -19.0303   21.2435 Cl  0  0  0  0  0  0
  -32.1116  -18.8705   22.7301 Cl  0  0  0  0  0  0
  -31.4493  -12.3124   19.1200 H   0  0  0  0  0  0
  -30.2602  -11.2570   19.8311 H   0  0  0  0  0  0
  -29.7060  -11.7582   17.4231 H   0  0  0  0  0  0
  -29.6760  -13.4699   17.7710 H   0  0  0  0  0  0
  -27.7961  -11.3213   18.8127 H   0  0  0  0  0  0
  -27.3584  -12.6589   17.7882 H   0  0  0  0  0  0
  -27.6951  -14.2629   19.5685 H   0  0  0  0  0  0
  -28.6603  -12.0029   21.3847 H   0  0  0  0  0  0
  -28.4955  -13.6734   21.8452 H   0  0  0  0  0  0
  -25.2759   -9.5688   22.4739 H   0  0  0  0  0  0
  -24.0010   -7.4637   22.7477 H   0  0  0  0  0  0
  -21.0842   -8.8763   19.8949 H   0  0  0  0  0  0
  -22.3689  -10.9666   19.6168 H   0  0  0  0  0  0
  -21.2028   -7.6154   23.9703 H   0  0  0  0  0  0
  -21.1482   -6.0525   25.9066 H   0  0  0  0  0  0
  -22.0609   -2.7605   23.2844 H   0  0  0  0  0  0
  -22.4144  -11.9865   22.4792 H   0  0  0  0  0  0
  -21.1121  -13.1212   22.2609 H   0  0  0  0  0  0
  -24.6645  -15.8474   20.5328 H   0  0  0  0  0  0
  -26.2732  -15.6256   20.0726 H   0  0  0  0  0  0
  -26.7031  -32.5571   23.1197 H   0  0  0  0  0  0
  -24.9943  -33.9837   25.0435 H   0  0  0  0  0  0
  -22.6832  -31.3079   21.4138 H   0  0  0  0  0  0
  -23.3753  -35.9679   23.3312 H   0  0  0  0  0  0
  -24.3575  -36.8959   22.2065 H   0  0  0  0  0  0
  -23.7237  -37.6544   23.6645 H   0  0  0  0  0  0
  -26.0251  -31.6145   20.5961 H   0  0  0  0  0  0
  -26.8153  -30.9045   21.9754 H   0  0  0  0  0  0
  -28.0878  -29.1253   21.1901 H   0  0  0  0  0  0
  -26.0938  -26.0007   18.9907 H   0  0  0  0  0  0
  -23.9858  -27.3023   19.0284 H   0  0  0  0  0  0
  -23.7063  -30.6034   19.4051 H   0  0  0  0  0  0
  -22.7300  -29.2463   19.8743 H   0  0  0  0  0  0
  -25.1257  -36.1993   25.0851 H   0  0  0  0  0  0
  -20.9939  -28.3199   24.1492 H   0  0  0  0  0  0
  -20.5672  -26.2259   23.3617 H   0  0  0  0  0  0
  -21.6592  -26.7406   22.1156 H   0  0  0  0  0  0
  -19.6842  -25.6286   21.1279 H   0  0  0  0  0  0
  -19.6673  -27.3218   20.6797 H   0  0  0  0  0  0
  -17.4169  -26.6721   21.4053 H   0  0  0  0  0  0
  -18.0302  -26.0108   22.9020 H   0  0  0  0  0  0
  -19.7947  -30.7253   24.2349 H   0  0  0  0  0  0
  -17.5050  -31.6310   24.5178 H   0  0  0  0  0  0
  -15.5372  -30.3053   23.7681 H   0  0  0  0  0  0
  -15.8680  -28.0869   22.7073 H   0  0  0  0  0  0
  -24.5913  -30.7001   25.7828 H   0  0  0  0  0  0
  -24.8895  -32.2810   26.4970 H   0  0  0  0  0  0
  -25.8111  -30.8813   27.0232 H   0  0  0  0  0  0
  -26.2774  -29.6820   24.1158 H   0  0  0  0  0  0
  -27.4068  -29.7275   25.4524 H   0  0  0  0  0  0
  -27.8618  -30.4415   23.9205 H   0  0  0  0  0  0
  -27.2678  -33.3614   26.2086 H   0  0  0  0  0  0
  -28.3819  -32.6873   25.0255 H   0  0  0  0  0  0
  -28.0738  -31.8400   26.5359 H   0  0  0  0  0  0
  -28.2573  -38.0123   24.7518 H   0  0  0  0  0  0
  -28.1090  -36.2636   24.6252 H   0  0  0  0  0  0
  -27.2301  -37.1420   25.8873 H   0  0  0  0  0  0
  -20.9222  -29.8809   21.7024 H   0  0  0  0  0  0
  -26.0181  -38.2900   24.1421 H   0  0  0  0  0  0
  -28.0249  -17.2331   20.5789 H   0  0  0  0  0  0
  -29.5830  -21.4527   24.5206 H   0  0  0  0  0  0
  -30.7453  -21.7533   23.2236 H   0  0  0  0  0  0
  -31.0242  -20.5222   24.4499 H   0  0  0  0  0  0
  -31.3870  -18.2968   19.3631 H   0  0  0  0  0  0
  -29.9858  -17.3799   18.8308 H   0  0  0  0  0  0
  -31.5851  -16.6491   18.8282 H   0  0  0  0  0  0
  -27.6212  -21.6397   23.9007 H   0  0  0  0  0  0
  -26.3237  -20.8627   23.1121 H   0  0  0  0  0  0
  -26.7838  -24.6405   20.7743 H   0  0  0  0  0  0
  -28.3064  -24.0678   20.1305 H   0  0  0  0  0  0
  -27.4667  -23.9568   23.0821 H   0  0  0  0  0  0
  -28.9929  -23.3674   22.4552 H   0  0  0  0  0  0
  -29.5453  -25.7569   21.4995 H   0  0  0  0  0  0
  -28.0412  -26.3539   22.1502 H   0  0  0  0  0  0
  -31.6615  -16.7823   21.3377 H   0  0  0  0  0  0
  -29.1505  -15.4050   21.2086 H   0  0  0  0  0  0
  -26.3325  -22.3933   21.6625 H   0  0  0  0  0  0
  -27.7332  -21.8423   21.0522 H   0  0  0  0  0  0
  1 25  1  0  0  0
  1 30  2  0  0  0
  1 84  1  0  0  0
  2  3  1  0  0  0
  2 25  1  0  0  0
  2 88  1  0  0  0
  2 89  1  0  0  0
  3  4  1  0  0  0
  3 90  1  0  0  0
  3 91  1  0  0  0
  4  5  1  0  0  0
  4 92  1  0  0  0
  4 93  1  0  0  0
  5  6  1  0  0  0
  5 26  1  0  0  0
  5 94  1  0  0  0
  6 25  1  0  0  0
  6 95  1  0  0  0
  6 96  1  0  0  0
  7  8  2  0  0  0
  7 26  1  0  0  0
  7 29  1  0  0  0
  8  9  1  0  0  0
  8 22  1  0  0  0
  9 10  1  0  0  0
  9 27  2  0  0  0
 10 11  2  0  0  0
 10 15  1  0  0  0
 11 12  1  0  0  0
 11 97  1  0  0  0
 12 13  2  0  0  0
 12 98  1  0  0  0
 13 14  1  0  0  0
 13 31  1  0  0  0
 14 15  2  0  0  0
 14 99  1  0  0  0
 15100  1  0  0  0
 16 17  2  0  0  0
 16 21  1  0  0  0
 16 31  1  0  0  0
 17 18  1  0  0  0
 17101  1  0  0  0
 18 19  2  0  0  0
 18102  1  0  0  0
 19 20  1  0  0  0
 19 24  1  0  0  0
 20 21  2  0  0  0
 20103  1  0  0  0
 21 23  1  0  0  0
 22 28  1  0  0  0
 22 32  2  0  0  0
 26 27  1  0  0  0
 28104  1  0  0  0
 28105  1  0  0  0
 29106  1  0  0  0
 29107  1  0  0  0
 33 34  1  0  0  0
 33 66  1  0  0  0
 33 70  2  0  0  0
 34 36  1  0  0  0
 34 59  1  0  0  0
 34108  1  0  0  0
 35 44  2  0  0  0
 35 45  1  0  0  0
 35 68  1  0  0  0
 36 56  1  0  0  0
 36109  1  0  0  0
 37 39  1  0  0  0
 37 47  1  0  0  0
 37 66  1  0  0  0
 37110  1  0  0  0
 38 43  2  0  0  0
 38 46  1  0  0  0
 38 47  1  0  0  0
 39 64  1  0  0  0
 39 67  2  0  0  0
 40 52  1  0  0  0
 40 53  2  0  0  0
 40 58  1  0  0  0
 41111  1  0  0  0
 41112  1  0  0  0
 41113  1  0  0  0
 41 48  1  0  0  0
 42 43  1  0  0  0
 42 66  1  0  0  0
 42114  1  0  0  0
 42115  1  0  0  0
 43 44  1  0  0  0
 44116  1  0  0  0
 45 46  2  0  0  0
 45117  1  0  0  0
 46118  1  0  0  0
 47119  1  0  0  0
 47120  1  0  0  0
 48 56  1  0  0  0
 48 65  1  0  0  0
 48121  1  0  0  0
 49 50  1  0  0  0
 49 53  1  0  0  0
 49 64  1  0  0  0
 49122  1  0  0  0
 50 51  1  0  0  0
 50123  1  0  0  0
 50124  1  0  0  0
 51 52  1  0  0  0
 51125  1  0  0  0
 51126  1  0  0  0
 52127  1  0  0  0
 52128  1  0  0  0
 53 54  1  0  0  0
 54 55  2  0  0  0
 54129  1  0  0  0
 55 57  1  0  0  0
 55130  1  0  0  0
 56 69  2  0  0  0
 57 58  2  0  0  0
 57131  1  0  0  0
 58132  1  0  0  0
 59 60  1  0  0  0
 59 61  1  0  0  0
 59 62  1  0  0  0
 60133  1  0  0  0
 60134  1  0  0  0
 60135  1  0  0  0
 61136  1  0  0  0
 61137  1  0  0  0
 61138  1  0  0  0
 62139  1  0  0  0
 62140  1  0  0  0
 62141  1  0  0  0
 63 65  1  0  0  0
 63142  1  0  0  0
 63143  1  0  0  0
 63144  1  0  0  0
 64145  1  0  0  0
 65146  1  0  0  0
 68 82  1  0  0  0
 71 72  2  0  0  0
 71 75  1  0  0  0
 71147  1  0  0  0
 72 76  1  0  0  0
 72 83  1  0  0  0
 73 74  1  0  0  0
 73 76  2  0  0  0
 73 77  1  0  0  0
 74 75  2  0  0  0
 74 79  1  0  0  0
 75 86  1  0  0  0
 76 87  1  0  0  0
 77148  1  0  0  0
 77149  1  0  0  0
 77150  1  0  0  0
 78151  1  0  0  0
 78152  1  0  0  0
 78153  1  0  0  0
 78 83  1  0  0  0
 79 85  1  0  0  0
 79154  1  0  0  0
 79155  1  0  0  0
 80 81  1  0  0  0
 80 82  1  0  0  0
 80156  1  0  0  0
 80157  1  0  0  0
 81 85  1  0  0  0
 81158  1  0  0  0
 81159  1  0  0  0
 82160  1  0  0  0
 82161  1  0  0  0
 83 84  1  0  0  0
 83162  1  0  0  0
 84163  1  0  0  0
 85164  1  0  0  0
 85165  1  0  0  0
M  CHG  1  85   1
M  ISO  4   1 100  68 101  82 101  84 100
M  END
> <chiral flag>
0

> <version>
0

> <s_m_source_file>
/data/baiqing/PycharmProjects/Reinvent-master-3.2/result/LINK_invent/BTK/process_docking_weight1_custom_sum_contain_oxygen_bond_distance_aromatic_linkinvent_7_9_3/rearranged_h_0027.sdf

> <i_m_source_file_index>
35

> <r_mmod_Potential_Energy-OPLS-2005>
-274.327178955078

> <r_mmod_Stretch_Energy-OPLS-2005>
34.9743957519531

> <r_mmod_Bend_Energy-OPLS-2005>
90.7610702514648

> <r_mmod_Torsional_Energy-OPLS-2005>
224.663101196289

> <r_mmod_Improper_Torsional_Energy-OPLS-2005>
5.20798254013062

> <r_mmod_Van_der_Waal_Energy-OPLS-2005>
159.709609985352

> <r_mmod_Electrostatic_Energy-OPLS-2005>
-334.417785644531

> <r_mmod_Solvation_Energy-OPLS-2005>
-471.156768798828

> <b_mmod_Minimization_Converged-OPLS-2005>
0

> <r_mmod_RMS_Derivative-OPLS-2005>
3.31388902664185

$$$$
35
                    3D
 Structure written by MMmdl.
160168  0  0  1  0            999 V2000
  -30.6732  -14.4836   20.6691 C   0  0  0  0  0  0
  -30.4244  -12.3502   19.4146 C   0  0  0  0  0  0
  -29.4906  -12.5549   18.1982 C   0  0  0  0  0  0
  -28.0094  -12.3735   18.5958 C   0  0  0  0  0  0
  -27.6531  -13.1830   19.8672 C   0  0  2  0  0  0
  -28.6936  -12.8933   20.9725 C   0  0  0  0  0  0
  -25.2490  -13.8043   20.5544 C   0  0  0  0  0  0
  -24.1764  -13.0337   20.9185 C   0  0  0  0  0  0
  -24.6318  -11.6834   20.8735 C   0  0  0  0  0  0
  -23.8992  -10.4227   21.0406 C   0  0  0  0  0  0
  -24.3574   -9.4180   21.9189 C   0  0  0  0  0  0
  -23.6287   -8.2198   22.0766 C   0  0  0  0  0  0
  -22.4271   -8.0205   21.3557 C   0  0  0  0  0  0
  -21.9889   -9.0162   20.4665 C   0  0  0  0  0  0
  -22.7167  -10.2071   20.3061 C   0  0  0  0  0  0
  -21.6852   -6.0683   22.5284 C   0  0  0  0  0  0
  -21.3977   -6.5612   23.8201 C   0  0  0  0  0  0
  -21.3655   -5.6794   24.9174 C   0  0  0  0  0  0
  -21.6064   -4.3054   24.7268 C   0  0  0  0  0  0
  -21.8823   -3.8125   23.4389 C   0  0  0  0  0  0
  -21.9198   -4.6921   22.3434 C   0  0  0  0  0  0
  -22.7810  -13.5183   21.1878 C   0  0  0  0  0  0
  -22.1681   -4.2105   21.1017 F   0  0  0  0  0  0
  -21.5688   -3.4557   25.7794 F   0  0  0  0  0  0
  -30.0120  -13.3000   20.4664 N   0  0  0  0  0  0
  -26.2922  -12.9207   20.3239 N   0  0  0  0  0  0
  -25.9227  -11.6383   20.5715 N   0  0  0  0  0  0
  -22.0420  -12.8218   22.0456 N   0  0  0  0  0  0
  -25.4002  -15.1738   20.3745 N   0  0  0  0  0  0
  -31.7600  -14.6785   20.1079 O   0  0  0  0  0  0
  -21.6644   -6.8800   21.4237 O   0  0  0  0  0  0
  -22.3548  -14.5514   20.6768 O   0  0  0  0  0  0
  -24.6126  -31.8698   23.2095 C   0  0  0  0  0  0
  -25.9024  -32.4843   23.8392 C   0  0  1  0  0  0
  -27.2412  -27.4464   20.0966 C   0  0  0  0  0  0
  -25.5888  -33.8637   24.2341 N   0  0  0  0  0  0
  -23.3984  -30.4905   21.5525 C   0  0  2  0  0  0
  -24.8468  -28.9564   20.1148 C   0  0  0  0  0  0
  -22.7407  -29.4660   22.5038 C   0  0  0  0  0  0
  -18.0268  -28.1350   22.8509 C   0  0  0  0  0  0
  -24.1485  -36.7296   23.2639 C   0  0  0  0  0  0
  -25.9235  -30.8443   21.3531 C   0  0  0  0  0  0
  -26.0064  -29.4776   20.7017 C   0  0  0  0  0  0
  -27.2073  -28.7324   20.6814 C   0  0  0  0  0  0
  -26.0644  -26.9350   19.5075 C   0  0  0  0  0  0
  -24.8723  -27.6874   19.5086 C   0  0  0  0  0  0
  -23.6035  -29.8177   20.1674 C   0  0  0  0  0  0
  -25.4110  -36.3127   24.0352 C   0  0  1  0  0  0
  -20.5866  -28.3632   23.1340 C   0  0  2  0  0  0
  -20.6767  -26.9379   22.5417 C   0  0  0  0  0  0
  -19.5739  -26.6377   21.5212 C   0  0  0  0  0  0
  -18.1912  -26.7908   22.1617 C   0  0  0  0  0  0
  -19.1520  -28.8809   23.2915 C   0  0  0  0  0  0
  -18.9451  -30.1420   23.8915 C   0  0  0  0  0  0
  -17.6458  -30.6571   24.0553 C   0  0  0  0  0  0
  -25.9040  -34.9493   23.5152 C   0  0  0  0  0  0
  -16.5348  -29.9068   23.6330 C   0  0  0  0  0  0
  -16.7259  -28.6472   23.0376 C   0  0  0  0  0  0
  -26.4466  -31.6599   25.0690 C   0  0  0  0  0  0
  -25.3742  -31.3656   26.1436 C   0  0  0  0  0  0
  -27.0287  -30.3071   24.5986 C   0  0  0  0  0  0
  -27.6068  -32.4293   25.7440 C   0  0  0  0  0  0
  -27.5584  -37.1805   24.8483 C   0  0  0  0  0  0
  -21.4142  -29.3002   22.3760 N   0  0  0  0  0  0
  -26.4302  -37.3808   23.9426 N   0  0  0  0  0  0
  -24.6631  -31.0825   22.0973 N   0  0  0  0  0  0
  -23.4204  -28.8220   23.3069 O   0  0  0  0  0  0
  -28.4209  -26.7314   20.0879 O   0  0  0  0  0  0
  -26.5603  -34.8940   22.4715 O   0  0  0  0  0  0
  -23.5326  -32.1432   23.7520 O   0  0  0  0  0  0
  -30.3997  -18.9571   19.5325 C   0  0  0  0  0  0
  -31.1371  -17.9496   22.0350 C   0  0  0  0  0  0
  -30.9417  -19.8455   20.4890 C   0  0  0  0  0  0
  -30.5496  -17.0674   21.0973 C   0  0  0  0  0  0
  -31.3104  -19.3217   21.7531 C   0  0  0  0  0  0
  -30.1720  -17.5948   19.8318 C   0  0  0  0  0  0
  -28.6680  -15.7732   21.9989 C   0  0  0  0  0  0
  -31.1558  -21.3234   20.1199 C   0  0  0  0  0  0
  -28.8368  -24.3741   19.4093 C   0  0  0  0  0  0
  -30.1396  -23.5745   19.7227 C   0  0  0  0  0  0
  -28.3645  -25.3599   20.5127 C   0  0  0  0  0  0
  -30.1551  -15.6569   21.5919 C   0  0  1  0  0  0
  -29.9298  -22.1650   20.1690 N   0  3  0  0  0  0
  -31.9487  -20.3367   22.9977 Cl  0  0  0  0  0  0
  -29.3352  -16.6503   18.6485 Cl  0  0  0  0  0  0
  -31.4721  -12.4702   19.1299 H   0  0  0  0  0  0
  -30.3489  -11.3265   19.7849 H   0  0  0  0  0  0
  -29.7475  -11.8644   17.3958 H   0  0  0  0  0  0
  -29.6376  -13.5581   17.7930 H   0  0  0  0  0  0
  -27.8316  -11.3116   18.7674 H   0  0  0  0  0  0
  -27.3541  -12.6530   17.7709 H   0  0  0  0  0  0
  -27.7100  -14.2282   19.5774 H   0  0  0  0  0  0
  -28.6954  -11.8178   21.1665 H   0  0  0  0  0  0
  -28.4254  -13.2948   21.9367 H   0  0  0  0  0  0
  -25.2674   -9.5738   22.4813 H   0  0  0  0  0  0
  -24.0009   -7.4636   22.7537 H   0  0  0  0  0  0
  -21.0781   -8.8660   19.9037 H   0  0  0  0  0  0
  -22.3537  -10.9627   19.6228 H   0  0  0  0  0  0
  -21.1930   -7.6128   23.9681 H   0  0  0  0  0  0
  -21.1493   -6.0532   25.9081 H   0  0  0  0  0  0
  -22.0628   -2.7592   23.2925 H   0  0  0  0  0  0
  -22.3988  -11.9916   22.4939 H   0  0  0  0  0  0
  -21.1085  -13.1360   22.2695 H   0  0  0  0  0  0
  -24.5974  -15.7918   20.4206 H   0  0  0  0  0  0
  -26.2064  -15.6169   19.9540 H   0  0  0  0  0  0
  -26.7096  -32.5583   23.1165 H   0  0  0  0  0  0
  -25.0070  -33.9797   25.0510 H   0  0  0  0  0  0
  -22.6832  -31.3048   21.4161 H   0  0  0  0  0  0
  -23.3776  -35.9601   23.3323 H   0  0  0  0  0  0
  -24.3584  -36.8876   22.2047 H   0  0  0  0  0  0
  -23.7196  -37.6495   23.6625 H   0  0  0  0  0  0
  -26.0244  -31.6116   20.5835 H   0  0  0  0  0  0
  -26.8151  -30.9073   21.9653 H   0  0  0  0  0  0
  -28.1088  -29.1380   21.1206 H   0  0  0  0  0  0
  -26.0689  -25.9613   19.0404 H   0  0  0  0  0  0
  -23.9820  -27.2861   19.0433 H   0  0  0  0  0  0
  -23.6946  -30.5904   19.4022 H   0  0  0  0  0  0
  -22.7276  -29.2310   19.8834 H   0  0  0  0  0  0
  -25.1281  -36.2008   25.0846 H   0  0  0  0  0  0
  -20.9945  -28.3179   24.1468 H   0  0  0  0  0  0
  -20.5689  -26.2226   23.3594 H   0  0  0  0  0  0
  -21.6634  -26.7438   22.1195 H   0  0  0  0  0  0
  -19.6906  -25.6298   21.1205 H   0  0  0  0  0  0
  -19.6674  -27.3221   20.6774 H   0  0  0  0  0  0
  -17.4195  -26.6686   21.4003 H   0  0  0  0  0  0
  -18.0290  -26.0013   22.8975 H   0  0  0  0  0  0
  -19.7931  -30.7220   24.2302 H   0  0  0  0  0  0
  -17.5016  -31.6260   24.5130 H   0  0  0  0  0  0
  -15.5352  -30.2974   23.7639 H   0  0  0  0  0  0
  -15.8655  -28.0776   22.7128 H   0  0  0  0  0  0
  -24.5975  -30.6934   25.7769 H   0  0  0  0  0  0
  -24.8848  -32.2771   26.4872 H   0  0  0  0  0  0
  -25.8110  -30.8854   27.0201 H   0  0  0  0  0  0
  -26.2778  -29.6817   24.1135 H   0  0  0  0  0  0
  -27.4228  -29.7306   25.4368 H   0  0  0  0  0  0
  -27.8539  -30.4447   23.8990 H   0  0  0  0  0  0
  -27.2747  -33.3632   26.1990 H   0  0  0  0  0  0
  -28.3884  -32.6775   25.0245 H   0  0  0  0  0  0
  -28.0717  -31.8409   26.5363 H   0  0  0  0  0  0
  -28.2631  -38.0074   24.7546 H   0  0  0  0  0  0
  -28.1047  -36.2620   24.6310 H   0  0  0  0  0  0
  -27.2300  -37.1455   25.8881 H   0  0  0  0  0  0
  -20.9312  -29.8686   21.6949 H   0  0  0  0  0  0
  -26.0206  -38.2894   24.1427 H   0  0  0  0  0  0
  -30.1101  -19.3256   18.5590 H   0  0  0  0  0  0
  -31.4005  -17.5862   23.0191 H   0  0  0  0  0  0
  -28.4111  -15.1240   22.8332 H   0  0  0  0  0  0
  -27.9780  -15.6316   21.1735 H   0  0  0  0  0  0
  -28.4572  -16.7757   22.3735 H   0  0  0  0  0  0
  -31.5548  -21.3442   19.1055 H   0  0  0  0  0  0
  -31.9278  -21.7717   20.7452 H   0  0  0  0  0  0
  -28.0264  -23.6944   19.1357 H   0  0  0  0  0  0
  -29.0169  -24.9565   18.5042 H   0  0  0  0  0  0
  -30.7628  -24.1117   20.4427 H   0  0  0  0  0  0
  -30.7278  -23.5390   18.8038 H   0  0  0  0  0  0
  -29.0110  -25.2823   21.3883 H   0  0  0  0  0  0
  -27.3746  -25.0782   20.8750 H   0  0  0  0  0  0
  -30.7010  -15.4928   22.5212 H   0  0  0  0  0  0
  -29.5677  -22.1675   21.1080 H   0  0  0  0  0  0
  -29.2436  -21.7282   19.5764 H   0  0  0  0  0  0
  1 25  1  0  0  0
  1 30  2  0  0  0
  1 82  1  0  0  0
  2  3  1  0  0  0
  2 25  1  0  0  0
  2 86  1  0  0  0
  2 87  1  0  0  0
  3  4  1  0  0  0
  3 88  1  0  0  0
  3 89  1  0  0  0
  4  5  1  0  0  0
  4 90  1  0  0  0
  4 91  1  0  0  0
  5  6  1  0  0  0
  5 26  1  0  0  0
  5 92  1  0  0  0
  6 25  1  0  0  0
  6 93  1  0  0  0
  6 94  1  0  0  0
  7  8  2  0  0  0
  7 26  1  0  0  0
  7 29  1  0  0  0
  8  9  1  0  0  0
  8 22  1  0  0  0
  9 10  1  0  0  0
  9 27  2  0  0  0
 10 11  2  0  0  0
 10 15  1  0  0  0
 11 12  1  0  0  0
 11 95  1  0  0  0
 12 13  2  0  0  0
 12 96  1  0  0  0
 13 14  1  0  0  0
 13 31  1  0  0  0
 14 15  2  0  0  0
 14 97  1  0  0  0
 15 98  1  0  0  0
 16 17  2  0  0  0
 16 21  1  0  0  0
 16 31  1  0  0  0
 17 18  1  0  0  0
 17 99  1  0  0  0
 18 19  2  0  0  0
 18100  1  0  0  0
 19 20  1  0  0  0
 19 24  1  0  0  0
 20 21  2  0  0  0
 20101  1  0  0  0
 21 23  1  0  0  0
 22 28  1  0  0  0
 22 32  2  0  0  0
 26 27  1  0  0  0
 28102  1  0  0  0
 28103  1  0  0  0
 29104  1  0  0  0
 29105  1  0  0  0
 33 34  1  0  0  0
 33 66  1  0  0  0
 33 70  2  0  0  0
 34 36  1  0  0  0
 34 59  1  0  0  0
 34106  1  0  0  0
 35 44  2  0  0  0
 35 45  1  0  0  0
 35 68  1  0  0  0
 36 56  1  0  0  0
 36107  1  0  0  0
 37 39  1  0  0  0
 37 47  1  0  0  0
 37 66  1  0  0  0
 37108  1  0  0  0
 38 43  2  0  0  0
 38 46  1  0  0  0
 38 47  1  0  0  0
 39 64  1  0  0  0
 39 67  2  0  0  0
 40 52  1  0  0  0
 40 53  2  0  0  0
 40 58  1  0  0  0
 41109  1  0  0  0
 41110  1  0  0  0
 41111  1  0  0  0
 41 48  1  0  0  0
 42 43  1  0  0  0
 42 66  1  0  0  0
 42112  1  0  0  0
 42113  1  0  0  0
 43 44  1  0  0  0
 44114  1  0  0  0
 45 46  2  0  0  0
 45115  1  0  0  0
 46116  1  0  0  0
 47117  1  0  0  0
 47118  1  0  0  0
 48 56  1  0  0  0
 48 65  1  0  0  0
 48119  1  0  0  0
 49 50  1  0  0  0
 49 53  1  0  0  0
 49 64  1  0  0  0
 49120  1  0  0  0
 50 51  1  0  0  0
 50121  1  0  0  0
 50122  1  0  0  0
 51 52  1  0  0  0
 51123  1  0  0  0
 51124  1  0  0  0
 52125  1  0  0  0
 52126  1  0  0  0
 53 54  1  0  0  0
 54 55  2  0  0  0
 54127  1  0  0  0
 55 57  1  0  0  0
 55128  1  0  0  0
 56 69  2  0  0  0
 57 58  2  0  0  0
 57129  1  0  0  0
 58130  1  0  0  0
 59 60  1  0  0  0
 59 61  1  0  0  0
 59 62  1  0  0  0
 60131  1  0  0  0
 60132  1  0  0  0
 60133  1  0  0  0
 61134  1  0  0  0
 61135  1  0  0  0
 61136  1  0  0  0
 62137  1  0  0  0
 62138  1  0  0  0
 62139  1  0  0  0
 63 65  1  0  0  0
 63140  1  0  0  0
 63141  1  0  0  0
 63142  1  0  0  0
 64143  1  0  0  0
 65144  1  0  0  0
 68 81  1  0  0  0
 71 73  2  0  0  0
 71 76  1  0  0  0
 71145  1  0  0  0
 72 74  1  0  0  0
 72 75  2  0  0  0
 72146  1  0  0  0
 73 75  1  0  0  0
 73 78  1  0  0  0
 74 76  2  0  0  0
 74 82  1  0  0  0
 75 84  1  0  0  0
 76 85  1  0  0  0
 77147  1  0  0  0
 77148  1  0  0  0
 77149  1  0  0  0
 77 82  1  0  0  0
 78 83  1  0  0  0
 78150  1  0  0  0
 78151  1  0  0  0
 79 80  1  0  0  0
 79 81  1  0  0  0
 79152  1  0  0  0
 79153  1  0  0  0
 80 83  1  0  0  0
 80154  1  0  0  0
 80155  1  0  0  0
 81156  1  0  0  0
 81157  1  0  0  0
 82158  1  0  0  0
 83159  1  0  0  0
 83160  1  0  0  0
M  CHG  1  83   1
M  ISO  4   1 100  68 101  81 101  82 100
M  END
> <chiral flag>
0

> <version>
0

> <s_m_source_file>
/data/baiqing/PycharmProjects/Reinvent-master-3.2/result/LINK_invent/BTK/process_docking_weight1_custom_sum_contain_oxygen_bond_distance_aromatic_linkinvent_7_9_3/rearranged_h_0027.sdf

> <i_m_source_file_index>
36

> <r_mmod_Potential_Energy-OPLS-2005>
-160.135940551758

> <r_mmod_Stretch_Energy-OPLS-2005>
45.5853271484375

> <r_mmod_Bend_Energy-OPLS-2005>
130.911361694336

> <r_mmod_Torsional_Energy-OPLS-2005>
216.799072265625

> <r_mmod_Improper_Torsional_Energy-OPLS-2005>
3.86320304870605

> <r_mmod_Van_der_Waal_Energy-OPLS-2005>
155.104751586914

> <r_mmod_Electrostatic_Energy-OPLS-2005>
-264.588592529297

> <r_mmod_Solvation_Energy-OPLS-2005>
-460.947387695312

> <b_mmod_Minimization_Converged-OPLS-2005>
0

> <r_mmod_RMS_Derivative-OPLS-2005>
4.53897380828857

$$$$
36
                    3D
 Structure written by MMmdl.
150158  0  0  1  0            999 V2000
  -30.5862  -14.8909   20.4480 C   0  0  0  0  0  0
  -30.4361  -12.5754   19.4481 C   0  0  0  0  0  0
  -29.4882  -12.4926   18.2236 C   0  0  0  0  0  0
  -28.0372  -12.2695   18.6739 C   0  0  0  0  0  0
  -27.6198  -13.2346   19.8119 C   0  0  2  0  0  0
  -28.6748  -13.2932   20.9403 C   0  0  0  0  0  0
  -25.2491  -13.8256   20.5773 C   0  0  0  0  0  0
  -24.1784  -13.0452   20.9224 C   0  0  0  0  0  0
  -24.6350  -11.6954   20.8780 C   0  0  0  0  0  0
  -23.9053  -10.4300   21.0425 C   0  0  0  0  0  0
  -24.3589   -9.4217   21.9196 C   0  0  0  0  0  0
  -23.6274   -8.2251   22.0778 C   0  0  0  0  0  0
  -22.4283   -8.0272   21.3567 C   0  0  0  0  0  0
  -21.9875   -9.0260   20.4677 C   0  0  0  0  0  0
  -22.7205  -10.2135   20.3073 C   0  0  0  0  0  0
  -21.6821   -6.0708   22.5290 C   0  0  0  0  0  0
  -21.4034   -6.5639   23.8220 C   0  0  0  0  0  0
  -21.3634   -5.6790   24.9172 C   0  0  0  0  0  0
  -21.6069   -4.3064   24.7230 C   0  0  0  0  0  0
  -21.8796   -3.8133   23.4352 C   0  0  0  0  0  0
  -21.9216   -4.6947   22.3400 C   0  0  0  0  0  0
  -22.7774  -13.5231   21.1871 C   0  0  0  0  0  0
  -22.1669   -4.2141   21.0965 F   0  0  0  0  0  0
  -21.5624   -3.4530   25.7729 F   0  0  0  0  0  0
  -29.9490  -13.6673   20.3316 N   0  0  0  0  0  0
  -26.2855  -12.9409   20.3192 N   0  0  0  0  0  0
  -25.9286  -11.6603   20.5781 N   0  0  0  0  0  0
  -22.0415  -12.8267   22.0429 N   0  0  0  0  0  0
  -25.4190  -15.1926   20.4278 N   0  0  0  0  0  0
  -31.8065  -14.9282   20.2683 O   0  0  0  0  0  0
  -21.6644   -6.8864   21.4264 O   0  0  0  0  0  0
  -22.3483  -14.5530   20.6678 O   0  0  0  0  0  0
  -24.6442  -31.8464   23.1899 C   0  0  0  0  0  0
  -25.9226  -32.4725   23.8299 C   0  0  1  0  0  0
  -27.2460  -27.1847   20.2006 C   0  0  0  0  0  0
  -25.6005  -33.8524   24.2266 N   0  0  0  0  0  0
  -23.4445  -30.4670   21.5330 C   0  0  2  0  0  0
  -24.9017  -28.8904   20.1257 C   0  0  0  0  0  0
  -22.7540  -29.4615   22.4929 C   0  0  0  0  0  0
  -18.0299  -28.1391   22.8502 C   0  0  0  0  0  0
  -24.1471  -36.7212   23.2635 C   0  0  0  0  0  0
  -25.9916  -30.7488   21.3696 C   0  0  0  0  0  0
  -26.0779  -29.3590   20.7285 C   0  0  0  0  0  0
  -27.2548  -28.5316   20.7306 C   0  0  0  0  0  0
  -26.0416  -26.7907   19.5742 C   0  0  0  0  0  0
  -24.8892  -27.6110   19.5435 C   0  0  0  0  0  0
  -23.6713  -29.7854   20.1578 C   0  0  0  0  0  0
  -25.4109  -36.3034   24.0345 C   0  0  1  0  0  0
  -20.5912  -28.3727   23.1227 C   0  0  2  0  0  0
  -20.6792  -26.9436   22.5406 C   0  0  0  0  0  0
  -19.5748  -26.6405   21.5199 C   0  0  0  0  0  0
  -18.1936  -26.7951   22.1608 C   0  0  0  0  0  0
  -19.1551  -28.8882   23.2866 C   0  0  0  0  0  0
  -18.9461  -30.1473   23.8901 C   0  0  0  0  0  0
  -17.6454  -30.6596   24.0574 C   0  0  0  0  0  0
  -25.9061  -34.9442   23.5100 C   0  0  0  0  0  0
  -16.5359  -29.9086   23.6317 C   0  0  0  0  0  0
  -16.7278  -28.6488   23.0381 C   0  0  0  0  0  0
  -26.4574  -31.6569   25.0722 C   0  0  0  0  0  0
  -25.3819  -31.3735   26.1465 C   0  0  0  0  0  0
  -27.0456  -30.2986   24.6250 C   0  0  0  0  0  0
  -27.6111  -32.4334   25.7523 C   0  0  0  0  0  0
  -27.5563  -37.1767   24.8485 C   0  0  0  0  0  0
  -21.4245  -29.3066   22.3616 N   0  0  0  0  0  0
  -26.4269  -37.3747   23.9447 N   0  0  0  0  0  0
  -24.7117  -31.0424   22.0864 N   0  0  0  0  0  0
  -23.4197  -28.8176   23.3097 O   0  0  0  0  0  0
  -28.3587  -26.2836   20.2435 O   0  0  0  0  0  0
  -26.5581  -34.8911   22.4643 O   0  0  0  0  0  0
  -23.5570  -32.1333   23.7175 O   0  0  0  0  0  0
  -30.7670  -21.4141   20.5734 C   0  0  0  0  0  0
  -28.6594  -19.6490   20.8028 C   0  0  0  0  0  0
  -29.4868  -22.0571   20.5370 C   0  0  0  0  0  0
  -29.9523  -19.0171   20.8057 C   0  0  0  0  0  0
  -28.4275  -21.0935   20.6682 C   0  0  0  0  0  0
  -30.9967  -19.9958   20.7090 C   0  0  0  0  0  0
  -29.4057  -23.6771   20.2554 C   0  0  0  0  0  0
  -30.2667  -17.4440   21.2129 C   0  0  0  0  0  0
  -28.2191  -24.7863   20.5958 C   0  0  0  0  0  0
  -29.8468  -16.0855   20.5916 N   0  0  0  0  0  0
  -26.7967  -21.6616   20.7066 Cl  0  0  0  0  0  0
  -32.6491  -19.4932   20.8229 Cl  0  0  0  0  0  0
  -31.4574  -12.7428   19.1002 H   0  0  0  0  0  0
  -30.4450  -11.6317   20.0010 H   0  0  0  0  0  0
  -29.7995  -11.6841   17.5580 H   0  0  0  0  0  0
  -29.5507  -13.4086   17.6292 H   0  0  0  0  0  0
  -27.9644  -11.2404   19.0265 H   0  0  0  0  0  0
  -27.3507  -12.3514   17.8275 H   0  0  0  0  0  0
  -27.5698  -14.2193   19.3503 H   0  0  0  0  0  0
  -28.7726  -12.3385   21.4608 H   0  0  0  0  0  0
  -28.3792  -14.0393   21.6796 H   0  0  0  0  0  0
  -25.2711   -9.5694   22.4786 H   0  0  0  0  0  0
  -23.9987   -7.4639   22.7474 H   0  0  0  0  0  0
  -21.0796   -8.8761   19.8963 H   0  0  0  0  0  0
  -22.3647  -10.9689   19.6184 H   0  0  0  0  0  0
  -21.2022   -7.6148   23.9718 H   0  0  0  0  0  0
  -21.1476   -6.0517   25.9083 H   0  0  0  0  0  0
  -22.0591   -2.7598   23.2846 H   0  0  0  0  0  0
  -22.4065  -11.9928   22.4815 H   0  0  0  0  0  0
  -21.1033  -13.1332   22.2671 H   0  0  0  0  0  0
  -24.6575  -15.8488   20.5634 H   0  0  0  0  0  0
  -26.2803  -15.6415   20.1503 H   0  0  0  0  0  0
  -26.7347  -32.5370   23.1084 H   0  0  0  0  0  0
  -25.0316  -33.9634   25.0522 H   0  0  0  0  0  0
  -22.7473  -31.2951   21.3767 H   0  0  0  0  0  0
  -23.3751  -35.9512   23.3289 H   0  0  0  0  0  0
  -24.3564  -36.8800   22.2042 H   0  0  0  0  0  0
  -23.7188  -37.6417   23.6614 H   0  0  0  0  0  0
  -26.1279  -31.5040   20.5939 H   0  0  0  0  0  0
  -26.8658  -30.8113   22.0026 H   0  0  0  0  0  0
  -28.1527  -28.8989   21.2100 H   0  0  0  0  0  0
  -25.9723  -25.8028   19.1363 H   0  0  0  0  0  0
  -23.9819  -27.2330   19.0855 H   0  0  0  0  0  0
  -23.8025  -30.5548   19.3948 H   0  0  0  0  0  0
  -22.7811  -29.2278   19.8556 H   0  0  0  0  0  0
  -25.1280  -36.1864   25.0829 H   0  0  0  0  0  0
  -21.0022  -28.3287   24.1337 H   0  0  0  0  0  0
  -20.5648  -26.2341   23.3630 H   0  0  0  0  0  0
  -21.6668  -26.7442   22.1195 H   0  0  0  0  0  0
  -19.6904  -25.6299   21.1275 H   0  0  0  0  0  0
  -19.6676  -27.3197   20.6716 H   0  0  0  0  0  0
  -17.4220  -26.6743   21.3983 H   0  0  0  0  0  0
  -18.0278  -26.0075   22.8955 H   0  0  0  0  0  0
  -19.7937  -30.7275   24.2293 H   0  0  0  0  0  0
  -17.5013  -31.6266   24.5191 H   0  0  0  0  0  0
  -15.5359  -30.2999   23.7640 H   0  0  0  0  0  0
  -15.8678  -28.0796   22.7126 H   0  0  0  0  0  0
  -24.6000  -30.7046   25.7833 H   0  0  0  0  0  0
  -24.9014  -32.2913   26.4861 H   0  0  0  0  0  0
  -25.8184  -30.8972   27.0261 H   0  0  0  0  0  0
  -26.3064  -29.6709   24.1254 H   0  0  0  0  0  0
  -27.4113  -29.7270   25.4793 H   0  0  0  0  0  0
  -27.8942  -30.4252   23.9529 H   0  0  0  0  0  0
  -27.2686  -33.3622   26.2088 H   0  0  0  0  0  0
  -28.3941  -32.6922   25.0388 H   0  0  0  0  0  0
  -28.0778  -31.8500   26.5465 H   0  0  0  0  0  0
  -28.2625  -38.0004   24.7517 H   0  0  0  0  0  0
  -28.1008  -36.2580   24.6334 H   0  0  0  0  0  0
  -27.2303  -37.1457   25.8879 H   0  0  0  0  0  0
  -20.9435  -29.8706   21.6746 H   0  0  0  0  0  0
  -26.0142  -38.2815   24.1411 H   0  0  0  0  0  0
  -31.6385  -22.0557   20.5146 H   0  0  0  0  0  0
  -27.7918  -19.0172   20.9576 H   0  0  0  0  0  0
  -29.5652  -23.7572   19.1788 H   0  0  0  0  0  0
  -30.3070  -24.0834   20.7246 H   0  0  0  0  0  0
  -29.7315  -17.3742   22.1578 H   0  0  0  0  0  0
  -31.3208  -17.3437   21.4834 H   0  0  0  0  0  0
  -27.2978  -24.4074   20.1677 H   0  0  0  0  0  0
  -28.0951  -24.7705   21.6817 H   0  0  0  0  0  0
  -28.8428  -15.9410   20.5439 H   0  0  0  0  0  0
  1 25  1  0  0  0
  1 30  2  0  0  0
  1 80  1  0  0  0
  2  3  1  0  0  0
  2 25  1  0  0  0
  2 83  1  0  0  0
  2 84  1  0  0  0
  3  4  1  0  0  0
  3 85  1  0  0  0
  3 86  1  0  0  0
  4  5  1  0  0  0
  4 87  1  0  0  0
  4 88  1  0  0  0
  5  6  1  0  0  0
  5 26  1  0  0  0
  5 89  1  0  0  0
  6 25  1  0  0  0
  6 90  1  0  0  0
  6 91  1  0  0  0
  7  8  2  0  0  0
  7 26  1  0  0  0
  7 29  1  0  0  0
  8  9  1  0  0  0
  8 22  1  0  0  0
  9 10  1  0  0  0
  9 27  2  0  0  0
 10 11  2  0  0  0
 10 15  1  0  0  0
 11 12  1  0  0  0
 11 92  1  0  0  0
 12 13  2  0  0  0
 12 93  1  0  0  0
 13 14  1  0  0  0
 13 31  1  0  0  0
 14 15  2  0  0  0
 14 94  1  0  0  0
 15 95  1  0  0  0
 16 17  2  0  0  0
 16 21  1  0  0  0
 16 31  1  0  0  0
 17 18  1  0  0  0
 17 96  1  0  0  0
 18 19  2  0  0  0
 18 97  1  0  0  0
 19 20  1  0  0  0
 19 24  1  0  0  0
 20 21  2  0  0  0
 20 98  1  0  0  0
 21 23  1  0  0  0
 22 28  1  0  0  0
 22 32  2  0  0  0
 26 27  1  0  0  0
 28 99  1  0  0  0
 28100  1  0  0  0
 29101  1  0  0  0
 29102  1  0  0  0
 33 34  1  0  0  0
 33 66  1  0  0  0
 33 70  2  0  0  0
 34 36  1  0  0  0
 34 59  1  0  0  0
 34103  1  0  0  0
 35 44  2  0  0  0
 35 45  1  0  0  0
 35 68  1  0  0  0
 36 56  1  0  0  0
 36104  1  0  0  0
 37 39  1  0  0  0
 37 47  1  0  0  0
 37 66  1  0  0  0
 37105  1  0  0  0
 38 43  2  0  0  0
 38 46  1  0  0  0
 38 47  1  0  0  0
 39 64  1  0  0  0
 39 67  2  0  0  0
 40 52  1  0  0  0
 40 53  2  0  0  0
 40 58  1  0  0  0
 41106  1  0  0  0
 41107  1  0  0  0
 41108  1  0  0  0
 41 48  1  0  0  0
 42 43  1  0  0  0
 42 66  1  0  0  0
 42109  1  0  0  0
 42110  1  0  0  0
 43 44  1  0  0  0
 44111  1  0  0  0
 45 46  2  0  0  0
 45112  1  0  0  0
 46113  1  0  0  0
 47114  1  0  0  0
 47115  1  0  0  0
 48 56  1  0  0  0
 48 65  1  0  0  0
 48116  1  0  0  0
 49 50  1  0  0  0
 49 53  1  0  0  0
 49 64  1  0  0  0
 49117  1  0  0  0
 50 51  1  0  0  0
 50118  1  0  0  0
 50119  1  0  0  0
 51 52  1  0  0  0
 51120  1  0  0  0
 51121  1  0  0  0
 52122  1  0  0  0
 52123  1  0  0  0
 53 54  1  0  0  0
 54 55  2  0  0  0
 54124  1  0  0  0
 55 57  1  0  0  0
 55125  1  0  0  0
 56 69  2  0  0  0
 57 58  2  0  0  0
 57126  1  0  0  0
 58127  1  0  0  0
 59 60  1  0  0  0
 59 61  1  0  0  0
 59 62  1  0  0  0
 60128  1  0  0  0
 60129  1  0  0  0
 60130  1  0  0  0
 61131  1  0  0  0
 61132  1  0  0  0
 61133  1  0  0  0
 62134  1  0  0  0
 62135  1  0  0  0
 62136  1  0  0  0
 63 65  1  0  0  0
 63137  1  0  0  0
 63138  1  0  0  0
 63139  1  0  0  0
 64140  1  0  0  0
 65141  1  0  0  0
 68 79  1  0  0  0
 71 73  2  0  0  0
 71 76  1  0  0  0
 71142  1  0  0  0
 72 74  1  0  0  0
 72 75  2  0  0  0
 72143  1  0  0  0
 73 75  1  0  0  0
 73 77  1  0  0  0
 74 76  2  0  0  0
 74 78  1  0  0  0
 75 81  1  0  0  0
 76 82  1  0  0  0
 77 79  1  0  0  0
 77144  1  0  0  0
 77145  1  0  0  0
 78 80  1  0  0  0
 78146  1  0  0  0
 78147  1  0  0  0
 79148  1  0  0  0
 79149  1  0  0  0
 80150  1  0  0  0
M  ISO  4   1 100  68 101  79 101  80 100
M  END
> <chiral flag>
0

> <version>
0

> <s_m_source_file>
/data/baiqing/PycharmProjects/Reinvent-master-3.2/result/LINK_invent/BTK/process_docking_weight1_custom_sum_contain_oxygen_bond_distance_aromatic_linkinvent_7_9_3/rearranged_h_0027.sdf

> <i_m_source_file_index>
37

> <r_mmod_Potential_Energy-OPLS-2005>
374.754852294922

> <r_mmod_Stretch_Energy-OPLS-2005>
199.72770690918

> <r_mmod_Bend_Energy-OPLS-2005>
256.817016601562

> <r_mmod_Torsional_Energy-OPLS-2005>
230.235488891602

> <r_mmod_Improper_Torsional_Energy-OPLS-2005>
6.81293201446533

> <r_mmod_Van_der_Waal_Energy-OPLS-2005>
129.319915771484

> <r_mmod_Electrostatic_Energy-OPLS-2005>
-391.130706787109

> <r_mmod_Solvation_Energy-OPLS-2005>
-215.869079589844

> <b_mmod_Minimization_Converged-OPLS-2005>
0

> <r_mmod_RMS_Derivative-OPLS-2005>
12.9325256347656

$$$$
37
                    3D
 Structure written by MMmdl.
178186  0  0  1  0            999 V2000
  -30.8412  -14.2179   20.8002 C   0  0  0  0  0  0
  -30.4126  -12.2754   19.3470 C   0  0  0  0  0  0
  -29.4675  -12.5383   18.1654 C   0  0  0  0  0  0
  -27.9996  -12.3816   18.5959 C   0  0  0  0  0  0
  -27.6684  -13.1962   19.8717 C   0  0  2  0  0  0
  -28.7042  -12.9208   20.9816 C   0  0  0  0  0  0
  -25.2631  -13.8145   20.5666 C   0  0  0  0  0  0
  -24.1881  -13.0440   20.9146 C   0  0  0  0  0  0
  -24.6420  -11.6898   20.8718 C   0  0  0  0  0  0
  -23.9077  -10.4296   21.0398 C   0  0  0  0  0  0
  -24.3624   -9.4212   21.9183 C   0  0  0  0  0  0
  -23.6296   -8.2250   22.0765 C   0  0  0  0  0  0
  -22.4283   -8.0295   21.3537 C   0  0  0  0  0  0
  -21.9931   -9.0254   20.4617 C   0  0  0  0  0  0
  -22.7262  -10.2135   20.3034 C   0  0  0  0  0  0
  -21.6854   -6.0757   22.5280 C   0  0  0  0  0  0
  -21.4004   -6.5646   23.8217 C   0  0  0  0  0  0
  -21.3651   -5.6796   24.9173 C   0  0  0  0  0  0
  -21.6036   -4.3056   24.7221 C   0  0  0  0  0  0
  -21.8817   -3.8166   23.4335 C   0  0  0  0  0  0
  -21.9196   -4.6989   22.3397 C   0  0  0  0  0  0
  -22.7897  -13.5220   21.1836 C   0  0  0  0  0  0
  -22.1668   -4.2179   21.0971 F   0  0  0  0  0  0
  -21.5623   -3.4535   25.7728 F   0  0  0  0  0  0
  -30.0605  -13.1728   20.4527 N   0  0  0  0  0  0
  -26.3070  -12.9306   20.3334 N   0  0  0  0  0  0
  -25.9328  -11.6472   20.5712 N   0  0  0  0  0  0
  -22.0555  -12.8189   22.0376 N   0  0  0  0  0  0
  -25.4368  -15.1867   20.4096 N   0  0  0  0  0  0
  -31.7304  -14.6968   20.0863 O   0  0  0  0  0  0
  -21.6630   -6.8911   21.4245 O   0  0  0  0  0  0
  -22.3560  -14.5536   20.6726 O   0  0  0  0  0  0
  -24.6099  -31.8722   23.2170 C   0  0  0  0  0  0
  -25.9003  -32.4833   23.8465 C   0  0  1  0  0  0
  -27.2359  -27.4904   20.0263 C   0  0  0  0  0  0
  -25.5911  -33.8648   24.2403 N   0  0  0  0  0  0
  -23.3960  -30.5013   21.5583 C   0  0  2  0  0  0
  -24.8364  -28.9730   20.1251 C   0  0  0  0  0  0
  -22.7347  -29.4727   22.5031 C   0  0  0  0  0  0
  -18.0269  -28.1355   22.8530 C   0  0  0  0  0  0
  -24.1475  -36.7323   23.2650 C   0  0  0  0  0  0
  -25.9269  -30.8425   21.3701 C   0  0  0  0  0  0
  -26.0021  -29.4838   20.7136 C   0  0  0  0  0  0
  -27.2066  -28.7459   20.6707 C   0  0  0  0  0  0
  -26.0395  -26.9742   19.4938 C   0  0  0  0  0  0
  -24.8459  -27.7072   19.5248 C   0  0  0  0  0  0
  -23.5980  -29.8345   20.1772 C   0  0  0  0  0  0
  -25.4097  -36.3110   24.0347 C   0  0  1  0  0  0
  -20.5862  -28.3684   23.1305 C   0  0  2  0  0  0
  -20.6781  -26.9441   22.5362 C   0  0  0  0  0  0
  -19.5737  -26.6401   21.5194 C   0  0  0  0  0  0
  -18.1924  -26.7930   22.1638 C   0  0  0  0  0  0
  -19.1508  -28.8832   23.2929 C   0  0  0  0  0  0
  -18.9445  -30.1463   23.8925 C   0  0  0  0  0  0
  -17.6455  -30.6600   24.0571 C   0  0  0  0  0  0
  -25.9045  -34.9473   23.5172 C   0  0  0  0  0  0
  -16.5359  -29.9068   23.6341 C   0  0  0  0  0  0
  -16.7264  -28.6462   23.0421 C   0  0  0  0  0  0
  -26.4499  -31.6580   25.0750 C   0  0  0  0  0  0
  -25.3807  -31.3503   26.1464 C   0  0  0  0  0  0
  -27.0424  -30.3066   24.6094 C   0  0  0  0  0  0
  -27.6052  -32.4309   25.7555 C   0  0  0  0  0  0
  -27.5572  -37.1816   24.8486 C   0  0  0  0  0  0
  -21.4089  -29.3094   22.3747 N   0  0  0  0  0  0
  -26.4289  -37.3790   23.9414 N   0  0  0  0  0  0
  -24.6620  -31.0840   22.1068 N   0  0  0  0  0  0
  -23.4131  -28.8242   23.3032 O   0  0  0  0  0  0
  -28.4161  -26.7979   19.8951 O   0  0  0  0  0  0
  -26.5577  -34.8904   22.4714 O   0  0  0  0  0  0
  -23.5279  -32.1489   23.7535 O   0  0  0  0  0  0
  -25.9240  -23.0952   18.8430 C   0  0  0  0  0  0
  -26.6980  -23.1252   17.6677 C   0  0  0  0  0  0
  -25.5648  -21.8813   19.4421 C   0  0  0  0  0  0
  -26.9363  -21.9201   16.9558 C   0  0  0  0  0  0
  -26.5544  -20.6841   17.5464 C   0  0  0  0  0  0
  -25.9758  -20.6765   18.8413 C   0  0  0  0  0  0
  -24.8325  -21.8926   20.7737 C   0  0  0  0  0  0
  -27.6587  -21.9547   15.6136 C   0  0  0  0  0  0
  -26.8203  -19.3591   16.8386 C   0  0  0  0  0  0
  -27.3436  -24.4597   17.3048 C   0  0  0  0  0  0
  -28.4179  -24.8335   18.3659 C   0  0  0  0  0  0
  -29.2688  -17.0438   22.5135 C   0  0  0  0  0  0
  -28.7724  -18.3816   21.9552 C   0  0  0  0  0  0
  -30.8104  -16.9778   22.5581 C   0  0  0  0  0  0
  -27.4228  -18.2802   21.2172 C   0  0  0  0  0  0
  -31.3834  -15.5807   22.8451 C   0  0  0  0  0  0
  -28.7077  -26.3350   18.5601 C   0  0  0  0  0  0
  -27.2412  -19.5003   20.3144 C   0  0  0  0  0  0
  -30.6954  -14.5449   22.0884 N   0  0  0  0  0  0
  -25.9996  -19.5375   19.6042 O   0  0  0  0  0  0
  -31.4519  -12.3954   19.0335 H   0  0  0  0  0  0
  -30.3220  -11.2406   19.6821 H   0  0  0  0  0  0
  -29.6930  -11.8561   17.3438 H   0  0  0  0  0  0
  -29.6301  -13.5453   17.7811 H   0  0  0  0  0  0
  -27.8119  -11.3215   18.7699 H   0  0  0  0  0  0
  -27.3385  -12.6765   17.7804 H   0  0  0  0  0  0
  -27.7355  -14.2507   19.6049 H   0  0  0  0  0  0
  -28.6408  -11.8828   21.3115 H   0  0  0  0  0  0
  -28.4519  -13.5287   21.8510 H   0  0  0  0  0  0
  -25.2775   -9.5691   22.4747 H   0  0  0  0  0  0
  -24.0004   -7.4656   22.7503 H   0  0  0  0  0  0
  -21.0879   -8.8760   19.8907 H   0  0  0  0  0  0
  -22.3738  -10.9664   19.6127 H   0  0  0  0  0  0
  -21.2001   -7.6151   23.9737 H   0  0  0  0  0  0
  -21.1462   -6.0514   25.9078 H   0  0  0  0  0  0
  -22.0614   -2.7630   23.2826 H   0  0  0  0  0  0
  -22.4182  -11.9817   22.4684 H   0  0  0  0  0  0
  -21.1187  -13.1190   22.2661 H   0  0  0  0  0  0
  -24.6742  -15.8450   20.5241 H   0  0  0  0  0  0
  -26.2993  -15.6237   20.1140 H   0  0  0  0  0  0
  -26.7071  -32.5527   23.1236 H   0  0  0  0  0  0
  -24.9954  -33.9841   25.0457 H   0  0  0  0  0  0
  -22.6849  -31.3163   21.4170 H   0  0  0  0  0  0
  -23.3753  -35.9650   23.3301 H   0  0  0  0  0  0
  -24.3554  -36.8940   22.2061 H   0  0  0  0  0  0
  -23.7249  -37.6535   23.6682 H   0  0  0  0  0  0
  -26.0355  -31.6096   20.6030 H   0  0  0  0  0  0
  -26.8182  -30.8869   21.9864 H   0  0  0  0  0  0
  -28.1121  -29.1533   21.0972 H   0  0  0  0  0  0
  -26.0191  -26.0070   19.0399 H   0  0  0  0  0  0
  -23.9486  -27.2967   19.0832 H   0  0  0  0  0  0
  -23.6972  -30.6074   19.4144 H   0  0  0  0  0  0
  -22.7258  -29.2443   19.8943 H   0  0  0  0  0  0
  -25.1275  -36.1952   25.0842 H   0  0  0  0  0  0
  -21.0003  -28.3289   24.1406 H   0  0  0  0  0  0
  -20.5681  -26.2349   23.3562 H   0  0  0  0  0  0
  -21.6662  -26.7473   22.1172 H   0  0  0  0  0  0
  -19.6919  -25.6299   21.1233 H   0  0  0  0  0  0
  -19.6635  -27.3217   20.6726 H   0  0  0  0  0  0
  -17.4174  -26.6681   21.4035 H   0  0  0  0  0  0
  -18.0353  -26.0024   22.8996 H   0  0  0  0  0  0
  -19.7903  -30.7286   24.2327 H   0  0  0  0  0  0
  -17.4964  -31.6272   24.5185 H   0  0  0  0  0  0
  -15.5359  -30.2976   23.7602 H   0  0  0  0  0  0
  -15.8672  -28.0754   22.7185 H   0  0  0  0  0  0
  -24.5995  -30.6891   25.7696 H   0  0  0  0  0  0
  -24.8979  -32.2546   26.5139 H   0  0  0  0  0  0
  -25.8190  -30.8450   27.0071 H   0  0  0  0  0  0
  -26.2967  -29.6682   24.1332 H   0  0  0  0  0  0
  -27.4460  -29.7413   25.4520 H   0  0  0  0  0  0
  -27.8647  -30.4471   23.9084 H   0  0  0  0  0  0
  -27.2703  -33.3597   26.2186 H   0  0  0  0  0  0
  -28.3880  -32.6888   25.0412 H   0  0  0  0  0  0
  -28.0713  -31.8380   26.5431 H   0  0  0  0  0  0
  -28.2578  -38.0124   24.7573 H   0  0  0  0  0  0
  -28.1112  -36.2668   24.6326 H   0  0  0  0  0  0
  -27.2266  -37.1434   25.8880 H   0  0  0  0  0  0
  -20.9219  -29.8810   21.6993 H   0  0  0  0  0  0
  -26.0180  -38.2876   24.1409 H   0  0  0  0  0  0
  -25.6998  -24.0078   19.3665 H   0  0  0  0  0  0
  -24.5148  -22.9023   21.0366 H   0  0  0  0  0  0
  -25.4546  -21.5150   21.5848 H   0  0  0  0  0  0
  -23.9418  -21.2674   20.7092 H   0  0  0  0  0  0
  -27.2534  -22.7477   14.9862 H   0  0  0  0  0  0
  -27.5522  -21.0329   15.0444 H   0  0  0  0  0  0
  -28.7250  -22.1339   15.7607 H   0  0  0  0  0  0
  -26.2137  -19.2948   15.9342 H   0  0  0  0  0  0
  -26.5514  -18.4942   17.4441 H   0  0  0  0  0  0
  -27.8718  -19.2603   16.5668 H   0  0  0  0  0  0
  -26.5569  -25.2063   17.2310 H   0  0  0  0  0  0
  -27.8030  -24.4620   16.3174 H   0  0  0  0  0  0
  -29.3378  -24.3184   18.0931 H   0  0  0  0  0  0
  -28.1578  -24.4325   19.3453 H   0  0  0  0  0  0
  -28.8882  -16.2584   21.8633 H   0  0  0  0  0  0
  -28.8426  -16.8544   23.5006 H   0  0  0  0  0  0
  -29.5179  -18.7558   21.2513 H   0  0  0  0  0  0
  -28.7189  -19.1287   22.7513 H   0  0  0  0  0  0
  -31.1902  -17.6825   23.2986 H   0  0  0  0  0  0
  -31.2105  -17.3057   21.5978 H   0  0  0  0  0  0
  -26.6035  -18.1914   21.9298 H   0  0  0  0  0  0
  -27.3972  -17.3866   20.5965 H   0  0  0  0  0  0
  -31.2668  -15.3480   23.9048 H   0  0  0  0  0  0
  -32.4544  -15.5511   22.6347 H   0  0  0  0  0  0
  -28.2114  -26.9354   17.7965 H   0  0  0  0  0  0
  -29.7735  -26.4958   18.3984 H   0  0  0  0  0  0
  -28.0678  -19.5147   19.5983 H   0  0  0  0  0  0
  -27.3537  -20.3959   20.9290 H   0  0  0  0  0  0
  -29.9936  -14.0200   22.5890 H   0  0  0  0  0  0
  1 25  1  0  0  0
  1 30  2  0  0  0
  1 89  1  0  0  0
  2  3  1  0  0  0
  2 25  1  0  0  0
  2 91  1  0  0  0
  2 92  1  0  0  0
  3  4  1  0  0  0
  3 93  1  0  0  0
  3 94  1  0  0  0
  4  5  1  0  0  0
  4 95  1  0  0  0
  4 96  1  0  0  0
  5  6  1  0  0  0
  5 26  1  0  0  0
  5 97  1  0  0  0
  6 25  1  0  0  0
  6 98  1  0  0  0
  6 99  1  0  0  0
  7  8  2  0  0  0
  7 26  1  0  0  0
  7 29  1  0  0  0
  8  9  1  0  0  0
  8 22  1  0  0  0
  9 10  1  0  0  0
  9 27  2  0  0  0
 10 11  2  0  0  0
 10 15  1  0  0  0
 11 12  1  0  0  0
 11100  1  0  0  0
 12 13  2  0  0  0
 12101  1  0  0  0
 13 14  1  0  0  0
 13 31  1  0  0  0
 14 15  2  0  0  0
 14102  1  0  0  0
 15103  1  0  0  0
 16 17  2  0  0  0
 16 21  1  0  0  0
 16 31  1  0  0  0
 17 18  1  0  0  0
 17104  1  0  0  0
 18 19  2  0  0  0
 18105  1  0  0  0
 19 20  1  0  0  0
 19 24  1  0  0  0
 20 21  2  0  0  0
 20106  1  0  0  0
 21 23  1  0  0  0
 22 28  1  0  0  0
 22 32  2  0  0  0
 26 27  1  0  0  0
 28107  1  0  0  0
 28108  1  0  0  0
 29109  1  0  0  0
 29110  1  0  0  0
 33 34  1  0  0  0
 33 66  1  0  0  0
 33 70  2  0  0  0
 34 36  1  0  0  0
 34 59  1  0  0  0
 34111  1  0  0  0
 35 44  2  0  0  0
 35 45  1  0  0  0
 35 68  1  0  0  0
 36 56  1  0  0  0
 36112  1  0  0  0
 37 39  1  0  0  0
 37 47  1  0  0  0
 37 66  1  0  0  0
 37113  1  0  0  0
 38 43  2  0  0  0
 38 46  1  0  0  0
 38 47  1  0  0  0
 39 64  1  0  0  0
 39 67  2  0  0  0
 40 52  1  0  0  0
 40 53  2  0  0  0
 40 58  1  0  0  0
 41114  1  0  0  0
 41115  1  0  0  0
 41116  1  0  0  0
 41 48  1  0  0  0
 42 43  1  0  0  0
 42 66  1  0  0  0
 42117  1  0  0  0
 42118  1  0  0  0
 43 44  1  0  0  0
 44119  1  0  0  0
 45 46  2  0  0  0
 45120  1  0  0  0
 46121  1  0  0  0
 47122  1  0  0  0
 47123  1  0  0  0
 48 56  1  0  0  0
 48 65  1  0  0  0
 48124  1  0  0  0
 49 50  1  0  0  0
 49 53  1  0  0  0
 49 64  1  0  0  0
 49125  1  0  0  0
 50 51  1  0  0  0
 50126  1  0  0  0
 50127  1  0  0  0
 51 52  1  0  0  0
 51128  1  0  0  0
 51129  1  0  0  0
 52130  1  0  0  0
 52131  1  0  0  0
 53 54  1  0  0  0
 54 55  2  0  0  0
 54132  1  0  0  0
 55 57  1  0  0  0
 55133  1  0  0  0
 56 69  2  0  0  0
 57 58  2  0  0  0
 57134  1  0  0  0
 58135  1  0  0  0
 59 60  1  0  0  0
 59 61  1  0  0  0
 59 62  1  0  0  0
 60136  1  0  0  0
 60137  1  0  0  0
 60138  1  0  0  0
 61139  1  0  0  0
 61140  1  0  0  0
 61141  1  0  0  0
 62142  1  0  0  0
 62143  1  0  0  0
 62144  1  0  0  0
 63 65  1  0  0  0
 63145  1  0  0  0
 63146  1  0  0  0
 63147  1  0  0  0
 64148  1  0  0  0
 65149  1  0  0  0
 68 87  1  0  0  0
 71 72  2  0  0  0
 71 73  1  0  0  0
 71150  1  0  0  0
 72 74  1  0  0  0
 72 80  1  0  0  0
 73 76  2  0  0  0
 73 77  1  0  0  0
 74 75  2  0  0  0
 74 78  1  0  0  0
 75 76  1  0  0  0
 75 79  1  0  0  0
 76 90  1  0  0  0
 77151  1  0  0  0
 77152  1  0  0  0
 77153  1  0  0  0
 78154  1  0  0  0
 78155  1  0  0  0
 78156  1  0  0  0
 79157  1  0  0  0
 79158  1  0  0  0
 79159  1  0  0  0
 80 81  1  0  0  0
 80160  1  0  0  0
 80161  1  0  0  0
 81 87  1  0  0  0
 81162  1  0  0  0
 81163  1  0  0  0
 82 83  1  0  0  0
 82 84  1  0  0  0
 82164  1  0  0  0
 82165  1  0  0  0
 83 85  1  0  0  0
 83166  1  0  0  0
 83167  1  0  0  0
 84 86  1  0  0  0
 84168  1  0  0  0
 84169  1  0  0  0
 85 88  1  0  0  0
 85170  1  0  0  0
 85171  1  0  0  0
 86 89  1  0  0  0
 86172  1  0  0  0
 86173  1  0  0  0
 87174  1  0  0  0
 87175  1  0  0  0
 88 90  1  0  0  0
 88176  1  0  0  0
 88177  1  0  0  0
 89178  1  0  0  0
M  ISO  4   1 100  68 101  87 101  89 100
M  END
> <chiral flag>
0

> <version>
0

> <s_m_source_file>
/data/baiqing/PycharmProjects/Reinvent-master-3.2/result/LINK_invent/BTK/process_docking_weight1_custom_sum_contain_oxygen_bond_distance_aromatic_linkinvent_7_9_3/rearranged_h_0027.sdf

> <i_m_source_file_index>
38

> <r_mmod_Potential_Energy-OPLS-2005>
-14.0279226303101

> <r_mmod_Stretch_Energy-OPLS-2005>
34.823356628418

> <r_mmod_Bend_Energy-OPLS-2005>
98.245491027832

> <r_mmod_Torsional_Energy-OPLS-2005>
296.356750488281

> <r_mmod_Improper_Torsional_Energy-OPLS-2005>
5.97433519363403

> <r_mmod_Van_der_Waal_Energy-OPLS-2005>
166.518524169922

> <r_mmod_Electrostatic_Energy-OPLS-2005>
-428.819763183594

> <r_mmod_Solvation_Energy-OPLS-2005>
-201.335906982422

> <b_mmod_Minimization_Converged-OPLS-2005>
0

> <r_mmod_RMS_Derivative-OPLS-2005>
4.49196338653564

$$$$
38
                    3D
 Structure written by MMmdl.
160169  0  0  1  0            999 V2000
  -30.7002  -14.5450   20.3940 C   0  0  0  0  0  0
  -30.4520  -12.3105   19.3882 C   0  0  0  0  0  0
  -29.5181  -12.4785   18.1714 C   0  0  0  0  0  0
  -28.0315  -12.3673   18.5897 C   0  0  0  0  0  0
  -27.6715  -13.2136   19.8476 C   0  0  2  0  0  0
  -28.7392  -13.0236   20.9550 C   0  0  0  0  0  0
  -25.2749  -13.8183   20.5654 C   0  0  0  0  0  0
  -24.1960  -13.0451   20.9229 C   0  0  0  0  0  0
  -24.6494  -11.6881   20.8752 C   0  0  0  0  0  0
  -23.9101  -10.4304   21.0381 C   0  0  0  0  0  0
  -24.3634   -9.4241   21.9176 C   0  0  0  0  0  0
  -23.6325   -8.2269   22.0770 C   0  0  0  0  0  0
  -22.4304   -8.0260   21.3518 C   0  0  0  0  0  0
  -21.9915   -9.0271   20.4615 C   0  0  0  0  0  0
  -22.7256  -10.2154   20.3023 C   0  0  0  0  0  0
  -21.6864   -6.0754   22.5305 C   0  0  0  0  0  0
  -21.4001   -6.5634   23.8242 C   0  0  0  0  0  0
  -21.3657   -5.6776   24.9199 C   0  0  0  0  0  0
  -21.6053   -4.3035   24.7222 C   0  0  0  0  0  0
  -21.8807   -3.8153   23.4319 C   0  0  0  0  0  0
  -21.9180   -4.6989   22.3410 C   0  0  0  0  0  0
  -22.7932  -13.5251   21.1899 C   0  0  0  0  0  0
  -22.1638   -4.2136   21.0994 F   0  0  0  0  0  0
  -21.5654   -3.4514   25.7773 F   0  0  0  0  0  0
  -30.0425  -13.3469   20.3459 N   0  0  0  0  0  0
  -26.3201  -12.9361   20.3178 N   0  0  0  0  0  0
  -25.9461  -11.6498   20.5688 N   0  0  0  0  0  0
  -22.0573  -12.8231   22.0383 N   0  0  0  0  0  0
  -25.4514  -15.1889   20.4115 N   0  0  0  0  0  0
  -31.9156  -14.6375   20.1742 O   0  0  0  0  0  0
  -21.6558   -6.8889   21.4273 O   0  0  0  0  0  0
  -22.3637  -14.5548   20.6756 O   0  0  0  0  0  0
  -24.6314  -31.8499   23.2277 C   0  0  0  0  0  0
  -25.9091  -32.4749   23.8461 C   0  0  1  0  0  0
  -27.1096  -27.2570   20.0914 C   0  0  0  0  0  0
  -25.5995  -33.8624   24.2321 N   0  0  0  0  0  0
  -23.4101  -30.4834   21.5747 C   0  0  2  0  0  0
  -24.8234  -28.9814   20.1038 C   0  0  0  0  0  0
  -22.7561  -29.4469   22.5139 C   0  0  0  0  0  0
  -18.0201  -28.1406   22.8109 C   0  0  0  0  0  0
  -24.1515  -36.7286   23.2667 C   0  0  0  0  0  0
  -25.9568  -30.7769   21.3850 C   0  0  0  0  0  0
  -26.0124  -29.4100   20.7170 C   0  0  0  0  0  0
  -27.1588  -28.5512   20.7206 C   0  0  0  0  0  0
  -25.9168  -26.9611   19.3855 C   0  0  0  0  0  0
  -24.7800  -27.7631   19.4425 C   0  0  0  0  0  0
  -23.5904  -29.8466   20.1811 C   0  0  0  0  0  0
  -25.4142  -36.3114   24.0352 C   0  0  1  0  0  0
  -20.5671  -28.3436   23.1128 C   0  0  2  0  0  0
  -20.6582  -26.9323   22.4708 C   0  0  0  0  0  0
  -19.5428  -26.6620   21.4548 C   0  0  0  0  0  0
  -18.1891  -26.8019   22.1165 C   0  0  0  0  0  0
  -19.1423  -28.8887   23.2462 C   0  0  0  0  0  0
  -18.9268  -30.1442   23.8616 C   0  0  0  0  0  0
  -17.6196  -30.6077   24.0569 C   0  0  0  0  0  0
  -25.8990  -34.9470   23.5136 C   0  0  0  0  0  0
  -16.5107  -29.8203   23.6815 C   0  0  0  0  0  0
  -16.7158  -28.6128   23.0282 C   0  0  0  0  0  0
  -26.4530  -31.6572   25.0808 C   0  0  0  0  0  0
  -25.3742  -31.3675   26.1479 C   0  0  0  0  0  0
  -27.0346  -30.3025   24.6196 C   0  0  0  0  0  0
  -27.6082  -32.4341   25.7515 C   0  0  0  0  0  0
  -27.5605  -37.1820   24.8471 C   0  0  0  0  0  0
  -21.4166  -29.3112   22.4213 N   0  0  0  0  0  0
  -26.4327  -37.3794   23.9435 N   0  0  0  0  0  0
  -24.6902  -31.0583   22.1104 N   0  0  0  0  0  0
  -23.4346  -28.7775   23.2937 O   0  0  0  0  0  0
  -28.1071  -26.2598   20.1839 O   0  0  0  0  0  0
  -26.5553  -34.8833   22.4692 O   0  0  0  0  0  0
  -23.5421  -32.1290   23.7390 O   0  0  0  0  0  0
  -28.4463  -18.8144   20.4145 C   0  0  0  0  0  0
  -27.3915  -18.8764   23.0107 C   0  0  0  0  0  0
  -29.9689  -16.2632   22.6668 C   0  0  0  0  0  0
  -28.8792  -17.8082   21.3542 C   0  0  0  0  0  0
  -27.5110  -19.8526   20.7393 C   0  0  0  0  0  0
  -28.4552  -17.9794   22.7134 C   0  0  0  0  0  0
  -29.6212  -16.5426   21.3656 C   0  0  0  0  0  0
  -26.8696  -19.7259   21.9970 C   0  0  0  0  0  0
  -29.3626  -16.8918   24.9299 C   0  0  0  0  0  0
  -27.1066  -21.0329   19.7695 C   0  0  0  0  0  0
  -28.1772  -22.1636   19.4818 C   0  0  0  0  0  0
  -28.1998  -23.5018   20.3811 C   0  0  0  0  0  0
  -27.6981  -24.8737   19.7751 C   0  0  0  0  0  0
  -29.2535  -17.0995   23.4909 N   0  0  0  0  0  0
  -29.9504  -15.6586   20.2897 N   0  0  0  0  0  0
  -25.7162  -20.3979   22.2426 F   0  0  0  0  0  0
  -31.5026  -12.4122   19.1070 H   0  0  0  0  0  0
  -30.3713  -11.3020   19.8154 H   0  0  0  0  0  0
  -29.7685  -11.7476   17.4031 H   0  0  0  0  0  0
  -29.7005  -13.4479   17.7057 H   0  0  0  0  0  0
  -27.8522  -11.3113   18.7879 H   0  0  0  0  0  0
  -27.3791  -12.6260   17.7456 H   0  0  0  0  0  0
  -27.6837  -14.2413   19.4982 H   0  0  0  0  0  0
  -28.7407  -11.9816   21.3034 H   0  0  0  0  0  0
  -28.5274  -13.6116   21.8582 H   0  0  0  0  0  0
  -25.2812   -9.5625   22.4679 H   0  0  0  0  0  0
  -23.9962   -7.4631   22.7482 H   0  0  0  0  0  0
  -21.0848   -8.8779   19.8941 H   0  0  0  0  0  0
  -22.3763  -10.9631   19.6034 H   0  0  0  0  0  0
  -21.1958   -7.6111   23.9743 H   0  0  0  0  0  0
  -21.1511   -6.0488   25.9088 H   0  0  0  0  0  0
  -22.0587   -2.7597   23.2858 H   0  0  0  0  0  0
  -22.4123  -11.9752   22.4613 H   0  0  0  0  0  0
  -21.1230  -13.1302   22.2630 H   0  0  0  0  0  0
  -24.7198  -15.8654   20.5788 H   0  0  0  0  0  0
  -26.3104  -15.6103   20.0912 H   0  0  0  0  0  0
  -26.7107  -32.5281   23.1137 H   0  0  0  0  0  0
  -25.0366  -33.9727   25.0621 H   0  0  0  0  0  0
  -22.7056  -31.3059   21.4509 H   0  0  0  0  0  0
  -23.3774  -35.9605   23.3288 H   0  0  0  0  0  0
  -24.3594  -36.8900   22.2084 H   0  0  0  0  0  0
  -23.7179  -37.6500   23.6620 H   0  0  0  0  0  0
  -26.0686  -31.5584   20.6319 H   0  0  0  0  0  0
  -26.8512  -30.8212   21.9925 H   0  0  0  0  0  0
  -28.0553  -28.8536   21.2419 H   0  0  0  0  0  0
  -25.7790  -26.0728   18.7907 H   0  0  0  0  0  0
  -23.8573  -27.4376   18.9712 H   0  0  0  0  0  0
  -23.6815  -30.6378   19.4387 H   0  0  0  0  0  0
  -22.7066  -29.2821   19.8788 H   0  0  0  0  0  0
  -25.1274  -36.2026   25.0840 H   0  0  0  0  0  0
  -20.9144  -28.2660   24.1463 H   0  0  0  0  0  0
  -20.4667  -26.1853   23.2493 H   0  0  0  0  0  0
  -21.6285  -26.6997   22.0114 H   0  0  0  0  0  0
  -19.6706  -25.6767   21.0020 H   0  0  0  0  0  0
  -19.5901  -27.3891   20.6584 H   0  0  0  0  0  0
  -17.4131  -26.7083   21.3639 H   0  0  0  0  0  0
  -18.0424  -26.0005   22.8263 H   0  0  0  0  0  0
  -19.7547  -30.7487   24.1757 H   0  0  0  0  0  0
  -17.4479  -31.5718   24.5178 H   0  0  0  0  0  0
  -15.4999  -30.1398   23.9146 H   0  0  0  0  0  0
  -15.8638  -28.0174   22.7074 H   0  0  0  0  0  0
  -24.5958  -30.7008   25.7763 H   0  0  0  0  0  0
  -24.8873  -32.2812   26.4947 H   0  0  0  0  0  0
  -25.8073  -30.8833   27.0226 H   0  0  0  0  0  0
  -26.2944  -29.6856   24.1122 H   0  0  0  0  0  0
  -27.3972  -29.7216   25.4673 H   0  0  0  0  0  0
  -27.8835  -30.4343   23.9471 H   0  0  0  0  0  0
  -27.2763  -33.3658   26.2093 H   0  0  0  0  0  0
  -28.3918  -32.6869   25.0373 H   0  0  0  0  0  0
  -28.0750  -31.8474   26.5425 H   0  0  0  0  0  0
  -28.2574  -38.0139   24.7533 H   0  0  0  0  0  0
  -28.1113  -36.2698   24.6267 H   0  0  0  0  0  0
  -27.2302  -37.1430   25.8842 H   0  0  0  0  0  0
  -20.9363  -29.9558   21.8246 H   0  0  0  0  0  0
  -26.0220  -38.2865   24.1479 H   0  0  0  0  0  0
  -28.8146  -18.7288   19.4088 H   0  0  0  0  0  0
  -26.9438  -18.8685   23.9985 H   0  0  0  0  0  0
  -30.5982  -15.4679   23.0686 H   0  0  0  0  0  0
  -30.3995  -16.6313   25.1904 H   0  0  0  0  0  0
  -28.7680  -16.0405   25.2435 H   0  0  0  0  0  0
  -29.0453  -17.7577   25.5218 H   0  0  0  0  0  0
  -26.1835  -21.5240   20.0960 H   0  0  0  0  0  0
  -26.8338  -20.6293   18.7798 H   0  0  0  0  0  0
  -28.0512  -22.4878   18.4472 H   0  0  0  0  0  0
  -29.1400  -21.6315   19.4425 H   0  0  0  0  0  0
  -29.2095  -23.6277   20.7717 H   0  0  0  0  0  0
  -27.5486  -23.2878   21.2359 H   0  0  0  0  0  0
  -26.6415  -24.7436   20.0364 H   0  0  0  0  0  0
  -27.7938  -24.8152   18.6813 H   0  0  0  0  0  0
  -29.4184  -15.7637   19.4313 H   0  0  0  0  0  0
  1 25  1  0  0  0
  1 30  2  0  0  0
  1 85  1  0  0  0
  2  3  1  0  0  0
  2 25  1  0  0  0
  2 87  1  0  0  0
  2 88  1  0  0  0
  3  4  1  0  0  0
  3 89  1  0  0  0
  3 90  1  0  0  0
  4  5  1  0  0  0
  4 91  1  0  0  0
  4 92  1  0  0  0
  5  6  1  0  0  0
  5 26  1  0  0  0
  5 93  1  0  0  0
  6 25  1  0  0  0
  6 94  1  0  0  0
  6 95  1  0  0  0
  7  8  2  0  0  0
  7 26  1  0  0  0
  7 29  1  0  0  0
  8  9  1  0  0  0
  8 22  1  0  0  0
  9 10  1  0  0  0
  9 27  2  0  0  0
 10 11  2  0  0  0
 10 15  1  0  0  0
 11 12  1  0  0  0
 11 96  1  0  0  0
 12 13  2  0  0  0
 12 97  1  0  0  0
 13 14  1  0  0  0
 13 31  1  0  0  0
 14 15  2  0  0  0
 14 98  1  0  0  0
 15 99  1  0  0  0
 16 17  2  0  0  0
 16 21  1  0  0  0
 16 31  1  0  0  0
 17 18  1  0  0  0
 17100  1  0  0  0
 18 19  2  0  0  0
 18101  1  0  0  0
 19 20  1  0  0  0
 19 24  1  0  0  0
 20 21  2  0  0  0
 20102  1  0  0  0
 21 23  1  0  0  0
 22 28  1  0  0  0
 22 32  2  0  0  0
 26 27  1  0  0  0
 28103  1  0  0  0
 28104  1  0  0  0
 29105  1  0  0  0
 29106  1  0  0  0
 33 34  1  0  0  0
 33 66  1  0  0  0
 33 70  2  0  0  0
 34 36  1  0  0  0
 34 59  1  0  0  0
 34107  1  0  0  0
 35 44  2  0  0  0
 35 45  1  0  0  0
 35 68  1  0  0  0
 36 56  1  0  0  0
 36108  1  0  0  0
 37 39  1  0  0  0
 37 47  1  0  0  0
 37 66  1  0  0  0
 37109  1  0  0  0
 38 43  2  0  0  0
 38 46  1  0  0  0
 38 47  1  0  0  0
 39 64  1  0  0  0
 39 67  2  0  0  0
 40 52  1  0  0  0
 40 53  2  0  0  0
 40 58  1  0  0  0
 41110  1  0  0  0
 41111  1  0  0  0
 41112  1  0  0  0
 41 48  1  0  0  0
 42 43  1  0  0  0
 42 66  1  0  0  0
 42113  1  0  0  0
 42114  1  0  0  0
 43 44  1  0  0  0
 44115  1  0  0  0
 45 46  2  0  0  0
 45116  1  0  0  0
 46117  1  0  0  0
 47118  1  0  0  0
 47119  1  0  0  0
 48 56  1  0  0  0
 48 65  1  0  0  0
 48120  1  0  0  0
 49 50  1  0  0  0
 49 53  1  0  0  0
 49 64  1  0  0  0
 49121  1  0  0  0
 50 51  1  0  0  0
 50122  1  0  0  0
 50123  1  0  0  0
 51 52  1  0  0  0
 51124  1  0  0  0
 51125  1  0  0  0
 52126  1  0  0  0
 52127  1  0  0  0
 53 54  1  0  0  0
 54 55  2  0  0  0
 54128  1  0  0  0
 55 57  1  0  0  0
 55129  1  0  0  0
 56 69  2  0  0  0
 57 58  2  0  0  0
 57130  1  0  0  0
 58131  1  0  0  0
 59 60  1  0  0  0
 59 61  1  0  0  0
 59 62  1  0  0  0
 60132  1  0  0  0
 60133  1  0  0  0
 60134  1  0  0  0
 61135  1  0  0  0
 61136  1  0  0  0
 61137  1  0  0  0
 62138  1  0  0  0
 62139  1  0  0  0
 62140  1  0  0  0
 63 65  1  0  0  0
 63141  1  0  0  0
 63142  1  0  0  0
 63143  1  0  0  0
 64144  1  0  0  0
 65145  1  0  0  0
 68 83  1  0  0  0
 71 74  2  0  0  0
 71 75  1  0  0  0
 71146  1  0  0  0
 72 76  2  0  0  0
 72 78  1  0  0  0
 72147  1  0  0  0
 73 77  2  0  0  0
 73 84  1  0  0  0
 73148  1  0  0  0
 74 76  1  0  0  0
 74 77  1  0  0  0
 75 78  2  0  0  0
 75 80  1  0  0  0
 76 84  1  0  0  0
 77 85  1  0  0  0
 78 86  1  0  0  0
 79 84  1  0  0  0
 79149  1  0  0  0
 79150  1  0  0  0
 79151  1  0  0  0
 80 81  1  0  0  0
 80152  1  0  0  0
 80153  1  0  0  0
 81 82  1  0  0  0
 81154  1  0  0  0
 81155  1  0  0  0
 82 83  1  0  0  0
 82156  1  0  0  0
 82157  1  0  0  0
 83158  1  0  0  0
 83159  1  0  0  0
 85160  1  0  0  0
M  ISO  4   1 100  68 101  83 101  85 100
M  END
> <chiral flag>
0

> <version>
0

> <s_m_source_file>
/data/baiqing/PycharmProjects/Reinvent-master-3.2/result/LINK_invent/BTK/process_docking_weight1_custom_sum_contain_oxygen_bond_distance_aromatic_linkinvent_7_9_3/rearranged_h_0027.sdf

> <i_m_source_file_index>
39

> <r_mmod_Potential_Energy-OPLS-2005>
307.072113037109

> <r_mmod_Stretch_Energy-OPLS-2005>
91.6788177490234

> <r_mmod_Bend_Energy-OPLS-2005>
193.509048461914

> <r_mmod_Torsional_Energy-OPLS-2005>
346.419799804688

> <r_mmod_Improper_Torsional_Energy-OPLS-2005>
12.3791198730469

> <r_mmod_Van_der_Waal_Energy-OPLS-2005>
147.353271484375

> <r_mmod_Electrostatic_Energy-OPLS-2005>
-362.956390380859

> <r_mmod_Solvation_Energy-OPLS-2005>
-207.809860229492

> <b_mmod_Minimization_Converged-OPLS-2005>
0

> <r_mmod_RMS_Derivative-OPLS-2005>
27.7890300750732

$$$$
39
                    3D
 Structure written by MMmdl.
156164  0  0  1  0            999 V2000
  -30.5963  -14.8524   20.4252 C   0  0  0  0  0  0
  -30.4237  -12.5229   19.4919 C   0  0  0  0  0  0
  -29.5107  -12.5134   18.2463 C   0  0  0  0  0  0
  -28.0415  -12.3190   18.6642 C   0  0  0  0  0  0
  -27.6292  -13.2467   19.8386 C   0  0  2  0  0  0
  -28.6717  -13.2558   20.9770 C   0  0  0  0  0  0
  -25.2454  -13.8214   20.5711 C   0  0  0  0  0  0
  -24.1768  -13.0430   20.9212 C   0  0  0  0  0  0
  -24.6388  -11.6917   20.8750 C   0  0  0  0  0  0
  -23.9077  -10.4287   21.0407 C   0  0  0  0  0  0
  -24.3622   -9.4201   21.9189 C   0  0  0  0  0  0
  -23.6291   -8.2239   22.0762 C   0  0  0  0  0  0
  -22.4273   -8.0283   21.3545 C   0  0  0  0  0  0
  -21.9909   -9.0260   20.4649 C   0  0  0  0  0  0
  -22.7246  -10.2134   20.3057 C   0  0  0  0  0  0
  -21.6853   -6.0737   22.5278 C   0  0  0  0  0  0
  -21.4017   -6.5644   23.8212 C   0  0  0  0  0  0
  -21.3655   -5.6796   24.9176 C   0  0  0  0  0  0
  -21.6041   -4.3058   24.7224 C   0  0  0  0  0  0
  -21.8817   -3.8149   23.4346 C   0  0  0  0  0  0
  -21.9191   -4.6966   22.3403 C   0  0  0  0  0  0
  -22.7790  -13.5202   21.1874 C   0  0  0  0  0  0
  -22.1658   -4.2153   21.0980 F   0  0  0  0  0  0
  -21.5622   -3.4542   25.7735 F   0  0  0  0  0  0
  -29.9590  -13.6229   20.3788 N   0  0  0  0  0  0
  -26.2877  -12.9450   20.3248 N   0  0  0  0  0  0
  -25.9319  -11.6573   20.5742 N   0  0  0  0  0  0
  -22.0450  -12.8201   22.0440 N   0  0  0  0  0  0
  -25.4108  -15.1936   20.4158 N   0  0  0  0  0  0
  -31.7994  -14.8886   20.1512 O   0  0  0  0  0  0
  -21.6638   -6.8877   21.4239 O   0  0  0  0  0  0
  -22.3467  -14.5503   20.6722 O   0  0  0  0  0  0
  -24.6380  -31.8486   23.1920 C   0  0  0  0  0  0
  -25.9178  -32.4718   23.8292 C   0  0  1  0  0  0
  -27.2119  -27.1826   20.1327 C   0  0  0  0  0  0
  -25.5945  -33.8521   24.2209 N   0  0  0  0  0  0
  -23.4379  -30.4706   21.5359 C   0  0  2  0  0  0
  -24.8842  -28.9065   20.1065 C   0  0  0  0  0  0
  -22.7532  -29.4578   22.4873 C   0  0  0  0  0  0
  -18.0296  -28.1392   22.8471 C   0  0  0  0  0  0
  -24.1495  -36.7270   23.2638 C   0  0  0  0  0  0
  -25.9899  -30.7366   21.3839 C   0  0  0  0  0  0
  -26.0589  -29.3519   20.7256 C   0  0  0  0  0  0
  -27.2209  -28.5023   20.7262 C   0  0  0  0  0  0
  -26.0155  -26.8347   19.4660 C   0  0  0  0  0  0
  -24.8729  -27.6605   19.4641 C   0  0  0  0  0  0
  -23.6599  -29.8033   20.1532 C   0  0  0  0  0  0
  -25.4125  -36.3045   24.0316 C   0  0  1  0  0  0
  -20.5900  -28.3716   23.1241 C   0  0  2  0  0  0
  -20.6781  -26.9426   22.5398 C   0  0  0  0  0  0
  -19.5762  -26.6389   21.5199 C   0  0  0  0  0  0
  -18.1944  -26.7931   22.1616 C   0  0  0  0  0  0
  -19.1548  -28.8871   23.2848 C   0  0  0  0  0  0
  -18.9468  -30.1464   23.8881 C   0  0  0  0  0  0
  -17.6467  -30.6591   24.0557 C   0  0  0  0  0  0
  -25.9069  -34.9418   23.5066 C   0  0  0  0  0  0
  -16.5358  -29.9087   23.6329 C   0  0  0  0  0  0
  -16.7280  -28.6502   23.0352 C   0  0  0  0  0  0
  -26.4515  -31.6565   25.0714 C   0  0  0  0  0  0
  -25.3712  -31.3737   26.1420 C   0  0  0  0  0  0
  -27.0358  -30.2963   24.6257 C   0  0  0  0  0  0
  -27.6057  -32.4315   25.7500 C   0  0  0  0  0  0
  -27.5578  -37.1797   24.8464 C   0  0  0  0  0  0
  -21.4228  -29.3058   22.3627 N   0  0  0  0  0  0
  -26.4292  -37.3755   23.9403 N   0  0  0  0  0  0
  -24.7083  -31.0395   22.0923 N   0  0  0  0  0  0
  -23.4205  -28.8121   23.3000 O   0  0  0  0  0  0
  -28.2935  -26.2489   20.2246 O   0  0  0  0  0  0
  -26.5654  -34.8904   22.4646 O   0  0  0  0  0  0
  -23.5511  -32.1347   23.7165 O   0  0  0  0  0  0
  -30.6935  -20.0896   20.1091 C   0  0  0  0  0  0
  -30.3447  -21.4879   20.1488 C   0  0  0  0  0  0
  -29.8114  -18.9952   20.3731 C   0  0  0  0  0  0
  -29.0333  -21.9622   20.4729 C   0  0  0  0  0  0
  -28.1033  -20.8697   20.6737 C   0  0  0  0  0  0
  -28.4769  -19.4510   20.6325 C   0  0  0  0  0  0
  -31.4486  -22.4947   19.8711 C   0  0  0  0  0  0
  -26.6509  -21.2153   20.9752 C   0  0  0  0  0  0
  -28.7502  -23.5437   20.8300 C   0  0  0  0  0  0
  -30.4570  -17.4863   20.3388 C   0  0  0  0  0  0
  -28.2221  -24.7554   19.8429 C   0  0  0  0  0  0
  -29.8773  -16.0582   20.5498 N   0  0  0  0  0  0
  -27.2768  -18.2411   20.9325 Cl  0  0  0  0  0  0
  -31.4653  -12.6421   19.1910 H   0  0  0  0  0  0
  -30.3734  -11.5648   20.0120 H   0  0  0  0  0  0
  -29.8116  -11.7203   17.5603 H   0  0  0  0  0  0
  -29.6205  -13.4509   17.6985 H   0  0  0  0  0  0
  -27.9245  -11.2761   18.9620 H   0  0  0  0  0  0
  -27.3789  -12.4672   17.8109 H   0  0  0  0  0  0
  -27.5994  -14.2534   19.4205 H   0  0  0  0  0  0
  -28.7302  -12.2818   21.4657 H   0  0  0  0  0  0
  -28.3898  -13.9742   21.7486 H   0  0  0  0  0  0
  -25.2766   -9.5679   22.4769 H   0  0  0  0  0  0
  -23.9997   -7.4630   22.7485 H   0  0  0  0  0  0
  -21.0838   -8.8770   19.8962 H   0  0  0  0  0  0
  -22.3694  -10.9671   19.6167 H   0  0  0  0  0  0
  -21.2018   -7.6153   23.9713 H   0  0  0  0  0  0
  -21.1477   -6.0531   25.9076 H   0  0  0  0  0  0
  -22.0600   -2.7611   23.2844 H   0  0  0  0  0  0
  -22.4068  -11.9861   22.4827 H   0  0  0  0  0  0
  -21.1070  -13.1224   22.2656 H   0  0  0  0  0  0
  -24.6456  -15.8455   20.5528 H   0  0  0  0  0  0
  -26.2650  -15.6492   20.1243 H   0  0  0  0  0  0
  -26.7238  -32.5339   23.1018 H   0  0  0  0  0  0
  -25.0064  -33.9651   25.0335 H   0  0  0  0  0  0
  -22.7383  -31.2951   21.3859 H   0  0  0  0  0  0
  -23.3756  -35.9602   23.3289 H   0  0  0  0  0  0
  -24.3577  -36.8917   22.2054 H   0  0  0  0  0  0
  -23.7258  -37.6469   23.6678 H   0  0  0  0  0  0
  -26.1397  -31.4939   20.6127 H   0  0  0  0  0  0
  -26.8621  -30.7856   22.0237 H   0  0  0  0  0  0
  -28.1163  -28.8357   21.2317 H   0  0  0  0  0  0
  -25.9141  -25.8990   18.9419 H   0  0  0  0  0  0
  -23.9783  -27.3182   18.9623 H   0  0  0  0  0  0
  -23.7925  -30.5788   19.3977 H   0  0  0  0  0  0
  -22.7760  -29.2422   19.8442 H   0  0  0  0  0  0
  -25.1312  -36.1878   25.0809 H   0  0  0  0  0  0
  -20.9983  -28.3301   24.1362 H   0  0  0  0  0  0
  -20.5658  -26.2333   23.3612 H   0  0  0  0  0  0
  -21.6654  -26.7436   22.1209 H   0  0  0  0  0  0
  -19.6926  -25.6292   21.1247 H   0  0  0  0  0  0
  -19.6697  -27.3181   20.6707 H   0  0  0  0  0  0
  -17.4206  -26.6646   21.4030 H   0  0  0  0  0  0
  -18.0362  -26.0083   22.9022 H   0  0  0  0  0  0
  -19.7944  -30.7273   24.2258 H   0  0  0  0  0  0
  -17.5023  -31.6272   24.5157 H   0  0  0  0  0  0
  -15.5356  -30.2985   23.7663 H   0  0  0  0  0  0
  -15.8677  -28.0816   22.7082 H   0  0  0  0  0  0
  -24.5913  -30.7059   25.7748 H   0  0  0  0  0  0
  -24.8880  -32.2905   26.4798 H   0  0  0  0  0  0
  -25.8021  -30.8959   27.0226 H   0  0  0  0  0  0
  -26.2952  -29.6711   24.1257 H   0  0  0  0  0  0
  -27.3964  -29.7246   25.4816 H   0  0  0  0  0  0
  -27.8866  -30.4199   23.9556 H   0  0  0  0  0  0
  -27.2660  -33.3630   26.2037 H   0  0  0  0  0  0
  -28.3893  -32.6849   25.0349 H   0  0  0  0  0  0
  -28.0683  -31.8463   26.5457 H   0  0  0  0  0  0
  -28.2591  -38.0098   24.7505 H   0  0  0  0  0  0
  -28.1083  -36.2631   24.6295 H   0  0  0  0  0  0
  -27.2294  -37.1444   25.8867 H   0  0  0  0  0  0
  -20.9423  -29.8799   21.6842 H   0  0  0  0  0  0
  -26.0162  -38.2825   24.1405 H   0  0  0  0  0  0
  -31.7210  -19.8379   19.8856 H   0  0  0  0  0  0
  -32.3139  -22.0209   19.4062 H   0  0  0  0  0  0
  -31.7837  -22.9650   20.7952 H   0  0  0  0  0  0
  -31.0994  -23.2754   19.1942 H   0  0  0  0  0  0
  -25.9736  -20.5828   20.4002 H   0  0  0  0  0  0
  -26.4024  -22.2429   20.7123 H   0  0  0  0  0  0
  -26.4383  -21.0718   22.0339 H   0  0  0  0  0  0
  -29.6779  -23.9122   21.2638 H   0  0  0  0  0  0
  -28.0789  -23.5409   21.6886 H   0  0  0  0  0  0
  -31.2832  -17.5435   21.0493 H   0  0  0  0  0  0
  -30.9453  -17.4351   19.3640 H   0  0  0  0  0  0
  -27.2178  -24.4654   19.5533 H   0  0  0  0  0  0
  -28.8058  -24.6821   18.9243 H   0  0  0  0  0  0
  -28.8871  -15.9902   20.7294 H   0  0  0  0  0  0
  1 25  1  0  0  0
  1 30  2  0  0  0
  1 82  1  0  0  0
  2  3  1  0  0  0
  2 25  1  0  0  0
  2 84  1  0  0  0
  2 85  1  0  0  0
  3  4  1  0  0  0
  3 86  1  0  0  0
  3 87  1  0  0  0
  4  5  1  0  0  0
  4 88  1  0  0  0
  4 89  1  0  0  0
  5  6  1  0  0  0
  5 26  1  0  0  0
  5 90  1  0  0  0
  6 25  1  0  0  0
  6 91  1  0  0  0
  6 92  1  0  0  0
  7  8  2  0  0  0
  7 26  1  0  0  0
  7 29  1  0  0  0
  8  9  1  0  0  0
  8 22  1  0  0  0
  9 10  1  0  0  0
  9 27  2  0  0  0
 10 11  2  0  0  0
 10 15  1  0  0  0
 11 12  1  0  0  0
 11 93  1  0  0  0
 12 13  2  0  0  0
 12 94  1  0  0  0
 13 14  1  0  0  0
 13 31  1  0  0  0
 14 15  2  0  0  0
 14 95  1  0  0  0
 15 96  1  0  0  0
 16 17  2  0  0  0
 16 21  1  0  0  0
 16 31  1  0  0  0
 17 18  1  0  0  0
 17 97  1  0  0  0
 18 19  2  0  0  0
 18 98  1  0  0  0
 19 20  1  0  0  0
 19 24  1  0  0  0
 20 21  2  0  0  0
 20 99  1  0  0  0
 21 23  1  0  0  0
 22 28  1  0  0  0
 22 32  2  0  0  0
 26 27  1  0  0  0
 28100  1  0  0  0
 28101  1  0  0  0
 29102  1  0  0  0
 29103  1  0  0  0
 33 34  1  0  0  0
 33 66  1  0  0  0
 33 70  2  0  0  0
 34 36  1  0  0  0
 34 59  1  0  0  0
 34104  1  0  0  0
 35 44  2  0  0  0
 35 45  1  0  0  0
 35 68  1  0  0  0
 36 56  1  0  0  0
 36105  1  0  0  0
 37 39  1  0  0  0
 37 47  1  0  0  0
 37 66  1  0  0  0
 37106  1  0  0  0
 38 43  2  0  0  0
 38 46  1  0  0  0
 38 47  1  0  0  0
 39 64  1  0  0  0
 39 67  2  0  0  0
 40 52  1  0  0  0
 40 53  2  0  0  0
 40 58  1  0  0  0
 41107  1  0  0  0
 41108  1  0  0  0
 41109  1  0  0  0
 41 48  1  0  0  0
 42 43  1  0  0  0
 42 66  1  0  0  0
 42110  1  0  0  0
 42111  1  0  0  0
 43 44  1  0  0  0
 44112  1  0  0  0
 45 46  2  0  0  0
 45113  1  0  0  0
 46114  1  0  0  0
 47115  1  0  0  0
 47116  1  0  0  0
 48 56  1  0  0  0
 48 65  1  0  0  0
 48117  1  0  0  0
 49 50  1  0  0  0
 49 53  1  0  0  0
 49 64  1  0  0  0
 49118  1  0  0  0
 50 51  1  0  0  0
 50119  1  0  0  0
 50120  1  0  0  0
 51 52  1  0  0  0
 51121  1  0  0  0
 51122  1  0  0  0
 52123  1  0  0  0
 52124  1  0  0  0
 53 54  1  0  0  0
 54 55  2  0  0  0
 54125  1  0  0  0
 55 57  1  0  0  0
 55126  1  0  0  0
 56 69  2  0  0  0
 57 58  2  0  0  0
 57127  1  0  0  0
 58128  1  0  0  0
 59 60  1  0  0  0
 59 61  1  0  0  0
 59 62  1  0  0  0
 60129  1  0  0  0
 60130  1  0  0  0
 60131  1  0  0  0
 61132  1  0  0  0
 61133  1  0  0  0
 61134  1  0  0  0
 62135  1  0  0  0
 62136  1  0  0  0
 62137  1  0  0  0
 63 65  1  0  0  0
 63138  1  0  0  0
 63139  1  0  0  0
 63140  1  0  0  0
 64141  1  0  0  0
 65142  1  0  0  0
 68 81  1  0  0  0
 71 72  2  0  0  0
 71 73  1  0  0  0
 71143  1  0  0  0
 72 74  1  0  0  0
 72 77  1  0  0  0
 73 76  2  0  0  0
 73 80  1  0  0  0
 74 75  2  0  0  0
 74 79  1  0  0  0
 75 76  1  0  0  0
 75 78  1  0  0  0
 76 83  1  0  0  0
 77144  1  0  0  0
 77145  1  0  0  0
 77146  1  0  0  0
 78147  1  0  0  0
 78148  1  0  0  0
 78149  1  0  0  0
 79 81  1  0  0  0
 79150  1  0  0  0
 79151  1  0  0  0
 80 82  1  0  0  0
 80152  1  0  0  0
 80153  1  0  0  0
 81154  1  0  0  0
 81155  1  0  0  0
 82156  1  0  0  0
M  ISO  4   1 100  68 101  81 101  82 100
M  END
> <chiral flag>
0

> <version>
0

> <s_m_source_file>
/data/baiqing/PycharmProjects/Reinvent-master-3.2/result/LINK_invent/BTK/process_docking_weight1_custom_sum_contain_oxygen_bond_distance_aromatic_linkinvent_7_9_3/rearranged_h_0027.sdf

> <i_m_source_file_index>
40

> <r_mmod_Potential_Energy-OPLS-2005>
340.520599365234

> <r_mmod_Stretch_Energy-OPLS-2005>
191.077590942383

> <r_mmod_Bend_Energy-OPLS-2005>
258.511657714844

> <r_mmod_Torsional_Energy-OPLS-2005>
204.803009033203

> <r_mmod_Improper_Torsional_Energy-OPLS-2005>
6.14866399765015

> <r_mmod_Van_der_Waal_Energy-OPLS-2005>
137.666885375977

> <r_mmod_Electrostatic_Energy-OPLS-2005>
-401.570648193359

> <r_mmod_Solvation_Energy-OPLS-2005>
-196.88655090332

> <b_mmod_Minimization_Converged-OPLS-2005>
0

> <r_mmod_RMS_Derivative-OPLS-2005>
1.59829330444336

$$$$
40
                    3D
 Structure written by MMmdl.
149157  0  0  1  0            999 V2000
  -30.5262  -14.9705   20.4213 C   0  0  0  0  0  0
  -30.4405  -12.5918   19.5096 C   0  0  0  0  0  0
  -29.5215  -12.5238   18.2657 C   0  0  0  0  0  0
  -28.0625  -12.2932   18.7003 C   0  0  0  0  0  0
  -27.6342  -13.2407   19.8480 C   0  0  2  0  0  0
  -28.6745  -13.2862   20.9918 C   0  0  0  0  0  0
  -25.2543  -13.8237   20.5767 C   0  0  0  0  0  0
  -24.1830  -13.0429   20.9248 C   0  0  0  0  0  0
  -24.6421  -11.6949   20.8751 C   0  0  0  0  0  0
  -23.9084  -10.4293   21.0405 C   0  0  0  0  0  0
  -24.3628   -9.4209   21.9171 C   0  0  0  0  0  0
  -23.6302   -8.2247   22.0757 C   0  0  0  0  0  0
  -22.4267   -8.0288   21.3555 C   0  0  0  0  0  0
  -21.9914   -9.0267   20.4647 C   0  0  0  0  0  0
  -22.7264  -10.2149   20.3062 C   0  0  0  0  0  0
  -21.6846   -6.0729   22.5294 C   0  0  0  0  0  0
  -21.4004   -6.5635   23.8216 C   0  0  0  0  0  0
  -21.3670   -5.6802   24.9176 C   0  0  0  0  0  0
  -21.6043   -4.3059   24.7234 C   0  0  0  0  0  0
  -21.8818   -3.8151   23.4348 C   0  0  0  0  0  0
  -21.9200   -4.6962   22.3407 C   0  0  0  0  0  0
  -22.7847  -13.5241   21.1897 C   0  0  0  0  0  0
  -22.1660   -4.2146   21.0971 F   0  0  0  0  0  0
  -21.5632   -3.4537   25.7732 F   0  0  0  0  0  0
  -29.9505  -13.6993   20.3881 N   0  0  0  0  0  0
  -26.2897  -12.9439   20.3277 N   0  0  0  0  0  0
  -25.9341  -11.6557   20.5744 N   0  0  0  0  0  0
  -22.0465  -12.8190   22.0418 N   0  0  0  0  0  0
  -25.4284  -15.1969   20.4382 N   0  0  0  0  0  0
  -31.7246  -15.0482   20.1290 O   0  0  0  0  0  0
  -21.6657   -6.8884   21.4248 O   0  0  0  0  0  0
  -22.3522  -14.5507   20.6746 O   0  0  0  0  0  0
  -24.6434  -31.8437   23.1886 C   0  0  0  0  0  0
  -25.9209  -32.4686   23.8270 C   0  0  1  0  0  0
  -27.2096  -27.1150   20.1822 C   0  0  0  0  0  0
  -25.5967  -33.8478   24.2201 N   0  0  0  0  0  0
  -23.4481  -30.4663   21.5327 C   0  0  2  0  0  0
  -24.8971  -28.8885   20.1122 C   0  0  0  0  0  0
  -22.7567  -29.4600   22.4838 C   0  0  0  0  0  0
  -18.0295  -28.1381   22.8492 C   0  0  0  0  0  0
  -24.1490  -36.7251   23.2635 C   0  0  0  0  0  0
  -26.0027  -30.7166   21.3861 C   0  0  0  0  0  0
  -26.0733  -29.3234   20.7344 C   0  0  0  0  0  0
  -27.2310  -28.4563   20.7490 C   0  0  0  0  0  0
  -26.0077  -26.7839   19.5190 C   0  0  0  0  0  0
  -24.8784  -27.6324   19.4886 C   0  0  0  0  0  0
  -23.6741  -29.7940   20.1531 C   0  0  0  0  0  0
  -25.4124  -36.3022   24.0316 C   0  0  1  0  0  0
  -20.5920  -28.3767   23.1217 C   0  0  2  0  0  0
  -20.6814  -26.9457   22.5356 C   0  0  0  0  0  0
  -19.5769  -26.6410   21.5204 C   0  0  0  0  0  0
  -18.1964  -26.7896   22.1674 C   0  0  0  0  0  0
  -19.1552  -28.8884   23.2860 C   0  0  0  0  0  0
  -18.9474  -30.1495   23.8855 C   0  0  0  0  0  0
  -17.6448  -30.6590   24.0565 C   0  0  0  0  0  0
  -25.9072  -34.9420   23.5064 C   0  0  0  0  0  0
  -16.5356  -29.9059   23.6376 C   0  0  0  0  0  0
  -16.7286  -28.6500   23.0348 C   0  0  0  0  0  0
  -26.4542  -31.6550   25.0708 C   0  0  0  0  0  0
  -25.3751  -31.3728   26.1419 C   0  0  0  0  0  0
  -27.0415  -30.2962   24.6273 C   0  0  0  0  0  0
  -27.6073  -32.4329   25.7488 C   0  0  0  0  0  0
  -27.5593  -37.1754   24.8453 C   0  0  0  0  0  0
  -21.4237  -29.3135   22.3621 N   0  0  0  0  0  0
  -26.4284  -37.3766   23.9420 N   0  0  0  0  0  0
  -24.7174  -31.0320   22.0899 N   0  0  0  0  0  0
  -23.4195  -28.8116   23.2993 O   0  0  0  0  0  0
  -28.2557  -26.1168   20.2526 O   0  0  0  0  0  0
  -26.5675  -34.8918   22.4638 O   0  0  0  0  0  0
  -23.5555  -32.1325   23.7113 O   0  0  0  0  0  0
  -28.1692  -20.3214   22.6201 C   0  0  0  0  0  0
  -29.3058  -19.0813   20.8188 C   0  0  0  0  0  0
  -28.6731  -19.1052   22.0870 C   0  0  0  0  0  0
  -29.3682  -20.4448   20.2092 C   0  0  0  0  0  0
  -28.8218  -21.6905   20.8297 C   0  0  0  0  0  0
  -29.9686  -17.6777   20.2030 C   0  0  0  0  0  0
  -29.0655  -23.2889   20.4169 C   0  0  0  0  0  0
  -27.9568  -24.5732   20.3718 C   0  0  0  0  0  0
  -28.2416  -21.5534   22.0407 N   0  0  0  0  0  0
  -29.7311  -16.1416   20.5721 N   0  0  0  0  0  0
  -28.5139  -17.6783   23.0526 Cl  0  0  0  0  0  0
  -30.1715  -20.6021   18.6915 Cl  0  0  0  0  0  0
  -31.4804  -12.7382   19.2174 H   0  0  0  0  0  0
  -30.4284  -11.6379   20.0383 H   0  0  0  0  0  0
  -29.8479  -11.7207   17.6042 H   0  0  0  0  0  0
  -29.6123  -13.4417   17.6813 H   0  0  0  0  0  0
  -27.9937  -11.2563   19.0335 H   0  0  0  0  0  0
  -27.3915  -12.3690   17.8472 H   0  0  0  0  0  0
  -27.6011  -14.2354   19.3997 H   0  0  0  0  0  0
  -28.7628  -12.3227   21.4920 H   0  0  0  0  0  0
  -28.3644  -13.9990   21.7594 H   0  0  0  0  0  0
  -25.2773   -9.5673   22.4746 H   0  0  0  0  0  0
  -24.0008   -7.4637   22.7464 H   0  0  0  0  0  0
  -21.0851   -8.8797   19.8948 H   0  0  0  0  0  0
  -22.3726  -10.9682   19.6173 H   0  0  0  0  0  0
  -21.2004   -7.6141   23.9718 H   0  0  0  0  0  0
  -21.1479   -6.0513   25.9071 H   0  0  0  0  0  0
  -22.0600   -2.7606   23.2850 H   0  0  0  0  0  0
  -22.4079  -11.9851   22.4790 H   0  0  0  0  0  0
  -21.1085  -13.1226   22.2658 H   0  0  0  0  0  0
  -24.6802  -15.8529   20.6159 H   0  0  0  0  0  0
  -26.2901  -15.6470   20.1652 H   0  0  0  0  0  0
  -26.7270  -32.5320   23.0979 H   0  0  0  0  0  0
  -25.0068  -33.9608   25.0331 H   0  0  0  0  0  0
  -22.7505  -31.2927   21.3763 H   0  0  0  0  0  0
  -23.3779  -35.9547   23.3224 H   0  0  0  0  0  0
  -24.3601  -36.8959   22.2068 H   0  0  0  0  0  0
  -23.7215  -37.6407   23.6723 H   0  0  0  0  0  0
  -26.1605  -31.4673   20.6104 H   0  0  0  0  0  0
  -26.8738  -30.7699   22.0279 H   0  0  0  0  0  0
  -28.1264  -28.7877   21.2559 H   0  0  0  0  0  0
  -25.9031  -25.8297   19.0288 H   0  0  0  0  0  0
  -23.9805  -27.2929   18.9896 H   0  0  0  0  0  0
  -23.8155  -30.5658   19.3958 H   0  0  0  0  0  0
  -22.7875  -29.2374   19.8428 H   0  0  0  0  0  0
  -25.1290  -36.1820   25.0813 H   0  0  0  0  0  0
  -21.0010  -28.3351   24.1344 H   0  0  0  0  0  0
  -20.5780  -26.2341   23.3568 H   0  0  0  0  0  0
  -21.6657  -26.7518   22.1089 H   0  0  0  0  0  0
  -19.6961  -25.6319   21.1235 H   0  0  0  0  0  0
  -19.6656  -27.3240   20.6736 H   0  0  0  0  0  0
  -17.4191  -26.6577   21.4117 H   0  0  0  0  0  0
  -18.0485  -26.0073   22.9137 H   0  0  0  0  0  0
  -19.7946  -30.7303   24.2221 H   0  0  0  0  0  0
  -17.5028  -31.6263   24.5141 H   0  0  0  0  0  0
  -15.5361  -30.2938   23.7689 H   0  0  0  0  0  0
  -15.8693  -28.0758   22.7133 H   0  0  0  0  0  0
  -24.5885  -30.7125   25.7732 H   0  0  0  0  0  0
  -24.9005  -32.2916   26.4873 H   0  0  0  0  0  0
  -25.8050  -30.8857   27.0182 H   0  0  0  0  0  0
  -26.3033  -29.6659   24.1298 H   0  0  0  0  0  0
  -27.4059  -29.7261   25.4825 H   0  0  0  0  0  0
  -27.8917  -30.4194   23.9567 H   0  0  0  0  0  0
  -27.2634  -33.3604   26.2069 H   0  0  0  0  0  0
  -28.3869  -32.6933   25.0320 H   0  0  0  0  0  0
  -28.0761  -31.8472   26.5400 H   0  0  0  0  0  0
  -28.2525  -38.0140   24.7621 H   0  0  0  0  0  0
  -28.1173  -36.2672   24.6100 H   0  0  0  0  0  0
  -27.2339  -37.1190   25.8865 H   0  0  0  0  0  0
  -20.9447  -29.8887   21.6831 H   0  0  0  0  0  0
  -26.0116  -38.2797   24.1525 H   0  0  0  0  0  0
  -27.6998  -20.3067   23.5984 H   0  0  0  0  0  0
  -29.6989  -17.7349   19.1470 H   0  0  0  0  0  0
  -31.0509  -17.8426   20.2081 H   0  0  0  0  0  0
  -29.5849  -23.2823   19.4649 H   0  0  0  0  0  0
  -29.8230  -23.6073   21.1284 H   0  0  0  0  0  0
  -27.3667  -24.4887   21.2853 H   0  0  0  0  0  0
  -27.2670  -24.3082   19.5762 H   0  0  0  0  0  0
  -28.7780  -15.9337   20.8202 H   0  0  0  0  0  0
  1 25  1  0  0  0
  1 30  2  0  0  0
  1 80  1  0  0  0
  2  3  1  0  0  0
  2 25  1  0  0  0
  2 83  1  0  0  0
  2 84  1  0  0  0
  3  4  1  0  0  0
  3 85  1  0  0  0
  3 86  1  0  0  0
  4  5  1  0  0  0
  4 87  1  0  0  0
  4 88  1  0  0  0
  5  6  1  0  0  0
  5 26  1  0  0  0
  5 89  1  0  0  0
  6 25  1  0  0  0
  6 90  1  0  0  0
  6 91  1  0  0  0
  7  8  2  0  0  0
  7 26  1  0  0  0
  7 29  1  0  0  0
  8  9  1  0  0  0
  8 22  1  0  0  0
  9 10  1  0  0  0
  9 27  2  0  0  0
 10 11  2  0  0  0
 10 15  1  0  0  0
 11 12  1  0  0  0
 11 92  1  0  0  0
 12 13  2  0  0  0
 12 93  1  0  0  0
 13 14  1  0  0  0
 13 31  1  0  0  0
 14 15  2  0  0  0
 14 94  1  0  0  0
 15 95  1  0  0  0
 16 17  2  0  0  0
 16 21  1  0  0  0
 16 31  1  0  0  0
 17 18  1  0  0  0
 17 96  1  0  0  0
 18 19  2  0  0  0
 18 97  1  0  0  0
 19 20  1  0  0  0
 19 24  1  0  0  0
 20 21  2  0  0  0
 20 98  1  0  0  0
 21 23  1  0  0  0
 22 28  1  0  0  0
 22 32  2  0  0  0
 26 27  1  0  0  0
 28 99  1  0  0  0
 28100  1  0  0  0
 29101  1  0  0  0
 29102  1  0  0  0
 33 34  1  0  0  0
 33 66  1  0  0  0
 33 70  2  0  0  0
 34 36  1  0  0  0
 34 59  1  0  0  0
 34103  1  0  0  0
 35 44  2  0  0  0
 35 45  1  0  0  0
 35 68  1  0  0  0
 36 56  1  0  0  0
 36104  1  0  0  0
 37 39  1  0  0  0
 37 47  1  0  0  0
 37 66  1  0  0  0
 37105  1  0  0  0
 38 43  2  0  0  0
 38 46  1  0  0  0
 38 47  1  0  0  0
 39 64  1  0  0  0
 39 67  2  0  0  0
 40 52  1  0  0  0
 40 53  2  0  0  0
 40 58  1  0  0  0
 41106  1  0  0  0
 41107  1  0  0  0
 41108  1  0  0  0
 41 48  1  0  0  0
 42 43  1  0  0  0
 42 66  1  0  0  0
 42109  1  0  0  0
 42110  1  0  0  0
 43 44  1  0  0  0
 44111  1  0  0  0
 45 46  2  0  0  0
 45112  1  0  0  0
 46113  1  0  0  0
 47114  1  0  0  0
 47115  1  0  0  0
 48 56  1  0  0  0
 48 65  1  0  0  0
 48116  1  0  0  0
 49 50  1  0  0  0
 49 53  1  0  0  0
 49 64  1  0  0  0
 49117  1  0  0  0
 50 51  1  0  0  0
 50118  1  0  0  0
 50119  1  0  0  0
 51 52  1  0  0  0
 51120  1  0  0  0
 51121  1  0  0  0
 52122  1  0  0  0
 52123  1  0  0  0
 53 54  1  0  0  0
 54 55  2  0  0  0
 54124  1  0  0  0
 55 57  1  0  0  0
 55125  1  0  0  0
 56 69  2  0  0  0
 57 58  2  0  0  0
 57126  1  0  0  0
 58127  1  0  0  0
 59 60  1  0  0  0
 59 61  1  0  0  0
 59 62  1  0  0  0
 60128  1  0  0  0
 60129  1  0  0  0
 60130  1  0  0  0
 61131  1  0  0  0
 61132  1  0  0  0
 61133  1  0  0  0
 62134  1  0  0  0
 62135  1  0  0  0
 62136  1  0  0  0
 63 65  1  0  0  0
 63137  1  0  0  0
 63138  1  0  0  0
 63139  1  0  0  0
 64140  1  0  0  0
 65141  1  0  0  0
 68 78  1  0  0  0
 71 73  2  0  0  0
 71 79  1  0  0  0
 71142  1  0  0  0
 72 73  1  0  0  0
 72 74  2  0  0  0
 72 76  1  0  0  0
 73 81  1  0  0  0
 74 75  1  0  0  0
 74 82  1  0  0  0
 75 77  1  0  0  0
 75 79  2  0  0  0
 76 80  1  0  0  0
 76143  1  0  0  0
 76144  1  0  0  0
 77 78  1  0  0  0
 77145  1  0  0  0
 77146  1  0  0  0
 78147  1  0  0  0
 78148  1  0  0  0
 80149  1  0  0  0
M  ISO  4   1 100  68 101  78 101  80 100
M  END
> <chiral flag>
0

> <version>
0

> <s_m_source_file>
/data/baiqing/PycharmProjects/Reinvent-master-3.2/result/LINK_invent/BTK/process_docking_weight1_custom_sum_contain_oxygen_bond_distance_aromatic_linkinvent_7_9_3/rearranged_h_0027.sdf

> <i_m_source_file_index>
41

> <r_mmod_Potential_Energy-OPLS-2005>
411.659362792969

> <r_mmod_Stretch_Energy-OPLS-2005>
287.22314453125

> <r_mmod_Bend_Energy-OPLS-2005>
263.988555908203

> <r_mmod_Torsional_Energy-OPLS-2005>
206.263092041016

> <r_mmod_Improper_Torsional_Energy-OPLS-2005>
6.03978872299194

> <r_mmod_Van_der_Waal_Energy-OPLS-2005>
127.890747070312

> <r_mmod_Electrostatic_Energy-OPLS-2005>
-468.227478027344

> <r_mmod_Solvation_Energy-OPLS-2005>
-222.189483642578

> <b_mmod_Minimization_Converged-OPLS-2005>
0

> <r_mmod_RMS_Derivative-OPLS-2005>
9.06705188751221

$$$$
41
                    3D
 Structure written by MMmdl.
159167  0  0  1  0            999 V2000
  -30.7440  -14.5344   20.6452 C   0  0  0  0  0  0
  -30.4237  -12.3675   19.4780 C   0  0  0  0  0  0
  -29.5048  -12.5002   18.2475 C   0  0  0  0  0  0
  -28.0461  -12.2892   18.6787 C   0  0  0  0  0  0
  -27.6545  -13.2052   19.8684 C   0  0  2  0  0  0
  -28.6877  -13.1007   21.0194 C   0  0  0  0  0  0
  -25.2565  -13.8094   20.5676 C   0  0  0  0  0  0
  -24.1813  -13.0369   20.9179 C   0  0  0  0  0  0
  -24.6395  -11.6839   20.8765 C   0  0  0  0  0  0
  -23.9036  -10.4259   21.0451 C   0  0  0  0  0  0
  -24.3608   -9.4157   21.9203 C   0  0  0  0  0  0
  -23.6288   -8.2178   22.0756 C   0  0  0  0  0  0
  -22.4248   -8.0249   21.3565 C   0  0  0  0  0  0
  -21.9869   -9.0222   20.4669 C   0  0  0  0  0  0
  -22.7208  -10.2113   20.3092 C   0  0  0  0  0  0
  -21.6809   -6.0729   22.5307 C   0  0  0  0  0  0
  -21.4011   -6.5654   23.8251 C   0  0  0  0  0  0
  -21.3648   -5.6816   24.9201 C   0  0  0  0  0  0
  -21.6026   -4.3080   24.7274 C   0  0  0  0  0  0
  -21.8789   -3.8153   23.4396 C   0  0  0  0  0  0
  -21.9168   -4.6958   22.3441 C   0  0  0  0  0  0
  -22.7863  -13.5173   21.1875 C   0  0  0  0  0  0
  -22.1619   -4.2149   21.1007 F   0  0  0  0  0  0
  -21.5637   -3.4545   25.7775 F   0  0  0  0  0  0
  -30.0298  -13.3809   20.4759 N   0  0  0  0  0  0
  -26.2978  -12.9276   20.3304 N   0  0  0  0  0  0
  -25.9321  -11.6425   20.5783 N   0  0  0  0  0  0
  -22.0483  -12.8236   22.0451 N   0  0  0  0  0  0
  -25.4242  -15.1811   20.4083 N   0  0  0  0  0  0
  -31.8344  -14.7105   20.0939 O   0  0  0  0  0  0
  -21.6574   -6.8866   21.4265 O   0  0  0  0  0  0
  -22.3570  -14.5491   20.6730 O   0  0  0  0  0  0
  -24.6159  -31.8650   23.2101 C   0  0  0  0  0  0
  -25.9032  -32.4801   23.8396 C   0  0  1  0  0  0
  -27.2444  -27.4431   20.1073 C   0  0  0  0  0  0
  -25.5880  -33.8608   24.2322 N   0  0  0  0  0  0
  -23.4054  -30.4840   21.5515 C   0  0  2  0  0  0
  -24.8552  -28.9440   20.1252 C   0  0  0  0  0  0
  -22.7417  -29.4641   22.5036 C   0  0  0  0  0  0
  -18.0262  -28.1393   22.8502 C   0  0  0  0  0  0
  -24.1473  -36.7303   23.2643 C   0  0  0  0  0  0
  -25.9330  -30.8344   21.3610 C   0  0  0  0  0  0
  -26.0145  -29.4703   20.7083 C   0  0  0  0  0  0
  -27.2155  -28.7317   20.6861 C   0  0  0  0  0  0
  -26.0705  -26.9160   19.5295 C   0  0  0  0  0  0
  -24.8774  -27.6668   19.5310 C   0  0  0  0  0  0
  -23.6151  -29.8080   20.1680 C   0  0  0  0  0  0
  -25.4097  -36.3108   24.0346 C   0  0  1  0  0  0
  -20.5847  -28.3654   23.1331 C   0  0  2  0  0  0
  -20.6755  -26.9399   22.5444 C   0  0  0  0  0  0
  -19.5735  -26.6400   21.5225 C   0  0  0  0  0  0
  -18.1904  -26.7940   22.1635 C   0  0  0  0  0  0
  -19.1517  -28.8850   23.2897 C   0  0  0  0  0  0
  -18.9444  -30.1464   23.8896 C   0  0  0  0  0  0
  -17.6444  -30.6594   24.0581 C   0  0  0  0  0  0
  -25.9029  -34.9468   23.5137 C   0  0  0  0  0  0
  -16.5333  -29.9091   23.6354 C   0  0  0  0  0  0
  -16.7256  -28.6517   23.0362 C   0  0  0  0  0  0
  -26.4490  -31.6602   25.0734 C   0  0  0  0  0  0
  -25.3778  -31.3710   26.1500 C   0  0  0  0  0  0
  -27.0357  -30.3056   24.6141 C   0  0  0  0  0  0
  -27.6099  -32.4338   25.7447 C   0  0  0  0  0  0
  -27.5574  -37.1780   24.8469 C   0  0  0  0  0  0
  -21.4147  -29.2997   22.3745 N   0  0  0  0  0  0
  -26.4281  -37.3790   23.9429 N   0  0  0  0  0  0
  -24.6697  -31.0749   22.0999 N   0  0  0  0  0  0
  -23.4193  -28.8194   23.3094 O   0  0  0  0  0  0
  -28.4197  -26.7256   20.0729 O   0  0  0  0  0  0
  -26.5595  -34.8916   22.4703 O   0  0  0  0  0  0
  -23.5346  -32.1390   23.7479 O   0  0  0  0  0  0
  -29.8593  -17.7748   19.4223 C   0  0  0  0  0  0
  -30.2053  -18.0398   20.7540 C   0  0  0  0  0  0
  -29.6692  -20.4562   20.3656 C   0  0  0  0  0  0
  -29.3932  -20.1567   18.9970 C   0  0  0  0  0  0
  -30.0869  -19.3856   21.2175 C   0  0  0  0  0  0
  -29.4537  -18.8043   18.5541 C   0  0  0  0  0  0
  -29.0410  -21.2593   18.0041 C   0  0  0  0  0  0
  -29.4446  -21.8545   21.0329 C   0  0  0  0  0  0
  -30.7403  -16.8860   21.6349 C   0  0  0  0  0  0
  -29.6474  -23.2567   20.3391 C   0  0  0  0  0  0
  -28.4136  -24.2318   20.1881 C   0  0  0  0  0  0
  -28.5082  -25.5938   20.9526 C   0  0  0  0  0  0
  -30.1818  -15.5233   21.3723 N   0  0  0  0  0  0
  -30.3709  -19.6475   22.5189 F   0  0  0  0  0  0
  -29.0526  -18.3388   16.9386 Cl  0  0  0  0  0  0
  -31.4689  -12.4655   19.1835 H   0  0  0  0  0  0
  -30.3338  -11.3741   19.9191 H   0  0  0  0  0  0
  -29.7891  -11.7673   17.4942 H   0  0  0  0  0  0
  -29.6238  -13.4797   17.7847 H   0  0  0  0  0  0
  -27.9524  -11.2447   18.9886 H   0  0  0  0  0  0
  -27.3626  -12.4189   17.8402 H   0  0  0  0  0  0
  -27.6736  -14.2235   19.4827 H   0  0  0  0  0  0
  -28.6696  -12.1041   21.4562 H   0  0  0  0  0  0
  -28.4174  -13.7876   21.8262 H   0  0  0  0  0  0
  -25.2754   -9.5581   22.4786 H   0  0  0  0  0  0
  -23.9979   -7.4505   22.7480 H   0  0  0  0  0  0
  -21.0753   -8.8736   19.8983 H   0  0  0  0  0  0
  -22.3636  -10.9659   19.6223 H   0  0  0  0  0  0
  -21.1998   -7.6154   23.9763 H   0  0  0  0  0  0
  -21.1511   -6.0544   25.9116 H   0  0  0  0  0  0
  -22.0575   -2.7611   23.2890 H   0  0  0  0  0  0
  -22.4018  -11.9921   22.4907 H   0  0  0  0  0  0
  -21.1119  -13.1324   22.2627 H   0  0  0  0  0  0
  -24.6559  -15.8281   20.5496 H   0  0  0  0  0  0
  -26.2725  -15.6349   20.0935 H   0  0  0  0  0  0
  -26.7118  -32.5507   23.1168 H   0  0  0  0  0  0
  -25.0031  -33.9778   25.0468 H   0  0  0  0  0  0
  -22.6937  -31.2996   21.4086 H   0  0  0  0  0  0
  -23.3738  -35.9631   23.3323 H   0  0  0  0  0  0
  -24.3558  -36.8899   22.2054 H   0  0  0  0  0  0
  -23.7205  -37.6507   23.6646 H   0  0  0  0  0  0
  -26.0483  -31.6062   20.5974 H   0  0  0  0  0  0
  -26.8186  -30.8832   21.9838 H   0  0  0  0  0  0
  -28.1207  -29.1428   21.1112 H   0  0  0  0  0  0
  -26.0842  -25.9379   19.0725 H   0  0  0  0  0  0
  -23.9850  -27.2548   19.0858 H   0  0  0  0  0  0
  -23.7232  -30.5793   19.4036 H   0  0  0  0  0  0
  -22.7411  -29.2232   19.8737 H   0  0  0  0  0  0
  -25.1265  -36.1986   25.0835 H   0  0  0  0  0  0
  -20.9934  -28.3221   24.1455 H   0  0  0  0  0  0
  -20.5660  -26.2267   23.3621 H   0  0  0  0  0  0
  -21.6624  -26.7445   22.1221 H   0  0  0  0  0  0
  -19.6889  -25.6321   21.1232 H   0  0  0  0  0  0
  -19.6671  -27.3243   20.6780 H   0  0  0  0  0  0
  -17.4185  -26.6698   21.4028 H   0  0  0  0  0  0
  -18.0289  -26.0080   22.9023 H   0  0  0  0  0  0
  -19.7915  -30.7295   24.2258 H   0  0  0  0  0  0
  -17.4992  -31.6273   24.5183 H   0  0  0  0  0  0
  -15.5332  -30.2989   23.7700 H   0  0  0  0  0  0
  -15.8651  -28.0849   22.7076 H   0  0  0  0  0  0
  -24.5962  -30.7032   25.7850 H   0  0  0  0  0  0
  -24.8952  -32.2867   26.4947 H   0  0  0  0  0  0
  -25.8148  -30.8900   27.0264 H   0  0  0  0  0  0
  -26.2912  -29.6741   24.1285 H   0  0  0  0  0  0
  -27.4235  -29.7369   25.4604 H   0  0  0  0  0  0
  -27.8688  -30.4393   23.9235 H   0  0  0  0  0  0
  -27.2767  -33.3664   26.2013 H   0  0  0  0  0  0
  -28.3868  -32.6850   25.0214 H   0  0  0  0  0  0
  -28.0812  -31.8474   26.5343 H   0  0  0  0  0  0
  -28.2619  -38.0056   24.7533 H   0  0  0  0  0  0
  -28.1043  -36.2598   24.6278 H   0  0  0  0  0  0
  -27.2304  -37.1416   25.8873 H   0  0  0  0  0  0
  -20.9360  -29.8666   21.6888 H   0  0  0  0  0  0
  -26.0182  -38.2871   24.1453 H   0  0  0  0  0  0
  -29.9310  -16.7635   19.0463 H   0  0  0  0  0  0
  -29.9058  -21.9061   17.8719 H   0  0  0  0  0  0
  -28.1953  -21.8526   18.3571 H   0  0  0  0  0  0
  -28.8024  -20.9151   16.9977 H   0  0  0  0  0  0
  -30.1818  -21.8570   21.8377 H   0  0  0  0  0  0
  -28.4844  -21.8304   21.5443 H   0  0  0  0  0  0
  -30.5815  -17.1299   22.6863 H   0  0  0  0  0  0
  -31.8256  -16.8680   21.5132 H   0  0  0  0  0  0
  -30.2474  -23.2263   19.4315 H   0  0  0  0  0  0
  -30.3376  -23.7758   21.0022 H   0  0  0  0  0  0
  -27.4723  -23.7340   20.4312 H   0  0  0  0  0  0
  -28.3039  -24.5071   19.1401 H   0  0  0  0  0  0
  -29.4643  -25.6936   21.4732 H   0  0  0  0  0  0
  -27.7610  -25.6546   21.7497 H   0  0  0  0  0  0
  -29.2997  -15.3154   21.8225 H   0  0  0  0  0  0
  1 25  1  0  0  0
  1 30  2  0  0  0
  1 83  1  0  0  0
  2  3  1  0  0  0
  2 25  1  0  0  0
  2 86  1  0  0  0
  2 87  1  0  0  0
  3  4  1  0  0  0
  3 88  1  0  0  0
  3 89  1  0  0  0
  4  5  1  0  0  0
  4 90  1  0  0  0
  4 91  1  0  0  0
  5  6  1  0  0  0
  5 26  1  0  0  0
  5 92  1  0  0  0
  6 25  1  0  0  0
  6 93  1  0  0  0
  6 94  1  0  0  0
  7  8  2  0  0  0
  7 26  1  0  0  0
  7 29  1  0  0  0
  8  9  1  0  0  0
  8 22  1  0  0  0
  9 10  1  0  0  0
  9 27  2  0  0  0
 10 11  2  0  0  0
 10 15  1  0  0  0
 11 12  1  0  0  0
 11 95  1  0  0  0
 12 13  2  0  0  0
 12 96  1  0  0  0
 13 14  1  0  0  0
 13 31  1  0  0  0
 14 15  2  0  0  0
 14 97  1  0  0  0
 15 98  1  0  0  0
 16 17  2  0  0  0
 16 21  1  0  0  0
 16 31  1  0  0  0
 17 18  1  0  0  0
 17 99  1  0  0  0
 18 19  2  0  0  0
 18100  1  0  0  0
 19 20  1  0  0  0
 19 24  1  0  0  0
 20 21  2  0  0  0
 20101  1  0  0  0
 21 23  1  0  0  0
 22 28  1  0  0  0
 22 32  2  0  0  0
 26 27  1  0  0  0
 28102  1  0  0  0
 28103  1  0  0  0
 29104  1  0  0  0
 29105  1  0  0  0
 33 34  1  0  0  0
 33 66  1  0  0  0
 33 70  2  0  0  0
 34 36  1  0  0  0
 34 59  1  0  0  0
 34106  1  0  0  0
 35 44  2  0  0  0
 35 45  1  0  0  0
 35 68  1  0  0  0
 36 56  1  0  0  0
 36107  1  0  0  0
 37 39  1  0  0  0
 37 47  1  0  0  0
 37 66  1  0  0  0
 37108  1  0  0  0
 38 43  2  0  0  0
 38 46  1  0  0  0
 38 47  1  0  0  0
 39 64  1  0  0  0
 39 67  2  0  0  0
 40 52  1  0  0  0
 40 53  2  0  0  0
 40 58  1  0  0  0
 41109  1  0  0  0
 41110  1  0  0  0
 41111  1  0  0  0
 41 48  1  0  0  0
 42 43  1  0  0  0
 42 66  1  0  0  0
 42112  1  0  0  0
 42113  1  0  0  0
 43 44  1  0  0  0
 44114  1  0  0  0
 45 46  2  0  0  0
 45115  1  0  0  0
 46116  1  0  0  0
 47117  1  0  0  0
 47118  1  0  0  0
 48 56  1  0  0  0
 48 65  1  0  0  0
 48119  1  0  0  0
 49 50  1  0  0  0
 49 53  1  0  0  0
 49 64  1  0  0  0
 49120  1  0  0  0
 50 51  1  0  0  0
 50121  1  0  0  0
 50122  1  0  0  0
 51 52  1  0  0  0
 51123  1  0  0  0
 51124  1  0  0  0
 52125  1  0  0  0
 52126  1  0  0  0
 53 54  1  0  0  0
 54 55  2  0  0  0
 54127  1  0  0  0
 55 57  1  0  0  0
 55128  1  0  0  0
 56 69  2  0  0  0
 57 58  2  0  0  0
 57129  1  0  0  0
 58130  1  0  0  0
 59 60  1  0  0  0
 59 61  1  0  0  0
 59 62  1  0  0  0
 60131  1  0  0  0
 60132  1  0  0  0
 60133  1  0  0  0
 61134  1  0  0  0
 61135  1  0  0  0
 61136  1  0  0  0
 62137  1  0  0  0
 62138  1  0  0  0
 62139  1  0  0  0
 63 65  1  0  0  0
 63140  1  0  0  0
 63141  1  0  0  0
 63142  1  0  0  0
 64143  1  0  0  0
 65144  1  0  0  0
 68 82  1  0  0  0
 71 72  2  0  0  0
 71 76  1  0  0  0
 71145  1  0  0  0
 72 75  1  0  0  0
 72 79  1  0  0  0
 73 74  1  0  0  0
 73 75  2  0  0  0
 73 78  1  0  0  0
 74 76  2  0  0  0
 74 77  1  0  0  0
 75 84  1  0  0  0
 76 85  1  0  0  0
 77146  1  0  0  0
 77147  1  0  0  0
 77148  1  0  0  0
 78 80  1  0  0  0
 78149  1  0  0  0
 78150  1  0  0  0
 79 83  1  0  0  0
 79151  1  0  0  0
 79152  1  0  0  0
 80 81  1  0  0  0
 80153  1  0  0  0
 80154  1  0  0  0
 81 82  1  0  0  0
 81155  1  0  0  0
 81156  1  0  0  0
 82157  1  0  0  0
 82158  1  0  0  0
 83159  1  0  0  0
M  ISO  4   1 100  68 101  82 101  83 100
M  END
> <chiral flag>
0

> <version>
0

> <s_m_source_file>
/data/baiqing/PycharmProjects/Reinvent-master-3.2/result/LINK_invent/BTK/process_docking_weight1_custom_sum_contain_oxygen_bond_distance_aromatic_linkinvent_7_9_3/rearranged_h_0027.sdf

> <i_m_source_file_index>
42

> <r_mmod_Potential_Energy-OPLS-2005>
13.8440437316895

> <r_mmod_Stretch_Energy-OPLS-2005>
54.6967582702637

> <r_mmod_Bend_Energy-OPLS-2005>
135.173034667969

> <r_mmod_Torsional_Energy-OPLS-2005>
247.95735168457

> <r_mmod_Improper_Torsional_Energy-OPLS-2005>
2.34220504760742

> <r_mmod_Van_der_Waal_Energy-OPLS-2005>
156.001525878906

> <r_mmod_Electrostatic_Energy-OPLS-2005>
-405.751434326172

> <r_mmod_Solvation_Energy-OPLS-2005>
-197.646469116211

> <b_mmod_Minimization_Converged-OPLS-2005>
0

> <r_mmod_RMS_Derivative-OPLS-2005>
8.57708740234375

$$$$
42
                    3D
 Structure written by MMmdl.
175184  0  0  1  0            999 V2000
  -30.8410  -14.3120   20.7648 C   0  0  0  0  0  0
  -30.3997  -12.3028   19.3964 C   0  0  0  0  0  0
  -29.4758  -12.5372   18.1914 C   0  0  0  0  0  0
  -28.0040  -12.3750   18.6028 C   0  0  0  0  0  0
  -27.6568  -13.2067   19.8619 C   0  0  2  0  0  0
  -28.6872  -12.9869   20.9888 C   0  0  0  0  0  0
  -25.2564  -13.8171   20.5639 C   0  0  0  0  0  0
  -24.1825  -13.0451   20.9144 C   0  0  0  0  0  0
  -24.6373  -11.6913   20.8703 C   0  0  0  0  0  0
  -23.9054  -10.4292   21.0394 C   0  0  0  0  0  0
  -24.3616   -9.4197   21.9160 C   0  0  0  0  0  0
  -23.6281   -8.2238   22.0743 C   0  0  0  0  0  0
  -22.4262   -8.0273   21.3540 C   0  0  0  0  0  0
  -21.9906   -9.0244   20.4631 C   0  0  0  0  0  0
  -22.7235  -10.2119   20.3037 C   0  0  0  0  0  0
  -21.6850   -6.0729   22.5284 C   0  0  0  0  0  0
  -21.4019   -6.5642   23.8216 C   0  0  0  0  0  0
  -21.3660   -5.6797   24.9180 C   0  0  0  0  0  0
  -21.6040   -4.3053   24.7229 C   0  0  0  0  0  0
  -21.8827   -3.8147   23.4354 C   0  0  0  0  0  0
  -21.9189   -4.6960   22.3410 C   0  0  0  0  0  0
  -22.7849  -13.5224   21.1843 C   0  0  0  0  0  0
  -22.1653   -4.2146   21.0983 F   0  0  0  0  0  0
  -21.5617   -3.4533   25.7739 F   0  0  0  0  0  0
  -30.0422  -13.2478   20.4691 N   0  0  0  0  0  0
  -26.2979  -12.9341   20.3247 N   0  0  0  0  0  0
  -25.9287  -11.6506   20.5688 N   0  0  0  0  0  0
  -22.0525  -12.8194   22.0406 N   0  0  0  0  0  0
  -25.4317  -15.1892   20.4081 N   0  0  0  0  0  0
  -31.7547  -14.6458   20.0059 O   0  0  0  0  0  0
  -21.6626   -6.8868   21.4244 O   0  0  0  0  0  0
  -22.3520  -14.5527   20.6694 O   0  0  0  0  0  0
  -24.6127  -31.8697   23.2129 C   0  0  0  0  0  0
  -25.9023  -32.4833   23.8416 C   0  0  1  0  0  0
  -27.2362  -27.4492   20.0696 C   0  0  0  0  0  0
  -25.5883  -33.8632   24.2334 N   0  0  0  0  0  0
  -23.4002  -30.4953   21.5531 C   0  0  2  0  0  0
  -24.8454  -28.9651   20.1142 C   0  0  0  0  0  0
  -22.7401  -29.4666   22.4998 C   0  0  0  0  0  0
  -18.0271  -28.1388   22.8501 C   0  0  0  0  0  0
  -24.1493  -36.7320   23.2640 C   0  0  0  0  0  0
  -25.9298  -30.8339   21.3692 C   0  0  0  0  0  0
  -26.0045  -29.4696   20.7157 C   0  0  0  0  0  0
  -27.1973  -28.7124   20.7041 C   0  0  0  0  0  0
  -26.0492  -26.9491   19.4826 C   0  0  0  0  0  0
  -24.8607  -27.7011   19.5030 C   0  0  0  0  0  0
  -23.6078  -29.8307   20.1663 C   0  0  0  0  0  0
  -25.4114  -36.3114   24.0335 C   0  0  1  0  0  0
  -20.5858  -28.3669   23.1328 C   0  0  2  0  0  0
  -20.6757  -26.9406   22.5421 C   0  0  0  0  0  0
  -19.5736  -26.6387   21.5220 C   0  0  0  0  0  0
  -18.1917  -26.7937   22.1636 C   0  0  0  0  0  0
  -19.1520  -28.8848   23.2916 C   0  0  0  0  0  0
  -18.9446  -30.1456   23.8920 C   0  0  0  0  0  0
  -17.6446  -30.6594   24.0575 C   0  0  0  0  0  0
  -25.9034  -34.9480   23.5132 C   0  0  0  0  0  0
  -16.5340  -29.9100   23.6322 C   0  0  0  0  0  0
  -16.7258  -28.6518   23.0342 C   0  0  0  0  0  0
  -26.4456  -31.6607   25.0735 C   0  0  0  0  0  0
  -25.3718  -31.3684   26.1472 C   0  0  0  0  0  0
  -27.0293  -30.3058   24.6100 C   0  0  0  0  0  0
  -27.6028  -32.4331   25.7497 C   0  0  0  0  0  0
  -27.5587  -37.1818   24.8470 C   0  0  0  0  0  0
  -21.4130  -29.3036   22.3725 N   0  0  0  0  0  0
  -26.4306  -37.3792   23.9402 N   0  0  0  0  0  0
  -24.6656  -31.0801   22.1030 N   0  0  0  0  0  0
  -23.4188  -28.8205   23.3031 O   0  0  0  0  0  0
  -28.4180  -26.7354   20.0703 O   0  0  0  0  0  0
  -26.5604  -34.8919   22.4699 O   0  0  0  0  0  0
  -23.5316  -32.1452   23.7518 O   0  0  0  0  0  0
  -30.9579  -19.9518   22.1351 C   0  0  0  0  0  0
  -30.9365  -21.3129   21.6506 C   0  0  0  0  0  0
  -30.8943  -21.5600   20.2435 C   0  0  0  0  0  0
  -31.0257  -18.9267   21.1368 C   0  0  0  0  0  0
  -30.8005  -20.4476   19.3806 C   0  0  0  0  0  0
  -30.2553  -16.9836   23.6392 C   0  0  0  0  0  0
  -29.8350  -18.4392   23.8752 C   0  0  0  0  0  0
  -31.3972  -17.4453   21.3802 C   0  0  2  0  0  0
  -30.4031  -16.5427   22.1705 C   0  0  1  0  0  0
  -30.9269  -19.5131   23.6370 C   0  0  2  0  0  0
  -31.0144  -22.5221   22.5818 C   0  0  0  0  0  0
  -30.6654  -20.5750   17.8721 C   0  0  0  0  0  0
  -30.7403  -20.5650   24.7533 C   0  0  0  0  0  0
  -31.0529  -22.9727   19.6383 C   0  0  0  0  0  0
  -30.0328  -25.1712   19.1081 C   0  0  0  0  0  0
  -28.7228  -25.9582   18.9079 C   0  0  0  0  0  0
  -30.7993  -15.0255   22.1455 C   0  0  2  0  0  0
  -30.8733  -19.1865   19.8200 N   0  0  0  0  0  0
  -29.8165  -23.7924   19.6276 N   0  3  0  0  0  0
  -32.1195  -19.0154   23.9558 F   0  0  0  0  0  0
  -30.0984  -14.3209   23.0364 F   0  0  0  0  0  0
  -33.0927  -17.2718   21.9388 Cl  0  0  0  0  0  0
  -31.4436  -12.3857   19.0894 H   0  0  0  0  0  0
  -30.2890  -11.2825   19.7642 H   0  0  0  0  0  0
  -29.7176  -11.8429   17.3853 H   0  0  0  0  0  0
  -29.6414  -13.5400   17.7980 H   0  0  0  0  0  0
  -27.8164  -11.3174   18.7887 H   0  0  0  0  0  0
  -27.3547  -12.6578   17.7735 H   0  0  0  0  0  0
  -27.7068  -14.2559   19.5700 H   0  0  0  0  0  0
  -28.6340  -11.9643   21.3653 H   0  0  0  0  0  0
  -28.3867  -13.6327   21.8094 H   0  0  0  0  0  0
  -25.2774   -9.5666   22.4712 H   0  0  0  0  0  0
  -23.9985   -7.4647   22.7487 H   0  0  0  0  0  0
  -21.0829   -8.8777   19.8937 H   0  0  0  0  0  0
  -22.3705  -10.9657   19.6136 H   0  0  0  0  0  0
  -21.2021   -7.6153   23.9717 H   0  0  0  0  0  0
  -21.1465   -6.0522   25.9079 H   0  0  0  0  0  0
  -22.0596   -2.7610   23.2856 H   0  0  0  0  0  0
  -22.4164  -11.9838   22.4753 H   0  0  0  0  0  0
  -21.1139  -13.1192   22.2650 H   0  0  0  0  0  0
  -24.6772  -15.8553   20.5311 H   0  0  0  0  0  0
  -26.2938  -15.6233   20.1025 H   0  0  0  0  0  0
  -26.7093  -32.5550   23.1179 H   0  0  0  0  0  0
  -25.0003  -33.9805   25.0458 H   0  0  0  0  0  0
  -22.6881  -31.3123   21.4160 H   0  0  0  0  0  0
  -23.3754  -35.9656   23.3307 H   0  0  0  0  0  0
  -24.3586  -36.8939   22.2055 H   0  0  0  0  0  0
  -23.7253  -37.6523   23.6668 H   0  0  0  0  0  0
  -26.0425  -31.6011   20.6027 H   0  0  0  0  0  0
  -26.8184  -30.8856   21.9864 H   0  0  0  0  0  0
  -28.0933  -29.0989   21.1705 H   0  0  0  0  0  0
  -26.0038  -25.9761   19.0182 H   0  0  0  0  0  0
  -23.9644  -27.3046   19.0446 H   0  0  0  0  0  0
  -23.7151  -30.6066   19.4069 H   0  0  0  0  0  0
  -22.7327  -29.2499   19.8718 H   0  0  0  0  0  0
  -25.1296  -36.1979   25.0829 H   0  0  0  0  0  0
  -20.9952  -28.3229   24.1453 H   0  0  0  0  0  0
  -20.5657  -26.2273   23.3598 H   0  0  0  0  0  0
  -21.6629  -26.7449   22.1223 H   0  0  0  0  0  0
  -19.6891  -25.6301   21.1242 H   0  0  0  0  0  0
  -19.6673  -27.3193   20.6746 H   0  0  0  0  0  0
  -17.4182  -26.6685   21.4048 H   0  0  0  0  0  0
  -18.0322  -26.0083   22.9032 H   0  0  0  0  0  0
  -19.7911  -30.7274   24.2294 H   0  0  0  0  0  0
  -17.4995  -31.6271   24.5183 H   0  0  0  0  0  0
  -15.5340  -30.3014   23.7624 H   0  0  0  0  0  0
  -15.8660  -28.0845   22.7043 H   0  0  0  0  0  0
  -24.5898  -30.7035   25.7787 H   0  0  0  0  0  0
  -24.8896  -32.2825   26.4948 H   0  0  0  0  0  0
  -25.8068  -30.8823   27.0214 H   0  0  0  0  0  0
  -26.2838  -29.6825   24.1145 H   0  0  0  0  0  0
  -27.4065  -29.7285   25.4552 H   0  0  0  0  0  0
  -27.8674  -30.4393   23.9251 H   0  0  0  0  0  0
  -27.2645  -33.3618   26.2108 H   0  0  0  0  0  0
  -28.3817  -32.6917   25.0310 H   0  0  0  0  0  0
  -28.0722  -31.8438   26.5386 H   0  0  0  0  0  0
  -28.2603  -38.0114   24.7517 H   0  0  0  0  0  0
  -28.1088  -36.2648   24.6317 H   0  0  0  0  0  0
  -27.2297  -37.1478   25.8868 H   0  0  0  0  0  0
  -20.9275  -29.8772   21.6963 H   0  0  0  0  0  0
  -26.0196  -38.2869   24.1409 H   0  0  0  0  0  0
  -29.4887  -16.3630   24.1067 H   0  0  0  0  0  0
  -31.1697  -16.7654   24.1910 H   0  0  0  0  0  0
  -29.5274  -18.4625   24.9218 H   0  0  0  0  0  0
  -28.9263  -18.6863   23.3241 H   0  0  0  0  0  0
  -31.4322  -17.0219   20.3787 H   0  0  0  0  0  0
  -29.4279  -16.6358   21.6934 H   0  0  0  0  0  0
  -30.1540  -22.5720   23.2441 H   0  0  0  0  0  0
  -31.0175  -23.4890   22.0924 H   0  0  0  0  0  0
  -31.9432  -22.4957   23.1482 H   0  0  0  0  0  0
  -29.8772  -21.2802   17.6087 H   0  0  0  0  0  0
  -30.4072  -19.6204   17.4123 H   0  0  0  0  0  0
  -31.6032  -20.9100   17.4279 H   0  0  0  0  0  0
  -29.7775  -21.0708   24.6929 H   0  0  0  0  0  0
  -31.5490  -21.2888   24.8063 H   0  0  0  0  0  0
  -30.7630  -20.0884   25.7345 H   0  0  0  0  0  0
  -31.4210  -22.9071   18.6151 H   0  0  0  0  0  0
  -31.8578  -23.5033   20.1478 H   0  0  0  0  0  0
  -30.7178  -25.7248   19.7524 H   0  0  0  0  0  0
  -30.5255  -25.0907   18.1380 H   0  0  0  0  0  0
  -27.9310  -25.2666   18.6242 H   0  0  0  0  0  0
  -28.8488  -26.6539   18.0764 H   0  0  0  0  0  0
  -31.8144  -14.9379   22.5325 H   0  0  0  0  0  0
  -29.4271  -23.8465   20.5555 H   0  0  0  0  0  0
  -29.1392  -23.3291   19.0431 H   0  0  0  0  0  0
  1 25  1  0  0  0
  1 30  2  0  0  0
  1 87  1  0  0  0
  2  3  1  0  0  0
  2 25  1  0  0  0
  2 93  1  0  0  0
  2 94  1  0  0  0
  3  4  1  0  0  0
  3 95  1  0  0  0
  3 96  1  0  0  0
  4  5  1  0  0  0
  4 97  1  0  0  0
  4 98  1  0  0  0
  5  6  1  0  0  0
  5 26  1  0  0  0
  5 99  1  0  0  0
  6 25  1  0  0  0
  6100  1  0  0  0
  6101  1  0  0  0
  7  8  2  0  0  0
  7 26  1  0  0  0
  7 29  1  0  0  0
  8  9  1  0  0  0
  8 22  1  0  0  0
  9 10  1  0  0  0
  9 27  2  0  0  0
 10 11  2  0  0  0
 10 15  1  0  0  0
 11 12  1  0  0  0
 11102  1  0  0  0
 12 13  2  0  0  0
 12103  1  0  0  0
 13 14  1  0  0  0
 13 31  1  0  0  0
 14 15  2  0  0  0
 14104  1  0  0  0
 15105  1  0  0  0
 16 17  2  0  0  0
 16 21  1  0  0  0
 16 31  1  0  0  0
 17 18  1  0  0  0
 17106  1  0  0  0
 18 19  2  0  0  0
 18107  1  0  0  0
 19 20  1  0  0  0
 19 24  1  0  0  0
 20 21  2  0  0  0
 20108  1  0  0  0
 21 23  1  0  0  0
 22 28  1  0  0  0
 22 32  2  0  0  0
 26 27  1  0  0  0
 28109  1  0  0  0
 28110  1  0  0  0
 29111  1  0  0  0
 29112  1  0  0  0
 33 34  1  0  0  0
 33 66  1  0  0  0
 33 70  2  0  0  0
 34 36  1  0  0  0
 34 59  1  0  0  0
 34113  1  0  0  0
 35 44  2  0  0  0
 35 45  1  0  0  0
 35 68  1  0  0  0
 36 56  1  0  0  0
 36114  1  0  0  0
 37 39  1  0  0  0
 37 47  1  0  0  0
 37 66  1  0  0  0
 37115  1  0  0  0
 38 43  2  0  0  0
 38 46  1  0  0  0
 38 47  1  0  0  0
 39 64  1  0  0  0
 39 67  2  0  0  0
 40 52  1  0  0  0
 40 53  2  0  0  0
 40 58  1  0  0  0
 41116  1  0  0  0
 41117  1  0  0  0
 41118  1  0  0  0
 41 48  1  0  0  0
 42 43  1  0  0  0
 42 66  1  0  0  0
 42119  1  0  0  0
 42120  1  0  0  0
 43 44  1  0  0  0
 44121  1  0  0  0
 45 46  2  0  0  0
 45122  1  0  0  0
 46123  1  0  0  0
 47124  1  0  0  0
 47125  1  0  0  0
 48 56  1  0  0  0
 48 65  1  0  0  0
 48126  1  0  0  0
 49 50  1  0  0  0
 49 53  1  0  0  0
 49 64  1  0  0  0
 49127  1  0  0  0
 50 51  1  0  0  0
 50128  1  0  0  0
 50129  1  0  0  0
 51 52  1  0  0  0
 51130  1  0  0  0
 51131  1  0  0  0
 52132  1  0  0  0
 52133  1  0  0  0
 53 54  1  0  0  0
 54 55  2  0  0  0
 54134  1  0  0  0
 55 57  1  0  0  0
 55135  1  0  0  0
 56 69  2  0  0  0
 57 58  2  0  0  0
 57136  1  0  0  0
 58137  1  0  0  0
 59 60  1  0  0  0
 59 61  1  0  0  0
 59 62  1  0  0  0
 60138  1  0  0  0
 60139  1  0  0  0
 60140  1  0  0  0
 61141  1  0  0  0
 61142  1  0  0  0
 61143  1  0  0  0
 62144  1  0  0  0
 62145  1  0  0  0
 62146  1  0  0  0
 63 65  1  0  0  0
 63147  1  0  0  0
 63148  1  0  0  0
 63149  1  0  0  0
 64150  1  0  0  0
 65151  1  0  0  0
 68 86  1  0  0  0
 71 72  2  0  0  0
 71 74  1  0  0  0
 71 80  1  0  0  0
 72 73  1  0  0  0
 72 81  1  0  0  0
 73 75  2  0  0  0
 73 84  1  0  0  0
 74 78  1  0  0  0
 74 88  2  0  0  0
 75 82  1  0  0  0
 75 88  1  0  0  0
 76 77  1  0  0  0
 76152  1  0  0  0
 76153  1  0  0  0
 76 79  1  0  0  0
 77 80  1  0  0  0
 77154  1  0  0  0
 77155  1  0  0  0
 78 79  1  0  0  0
 78 92  1  0  0  0
 78156  1  0  0  0
 79 87  1  0  0  0
 79157  1  0  0  0
 80 83  1  0  0  0
 80 90  1  0  0  0
 81158  1  0  0  0
 81159  1  0  0  0
 81160  1  0  0  0
 82161  1  0  0  0
 82162  1  0  0  0
 82163  1  0  0  0
 83164  1  0  0  0
 83165  1  0  0  0
 83166  1  0  0  0
 84 89  1  0  0  0
 84167  1  0  0  0
 84168  1  0  0  0
 85 86  1  0  0  0
 85 89  1  0  0  0
 85169  1  0  0  0
 85170  1  0  0  0
 86171  1  0  0  0
 86172  1  0  0  0
 87 91  1  0  0  0
 87173  1  0  0  0
 89174  1  0  0  0
 89175  1  0  0  0
M  CHG  1  89   1
M  ISO  4   1 100  68 101  86 101  87 100
M  END
> <chiral flag>
0

> <version>
0

> <s_m_source_file>
/data/baiqing/PycharmProjects/Reinvent-master-3.2/result/LINK_invent/BTK/process_docking_weight1_custom_sum_contain_oxygen_bond_distance_aromatic_linkinvent_7_9_3/rearranged_h_0027.sdf

> <i_m_source_file_index>
43

> <r_mmod_Potential_Energy-OPLS-2005>
-126.682144165039

> <r_mmod_Stretch_Energy-OPLS-2005>
52.5707092285156

> <r_mmod_Bend_Energy-OPLS-2005>
150.767272949219

> <r_mmod_Torsional_Energy-OPLS-2005>
216.6484375

> <r_mmod_Improper_Torsional_Energy-OPLS-2005>
4.13425064086914

> <r_mmod_Van_der_Waal_Energy-OPLS-2005>
195.747985839844

> <r_mmod_Electrostatic_Energy-OPLS-2005>
-321.441040039062

> <r_mmod_Solvation_Energy-OPLS-2005>
-435.468139648438

> <b_mmod_Minimization_Converged-OPLS-2005>
0

> <r_mmod_RMS_Derivative-OPLS-2005>
2.01599812507629

$$$$
43
                    3D
 Structure written by MMmdl.
187197  0  0  1  0            999 V2000
  -30.6953  -14.4424   20.4881 C   0  0  0  0  0  0
  -30.4148  -12.2573   19.4320 C   0  0  0  0  0  0
  -29.4935  -12.4648   18.2104 C   0  0  0  0  0  0
  -28.0110  -12.3431   18.6175 C   0  0  0  0  0  0
  -27.6546  -13.1980   19.8617 C   0  0  2  0  0  0
  -28.6984  -13.0173   20.9865 C   0  0  0  0  0  0
  -25.2599  -13.8157   20.5700 C   0  0  0  0  0  0
  -24.1835  -13.0436   20.9184 C   0  0  0  0  0  0
  -24.6375  -11.6901   20.8747 C   0  0  0  0  0  0
  -23.9033  -10.4295   21.0424 C   0  0  0  0  0  0
  -24.3603   -9.4212   21.9196 C   0  0  0  0  0  0
  -23.6288   -8.2238   22.0754 C   0  0  0  0  0  0
  -22.4271   -8.0274   21.3542 C   0  0  0  0  0  0
  -21.9905   -9.0249   20.4647 C   0  0  0  0  0  0
  -22.7216  -10.2136   20.3061 C   0  0  0  0  0  0
  -21.6846   -6.0740   22.5281 C   0  0  0  0  0  0
  -21.4012   -6.5647   23.8214 C   0  0  0  0  0  0
  -21.3658   -5.6797   24.9175 C   0  0  0  0  0  0
  -21.6042   -4.3060   24.7228 C   0  0  0  0  0  0
  -21.8814   -3.8148   23.4351 C   0  0  0  0  0  0
  -21.9191   -4.6968   22.3407 C   0  0  0  0  0  0
  -22.7859  -13.5250   21.1857 C   0  0  0  0  0  0
  -22.1658   -4.2152   21.0983 F   0  0  0  0  0  0
  -21.5634   -3.4548   25.7741 F   0  0  0  0  0  0
  -30.0405  -13.2560   20.4386 N   0  0  0  0  0  0
  -26.2994  -12.9285   20.3339 N   0  0  0  0  0  0
  -25.9288  -11.6463   20.5769 N   0  0  0  0  0  0
  -22.0495  -12.8229   22.0407 N   0  0  0  0  0  0
  -25.4369  -15.1871   20.4160 N   0  0  0  0  0  0
  -31.8890  -14.5619   20.2073 O   0  0  0  0  0  0
  -21.6626   -6.8878   21.4239 O   0  0  0  0  0  0
  -22.3547  -14.5563   20.6710 O   0  0  0  0  0  0
  -24.6121  -31.8713   23.2137 C   0  0  0  0  0  0
  -25.9018  -32.4849   23.8447 C   0  0  1  0  0  0
  -27.2347  -27.4600   20.0845 C   0  0  0  0  0  0
  -25.5887  -33.8647   24.2371 N   0  0  0  0  0  0
  -23.3978  -30.4977   21.5544 C   0  0  2  0  0  0
  -24.8403  -28.9635   20.1239 C   0  0  0  0  0  0
  -22.7377  -29.4713   22.5022 C   0  0  0  0  0  0
  -18.0273  -28.1375   22.8528 C   0  0  0  0  0  0
  -24.1469  -36.7339   23.2632 C   0  0  0  0  0  0
  -25.9241  -30.8425   21.3627 C   0  0  0  0  0  0
  -25.9996  -29.4763   20.7161 C   0  0  0  0  0  0
  -27.1958  -28.7284   20.7002 C   0  0  0  0  0  0
  -26.0434  -26.9450   19.5123 C   0  0  0  0  0  0
  -24.8541  -27.6936   19.5242 C   0  0  0  0  0  0
  -23.6031  -29.8280   20.1713 C   0  0  0  0  0  0
  -25.4087  -36.3129   24.0347 C   0  0  1  0  0  0
  -20.5850  -28.3670   23.1332 C   0  0  2  0  0  0
  -20.6755  -26.9415   22.5410 C   0  0  0  0  0  0
  -19.5736  -26.6400   21.5208 C   0  0  0  0  0  0
  -18.1919  -26.7932   22.1632 C   0  0  0  0  0  0
  -19.1519  -28.8849   23.2934 C   0  0  0  0  0  0
  -18.9445  -30.1456   23.8938 C   0  0  0  0  0  0
  -17.6450  -30.6598   24.0581 C   0  0  0  0  0  0
  -25.9017  -34.9491   23.5150 C   0  0  0  0  0  0
  -16.5347  -29.9096   23.6331 C   0  0  0  0  0  0
  -16.7267  -28.6504   23.0378 C   0  0  0  0  0  0
  -26.4463  -31.6625   25.0762 C   0  0  0  0  0  0
  -25.3745  -31.3711   26.1526 C   0  0  0  0  0  0
  -27.0322  -30.3083   24.6127 C   0  0  0  0  0  0
  -27.6055  -32.4355   25.7507 C   0  0  0  0  0  0
  -27.5578  -37.1813   24.8467 C   0  0  0  0  0  0
  -21.4108  -29.3068   22.3753 N   0  0  0  0  0  0
  -26.4283  -37.3806   23.9419 N   0  0  0  0  0  0
  -24.6634  -31.0835   22.1032 N   0  0  0  0  0  0
  -23.4164  -28.8244   23.3051 O   0  0  0  0  0  0
  -28.4358  -26.7834   20.0620 O   0  0  0  0  0  0
  -26.5569  -34.8926   22.4707 O   0  0  0  0  0  0
  -23.5307  -32.1488   23.7511 O   0  0  0  0  0  0
  -29.3611  -16.2231   19.2165 C   0  0  0  0  0  0
  -29.8725  -15.6677   20.4122 C   0  0  0  0  0  0
  -28.7345  -17.3895   19.5170 C   0  0  0  0  0  0
  -29.5583  -16.5167   21.4450 C   0  0  0  0  0  0
  -27.4577  -20.4783   23.8546 C   0  0  0  0  0  0
  -28.6842  -20.8452   23.0022 C   0  0  0  0  0  0
  -26.4206  -19.7015   23.0261 C   0  0  0  0  0  0
  -29.3364  -19.5839   22.4083 C   0  0  0  0  0  0
  -27.0340  -18.4416   22.3904 C   0  0  0  0  0  0
  -29.6689  -20.9778   16.1407 C   0  0  0  0  0  0
  -27.6670  -21.4060   17.6394 C   0  0  0  0  0  0
  -30.4830  -22.0256   16.9321 C   0  0  0  0  0  0
  -28.1977  -22.8430   17.4513 C   0  0  0  0  0  0
  -28.5568  -20.3263   16.9812 C   0  0  2  0  0  0
  -28.3057  -18.7814   21.5859 C   0  0  0  0  0  0
  -28.1055  -18.3306   18.5398 C   0  0  0  0  0  0
  -29.1340  -19.3446   18.0170 C   0  0  0  0  0  0
  -29.9474  -25.1263   19.1003 C   0  0  0  0  0  0
  -30.2056  -24.3188   17.8058 C   0  0  0  0  0  0
  -28.5030  -25.6077   19.2661 C   0  0  0  0  0  0
  -29.9157  -16.3913   22.9007 C   0  0  0  0  0  0
  -28.8568  -17.6060   20.8923 N   0  0  0  0  0  0
  -29.6497  -22.9340   17.7782 N   0  3  2  0  0  0
  -31.1090  -16.9197   23.1684 F   0  0  0  0  0  0
  -29.9216  -15.1274   23.3219 F   0  0  0  0  0  0
  -31.4619  -12.3343   19.1343 H   0  0  0  0  0  0
  -30.2902  -11.2536   19.8414 H   0  0  0  0  0  0
  -29.7265  -11.7339   17.4342 H   0  0  0  0  0  0
  -29.6764  -13.4437   17.7667 H   0  0  0  0  0  0
  -27.8102  -11.2909   18.8224 H   0  0  0  0  0  0
  -27.3676  -12.6173   17.7807 H   0  0  0  0  0  0
  -27.6740  -14.2355   19.5400 H   0  0  0  0  0  0
  -28.6497  -12.0076   21.3971 H   0  0  0  0  0  0
  -28.4823  -13.6933   21.8143 H   0  0  0  0  0  0
  -25.2755   -9.5699   22.4766 H   0  0  0  0  0  0
  -24.0004   -7.4630   22.7480 H   0  0  0  0  0  0
  -21.0836   -8.8771   19.8954 H   0  0  0  0  0  0
  -22.3682  -10.9679   19.6176 H   0  0  0  0  0  0
  -21.1995   -7.6152   23.9723 H   0  0  0  0  0  0
  -21.1489   -6.0529   25.9082 H   0  0  0  0  0  0
  -22.0593   -2.7609   23.2846 H   0  0  0  0  0  0
  -22.4111  -11.9888   22.4785 H   0  0  0  0  0  0
  -21.1120  -13.1264   22.2626 H   0  0  0  0  0  0
  -24.6813  -15.8489   20.5462 H   0  0  0  0  0  0
  -26.3142  -15.6257   20.1619 H   0  0  0  0  0  0
  -26.7071  -32.5588   23.1208 H   0  0  0  0  0  0
  -25.0045  -33.9817   25.0519 H   0  0  0  0  0  0
  -22.6882  -31.3153   21.4130 H   0  0  0  0  0  0
  -23.3726  -35.9677   23.3311 H   0  0  0  0  0  0
  -24.3548  -36.8943   22.2037 H   0  0  0  0  0  0
  -23.7232  -37.6556   23.6639 H   0  0  0  0  0  0
  -26.0236  -31.6016   20.5860 H   0  0  0  0  0  0
  -26.8167  -30.9047   21.9743 H   0  0  0  0  0  0
  -28.0954  -29.1240   21.1520 H   0  0  0  0  0  0
  -26.0017  -25.9702   19.0497 H   0  0  0  0  0  0
  -23.9580  -27.2884   19.0726 H   0  0  0  0  0  0
  -23.7084  -30.6013   19.4095 H   0  0  0  0  0  0
  -22.7250  -29.2452   19.8831 H   0  0  0  0  0  0
  -25.1249  -36.1984   25.0840 H   0  0  0  0  0  0
  -20.9980  -28.3223   24.1429 H   0  0  0  0  0  0
  -20.5654  -26.2286   23.3593 H   0  0  0  0  0  0
  -21.6623  -26.7460   22.1197 H   0  0  0  0  0  0
  -19.6908  -25.6311   21.1247 H   0  0  0  0  0  0
  -19.6658  -27.3186   20.6714 H   0  0  0  0  0  0
  -17.4180  -26.6718   21.4036 H   0  0  0  0  0  0
  -18.0326  -26.0042   22.8994 H   0  0  0  0  0  0
  -19.7914  -30.7281   24.2318 H   0  0  0  0  0  0
  -17.4998  -31.6279   24.5167 H   0  0  0  0  0  0
  -15.5346  -30.3017   23.7632 H   0  0  0  0  0  0
  -15.8663  -28.0830   22.7089 H   0  0  0  0  0  0
  -24.5886  -30.7087   25.7876 H   0  0  0  0  0  0
  -24.8961  -32.2847   26.5058 H   0  0  0  0  0  0
  -25.8102  -30.8828   27.0249 H   0  0  0  0  0  0
  -26.2879  -29.6811   24.1196 H   0  0  0  0  0  0
  -27.4139  -29.7338   25.4579 H   0  0  0  0  0  0
  -27.8683  -30.4453   23.9266 H   0  0  0  0  0  0
  -27.2694  -33.3631   26.2153 H   0  0  0  0  0  0
  -28.3814  -32.6966   25.0297 H   0  0  0  0  0  0
  -28.0799  -31.8463   26.5359 H   0  0  0  0  0  0
  -28.2602  -38.0103   24.7513 H   0  0  0  0  0  0
  -28.1070  -36.2641   24.6283 H   0  0  0  0  0  0
  -27.2310  -37.1459   25.8874 H   0  0  0  0  0  0
  -20.9252  -29.8793   21.6988 H   0  0  0  0  0  0
  -26.0183  -38.2899   24.1401 H   0  0  0  0  0  0
  -29.4696  -15.8146   18.2211 H   0  0  0  0  0  0
  -27.0037  -21.3814   24.2650 H   0  0  0  0  0  0
  -27.7720  -19.8783   24.7095 H   0  0  0  0  0  0
  -29.4078  -21.3939   23.6057 H   0  0  0  0  0  0
  -28.3841  -21.5196   22.1987 H   0  0  0  0  0  0
  -26.0184  -20.3482   22.2448 H   0  0  0  0  0  0
  -25.5752  -19.4214   23.6552 H   0  0  0  0  0  0
  -29.7510  -18.9984   23.2238 H   0  0  0  0  0  0
  -30.1785  -19.8662   21.7754 H   0  0  0  0  0  0
  -26.3003  -17.9735   21.7331 H   0  0  0  0  0  0
  -27.2435  -17.7121   23.1698 H   0  0  0  0  0  0
  -30.3378  -20.2212   15.7288 H   0  0  0  0  0  0
  -29.2186  -21.4572   15.2702 H   0  0  0  0  0  0
  -26.6572  -21.3444   17.2332 H   0  0  0  0  0  0
  -27.5543  -21.2049   18.7054 H   0  0  0  0  0  0
  -31.0662  -22.5977   16.2082 H   0  0  0  0  0  0
  -31.2073  -21.5336   17.5831 H   0  0  0  0  0  0
  -27.5933  -23.4943   18.0737 H   0  0  0  0  0  0
  -28.0334  -23.1784   16.4265 H   0  0  0  0  0  0
  -27.9391  -19.7469   16.2930 H   0  0  0  0  0  0
  -27.9893  -19.4891   20.8237 H   0  0  0  0  0  0
  -27.2230  -18.8148   18.9558 H   0  0  0  0  0  0
  -27.7282  -17.7510   17.6954 H   0  0  0  0  0  0
  -29.5776  -19.8896   18.8517 H   0  0  0  0  0  0
  -29.9544  -18.7823   17.5672 H   0  0  0  0  0  0
  -30.5814  -26.0123   19.0509 H   0  0  0  0  0  0
  -30.2772  -24.5792   19.9849 H   0  0  0  0  0  0
  -31.2911  -24.2505   17.7210 H   0  0  0  0  0  0
  -29.8794  -24.8734   16.9242 H   0  0  0  0  0  0
  -27.9098  -24.8292   19.7466 H   0  0  0  0  0  0
  -28.0906  -25.8111   18.2767 H   0  0  0  0  0  0
  -29.1999  -16.8916   23.5471 H   0  0  0  0  0  0
  -29.7484  -22.5746   18.7163 H   0  0  0  0  0  0
  1 25  1  0  0  0
  1 30  2  0  0  0
  1 72  1  0  0  0
  2  3  1  0  0  0
  2 25  1  0  0  0
  2 96  1  0  0  0
  2 97  1  0  0  0
  3  4  1  0  0  0
  3 98  1  0  0  0
  3 99  1  0  0  0
  4  5  1  0  0  0
  4100  1  0  0  0
  4101  1  0  0  0
  5  6  1  0  0  0
  5 26  1  0  0  0
  5102  1  0  0  0
  6 25  1  0  0  0
  6103  1  0  0  0
  6104  1  0  0  0
  7  8  2  0  0  0
  7 26  1  0  0  0
  7 29  1  0  0  0
  8  9  1  0  0  0
  8 22  1  0  0  0
  9 10  1  0  0  0
  9 27  2  0  0  0
 10 11  2  0  0  0
 10 15  1  0  0  0
 11 12  1  0  0  0
 11105  1  0  0  0
 12 13  2  0  0  0
 12106  1  0  0  0
 13 14  1  0  0  0
 13 31  1  0  0  0
 14 15  2  0  0  0
 14107  1  0  0  0
 15108  1  0  0  0
 16 17  2  0  0  0
 16 21  1  0  0  0
 16 31  1  0  0  0
 17 18  1  0  0  0
 17109  1  0  0  0
 18 19  2  0  0  0
 18110  1  0  0  0
 19 20  1  0  0  0
 19 24  1  0  0  0
 20 21  2  0  0  0
 20111  1  0  0  0
 21 23  1  0  0  0
 22 28  1  0  0  0
 22 32  2  0  0  0
 26 27  1  0  0  0
 28112  1  0  0  0
 28113  1  0  0  0
 29114  1  0  0  0
 29115  1  0  0  0
 33 34  1  0  0  0
 33 66  1  0  0  0
 33 70  2  0  0  0
 34 36  1  0  0  0
 34 59  1  0  0  0
 34116  1  0  0  0
 35 44  2  0  0  0
 35 45  1  0  0  0
 35 68  1  0  0  0
 36 56  1  0  0  0
 36117  1  0  0  0
 37 39  1  0  0  0
 37 47  1  0  0  0
 37 66  1  0  0  0
 37118  1  0  0  0
 38 43  2  0  0  0
 38 46  1  0  0  0
 38 47  1  0  0  0
 39 64  1  0  0  0
 39 67  2  0  0  0
 40 52  1  0  0  0
 40 53  2  0  0  0
 40 58  1  0  0  0
 41119  1  0  0  0
 41120  1  0  0  0
 41121  1  0  0  0
 41 48  1  0  0  0
 42 43  1  0  0  0
 42 66  1  0  0  0
 42122  1  0  0  0
 42123  1  0  0  0
 43 44  1  0  0  0
 44124  1  0  0  0
 45 46  2  0  0  0
 45125  1  0  0  0
 46126  1  0  0  0
 47127  1  0  0  0
 47128  1  0  0  0
 48 56  1  0  0  0
 48 65  1  0  0  0
 48129  1  0  0  0
 49 50  1  0  0  0
 49 53  1  0  0  0
 49 64  1  0  0  0
 49130  1  0  0  0
 50 51  1  0  0  0
 50131  1  0  0  0
 50132  1  0  0  0
 51 52  1  0  0  0
 51133  1  0  0  0
 51134  1  0  0  0
 52135  1  0  0  0
 52136  1  0  0  0
 53 54  1  0  0  0
 54 55  2  0  0  0
 54137  1  0  0  0
 55 57  1  0  0  0
 55138  1  0  0  0
 56 69  2  0  0  0
 57 58  2  0  0  0
 57139  1  0  0  0
 58140  1  0  0  0
 59 60  1  0  0  0
 59 61  1  0  0  0
 59 62  1  0  0  0
 60141  1  0  0  0
 60142  1  0  0  0
 60143  1  0  0  0
 61144  1  0  0  0
 61145  1  0  0  0
 61146  1  0  0  0
 62147  1  0  0  0
 62148  1  0  0  0
 62149  1  0  0  0
 63 65  1  0  0  0
 63150  1  0  0  0
 63151  1  0  0  0
 63152  1  0  0  0
 64153  1  0  0  0
 65154  1  0  0  0
 68 90  1  0  0  0
 71 72  1  0  0  0
 71 73  2  0  0  0
 71155  1  0  0  0
 72 74  2  0  0  0
 73 86  1  0  0  0
 73 92  1  0  0  0
 74 91  1  0  0  0
 74 92  1  0  0  0
 75 76  1  0  0  0
 75 77  1  0  0  0
 75156  1  0  0  0
 75157  1  0  0  0
 76 78  1  0  0  0
 76158  1  0  0  0
 76159  1  0  0  0
 77 79  1  0  0  0
 77160  1  0  0  0
 77161  1  0  0  0
 78 85  1  0  0  0
 78162  1  0  0  0
 78163  1  0  0  0
 79 85  1  0  0  0
 79164  1  0  0  0
 79165  1  0  0  0
 80 82  1  0  0  0
 80 84  1  0  0  0
 80166  1  0  0  0
 80167  1  0  0  0
 81 83  1  0  0  0
 81 84  1  0  0  0
 81168  1  0  0  0
 81169  1  0  0  0
 82 93  1  0  0  0
 82170  1  0  0  0
 82171  1  0  0  0
 83 93  1  0  0  0
 83172  1  0  0  0
 83173  1  0  0  0
 84 87  1  0  0  0
 84174  1  0  0  0
 85 92  1  0  0  0
 85175  1  0  0  0
 86 87  1  0  0  0
 86176  1  0  0  0
 86177  1  0  0  0
 87178  1  0  0  0
 87179  1  0  0  0
 88 89  1  0  0  0
 88 90  1  0  0  0
 88180  1  0  0  0
 88181  1  0  0  0
 89182  1  0  0  0
 89183  1  0  0  0
 89 93  1  0  0  0
 90184  1  0  0  0
 90185  1  0  0  0
 91 94  1  0  0  0
 91 95  1  0  0  0
 91186  1  0  0  0
 93187  1  0  0  0
M  CHG  1  93   1
M  ISO  4   1 100  68 101  72 100  90 101
M  END
> <chiral flag>
0

> <version>
0

> <s_m_source_file>
/data/baiqing/PycharmProjects/Reinvent-master-3.2/result/LINK_invent/BTK/process_docking_weight1_custom_sum_contain_oxygen_bond_distance_aromatic_linkinvent_7_9_3/rearranged_h_0027.sdf

> <i_m_source_file_index>
44

> <r_mmod_Potential_Energy-OPLS-2005>
95.296142578125

> <r_mmod_Stretch_Energy-OPLS-2005>
36.9412040710449

> <r_mmod_Bend_Energy-OPLS-2005>
119.958679199219

> <r_mmod_Torsional_Energy-OPLS-2005>
343.395263671875

> <r_mmod_Improper_Torsional_Energy-OPLS-2005>
13.1342554092407

> <r_mmod_Van_der_Waal_Energy-OPLS-2005>
136.758117675781

> <r_mmod_Electrostatic_Energy-OPLS-2005>
-151.404968261719

> <r_mmod_Solvation_Energy-OPLS-2005>
-421.296051025391

> <b_mmod_Minimization_Converged-OPLS-2005>
0

> <r_mmod_RMS_Derivative-OPLS-2005>
2.17716860771179

$$$$
44
                    3D
 Structure written by MMmdl.
162170  0  0  1  0            999 V2000
  -30.6225  -14.6413   20.4949 C   0  0  0  0  0  0
  -30.4455  -12.3939   19.4533 C   0  0  0  0  0  0
  -29.5138  -12.5068   18.2251 C   0  0  0  0  0  0
  -28.0364  -12.3427   18.6362 C   0  0  0  0  0  0
  -27.6566  -13.2099   19.8669 C   0  0  2  0  0  0
  -28.7036  -13.0686   20.9949 C   0  0  0  0  0  0
  -25.2577  -13.8145   20.5692 C   0  0  0  0  0  0
  -24.1835  -13.0419   20.9173 C   0  0  0  0  0  0
  -24.6403  -11.6889   20.8737 C   0  0  0  0  0  0
  -23.9068  -10.4280   21.0410 C   0  0  0  0  0  0
  -24.3622   -9.4198   21.9192 C   0  0  0  0  0  0
  -23.6291   -8.2242   22.0764 C   0  0  0  0  0  0
  -22.4269   -8.0290   21.3554 C   0  0  0  0  0  0
  -21.9902   -9.0260   20.4657 C   0  0  0  0  0  0
  -22.7238  -10.2133   20.3061 C   0  0  0  0  0  0
  -21.6857   -6.0735   22.5282 C   0  0  0  0  0  0
  -21.4014   -6.5636   23.8215 C   0  0  0  0  0  0
  -21.3653   -5.6789   24.9176 C   0  0  0  0  0  0
  -21.6045   -4.3050   24.7228 C   0  0  0  0  0  0
  -21.8816   -3.8142   23.4350 C   0  0  0  0  0  0
  -21.9188   -4.6958   22.3399 C   0  0  0  0  0  0
  -22.7858  -13.5227   21.1831 C   0  0  0  0  0  0
  -22.1658   -4.2146   21.0977 F   0  0  0  0  0  0
  -21.5621   -3.4529   25.7741 F   0  0  0  0  0  0
  -30.0184  -13.4133   20.4297 N   0  0  0  0  0  0
  -26.3011  -12.9320   20.3334 N   0  0  0  0  0  0
  -25.9336  -11.6480   20.5769 N   0  0  0  0  0  0
  -22.0484  -12.8246   22.0396 N   0  0  0  0  0  0
  -25.4258  -15.1870   20.4144 N   0  0  0  0  0  0
  -31.7853  -14.8094   20.1159 O   0  0  0  0  0  0
  -21.6636   -6.8887   21.4253 O   0  0  0  0  0  0
  -22.3556  -14.5529   20.6667 O   0  0  0  0  0  0
  -24.6244  -31.8614   23.2069 C   0  0  0  0  0  0
  -25.9106  -32.4786   23.8373 C   0  0  1  0  0  0
  -27.2250  -27.3330   20.1058 C   0  0  0  0  0  0
  -25.5928  -33.8589   24.2293 N   0  0  0  0  0  0
  -23.4166  -30.4865   21.5511 C   0  0  2  0  0  0
  -24.8600  -28.9432   20.1160 C   0  0  0  0  0  0
  -22.7457  -29.4633   22.4973 C   0  0  0  0  0  0
  -18.0280  -28.1389   22.8479 C   0  0  0  0  0  0
  -24.1489  -36.7297   23.2633 C   0  0  0  0  0  0
  -25.9572  -30.7947   21.3765 C   0  0  0  0  0  0
  -26.0312  -29.4238   20.7162 C   0  0  0  0  0  0
  -27.2163  -28.6317   20.7010 C   0  0  0  0  0  0
  -26.0304  -26.9068   19.4786 C   0  0  0  0  0  0
  -24.8614  -27.6879   19.4915 C   0  0  0  0  0  0
  -23.6286  -29.8235   20.1655 C   0  0  0  0  0  0
  -25.4115  -36.3088   24.0317 C   0  0  1  0  0  0
  -20.5875  -28.3684   23.1294 C   0  0  2  0  0  0
  -20.6780  -26.9407   22.5415 C   0  0  0  0  0  0
  -19.5755  -26.6375   21.5218 C   0  0  0  0  0  0
  -18.1932  -26.7932   22.1622 C   0  0  0  0  0  0
  -19.1534  -28.8854   23.2874 C   0  0  0  0  0  0
  -18.9457  -30.1467   23.8878 C   0  0  0  0  0  0
  -17.6457  -30.6584   24.0572 C   0  0  0  0  0  0
  -25.9046  -34.9453   23.5107 C   0  0  0  0  0  0
  -16.5347  -29.9083   23.6335 C   0  0  0  0  0  0
  -16.7270  -28.6508   23.0335 C   0  0  0  0  0  0
  -26.4482  -31.6596   25.0742 C   0  0  0  0  0  0
  -25.3717  -31.3765   26.1480 C   0  0  0  0  0  0
  -27.0310  -30.3009   24.6217 C   0  0  0  0  0  0
  -27.6050  -32.4325   25.7501 C   0  0  0  0  0  0
  -27.5581  -37.1805   24.8449 C   0  0  0  0  0  0
  -21.4174  -29.3038   22.3694 N   0  0  0  0  0  0
  -26.4292  -37.3781   23.9396 N   0  0  0  0  0  0
  -24.6852  -31.0632   22.1016 N   0  0  0  0  0  0
  -23.4182  -28.8164   23.3045 O   0  0  0  0  0  0
  -28.3550  -26.5026   20.1206 O   0  0  0  0  0  0
  -26.5622  -34.8911   22.4673 O   0  0  0  0  0  0
  -23.5421  -32.1406   23.7414 O   0  0  0  0  0  0
  -29.2256  -19.1844   19.4057 C   0  0  0  0  0  0
  -29.2197  -17.7651   19.5578 C   0  0  0  0  0  0
  -29.9284  -20.0392   20.2914 C   0  0  0  0  0  0
  -30.6178  -17.9776   21.5247 C   0  0  0  0  0  0
  -29.9304  -17.1226   20.6140 C   0  0  0  0  0  0
  -30.6172  -19.4000   21.3575 C   0  0  0  0  0  0
  -28.4467  -16.9372   18.5452 C   0  0  0  0  0  0
  -31.3743  -17.3636   22.6922 C   0  0  0  0  0  0
  -30.5432  -24.5649   21.0903 C   0  0  0  0  0  0
  -30.1155  -21.5736   19.9905 C   0  0  0  0  0  0
  -28.1457  -25.0499   20.3245 C   0  0  0  0  0  0
  -29.3918  -24.0721   20.1875 C   0  0  2  0  0  0
  -29.8040  -15.6835   20.8377 N   0  0  0  0  0  0
  -29.0816  -22.5912   20.4297 N   0  3  0  0  0  0
  -31.3196  -20.1683   22.2253 F   0  0  0  0  0  0
  -31.4864  -12.5259   19.1511 H   0  0  0  0  0  0
  -30.3877  -11.3998   19.8980 H   0  0  0  0  0  0
  -29.7814  -11.7533   17.4826 H   0  0  0  0  0  0
  -29.6573  -13.4763   17.7435 H   0  0  0  0  0  0
  -27.8743  -11.2882   18.8629 H   0  0  0  0  0  0
  -27.3848  -12.5770   17.7933 H   0  0  0  0  0  0
  -27.6724  -14.2427   19.5281 H   0  0  0  0  0  0
  -28.7174  -12.0483   21.3785 H   0  0  0  0  0  0
  -28.4499  -13.7027   21.8468 H   0  0  0  0  0  0
  -25.2776   -9.5650   22.4770 H   0  0  0  0  0  0
  -23.9986   -7.4621   22.7476 H   0  0  0  0  0  0
  -21.0826   -8.8777   19.8968 H   0  0  0  0  0  0
  -22.3705  -10.9671   19.6159 H   0  0  0  0  0  0
  -21.2016   -7.6148   23.9712 H   0  0  0  0  0  0
  -21.1476   -6.0526   25.9076 H   0  0  0  0  0  0
  -22.0604   -2.7603   23.2853 H   0  0  0  0  0  0
  -22.4074  -11.9908   22.4802 H   0  0  0  0  0  0
  -21.1106  -13.1300   22.2578 H   0  0  0  0  0  0
  -24.6553  -15.8375   20.5292 H   0  0  0  0  0  0
  -26.2732  -15.6352   20.0960 H   0  0  0  0  0  0
  -26.7176  -32.5456   23.1125 H   0  0  0  0  0  0
  -25.0076  -33.9737   25.0441 H   0  0  0  0  0  0
  -22.7094  -31.3070   21.4129 H   0  0  0  0  0  0
  -23.3747  -35.9632   23.3292 H   0  0  0  0  0  0
  -24.3576  -36.8927   22.2047 H   0  0  0  0  0  0
  -23.7243  -37.6496   23.6664 H   0  0  0  0  0  0
  -26.0904  -31.5628   20.6136 H   0  0  0  0  0  0
  -26.8367  -30.8380   22.0072 H   0  0  0  0  0  0
  -28.1161  -28.9993   21.1746 H   0  0  0  0  0  0
  -25.9673  -25.9675   18.9530 H   0  0  0  0  0  0
  -23.9669  -27.3159   19.0111 H   0  0  0  0  0  0
  -23.7450  -30.6031   19.4112 H   0  0  0  0  0  0
  -22.7460  -29.2557   19.8648 H   0  0  0  0  0  0
  -25.1297  -36.1946   25.0809 H   0  0  0  0  0  0
  -20.9964  -28.3265   24.1418 H   0  0  0  0  0  0
  -20.5695  -26.2285   23.3610 H   0  0  0  0  0  0
  -21.6652  -26.7449   22.1204 H   0  0  0  0  0  0
  -19.6916  -25.6286   21.1246 H   0  0  0  0  0  0
  -19.6700  -27.3185   20.6751 H   0  0  0  0  0  0
  -17.4203  -26.6675   21.4025 H   0  0  0  0  0  0
  -18.0319  -26.0079   22.9019 H   0  0  0  0  0  0
  -19.7935  -30.7303   24.2204 H   0  0  0  0  0  0
  -17.5009  -31.6257   24.5191 H   0  0  0  0  0  0
  -15.5351  -30.2978   23.7672 H   0  0  0  0  0  0
  -15.8672  -28.0840   22.7033 H   0  0  0  0  0  0
  -24.5853  -30.7154   25.7825 H   0  0  0  0  0  0
  -24.8959  -32.2952   26.4927 H   0  0  0  0  0  0
  -25.8032  -30.8918   27.0246 H   0  0  0  0  0  0
  -26.2891  -29.6777   24.1214 H   0  0  0  0  0  0
  -27.3950  -29.7261   25.4744 H   0  0  0  0  0  0
  -27.8784  -30.4273   23.9475 H   0  0  0  0  0  0
  -27.2667  -33.3627   26.2077 H   0  0  0  0  0  0
  -28.3855  -32.6881   25.0321 H   0  0  0  0  0  0
  -28.0713  -31.8449   26.5421 H   0  0  0  0  0  0
  -28.2596  -38.0108   24.7510 H   0  0  0  0  0  0
  -28.1085  -36.2643   24.6259 H   0  0  0  0  0  0
  -27.2295  -37.1428   25.8850 H   0  0  0  0  0  0
  -20.9347  -29.8761   21.6911 H   0  0  0  0  0  0
  -26.0174  -38.2848   24.1425 H   0  0  0  0  0  0
  -28.7084  -19.6232   18.5640 H   0  0  0  0  0  0
  -28.1526  -17.5343   17.6810 H   0  0  0  0  0  0
  -27.5400  -16.5354   18.9929 H   0  0  0  0  0  0
  -29.0505  -16.1071   18.1786 H   0  0  0  0  0  0
  -30.7675  -16.6138   23.2002 H   0  0  0  0  0  0
  -31.6633  -18.1091   23.4332 H   0  0  0  0  0  0
  -32.2810  -16.8797   22.3287 H   0  0  0  0  0  0
  -30.7547  -25.6193   20.9060 H   0  0  0  0  0  0
  -31.4731  -24.0282   20.9034 H   0  0  0  0  0  0
  -30.3006  -24.4630   22.1492 H   0  0  0  0  0  0
  -30.2433  -21.6785   18.9124 H   0  0  0  0  0  0
  -31.0773  -21.8594   20.4128 H   0  0  0  0  0  0
  -27.7159  -24.9278   21.3199 H   0  0  0  0  0  0
  -27.4021  -24.6673   19.6301 H   0  0  0  0  0  0
  -29.7286  -24.1566   19.1535 H   0  0  0  0  0  0
  -28.8807  -15.3794   21.1031 H   0  0  0  0  0  0
  -28.8948  -22.4457   21.4092 H   0  0  0  0  0  0
  -28.2328  -22.3603   19.9362 H   0  0  0  0  0  0
  1 25  1  0  0  0
  1 30  2  0  0  0
  1 83  1  0  0  0
  2  3  1  0  0  0
  2 25  1  0  0  0
  2 86  1  0  0  0
  2 87  1  0  0  0
  3  4  1  0  0  0
  3 88  1  0  0  0
  3 89  1  0  0  0
  4  5  1  0  0  0
  4 90  1  0  0  0
  4 91  1  0  0  0
  5  6  1  0  0  0
  5 26  1  0  0  0
  5 92  1  0  0  0
  6 25  1  0  0  0
  6 93  1  0  0  0
  6 94  1  0  0  0
  7  8  2  0  0  0
  7 26  1  0  0  0
  7 29  1  0  0  0
  8  9  1  0  0  0
  8 22  1  0  0  0
  9 10  1  0  0  0
  9 27  2  0  0  0
 10 11  2  0  0  0
 10 15  1  0  0  0
 11 12  1  0  0  0
 11 95  1  0  0  0
 12 13  2  0  0  0
 12 96  1  0  0  0
 13 14  1  0  0  0
 13 31  1  0  0  0
 14 15  2  0  0  0
 14 97  1  0  0  0
 15 98  1  0  0  0
 16 17  2  0  0  0
 16 21  1  0  0  0
 16 31  1  0  0  0
 17 18  1  0  0  0
 17 99  1  0  0  0
 18 19  2  0  0  0
 18100  1  0  0  0
 19 20  1  0  0  0
 19 24  1  0  0  0
 20 21  2  0  0  0
 20101  1  0  0  0
 21 23  1  0  0  0
 22 28  1  0  0  0
 22 32  2  0  0  0
 26 27  1  0  0  0
 28102  1  0  0  0
 28103  1  0  0  0
 29104  1  0  0  0
 29105  1  0  0  0
 33 34  1  0  0  0
 33 66  1  0  0  0
 33 70  2  0  0  0
 34 36  1  0  0  0
 34 59  1  0  0  0
 34106  1  0  0  0
 35 44  2  0  0  0
 35 45  1  0  0  0
 35 68  1  0  0  0
 36 56  1  0  0  0
 36107  1  0  0  0
 37 39  1  0  0  0
 37 47  1  0  0  0
 37 66  1  0  0  0
 37108  1  0  0  0
 38 43  2  0  0  0
 38 46  1  0  0  0
 38 47  1  0  0  0
 39 64  1  0  0  0
 39 67  2  0  0  0
 40 52  1  0  0  0
 40 53  2  0  0  0
 40 58  1  0  0  0
 41109  1  0  0  0
 41110  1  0  0  0
 41111  1  0  0  0
 41 48  1  0  0  0
 42 43  1  0  0  0
 42 66  1  0  0  0
 42112  1  0  0  0
 42113  1  0  0  0
 43 44  1  0  0  0
 44114  1  0  0  0
 45 46  2  0  0  0
 45115  1  0  0  0
 46116  1  0  0  0
 47117  1  0  0  0
 47118  1  0  0  0
 48 56  1  0  0  0
 48 65  1  0  0  0
 48119  1  0  0  0
 49 50  1  0  0  0
 49 53  1  0  0  0
 49 64  1  0  0  0
 49120  1  0  0  0
 50 51  1  0  0  0
 50121  1  0  0  0
 50122  1  0  0  0
 51 52  1  0  0  0
 51123  1  0  0  0
 51124  1  0  0  0
 52125  1  0  0  0
 52126  1  0  0  0
 53 54  1  0  0  0
 54 55  2  0  0  0
 54127  1  0  0  0
 55 57  1  0  0  0
 55128  1  0  0  0
 56 69  2  0  0  0
 57 58  2  0  0  0
 57129  1  0  0  0
 58130  1  0  0  0
 59 60  1  0  0  0
 59 61  1  0  0  0
 59 62  1  0  0  0
 60131  1  0  0  0
 60132  1  0  0  0
 60133  1  0  0  0
 61134  1  0  0  0
 61135  1  0  0  0
 61136  1  0  0  0
 62137  1  0  0  0
 62138  1  0  0  0
 62139  1  0  0  0
 63 65  1  0  0  0
 63140  1  0  0  0
 63141  1  0  0  0
 63142  1  0  0  0
 64143  1  0  0  0
 65144  1  0  0  0
 68 81  1  0  0  0
 71 72  2  0  0  0
 71 73  1  0  0  0
 71145  1  0  0  0
 72 75  1  0  0  0
 72 77  1  0  0  0
 73 76  2  0  0  0
 73 80  1  0  0  0
 74 75  2  0  0  0
 74 76  1  0  0  0
 74 78  1  0  0  0
 75 83  1  0  0  0
 76 85  1  0  0  0
 77146  1  0  0  0
 77147  1  0  0  0
 77148  1  0  0  0
 78149  1  0  0  0
 78150  1  0  0  0
 78151  1  0  0  0
 79152  1  0  0  0
 79153  1  0  0  0
 79154  1  0  0  0
 79 82  1  0  0  0
 80 84  1  0  0  0
 80155  1  0  0  0
 80156  1  0  0  0
 81 82  1  0  0  0
 81157  1  0  0  0
 81158  1  0  0  0
 82 84  1  0  0  0
 82159  1  0  0  0
 83160  1  0  0  0
 84161  1  0  0  0
 84162  1  0  0  0
M  CHG  1  84   1
M  ISO  4   1 100  68 101  81 101  83 100
M  END
> <chiral flag>
0

> <version>
0

> <s_m_source_file>
/data/baiqing/PycharmProjects/Reinvent-master-3.2/result/LINK_invent/BTK/process_docking_weight1_custom_sum_contain_oxygen_bond_distance_aromatic_linkinvent_7_9_3/rearranged_h_0027.sdf

> <i_m_source_file_index>
45

> <r_mmod_Potential_Energy-OPLS-2005>
-109.09024810791

> <r_mmod_Stretch_Energy-OPLS-2005>
77.440185546875

> <r_mmod_Bend_Energy-OPLS-2005>
127.45093536377

> <r_mmod_Torsional_Energy-OPLS-2005>
243.968841552734

> <r_mmod_Improper_Torsional_Energy-OPLS-2005>
5.96356725692749

> <r_mmod_Van_der_Waal_Energy-OPLS-2005>
139.317840576172

> <r_mmod_Electrostatic_Energy-OPLS-2005>
-301.078826904297

> <r_mmod_Solvation_Energy-OPLS-2005>
-447.109649658203

> <b_mmod_Minimization_Converged-OPLS-2005>
0

> <r_mmod_RMS_Derivative-OPLS-2005>
1.94587576389313

$$$$
45
                    3D
 Structure written by MMmdl.
156164  0  0  1  0            999 V2000
  -30.6160  -14.6319   20.5013 C   0  0  0  0  0  0
  -30.4450  -12.3823   19.4613 C   0  0  0  0  0  0
  -29.5122  -12.4836   18.2324 C   0  0  0  0  0  0
  -28.0345  -12.3294   18.6454 C   0  0  0  0  0  0
  -27.6574  -13.2086   19.8661 C   0  0  2  0  0  0
  -28.7005  -13.0573   20.9963 C   0  0  0  0  0  0
  -25.2582  -13.8165   20.5678 C   0  0  0  0  0  0
  -24.1830  -13.0439   20.9188 C   0  0  0  0  0  0
  -24.6388  -11.6913   20.8742 C   0  0  0  0  0  0
  -23.9061  -10.4297   21.0406 C   0  0  0  0  0  0
  -24.3612   -9.4218   21.9185 C   0  0  0  0  0  0
  -23.6289   -8.2254   22.0755 C   0  0  0  0  0  0
  -22.4277   -8.0287   21.3539 C   0  0  0  0  0  0
  -21.9912   -9.0262   20.4636 C   0  0  0  0  0  0
  -22.7236  -10.2145   20.3050 C   0  0  0  0  0  0
  -21.6853   -6.0740   22.5275 C   0  0  0  0  0  0
  -21.4011   -6.5646   23.8212 C   0  0  0  0  0  0
  -21.3661   -5.6797   24.9171 C   0  0  0  0  0  0
  -21.6047   -4.3060   24.7216 C   0  0  0  0  0  0
  -21.8823   -3.8154   23.4339 C   0  0  0  0  0  0
  -21.9190   -4.6969   22.3392 C   0  0  0  0  0  0
  -22.7859  -13.5239   21.1856 C   0  0  0  0  0  0
  -22.1661   -4.2157   21.0969 F   0  0  0  0  0  0
  -21.5625   -3.4541   25.7732 F   0  0  0  0  0  0
  -30.0205  -13.4008   20.4408 N   0  0  0  0  0  0
  -26.3007  -12.9331   20.3329 N   0  0  0  0  0  0
  -25.9315  -11.6500   20.5779 N   0  0  0  0  0  0
  -22.0492  -12.8227   22.0411 N   0  0  0  0  0  0
  -25.4315  -15.1876   20.4058 N   0  0  0  0  0  0
  -31.7629  -14.8209   20.0848 O   0  0  0  0  0  0
  -21.6637   -6.8886   21.4242 O   0  0  0  0  0  0
  -22.3554  -14.5543   20.6707 O   0  0  0  0  0  0
  -24.6252  -31.8622   23.2030 C   0  0  0  0  0  0
  -25.9108  -32.4797   23.8362 C   0  0  1  0  0  0
  -27.2336  -27.3429   20.1117 C   0  0  0  0  0  0
  -25.5927  -33.8580   24.2303 N   0  0  0  0  0  0
  -23.4177  -30.4795   21.5479 C   0  0  2  0  0  0
  -24.8651  -28.9296   20.1186 C   0  0  0  0  0  0
  -22.7477  -29.4588   22.4981 C   0  0  0  0  0  0
  -18.0269  -28.1327   22.8479 C   0  0  0  0  0  0
  -24.1499  -36.7286   23.2640 C   0  0  0  0  0  0
  -25.9538  -30.7999   21.3664 C   0  0  0  0  0  0
  -26.0324  -29.4246   20.7153 C   0  0  0  0  0  0
  -27.2234  -28.6451   20.6952 C   0  0  0  0  0  0
  -26.0445  -26.8823   19.5074 C   0  0  0  0  0  0
  -24.8711  -27.6630   19.5073 C   0  0  0  0  0  0
  -23.6314  -29.8078   20.1640 C   0  0  0  0  0  0
  -25.4122  -36.3087   24.0326 C   0  0  1  0  0  0
  -20.5866  -28.3635   23.1288 C   0  0  2  0  0  0
  -20.6755  -26.9367   22.5390 C   0  0  0  0  0  0
  -19.5736  -26.6343   21.5178 C   0  0  0  0  0  0
  -18.1913  -26.7879   22.1590 C   0  0  0  0  0  0
  -19.1516  -28.8803   23.2870 C   0  0  0  0  0  0
  -18.9459  -30.1398   23.8888 C   0  0  0  0  0  0
  -17.6460  -30.6549   24.0525 C   0  0  0  0  0  0
  -25.9054  -34.9446   23.5111 C   0  0  0  0  0  0
  -16.5355  -29.9049   23.6305 C   0  0  0  0  0  0
  -16.7262  -28.6447   23.0343 C   0  0  0  0  0  0
  -26.4502  -31.6594   25.0719 C   0  0  0  0  0  0
  -25.3742  -31.3696   26.1460 C   0  0  0  0  0  0
  -27.0309  -30.3034   24.6095 C   0  0  0  0  0  0
  -27.6105  -32.4302   25.7461 C   0  0  0  0  0  0
  -27.5585  -37.1795   24.8457 C   0  0  0  0  0  0
  -21.4198  -29.2995   22.3720 N   0  0  0  0  0  0
  -26.4291  -37.3778   23.9415 N   0  0  0  0  0  0
  -24.6851  -31.0628   22.0967 N   0  0  0  0  0  0
  -23.4214  -28.8126   23.3052 O   0  0  0  0  0  0
  -28.3778  -26.5442   20.0949 O   0  0  0  0  0  0
  -26.5619  -34.8903   22.4672 O   0  0  0  0  0  0
  -23.5419  -32.1398   23.7356 O   0  0  0  0  0  0
  -29.6375  -19.4089   21.4965 C   0  0  0  0  0  0
  -29.1209  -19.9298   20.2829 C   0  0  0  0  0  0
  -29.3302  -17.6072   19.3595 C   0  0  0  0  0  0
  -29.7823  -17.0853   20.6122 C   0  0  0  0  0  0
  -29.9515  -18.0283   21.6638 C   0  0  0  0  0  0
  -29.0157  -19.0010   19.2034 C   0  0  0  0  0  0
  -29.0759  -16.6677   18.1840 C   0  0  0  0  0  0
  -28.5165  -21.3883   20.2110 C   0  0  0  0  0  0
  -29.4604  -22.6524   20.1860 C   0  0  0  0  0  0
  -28.9253  -24.0447   19.6068 C   0  0  0  0  0  0
  -28.2879  -25.1441   20.5512 C   0  0  0  0  0  0
  -29.8066  -15.6519   20.9137 N   0  0  0  0  0  0
  -30.4666  -17.4916   23.2250 Cl  0  0  0  0  0  0
  -28.4070  -19.5571   17.6788 Cl  0  0  0  0  0  0
  -31.4859  -12.5102   19.1582 H   0  0  0  0  0  0
  -30.3844  -11.3900   19.9106 H   0  0  0  0  0  0
  -29.7742  -11.7133   17.5051 H   0  0  0  0  0  0
  -29.6578  -13.4385   17.7275 H   0  0  0  0  0  0
  -27.8747  -11.2790   18.8911 H   0  0  0  0  0  0
  -27.3784  -12.5428   17.8012 H   0  0  0  0  0  0
  -27.6798  -14.2417   19.5225 H   0  0  0  0  0  0
  -28.7096  -12.0345   21.3742 H   0  0  0  0  0  0
  -28.4422  -13.6828   21.8505 H   0  0  0  0  0  0
  -25.2753   -9.5707   22.4759 H   0  0  0  0  0  0
  -23.9994   -7.4664   22.7485 H   0  0  0  0  0  0
  -21.0846   -8.8791   19.8940 H   0  0  0  0  0  0
  -22.3700  -10.9690   19.6161 H   0  0  0  0  0  0
  -21.2011   -7.6160   23.9720 H   0  0  0  0  0  0
  -21.1473   -6.0522   25.9077 H   0  0  0  0  0  0
  -22.0599   -2.7617   23.2834 H   0  0  0  0  0  0
  -22.4091  -11.9878   22.4781 H   0  0  0  0  0  0
  -21.1125  -13.1283   22.2630 H   0  0  0  0  0  0
  -24.6646  -15.8436   20.5046 H   0  0  0  0  0  0
  -26.2808  -15.6233   20.0713 H   0  0  0  0  0  0
  -26.7186  -32.5494   23.1136 H   0  0  0  0  0  0
  -25.0057  -33.9690   25.0436 H   0  0  0  0  0  0
  -22.7113  -31.2987   21.4044 H   0  0  0  0  0  0
  -23.3751  -35.9627   23.3261 H   0  0  0  0  0  0
  -24.3597  -36.8939   22.2067 H   0  0  0  0  0  0
  -23.7230  -37.6460   23.6687 H   0  0  0  0  0  0
  -26.0682  -31.5613   20.5944 H   0  0  0  0  0  0
  -26.8398  -30.8605   21.9856 H   0  0  0  0  0  0
  -28.1285  -29.0247   21.1539 H   0  0  0  0  0  0
  -26.0186  -25.9143   19.0281 H   0  0  0  0  0  0
  -23.9760  -27.2738   19.0398 H   0  0  0  0  0  0
  -23.7485  -30.5805   19.4026 H   0  0  0  0  0  0
  -22.7550  -29.2283   19.8690 H   0  0  0  0  0  0
  -25.1287  -36.1935   25.0810 H   0  0  0  0  0  0
  -20.9934  -28.3184   24.1407 H   0  0  0  0  0  0
  -20.5608  -26.2253   23.3584 H   0  0  0  0  0  0
  -21.6647  -26.7375   22.1235 H   0  0  0  0  0  0
  -19.6903  -25.6262   21.1189 H   0  0  0  0  0  0
  -19.6668  -27.3173   20.6730 H   0  0  0  0  0  0
  -17.4198  -26.6605   21.3984 H   0  0  0  0  0  0
  -18.0312  -26.0007   22.8965 H   0  0  0  0  0  0
  -19.7947  -30.7165   24.2295 H   0  0  0  0  0  0
  -17.5032  -31.6244   24.5112 H   0  0  0  0  0  0
  -15.5351  -30.2935   23.7644 H   0  0  0  0  0  0
  -15.8653  -28.0757   22.7085 H   0  0  0  0  0  0
  -24.5897  -30.7066   25.7779 H   0  0  0  0  0  0
  -24.8945  -32.2841   26.4954 H   0  0  0  0  0  0
  -25.8063  -30.8822   27.0208 H   0  0  0  0  0  0
  -26.2831  -29.6785   24.1212 H   0  0  0  0  0  0
  -27.4131  -29.7285   25.4531 H   0  0  0  0  0  0
  -27.8648  -30.4312   23.9196 H   0  0  0  0  0  0
  -27.2772  -33.3660   26.1952 H   0  0  0  0  0  0
  -28.3950  -32.6736   25.0277 H   0  0  0  0  0  0
  -28.0707  -31.8434   26.5428 H   0  0  0  0  0  0
  -28.2586  -38.0118   24.7562 H   0  0  0  0  0  0
  -28.1098  -36.2649   24.6224 H   0  0  0  0  0  0
  -27.2305  -37.1373   25.8856 H   0  0  0  0  0  0
  -20.9375  -29.8770   21.6975 H   0  0  0  0  0  0
  -26.0165  -38.2829   24.1459 H   0  0  0  0  0  0
  -29.7227  -20.0655   22.3495 H   0  0  0  0  0  0
  -29.6263  -15.7352   18.2584 H   0  0  0  0  0  0
  -29.3869  -17.1140   17.2400 H   0  0  0  0  0  0
  -28.0139  -16.4320   18.1150 H   0  0  0  0  0  0
  -27.8437  -21.4915   21.0624 H   0  0  0  0  0  0
  -27.8482  -21.4568   19.3547 H   0  0  0  0  0  0
  -30.2930  -22.3669   19.5406 H   0  0  0  0  0  0
  -29.9135  -22.8029   21.1659 H   0  0  0  0  0  0
  -28.2533  -23.8598   18.7679 H   0  0  0  0  0  0
  -29.7935  -24.5245   19.1523 H   0  0  0  0  0  0
  -28.8211  -25.1118   21.5017 H   0  0  0  0  0  0
  -27.2636  -24.8613   20.7983 H   0  0  0  0  0  0
  -28.9727  -15.3236   21.3755 H   0  0  0  0  0  0
  1 25  1  0  0  0
  1 30  2  0  0  0
  1 82  1  0  0  0
  2  3  1  0  0  0
  2 25  1  0  0  0
  2 85  1  0  0  0
  2 86  1  0  0  0
  3  4  1  0  0  0
  3 87  1  0  0  0
  3 88  1  0  0  0
  4  5  1  0  0  0
  4 89  1  0  0  0
  4 90  1  0  0  0
  5  6  1  0  0  0
  5 26  1  0  0  0
  5 91  1  0  0  0
  6 25  1  0  0  0
  6 92  1  0  0  0
  6 93  1  0  0  0
  7  8  2  0  0  0
  7 26  1  0  0  0
  7 29  1  0  0  0
  8  9  1  0  0  0
  8 22  1  0  0  0
  9 10  1  0  0  0
  9 27  2  0  0  0
 10 11  2  0  0  0
 10 15  1  0  0  0
 11 12  1  0  0  0
 11 94  1  0  0  0
 12 13  2  0  0  0
 12 95  1  0  0  0
 13 14  1  0  0  0
 13 31  1  0  0  0
 14 15  2  0  0  0
 14 96  1  0  0  0
 15 97  1  0  0  0
 16 17  2  0  0  0
 16 21  1  0  0  0
 16 31  1  0  0  0
 17 18  1  0  0  0
 17 98  1  0  0  0
 18 19  2  0  0  0
 18 99  1  0  0  0
 19 20  1  0  0  0
 19 24  1  0  0  0
 20 21  2  0  0  0
 20100  1  0  0  0
 21 23  1  0  0  0
 22 28  1  0  0  0
 22 32  2  0  0  0
 26 27  1  0  0  0
 28101  1  0  0  0
 28102  1  0  0  0
 29103  1  0  0  0
 29104  1  0  0  0
 33 34  1  0  0  0
 33 66  1  0  0  0
 33 70  2  0  0  0
 34 36  1  0  0  0
 34 59  1  0  0  0
 34105  1  0  0  0
 35 44  2  0  0  0
 35 45  1  0  0  0
 35 68  1  0  0  0
 36 56  1  0  0  0
 36106  1  0  0  0
 37 39  1  0  0  0
 37 47  1  0  0  0
 37 66  1  0  0  0
 37107  1  0  0  0
 38 43  2  0  0  0
 38 46  1  0  0  0
 38 47  1  0  0  0
 39 64  1  0  0  0
 39 67  2  0  0  0
 40 52  1  0  0  0
 40 53  2  0  0  0
 40 58  1  0  0  0
 41108  1  0  0  0
 41109  1  0  0  0
 41110  1  0  0  0
 41 48  1  0  0  0
 42 43  1  0  0  0
 42 66  1  0  0  0
 42111  1  0  0  0
 42112  1  0  0  0
 43 44  1  0  0  0
 44113  1  0  0  0
 45 46  2  0  0  0
 45114  1  0  0  0
 46115  1  0  0  0
 47116  1  0  0  0
 47117  1  0  0  0
 48 56  1  0  0  0
 48 65  1  0  0  0
 48118  1  0  0  0
 49 50  1  0  0  0
 49 53  1  0  0  0
 49 64  1  0  0  0
 49119  1  0  0  0
 50 51  1  0  0  0
 50120  1  0  0  0
 50121  1  0  0  0
 51 52  1  0  0  0
 51122  1  0  0  0
 51123  1  0  0  0
 52124  1  0  0  0
 52125  1  0  0  0
 53 54  1  0  0  0
 54 55  2  0  0  0
 54126  1  0  0  0
 55 57  1  0  0  0
 55127  1  0  0  0
 56 69  2  0  0  0
 57 58  2  0  0  0
 57128  1  0  0  0
 58129  1  0  0  0
 59 60  1  0  0  0
 59 61  1  0  0  0
 59 62  1  0  0  0
 60130  1  0  0  0
 60131  1  0  0  0
 60132  1  0  0  0
 61133  1  0  0  0
 61134  1  0  0  0
 61135  1  0  0  0
 62136  1  0  0  0
 62137  1  0  0  0
 62138  1  0  0  0
 63 65  1  0  0  0
 63139  1  0  0  0
 63140  1  0  0  0
 63141  1  0  0  0
 64142  1  0  0  0
 65143  1  0  0  0
 68 81  1  0  0  0
 71 72  2  0  0  0
 71 75  1  0  0  0
 71144  1  0  0  0
 72 76  1  0  0  0
 72 78  1  0  0  0
 73 74  1  0  0  0
 73 76  2  0  0  0
 73 77  1  0  0  0
 74 75  2  0  0  0
 74 82  1  0  0  0
 75 83  1  0  0  0
 76 84  1  0  0  0
 77145  1  0  0  0
 77146  1  0  0  0
 77147  1  0  0  0
 78 79  1  0  0  0
 78148  1  0  0  0
 78149  1  0  0  0
 79 80  1  0  0  0
 79150  1  0  0  0
 79151  1  0  0  0
 80 81  1  0  0  0
 80152  1  0  0  0
 80153  1  0  0  0
 81154  1  0  0  0
 81155  1  0  0  0
 82156  1  0  0  0
M  ISO  4   1 100  68 101  81 101  82 100
M  END
> <chiral flag>
0

> <version>
0

> <s_m_source_file>
/data/baiqing/PycharmProjects/Reinvent-master-3.2/result/LINK_invent/BTK/process_docking_weight1_custom_sum_contain_oxygen_bond_distance_aromatic_linkinvent_7_9_3/rearranged_h_0027.sdf

> <i_m_source_file_index>
46

> <r_mmod_Potential_Energy-OPLS-2005>
76.7844009399414

> <r_mmod_Stretch_Energy-OPLS-2005>
76.3147811889648

> <r_mmod_Bend_Energy-OPLS-2005>
135.786987304688

> <r_mmod_Torsional_Energy-OPLS-2005>
274.355346679688

> <r_mmod_Improper_Torsional_Energy-OPLS-2005>
6.83882617950439

> <r_mmod_Van_der_Waal_Energy-OPLS-2005>
137.914703369141

> <r_mmod_Electrostatic_Energy-OPLS-2005>
-391.998168945312

> <r_mmod_Solvation_Energy-OPLS-2005>
-203.12419128418

> <b_mmod_Minimization_Converged-OPLS-2005>
0

> <r_mmod_RMS_Derivative-OPLS-2005>
3.2841739654541

$$$$
46
                    3D
 Structure written by MMmdl.
165173  0  0  1  0            999 V2000
  -30.6686  -14.5449   20.5499 C   0  0  0  0  0  0
  -30.4314  -12.3475   19.4292 C   0  0  0  0  0  0
  -29.4989  -12.5072   18.2099 C   0  0  0  0  0  0
  -28.0212  -12.3535   18.6240 C   0  0  0  0  0  0
  -27.6577  -13.2082   19.8677 C   0  0  2  0  0  0
  -28.7028  -13.0222   20.9909 C   0  0  0  0  0  0
  -25.2579  -13.8158   20.5683 C   0  0  0  0  0  0
  -24.1838  -13.0435   20.9189 C   0  0  0  0  0  0
  -24.6394  -11.6902   20.8739 C   0  0  0  0  0  0
  -23.9052  -10.4289   21.0407 C   0  0  0  0  0  0
  -24.3610   -9.4208   21.9184 C   0  0  0  0  0  0
  -23.6294   -8.2239   22.0750 C   0  0  0  0  0  0
  -22.4272   -8.0279   21.3542 C   0  0  0  0  0  0
  -21.9904   -9.0250   20.4643 C   0  0  0  0  0  0
  -22.7226  -10.2132   20.3056 C   0  0  0  0  0  0
  -21.6850   -6.0739   22.5281 C   0  0  0  0  0  0
  -21.4010   -6.5641   23.8216 C   0  0  0  0  0  0
  -21.3658   -5.6792   24.9179 C   0  0  0  0  0  0
  -21.6040   -4.3055   24.7227 C   0  0  0  0  0  0
  -21.8819   -3.8147   23.4351 C   0  0  0  0  0  0
  -21.9193   -4.6966   22.3408 C   0  0  0  0  0  0
  -22.7859  -13.5241   21.1851 C   0  0  0  0  0  0
  -22.1661   -4.2154   21.0985 F   0  0  0  0  0  0
  -21.5631   -3.4539   25.7742 F   0  0  0  0  0  0
  -30.0235  -13.3483   20.4300 N   0  0  0  0  0  0
  -26.3009  -12.9324   20.3339 N   0  0  0  0  0  0
  -25.9317  -11.6485   20.5754 N   0  0  0  0  0  0
  -22.0489  -12.8238   22.0402 N   0  0  0  0  0  0
  -25.4293  -15.1879   20.4095 N   0  0  0  0  0  0
  -31.8145  -14.7188   20.1249 O   0  0  0  0  0  0
  -21.6634   -6.8878   21.4242 O   0  0  0  0  0  0
  -22.3550  -14.5551   20.6697 O   0  0  0  0  0  0
  -24.6186  -31.8660   23.2056 C   0  0  0  0  0  0
  -25.9081  -32.4805   23.8350 C   0  0  1  0  0  0
  -27.2309  -27.3893   20.1109 C   0  0  0  0  0  0
  -25.5936  -33.8602   24.2301 N   0  0  0  0  0  0
  -23.4085  -30.4862   21.5473 C   0  0  2  0  0  0
  -24.8581  -28.9419   20.1186 C   0  0  0  0  0  0
  -22.7432  -29.4640   22.4974 C   0  0  0  0  0  0
  -18.0279  -28.1376   22.8474 C   0  0  0  0  0  0
  -24.1497  -36.7298   23.2632 C   0  0  0  0  0  0
  -25.9417  -30.8144   21.3683 C   0  0  0  0  0  0
  -26.0203  -29.4430   20.7209 C   0  0  0  0  0  0
  -27.2123  -28.6737   20.7144 C   0  0  0  0  0  0
  -26.0554  -26.9122   19.4990 C   0  0  0  0  0  0
  -24.8725  -27.6770   19.5050 C   0  0  0  0  0  0
  -23.6217  -29.8150   20.1640 C   0  0  0  0  0  0
  -25.4123  -36.3096   24.0329 C   0  0  1  0  0  0
  -20.5870  -28.3671   23.1312 C   0  0  2  0  0  0
  -20.6778  -26.9395   22.5430 C   0  0  0  0  0  0
  -19.5767  -26.6375   21.5218 C   0  0  0  0  0  0
  -18.1932  -26.7923   22.1605 C   0  0  0  0  0  0
  -19.1527  -28.8837   23.2887 C   0  0  0  0  0  0
  -18.9457  -30.1432   23.8908 C   0  0  0  0  0  0
  -17.6466  -30.6577   24.0560 C   0  0  0  0  0  0
  -25.9058  -34.9465   23.5113 C   0  0  0  0  0  0
  -16.5355  -29.9079   23.6322 C   0  0  0  0  0  0
  -16.7271  -28.6499   23.0336 C   0  0  0  0  0  0
  -26.4493  -31.6594   25.0695 C   0  0  0  0  0  0
  -25.3740  -31.3760   26.1440 C   0  0  0  0  0  0
  -27.0291  -30.3010   24.6098 C   0  0  0  0  0  0
  -27.6076  -32.4303   25.7454 C   0  0  0  0  0  0
  -27.5595  -37.1786   24.8451 C   0  0  0  0  0  0
  -21.4155  -29.3034   22.3716 N   0  0  0  0  0  0
  -26.4302  -37.3790   23.9412 N   0  0  0  0  0  0
  -24.6742  -31.0716   22.0978 N   0  0  0  0  0  0
  -23.4183  -28.8197   23.3040 O   0  0  0  0  0  0
  -28.3697  -26.6058   20.0574 O   0  0  0  0  0  0
  -26.5599  -34.8921   22.4659 O   0  0  0  0  0  0
  -23.5374  -32.1424   23.7437 O   0  0  0  0  0  0
  -31.1284  -19.6058   21.8843 C   0  0  0  0  0  0
  -30.2000  -19.4056   20.8189 C   0  0  0  0  0  0
  -29.7880  -18.0564   20.5239 C   0  0  0  0  0  0
  -31.5678  -18.5078   22.6740 C   0  0  0  0  0  0
  -30.3129  -16.9395   21.2592 C   0  0  0  0  0  0
  -31.1739  -17.1863   22.3555 C   0  0  0  0  0  0
  -31.6911  -20.9945   22.2018 C   0  0  0  0  0  0
  -28.8060  -17.7951   19.3843 C   0  0  0  0  0  0
  -32.4879  -18.7305   23.8764 C   0  0  0  0  0  0
  -29.7463  -20.6326   19.9549 C   0  0  0  0  0  0
  -28.0727  -24.1229   20.8232 C   0  0  0  0  0  0
  -29.1432  -23.1036   20.2842 C   0  0  0  0  0  0
  -28.5208  -25.6070   21.0950 C   0  0  0  0  0  0
  -29.9063  -15.5800   20.9876 N   0  0  0  0  0  0
  -28.8909  -21.6581   20.6401 N   0  3  0  0  0  0
  -31.7255  -15.8687   23.3465 Cl  0  0  0  0  0  0
  -31.4742  -12.4617   19.1277 H   0  0  0  0  0  0
  -30.3506  -11.3428   19.8473 H   0  0  0  0  0  0
  -29.7506  -11.7730   17.4431 H   0  0  0  0  0  0
  -29.6510  -13.4873   17.7552 H   0  0  0  0  0  0
  -27.8471  -11.2979   18.8372 H   0  0  0  0  0  0
  -27.3672  -12.6041   17.7883 H   0  0  0  0  0  0
  -27.6883  -14.2499   19.5477 H   0  0  0  0  0  0
  -28.6994  -11.9900   21.3455 H   0  0  0  0  0  0
  -28.4619  -13.6329   21.8618 H   0  0  0  0  0  0
  -25.2757   -9.5694   22.4754 H   0  0  0  0  0  0
  -24.0009   -7.4633   22.7469 H   0  0  0  0  0  0
  -21.0833   -8.8763   19.8955 H   0  0  0  0  0  0
  -22.3679  -10.9671   19.6166 H   0  0  0  0  0  0
  -21.1990   -7.6145   23.9723 H   0  0  0  0  0  0
  -21.1481   -6.0521   25.9083 H   0  0  0  0  0  0
  -22.0596   -2.7610   23.2850 H   0  0  0  0  0  0
  -22.4087  -11.9901   22.4806 H   0  0  0  0  0  0
  -21.1105  -13.1269   22.2582 H   0  0  0  0  0  0
  -24.6600  -15.8403   20.5151 H   0  0  0  0  0  0
  -26.2753  -15.6285   20.0725 H   0  0  0  0  0  0
  -26.7150  -32.5521   23.1104 H   0  0  0  0  0  0
  -25.0132  -33.9747   25.0476 H   0  0  0  0  0  0
  -22.6991  -31.3041   21.4033 H   0  0  0  0  0  0
  -23.3782  -35.9607   23.3275 H   0  0  0  0  0  0
  -24.3594  -36.8939   22.2049 H   0  0  0  0  0  0
  -23.7218  -37.6481   23.6666 H   0  0  0  0  0  0
  -26.0590  -31.5756   20.5963 H   0  0  0  0  0  0
  -26.8268  -30.8708   21.9894 H   0  0  0  0  0  0
  -28.1114  -29.0550   21.1784 H   0  0  0  0  0  0
  -26.0563  -25.9459   19.0153 H   0  0  0  0  0  0
  -23.9812  -27.2889   19.0321 H   0  0  0  0  0  0
  -23.7310  -30.5871   19.4015 H   0  0  0  0  0  0
  -22.7453  -29.2357   19.8700 H   0  0  0  0  0  0
  -25.1295  -36.1953   25.0824 H   0  0  0  0  0  0
  -20.9943  -28.3248   24.1443 H   0  0  0  0  0  0
  -20.5701  -26.2266   23.3623 H   0  0  0  0  0  0
  -21.6650  -26.7442   22.1220 H   0  0  0  0  0  0
  -19.6941  -25.6290   21.1237 H   0  0  0  0  0  0
  -19.6739  -27.3195   20.6765 H   0  0  0  0  0  0
  -17.4216  -26.6692   21.3982 H   0  0  0  0  0  0
  -18.0301  -26.0048   22.8984 H   0  0  0  0  0  0
  -19.7938  -30.7229   24.2299 H   0  0  0  0  0  0
  -17.5024  -31.6259   24.5154 H   0  0  0  0  0  0
  -15.5355  -30.2988   23.7647 H   0  0  0  0  0  0
  -15.8666  -28.0830   22.7045 H   0  0  0  0  0  0
  -24.5916  -30.7099   25.7795 H   0  0  0  0  0  0
  -24.8926  -32.2943   26.4811 H   0  0  0  0  0  0
  -25.8057  -30.8984   27.0241 H   0  0  0  0  0  0
  -26.2814  -29.6793   24.1160 H   0  0  0  0  0  0
  -27.4042  -29.7241   25.4564 H   0  0  0  0  0  0
  -27.8676  -30.4293   23.9250 H   0  0  0  0  0  0
  -27.2712  -33.3621   26.2009 H   0  0  0  0  0  0
  -28.3894  -32.6827   25.0279 H   0  0  0  0  0  0
  -28.0728  -31.8433   26.5380 H   0  0  0  0  0  0
  -28.2590  -38.0101   24.7528 H   0  0  0  0  0  0
  -28.1106  -36.2633   24.6235 H   0  0  0  0  0  0
  -27.2311  -37.1388   25.8849 H   0  0  0  0  0  0
  -20.9331  -29.8729   21.6912 H   0  0  0  0  0  0
  -26.0197  -38.2866   24.1441 H   0  0  0  0  0  0
  -31.5782  -21.7292   21.4110 H   0  0  0  0  0  0
  -32.7667  -20.9391   22.3738 H   0  0  0  0  0  0
  -31.2258  -21.3982   23.1018 H   0  0  0  0  0  0
  -27.9532  -18.4712   19.4382 H   0  0  0  0  0  0
  -28.3907  -16.7892   19.3925 H   0  0  0  0  0  0
  -29.2987  -17.9335   18.4218 H   0  0  0  0  0  0
  -32.4233  -19.7346   24.2920 H   0  0  0  0  0  0
  -33.5253  -18.5433   23.5975 H   0  0  0  0  0  0
  -32.2354  -18.0693   24.7047 H   0  0  0  0  0  0
  -29.2182  -20.3191   19.0559 H   0  0  0  0  0  0
  -30.6444  -21.1052   19.5564 H   0  0  0  0  0  0
  -27.7468  -23.7406   21.7909 H   0  0  0  0  0  0
  -27.1794  -24.1059   20.1987 H   0  0  0  0  0  0
  -30.1230  -23.3772   20.6745 H   0  0  0  0  0  0
  -29.2126  -23.2072   19.2008 H   0  0  0  0  0  0
  -29.5698  -25.6086   21.3922 H   0  0  0  0  0  0
  -27.9885  -25.9597   21.9821 H   0  0  0  0  0  0
  -28.9448  -15.3562   21.1889 H   0  0  0  0  0  0
  -29.0060  -21.5405   21.6327 H   0  0  0  0  0  0
  -27.9334  -21.4284   20.4291 H   0  0  0  0  0  0
  1 25  1  0  0  0
  1 30  2  0  0  0
  1 84  1  0  0  0
  2  3  1  0  0  0
  2 25  1  0  0  0
  2 87  1  0  0  0
  2 88  1  0  0  0
  3  4  1  0  0  0
  3 89  1  0  0  0
  3 90  1  0  0  0
  4  5  1  0  0  0
  4 91  1  0  0  0
  4 92  1  0  0  0
  5  6  1  0  0  0
  5 26  1  0  0  0
  5 93  1  0  0  0
  6 25  1  0  0  0
  6 94  1  0  0  0
  6 95  1  0  0  0
  7  8  2  0  0  0
  7 26  1  0  0  0
  7 29  1  0  0  0
  8  9  1  0  0  0
  8 22  1  0  0  0
  9 10  1  0  0  0
  9 27  2  0  0  0
 10 11  2  0  0  0
 10 15  1  0  0  0
 11 12  1  0  0  0
 11 96  1  0  0  0
 12 13  2  0  0  0
 12 97  1  0  0  0
 13 14  1  0  0  0
 13 31  1  0  0  0
 14 15  2  0  0  0
 14 98  1  0  0  0
 15 99  1  0  0  0
 16 17  2  0  0  0
 16 21  1  0  0  0
 16 31  1  0  0  0
 17 18  1  0  0  0
 17100  1  0  0  0
 18 19  2  0  0  0
 18101  1  0  0  0
 19 20  1  0  0  0
 19 24  1  0  0  0
 20 21  2  0  0  0
 20102  1  0  0  0
 21 23  1  0  0  0
 22 28  1  0  0  0
 22 32  2  0  0  0
 26 27  1  0  0  0
 28103  1  0  0  0
 28104  1  0  0  0
 29105  1  0  0  0
 29106  1  0  0  0
 33 34  1  0  0  0
 33 66  1  0  0  0
 33 70  2  0  0  0
 34 36  1  0  0  0
 34 59  1  0  0  0
 34107  1  0  0  0
 35 44  2  0  0  0
 35 45  1  0  0  0
 35 68  1  0  0  0
 36 56  1  0  0  0
 36108  1  0  0  0
 37 39  1  0  0  0
 37 47  1  0  0  0
 37 66  1  0  0  0
 37109  1  0  0  0
 38 43  2  0  0  0
 38 46  1  0  0  0
 38 47  1  0  0  0
 39 64  1  0  0  0
 39 67  2  0  0  0
 40 52  1  0  0  0
 40 53  2  0  0  0
 40 58  1  0  0  0
 41110  1  0  0  0
 41111  1  0  0  0
 41112  1  0  0  0
 41 48  1  0  0  0
 42 43  1  0  0  0
 42 66  1  0  0  0
 42113  1  0  0  0
 42114  1  0  0  0
 43 44  1  0  0  0
 44115  1  0  0  0
 45 46  2  0  0  0
 45116  1  0  0  0
 46117  1  0  0  0
 47118  1  0  0  0
 47119  1  0  0  0
 48 56  1  0  0  0
 48 65  1  0  0  0
 48120  1  0  0  0
 49 50  1  0  0  0
 49 53  1  0  0  0
 49 64  1  0  0  0
 49121  1  0  0  0
 50 51  1  0  0  0
 50122  1  0  0  0
 50123  1  0  0  0
 51 52  1  0  0  0
 51124  1  0  0  0
 51125  1  0  0  0
 52126  1  0  0  0
 52127  1  0  0  0
 53 54  1  0  0  0
 54 55  2  0  0  0
 54128  1  0  0  0
 55 57  1  0  0  0
 55129  1  0  0  0
 56 69  2  0  0  0
 57 58  2  0  0  0
 57130  1  0  0  0
 58131  1  0  0  0
 59 60  1  0  0  0
 59 61  1  0  0  0
 59 62  1  0  0  0
 60132  1  0  0  0
 60133  1  0  0  0
 60134  1  0  0  0
 61135  1  0  0  0
 61136  1  0  0  0
 61137  1  0  0  0
 62138  1  0  0  0
 62139  1  0  0  0
 62140  1  0  0  0
 63 65  1  0  0  0
 63141  1  0  0  0
 63142  1  0  0  0
 63143  1  0  0  0
 64144  1  0  0  0
 65145  1  0  0  0
 68 83  1  0  0  0
 71 72  2  0  0  0
 71 74  1  0  0  0
 71 77  1  0  0  0
 72 73  1  0  0  0
 72 80  1  0  0  0
 73 75  2  0  0  0
 73 78  1  0  0  0
 74 76  2  0  0  0
 74 79  1  0  0  0
 75 76  1  0  0  0
 75 84  1  0  0  0
 76 86  1  0  0  0
 77146  1  0  0  0
 77147  1  0  0  0
 77148  1  0  0  0
 78149  1  0  0  0
 78150  1  0  0  0
 78151  1  0  0  0
 79152  1  0  0  0
 79153  1  0  0  0
 79154  1  0  0  0
 80 85  1  0  0  0
 80155  1  0  0  0
 80156  1  0  0  0
 81 82  1  0  0  0
 81 83  1  0  0  0
 81157  1  0  0  0
 81158  1  0  0  0
 82 85  1  0  0  0
 82159  1  0  0  0
 82160  1  0  0  0
 83161  1  0  0  0
 83162  1  0  0  0
 84163  1  0  0  0
 85164  1  0  0  0
 85165  1  0  0  0
M  CHG  1  85   1
M  ISO  4   1 100  68 101  83 101  84 100
M  END
> <chiral flag>
0

> <version>
0

> <s_m_source_file>
/data/baiqing/PycharmProjects/Reinvent-master-3.2/result/LINK_invent/BTK/process_docking_weight1_custom_sum_contain_oxygen_bond_distance_aromatic_linkinvent_7_9_3/rearranged_h_0027.sdf

> <i_m_source_file_index>
47

> <r_mmod_Potential_Energy-OPLS-2005>
-178.091659545898

> <r_mmod_Stretch_Energy-OPLS-2005>
60.7042579650879

> <r_mmod_Bend_Energy-OPLS-2005>
114.062370300293

> <r_mmod_Torsional_Energy-OPLS-2005>
265.843078613281

> <r_mmod_Improper_Torsional_Energy-OPLS-2005>
4.66263151168823

> <r_mmod_Van_der_Waal_Energy-OPLS-2005>
158.684310913086

> <r_mmod_Electrostatic_Energy-OPLS-2005>
-326.227905273438

> <r_mmod_Solvation_Energy-OPLS-2005>
-477.876983642578

> <b_mmod_Minimization_Converged-OPLS-2005>
0

> <r_mmod_RMS_Derivative-OPLS-2005>
1.59682321548462

$$$$
47
                    3D
 Structure written by MMmdl.
162170  0  0  1  0            999 V2000
  -30.7249  -14.4062   20.6623 C   0  0  0  0  0  0
  -30.4290  -12.3200   19.3777 C   0  0  0  0  0  0
  -29.4727  -12.5033   18.1809 C   0  0  0  0  0  0
  -27.9963  -12.3928   18.6019 C   0  0  0  0  0  0
  -27.6618  -13.2055   19.8820 C   0  0  2  0  0  0
  -28.7061  -12.9294   20.9862 C   0  0  0  0  0  0
  -25.2516  -13.8171   20.5533 C   0  0  0  0  0  0
  -24.1772  -13.0452   20.9123 C   0  0  0  0  0  0
  -24.6317  -11.6941   20.8711 C   0  0  0  0  0  0
  -23.8967  -10.4346   21.0386 C   0  0  0  0  0  0
  -24.3566   -9.4290   21.9155 C   0  0  0  0  0  0
  -23.6291   -8.2302   22.0735 C   0  0  0  0  0  0
  -22.4269   -8.0294   21.3539 C   0  0  0  0  0  0
  -21.9859   -9.0243   20.4642 C   0  0  0  0  0  0
  -22.7131  -10.2153   20.3054 C   0  0  0  0  0  0
  -21.6880   -6.0731   22.5257 C   0  0  0  0  0  0
  -21.4025   -6.5650   23.8170 C   0  0  0  0  0  0
  -21.3629   -5.6819   24.9136 C   0  0  0  0  0  0
  -21.6020   -4.3090   24.7204 C   0  0  0  0  0  0
  -21.8843   -3.8142   23.4361 C   0  0  0  0  0  0
  -21.9210   -4.6953   22.3404 C   0  0  0  0  0  0
  -22.7798  -13.5247   21.1808 C   0  0  0  0  0  0
  -22.1689   -4.2130   21.0995 F   0  0  0  0  0  0
  -21.5586   -3.4578   25.7723 F   0  0  0  0  0  0
  -30.0364  -13.2574   20.4420 N   0  0  0  0  0  0
  -26.2990  -12.9332   20.3365 N   0  0  0  0  0  0
  -25.9264  -11.6497   20.5803 N   0  0  0  0  0  0
  -22.0487  -12.8227   22.0411 N   0  0  0  0  0  0
  -25.4182  -15.1854   20.3709 N   0  0  0  0  0  0
  -31.7864  -14.6767   20.0885 O   0  0  0  0  0  0
  -21.6691   -6.8856   21.4205 O   0  0  0  0  0  0
  -22.3434  -14.5502   20.6633 O   0  0  0  0  0  0
  -24.6105  -31.8677   23.2141 C   0  0  0  0  0  0
  -25.9011  -32.4834   23.8433 C   0  0  1  0  0  0
  -27.2331  -27.4761   20.0777 C   0  0  0  0  0  0
  -25.5891  -33.8633   24.2381 N   0  0  0  0  0  0
  -23.3965  -30.4986   21.5477 C   0  0  2  0  0  0
  -24.8430  -28.9642   20.1128 C   0  0  0  0  0  0
  -22.7371  -29.4703   22.4940 C   0  0  0  0  0  0
  -18.0270  -28.1418   22.8478 C   0  0  0  0  0  0
  -24.1483  -36.7337   23.2640 C   0  0  0  0  0  0
  -25.9210  -30.8471   21.3589 C   0  0  0  0  0  0
  -25.9991  -29.4819   20.7104 C   0  0  0  0  0  0
  -27.1986  -28.7420   20.6969 C   0  0  0  0  0  0
  -26.0651  -26.9565   19.4837 C   0  0  0  0  0  0
  -24.8654  -27.6957   19.5031 C   0  0  0  0  0  0
  -23.6055  -29.8314   20.1607 C   0  0  0  0  0  0
  -25.4092  -36.3139   24.0364 C   0  0  1  0  0  0
  -20.5854  -28.3728   23.1299 C   0  0  2  0  0  0
  -20.6773  -26.9458   22.5436 C   0  0  0  0  0  0
  -19.5764  -26.6409   21.5224 C   0  0  0  0  0  0
  -18.1927  -26.7962   22.1608 C   0  0  0  0  0  0
  -19.1519  -28.8879   23.2900 C   0  0  0  0  0  0
  -18.9459  -30.1465   23.8950 C   0  0  0  0  0  0
  -17.6476  -30.6622   24.0598 C   0  0  0  0  0  0
  -25.9008  -34.9488   23.5163 C   0  0  0  0  0  0
  -16.5360  -29.9153   23.6316 C   0  0  0  0  0  0
  -16.7271  -28.6563   23.0337 C   0  0  0  0  0  0
  -26.4464  -31.6589   25.0736 C   0  0  0  0  0  0
  -25.3800  -31.3650   26.1541 C   0  0  0  0  0  0
  -27.0279  -30.3057   24.6028 C   0  0  0  0  0  0
  -27.6058  -32.4293   25.7490 C   0  0  0  0  0  0
  -27.5592  -37.1819   24.8457 C   0  0  0  0  0  0
  -21.4101  -29.3092   22.3688 N   0  0  0  0  0  0
  -26.4279  -37.3825   23.9435 N   0  0  0  0  0  0
  -24.6609  -31.0843   22.1005 N   0  0  0  0  0  0
  -23.4151  -28.8222   23.2958 O   0  0  0  0  0  0
  -28.3904  -26.7451   20.0536 O   0  0  0  0  0  0
  -26.5565  -34.8929   22.4713 O   0  0  0  0  0  0
  -23.5301  -32.1398   23.7580 O   0  0  0  0  0  0
  -29.6355  -22.0261   19.2188 C   0  0  0  0  0  0
  -29.1235  -22.4206   21.5579 C   0  0  0  0  0  0
  -29.6543  -22.8887   20.3359 C   0  0  0  0  0  0
  -28.5137  -20.2829   20.5275 C   0  0  0  0  0  0
  -29.0953  -20.7271   19.3120 C   0  0  0  0  0  0
  -28.5396  -21.1449   21.6494 C   0  0  0  0  0  0
  -30.2853  -24.2772   20.1887 C   0  0  0  0  0  0
  -27.8030  -18.9315   20.6222 C   0  0  0  0  0  0
  -29.9448  -25.3279   21.2710 C   0  0  0  0  0  0
  -28.5291  -17.8303   21.4253 C   0  0  0  0  0  0
  -30.0448  -17.7233   21.1913 C   0  0  0  0  0  0
  -30.6957  -16.5506   21.9515 C   0  0  0  0  0  0
  -28.5184  -25.8996   21.1909 C   0  0  0  0  0  0
  -30.1611  -15.2507   21.5390 N   0  0  0  0  0  0
  -29.1522  -19.7230   17.9053 Cl  0  0  0  0  0  0
  -27.8432  -20.6864   23.1638 Cl  0  0  0  0  0  0
  -31.4560  -12.4778   19.0447 H   0  0  0  0  0  0
  -30.3915  -11.2962   19.7523 H   0  0  0  0  0  0
  -29.6823  -11.7555   17.4139 H   0  0  0  0  0  0
  -29.6431  -13.4710   17.7118 H   0  0  0  0  0  0
  -27.7723  -11.3366   18.7634 H   0  0  0  0  0  0
  -27.3518  -12.7160   17.7840 H   0  0  0  0  0  0
  -27.7197  -14.2632   19.6222 H   0  0  0  0  0  0
  -28.6855  -11.8716   21.2514 H   0  0  0  0  0  0
  -28.4534  -13.4613   21.9037 H   0  0  0  0  0  0
  -25.2699   -9.5836   22.4725 H   0  0  0  0  0  0
  -24.0064   -7.4721   22.7444 H   0  0  0  0  0  0
  -21.0805   -8.8696   19.8944 H   0  0  0  0  0  0
  -22.3507  -10.9703   19.6208 H   0  0  0  0  0  0
  -21.2031   -7.6146   23.9655 H   0  0  0  0  0  0
  -21.1386   -6.0567   25.9035 H   0  0  0  0  0  0
  -22.0630   -2.7597   23.2890 H   0  0  0  0  0  0
  -22.4211  -11.9995   22.4917 H   0  0  0  0  0  0
  -21.1060  -13.1127   22.2559 H   0  0  0  0  0  0
  -24.6376  -15.8314   20.4163 H   0  0  0  0  0  0
  -26.2251  -15.5731   19.9004 H   0  0  0  0  0  0
  -26.7081  -32.5562   23.1199 H   0  0  0  0  0  0
  -25.0131  -33.9800   25.0607 H   0  0  0  0  0  0
  -22.6870  -31.3183   21.4103 H   0  0  0  0  0  0
  -23.3746  -35.9657   23.3272 H   0  0  0  0  0  0
  -24.3604  -36.8970   22.2058 H   0  0  0  0  0  0
  -23.7204  -37.6530   23.6654 H   0  0  0  0  0  0
  -26.0181  -31.6097   20.5845 H   0  0  0  0  0  0
  -26.8140  -30.9086   21.9686 H   0  0  0  0  0  0
  -28.0947  -29.1350   21.1559 H   0  0  0  0  0  0
  -26.0837  -25.9851   19.0093 H   0  0  0  0  0  0
  -23.9750  -27.2925   19.0424 H   0  0  0  0  0  0
  -23.7216  -30.6094   19.4041 H   0  0  0  0  0  0
  -22.7270  -29.2591   19.8578 H   0  0  0  0  0  0
  -25.1244  -36.2016   25.0851 H   0  0  0  0  0  0
  -20.9961  -28.3337   24.1412 H   0  0  0  0  0  0
  -20.5671  -26.2350   23.3642 H   0  0  0  0  0  0
  -21.6651  -26.7509   22.1245 H   0  0  0  0  0  0
  -19.6938  -25.6310   21.1281 H   0  0  0  0  0  0
  -19.6716  -27.3197   20.6733 H   0  0  0  0  0  0
  -17.4201  -26.6716   21.4000 H   0  0  0  0  0  0
  -18.0329  -26.0110   22.9005 H   0  0  0  0  0  0
  -19.7950  -30.7257   24.2346 H   0  0  0  0  0  0
  -17.5053  -31.6298   24.5222 H   0  0  0  0  0  0
  -15.5372  -30.3103   23.7620 H   0  0  0  0  0  0
  -15.8652  -28.0932   22.7012 H   0  0  0  0  0  0
  -24.5978  -30.6949   25.7952 H   0  0  0  0  0  0
  -24.8982  -32.2771   26.5065 H   0  0  0  0  0  0
  -25.8251  -30.8826   27.0260 H   0  0  0  0  0  0
  -26.2772  -29.6821   24.1143 H   0  0  0  0  0  0
  -27.4159  -29.7265   25.4422 H   0  0  0  0  0  0
  -27.8565  -30.4419   23.9080 H   0  0  0  0  0  0
  -27.2688  -33.3562   26.2136 H   0  0  0  0  0  0
  -28.3841  -32.6877   25.0309 H   0  0  0  0  0  0
  -28.0748  -31.8365   26.5357 H   0  0  0  0  0  0
  -28.2579  -38.0154   24.7560 H   0  0  0  0  0  0
  -28.1118  -36.2684   24.6187 H   0  0  0  0  0  0
  -27.2341  -37.1382   25.8870 H   0  0  0  0  0  0
  -20.9235  -29.8857   21.6964 H   0  0  0  0  0  0
  -26.0171  -38.2884   24.1490 H   0  0  0  0  0  0
  -30.0482  -22.3617   18.2758 H   0  0  0  0  0  0
  -29.1318  -23.0247   22.4522 H   0  0  0  0  0  0
  -30.0263  -24.6816   19.2081 H   0  0  0  0  0  0
  -31.3670  -24.1332   20.1742 H   0  0  0  0  0  0
  -27.5554  -18.5613   19.6280 H   0  0  0  0  0  0
  -26.8335  -19.1080   21.0909 H   0  0  0  0  0  0
  -30.6404  -26.1627   21.1734 H   0  0  0  0  0  0
  -30.1348  -24.9261   22.2685 H   0  0  0  0  0  0
  -28.0423  -16.8764   21.2206 H   0  0  0  0  0  0
  -28.3747  -18.0059   22.4886 H   0  0  0  0  0  0
  -30.5158  -18.6506   21.5207 H   0  0  0  0  0  0
  -30.2579  -17.6375   20.1260 H   0  0  0  0  0  0
  -30.5287  -16.6744   23.0244 H   0  0  0  0  0  0
  -31.7786  -16.5850   21.8055 H   0  0  0  0  0  0
  -28.3156  -26.4754   22.0964 H   0  0  0  0  0  0
  -27.7783  -25.1005   21.1447 H   0  0  0  0  0  0
  -29.2783  -14.9627   21.9395 H   0  0  0  0  0  0
  1 25  1  0  0  0
  1 30  2  0  0  0
  1 84  1  0  0  0
  2  3  1  0  0  0
  2 25  1  0  0  0
  2 87  1  0  0  0
  2 88  1  0  0  0
  3  4  1  0  0  0
  3 89  1  0  0  0
  3 90  1  0  0  0
  4  5  1  0  0  0
  4 91  1  0  0  0
  4 92  1  0  0  0
  5  6  1  0  0  0
  5 26  1  0  0  0
  5 93  1  0  0  0
  6 25  1  0  0  0
  6 94  1  0  0  0
  6 95  1  0  0  0
  7  8  2  0  0  0
  7 26  1  0  0  0
  7 29  1  0  0  0
  8  9  1  0  0  0
  8 22  1  0  0  0
  9 10  1  0  0  0
  9 27  2  0  0  0
 10 11  2  0  0  0
 10 15  1  0  0  0
 11 12  1  0  0  0
 11 96  1  0  0  0
 12 13  2  0  0  0
 12 97  1  0  0  0
 13 14  1  0  0  0
 13 31  1  0  0  0
 14 15  2  0  0  0
 14 98  1  0  0  0
 15 99  1  0  0  0
 16 17  2  0  0  0
 16 21  1  0  0  0
 16 31  1  0  0  0
 17 18  1  0  0  0
 17100  1  0  0  0
 18 19  2  0  0  0
 18101  1  0  0  0
 19 20  1  0  0  0
 19 24  1  0  0  0
 20 21  2  0  0  0
 20102  1  0  0  0
 21 23  1  0  0  0
 22 28  1  0  0  0
 22 32  2  0  0  0
 26 27  1  0  0  0
 28103  1  0  0  0
 28104  1  0  0  0
 29105  1  0  0  0
 29106  1  0  0  0
 33 34  1  0  0  0
 33 66  1  0  0  0
 33 70  2  0  0  0
 34 36  1  0  0  0
 34 59  1  0  0  0
 34107  1  0  0  0
 35 44  2  0  0  0
 35 45  1  0  0  0
 35 68  1  0  0  0
 36 56  1  0  0  0
 36108  1  0  0  0
 37 39  1  0  0  0
 37 47  1  0  0  0
 37 66  1  0  0  0
 37109  1  0  0  0
 38 43  2  0  0  0
 38 46  1  0  0  0
 38 47  1  0  0  0
 39 64  1  0  0  0
 39 67  2  0  0  0
 40 52  1  0  0  0
 40 53  2  0  0  0
 40 58  1  0  0  0
 41110  1  0  0  0
 41111  1  0  0  0
 41112  1  0  0  0
 41 48  1  0  0  0
 42 43  1  0  0  0
 42 66  1  0  0  0
 42113  1  0  0  0
 42114  1  0  0  0
 43 44  1  0  0  0
 44115  1  0  0  0
 45 46  2  0  0  0
 45116  1  0  0  0
 46117  1  0  0  0
 47118  1  0  0  0
 47119  1  0  0  0
 48 56  1  0  0  0
 48 65  1  0  0  0
 48120  1  0  0  0
 49 50  1  0  0  0
 49 53  1  0  0  0
 49 64  1  0  0  0
 49121  1  0  0  0
 50 51  1  0  0  0
 50122  1  0  0  0
 50123  1  0  0  0
 51 52  1  0  0  0
 51124  1  0  0  0
 51125  1  0  0  0
 52126  1  0  0  0
 52127  1  0  0  0
 53 54  1  0  0  0
 54 55  2  0  0  0
 54128  1  0  0  0
 55 57  1  0  0  0
 55129  1  0  0  0
 56 69  2  0  0  0
 57 58  2  0  0  0
 57130  1  0  0  0
 58131  1  0  0  0
 59 60  1  0  0  0
 59 61  1  0  0  0
 59 62  1  0  0  0
 60132  1  0  0  0
 60133  1  0  0  0
 60134  1  0  0  0
 61135  1  0  0  0
 61136  1  0  0  0
 61137  1  0  0  0
 62138  1  0  0  0
 62139  1  0  0  0
 62140  1  0  0  0
 63 65  1  0  0  0
 63141  1  0  0  0
 63142  1  0  0  0
 63143  1  0  0  0
 64144  1  0  0  0
 65145  1  0  0  0
 68 83  1  0  0  0
 71 73  2  0  0  0
 71 75  1  0  0  0
 71146  1  0  0  0
 72 73  1  0  0  0
 72 76  2  0  0  0
 72147  1  0  0  0
 73 77  1  0  0  0
 74 75  2  0  0  0
 74 76  1  0  0  0
 74 78  1  0  0  0
 75 85  1  0  0  0
 76 86  1  0  0  0
 77 79  1  0  0  0
 77148  1  0  0  0
 77149  1  0  0  0
 78 80  1  0  0  0
 78150  1  0  0  0
 78151  1  0  0  0
 79 83  1  0  0  0
 79152  1  0  0  0
 79153  1  0  0  0
 80 81  1  0  0  0
 80154  1  0  0  0
 80155  1  0  0  0
 81 82  1  0  0  0
 81156  1  0  0  0
 81157  1  0  0  0
 82 84  1  0  0  0
 82158  1  0  0  0
 82159  1  0  0  0
 83160  1  0  0  0
 83161  1  0  0  0
 84162  1  0  0  0
M  ISO  4   1 100  68 101  83 101  84 100
M  END
> <chiral flag>
0

> <version>
0

> <s_m_source_file>
/data/baiqing/PycharmProjects/Reinvent-master-3.2/result/LINK_invent/BTK/process_docking_weight1_custom_sum_contain_oxygen_bond_distance_aromatic_linkinvent_7_9_3/rearranged_h_0027.sdf

> <i_m_source_file_index>
48

> <r_mmod_Potential_Energy-OPLS-2005>
-62.5244178771973

> <r_mmod_Stretch_Energy-OPLS-2005>
33.2109642028809

> <r_mmod_Bend_Energy-OPLS-2005>
90.1848678588867

> <r_mmod_Torsional_Energy-OPLS-2005>
231.744354248047

> <r_mmod_Improper_Torsional_Energy-OPLS-2005>
2.75666046142578

> <r_mmod_Van_der_Waal_Energy-OPLS-2005>
146.109954833984

> <r_mmod_Electrostatic_Energy-OPLS-2005>
-376.495697021484

> <r_mmod_Solvation_Energy-OPLS-2005>
-198.095428466797

> <b_mmod_Minimization_Converged-OPLS-2005>
0

> <r_mmod_RMS_Derivative-OPLS-2005>
5.0446605682373

$$$$
48
                    3D
 Structure written by MMmdl.
161169  0  0  1  0            999 V2000
  -30.4263  -15.2724   20.3664 C   0  0  0  0  0  0
  -30.4350  -12.8109   19.5323 C   0  0  0  0  0  0
  -29.5368  -12.5786   18.2913 C   0  0  0  0  0  0
  -28.0867  -12.2977   18.7207 C   0  0  0  0  0  0
  -27.6108  -13.2763   19.8231 C   0  0  2  0  0  0
  -28.6386  -13.4570   20.9596 C   0  0  0  0  0  0
  -25.2385  -13.8256   20.5737 C   0  0  0  0  0  0
  -24.1738  -13.0441   20.9261 C   0  0  0  0  0  0
  -24.6398  -11.6937   20.8769 C   0  0  0  0  0  0
  -23.9100  -10.4295   21.0422 C   0  0  0  0  0  0
  -24.3643   -9.4204   21.9196 C   0  0  0  0  0  0
  -23.6307   -8.2250   22.0761 C   0  0  0  0  0  0
  -22.4287   -8.0293   21.3550 C   0  0  0  0  0  0
  -21.9926   -9.0274   20.4655 C   0  0  0  0  0  0
  -22.7274  -10.2143   20.3067 C   0  0  0  0  0  0
  -21.6855   -6.0748   22.5286 C   0  0  0  0  0  0
  -21.4019   -6.5645   23.8223 C   0  0  0  0  0  0
  -21.3655   -5.6794   24.9181 C   0  0  0  0  0  0
  -21.6040   -4.3058   24.7231 C   0  0  0  0  0  0
  -21.8817   -3.8152   23.4350 C   0  0  0  0  0  0
  -21.9191   -4.6975   22.3408 C   0  0  0  0  0  0
  -22.7757  -13.5191   21.1924 C   0  0  0  0  0  0
  -22.1660   -4.2152   21.0987 F   0  0  0  0  0  0
  -21.5625   -3.4540   25.7748 F   0  0  0  0  0  0
  -29.8720  -13.9604   20.3353 N   0  0  0  0  0  0
  -26.2809  -12.9530   20.3213 N   0  0  0  0  0  0
  -25.9332  -11.6632   20.5707 N   0  0  0  0  0  0
  -22.0415  -12.8172   22.0474 N   0  0  0  0  0  0
  -25.4010  -15.1994   20.4165 N   0  0  0  0  0  0
  -31.6446  -15.2770   20.1374 O   0  0  0  0  0  0
  -21.6642   -6.8895   21.4251 O   0  0  0  0  0  0
  -22.3443  -14.5498   20.6769 O   0  0  0  0  0  0
  -24.6625  -31.8225   23.1689 C   0  0  0  0  0  0
  -25.9308  -32.4581   23.8156 C   0  0  1  0  0  0
  -27.2173  -26.9198   20.1880 C   0  0  0  0  0  0
  -25.5977  -33.8405   24.2063 N   0  0  0  0  0  0
  -23.4784  -30.4328   21.5172 C   0  0  2  0  0  0
  -24.9333  -28.8201   20.1065 C   0  0  0  0  0  0
  -22.7671  -29.4421   22.4755 C   0  0  0  0  0  0
  -18.0326  -28.1410   22.8454 C   0  0  0  0  0  0
  -24.1486  -36.7201   23.2651 C   0  0  0  0  0  0
  -26.0472  -30.6251   21.4026 C   0  0  0  0  0  0
  -26.1150  -29.2158   20.7450 C   0  0  0  0  0  0
  -27.2490  -28.2844   20.7649 C   0  0  0  0  0  0
  -26.0123  -26.6830   19.4879 C   0  0  0  0  0  0
  -24.9080  -27.5753   19.4570 C   0  0  0  0  0  0
  -23.7192  -29.7486   20.1429 C   0  0  0  0  0  0
  -25.4133  -36.2968   24.0302 C   0  0  1  0  0  0
  -20.5955  -28.3753   23.1177 C   0  0  2  0  0  0
  -20.6800  -26.9431   22.5405 C   0  0  0  0  0  0
  -19.5777  -26.6371   21.5213 C   0  0  0  0  0  0
  -18.1955  -26.7940   22.1617 C   0  0  0  0  0  0
  -19.1592  -28.8902   23.2797 C   0  0  0  0  0  0
  -18.9510  -30.1483   23.8844 C   0  0  0  0  0  0
  -17.6508  -30.6602   24.0553 C   0  0  0  0  0  0
  -25.9103  -34.9354   23.5005 C   0  0  0  0  0  0
  -16.5393  -29.9088   23.6349 C   0  0  0  0  0  0
  -16.7308  -28.6507   23.0361 C   0  0  0  0  0  0
  -26.4557  -31.6541   25.0699 C   0  0  0  0  0  0
  -25.3669  -31.3801   26.1343 C   0  0  0  0  0  0
  -27.0472  -30.2909   24.6450 C   0  0  0  0  0  0
  -27.6044  -32.4362   25.7494 C   0  0  0  0  0  0
  -27.5568  -37.1751   24.8472 C   0  0  0  0  0  0
  -21.4342  -29.3034   22.3512 N   0  0  0  0  0  0
  -26.4275  -37.3704   23.9417 N   0  0  0  0  0  0
  -24.7506  -30.9877   22.0833 N   0  0  0  0  0  0
  -23.4213  -28.7987   23.3001 O   0  0  0  0  0  0
  -28.2060  -25.8049   20.3099 O   0  0  0  0  0  0
  -26.5714  -34.8887   22.4599 O   0  0  0  0  0  0
  -23.5698  -32.1210   23.6778 O   0  0  0  0  0  0
  -30.5308  -21.5143   19.4795 C   0  0  0  0  0  0
  -29.2470  -21.3825   20.0517 C   0  0  0  0  0  0
  -31.4514  -22.3654   20.1499 C   0  0  0  0  0  0
  -28.7881  -22.7699   20.6210 C   0  0  0  0  0  0
  -30.9749  -23.1185   21.2504 C   0  0  0  0  0  0
  -31.1823  -21.4694   17.0123 C   0  0  0  0  0  0
  -33.3684  -23.7246   19.1567 C   0  0  0  0  0  0
  -30.9178  -20.6502   18.2823 C   0  0  0  0  0  0
  -28.9249  -19.6921   20.4208 C   0  0  0  0  0  0
  -32.9384  -22.3971   19.7975 C   0  0  0  0  0  0
  -28.0051  -24.1941   19.9751 C   0  0  0  0  0  0
  -29.9327  -18.1838   20.2466 C   0  0  0  0  0  0
  -29.6649  -23.2997   21.4918 N   0  0  0  0  0  0
  -29.6561  -16.5435   20.4551 N   0  0  0  0  0  0
  -32.0610  -23.9372   22.3169 Cl  0  0  0  0  0  0
  -31.4558  -13.0115   19.2062 H   0  0  0  0  0  0
  -30.4947  -11.9060   20.1394 H   0  0  0  0  0  0
  -29.9198  -11.7515   17.6917 H   0  0  0  0  0  0
  -29.5648  -13.4621   17.6514 H   0  0  0  0  0  0
  -28.0502  -11.2762   19.1023 H   0  0  0  0  0  0
  -27.4174  -12.3267   17.8602 H   0  0  0  0  0  0
  -27.5238  -14.2406   19.3209 H   0  0  0  0  0  0
  -28.8046  -12.5272   21.5058 H   0  0  0  0  0  0
  -28.2716  -14.1840   21.6865 H   0  0  0  0  0  0
  -25.2788   -9.5673   22.4770 H   0  0  0  0  0  0
  -24.0006   -7.4637   22.7481 H   0  0  0  0  0  0
  -21.0853   -8.8815   19.8960 H   0  0  0  0  0  0
  -22.3750  -10.9692   19.6176 H   0  0  0  0  0  0
  -21.2011   -7.6154   23.9725 H   0  0  0  0  0  0
  -21.1475   -6.0527   25.9081 H   0  0  0  0  0  0
  -22.0593   -2.7614   23.2859 H   0  0  0  0  0  0
  -22.4017  -11.9827   22.4860 H   0  0  0  0  0  0
  -21.1038  -13.1206   22.2689 H   0  0  0  0  0  0
  -24.6273  -15.8459   20.5277 H   0  0  0  0  0  0
  -26.2376  -15.6423   20.0598 H   0  0  0  0  0  0
  -26.7379  -32.5107   23.0868 H   0  0  0  0  0  0
  -25.0067  -33.9492   25.0176 H   0  0  0  0  0  0
  -22.7926  -31.2654   21.3459 H   0  0  0  0  0  0
  -23.3771  -35.9507   23.3291 H   0  0  0  0  0  0
  -24.3552  -36.8873   22.2068 H   0  0  0  0  0  0
  -23.7224  -37.6373   23.6724 H   0  0  0  0  0  0
  -26.2301  -31.3678   20.6253 H   0  0  0  0  0  0
  -26.9067  -30.6787   22.0590 H   0  0  0  0  0  0
  -28.1377  -28.5803   21.3045 H   0  0  0  0  0  0
  -25.8821  -25.7334   18.9909 H   0  0  0  0  0  0
  -24.0107  -27.2659   18.9375 H   0  0  0  0  0  0
  -23.8746  -30.5191   19.3871 H   0  0  0  0  0  0
  -22.8293  -29.2029   19.8232 H   0  0  0  0  0  0
  -25.1323  -36.1763   25.0792 H   0  0  0  0  0  0
  -21.0039  -28.3372   24.1303 H   0  0  0  0  0  0
  -20.5685  -26.2372   23.3649 H   0  0  0  0  0  0
  -21.6657  -26.7396   22.1210 H   0  0  0  0  0  0
  -19.6942  -25.6269   21.1273 H   0  0  0  0  0  0
  -19.6733  -27.3154   20.6720 H   0  0  0  0  0  0
  -17.4228  -26.6693   21.4015 H   0  0  0  0  0  0
  -18.0338  -26.0096   22.9025 H   0  0  0  0  0  0
  -19.7988  -30.7294   24.2206 H   0  0  0  0  0  0
  -17.5066  -31.6280   24.5152 H   0  0  0  0  0  0
  -15.5390  -30.2974   23.7704 H   0  0  0  0  0  0
  -15.8706  -28.0803   22.7115 H   0  0  0  0  0  0
  -24.5873  -30.7136   25.7632 H   0  0  0  0  0  0
  -24.8838  -32.3006   26.4623 H   0  0  0  0  0  0
  -25.7874  -30.9055   27.0216 H   0  0  0  0  0  0
  -26.3153  -29.6564   24.1439 H   0  0  0  0  0  0
  -27.3981  -29.7290   25.5115 H   0  0  0  0  0  0
  -27.9089  -30.4099   23.9882 H   0  0  0  0  0  0
  -27.2618  -33.3718   26.1922 H   0  0  0  0  0  0
  -28.3913  -32.6839   25.0361 H   0  0  0  0  0  0
  -28.0640  -31.8596   26.5531 H   0  0  0  0  0  0
  -28.2559  -38.0066   24.7507 H   0  0  0  0  0  0
  -28.1083  -36.2591   24.6304 H   0  0  0  0  0  0
  -27.2283  -37.1390   25.8873 H   0  0  0  0  0  0
  -20.9602  -29.8738   21.6647 H   0  0  0  0  0  0
  -26.0129  -38.2757   24.1444 H   0  0  0  0  0  0
  -31.3732  -20.8131   16.1635 H   0  0  0  0  0  0
  -32.0468  -22.1207   17.1142 H   0  0  0  0  0  0
  -30.3206  -22.0896   16.7627 H   0  0  0  0  0  0
  -34.4234  -23.6950   18.8861 H   0  0  0  0  0  0
  -33.2325  -24.5669   19.8350 H   0  0  0  0  0  0
  -32.7989  -23.9372   18.2523 H   0  0  0  0  0  0
  -30.0898  -19.9873   18.0369 H   0  0  0  0  0  0
  -31.7657  -20.0096   18.5257 H   0  0  0  0  0  0
  -28.0006  -19.4848   19.8810 H   0  0  0  0  0  0
  -28.6171  -19.7124   21.4669 H   0  0  0  0  0  0
  -33.2145  -21.5762   19.1389 H   0  0  0  0  0  0
  -33.5177  -22.2225   20.7048 H   0  0  0  0  0  0
  -26.9465  -24.0002   20.1459 H   0  0  0  0  0  0
  -28.1263  -24.1133   18.8949 H   0  0  0  0  0  0
  -30.8285  -18.3735   20.8385 H   0  0  0  0  0  0
  -30.2921  -18.1895   19.2206 H   0  0  0  0  0  0
  -28.6805  -16.3517   20.6293 H   0  0  0  0  0  0
  1 25  1  0  0  0
  1 30  2  0  0  0
  1 84  1  0  0  0
  2  3  1  0  0  0
  2 25  1  0  0  0
  2 86  1  0  0  0
  2 87  1  0  0  0
  3  4  1  0  0  0
  3 88  1  0  0  0
  3 89  1  0  0  0
  4  5  1  0  0  0
  4 90  1  0  0  0
  4 91  1  0  0  0
  5  6  1  0  0  0
  5 26  1  0  0  0
  5 92  1  0  0  0
  6 25  1  0  0  0
  6 93  1  0  0  0
  6 94  1  0  0  0
  7  8  2  0  0  0
  7 26  1  0  0  0
  7 29  1  0  0  0
  8  9  1  0  0  0
  8 22  1  0  0  0
  9 10  1  0  0  0
  9 27  2  0  0  0
 10 11  2  0  0  0
 10 15  1  0  0  0
 11 12  1  0  0  0
 11 95  1  0  0  0
 12 13  2  0  0  0
 12 96  1  0  0  0
 13 14  1  0  0  0
 13 31  1  0  0  0
 14 15  2  0  0  0
 14 97  1  0  0  0
 15 98  1  0  0  0
 16 17  2  0  0  0
 16 21  1  0  0  0
 16 31  1  0  0  0
 17 18  1  0  0  0
 17 99  1  0  0  0
 18 19  2  0  0  0
 18100  1  0  0  0
 19 20  1  0  0  0
 19 24  1  0  0  0
 20 21  2  0  0  0
 20101  1  0  0  0
 21 23  1  0  0  0
 22 28  1  0  0  0
 22 32  2  0  0  0
 26 27  1  0  0  0
 28102  1  0  0  0
 28103  1  0  0  0
 29104  1  0  0  0
 29105  1  0  0  0
 33 34  1  0  0  0
 33 66  1  0  0  0
 33 70  2  0  0  0
 34 36  1  0  0  0
 34 59  1  0  0  0
 34106  1  0  0  0
 35 44  2  0  0  0
 35 45  1  0  0  0
 35 68  1  0  0  0
 36 56  1  0  0  0
 36107  1  0  0  0
 37 39  1  0  0  0
 37 47  1  0  0  0
 37 66  1  0  0  0
 37108  1  0  0  0
 38 43  2  0  0  0
 38 46  1  0  0  0
 38 47  1  0  0  0
 39 64  1  0  0  0
 39 67  2  0  0  0
 40 52  1  0  0  0
 40 53  2  0  0  0
 40 58  1  0  0  0
 41109  1  0  0  0
 41110  1  0  0  0
 41111  1  0  0  0
 41 48  1  0  0  0
 42 43  1  0  0  0
 42 66  1  0  0  0
 42112  1  0  0  0
 42113  1  0  0  0
 43 44  1  0  0  0
 44114  1  0  0  0
 45 46  2  0  0  0
 45115  1  0  0  0
 46116  1  0  0  0
 47117  1  0  0  0
 47118  1  0  0  0
 48 56  1  0  0  0
 48 65  1  0  0  0
 48119  1  0  0  0
 49 50  1  0  0  0
 49 53  1  0  0  0
 49 64  1  0  0  0
 49120  1  0  0  0
 50 51  1  0  0  0
 50121  1  0  0  0
 50122  1  0  0  0
 51 52  1  0  0  0
 51123  1  0  0  0
 51124  1  0  0  0
 52125  1  0  0  0
 52126  1  0  0  0
 53 54  1  0  0  0
 54 55  2  0  0  0
 54127  1  0  0  0
 55 57  1  0  0  0
 55128  1  0  0  0
 56 69  2  0  0  0
 57 58  2  0  0  0
 57129  1  0  0  0
 58130  1  0  0  0
 59 60  1  0  0  0
 59 61  1  0  0  0
 59 62  1  0  0  0
 60131  1  0  0  0
 60132  1  0  0  0
 60133  1  0  0  0
 61134  1  0  0  0
 61135  1  0  0  0
 61136  1  0  0  0
 62137  1  0  0  0
 62138  1  0  0  0
 62139  1  0  0  0
 63 65  1  0  0  0
 63140  1  0  0  0
 63141  1  0  0  0
 63142  1  0  0  0
 64143  1  0  0  0
 65144  1  0  0  0
 68 81  1  0  0  0
 71 72  2  0  0  0
 71 73  1  0  0  0
 71 78  1  0  0  0
 72 74  1  0  0  0
 72 79  1  0  0  0
 73 75  2  0  0  0
 73 80  1  0  0  0
 74 81  1  0  0  0
 74 83  2  0  0  0
 75 83  1  0  0  0
 75 85  1  0  0  0
 76 78  1  0  0  0
 76145  1  0  0  0
 76146  1  0  0  0
 76147  1  0  0  0
 77 80  1  0  0  0
 77148  1  0  0  0
 77149  1  0  0  0
 77150  1  0  0  0
 78151  1  0  0  0
 78152  1  0  0  0
 79 82  1  0  0  0
 79153  1  0  0  0
 79154  1  0  0  0
 80155  1  0  0  0
 80156  1  0  0  0
 81157  1  0  0  0
 81158  1  0  0  0
 82 84  1  0  0  0
 82159  1  0  0  0
 82160  1  0  0  0
 84161  1  0  0  0
M  ISO  4   1 100  68 101  81 101  84 100
M  END
> <chiral flag>
0

> <version>
0

> <s_m_source_file>
/data/baiqing/PycharmProjects/Reinvent-master-3.2/result/LINK_invent/BTK/process_docking_weight1_custom_sum_contain_oxygen_bond_distance_aromatic_linkinvent_7_9_3/rearranged_h_0027.sdf

> <i_m_source_file_index>
49

> <r_mmod_Potential_Energy-OPLS-2005>
1358.06188964844

> <r_mmod_Stretch_Energy-OPLS-2005>
629.753234863281

> <r_mmod_Bend_Energy-OPLS-2005>
447.295532226562

> <r_mmod_Torsional_Energy-OPLS-2005>
411.061431884766

> <r_mmod_Improper_Torsional_Energy-OPLS-2005>
19.2632827758789

> <r_mmod_Van_der_Waal_Energy-OPLS-2005>
135.453918457031

> <r_mmod_Electrostatic_Energy-OPLS-2005>
-526.6484375

> <r_mmod_Solvation_Energy-OPLS-2005>
-231.449340820312

> <b_mmod_Minimization_Converged-OPLS-2005>
0

> <r_mmod_RMS_Derivative-OPLS-2005>
1.47821259498596

$$$$
49
                    3D
 Structure written by MMmdl.
162170  0  0  1  0            999 V2000
  -30.7033  -14.4123   20.6241 C   0  0  0  0  0  0
  -30.4358  -12.2850   19.4045 C   0  0  0  0  0  0
  -29.4965  -12.5154   18.2007 C   0  0  0  0  0  0
  -28.0183  -12.3718   18.6151 C   0  0  0  0  0  0
  -27.6733  -13.1924   19.8862 C   0  0  2  0  0  0
  -28.7126  -12.9138   20.9987 C   0  0  0  0  0  0
  -25.2638  -13.8120   20.5672 C   0  0  0  0  0  0
  -24.1872  -13.0421   20.9147 C   0  0  0  0  0  0
  -24.6399  -11.6879   20.8712 C   0  0  0  0  0  0
  -23.9054  -10.4279   21.0393 C   0  0  0  0  0  0
  -24.3604   -9.4199   21.9179 C   0  0  0  0  0  0
  -23.6286   -8.2236   22.0755 C   0  0  0  0  0  0
  -22.4265   -8.0272   21.3555 C   0  0  0  0  0  0
  -21.9898   -9.0235   20.4651 C   0  0  0  0  0  0
  -22.7217  -10.2116   20.3054 C   0  0  0  0  0  0
  -21.6852   -6.0730   22.5286 C   0  0  0  0  0  0
  -21.4007   -6.5639   23.8214 C   0  0  0  0  0  0
  -21.3659   -5.6798   24.9183 C   0  0  0  0  0  0
  -21.6049   -4.3062   24.7237 C   0  0  0  0  0  0
  -21.8816   -3.8147   23.4362 C   0  0  0  0  0  0
  -21.9185   -4.6959   22.3412 C   0  0  0  0  0  0
  -22.7891  -13.5232   21.1818 C   0  0  0  0  0  0
  -22.1657   -4.2145   21.0993 F   0  0  0  0  0  0
  -21.5629   -3.4543   25.7751 F   0  0  0  0  0  0
  -30.0558  -13.2275   20.4684 N   0  0  0  0  0  0
  -26.3078  -12.9268   20.3396 N   0  0  0  0  0  0
  -25.9324  -11.6435   20.5755 N   0  0  0  0  0  0
  -22.0519  -12.8242   22.0373 N   0  0  0  0  0  0
  -25.4381  -15.1840   20.4090 N   0  0  0  0  0  0
  -31.7667  -14.6932   20.0625 O   0  0  0  0  0  0
  -21.6635   -6.8870   21.4248 O   0  0  0  0  0  0
  -22.3581  -14.5538   20.6656 O   0  0  0  0  0  0
  -24.6170  -31.8694   23.2120 C   0  0  0  0  0  0
  -25.9062  -32.4822   23.8412 C   0  0  1  0  0  0
  -27.2193  -27.4348   20.0927 C   0  0  0  0  0  0
  -25.5909  -33.8618   24.2337 N   0  0  0  0  0  0
  -23.4040  -30.4987   21.5532 C   0  0  2  0  0  0
  -24.8461  -28.9803   20.1059 C   0  0  0  0  0  0
  -22.7430  -29.4678   22.4985 C   0  0  0  0  0  0
  -18.0275  -28.1376   22.8514 C   0  0  0  0  0  0
  -24.1479  -36.7299   23.2640 C   0  0  0  0  0  0
  -25.9346  -30.8384   21.3667 C   0  0  0  0  0  0
  -26.0095  -29.4778   20.7065 C   0  0  0  0  0  0
  -27.2000  -28.7119   20.7009 C   0  0  0  0  0  0
  -26.0402  -26.9784   19.4513 C   0  0  0  0  0  0
  -24.8560  -27.7291   19.4742 C   0  0  0  0  0  0
  -23.6095  -29.8441   20.1638 C   0  0  0  0  0  0
  -25.4100  -36.3101   24.0344 C   0  0  1  0  0  0
  -20.5878  -28.3667   23.1309 C   0  0  2  0  0  0
  -20.6767  -26.9398   22.5422 C   0  0  0  0  0  0
  -19.5730  -26.6387   21.5229 C   0  0  0  0  0  0
  -18.1910  -26.7920   22.1639 C   0  0  0  0  0  0
  -19.1532  -28.8834   23.2910 C   0  0  0  0  0  0
  -18.9463  -30.1445   23.8913 C   0  0  0  0  0  0
  -17.6463  -30.6583   24.0573 C   0  0  0  0  0  0
  -25.9030  -34.9473   23.5138 C   0  0  0  0  0  0
  -16.5353  -29.9090   23.6323 C   0  0  0  0  0  0
  -16.7265  -28.6507   23.0350 C   0  0  0  0  0  0
  -26.4489  -31.6586   25.0729 C   0  0  0  0  0  0
  -25.3764  -31.3711   26.1490 C   0  0  0  0  0  0
  -27.0314  -30.3021   24.6098 C   0  0  0  0  0  0
  -27.6060  -32.4323   25.7481 C   0  0  0  0  0  0
  -27.5574  -37.1805   24.8475 C   0  0  0  0  0  0
  -21.4155  -29.3034   22.3713 N   0  0  0  0  0  0
  -26.4283  -37.3789   23.9423 N   0  0  0  0  0  0
  -24.6699  -31.0825   22.1016 N   0  0  0  0  0  0
  -23.4200  -28.8208   23.3032 O   0  0  0  0  0  0
  -28.3560  -26.6445   20.1651 O   0  0  0  0  0  0
  -26.5594  -34.8938   22.4697 O   0  0  0  0  0  0
  -23.5360  -32.1441   23.7518 O   0  0  0  0  0  0
  -30.5091  -19.6971   20.3849 C   0  0  0  0  0  0
  -29.9179  -20.9515   20.1386 C   0  0  0  0  0  0
  -30.4844  -19.1180   21.6681 C   0  0  0  0  0  0
  -29.3112  -21.6703   21.1991 C   0  0  0  0  0  0
  -29.3949  -21.1546   22.5223 C   0  0  0  0  0  0
  -29.9607  -19.8699   22.7502 C   0  0  0  0  0  0
  -29.8813  -21.4560   18.7050 C   0  0  0  0  0  0
  -28.8038  -21.9372   23.6930 C   0  0  0  0  0  0
  -30.9155  -17.6536   21.8065 C   0  0  0  0  0  0
  -28.4244  -22.8802   20.8805 C   0  0  0  0  0  0
  -29.0870  -24.2793   20.8012 C   0  0  0  0  0  0
  -29.9469  -16.7500   21.0140 C   0  0  0  0  0  0
  -28.0974  -25.2305   20.0977 C   0  0  0  0  0  0
  -30.0140  -15.3219   21.3233 N   0  0  0  0  0  0
  -29.9292  -19.1897   24.3448 Cl  0  0  0  0  0  0
  -31.4783  -12.3992   19.0996 H   0  0  0  0  0  0
  -30.3433  -11.2582   19.7631 H   0  0  0  0  0  0
  -29.7264  -11.8070   17.4030 H   0  0  0  0  0  0
  -29.6694  -13.5088   17.7835 H   0  0  0  0  0  0
  -27.8252  -11.3135   18.7959 H   0  0  0  0  0  0
  -27.3663  -12.6584   17.7893 H   0  0  0  0  0  0
  -27.7352  -14.2474   19.6180 H   0  0  0  0  0  0
  -28.6799  -11.8593   21.2776 H   0  0  0  0  0  0
  -28.4657  -13.4521   21.9152 H   0  0  0  0  0  0
  -25.2746   -9.5679   22.4750 H   0  0  0  0  0  0
  -23.9991   -7.4635   22.7478 H   0  0  0  0  0  0
  -21.0825   -8.8747   19.8966 H   0  0  0  0  0  0
  -22.3667  -10.9649   19.6167 H   0  0  0  0  0  0
  -21.1997   -7.6145   23.9720 H   0  0  0  0  0  0
  -21.1486   -6.0530   25.9087 H   0  0  0  0  0  0
  -22.0593   -2.7607   23.2867 H   0  0  0  0  0  0
  -22.4113  -11.9915   22.4794 H   0  0  0  0  0  0
  -21.1133  -13.1286   22.2545 H   0  0  0  0  0  0
  -24.6717  -15.8393   20.5185 H   0  0  0  0  0  0
  -26.2968  -15.6237   20.1023 H   0  0  0  0  0  0
  -26.7148  -32.5563   23.1196 H   0  0  0  0  0  0
  -25.0080  -33.9767   25.0497 H   0  0  0  0  0  0
  -22.6932  -31.3168   21.4188 H   0  0  0  0  0  0
  -23.3732  -35.9640   23.3318 H   0  0  0  0  0  0
  -24.3576  -36.8892   22.2051 H   0  0  0  0  0  0
  -23.7242  -37.6520   23.6632 H   0  0  0  0  0  0
  -26.0528  -31.6080   20.6021 H   0  0  0  0  0  0
  -26.8189  -30.8841   21.9904 H   0  0  0  0  0  0
  -28.0903  -29.0846   21.1885 H   0  0  0  0  0  0
  -26.0016  -26.0307   18.9351 H   0  0  0  0  0  0
  -23.9654  -27.3426   18.9978 H   0  0  0  0  0  0
  -23.7218  -30.6221   19.4080 H   0  0  0  0  0  0
  -22.7326  -29.2659   19.8678 H   0  0  0  0  0  0
  -25.1268  -36.1963   25.0833 H   0  0  0  0  0  0
  -20.9982  -28.3238   24.1424 H   0  0  0  0  0  0
  -20.5676  -26.2281   23.3622 H   0  0  0  0  0  0
  -21.6636  -26.7440   22.1207 H   0  0  0  0  0  0
  -19.6887  -25.6310   21.1231 H   0  0  0  0  0  0
  -19.6648  -27.3224   20.6783 H   0  0  0  0  0  0
  -17.4187  -26.6700   21.4026 H   0  0  0  0  0  0
  -18.0279  -26.0042   22.9014 H   0  0  0  0  0  0
  -19.7947  -30.7262   24.2275 H   0  0  0  0  0  0
  -17.5023  -31.6263   24.5178 H   0  0  0  0  0  0
  -15.5355  -30.3001   23.7628 H   0  0  0  0  0  0
  -15.8673  -28.0839   22.7037 H   0  0  0  0  0  0
  -24.5917  -30.7062   25.7859 H   0  0  0  0  0  0
  -24.8978  -32.2876   26.4948 H   0  0  0  0  0  0
  -25.8127  -30.8889   27.0244 H   0  0  0  0  0  0
  -26.2857  -29.6786   24.1144 H   0  0  0  0  0  0
  -27.4075  -29.7255   25.4560 H   0  0  0  0  0  0
  -27.8696  -30.4327   23.9248 H   0  0  0  0  0  0
  -27.2652  -33.3618   26.2064 H   0  0  0  0  0  0
  -28.3846  -32.6902   25.0283 H   0  0  0  0  0  0
  -28.0742  -31.8448   26.5390 H   0  0  0  0  0  0
  -28.2608  -38.0086   24.7504 H   0  0  0  0  0  0
  -28.1041  -36.2615   24.6293 H   0  0  0  0  0  0
  -27.2302  -37.1483   25.8884 H   0  0  0  0  0  0
  -20.9297  -29.8770   21.6963 H   0  0  0  0  0  0
  -26.0163  -38.2867   24.1417 H   0  0  0  0  0  0
  -30.9166  -19.1312   19.5583 H   0  0  0  0  0  0
  -28.9112  -21.2484   18.2513 H   0  0  0  0  0  0
  -30.6475  -20.9683   18.1009 H   0  0  0  0  0  0
  -30.0620  -22.5289   18.6512 H   0  0  0  0  0  0
  -29.3500  -21.7624   24.6195 H   0  0  0  0  0  0
  -27.7626  -21.6525   23.8487 H   0  0  0  0  0  0
  -28.8442  -23.0132   23.5280 H   0  0  0  0  0  0
  -30.9498  -17.3354   22.8466 H   0  0  0  0  0  0
  -31.9330  -17.5396   21.4280 H   0  0  0  0  0  0
  -27.5961  -22.9206   21.5891 H   0  0  0  0  0  0
  -27.9192  -22.6641   19.9381 H   0  0  0  0  0  0
  -29.3261  -24.6347   21.8041 H   0  0  0  0  0  0
  -30.0202  -24.2442   20.2412 H   0  0  0  0  0  0
  -30.0739  -16.9076   19.9404 H   0  0  0  0  0  0
  -28.9207  -17.0525   21.2327 H   0  0  0  0  0  0
  -28.0222  -24.9443   19.0465 H   0  0  0  0  0  0
  -27.1320  -25.0174   20.5656 H   0  0  0  0  0  0
  -29.2166  -14.9502   21.8194 H   0  0  0  0  0  0
  1 25  1  0  0  0
  1 30  2  0  0  0
  1 84  1  0  0  0
  2  3  1  0  0  0
  2 25  1  0  0  0
  2 86  1  0  0  0
  2 87  1  0  0  0
  3  4  1  0  0  0
  3 88  1  0  0  0
  3 89  1  0  0  0
  4  5  1  0  0  0
  4 90  1  0  0  0
  4 91  1  0  0  0
  5  6  1  0  0  0
  5 26  1  0  0  0
  5 92  1  0  0  0
  6 25  1  0  0  0
  6 93  1  0  0  0
  6 94  1  0  0  0
  7  8  2  0  0  0
  7 26  1  0  0  0
  7 29  1  0  0  0
  8  9  1  0  0  0
  8 22  1  0  0  0
  9 10  1  0  0  0
  9 27  2  0  0  0
 10 11  2  0  0  0
 10 15  1  0  0  0
 11 12  1  0  0  0
 11 95  1  0  0  0
 12 13  2  0  0  0
 12 96  1  0  0  0
 13 14  1  0  0  0
 13 31  1  0  0  0
 14 15  2  0  0  0
 14 97  1  0  0  0
 15 98  1  0  0  0
 16 17  2  0  0  0
 16 21  1  0  0  0
 16 31  1  0  0  0
 17 18  1  0  0  0
 17 99  1  0  0  0
 18 19  2  0  0  0
 18100  1  0  0  0
 19 20  1  0  0  0
 19 24  1  0  0  0
 20 21  2  0  0  0
 20101  1  0  0  0
 21 23  1  0  0  0
 22 28  1  0  0  0
 22 32  2  0  0  0
 26 27  1  0  0  0
 28102  1  0  0  0
 28103  1  0  0  0
 29104  1  0  0  0
 29105  1  0  0  0
 33 34  1  0  0  0
 33 66  1  0  0  0
 33 70  2  0  0  0
 34 36  1  0  0  0
 34 59  1  0  0  0
 34106  1  0  0  0
 35 44  2  0  0  0
 35 45  1  0  0  0
 35 68  1  0  0  0
 36 56  1  0  0  0
 36107  1  0  0  0
 37 39  1  0  0  0
 37 47  1  0  0  0
 37 66  1  0  0  0
 37108  1  0  0  0
 38 43  2  0  0  0
 38 46  1  0  0  0
 38 47  1  0  0  0
 39 64  1  0  0  0
 39 67  2  0  0  0
 40 52  1  0  0  0
 40 53  2  0  0  0
 40 58  1  0  0  0
 41109  1  0  0  0
 41110  1  0  0  0
 41111  1  0  0  0
 41 48  1  0  0  0
 42 43  1  0  0  0
 42 66  1  0  0  0
 42112  1  0  0  0
 42113  1  0  0  0
 43 44  1  0  0  0
 44114  1  0  0  0
 45 46  2  0  0  0
 45115  1  0  0  0
 46116  1  0  0  0
 47117  1  0  0  0
 47118  1  0  0  0
 48 56  1  0  0  0
 48 65  1  0  0  0
 48119  1  0  0  0
 49 50  1  0  0  0
 49 53  1  0  0  0
 49 64  1  0  0  0
 49120  1  0  0  0
 50 51  1  0  0  0
 50121  1  0  0  0
 50122  1  0  0  0
 51 52  1  0  0  0
 51123  1  0  0  0
 51124  1  0  0  0
 52125  1  0  0  0
 52126  1  0  0  0
 53 54  1  0  0  0
 54 55  2  0  0  0
 54127  1  0  0  0
 55 57  1  0  0  0
 55128  1  0  0  0
 56 69  2  0  0  0
 57 58  2  0  0  0
 57129  1  0  0  0
 58130  1  0  0  0
 59 60  1  0  0  0
 59 61  1  0  0  0
 59 62  1  0  0  0
 60131  1  0  0  0
 60132  1  0  0  0
 60133  1  0  0  0
 61134  1  0  0  0
 61135  1  0  0  0
 61136  1  0  0  0
 62137  1  0  0  0
 62138  1  0  0  0
 62139  1  0  0  0
 63 65  1  0  0  0
 63140  1  0  0  0
 63141  1  0  0  0
 63142  1  0  0  0
 64143  1  0  0  0
 65144  1  0  0  0
 68 83  1  0  0  0
 71 72  2  0  0  0
 71 73  1  0  0  0
 71145  1  0  0  0
 72 74  1  0  0  0
 72 77  1  0  0  0
 73 76  2  0  0  0
 73 79  1  0  0  0
 74 75  2  0  0  0
 74 80  1  0  0  0
 75 76  1  0  0  0
 75 78  1  0  0  0
 76 85  1  0  0  0
 77146  1  0  0  0
 77147  1  0  0  0
 77148  1  0  0  0
 78149  1  0  0  0
 78150  1  0  0  0
 78151  1  0  0  0
 79 82  1  0  0  0
 79152  1  0  0  0
 79153  1  0  0  0
 80 81  1  0  0  0
 80154  1  0  0  0
 80155  1  0  0  0
 81 83  1  0  0  0
 81156  1  0  0  0
 81157  1  0  0  0
 82 84  1  0  0  0
 82158  1  0  0  0
 82159  1  0  0  0
 83160  1  0  0  0
 83161  1  0  0  0
 84162  1  0  0  0
M  ISO  4   1 100  68 101  83 101  84 100
M  END
> <chiral flag>
0

> <version>
0

> <s_m_source_file>
/data/baiqing/PycharmProjects/Reinvent-master-3.2/result/LINK_invent/BTK/process_docking_weight1_custom_sum_contain_oxygen_bond_distance_aromatic_linkinvent_7_9_3/rearranged_h_0027.sdf

> <i_m_source_file_index>
50

> <r_mmod_Potential_Energy-OPLS-2005>
-57.0541534423828

> <r_mmod_Stretch_Energy-OPLS-2005>
38.3630485534668

> <r_mmod_Bend_Energy-OPLS-2005>
100.571975708008

> <r_mmod_Torsional_Energy-OPLS-2005>
219.604507446289

> <r_mmod_Improper_Torsional_Energy-OPLS-2005>
6.6039137840271

> <r_mmod_Van_der_Waal_Energy-OPLS-2005>
174.325057983398

> <r_mmod_Electrostatic_Energy-OPLS-2005>
-405.353454589844

> <r_mmod_Solvation_Energy-OPLS-2005>
-204.114227294922

> <b_mmod_Minimization_Converged-OPLS-2005>
0

> <r_mmod_RMS_Derivative-OPLS-2005>
2.44937133789062

$$$$
50
                    3D
 Structure written by MMmdl.
165173  0  0  1  0            999 V2000
  -30.6700  -14.5379   20.5546 C   0  0  0  0  0  0
  -30.4307  -12.3477   19.4224 C   0  0  0  0  0  0
  -29.4942  -12.5060   18.2055 C   0  0  0  0  0  0
  -28.0172  -12.3556   18.6222 C   0  0  0  0  0  0
  -27.6560  -13.2087   19.8670 C   0  0  2  0  0  0
  -28.7017  -13.0180   20.9880 C   0  0  0  0  0  0
  -25.2573  -13.8151   20.5696 C   0  0  0  0  0  0
  -24.1826  -13.0426   20.9177 C   0  0  0  0  0  0
  -24.6387  -11.6898   20.8727 C   0  0  0  0  0  0
  -23.9057  -10.4287   21.0403 C   0  0  0  0  0  0
  -24.3613   -9.4206   21.9182 C   0  0  0  0  0  0
  -23.6290   -8.2238   22.0753 C   0  0  0  0  0  0
  -22.4270   -8.0276   21.3543 C   0  0  0  0  0  0
  -21.9905   -9.0248   20.4645 C   0  0  0  0  0  0
  -22.7230  -10.2129   20.3053 C   0  0  0  0  0  0
  -21.6852   -6.0732   22.5280 C   0  0  0  0  0  0
  -21.4012   -6.5639   23.8211 C   0  0  0  0  0  0
  -21.3659   -5.6793   24.9174 C   0  0  0  0  0  0
  -21.6042   -4.3055   24.7227 C   0  0  0  0  0  0
  -21.8820   -3.8147   23.4348 C   0  0  0  0  0  0
  -21.9192   -4.6962   22.3403 C   0  0  0  0  0  0
  -22.7852  -13.5224   21.1847 C   0  0  0  0  0  0
  -22.1661   -4.2148   21.0980 F   0  0  0  0  0  0
  -21.5630   -3.4539   25.7740 F   0  0  0  0  0  0
  -30.0232  -13.3437   20.4270 N   0  0  0  0  0  0
  -26.3001  -12.9326   20.3341 N   0  0  0  0  0  0
  -25.9314  -11.6486   20.5755 N   0  0  0  0  0  0
  -22.0500  -12.8214   22.0407 N   0  0  0  0  0  0
  -25.4290  -15.1869   20.4170 N   0  0  0  0  0  0
  -31.8166  -14.7213   20.1385 O   0  0  0  0  0  0
  -21.6635   -6.8873   21.4241 O   0  0  0  0  0  0
  -22.3534  -14.5533   20.6702 O   0  0  0  0  0  0
  -24.6182  -31.8643   23.2058 C   0  0  0  0  0  0
  -25.9055  -32.4802   23.8368 C   0  0  1  0  0  0
  -27.2352  -27.3951   20.1097 C   0  0  0  0  0  0
  -25.5897  -33.8600   24.2297 N   0  0  0  0  0  0
  -23.4089  -30.4854   21.5475 C   0  0  2  0  0  0
  -24.8573  -28.9426   20.1162 C   0  0  0  0  0  0
  -22.7432  -29.4633   22.4980 C   0  0  0  0  0  0
  -18.0276  -28.1370   22.8491 C   0  0  0  0  0  0
  -24.1489  -36.7314   23.2637 C   0  0  0  0  0  0
  -25.9404  -30.8187   21.3634 C   0  0  0  0  0  0
  -26.0202  -29.4492   20.7117 C   0  0  0  0  0  0
  -27.2153  -28.6856   20.6987 C   0  0  0  0  0  0
  -26.0550  -26.9091   19.5104 C   0  0  0  0  0  0
  -24.8709  -27.6733   19.5113 C   0  0  0  0  0  0
  -23.6202  -29.8140   20.1639 C   0  0  0  0  0  0
  -25.4110  -36.3102   24.0334 C   0  0  1  0  0  0
  -20.5868  -28.3663   23.1311 C   0  0  2  0  0  0
  -20.6769  -26.9397   22.5418 C   0  0  0  0  0  0
  -19.5750  -26.6378   21.5211 C   0  0  0  0  0  0
  -18.1923  -26.7916   22.1617 C   0  0  0  0  0  0
  -19.1525  -28.8831   23.2893 C   0  0  0  0  0  0
  -18.9457  -30.1436   23.8906 C   0  0  0  0  0  0
  -17.6461  -30.6582   24.0560 C   0  0  0  0  0  0
  -25.9043  -34.9467   23.5118 C   0  0  0  0  0  0
  -16.5350  -29.9085   23.6325 C   0  0  0  0  0  0
  -16.7265  -28.6497   23.0352 C   0  0  0  0  0  0
  -26.4470  -31.6597   25.0711 C   0  0  0  0  0  0
  -25.3732  -31.3712   26.1461 C   0  0  0  0  0  0
  -27.0304  -30.3038   24.6100 C   0  0  0  0  0  0
  -27.6034  -32.4324   25.7482 C   0  0  0  0  0  0
  -27.5585  -37.1801   24.8457 C   0  0  0  0  0  0
  -21.4155  -29.3025   22.3716 N   0  0  0  0  0  0
  -26.4291  -37.3793   23.9413 N   0  0  0  0  0  0
  -24.6744  -31.0710   22.0972 N   0  0  0  0  0  0
  -23.4185  -28.8186   23.3045 O   0  0  0  0  0  0
  -28.3806  -26.6163   20.0971 O   0  0  0  0  0  0
  -26.5614  -34.8925   22.4688 O   0  0  0  0  0  0
  -23.5366  -32.1407   23.7432 O   0  0  0  0  0  0
  -29.4775  -20.3420   20.4409 C   0  0  0  0  0  0
  -28.4985  -21.3630   20.2535 C   0  0  0  0  0  0
  -29.3160  -19.0170   19.9353 C   0  0  0  0  0  0
  -27.3118  -21.0225   19.5503 C   0  0  0  0  0  0
  -28.1493  -18.7236   19.1812 C   0  0  0  0  0  0
  -27.1627  -19.7269   18.9899 C   0  0  0  0  0  0
  -26.1653  -22.0201   19.4014 C   0  0  0  0  0  0
  -28.4918  -17.2400   17.1306 C   0  0  0  0  0  0
  -28.6795  -22.7595   20.9132 C   0  0  0  0  0  0
  -30.4363  -17.9584   20.1243 C   0  0  0  0  0  0
  -27.9483  -17.3389   18.5620 C   0  0  0  0  0  0
  -28.6573  -24.0552   20.0175 C   0  0  0  0  0  0
  -30.3189  -16.9592   21.3269 C   0  0  0  0  0  0
  -28.3071  -25.3570   20.8169 C   0  0  0  0  0  0
  -29.9209  -15.5580   21.0347 N   0  0  0  0  0  0
  -25.7486  -19.3722   18.0473 Cl  0  0  0  0  0  0
  -31.4712  -12.4686   19.1161 H   0  0  0  0  0  0
  -30.3564  -11.3419   19.8383 H   0  0  0  0  0  0
  -29.7413  -11.7672   17.4419 H   0  0  0  0  0  0
  -29.6472  -13.4838   17.7459 H   0  0  0  0  0  0
  -27.8401  -11.3005   18.8346 H   0  0  0  0  0  0
  -27.3621  -12.6105   17.7881 H   0  0  0  0  0  0
  -27.6880  -14.2507   19.5500 H   0  0  0  0  0  0
  -28.6961  -11.9862   21.3418 H   0  0  0  0  0  0
  -28.4582  -13.6271   21.8599 H   0  0  0  0  0  0
  -25.2760   -9.5680   22.4754 H   0  0  0  0  0  0
  -24.0000   -7.4630   22.7474 H   0  0  0  0  0  0
  -21.0834   -8.8765   19.8952 H   0  0  0  0  0  0
  -22.3688  -10.9668   19.6163 H   0  0  0  0  0  0
  -21.2002   -7.6146   23.9714 H   0  0  0  0  0  0
  -21.1479   -6.0523   25.9076 H   0  0  0  0  0  0
  -22.0600   -2.7610   23.2849 H   0  0  0  0  0  0
  -22.4120  -11.9872   22.4788 H   0  0  0  0  0  0
  -21.1121  -13.1238   22.2628 H   0  0  0  0  0  0
  -24.6630  -15.8405   20.5345 H   0  0  0  0  0  0
  -26.2874  -15.6316   20.1240 H   0  0  0  0  0  0
  -26.7126  -32.5511   23.1130 H   0  0  0  0  0  0
  -25.0028  -33.9750   25.0426 H   0  0  0  0  0  0
  -22.6990  -31.3027   21.4041 H   0  0  0  0  0  0
  -23.3751  -35.9647   23.3297 H   0  0  0  0  0  0
  -24.3581  -36.8941   22.2052 H   0  0  0  0  0  0
  -23.7242  -37.6515   23.6666 H   0  0  0  0  0  0
  -26.0553  -31.5831   20.5935 H   0  0  0  0  0  0
  -26.8262  -30.8730   21.9849 H   0  0  0  0  0  0
  -28.1134  -29.0725   21.1592 H   0  0  0  0  0  0
  -26.0523  -25.9335   19.0447 H   0  0  0  0  0  0
  -23.9774  -27.2761   19.0480 H   0  0  0  0  0  0
  -23.7309  -30.5873   19.4027 H   0  0  0  0  0  0
  -22.7430  -29.2356   19.8686 H   0  0  0  0  0  0
  -25.1283  -36.1962   25.0827 H   0  0  0  0  0  0
  -20.9943  -28.3240   24.1438 H   0  0  0  0  0  0
  -20.5672  -26.2271   23.3610 H   0  0  0  0  0  0
  -21.6638  -26.7444   22.1205 H   0  0  0  0  0  0
  -19.6919  -25.6292   21.1235 H   0  0  0  0  0  0
  -19.6697  -27.3195   20.6748 H   0  0  0  0  0  0
  -17.4194  -26.6661   21.4020 H   0  0  0  0  0  0
  -18.0325  -26.0052   22.9008 H   0  0  0  0  0  0
  -19.7937  -30.7235   24.2289 H   0  0  0  0  0  0
  -17.5025  -31.6268   24.5153 H   0  0  0  0  0  0
  -15.5350  -30.2991   23.7652 H   0  0  0  0  0  0
  -15.8662  -28.0822   22.7069 H   0  0  0  0  0  0
  -24.5900  -30.7061   25.7807 H   0  0  0  0  0  0
  -24.8920  -32.2865   26.4917 H   0  0  0  0  0  0
  -25.8075  -30.8881   27.0220 H   0  0  0  0  0  0
  -26.2849  -29.6800   24.1151 H   0  0  0  0  0  0
  -27.4070  -29.7277   25.4562 H   0  0  0  0  0  0
  -27.8690  -30.4357   23.9256 H   0  0  0  0  0  0
  -27.2644  -33.3620   26.2075 H   0  0  0  0  0  0
  -28.3841  -32.6898   25.0308 H   0  0  0  0  0  0
  -28.0710  -31.8439   26.5389 H   0  0  0  0  0  0
  -28.2582  -38.0118   24.7537 H   0  0  0  0  0  0
  -28.1098  -36.2649   24.6241 H   0  0  0  0  0  0
  -27.2303  -37.1405   25.8857 H   0  0  0  0  0  0
  -20.9325  -29.8760   21.6944 H   0  0  0  0  0  0
  -26.0180  -38.2869   24.1429 H   0  0  0  0  0  0
  -30.3745  -20.5773   20.9983 H   0  0  0  0  0  0
  -26.1714  -22.7967   20.1628 H   0  0  0  0  0  0
  -25.1983  -21.5280   19.5022 H   0  0  0  0  0  0
  -26.2011  -22.4961   18.4214 H   0  0  0  0  0  0
  -28.3344  -16.2401   16.7259 H   0  0  0  0  0  0
  -29.5610  -17.4464   17.0915 H   0  0  0  0  0  0
  -27.9921  -17.9474   16.4685 H   0  0  0  0  0  0
  -29.6072  -22.7595   21.4864 H   0  0  0  0  0  0
  -27.8979  -22.8412   21.6691 H   0  0  0  0  0  0
  -31.3588  -18.5233   20.2664 H   0  0  0  0  0  0
  -30.6116  -17.4164   19.1956 H   0  0  0  0  0  0
  -26.8928  -17.0696   18.5710 H   0  0  0  0  0  0
  -28.4159  -16.5766   19.1768 H   0  0  0  0  0  0
  -27.9362  -23.9615   19.2088 H   0  0  0  0  0  0
  -29.6249  -24.1648   19.5277 H   0  0  0  0  0  0
  -29.6519  -17.3699   22.0852 H   0  0  0  0  0  0
  -31.2949  -16.9033   21.8127 H   0  0  0  0  0  0
  -29.0051  -25.4415   21.6508 H   0  0  0  0  0  0
  -27.3273  -25.2314   21.2817 H   0  0  0  0  0  0
  -28.9832  -15.3043   21.3081 H   0  0  0  0  0  0
  1 25  1  0  0  0
  1 30  2  0  0  0
  1 85  1  0  0  0
  2  3  1  0  0  0
  2 25  1  0  0  0
  2 87  1  0  0  0
  2 88  1  0  0  0
  3  4  1  0  0  0
  3 89  1  0  0  0
  3 90  1  0  0  0
  4  5  1  0  0  0
  4 91  1  0  0  0
  4 92  1  0  0  0
  5  6  1  0  0  0
  5 26  1  0  0  0
  5 93  1  0  0  0
  6 25  1  0  0  0
  6 94  1  0  0  0
  6 95  1  0  0  0
  7  8  2  0  0  0
  7 26  1  0  0  0
  7 29  1  0  0  0
  8  9  1  0  0  0
  8 22  1  0  0  0
  9 10  1  0  0  0
  9 27  2  0  0  0
 10 11  2  0  0  0
 10 15  1  0  0  0
 11 12  1  0  0  0
 11 96  1  0  0  0
 12 13  2  0  0  0
 12 97  1  0  0  0
 13 14  1  0  0  0
 13 31  1  0  0  0
 14 15  2  0  0  0
 14 98  1  0  0  0
 15 99  1  0  0  0
 16 17  2  0  0  0
 16 21  1  0  0  0
 16 31  1  0  0  0
 17 18  1  0  0  0
 17100  1  0  0  0
 18 19  2  0  0  0
 18101  1  0  0  0
 19 20  1  0  0  0
 19 24  1  0  0  0
 20 21  2  0  0  0
 20102  1  0  0  0
 21 23  1  0  0  0
 22 28  1  0  0  0
 22 32  2  0  0  0
 26 27  1  0  0  0
 28103  1  0  0  0
 28104  1  0  0  0
 29105  1  0  0  0
 29106  1  0  0  0
 33 34  1  0  0  0
 33 66  1  0  0  0
 33 70  2  0  0  0
 34 36  1  0  0  0
 34 59  1  0  0  0
 34107  1  0  0  0
 35 44  2  0  0  0
 35 45  1  0  0  0
 35 68  1  0  0  0
 36 56  1  0  0  0
 36108  1  0  0  0
 37 39  1  0  0  0
 37 47  1  0  0  0
 37 66  1  0  0  0
 37109  1  0  0  0
 38 43  2  0  0  0
 38 46  1  0  0  0
 38 47  1  0  0  0
 39 64  1  0  0  0
 39 67  2  0  0  0
 40 52  1  0  0  0
 40 53  2  0  0  0
 40 58  1  0  0  0
 41110  1  0  0  0
 41111  1  0  0  0
 41112  1  0  0  0
 41 48  1  0  0  0
 42 43  1  0  0  0
 42 66  1  0  0  0
 42113  1  0  0  0
 42114  1  0  0  0
 43 44  1  0  0  0
 44115  1  0  0  0
 45 46  2  0  0  0
 45116  1  0  0  0
 46117  1  0  0  0
 47118  1  0  0  0
 47119  1  0  0  0
 48 56  1  0  0  0
 48 65  1  0  0  0
 48120  1  0  0  0
 49 50  1  0  0  0
 49 53  1  0  0  0
 49 64  1  0  0  0
 49121  1  0  0  0
 50 51  1  0  0  0
 50122  1  0  0  0
 50123  1  0  0  0
 51 52  1  0  0  0
 51124  1  0  0  0
 51125  1  0  0  0
 52126  1  0  0  0
 52127  1  0  0  0
 53 54  1  0  0  0
 54 55  2  0  0  0
 54128  1  0  0  0
 55 57  1  0  0  0
 55129  1  0  0  0
 56 69  2  0  0  0
 57 58  2  0  0  0
 57130  1  0  0  0
 58131  1  0  0  0
 59 60  1  0  0  0
 59 61  1  0  0  0
 59 62  1  0  0  0
 60132  1  0  0  0
 60133  1  0  0  0
 60134  1  0  0  0
 61135  1  0  0  0
 61136  1  0  0  0
 61137  1  0  0  0
 62138  1  0  0  0
 62139  1  0  0  0
 62140  1  0  0  0
 63 65  1  0  0  0
 63141  1  0  0  0
 63142  1  0  0  0
 63143  1  0  0  0
 64144  1  0  0  0
 65145  1  0  0  0
 68 84  1  0  0  0
 71 72  2  0  0  0
 71 73  1  0  0  0
 71146  1  0  0  0
 72 74  1  0  0  0
 72 79  1  0  0  0
 73 75  2  0  0  0
 73 80  1  0  0  0
 74 76  2  0  0  0
 74 77  1  0  0  0
 75 76  1  0  0  0
 75 81  1  0  0  0
 76 86  1  0  0  0
 77147  1  0  0  0
 77148  1  0  0  0
 77149  1  0  0  0
 78 81  1  0  0  0
 78150  1  0  0  0
 78151  1  0  0  0
 78152  1  0  0  0
 79 82  1  0  0  0
 79153  1  0  0  0
 79154  1  0  0  0
 80 83  1  0  0  0
 80155  1  0  0  0
 80156  1  0  0  0
 81157  1  0  0  0
 81158  1  0  0  0
 82 84  1  0  0  0
 82159  1  0  0  0
 82160  1  0  0  0
 83 85  1  0  0  0
 83161  1  0  0  0
 83162  1  0  0  0
 84163  1  0  0  0
 84164  1  0  0  0
 85165  1  0  0  0
M  ISO  4   1 100  68 101  84 101  85 100
M  END
> <chiral flag>
0

> <version>
0

> <s_m_source_file>
/data/baiqing/PycharmProjects/Reinvent-master-3.2/result/LINK_invent/BTK/process_docking_weight1_custom_sum_contain_oxygen_bond_distance_aromatic_linkinvent_7_9_3/rearranged_h_0027.sdf

> <i_m_source_file_index>
51

> <r_mmod_Potential_Energy-OPLS-2005>
-14.6672945022583

> <r_mmod_Stretch_Energy-OPLS-2005>
54.2925796508789

> <r_mmod_Bend_Energy-OPLS-2005>
112.443878173828

> <r_mmod_Torsional_Energy-OPLS-2005>
237.072677612305

> <r_mmod_Improper_Torsional_Energy-OPLS-2005>
3.64860773086548

> <r_mmod_Van_der_Waal_Energy-OPLS-2005>
143.33479309082

> <r_mmod_Electrostatic_Energy-OPLS-2005>
-387.478179931641

> <r_mmod_Solvation_Energy-OPLS-2005>
-199.31916809082

> <b_mmod_Minimization_Converged-OPLS-2005>
0

> <r_mmod_RMS_Derivative-OPLS-2005>
0.879590213298798

$$$$
51
                    3D
 Structure written by MMmdl.
150158  0  0  1  0            999 V2000
  -30.5862  -14.8909   20.4480 C   0  0  0  0  0  0
  -30.4361  -12.5754   19.4481 C   0  0  0  0  0  0
  -29.4882  -12.4926   18.2236 C   0  0  0  0  0  0
  -28.0372  -12.2695   18.6739 C   0  0  0  0  0  0
  -27.6198  -13.2346   19.8119 C   0  0  2  0  0  0
  -28.6748  -13.2932   20.9403 C   0  0  0  0  0  0
  -25.2491  -13.8256   20.5773 C   0  0  0  0  0  0
  -24.1784  -13.0452   20.9224 C   0  0  0  0  0  0
  -24.6350  -11.6954   20.8780 C   0  0  0  0  0  0
  -23.9053  -10.4300   21.0425 C   0  0  0  0  0  0
  -24.3589   -9.4217   21.9196 C   0  0  0  0  0  0
  -23.6274   -8.2251   22.0778 C   0  0  0  0  0  0
  -22.4283   -8.0272   21.3567 C   0  0  0  0  0  0
  -21.9875   -9.0260   20.4677 C   0  0  0  0  0  0
  -22.7205  -10.2135   20.3073 C   0  0  0  0  0  0
  -21.6821   -6.0708   22.5290 C   0  0  0  0  0  0
  -21.4034   -6.5639   23.8220 C   0  0  0  0  0  0
  -21.3634   -5.6790   24.9172 C   0  0  0  0  0  0
  -21.6069   -4.3064   24.7230 C   0  0  0  0  0  0
  -21.8796   -3.8133   23.4352 C   0  0  0  0  0  0
  -21.9216   -4.6947   22.3400 C   0  0  0  0  0  0
  -22.7774  -13.5231   21.1871 C   0  0  0  0  0  0
  -22.1669   -4.2141   21.0965 F   0  0  0  0  0  0
  -21.5624   -3.4530   25.7729 F   0  0  0  0  0  0
  -29.9490  -13.6673   20.3316 N   0  0  0  0  0  0
  -26.2855  -12.9409   20.3192 N   0  0  0  0  0  0
  -25.9286  -11.6603   20.5781 N   0  0  0  0  0  0
  -22.0415  -12.8267   22.0429 N   0  0  0  0  0  0
  -25.4190  -15.1926   20.4278 N   0  0  0  0  0  0
  -31.8065  -14.9282   20.2683 O   0  0  0  0  0  0
  -21.6644   -6.8864   21.4264 O   0  0  0  0  0  0
  -22.3483  -14.5530   20.6678 O   0  0  0  0  0  0
  -24.6442  -31.8464   23.1899 C   0  0  0  0  0  0
  -25.9226  -32.4725   23.8299 C   0  0  1  0  0  0
  -27.2460  -27.1847   20.2006 C   0  0  0  0  0  0
  -25.6005  -33.8524   24.2266 N   0  0  0  0  0  0
  -23.4445  -30.4670   21.5330 C   0  0  2  0  0  0
  -24.9017  -28.8904   20.1257 C   0  0  0  0  0  0
  -22.7540  -29.4615   22.4929 C   0  0  0  0  0  0
  -18.0299  -28.1391   22.8502 C   0  0  0  0  0  0
  -24.1471  -36.7212   23.2635 C   0  0  0  0  0  0
  -25.9916  -30.7488   21.3696 C   0  0  0  0  0  0
  -26.0779  -29.3590   20.7285 C   0  0  0  0  0  0
  -27.2548  -28.5316   20.7306 C   0  0  0  0  0  0
  -26.0416  -26.7907   19.5742 C   0  0  0  0  0  0
  -24.8892  -27.6110   19.5435 C   0  0  0  0  0  0
  -23.6713  -29.7854   20.1578 C   0  0  0  0  0  0
  -25.4109  -36.3034   24.0345 C   0  0  1  0  0  0
  -20.5912  -28.3727   23.1227 C   0  0  2  0  0  0
  -20.6792  -26.9436   22.5406 C   0  0  0  0  0  0
  -19.5748  -26.6405   21.5199 C   0  0  0  0  0  0
  -18.1936  -26.7951   22.1608 C   0  0  0  0  0  0
  -19.1551  -28.8882   23.2866 C   0  0  0  0  0  0
  -18.9461  -30.1473   23.8901 C   0  0  0  0  0  0
  -17.6454  -30.6596   24.0574 C   0  0  0  0  0  0
  -25.9061  -34.9442   23.5100 C   0  0  0  0  0  0
  -16.5359  -29.9086   23.6317 C   0  0  0  0  0  0
  -16.7278  -28.6488   23.0381 C   0  0  0  0  0  0
  -26.4574  -31.6569   25.0722 C   0  0  0  0  0  0
  -25.3819  -31.3735   26.1465 C   0  0  0  0  0  0
  -27.0456  -30.2986   24.6250 C   0  0  0  0  0  0
  -27.6111  -32.4334   25.7523 C   0  0  0  0  0  0
  -27.5563  -37.1767   24.8485 C   0  0  0  0  0  0
  -21.4245  -29.3066   22.3616 N   0  0  0  0  0  0
  -26.4269  -37.3747   23.9447 N   0  0  0  0  0  0
  -24.7117  -31.0424   22.0864 N   0  0  0  0  0  0
  -23.4197  -28.8176   23.3097 O   0  0  0  0  0  0
  -28.3587  -26.2836   20.2435 O   0  0  0  0  0  0
  -26.5581  -34.8911   22.4643 O   0  0  0  0  0  0
  -23.5570  -32.1333   23.7175 O   0  0  0  0  0  0
  -30.7670  -21.4141   20.5734 C   0  0  0  0  0  0
  -28.6594  -19.6490   20.8028 C   0  0  0  0  0  0
  -29.4868  -22.0571   20.5370 C   0  0  0  0  0  0
  -29.9523  -19.0171   20.8057 C   0  0  0  0  0  0
  -28.4275  -21.0935   20.6682 C   0  0  0  0  0  0
  -30.9967  -19.9958   20.7090 C   0  0  0  0  0  0
  -29.4057  -23.6771   20.2554 C   0  0  0  0  0  0
  -30.2667  -17.4440   21.2129 C   0  0  0  0  0  0
  -28.2191  -24.7863   20.5958 C   0  0  0  0  0  0
  -29.8468  -16.0855   20.5916 N   0  0  0  0  0  0
  -26.7967  -21.6616   20.7066 Cl  0  0  0  0  0  0
  -32.6491  -19.4932   20.8229 Cl  0  0  0  0  0  0
  -31.4574  -12.7428   19.1002 H   0  0  0  0  0  0
  -30.4450  -11.6317   20.0010 H   0  0  0  0  0  0
  -29.7995  -11.6841   17.5580 H   0  0  0  0  0  0
  -29.5507  -13.4086   17.6292 H   0  0  0  0  0  0
  -27.9644  -11.2404   19.0265 H   0  0  0  0  0  0
  -27.3507  -12.3514   17.8275 H   0  0  0  0  0  0
  -27.5698  -14.2193   19.3503 H   0  0  0  0  0  0
  -28.7726  -12.3385   21.4608 H   0  0  0  0  0  0
  -28.3792  -14.0393   21.6796 H   0  0  0  0  0  0
  -25.2711   -9.5694   22.4786 H   0  0  0  0  0  0
  -23.9987   -7.4639   22.7474 H   0  0  0  0  0  0
  -21.0796   -8.8761   19.8963 H   0  0  0  0  0  0
  -22.3647  -10.9689   19.6184 H   0  0  0  0  0  0
  -21.2022   -7.6148   23.9718 H   0  0  0  0  0  0
  -21.1476   -6.0517   25.9083 H   0  0  0  0  0  0
  -22.0591   -2.7598   23.2846 H   0  0  0  0  0  0
  -22.4065  -11.9928   22.4815 H   0  0  0  0  0  0
  -21.1033  -13.1332   22.2671 H   0  0  0  0  0  0
  -24.6575  -15.8488   20.5634 H   0  0  0  0  0  0
  -26.2803  -15.6415   20.1503 H   0  0  0  0  0  0
  -26.7347  -32.5370   23.1084 H   0  0  0  0  0  0
  -25.0316  -33.9634   25.0522 H   0  0  0  0  0  0
  -22.7473  -31.2951   21.3767 H   0  0  0  0  0  0
  -23.3751  -35.9512   23.3289 H   0  0  0  0  0  0
  -24.3564  -36.8800   22.2042 H   0  0  0  0  0  0
  -23.7188  -37.6417   23.6614 H   0  0  0  0  0  0
  -26.1279  -31.5040   20.5939 H   0  0  0  0  0  0
  -26.8658  -30.8113   22.0026 H   0  0  0  0  0  0
  -28.1527  -28.8989   21.2100 H   0  0  0  0  0  0
  -25.9723  -25.8028   19.1363 H   0  0  0  0  0  0
  -23.9819  -27.2330   19.0855 H   0  0  0  0  0  0
  -23.8025  -30.5548   19.3948 H   0  0  0  0  0  0
  -22.7811  -29.2278   19.8556 H   0  0  0  0  0  0
  -25.1280  -36.1864   25.0829 H   0  0  0  0  0  0
  -21.0022  -28.3287   24.1337 H   0  0  0  0  0  0
  -20.5648  -26.2341   23.3630 H   0  0  0  0  0  0
  -21.6668  -26.7442   22.1195 H   0  0  0  0  0  0
  -19.6904  -25.6299   21.1275 H   0  0  0  0  0  0
  -19.6676  -27.3197   20.6716 H   0  0  0  0  0  0
  -17.4220  -26.6743   21.3983 H   0  0  0  0  0  0
  -18.0278  -26.0075   22.8955 H   0  0  0  0  0  0
  -19.7937  -30.7275   24.2293 H   0  0  0  0  0  0
  -17.5013  -31.6266   24.5191 H   0  0  0  0  0  0
  -15.5359  -30.2999   23.7640 H   0  0  0  0  0  0
  -15.8678  -28.0796   22.7126 H   0  0  0  0  0  0
  -24.6000  -30.7046   25.7833 H   0  0  0  0  0  0
  -24.9014  -32.2913   26.4861 H   0  0  0  0  0  0
  -25.8184  -30.8972   27.0261 H   0  0  0  0  0  0
  -26.3064  -29.6709   24.1254 H   0  0  0  0  0  0
  -27.4113  -29.7270   25.4793 H   0  0  0  0  0  0
  -27.8942  -30.4252   23.9529 H   0  0  0  0  0  0
  -27.2686  -33.3622   26.2088 H   0  0  0  0  0  0
  -28.3941  -32.6922   25.0388 H   0  0  0  0  0  0
  -28.0778  -31.8500   26.5465 H   0  0  0  0  0  0
  -28.2625  -38.0004   24.7517 H   0  0  0  0  0  0
  -28.1008  -36.2580   24.6334 H   0  0  0  0  0  0
  -27.2303  -37.1457   25.8879 H   0  0  0  0  0  0
  -20.9435  -29.8706   21.6746 H   0  0  0  0  0  0
  -26.0142  -38.2815   24.1411 H   0  0  0  0  0  0
  -31.6385  -22.0557   20.5146 H   0  0  0  0  0  0
  -27.7918  -19.0172   20.9576 H   0  0  0  0  0  0
  -29.5652  -23.7572   19.1788 H   0  0  0  0  0  0
  -30.3070  -24.0834   20.7246 H   0  0  0  0  0  0
  -29.7315  -17.3742   22.1578 H   0  0  0  0  0  0
  -31.3208  -17.3437   21.4834 H   0  0  0  0  0  0
  -27.2978  -24.4074   20.1677 H   0  0  0  0  0  0
  -28.0951  -24.7705   21.6817 H   0  0  0  0  0  0
  -28.8428  -15.9410   20.5439 H   0  0  0  0  0  0
  1 25  1  0  0  0
  1 30  2  0  0  0
  1 80  1  0  0  0
  2  3  1  0  0  0
  2 25  1  0  0  0
  2 83  1  0  0  0
  2 84  1  0  0  0
  3  4  1  0  0  0
  3 85  1  0  0  0
  3 86  1  0  0  0
  4  5  1  0  0  0
  4 87  1  0  0  0
  4 88  1  0  0  0
  5  6  1  0  0  0
  5 26  1  0  0  0
  5 89  1  0  0  0
  6 25  1  0  0  0
  6 90  1  0  0  0
  6 91  1  0  0  0
  7  8  2  0  0  0
  7 26  1  0  0  0
  7 29  1  0  0  0
  8  9  1  0  0  0
  8 22  1  0  0  0
  9 10  1  0  0  0
  9 27  2  0  0  0
 10 11  2  0  0  0
 10 15  1  0  0  0
 11 12  1  0  0  0
 11 92  1  0  0  0
 12 13  2  0  0  0
 12 93  1  0  0  0
 13 14  1  0  0  0
 13 31  1  0  0  0
 14 15  2  0  0  0
 14 94  1  0  0  0
 15 95  1  0  0  0
 16 17  2  0  0  0
 16 21  1  0  0  0
 16 31  1  0  0  0
 17 18  1  0  0  0
 17 96  1  0  0  0
 18 19  2  0  0  0
 18 97  1  0  0  0
 19 20  1  0  0  0
 19 24  1  0  0  0
 20 21  2  0  0  0
 20 98  1  0  0  0
 21 23  1  0  0  0
 22 28  1  0  0  0
 22 32  2  0  0  0
 26 27  1  0  0  0
 28 99  1  0  0  0
 28100  1  0  0  0
 29101  1  0  0  0
 29102  1  0  0  0
 33 34  1  0  0  0
 33 66  1  0  0  0
 33 70  2  0  0  0
 34 36  1  0  0  0
 34 59  1  0  0  0
 34103  1  0  0  0
 35 44  2  0  0  0
 35 45  1  0  0  0
 35 68  1  0  0  0
 36 56  1  0  0  0
 36104  1  0  0  0
 37 39  1  0  0  0
 37 47  1  0  0  0
 37 66  1  0  0  0
 37105  1  0  0  0
 38 43  2  0  0  0
 38 46  1  0  0  0
 38 47  1  0  0  0
 39 64  1  0  0  0
 39 67  2  0  0  0
 40 52  1  0  0  0
 40 53  2  0  0  0
 40 58  1  0  0  0
 41106  1  0  0  0
 41107  1  0  0  0
 41108  1  0  0  0
 41 48  1  0  0  0
 42 43  1  0  0  0
 42 66  1  0  0  0
 42109  1  0  0  0
 42110  1  0  0  0
 43 44  1  0  0  0
 44111  1  0  0  0
 45 46  2  0  0  0
 45112  1  0  0  0
 46113  1  0  0  0
 47114  1  0  0  0
 47115  1  0  0  0
 48 56  1  0  0  0
 48 65  1  0  0  0
 48116  1  0  0  0
 49 50  1  0  0  0
 49 53  1  0  0  0
 49 64  1  0  0  0
 49117  1  0  0  0
 50 51  1  0  0  0
 50118  1  0  0  0
 50119  1  0  0  0
 51 52  1  0  0  0
 51120  1  0  0  0
 51121  1  0  0  0
 52122  1  0  0  0
 52123  1  0  0  0
 53 54  1  0  0  0
 54 55  2  0  0  0
 54124  1  0  0  0
 55 57  1  0  0  0
 55125  1  0  0  0
 56 69  2  0  0  0
 57 58  2  0  0  0
 57126  1  0  0  0
 58127  1  0  0  0
 59 60  1  0  0  0
 59 61  1  0  0  0
 59 62  1  0  0  0
 60128  1  0  0  0
 60129  1  0  0  0
 60130  1  0  0  0
 61131  1  0  0  0
 61132  1  0  0  0
 61133  1  0  0  0
 62134  1  0  0  0
 62135  1  0  0  0
 62136  1  0  0  0
 63 65  1  0  0  0
 63137  1  0  0  0
 63138  1  0  0  0
 63139  1  0  0  0
 64140  1  0  0  0
 65141  1  0  0  0
 68 79  1  0  0  0
 71 73  2  0  0  0
 71 76  1  0  0  0
 71142  1  0  0  0
 72 74  1  0  0  0
 72 75  2  0  0  0
 72143  1  0  0  0
 73 75  1  0  0  0
 73 77  1  0  0  0
 74 76  2  0  0  0
 74 78  1  0  0  0
 75 81  1  0  0  0
 76 82  1  0  0  0
 77 79  1  0  0  0
 77144  1  0  0  0
 77145  1  0  0  0
 78 80  1  0  0  0
 78146  1  0  0  0
 78147  1  0  0  0
 79148  1  0  0  0
 79149  1  0  0  0
 80150  1  0  0  0
M  ISO  4   1 100  68 101  79 101  80 100
M  END
> <chiral flag>
0

> <version>
0

> <s_m_source_file>
/data/baiqing/PycharmProjects/Reinvent-master-3.2/result/LINK_invent/BTK/process_docking_weight1_custom_sum_contain_oxygen_bond_distance_aromatic_linkinvent_7_9_3/rearranged_h_0027.sdf

> <i_m_source_file_index>
52

> <r_mmod_Potential_Energy-OPLS-2005>
374.754852294922

> <r_mmod_Stretch_Energy-OPLS-2005>
199.72770690918

> <r_mmod_Bend_Energy-OPLS-2005>
256.817016601562

> <r_mmod_Torsional_Energy-OPLS-2005>
230.235488891602

> <r_mmod_Improper_Torsional_Energy-OPLS-2005>
6.81293201446533

> <r_mmod_Van_der_Waal_Energy-OPLS-2005>
129.319915771484

> <r_mmod_Electrostatic_Energy-OPLS-2005>
-391.130706787109

> <r_mmod_Solvation_Energy-OPLS-2005>
-215.869079589844

> <b_mmod_Minimization_Converged-OPLS-2005>
0

> <r_mmod_RMS_Derivative-OPLS-2005>
12.9325256347656

$$$$
52
                    3D
 Structure written by MMmdl.
156164  0  0  1  0            999 V2000
  -30.6385  -14.6842   20.4657 C   0  0  0  0  0  0
  -30.4325  -12.4215   19.4470 C   0  0  0  0  0  0
  -29.5032  -12.5051   18.2178 C   0  0  0  0  0  0
  -28.0250  -12.3550   18.6262 C   0  0  0  0  0  0
  -27.6419  -13.2311   19.8473 C   0  0  2  0  0  0
  -28.6925  -13.1277   20.9721 C   0  0  0  0  0  0
  -25.2493  -13.8211   20.5680 C   0  0  0  0  0  0
  -24.1763  -13.0469   20.9191 C   0  0  0  0  0  0
  -24.6340  -11.6951   20.8740 C   0  0  0  0  0  0
  -23.9006  -10.4330   21.0420 C   0  0  0  0  0  0
  -24.3575   -9.4272   21.9210 C   0  0  0  0  0  0
  -23.6262   -8.2305   22.0790 C   0  0  0  0  0  0
  -22.4258   -8.0294   21.3568 C   0  0  0  0  0  0
  -21.9884   -9.0255   20.4664 C   0  0  0  0  0  0
  -22.7195  -10.2144   20.3071 C   0  0  0  0  0  0
  -21.6873   -6.0710   22.5252 C   0  0  0  0  0  0
  -21.4041   -6.5614   23.8184 C   0  0  0  0  0  0
  -21.3687   -5.6768   24.9153 C   0  0  0  0  0  0
  -21.6048   -4.3023   24.7202 C   0  0  0  0  0  0
  -21.8815   -3.8124   23.4318 C   0  0  0  0  0  0
  -21.9208   -4.6943   22.3379 C   0  0  0  0  0  0
  -22.7782  -13.5295   21.1797 C   0  0  0  0  0  0
  -22.1656   -4.2129   21.0951 F   0  0  0  0  0  0
  -21.5669   -3.4508   25.7712 F   0  0  0  0  0  0
  -29.9976  -13.4730   20.3891 N   0  0  0  0  0  0
  -26.2907  -12.9404   20.3257 N   0  0  0  0  0  0
  -25.9278  -11.6558   20.5758 N   0  0  0  0  0  0
  -22.0348  -12.8376   22.0349 N   0  0  0  0  0  0
  -25.4225  -15.1930   20.4100 N   0  0  0  0  0  0
  -31.8373  -14.7756   20.1918 O   0  0  0  0  0  0
  -21.6660   -6.8868   21.4227 O   0  0  0  0  0  0
  -22.3499  -14.5579   20.6577 O   0  0  0  0  0  0
  -24.6281  -31.8583   23.1988 C   0  0  0  0  0  0
  -25.9125  -32.4749   23.8332 C   0  0  1  0  0  0
  -27.2238  -27.3018   20.1201 C   0  0  0  0  0  0
  -25.5936  -33.8555   24.2266 N   0  0  0  0  0  0
  -23.4202  -30.4792   21.5445 C   0  0  2  0  0  0
  -24.8640  -28.9204   20.1183 C   0  0  0  0  0  0
  -22.7462  -29.4636   22.4968 C   0  0  0  0  0  0
  -18.0256  -28.1404   22.8492 C   0  0  0  0  0  0
  -24.1476  -36.7296   23.2640 C   0  0  0  0  0  0
  -25.9593  -30.7834   21.3648 C   0  0  0  0  0  0
  -26.0366  -29.4072   20.7111 C   0  0  0  0  0  0
  -27.2233  -28.6131   20.6930 C   0  0  0  0  0  0
  -26.0284  -26.8635   19.5115 C   0  0  0  0  0  0
  -24.8609  -27.6528   19.5117 C   0  0  0  0  0  0
  -23.6349  -29.8057   20.1635 C   0  0  0  0  0  0
  -25.4101  -36.3070   24.0332 C   0  0  1  0  0  0
  -20.5855  -28.3716   23.1294 C   0  0  2  0  0  0
  -20.6759  -26.9435   22.5427 C   0  0  0  0  0  0
  -19.5738  -26.6381   21.5230 C   0  0  0  0  0  0
  -18.1912  -26.7942   22.1626 C   0  0  0  0  0  0
  -19.1513  -28.8877   23.2882 C   0  0  0  0  0  0
  -18.9452  -30.1479   23.8895 C   0  0  0  0  0  0
  -17.6461  -30.6627   24.0569 C   0  0  0  0  0  0
  -25.9051  -34.9444   23.5098 C   0  0  0  0  0  0
  -16.5347  -29.9128   23.6335 C   0  0  0  0  0  0
  -16.7248  -28.6535   23.0365 C   0  0  0  0  0  0
  -26.4473  -31.6540   25.0706 C   0  0  0  0  0  0
  -25.3685  -31.3721   26.1428 C   0  0  0  0  0  0
  -27.0287  -30.2951   24.6136 C   0  0  0  0  0  0
  -27.5999  -32.4264   25.7521 C   0  0  0  0  0  0
  -27.5564  -37.1810   24.8457 C   0  0  0  0  0  0
  -21.4171  -29.3076   22.3702 N   0  0  0  0  0  0
  -26.4269  -37.3777   23.9418 N   0  0  0  0  0  0
  -24.6896  -31.0574   22.0940 N   0  0  0  0  0  0
  -23.4165  -28.8199   23.3078 O   0  0  0  0  0  0
  -28.3409  -26.4485   20.1127 O   0  0  0  0  0  0
  -26.5629  -34.8929   22.4678 O   0  0  0  0  0  0
  -23.5445  -32.1398   23.7312 O   0  0  0  0  0  0
  -29.4357  -19.7816   20.5880 C   0  0  0  0  0  0
  -28.9233  -19.3623   17.9005 C   0  0  0  0  0  0
  -29.6937  -18.4622   20.0388 C   0  0  0  0  0  0
  -28.9025  -20.9055   19.8278 C   0  0  0  0  0  0
  -29.4406  -18.3000   18.6646 C   0  0  0  0  0  0
  -28.6459  -20.6309   18.4552 C   0  0  0  0  0  0
  -27.0455  -22.1103   21.0570 C   0  0  0  0  0  0
  -30.3198  -17.2573   20.8598 C   0  0  0  0  0  0
  -28.6014  -23.7493   19.8378 C   0  0  0  0  0  0
  -28.2033  -25.0728   20.6729 C   0  0  0  0  0  0
  -28.4816  -22.2827   20.5390 C   0  0  2  0  0  0
  -29.8760  -15.8164   20.6627 N   0  0  0  0  0  0
  -29.7055  -17.1196   18.0547 F   0  0  0  0  0  0
  -27.9436  -21.7855   17.3813 Cl  0  0  0  0  0  0
  -31.4723  -12.5528   19.1433 H   0  0  0  0  0  0
  -30.3773  -11.4381   19.9171 H   0  0  0  0  0  0
  -29.7711  -11.7408   17.4839 H   0  0  0  0  0  0
  -29.6445  -13.4676   17.7240 H   0  0  0  0  0  0
  -27.8543  -11.3028   18.8573 H   0  0  0  0  0  0
  -27.3793  -12.5967   17.7790 H   0  0  0  0  0  0
  -27.6452  -14.2606   19.4860 H   0  0  0  0  0  0
  -28.7155  -12.1181   21.3843 H   0  0  0  0  0  0
  -28.4463  -13.7947   21.7992 H   0  0  0  0  0  0
  -25.2739   -9.5782   22.4742 H   0  0  0  0  0  0
  -23.9984   -7.4740   22.7533 H   0  0  0  0  0  0
  -21.0832   -8.8765   19.8953 H   0  0  0  0  0  0
  -22.3683  -10.9660   19.6146 H   0  0  0  0  0  0
  -21.2027   -7.6121   23.9682 H   0  0  0  0  0  0
  -21.1525   -6.0498   25.9053 H   0  0  0  0  0  0
  -22.0571   -2.7576   23.2812 H   0  0  0  0  0  0
  -22.3888  -12.0130   22.4956 H   0  0  0  0  0  0
  -21.0937  -13.1461   22.2371 H   0  0  0  0  0  0
  -24.6633  -15.8544   20.5343 H   0  0  0  0  0  0
  -26.2671  -15.6274   20.0616 H   0  0  0  0  0  0
  -26.7204  -32.5397   23.1087 H   0  0  0  0  0  0
  -25.0036  -33.9692   25.0374 H   0  0  0  0  0  0
  -22.7157  -31.3004   21.3991 H   0  0  0  0  0  0
  -23.3741  -35.9628   23.3284 H   0  0  0  0  0  0
  -24.3552  -36.8929   22.2047 H   0  0  0  0  0  0
  -23.7230  -37.6504   23.6666 H   0  0  0  0  0  0
  -26.0785  -31.5432   20.5928 H   0  0  0  0  0  0
  -26.8427  -30.8389   21.9900 H   0  0  0  0  0  0
  -28.1289  -28.9929   21.1450 H   0  0  0  0  0  0
  -25.9929  -25.8907   19.0416 H   0  0  0  0  0  0
  -23.9593  -27.2702   19.0530 H   0  0  0  0  0  0
  -23.7633  -30.5771   19.4037 H   0  0  0  0  0  0
  -22.7525  -29.2396   19.8588 H   0  0  0  0  0  0
  -25.1284  -36.1915   25.0822 H   0  0  0  0  0  0
  -20.9914  -28.3283   24.1430 H   0  0  0  0  0  0
  -20.5650  -26.2342   23.3643 H   0  0  0  0  0  0
  -21.6642  -26.7478   22.1237 H   0  0  0  0  0  0
  -19.6907  -25.6272   21.1313 H   0  0  0  0  0  0
  -19.6686  -27.3151   20.6729 H   0  0  0  0  0  0
  -17.4189  -26.6673   21.4023 H   0  0  0  0  0  0
  -18.0318  -26.0085   22.9022 H   0  0  0  0  0  0
  -19.7949  -30.7279   24.2263 H   0  0  0  0  0  0
  -17.5043  -31.6304   24.5180 H   0  0  0  0  0  0
  -15.5360  -30.3043   23.7703 H   0  0  0  0  0  0
  -15.8630  -28.0874   22.7094 H   0  0  0  0  0  0
  -24.5832  -30.7080   25.7760 H   0  0  0  0  0  0
  -24.8949  -32.2931   26.4836 H   0  0  0  0  0  0
  -25.7997  -30.8891   27.0198 H   0  0  0  0  0  0
  -26.2839  -29.6750   24.1134 H   0  0  0  0  0  0
  -27.3942  -29.7149   25.4632 H   0  0  0  0  0  0
  -27.8744  -30.4205   23.9361 H   0  0  0  0  0  0
  -27.2563  -33.3530   26.2125 H   0  0  0  0  0  0
  -28.3814  -32.6889   25.0368 H   0  0  0  0  0  0
  -28.0631  -31.8373   26.5448 H   0  0  0  0  0  0
  -28.2590  -38.0102   24.7501 H   0  0  0  0  0  0
  -28.1063  -36.2641   24.6280 H   0  0  0  0  0  0
  -27.2297  -37.1438   25.8865 H   0  0  0  0  0  0
  -20.9362  -29.8813   21.6914 H   0  0  0  0  0  0
  -26.0146  -38.2845   24.1440 H   0  0  0  0  0  0
  -29.6309  -19.9279   21.6400 H   0  0  0  0  0  0
  -28.7227  -19.1904   16.8549 H   0  0  0  0  0  0
  -26.8039  -22.8513   21.8184 H   0  0  0  0  0  0
  -26.8974  -21.1275   21.5054 H   0  0  0  0  0  0
  -26.3203  -22.2143   20.2489 H   0  0  0  0  0  0
  -30.1821  -17.4789   21.9175 H   0  0  0  0  0  0
  -31.3995  -17.3070   20.6979 H   0  0  0  0  0  0
  -29.6190  -23.8680   19.4629 H   0  0  0  0  0  0
  -27.9544  -23.7960   18.9668 H   0  0  0  0  0  0
  -28.8246  -25.0768   21.5688 H   0  0  0  0  0  0
  -27.1856  -24.9552   21.0482 H   0  0  0  0  0  0
  -29.1173  -22.3302   21.4245 H   0  0  0  0  0  0
  -28.8846  -15.6616   20.7553 H   0  0  0  0  0  0
  1 25  1  0  0  0
  1 30  2  0  0  0
  1 82  1  0  0  0
  2  3  1  0  0  0
  2 25  1  0  0  0
  2 85  1  0  0  0
  2 86  1  0  0  0
  3  4  1  0  0  0
  3 87  1  0  0  0
  3 88  1  0  0  0
  4  5  1  0  0  0
  4 89  1  0  0  0
  4 90  1  0  0  0
  5  6  1  0  0  0
  5 26  1  0  0  0
  5 91  1  0  0  0
  6 25  1  0  0  0
  6 92  1  0  0  0
  6 93  1  0  0  0
  7  8  2  0  0  0
  7 26  1  0  0  0
  7 29  1  0  0  0
  8  9  1  0  0  0
  8 22  1  0  0  0
  9 10  1  0  0  0
  9 27  2  0  0  0
 10 11  2  0  0  0
 10 15  1  0  0  0
 11 12  1  0  0  0
 11 94  1  0  0  0
 12 13  2  0  0  0
 12 95  1  0  0  0
 13 14  1  0  0  0
 13 31  1  0  0  0
 14 15  2  0  0  0
 14 96  1  0  0  0
 15 97  1  0  0  0
 16 17  2  0  0  0
 16 21  1  0  0  0
 16 31  1  0  0  0
 17 18  1  0  0  0
 17 98  1  0  0  0
 18 19  2  0  0  0
 18 99  1  0  0  0
 19 20  1  0  0  0
 19 24  1  0  0  0
 20 21  2  0  0  0
 20100  1  0  0  0
 21 23  1  0  0  0
 22 28  1  0  0  0
 22 32  2  0  0  0
 26 27  1  0  0  0
 28101  1  0  0  0
 28102  1  0  0  0
 29103  1  0  0  0
 29104  1  0  0  0
 33 34  1  0  0  0
 33 66  1  0  0  0
 33 70  2  0  0  0
 34 36  1  0  0  0
 34 59  1  0  0  0
 34105  1  0  0  0
 35 44  2  0  0  0
 35 45  1  0  0  0
 35 68  1  0  0  0
 36 56  1  0  0  0
 36106  1  0  0  0
 37 39  1  0  0  0
 37 47  1  0  0  0
 37 66  1  0  0  0
 37107  1  0  0  0
 38 43  2  0  0  0
 38 46  1  0  0  0
 38 47  1  0  0  0
 39 64  1  0  0  0
 39 67  2  0  0  0
 40 52  1  0  0  0
 40 53  2  0  0  0
 40 58  1  0  0  0
 41108  1  0  0  0
 41109  1  0  0  0
 41110  1  0  0  0
 41 48  1  0  0  0
 42 43  1  0  0  0
 42 66  1  0  0  0
 42111  1  0  0  0
 42112  1  0  0  0
 43 44  1  0  0  0
 44113  1  0  0  0
 45 46  2  0  0  0
 45114  1  0  0  0
 46115  1  0  0  0
 47116  1  0  0  0
 47117  1  0  0  0
 48 56  1  0  0  0
 48 65  1  0  0  0
 48118  1  0  0  0
 49 50  1  0  0  0
 49 53  1  0  0  0
 49 64  1  0  0  0
 49119  1  0  0  0
 50 51  1  0  0  0
 50120  1  0  0  0
 50121  1  0  0  0
 51 52  1  0  0  0
 51122  1  0  0  0
 51123  1  0  0  0
 52124  1  0  0  0
 52125  1  0  0  0
 53 54  1  0  0  0
 54 55  2  0  0  0
 54126  1  0  0  0
 55 57  1  0  0  0
 55127  1  0  0  0
 56 69  2  0  0  0
 57 58  2  0  0  0
 57128  1  0  0  0
 58129  1  0  0  0
 59 60  1  0  0  0
 59 61  1  0  0  0
 59 62  1  0  0  0
 60130  1  0  0  0
 60131  1  0  0  0
 60132  1  0  0  0
 61133  1  0  0  0
 61134  1  0  0  0
 61135  1  0  0  0
 62136  1  0  0  0
 62137  1  0  0  0
 62138  1  0  0  0
 63 65  1  0  0  0
 63139  1  0  0  0
 63140  1  0  0  0
 63141  1  0  0  0
 64142  1  0  0  0
 65143  1  0  0  0
 68 80  1  0  0  0
 71 73  2  0  0  0
 71 74  1  0  0  0
 71144  1  0  0  0
 72 75  2  0  0  0
 72 76  1  0  0  0
 72145  1  0  0  0
 73 75  1  0  0  0
 73 78  1  0  0  0
 74 76  2  0  0  0
 74 81  1  0  0  0
 75 83  1  0  0  0
 76 84  1  0  0  0
 77146  1  0  0  0
 77147  1  0  0  0
 77148  1  0  0  0
 77 81  1  0  0  0
 78 82  1  0  0  0
 78149  1  0  0  0
 78150  1  0  0  0
 79 80  1  0  0  0
 79 81  1  0  0  0
 79151  1  0  0  0
 79152  1  0  0  0
 80153  1  0  0  0
 80154  1  0  0  0
 81155  1  0  0  0
 82156  1  0  0  0
M  ISO  4   1 100  68 101  80 101  82 100
M  END
> <chiral flag>
0

> <version>
0

> <s_m_source_file>
/data/baiqing/PycharmProjects/Reinvent-master-3.2/result/LINK_invent/BTK/process_docking_weight1_custom_sum_contain_oxygen_bond_distance_aromatic_linkinvent_7_9_3/rearranged_h_0027.sdf

> <i_m_source_file_index>
53

> <r_mmod_Potential_Energy-OPLS-2005>
111.12329864502

> <r_mmod_Stretch_Energy-OPLS-2005>
111.850242614746

> <r_mmod_Bend_Energy-OPLS-2005>
160.680374145508

> <r_mmod_Torsional_Energy-OPLS-2005>
226.127944946289

> <r_mmod_Improper_Torsional_Energy-OPLS-2005>
4.86402416229248

> <r_mmod_Van_der_Waal_Energy-OPLS-2005>
134.923416137695

> <r_mmod_Electrostatic_Energy-OPLS-2005>
-384.628295898438

> <r_mmod_Solvation_Energy-OPLS-2005>
-204.047821044922

> <b_mmod_Minimization_Converged-OPLS-2005>
0

> <r_mmod_RMS_Derivative-OPLS-2005>
4.28727912902832

$$$$
53
                    3D
 Structure written by MMmdl.
171180  0  0  1  0            999 V2000
  -30.7902  -14.3853   20.6524 C   0  0  0  0  0  0
  -30.4047  -12.2916   19.4101 C   0  0  0  0  0  0
  -29.4812  -12.5161   18.1992 C   0  0  0  0  0  0
  -28.0072  -12.3740   18.6172 C   0  0  0  0  0  0
  -27.6630  -13.2111   19.8779 C   0  0  2  0  0  0
  -28.7038  -12.9934   21.0005 C   0  0  0  0  0  0
  -25.2587  -13.8180   20.5694 C   0  0  0  0  0  0
  -24.1836  -13.0448   20.9174 C   0  0  0  0  0  0
  -24.6398  -11.6919   20.8737 C   0  0  0  0  0  0
  -23.9067  -10.4300   21.0406 C   0  0  0  0  0  0
  -24.3617   -9.4217   21.9187 C   0  0  0  0  0  0
  -23.6293   -8.2254   22.0755 C   0  0  0  0  0  0
  -22.4277   -8.0288   21.3545 C   0  0  0  0  0  0
  -21.9916   -9.0262   20.4644 C   0  0  0  0  0  0
  -22.7242  -10.2142   20.3055 C   0  0  0  0  0  0
  -21.6851   -6.0744   22.5282 C   0  0  0  0  0  0
  -21.4013   -6.5644   23.8217 C   0  0  0  0  0  0
  -21.3656   -5.6793   24.9175 C   0  0  0  0  0  0
  -21.6045   -4.3059   24.7226 C   0  0  0  0  0  0
  -21.8817   -3.8153   23.4345 C   0  0  0  0  0  0
  -21.9193   -4.6970   22.3403 C   0  0  0  0  0  0
  -22.7856  -13.5244   21.1838 C   0  0  0  0  0  0
  -22.1661   -4.2159   21.0980 F   0  0  0  0  0  0
  -21.5627   -3.4541   25.7739 F   0  0  0  0  0  0
  -30.0444  -13.2658   20.4535 N   0  0  0  0  0  0
  -26.3032  -12.9362   20.3396 N   0  0  0  0  0  0
  -25.9330  -11.6514   20.5779 N   0  0  0  0  0  0
  -22.0497  -12.8234   22.0386 N   0  0  0  0  0  0
  -25.4322  -15.1896   20.4111 N   0  0  0  0  0  0
  -31.8198  -14.6154   20.0126 O   0  0  0  0  0  0
  -21.6640   -6.8889   21.4244 O   0  0  0  0  0  0
  -22.3548  -14.5556   20.6693 O   0  0  0  0  0  0
  -24.6127  -31.8690   23.2107 C   0  0  0  0  0  0
  -25.9026  -32.4830   23.8398 C   0  0  1  0  0  0
  -27.2357  -27.4617   20.0888 C   0  0  0  0  0  0
  -25.5887  -33.8626   24.2327 N   0  0  0  0  0  0
  -23.4006  -30.4922   21.5504 C   0  0  2  0  0  0
  -24.8505  -28.9659   20.1076 C   0  0  0  0  0  0
  -22.7405  -29.4659   22.4991 C   0  0  0  0  0  0
  -18.0267  -28.1378   22.8492 C   0  0  0  0  0  0
  -24.1488  -36.7314   23.2640 C   0  0  0  0  0  0
  -25.9272  -30.8439   21.3610 C   0  0  0  0  0  0
  -26.0088  -29.4820   20.7045 C   0  0  0  0  0  0
  -27.2078  -28.7353   20.6957 C   0  0  0  0  0  0
  -26.0691  -26.9595   19.4764 C   0  0  0  0  0  0
  -24.8742  -27.7028   19.4901 C   0  0  0  0  0  0
  -23.6078  -29.8253   20.1640 C   0  0  0  0  0  0
  -25.4110  -36.3113   24.0343 C   0  0  1  0  0  0
  -20.5862  -28.3658   23.1321 C   0  0  2  0  0  0
  -20.6761  -26.9399   22.5415 C   0  0  0  0  0  0
  -19.5741  -26.6386   21.5210 C   0  0  0  0  0  0
  -18.1916  -26.7922   22.1624 C   0  0  0  0  0  0
  -19.1521  -28.8834   23.2900 C   0  0  0  0  0  0
  -18.9451  -30.1437   23.8916 C   0  0  0  0  0  0
  -17.6456  -30.6583   24.0570 C   0  0  0  0  0  0
  -25.9036  -34.9478   23.5132 C   0  0  0  0  0  0
  -16.5345  -29.9091   23.6330 C   0  0  0  0  0  0
  -16.7258  -28.6508   23.0350 C   0  0  0  0  0  0
  -26.4465  -31.6602   25.0714 C   0  0  0  0  0  0
  -25.3738  -31.3689   26.1462 C   0  0  0  0  0  0
  -27.0300  -30.3055   24.6063 C   0  0  0  0  0  0
  -27.6037  -32.4321   25.7486 C   0  0  0  0  0  0
  -27.5580  -37.1808   24.8465 C   0  0  0  0  0  0
  -21.4134  -29.3030   22.3734 N   0  0  0  0  0  0
  -26.4296  -37.3795   23.9411 N   0  0  0  0  0  0
  -24.6650  -31.0813   22.0998 N   0  0  0  0  0  0
  -23.4180  -28.8203   23.3032 O   0  0  0  0  0  0
  -28.3558  -26.6695   20.1498 O   0  0  0  0  0  0
  -26.5598  -34.8925   22.4691 O   0  0  0  0  0  0
  -23.5323  -32.1434   23.7512 O   0  0  0  0  0  0
  -30.0830  -19.9145   22.0434 C   0  0  0  0  0  0
  -30.5017  -18.6510   21.5779 C   0  0  0  0  0  0
  -30.5857  -17.6029   22.5403 C   0  0  0  0  0  0
  -29.7568  -20.0814   23.3752 C   0  0  0  0  0  0
  -30.1716  -17.8771   23.8778 C   0  0  0  0  0  0
  -29.9934  -21.2312   21.2963 C   0  0  0  0  0  0
  -29.4460  -21.5126   23.7075 C   0  0  0  0  0  0
  -29.8099  -22.2996   22.4165 C   0  0  2  0  0  0
  -30.9044  -18.4551   20.1253 C   0  0  0  0  0  0
  -31.5830  -15.7826   26.8741 C   0  0  0  0  0  0
  -31.2553  -16.2670   22.1835 C   0  0  0  0  0  0
  -30.2094  -16.8267   24.9816 C   0  0  0  0  0  0
  -28.7876  -23.4213   22.1333 C   0  0  0  0  0  0
  -31.5108  -16.8780   25.8015 C   0  0  0  0  0  0
  -29.1825  -24.4905   21.0882 C   0  0  0  0  0  0
  -28.2082  -25.6809   21.1758 C   0  0  0  0  0  0
  -29.7655  -19.1011   24.2921 N   0  0  0  0  0  0
  -30.3916  -15.2155   21.6297 N   0  0  0  0  0  0
  -31.4503  -12.3638   19.1055 H   0  0  0  0  0  0
  -30.2843  -11.2785   19.7972 H   0  0  0  0  0  0
  -29.7154  -11.8016   17.4089 H   0  0  0  0  0  0
  -29.6527  -13.5081   17.7782 H   0  0  0  0  0  0
  -27.8171  -11.3173   18.8093 H   0  0  0  0  0  0
  -27.3531  -12.6542   17.7904 H   0  0  0  0  0  0
  -27.7104  -14.2600   19.5846 H   0  0  0  0  0  0
  -28.6650  -11.9638   21.3590 H   0  0  0  0  0  0
  -28.4592  -13.6128   21.8636 H   0  0  0  0  0  0
  -25.2763   -9.5695   22.4760 H   0  0  0  0  0  0
  -24.0003   -7.4647   22.7477 H   0  0  0  0  0  0
  -21.0849   -8.8778   19.8947 H   0  0  0  0  0  0
  -22.3703  -10.9680   19.6160 H   0  0  0  0  0  0
  -21.2003   -7.6152   23.9722 H   0  0  0  0  0  0
  -21.1477   -6.0525   25.9078 H   0  0  0  0  0  0
  -22.0597   -2.7617   23.2842 H   0  0  0  0  0  0
  -22.4098  -11.9882   22.4761 H   0  0  0  0  0  0
  -21.1117  -13.1264   22.2594 H   0  0  0  0  0  0
  -24.6722  -15.8512   20.5259 H   0  0  0  0  0  0
  -26.2968  -15.6274   20.1166 H   0  0  0  0  0  0
  -26.7102  -32.5565   23.1176 H   0  0  0  0  0  0
  -25.0046  -33.9795   25.0475 H   0  0  0  0  0  0
  -22.6879  -31.3082   21.4119 H   0  0  0  0  0  0
  -23.3750  -35.9647   23.3316 H   0  0  0  0  0  0
  -24.3576  -36.8915   22.2047 H   0  0  0  0  0  0
  -23.7236  -37.6524   23.6643 H   0  0  0  0  0  0
  -26.0344  -31.6132   20.5951 H   0  0  0  0  0  0
  -26.8157  -30.8972   21.9783 H   0  0  0  0  0  0
  -28.0981  -29.1191   21.1739 H   0  0  0  0  0  0
  -26.0828  -25.9835   19.0119 H   0  0  0  0  0  0
  -23.9842  -27.2979   19.0282 H   0  0  0  0  0  0
  -23.7063  -30.6004   19.4034 H   0  0  0  0  0  0
  -22.7345  -29.2385   19.8729 H   0  0  0  0  0  0
  -25.1283  -36.1986   25.0838 H   0  0  0  0  0  0
  -20.9946  -28.3223   24.1445 H   0  0  0  0  0  0
  -20.5673  -26.2271   23.3602 H   0  0  0  0  0  0
  -21.6629  -26.7450   22.1200 H   0  0  0  0  0  0
  -19.6910  -25.6302   21.1227 H   0  0  0  0  0  0
  -19.6683  -27.3215   20.6754 H   0  0  0  0  0  0
  -17.4187  -26.6679   21.4020 H   0  0  0  0  0  0
  -18.0312  -26.0060   22.9017 H   0  0  0  0  0  0
  -19.7929  -30.7242   24.2304 H   0  0  0  0  0  0
  -17.5013  -31.6267   24.5158 H   0  0  0  0  0  0
  -15.5345  -30.2995   23.7642 H   0  0  0  0  0  0
  -15.8661  -28.0827   22.7056 H   0  0  0  0  0  0
  -24.5912  -30.7044   25.7787 H   0  0  0  0  0  0
  -24.8932  -32.2839   26.4934 H   0  0  0  0  0  0
  -25.8092  -30.8832   27.0205 H   0  0  0  0  0  0
  -26.2835  -29.6825   24.1125 H   0  0  0  0  0  0
  -27.4100  -29.7278   25.4499 H   0  0  0  0  0  0
  -27.8655  -30.4396   23.9189 H   0  0  0  0  0  0
  -27.2646  -33.3610   26.2089 H   0  0  0  0  0  0
  -28.3837  -32.6905   25.0310 H   0  0  0  0  0  0
  -28.0718  -31.8435   26.5388 H   0  0  0  0  0  0
  -28.2593  -38.0107   24.7513 H   0  0  0  0  0  0
  -28.1076  -36.2634   24.6292 H   0  0  0  0  0  0
  -27.2291  -37.1462   25.8866 H   0  0  0  0  0  0
  -20.9291  -29.8758   21.6967 H   0  0  0  0  0  0
  -26.0192  -38.2880   24.1402 H   0  0  0  0  0  0
  -29.1349  -21.2030   20.6241 H   0  0  0  0  0  0
  -30.8885  -21.4178   20.7018 H   0  0  0  0  0  0
  -30.0177  -21.8550   24.5712 H   0  0  0  0  0  0
  -28.3853  -21.5910   23.9479 H   0  0  0  0  0  0
  -30.7891  -22.7467   22.5963 H   0  0  0  0  0  0
  -30.4567  -19.2104   19.4797 H   0  0  0  0  0  0
  -30.5784  -17.4843   19.7534 H   0  0  0  0  0  0
  -31.9872  -18.5201   20.0204 H   0  0  0  0  0  0
  -32.5192  -15.8427   27.4300 H   0  0  0  0  0  0
  -31.5273  -14.7888   26.4288 H   0  0  0  0  0  0
  -30.7660  -15.8745   27.5904 H   0  0  0  0  0  0
  -31.7551  -15.8504   23.0566 H   0  0  0  0  0  0
  -32.0860  -16.4973   21.5151 H   0  0  0  0  0  0
  -30.0544  -15.8330   24.5616 H   0  0  0  0  0  0
  -29.3587  -16.9880   25.6454 H   0  0  0  0  0  0
  -28.6118  -23.9386   23.0782 H   0  0  0  0  0  0
  -27.8274  -22.9806   21.8613 H   0  0  0  0  0  0
  -32.3685  -16.7829   25.1357 H   0  0  0  0  0  0
  -31.6018  -17.8572   26.2732 H   0  0  0  0  0  0
  -29.1620  -24.0565   20.0882 H   0  0  0  0  0  0
  -30.2013  -24.8403   21.2612 H   0  0  0  0  0  0
  -28.3334  -26.1766   22.1400 H   0  0  0  0  0  0
  -27.1936  -25.2757   21.1760 H   0  0  0  0  0  0
  -29.5416  -14.9813   22.1192 H   0  0  0  0  0  0
  1 25  1  0  0  0
  1 30  2  0  0  0
  1 88  1  0  0  0
  2  3  1  0  0  0
  2 25  1  0  0  0
  2 89  1  0  0  0
  2 90  1  0  0  0
  3  4  1  0  0  0
  3 91  1  0  0  0
  3 92  1  0  0  0
  4  5  1  0  0  0
  4 93  1  0  0  0
  4 94  1  0  0  0
  5  6  1  0  0  0
  5 26  1  0  0  0
  5 95  1  0  0  0
  6 25  1  0  0  0
  6 96  1  0  0  0
  6 97  1  0  0  0
  7  8  2  0  0  0
  7 26  1  0  0  0
  7 29  1  0  0  0
  8  9  1  0  0  0
  8 22  1  0  0  0
  9 10  1  0  0  0
  9 27  2  0  0  0
 10 11  2  0  0  0
 10 15  1  0  0  0
 11 12  1  0  0  0
 11 98  1  0  0  0
 12 13  2  0  0  0
 12 99  1  0  0  0
 13 14  1  0  0  0
 13 31  1  0  0  0
 14 15  2  0  0  0
 14100  1  0  0  0
 15101  1  0  0  0
 16 17  2  0  0  0
 16 21  1  0  0  0
 16 31  1  0  0  0
 17 18  1  0  0  0
 17102  1  0  0  0
 18 19  2  0  0  0
 18103  1  0  0  0
 19 20  1  0  0  0
 19 24  1  0  0  0
 20 21  2  0  0  0
 20104  1  0  0  0
 21 23  1  0  0  0
 22 28  1  0  0  0
 22 32  2  0  0  0
 26 27  1  0  0  0
 28105  1  0  0  0
 28106  1  0  0  0
 29107  1  0  0  0
 29108  1  0  0  0
 33 34  1  0  0  0
 33 66  1  0  0  0
 33 70  2  0  0  0
 34 36  1  0  0  0
 34 59  1  0  0  0
 34109  1  0  0  0
 35 44  2  0  0  0
 35 45  1  0  0  0
 35 68  1  0  0  0
 36 56  1  0  0  0
 36110  1  0  0  0
 37 39  1  0  0  0
 37 47  1  0  0  0
 37 66  1  0  0  0
 37111  1  0  0  0
 38 43  2  0  0  0
 38 46  1  0  0  0
 38 47  1  0  0  0
 39 64  1  0  0  0
 39 67  2  0  0  0
 40 52  1  0  0  0
 40 53  2  0  0  0
 40 58  1  0  0  0
 41112  1  0  0  0
 41113  1  0  0  0
 41114  1  0  0  0
 41 48  1  0  0  0
 42 43  1  0  0  0
 42 66  1  0  0  0
 42115  1  0  0  0
 42116  1  0  0  0
 43 44  1  0  0  0
 44117  1  0  0  0
 45 46  2  0  0  0
 45118  1  0  0  0
 46119  1  0  0  0
 47120  1  0  0  0
 47121  1  0  0  0
 48 56  1  0  0  0
 48 65  1  0  0  0
 48122  1  0  0  0
 49 50  1  0  0  0
 49 53  1  0  0  0
 49 64  1  0  0  0
 49123  1  0  0  0
 50 51  1  0  0  0
 50124  1  0  0  0
 50125  1  0  0  0
 51 52  1  0  0  0
 51126  1  0  0  0
 51127  1  0  0  0
 52128  1  0  0  0
 52129  1  0  0  0
 53 54  1  0  0  0
 54 55  2  0  0  0
 54130  1  0  0  0
 55 57  1  0  0  0
 55131  1  0  0  0
 56 69  2  0  0  0
 57 58  2  0  0  0
 57132  1  0  0  0
 58133  1  0  0  0
 59 60  1  0  0  0
 59 61  1  0  0  0
 59 62  1  0  0  0
 60134  1  0  0  0
 60135  1  0  0  0
 60136  1  0  0  0
 61137  1  0  0  0
 61138  1  0  0  0
 61139  1  0  0  0
 62140  1  0  0  0
 62141  1  0  0  0
 62142  1  0  0  0
 63 65  1  0  0  0
 63143  1  0  0  0
 63144  1  0  0  0
 63145  1  0  0  0
 64146  1  0  0  0
 65147  1  0  0  0
 68 86  1  0  0  0
 71 72  2  0  0  0
 71 74  1  0  0  0
 71 76  1  0  0  0
 72 73  1  0  0  0
 72 79  1  0  0  0
 73 75  2  0  0  0
 73 81  1  0  0  0
 74 77  1  0  0  0
 74 87  2  0  0  0
 75 82  1  0  0  0
 75 87  1  0  0  0
 76 78  1  0  0  0
 76148  1  0  0  0
 76149  1  0  0  0
 77 78  1  0  0  0
 77150  1  0  0  0
 77151  1  0  0  0
 78 83  1  0  0  0
 78152  1  0  0  0
 79153  1  0  0  0
 79154  1  0  0  0
 79155  1  0  0  0
 80 84  1  0  0  0
 80156  1  0  0  0
 80157  1  0  0  0
 80158  1  0  0  0
 81 88  1  0  0  0
 81159  1  0  0  0
 81160  1  0  0  0
 82 84  1  0  0  0
 82161  1  0  0  0
 82162  1  0  0  0
 83 85  1  0  0  0
 83163  1  0  0  0
 83164  1  0  0  0
 84165  1  0  0  0
 84166  1  0  0  0
 85 86  1  0  0  0
 85167  1  0  0  0
 85168  1  0  0  0
 86169  1  0  0  0
 86170  1  0  0  0
 88171  1  0  0  0
M  ISO  4   1 100  68 101  86 101  88 100
M  END
> <chiral flag>
0

> <version>
0

> <s_m_source_file>
/data/baiqing/PycharmProjects/Reinvent-master-3.2/result/LINK_invent/BTK/process_docking_weight1_custom_sum_contain_oxygen_bond_distance_aromatic_linkinvent_7_9_3/rearranged_h_0027.sdf

> <i_m_source_file_index>
54

> <r_mmod_Potential_Energy-OPLS-2005>
-141.219009399414

> <r_mmod_Stretch_Energy-OPLS-2005>
38.2613792419434

> <r_mmod_Bend_Energy-OPLS-2005>
136.333847045898

> <r_mmod_Torsional_Energy-OPLS-2005>
230.899978637695

> <r_mmod_Improper_Torsional_Energy-OPLS-2005>
3.20430278778076

> <r_mmod_Van_der_Waal_Energy-OPLS-2005>
152.685302734375

> <r_mmod_Electrostatic_Energy-OPLS-2005>
-499.645751953125

> <r_mmod_Solvation_Energy-OPLS-2005>
-213.308471679688

> <b_mmod_Minimization_Converged-OPLS-2005>
0

> <r_mmod_RMS_Derivative-OPLS-2005>
0.931690454483032

$$$$
54
                    3D
 Structure written by MMmdl.
153161  0  0  1  0            999 V2000
  -30.5330  -15.0197   20.3091 C   0  0  0  0  0  0
  -30.4539  -12.5929   19.5381 C   0  0  0  0  0  0
  -29.5520  -12.3638   18.3031 C   0  0  0  0  0  0
  -28.0575  -12.2668   18.6877 C   0  0  0  0  0  0
  -27.6189  -13.2352   19.8219 C   0  0  2  0  0  0
  -28.6634  -13.3521   20.9438 C   0  0  0  0  0  0
  -25.2463  -13.8180   20.5742 C   0  0  0  0  0  0
  -24.1764  -13.0428   20.9247 C   0  0  0  0  0  0
  -24.6360  -11.6909   20.8792 C   0  0  0  0  0  0
  -23.9049  -10.4291   21.0429 C   0  0  0  0  0  0
  -24.3607   -9.4206   21.9198 C   0  0  0  0  0  0
  -23.6286   -8.2240   22.0754 C   0  0  0  0  0  0
  -22.4270   -8.0283   21.3542 C   0  0  0  0  0  0
  -21.9905   -9.0257   20.4644 C   0  0  0  0  0  0
  -22.7230  -10.2137   20.3066 C   0  0  0  0  0  0
  -21.6854   -6.0736   22.5274 C   0  0  0  0  0  0
  -21.4022   -6.5641   23.8207 C   0  0  0  0  0  0
  -21.3650   -5.6792   24.9167 C   0  0  0  0  0  0
  -21.6038   -4.3055   24.7220 C   0  0  0  0  0  0
  -21.8824   -3.8147   23.4343 C   0  0  0  0  0  0
  -21.9195   -4.6963   22.3398 C   0  0  0  0  0  0
  -22.7792  -13.5215   21.1883 C   0  0  0  0  0  0
  -22.1667   -4.2151   21.0977 F   0  0  0  0  0  0
  -21.5614   -3.4536   25.7732 F   0  0  0  0  0  0
  -29.9299  -13.7533   20.3184 N   0  0  0  0  0  0
  -26.2850  -12.9369   20.3252 N   0  0  0  0  0  0
  -25.9289  -11.6528   20.5809 N   0  0  0  0  0  0
  -22.0438  -12.8204   22.0435 N   0  0  0  0  0  0
  -25.4172  -15.1907   20.4183 N   0  0  0  0  0  0
  -31.7666  -15.0098   20.2116 O   0  0  0  0  0  0
  -21.6640   -6.8878   21.4236 O   0  0  0  0  0  0
  -22.3492  -14.5525   20.6724 O   0  0  0  0  0  0
  -24.6428  -31.8440   23.1875 C   0  0  0  0  0  0
  -25.9202  -32.4694   23.8262 C   0  0  1  0  0  0
  -27.2230  -27.1366   20.1643 C   0  0  0  0  0  0
  -25.5954  -33.8502   24.2183 N   0  0  0  0  0  0
  -23.4467  -30.4618   21.5318 C   0  0  2  0  0  0
  -24.8992  -28.8870   20.1097 C   0  0  0  0  0  0
  -22.7561  -29.4543   22.4849 C   0  0  0  0  0  0
  -18.0302  -28.1409   22.8474 C   0  0  0  0  0  0
  -24.1487  -36.7259   23.2639 C   0  0  0  0  0  0
  -26.0012  -30.7188   21.3854 C   0  0  0  0  0  0
  -26.0740  -29.3289   20.7305 C   0  0  0  0  0  0
  -27.2356  -28.4705   20.7401 C   0  0  0  0  0  0
  -26.0245  -26.7968   19.4970 C   0  0  0  0  0  0
  -24.8880  -27.6352   19.4756 C   0  0  0  0  0  0
  -23.6742  -29.7885   20.1516 C   0  0  0  0  0  0
  -25.4119  -36.3032   24.0310 C   0  0  1  0  0  0
  -20.5914  -28.3731   23.1239 C   0  0  2  0  0  0
  -20.6792  -26.9434   22.5409 C   0  0  0  0  0  0
  -19.5765  -26.6389   21.5220 C   0  0  0  0  0  0
  -18.1944  -26.7947   22.1626 C   0  0  0  0  0  0
  -19.1559  -28.8889   23.2847 C   0  0  0  0  0  0
  -18.9479  -30.1489   23.8866 C   0  0  0  0  0  0
  -17.6476  -30.6601   24.0568 C   0  0  0  0  0  0
  -25.9072  -34.9407   23.5054 C   0  0  0  0  0  0
  -16.5365  -29.9097   23.6347 C   0  0  0  0  0  0
  -16.7288  -28.6522   23.0351 C   0  0  0  0  0  0
  -26.4526  -31.6568   25.0708 C   0  0  0  0  0  0
  -25.3709  -31.3769   26.1404 C   0  0  0  0  0  0
  -27.0399  -30.2964   24.6293 C   0  0  0  0  0  0
  -27.6049  -32.4341   25.7497 C   0  0  0  0  0  0
  -27.5568  -37.1785   24.8461 C   0  0  0  0  0  0
  -21.4254  -29.3053   22.3606 N   0  0  0  0  0  0
  -26.4277  -37.3747   23.9408 N   0  0  0  0  0  0
  -24.7165  -31.0295   22.0905 N   0  0  0  0  0  0
  -23.4205  -28.8085   23.2998 O   0  0  0  0  0  0
  -28.2807  -26.1589   20.2595 O   0  0  0  0  0  0
  -26.5653  -34.8909   22.4630 O   0  0  0  0  0  0
  -23.5550  -32.1311   23.7099 O   0  0  0  0  0  0
  -28.4057  -17.8725   18.5516 C   0  0  0  0  0  0
  -29.7843  -16.4462   20.0545 C   0  0  0  0  0  0
  -29.0161  -16.6392   18.8631 C   0  0  0  0  0  0
  -29.9736  -17.7600   20.7485 C   0  0  0  0  0  0
  -29.3576  -19.0489   20.2949 C   0  0  0  0  0  0
  -29.2699  -23.5251   22.1301 C   0  0  0  0  0  0
  -29.5461  -20.5872   20.8489 C   0  0  0  0  0  0
  -28.0319  -24.6244   20.1055 C   0  0  0  0  0  0
  -29.0343  -23.3599   20.6170 C   0  0  2  0  0  0
  -28.5478  -19.0305   19.2240 N   0  0  0  0  0  0
  -28.7324  -21.8268   20.2803 N   0  3  0  0  0  0
  -28.8996  -15.4796   17.5973 Cl  0  0  0  0  0  0
  -30.9960  -17.8142   22.1400 Cl  0  0  0  0  0  0
  -31.4839  -12.7502   19.2145 H   0  0  0  0  0  0
  -30.4762  -11.6988   20.1637 H   0  0  0  0  0  0
  -29.8493  -11.4344   17.8159 H   0  0  0  0  0  0
  -29.7355  -13.1186   17.5480 H   0  0  0  0  0  0
  -27.8958  -11.2395   19.0158 H   0  0  0  0  0  0
  -27.4283  -12.3997   17.8069 H   0  0  0  0  0  0
  -27.5381  -14.2155   19.3679 H   0  0  0  0  0  0
  -28.7679  -12.4120   21.4872 H   0  0  0  0  0  0
  -28.3540  -14.1014   21.6739 H   0  0  0  0  0  0
  -25.2754   -9.5682   22.4773 H   0  0  0  0  0  0
  -23.9994   -7.4627   22.7469 H   0  0  0  0  0  0
  -21.0837   -8.8781   19.8947 H   0  0  0  0  0  0
  -22.3695  -10.9681   19.6176 H   0  0  0  0  0  0
  -21.2037   -7.6152   23.9711 H   0  0  0  0  0  0
  -21.1453   -6.0522   25.9065 H   0  0  0  0  0  0
  -22.0613   -2.7611   23.2841 H   0  0  0  0  0  0
  -22.4056  -11.9857   22.4807 H   0  0  0  0  0  0
  -21.1051  -13.1220   22.2640 H   0  0  0  0  0  0
  -24.6513  -15.8448   20.5378 H   0  0  0  0  0  0
  -26.2684  -15.6297   20.0959 H   0  0  0  0  0  0
  -26.7263  -32.5305   23.0984 H   0  0  0  0  0  0
  -25.0098  -33.9618   25.0328 H   0  0  0  0  0  0
  -22.7491  -31.2872   21.3754 H   0  0  0  0  0  0
  -23.3753  -35.9588   23.3290 H   0  0  0  0  0  0
  -24.3563  -36.8909   22.2055 H   0  0  0  0  0  0
  -23.7250  -37.6451   23.6691 H   0  0  0  0  0  0
  -26.1532  -31.4704   20.6098 H   0  0  0  0  0  0
  -26.8731  -30.7723   22.0255 H   0  0  0  0  0  0
  -28.1279  -28.8032   21.2513 H   0  0  0  0  0  0
  -25.9318  -25.8405   19.0042 H   0  0  0  0  0  0
  -23.9930  -27.2929   18.9743 H   0  0  0  0  0  0
  -23.8101  -30.5624   19.3952 H   0  0  0  0  0  0
  -22.7900  -29.2288   19.8408 H   0  0  0  0  0  0
  -25.1309  -36.1848   25.0802 H   0  0  0  0  0  0
  -21.0006  -28.3330   24.1361 H   0  0  0  0  0  0
  -20.5705  -26.2338   23.3627 H   0  0  0  0  0  0
  -21.6655  -26.7454   22.1190 H   0  0  0  0  0  0
  -19.6927  -25.6293   21.1267 H   0  0  0  0  0  0
  -19.6709  -27.3187   20.6740 H   0  0  0  0  0  0
  -17.4214  -26.6696   21.4024 H   0  0  0  0  0  0
  -18.0334  -26.0096   22.9029 H   0  0  0  0  0  0
  -19.7954  -30.7323   24.2202 H   0  0  0  0  0  0
  -17.5030  -31.6273   24.5187 H   0  0  0  0  0  0
  -15.5367  -30.2992   23.7692 H   0  0  0  0  0  0
  -15.8686  -28.0846   22.7067 H   0  0  0  0  0  0
  -24.5882  -30.7121   25.7728 H   0  0  0  0  0  0
  -24.8903  -32.2959   26.4772 H   0  0  0  0  0  0
  -25.7984  -30.8978   27.0220 H   0  0  0  0  0  0
  -26.3021  -29.6680   24.1287 H   0  0  0  0  0  0
  -27.3996  -29.7270   25.4875 H   0  0  0  0  0  0
  -27.8932  -30.4201   23.9621 H   0  0  0  0  0  0
  -27.2632  -33.3662   26.2012 H   0  0  0  0  0  0
  -28.3893  -32.6876   25.0353 H   0  0  0  0  0  0
  -28.0677  -31.8511   26.5469 H   0  0  0  0  0  0
  -28.2577  -38.0089   24.7505 H   0  0  0  0  0  0
  -28.1072  -36.2618   24.6289 H   0  0  0  0  0  0
  -27.2279  -37.1428   25.8861 H   0  0  0  0  0  0
  -20.9461  -29.8763   21.6785 H   0  0  0  0  0  0
  -26.0141  -38.2810   24.1427 H   0  0  0  0  0  0
  -27.8263  -17.9572   17.6437 H   0  0  0  0  0  0
  -29.5570  -24.5505   22.3669 H   0  0  0  0  0  0
  -30.0721  -22.8818   22.4918 H   0  0  0  0  0  0
  -28.3700  -23.2985   22.7026 H   0  0  0  0  0  0
  -30.6031  -20.8221   20.7276 H   0  0  0  0  0  0
  -29.3808  -20.5529   21.9255 H   0  0  0  0  0  0
  -27.0639  -24.4367   20.5713 H   0  0  0  0  0  0
  -27.8645  -24.4692   19.0394 H   0  0  0  0  0  0
  -29.9945  -23.5502   20.1357 H   0  0  0  0  0  0
  -27.7724  -21.6311   20.5143 H   0  0  0  0  0  0
  -28.7813  -21.7141   19.2794 H   0  0  0  0  0  0
  1 25  1  0  0  0
  1 30  2  0  0  0
  1 72  1  0  0  0
  2  3  1  0  0  0
  2 25  1  0  0  0
  2 84  1  0  0  0
  2 85  1  0  0  0
  3  4  1  0  0  0
  3 86  1  0  0  0
  3 87  1  0  0  0
  4  5  1  0  0  0
  4 88  1  0  0  0
  4 89  1  0  0  0
  5  6  1  0  0  0
  5 26  1  0  0  0
  5 90  1  0  0  0
  6 25  1  0  0  0
  6 91  1  0  0  0
  6 92  1  0  0  0
  7  8  2  0  0  0
  7 26  1  0  0  0
  7 29  1  0  0  0
  8  9  1  0  0  0
  8 22  1  0  0  0
  9 10  1  0  0  0
  9 27  2  0  0  0
 10 11  2  0  0  0
 10 15  1  0  0  0
 11 12  1  0  0  0
 11 93  1  0  0  0
 12 13  2  0  0  0
 12 94  1  0  0  0
 13 14  1  0  0  0
 13 31  1  0  0  0
 14 15  2  0  0  0
 14 95  1  0  0  0
 15 96  1  0  0  0
 16 17  2  0  0  0
 16 21  1  0  0  0
 16 31  1  0  0  0
 17 18  1  0  0  0
 17 97  1  0  0  0
 18 19  2  0  0  0
 18 98  1  0  0  0
 19 20  1  0  0  0
 19 24  1  0  0  0
 20 21  2  0  0  0
 20 99  1  0  0  0
 21 23  1  0  0  0
 22 28  1  0  0  0
 22 32  2  0  0  0
 26 27  1  0  0  0
 28100  1  0  0  0
 28101  1  0  0  0
 29102  1  0  0  0
 29103  1  0  0  0
 33 34  1  0  0  0
 33 66  1  0  0  0
 33 70  2  0  0  0
 34 36  1  0  0  0
 34 59  1  0  0  0
 34104  1  0  0  0
 35 44  2  0  0  0
 35 45  1  0  0  0
 35 68  1  0  0  0
 36 56  1  0  0  0
 36105  1  0  0  0
 37 39  1  0  0  0
 37 47  1  0  0  0
 37 66  1  0  0  0
 37106  1  0  0  0
 38 43  2  0  0  0
 38 46  1  0  0  0
 38 47  1  0  0  0
 39 64  1  0  0  0
 39 67  2  0  0  0
 40 52  1  0  0  0
 40 53  2  0  0  0
 40 58  1  0  0  0
 41107  1  0  0  0
 41108  1  0  0  0
 41109  1  0  0  0
 41 48  1  0  0  0
 42 43  1  0  0  0
 42 66  1  0  0  0
 42110  1  0  0  0
 42111  1  0  0  0
 43 44  1  0  0  0
 44112  1  0  0  0
 45 46  2  0  0  0
 45113  1  0  0  0
 46114  1  0  0  0
 47115  1  0  0  0
 47116  1  0  0  0
 48 56  1  0  0  0
 48 65  1  0  0  0
 48117  1  0  0  0
 49 50  1  0  0  0
 49 53  1  0  0  0
 49 64  1  0  0  0
 49118  1  0  0  0
 50 51  1  0  0  0
 50119  1  0  0  0
 50120  1  0  0  0
 51 52  1  0  0  0
 51121  1  0  0  0
 51122  1  0  0  0
 52123  1  0  0  0
 52124  1  0  0  0
 53 54  1  0  0  0
 54 55  2  0  0  0
 54125  1  0  0  0
 55 57  1  0  0  0
 55126  1  0  0  0
 56 69  2  0  0  0
 57 58  2  0  0  0
 57127  1  0  0  0
 58128  1  0  0  0
 59 60  1  0  0  0
 59 61  1  0  0  0
 59 62  1  0  0  0
 60129  1  0  0  0
 60130  1  0  0  0
 60131  1  0  0  0
 61132  1  0  0  0
 61133  1  0  0  0
 61134  1  0  0  0
 62135  1  0  0  0
 62136  1  0  0  0
 62137  1  0  0  0
 63 65  1  0  0  0
 63138  1  0  0  0
 63139  1  0  0  0
 63140  1  0  0  0
 64141  1  0  0  0
 65142  1  0  0  0
 68 78  1  0  0  0
 71 73  2  0  0  0
 71 80  1  0  0  0
 71143  1  0  0  0
 72 73  1  0  0  0
 72 74  2  0  0  0
 73 82  1  0  0  0
 74 75  1  0  0  0
 74 83  1  0  0  0
 75 77  1  0  0  0
 75 80  2  0  0  0
 76144  1  0  0  0
 76145  1  0  0  0
 76146  1  0  0  0
 76 79  1  0  0  0
 77 81  1  0  0  0
 77147  1  0  0  0
 77148  1  0  0  0
 78 79  1  0  0  0
 78149  1  0  0  0
 78150  1  0  0  0
 79 81  1  0  0  0
 79151  1  0  0  0
 81152  1  0  0  0
 81153  1  0  0  0
M  CHG  1  81   1
M  ISO  4   1 100  68 101  72 100  78 101
M  END
> <chiral flag>
0

> <version>
0

> <s_m_source_file>
/data/baiqing/PycharmProjects/Reinvent-master-3.2/result/LINK_invent/BTK/process_docking_weight1_custom_sum_contain_oxygen_bond_distance_aromatic_linkinvent_7_9_3/rearranged_h_0027.sdf

> <i_m_source_file_index>
55

> <r_mmod_Potential_Energy-OPLS-2005>
353.971649169922

> <r_mmod_Stretch_Energy-OPLS-2005>
269.198211669922

> <r_mmod_Bend_Energy-OPLS-2005>
249.560684204102

> <r_mmod_Torsional_Energy-OPLS-2005>
231.498046875

> <r_mmod_Improper_Torsional_Energy-OPLS-2005>
10.3908090591431

> <r_mmod_Van_der_Waal_Energy-OPLS-2005>
133.674194335938

> <r_mmod_Electrostatic_Energy-OPLS-2005>
-326.429840087891

> <r_mmod_Solvation_Energy-OPLS-2005>
-445.438079833984

> <b_mmod_Minimization_Converged-OPLS-2005>
0

> <r_mmod_RMS_Derivative-OPLS-2005>
0.797609388828278

$$$$
55
                    3D
 Structure written by MMmdl.
149157  0  0  1  0            999 V2000
  -30.5528  -14.9625   20.4136 C   0  0  0  0  0  0
  -30.4352  -12.5965   19.4963 C   0  0  0  0  0  0
  -29.5183  -12.5267   18.2541 C   0  0  0  0  0  0
  -28.0529  -12.3113   18.6752 C   0  0  0  0  0  0
  -27.6262  -13.2501   19.8341 C   0  0  2  0  0  0
  -28.6702  -13.2957   20.9700 C   0  0  0  0  0  0
  -25.2447  -13.8219   20.5711 C   0  0  0  0  0  0
  -24.1771  -13.0440   20.9240 C   0  0  0  0  0  0
  -24.6391  -11.6927   20.8764 C   0  0  0  0  0  0
  -23.9077  -10.4295   21.0411 C   0  0  0  0  0  0
  -24.3627   -9.4207   21.9185 C   0  0  0  0  0  0
  -23.6299   -8.2242   22.0754 C   0  0  0  0  0  0
  -22.4280   -8.0282   21.3545 C   0  0  0  0  0  0
  -21.9919   -9.0257   20.4648 C   0  0  0  0  0  0
  -22.7250  -10.2135   20.3059 C   0  0  0  0  0  0
  -21.6855   -6.0737   22.5279 C   0  0  0  0  0  0
  -21.4016   -6.5640   23.8212 C   0  0  0  0  0  0
  -21.3660   -5.6792   24.9174 C   0  0  0  0  0  0
  -21.6044   -4.3055   24.7224 C   0  0  0  0  0  0
  -21.8819   -3.8147   23.4345 C   0  0  0  0  0  0
  -21.9192   -4.6964   22.3402 C   0  0  0  0  0  0
  -22.7791  -13.5210   21.1888 C   0  0  0  0  0  0
  -22.1661   -4.2151   21.0979 F   0  0  0  0  0  0
  -21.5629   -3.4538   25.7736 F   0  0  0  0  0  0
  -29.9417  -13.7075   20.3625 N   0  0  0  0  0  0
  -26.2870  -12.9455   20.3236 N   0  0  0  0  0  0
  -25.9323  -11.6584   20.5744 N   0  0  0  0  0  0
  -22.0438  -12.8201   22.0444 N   0  0  0  0  0  0
  -25.4092  -15.1949   20.4117 N   0  0  0  0  0  0
  -31.7666  -14.9764   20.1724 O   0  0  0  0  0  0
  -21.6643   -6.8880   21.4241 O   0  0  0  0  0  0
  -22.3477  -14.5511   20.6724 O   0  0  0  0  0  0
  -24.6449  -31.8426   23.1869 C   0  0  0  0  0  0
  -25.9215  -32.4686   23.8263 C   0  0  1  0  0  0
  -27.2142  -27.1205   20.1533 C   0  0  0  0  0  0
  -25.5955  -33.8492   24.2178 N   0  0  0  0  0  0
  -23.4490  -30.4621   21.5331 C   0  0  2  0  0  0
  -24.8977  -28.8863   20.1104 C   0  0  0  0  0  0
  -22.7575  -29.4541   22.4854 C   0  0  0  0  0  0
  -18.0307  -28.1397   22.8477 C   0  0  0  0  0  0
  -24.1493  -36.7253   23.2643 C   0  0  0  0  0  0
  -26.0062  -30.7117   21.3876 C   0  0  0  0  0  0
  -26.0766  -29.3217   20.7287 C   0  0  0  0  0  0
  -27.2362  -28.4561   20.7307 C   0  0  0  0  0  0
  -26.0077  -26.7902   19.4972 C   0  0  0  0  0  0
  -24.8771  -27.6347   19.4785 C   0  0  0  0  0  0
  -23.6757  -29.7908   20.1528 C   0  0  0  0  0  0
  -25.4125  -36.3026   24.0314 C   0  0  1  0  0  0
  -20.5920  -28.3725   23.1231 C   0  0  2  0  0  0
  -20.6791  -26.9427   22.5403 C   0  0  0  0  0  0
  -19.5763  -26.6380   21.5214 C   0  0  0  0  0  0
  -18.1945  -26.7934   22.1627 C   0  0  0  0  0  0
  -19.1564  -28.8879   23.2846 C   0  0  0  0  0  0
  -18.9479  -30.1475   23.8871 C   0  0  0  0  0  0
  -17.6475  -30.6592   24.0559 C   0  0  0  0  0  0
  -25.9076  -34.9402   23.5056 C   0  0  0  0  0  0
  -16.5366  -29.9084   23.6337 C   0  0  0  0  0  0
  -16.7291  -28.6503   23.0357 C   0  0  0  0  0  0
  -26.4529  -31.6560   25.0713 C   0  0  0  0  0  0
  -25.3708  -31.3757   26.1404 C   0  0  0  0  0  0
  -27.0399  -30.2954   24.6309 C   0  0  0  0  0  0
  -27.6053  -32.4334   25.7501 C   0  0  0  0  0  0
  -27.5575  -37.1783   24.8465 C   0  0  0  0  0  0
  -21.4266  -29.3048   22.3601 N   0  0  0  0  0  0
  -26.4287  -37.3741   23.9406 N   0  0  0  0  0  0
  -24.7201  -31.0271   22.0908 N   0  0  0  0  0  0
  -23.4211  -28.8090   23.3011 O   0  0  0  0  0  0
  -28.2616  -26.1249   20.2225 O   0  0  0  0  0  0
  -26.5666  -34.8903   22.4637 O   0  0  0  0  0  0
  -23.5564  -32.1309   23.7080 O   0  0  0  0  0  0
  -29.2195  -18.8357   20.3815 C   0  0  0  0  0  0
  -31.8346  -19.2869   20.7475 C   0  0  0  0  0  0
  -29.6122  -20.2809   20.4254 C   0  0  0  0  0  0
  -31.0091  -20.4274   20.6285 C   0  0  0  0  0  0
  -30.1397  -17.6651   20.5138 C   0  0  0  0  0  0
  -28.6235  -21.6155   20.2589 C   0  0  0  0  0  0
  -29.0106  -23.2757   20.3472 C   0  0  0  0  0  0
  -27.9670  -24.5903   20.1114 C   0  0  0  0  0  0
  -31.4354  -17.9937   20.6938 N   0  0  0  0  0  0
  -29.7838  -16.1692   20.4960 N   0  0  0  0  0  0
  -31.7897  -21.9638   20.7457 Cl  0  0  0  0  0  0
  -31.4693  -12.7463   19.1820 H   0  0  0  0  0  0
  -30.4256  -11.6505   20.0399 H   0  0  0  0  0  0
  -29.8400  -11.7237   17.5895 H   0  0  0  0  0  0
  -29.6037  -13.4517   17.6817 H   0  0  0  0  0  0
  -27.9535  -11.2717   18.9900 H   0  0  0  0  0  0
  -27.3883  -12.4346   17.8193 H   0  0  0  0  0  0
  -27.5835  -14.2479   19.3967 H   0  0  0  0  0  0
  -28.7623  -12.3260   21.4616 H   0  0  0  0  0  0
  -28.3687  -14.0075   21.7403 H   0  0  0  0  0  0
  -25.2768   -9.5685   22.4764 H   0  0  0  0  0  0
  -24.0008   -7.4634   22.7473 H   0  0  0  0  0  0
  -21.0847   -8.8778   19.8955 H   0  0  0  0  0  0
  -22.3703  -10.9677   19.6173 H   0  0  0  0  0  0
  -21.2010   -7.6148   23.9717 H   0  0  0  0  0  0
  -21.1482   -6.0522   25.9077 H   0  0  0  0  0  0
  -22.0597   -2.7609   23.2844 H   0  0  0  0  0  0
  -22.4059  -11.9873   22.4847 H   0  0  0  0  0  0
  -21.1051  -13.1222   22.2641 H   0  0  0  0  0  0
  -24.6334  -15.8403   20.5154 H   0  0  0  0  0  0
  -26.2393  -15.6353   20.0386 H   0  0  0  0  0  0
  -26.7279  -32.5286   23.0988 H   0  0  0  0  0  0
  -25.0073  -33.9603   25.0306 H   0  0  0  0  0  0
  -22.7523  -31.2886   21.3780 H   0  0  0  0  0  0
  -23.3758  -35.9582   23.3291 H   0  0  0  0  0  0
  -24.3576  -36.8901   22.2060 H   0  0  0  0  0  0
  -23.7246  -37.6444   23.6691 H   0  0  0  0  0  0
  -26.1644  -31.4655   20.6152 H   0  0  0  0  0  0
  -26.8757  -30.7612   22.0316 H   0  0  0  0  0  0
  -28.1340  -28.7848   21.2352 H   0  0  0  0  0  0
  -25.9008  -25.8343   19.0084 H   0  0  0  0  0  0
  -23.9773  -27.2960   18.9834 H   0  0  0  0  0  0
  -23.8139  -30.5648   19.3970 H   0  0  0  0  0  0
  -22.7898  -29.2344   19.8418 H   0  0  0  0  0  0
  -25.1315  -36.1850   25.0806 H   0  0  0  0  0  0
  -21.0013  -28.3317   24.1352 H   0  0  0  0  0  0
  -20.5688  -26.2339   23.3624 H   0  0  0  0  0  0
  -21.6656  -26.7433   22.1197 H   0  0  0  0  0  0
  -19.6924  -25.6285   21.1259 H   0  0  0  0  0  0
  -19.6697  -27.3177   20.6733 H   0  0  0  0  0  0
  -17.4213  -26.6675   21.4032 H   0  0  0  0  0  0
  -18.0347  -26.0084   22.9032 H   0  0  0  0  0  0
  -19.7954  -30.7300   24.2226 H   0  0  0  0  0  0
  -17.5027  -31.6270   24.5165 H   0  0  0  0  0  0
  -15.5364  -30.2976   23.7676 H   0  0  0  0  0  0
  -15.8693  -28.0814   22.7084 H   0  0  0  0  0  0
  -24.5882  -30.7115   25.7718 H   0  0  0  0  0  0
  -24.8905  -32.2944   26.4782 H   0  0  0  0  0  0
  -25.7981  -30.8951   27.0213 H   0  0  0  0  0  0
  -26.3022  -29.6668   24.1308 H   0  0  0  0  0  0
  -27.3995  -29.7264   25.4892 H   0  0  0  0  0  0
  -27.8937  -30.4184   23.9642 H   0  0  0  0  0  0
  -27.2637  -33.3652   26.2022 H   0  0  0  0  0  0
  -28.3893  -32.6868   25.0353 H   0  0  0  0  0  0
  -28.0689  -31.8499   26.5465 H   0  0  0  0  0  0
  -28.2584  -38.0088   24.7510 H   0  0  0  0  0  0
  -28.1080  -36.2616   24.6296 H   0  0  0  0  0  0
  -27.2291  -37.1433   25.8868 H   0  0  0  0  0  0
  -20.9479  -29.8758   21.6775 H   0  0  0  0  0  0
  -26.0151  -38.2808   24.1407 H   0  0  0  0  0  0
  -28.1697  -18.6224   20.2351 H   0  0  0  0  0  0
  -32.8954  -19.4221   20.8996 H   0  0  0  0  0  0
  -27.8255  -21.4553   20.9836 H   0  0  0  0  0  0
  -28.1404  -21.4734   19.2925 H   0  0  0  0  0  0
  -29.8150  -23.4368   19.6307 H   0  0  0  0  0  0
  -29.4607  -23.4307   21.3274 H   0  0  0  0  0  0
  -27.1191  -24.4157   20.7747 H   0  0  0  0  0  0
  -27.5728  -24.4445   19.1061 H   0  0  0  0  0  0
  -28.7945  -15.9917   20.5530 H   0  0  0  0  0  0
  1 25  1  0  0  0
  1 30  2  0  0  0
  1 80  1  0  0  0
  2  3  1  0  0  0
  2 25  1  0  0  0
  2 82  1  0  0  0
  2 83  1  0  0  0
  3  4  1  0  0  0
  3 84  1  0  0  0
  3 85  1  0  0  0
  4  5  1  0  0  0
  4 86  1  0  0  0
  4 87  1  0  0  0
  5  6  1  0  0  0
  5 26  1  0  0  0
  5 88  1  0  0  0
  6 25  1  0  0  0
  6 89  1  0  0  0
  6 90  1  0  0  0
  7  8  2  0  0  0
  7 26  1  0  0  0
  7 29  1  0  0  0
  8  9  1  0  0  0
  8 22  1  0  0  0
  9 10  1  0  0  0
  9 27  2  0  0  0
 10 11  2  0  0  0
 10 15  1  0  0  0
 11 12  1  0  0  0
 11 91  1  0  0  0
 12 13  2  0  0  0
 12 92  1  0  0  0
 13 14  1  0  0  0
 13 31  1  0  0  0
 14 15  2  0  0  0
 14 93  1  0  0  0
 15 94  1  0  0  0
 16 17  2  0  0  0
 16 21  1  0  0  0
 16 31  1  0  0  0
 17 18  1  0  0  0
 17 95  1  0  0  0
 18 19  2  0  0  0
 18 96  1  0  0  0
 19 20  1  0  0  0
 19 24  1  0  0  0
 20 21  2  0  0  0
 20 97  1  0  0  0
 21 23  1  0  0  0
 22 28  1  0  0  0
 22 32  2  0  0  0
 26 27  1  0  0  0
 28 98  1  0  0  0
 28 99  1  0  0  0
 29100  1  0  0  0
 29101  1  0  0  0
 33 34  1  0  0  0
 33 66  1  0  0  0
 33 70  2  0  0  0
 34 36  1  0  0  0
 34 59  1  0  0  0
 34102  1  0  0  0
 35 44  2  0  0  0
 35 45  1  0  0  0
 35 68  1  0  0  0
 36 56  1  0  0  0
 36103  1  0  0  0
 37 39  1  0  0  0
 37 47  1  0  0  0
 37 66  1  0  0  0
 37104  1  0  0  0
 38 43  2  0  0  0
 38 46  1  0  0  0
 38 47  1  0  0  0
 39 64  1  0  0  0
 39 67  2  0  0  0
 40 52  1  0  0  0
 40 53  2  0  0  0
 40 58  1  0  0  0
 41105  1  0  0  0
 41106  1  0  0  0
 41107  1  0  0  0
 41 48  1  0  0  0
 42 43  1  0  0  0
 42 66  1  0  0  0
 42108  1  0  0  0
 42109  1  0  0  0
 43 44  1  0  0  0
 44110  1  0  0  0
 45 46  2  0  0  0
 45111  1  0  0  0
 46112  1  0  0  0
 47113  1  0  0  0
 47114  1  0  0  0
 48 56  1  0  0  0
 48 65  1  0  0  0
 48115  1  0  0  0
 49 50  1  0  0  0
 49 53  1  0  0  0
 49 64  1  0  0  0
 49116  1  0  0  0
 50 51  1  0  0  0
 50117  1  0  0  0
 50118  1  0  0  0
 51 52  1  0  0  0
 51119  1  0  0  0
 51120  1  0  0  0
 52121  1  0  0  0
 52122  1  0  0  0
 53 54  1  0  0  0
 54 55  2  0  0  0
 54123  1  0  0  0
 55 57  1  0  0  0
 55124  1  0  0  0
 56 69  2  0  0  0
 57 58  2  0  0  0
 57125  1  0  0  0
 58126  1  0  0  0
 59 60  1  0  0  0
 59 61  1  0  0  0
 59 62  1  0  0  0
 60127  1  0  0  0
 60128  1  0  0  0
 60129  1  0  0  0
 61130  1  0  0  0
 61131  1  0  0  0
 61132  1  0  0  0
 62133  1  0  0  0
 62134  1  0  0  0
 62135  1  0  0  0
 63 65  1  0  0  0
 63136  1  0  0  0
 63137  1  0  0  0
 63138  1  0  0  0
 64139  1  0  0  0
 65140  1  0  0  0
 68 78  1  0  0  0
 71 73  2  0  0  0
 71 75  1  0  0  0
 71141  1  0  0  0
 72 74  2  0  0  0
 72 79  1  0  0  0
 72142  1  0  0  0
 73 74  1  0  0  0
 73 76  1  0  0  0
 74 81  1  0  0  0
 75 79  2  0  0  0
 75 80  1  0  0  0
 76 77  1  0  0  0
 76143  1  0  0  0
 76144  1  0  0  0
 77 78  1  0  0  0
 77145  1  0  0  0
 77146  1  0  0  0
 78147  1  0  0  0
 78148  1  0  0  0
 80149  1  0  0  0
M  ISO  4   1 100  68 101  78 101  80 100
M  END
> <chiral flag>
0

> <version>
0

> <s_m_source_file>
/data/baiqing/PycharmProjects/Reinvent-master-3.2/result/LINK_invent/BTK/process_docking_weight1_custom_sum_contain_oxygen_bond_distance_aromatic_linkinvent_7_9_3/rearranged_h_0027.sdf

> <i_m_source_file_index>
56

> <r_mmod_Potential_Energy-OPLS-2005>
415.91015625

> <r_mmod_Stretch_Energy-OPLS-2005>
282.343627929688

> <r_mmod_Bend_Energy-OPLS-2005>
258.282470703125

> <r_mmod_Torsional_Energy-OPLS-2005>
202.505752563477

> <r_mmod_Improper_Torsional_Energy-OPLS-2005>
5.26662397384644

> <r_mmod_Van_der_Waal_Energy-OPLS-2005>
139.756301879883

> <r_mmod_Electrostatic_Energy-OPLS-2005>
-436.182952880859

> <r_mmod_Solvation_Energy-OPLS-2005>
-239.276565551758

> <b_mmod_Minimization_Converged-OPLS-2005>
0

> <r_mmod_RMS_Derivative-OPLS-2005>
0.271165907382965

$$$$
56
                    3D
 Structure written by MMmdl.
161169  0  0  1  0            999 V2000
  -30.7538  -14.4172   20.5901 C   0  0  0  0  0  0
  -30.4171  -12.2920   19.3883 C   0  0  0  0  0  0
  -29.4727  -12.4863   18.1871 C   0  0  0  0  0  0
  -28.0010  -12.3244   18.6171 C   0  0  0  0  0  0
  -27.6474  -13.1672   19.8688 C   0  0  2  0  0  0
  -28.7064  -12.9853   20.9797 C   0  0  0  0  0  0
  -25.2588  -13.8059   20.5713 C   0  0  0  0  0  0
  -24.1801  -13.0400   20.9200 C   0  0  0  0  0  0
  -24.6303  -11.6846   20.8769 C   0  0  0  0  0  0
  -23.8968  -10.4264   21.0439 C   0  0  0  0  0  0
  -24.3546   -9.4185   21.9206 C   0  0  0  0  0  0
  -23.6253   -8.2213   22.0752 C   0  0  0  0  0  0
  -22.4243   -8.0252   21.3535 C   0  0  0  0  0  0
  -21.9852   -9.0224   20.4649 C   0  0  0  0  0  0
  -22.7152  -10.2116   20.3076 C   0  0  0  0  0  0
  -21.6845   -6.0722   22.5283 C   0  0  0  0  0  0
  -21.4011   -6.5626   23.8218 C   0  0  0  0  0  0
  -21.3647   -5.6783   24.9181 C   0  0  0  0  0  0
  -21.6039   -4.3047   24.7228 C   0  0  0  0  0  0
  -21.8831   -3.8138   23.4351 C   0  0  0  0  0  0
  -21.9194   -4.6953   22.3406 C   0  0  0  0  0  0
  -22.7840  -13.5252   21.1846 C   0  0  0  0  0  0
  -22.1665   -4.2143   21.0982 F   0  0  0  0  0  0
  -21.5616   -3.4518   25.7734 F   0  0  0  0  0  0
  -30.0331  -13.2774   20.4055 N   0  0  0  0  0  0
  -26.2948  -12.9119   20.3397 N   0  0  0  0  0  0
  -25.9202  -11.6330   20.5793 N   0  0  0  0  0  0
  -22.0461  -12.8275   22.0409 N   0  0  0  0  0  0
  -25.4344  -15.1778   20.4111 N   0  0  0  0  0  0
  -31.9117  -14.5644   20.1887 O   0  0  0  0  0  0
  -21.6615   -6.8849   21.4236 O   0  0  0  0  0  0
  -22.3554  -14.5565   20.6675 O   0  0  0  0  0  0
  -24.6106  -31.8721   23.2141 C   0  0  0  0  0  0
  -25.9037  -32.4826   23.8414 C   0  0  1  0  0  0
  -27.2362  -27.4793   20.0769 C   0  0  0  0  0  0
  -25.5931  -33.8626   24.2360 N   0  0  0  0  0  0
  -23.3933  -30.4973   21.5547 C   0  0  2  0  0  0
  -24.8364  -28.9695   20.1159 C   0  0  0  0  0  0
  -22.7378  -29.4678   22.5018 C   0  0  0  0  0  0
  -18.0261  -28.1343   22.8505 C   0  0  0  0  0  0
  -24.1493  -36.7307   23.2635 C   0  0  0  0  0  0
  -25.9191  -30.8467   21.3648 C   0  0  0  0  0  0
  -25.9923  -29.4857   20.7109 C   0  0  0  0  0  0
  -27.1899  -28.7444   20.6956 C   0  0  0  0  0  0
  -26.0565  -26.9657   19.4829 C   0  0  0  0  0  0
  -24.8597  -27.7041   19.5049 C   0  0  0  0  0  0
  -23.5965  -29.8288   20.1686 C   0  0  0  0  0  0
  -25.4114  -36.3110   24.0339 C   0  0  1  0  0  0
  -20.5850  -28.3642   23.1328 C   0  0  2  0  0  0
  -20.6760  -26.9385   22.5416 C   0  0  0  0  0  0
  -19.5739  -26.6370   21.5209 C   0  0  0  0  0  0
  -18.1913  -26.7894   22.1617 C   0  0  0  0  0  0
  -19.1513  -28.8806   23.2906 C   0  0  0  0  0  0
  -18.9446  -30.1411   23.8916 C   0  0  0  0  0  0
  -17.6455  -30.6561   24.0556 C   0  0  0  0  0  0
  -25.9042  -34.9472   23.5132 C   0  0  0  0  0  0
  -16.5342  -29.9068   23.6316 C   0  0  0  0  0  0
  -16.7252  -28.6467   23.0368 C   0  0  0  0  0  0
  -26.4492  -31.6582   25.0717 C   0  0  0  0  0  0
  -25.3776  -31.3691   26.1483 C   0  0  0  0  0  0
  -27.0339  -30.3031   24.6075 C   0  0  0  0  0  0
  -27.6066  -32.4311   25.7470 C   0  0  0  0  0  0
  -27.5583  -37.1808   24.8468 C   0  0  0  0  0  0
  -21.4119  -29.3023   22.3752 N   0  0  0  0  0  0
  -26.4302  -37.3793   23.9402 N   0  0  0  0  0  0
  -24.6584  -31.0860   22.1024 N   0  0  0  0  0  0
  -23.4179  -28.8226   23.3041 O   0  0  0  0  0  0
  -28.4465  -26.8226   20.0810 O   0  0  0  0  0  0
  -26.5575  -34.8919   22.4678 O   0  0  0  0  0  0
  -23.5314  -32.1467   23.7564 O   0  0  0  0  0  0
  -27.4389  -17.8874   18.9680 C   0  0  0  0  0  0
  -27.7002  -18.1776   20.3209 C   0  0  0  0  0  0
  -28.5980  -17.3473   21.0346 C   0  0  0  0  0  0
  -28.1370  -16.8447   18.3531 C   0  0  0  0  0  0
  -29.2239  -16.2817   20.3450 C   0  0  0  0  0  0
  -27.9234  -16.5089   16.8955 C   0  0  0  0  0  0
  -27.0912  -19.4354   20.9122 C   0  0  0  0  0  0
  -27.5860  -20.6433   20.1068 C   0  0  0  0  0  0
  -27.3810  -22.0017   20.7728 C   0  0  0  0  0  0
  -27.9840  -23.0856   19.8759 C   0  0  0  0  0  0
  -27.9383  -24.4793   20.4917 C   0  0  0  0  0  0
  -28.5339  -25.5192   19.5295 C   0  0  0  0  0  0
  -29.0203  -16.0826   19.0184 N   0  0  0  0  0  0
  -30.0913  -15.4579   21.1010 N   0  0  0  0  0  0
  -28.9520  -17.6256   22.7097 Cl  0  0  0  0  0  0
  -31.4547  -12.3991   19.0666 H   0  0  0  0  0  0
  -30.3324  -11.2814   19.7898 H   0  0  0  0  0  0
  -29.7123  -11.7674   17.4029 H   0  0  0  0  0  0
  -29.6229  -13.4765   17.7529 H   0  0  0  0  0  0
  -27.8343  -11.2669   18.8259 H   0  0  0  0  0  0
  -27.3352  -12.5765   17.7912 H   0  0  0  0  0  0
  -27.6452  -14.1937   19.5424 H   0  0  0  0  0  0
  -28.6868  -11.9603   21.3531 H   0  0  0  0  0  0
  -28.4748  -13.6179   21.8381 H   0  0  0  0  0  0
  -25.2677   -9.5681   22.4794 H   0  0  0  0  0  0
  -23.9963   -7.4596   22.7463 H   0  0  0  0  0  0
  -21.0781   -8.8725   19.8962 H   0  0  0  0  0  0
  -22.3587  -10.9656   19.6204 H   0  0  0  0  0  0
  -21.2013   -7.6137   23.9714 H   0  0  0  0  0  0
  -21.1450   -6.0513   25.9085 H   0  0  0  0  0  0
  -22.0627   -2.7597   23.2851 H   0  0  0  0  0  0
  -22.4063  -11.9941   22.4816 H   0  0  0  0  0  0
  -21.1075  -13.1315   22.2572 H   0  0  0  0  0  0
  -24.6674  -15.8311   20.5191 H   0  0  0  0  0  0
  -26.2822  -15.6143   20.0728 H   0  0  0  0  0  0
  -26.7101  -32.5553   23.1175 H   0  0  0  0  0  0
  -25.0163  -33.9797   25.0562 H   0  0  0  0  0  0
  -22.6783  -31.3112   21.4183 H   0  0  0  0  0  0
  -23.3744  -35.9649   23.3316 H   0  0  0  0  0  0
  -24.3588  -36.8897   22.2044 H   0  0  0  0  0  0
  -23.7260  -37.6527   23.6631 H   0  0  0  0  0  0
  -26.0336  -31.6156   20.5985 H   0  0  0  0  0  0
  -26.8071  -30.8933   21.9835 H   0  0  0  0  0  0
  -28.0834  -29.1451   21.1541 H   0  0  0  0  0  0
  -26.0318  -26.0017   18.9966 H   0  0  0  0  0  0
  -23.9685  -27.2990   19.0455 H   0  0  0  0  0  0
  -23.6966  -30.6017   19.4057 H   0  0  0  0  0  0
  -22.7232  -29.2415   19.8796 H   0  0  0  0  0  0
  -25.1286  -36.1980   25.0834 H   0  0  0  0  0  0
  -20.9933  -28.3195   24.1450 H   0  0  0  0  0  0
  -20.5664  -26.2249   23.3600 H   0  0  0  0  0  0
  -21.6633  -26.7433   22.1208 H   0  0  0  0  0  0
  -19.6903  -25.6292   21.1207 H   0  0  0  0  0  0
  -19.6664  -27.3207   20.6761 H   0  0  0  0  0  0
  -17.4197  -26.6669   21.3997 H   0  0  0  0  0  0
  -18.0288  -26.0005   22.8981 H   0  0  0  0  0  0
  -19.7933  -30.7208   24.2298 H   0  0  0  0  0  0
  -17.5021  -31.6247   24.5153 H   0  0  0  0  0  0
  -15.5345  -30.2987   23.7611 H   0  0  0  0  0  0
  -15.8652  -28.0773   22.7110 H   0  0  0  0  0  0
  -24.5926  -30.7058   25.7838 H   0  0  0  0  0  0
  -24.9002  -32.2860   26.4949 H   0  0  0  0  0  0
  -25.8148  -30.8851   27.0227 H   0  0  0  0  0  0
  -26.2885  -29.6754   24.1181 H   0  0  0  0  0  0
  -27.4195  -29.7290   25.4511 H   0  0  0  0  0  0
  -27.8674  -30.4351   23.9168 H   0  0  0  0  0  0
  -27.2664  -33.3588   26.2083 H   0  0  0  0  0  0
  -28.3849  -32.6918   25.0284 H   0  0  0  0  0  0
  -28.0771  -31.8430   26.5359 H   0  0  0  0  0  0
  -28.2619  -38.0089   24.7505 H   0  0  0  0  0  0
  -28.1062  -36.2623   24.6311 H   0  0  0  0  0  0
  -27.2293  -37.1478   25.8870 H   0  0  0  0  0  0
  -20.9273  -29.8757   21.6995 H   0  0  0  0  0  0
  -26.0188  -38.2872   24.1396 H   0  0  0  0  0  0
  -26.7506  -18.4929   18.3939 H   0  0  0  0  0  0
  -27.4727  -17.3459   16.3626 H   0  0  0  0  0  0
  -27.2626  -15.6472   16.8029 H   0  0  0  0  0  0
  -28.8710  -16.2710   16.4126 H   0  0  0  0  0  0
  -27.3539  -19.5523   21.9622 H   0  0  0  0  0  0
  -26.0040  -19.3688   20.8713 H   0  0  0  0  0  0
  -27.1197  -20.6454   19.1198 H   0  0  0  0  0  0
  -28.6559  -20.5170   19.9303 H   0  0  0  0  0  0
  -27.8642  -22.0139   21.7504 H   0  0  0  0  0  0
  -26.3196  -22.1908   20.9426 H   0  0  0  0  0  0
  -27.4589  -23.0942   18.9194 H   0  0  0  0  0  0
  -29.0217  -22.8365   19.6490 H   0  0  0  0  0  0
  -28.4956  -24.4881   21.4288 H   0  0  0  0  0  0
  -26.9071  -24.7218   20.7460 H   0  0  0  0  0  0
  -28.0853  -25.4760   18.5364 H   0  0  0  0  0  0
  -29.5918  -25.3019   19.3789 H   0  0  0  0  0  0
  -30.6023  -15.9861   21.7903 H   0  0  0  0  0  0
  1 25  1  0  0  0
  1 30  2  0  0  0
  1 84  1  0  0  0
  2  3  1  0  0  0
  2 25  1  0  0  0
  2 86  1  0  0  0
  2 87  1  0  0  0
  3  4  1  0  0  0
  3 88  1  0  0  0
  3 89  1  0  0  0
  4  5  1  0  0  0
  4 90  1  0  0  0
  4 91  1  0  0  0
  5  6  1  0  0  0
  5 26  1  0  0  0
  5 92  1  0  0  0
  6 25  1  0  0  0
  6 93  1  0  0  0
  6 94  1  0  0  0
  7  8  2  0  0  0
  7 26  1  0  0  0
  7 29  1  0  0  0
  8  9  1  0  0  0
  8 22  1  0  0  0
  9 10  1  0  0  0
  9 27  2  0  0  0
 10 11  2  0  0  0
 10 15  1  0  0  0
 11 12  1  0  0  0
 11 95  1  0  0  0
 12 13  2  0  0  0
 12 96  1  0  0  0
 13 14  1  0  0  0
 13 31  1  0  0  0
 14 15  2  0  0  0
 14 97  1  0  0  0
 15 98  1  0  0  0
 16 17  2  0  0  0
 16 21  1  0  0  0
 16 31  1  0  0  0
 17 18  1  0  0  0
 17 99  1  0  0  0
 18 19  2  0  0  0
 18100  1  0  0  0
 19 20  1  0  0  0
 19 24  1  0  0  0
 20 21  2  0  0  0
 20101  1  0  0  0
 21 23  1  0  0  0
 22 28  1  0  0  0
 22 32  2  0  0  0
 26 27  1  0  0  0
 28102  1  0  0  0
 28103  1  0  0  0
 29104  1  0  0  0
 29105  1  0  0  0
 33 34  1  0  0  0
 33 66  1  0  0  0
 33 70  2  0  0  0
 34 36  1  0  0  0
 34 59  1  0  0  0
 34106  1  0  0  0
 35 44  2  0  0  0
 35 45  1  0  0  0
 35 68  1  0  0  0
 36 56  1  0  0  0
 36107  1  0  0  0
 37 39  1  0  0  0
 37 47  1  0  0  0
 37 66  1  0  0  0
 37108  1  0  0  0
 38 43  2  0  0  0
 38 46  1  0  0  0
 38 47  1  0  0  0
 39 64  1  0  0  0
 39 67  2  0  0  0
 40 52  1  0  0  0
 40 53  2  0  0  0
 40 58  1  0  0  0
 41109  1  0  0  0
 41110  1  0  0  0
 41111  1  0  0  0
 41 48  1  0  0  0
 42 43  1  0  0  0
 42 66  1  0  0  0
 42112  1  0  0  0
 42113  1  0  0  0
 43 44  1  0  0  0
 44114  1  0  0  0
 45 46  2  0  0  0
 45115  1  0  0  0
 46116  1  0  0  0
 47117  1  0  0  0
 47118  1  0  0  0
 48 56  1  0  0  0
 48 65  1  0  0  0
 48119  1  0  0  0
 49 50  1  0  0  0
 49 53  1  0  0  0
 49 64  1  0  0  0
 49120  1  0  0  0
 50 51  1  0  0  0
 50121  1  0  0  0
 50122  1  0  0  0
 51 52  1  0  0  0
 51123  1  0  0  0
 51124  1  0  0  0
 52125  1  0  0  0
 52126  1  0  0  0
 53 54  1  0  0  0
 54 55  2  0  0  0
 54127  1  0  0  0
 55 57  1  0  0  0
 55128  1  0  0  0
 56 69  2  0  0  0
 57 58  2  0  0  0
 57129  1  0  0  0
 58130  1  0  0  0
 59 60  1  0  0  0
 59 61  1  0  0  0
 59 62  1  0  0  0
 60131  1  0  0  0
 60132  1  0  0  0
 60133  1  0  0  0
 61134  1  0  0  0
 61135  1  0  0  0
 61136  1  0  0  0
 62137  1  0  0  0
 62138  1  0  0  0
 62139  1  0  0  0
 63 65  1  0  0  0
 63140  1  0  0  0
 63141  1  0  0  0
 63142  1  0  0  0
 64143  1  0  0  0
 65144  1  0  0  0
 68 82  1  0  0  0
 71 72  2  0  0  0
 71 74  1  0  0  0
 71145  1  0  0  0
 72 73  1  0  0  0
 72 77  1  0  0  0
 73 75  2  0  0  0
 73 85  1  0  0  0
 74 76  1  0  0  0
 74 83  2  0  0  0
 75 83  1  0  0  0
 75 84  1  0  0  0
 76146  1  0  0  0
 76147  1  0  0  0
 76148  1  0  0  0
 77 78  1  0  0  0
 77149  1  0  0  0
 77150  1  0  0  0
 78 79  1  0  0  0
 78151  1  0  0  0
 78152  1  0  0  0
 79 80  1  0  0  0
 79153  1  0  0  0
 79154  1  0  0  0
 80 81  1  0  0  0
 80155  1  0  0  0
 80156  1  0  0  0
 81 82  1  0  0  0
 81157  1  0  0  0
 81158  1  0  0  0
 82159  1  0  0  0
 82160  1  0  0  0
 84161  1  0  0  0
M  ISO  4   1 100  68 101  82 101  84 100
M  END
> <chiral flag>
0

> <version>
0

> <s_m_source_file>
/data/baiqing/PycharmProjects/Reinvent-master-3.2/result/LINK_invent/BTK/process_docking_weight1_custom_sum_contain_oxygen_bond_distance_aromatic_linkinvent_7_9_3/rearranged_h_0027.sdf

> <i_m_source_file_index>
57

> <r_mmod_Potential_Energy-OPLS-2005>
-144.801254272461

> <r_mmod_Stretch_Energy-OPLS-2005>
30.5916767120361

> <r_mmod_Bend_Energy-OPLS-2005>
101.99097442627

> <r_mmod_Torsional_Energy-OPLS-2005>
232.045364379883

> <r_mmod_Improper_Torsional_Energy-OPLS-2005>
6.3902530670166

> <r_mmod_Van_der_Waal_Energy-OPLS-2005>
161.948852539062

> <r_mmod_Electrostatic_Energy-OPLS-2005>
-498.991149902344

> <r_mmod_Solvation_Energy-OPLS-2005>
-194.100540161133

> <b_mmod_Minimization_Converged-OPLS-2005>
0

> <r_mmod_RMS_Derivative-OPLS-2005>
1.64045572280884

$$$$
57
                    3D
 Structure written by MMmdl.
150158  0  0  1  0            999 V2000
  -30.4046  -15.3263   20.3561 C   0  0  0  0  0  0
  -30.4381  -12.8476   19.5454 C   0  0  0  0  0  0
  -29.5456  -12.5933   18.3022 C   0  0  0  0  0  0
  -28.0908  -12.3083   18.7164 C   0  0  0  0  0  0
  -27.6066  -13.2836   19.8195 C   0  0  2  0  0  0
  -28.6335  -13.4743   20.9569 C   0  0  0  0  0  0
  -25.2349  -13.8245   20.5733 C   0  0  0  0  0  0
  -24.1715  -13.0427   20.9259 C   0  0  0  0  0  0
  -24.6377  -11.6939   20.8740 C   0  0  0  0  0  0
  -23.9072  -10.4286   21.0387 C   0  0  0  0  0  0
  -24.3622   -9.4205   21.9177 C   0  0  0  0  0  0
  -23.6290   -8.2248   22.0756 C   0  0  0  0  0  0
  -22.4275   -8.0268   21.3541 C   0  0  0  0  0  0
  -21.9909   -9.0240   20.4649 C   0  0  0  0  0  0
  -22.7237  -10.2123   20.3047 C   0  0  0  0  0  0
  -21.6846   -6.0725   22.5277 C   0  0  0  0  0  0
  -21.4018   -6.5633   23.8210 C   0  0  0  0  0  0
  -21.3665   -5.6790   24.9168 C   0  0  0  0  0  0
  -21.6045   -4.3048   24.7222 C   0  0  0  0  0  0
  -21.8817   -3.8143   23.4339 C   0  0  0  0  0  0
  -21.9194   -4.6960   22.3395 C   0  0  0  0  0  0
  -22.7732  -13.5192   21.1877 C   0  0  0  0  0  0
  -22.1659   -4.2149   21.0972 F   0  0  0  0  0  0
  -21.5627   -3.4533   25.7730 F   0  0  0  0  0  0
  -29.8604  -14.0025   20.3364 N   0  0  0  0  0  0
  -26.2772  -12.9551   20.3162 N   0  0  0  0  0  0
  -25.9318  -11.6651   20.5687 N   0  0  0  0  0  0
  -22.0367  -12.8206   22.0440 N   0  0  0  0  0  0
  -25.3983  -15.1987   20.4180 N   0  0  0  0  0  0
  -31.6222  -15.3238   20.1182 O   0  0  0  0  0  0
  -21.6636   -6.8870   21.4238 O   0  0  0  0  0  0
  -22.3416  -14.5475   20.6657 O   0  0  0  0  0  0
  -24.6677  -31.8173   23.1671 C   0  0  0  0  0  0
  -25.9332  -32.4554   23.8149 C   0  0  1  0  0  0
  -27.2149  -26.8780   20.1899 C   0  0  0  0  0  0
  -25.5993  -33.8376   24.2049 N   0  0  0  0  0  0
  -23.4831  -30.4302   21.5133 C   0  0  2  0  0  0
  -24.9397  -28.8101   20.1056 C   0  0  0  0  0  0
  -22.7685  -29.4425   22.4733 C   0  0  0  0  0  0
  -18.0330  -28.1418   22.8459 C   0  0  0  0  0  0
  -24.1485  -36.7198   23.2643 C   0  0  0  0  0  0
  -26.0511  -30.6091   21.4039 C   0  0  0  0  0  0
  -26.1194  -29.1927   20.7531 C   0  0  0  0  0  0
  -27.2444  -28.2444   20.7794 C   0  0  0  0  0  0
  -26.0125  -26.6654   19.4769 C   0  0  0  0  0  0
  -24.9150  -27.5699   19.4463 C   0  0  0  0  0  0
  -23.7261  -29.7433   20.1394 C   0  0  0  0  0  0
  -25.4122  -36.2944   24.0292 C   0  0  1  0  0  0
  -20.5946  -28.3767   23.1159 C   0  0  2  0  0  0
  -20.6791  -26.9433   22.5388 C   0  0  0  0  0  0
  -19.5768  -26.6372   21.5199 C   0  0  0  0  0  0
  -18.1957  -26.7952   22.1608 C   0  0  0  0  0  0
  -19.1590  -28.8920   23.2798 C   0  0  0  0  0  0
  -18.9502  -30.1509   23.8834 C   0  0  0  0  0  0
  -17.6490  -30.6606   24.0559 C   0  0  0  0  0  0
  -25.9087  -34.9331   23.4983 C   0  0  0  0  0  0
  -16.5380  -29.9088   23.6340 C   0  0  0  0  0  0
  -16.7307  -28.6511   23.0349 C   0  0  0  0  0  0
  -26.4575  -31.6536   25.0711 C   0  0  0  0  0  0
  -25.3689  -31.3822   26.1367 C   0  0  0  0  0  0
  -27.0477  -30.2897   24.6478 C   0  0  0  0  0  0
  -27.6049  -32.4359   25.7522 C   0  0  0  0  0  0
  -27.5547  -37.1761   24.8458 C   0  0  0  0  0  0
  -21.4342  -29.3055   22.3495 N   0  0  0  0  0  0
  -26.4252  -37.3696   23.9406 N   0  0  0  0  0  0
  -24.7548  -30.9816   22.0809 N   0  0  0  0  0  0
  -23.4219  -28.7996   23.2995 O   0  0  0  0  0  0
  -28.1921  -25.7432   20.3455 O   0  0  0  0  0  0
  -26.5694  -34.8889   22.4577 O   0  0  0  0  0  0
  -23.5743  -32.1140   23.6758 O   0  0  0  0  0  0
  -28.1881  -19.7541   21.6477 C   0  0  0  0  0  0
  -27.5088  -20.8995   22.1609 C   0  0  0  0  0  0
  -29.0432  -19.7804   20.5305 C   0  0  0  0  0  0
  -28.3963  -22.5365   20.4685 C   0  0  0  0  0  0
  -27.6021  -22.2232   21.6041 C   0  0  0  0  0  0
  -29.0960  -21.2352   19.9707 C   0  0  0  0  0  0
  -26.6057  -20.6541   23.3636 C   0  0  0  0  0  0
  -29.8402  -18.2570   20.0982 C   0  0  0  0  0  0
  -28.2128  -24.1659   19.7800 C   0  0  0  0  0  0
  -29.6326  -16.6084   20.4417 N   0  0  0  0  0  0
  -26.6515  -23.4927   22.3061 Cl  0  0  0  0  0  0
  -30.0745  -21.4253   18.5624 Cl  0  0  0  0  0  0
  -31.4584  -13.0542   19.2187 H   0  0  0  0  0  0
  -30.5138  -11.9517   20.1625 H   0  0  0  0  0  0
  -29.9414  -11.7665   17.7110 H   0  0  0  0  0  0
  -29.5739  -13.4727   17.6583 H   0  0  0  0  0  0
  -28.0452  -11.2828   19.0858 H   0  0  0  0  0  0
  -27.4323  -12.3526   17.8469 H   0  0  0  0  0  0
  -27.5163  -14.2468   19.3162 H   0  0  0  0  0  0
  -28.8106  -12.5417   21.4926 H   0  0  0  0  0  0
  -28.2610  -14.1889   21.6908 H   0  0  0  0  0  0
  -25.2769   -9.5690   22.4745 H   0  0  0  0  0  0
  -23.9989   -7.4661   22.7491 H   0  0  0  0  0  0
  -21.0836   -8.8763   19.8963 H   0  0  0  0  0  0
  -22.3691  -10.9654   19.6150 H   0  0  0  0  0  0
  -21.2012   -7.6150   23.9714 H   0  0  0  0  0  0
  -21.1488   -6.0514   25.9073 H   0  0  0  0  0  0
  -22.0594   -2.7605   23.2837 H   0  0  0  0  0  0
  -22.3977  -11.9922   22.4929 H   0  0  0  0  0  0
  -21.0956  -13.1239   22.2542 H   0  0  0  0  0  0
  -24.6253  -15.8456   20.5287 H   0  0  0  0  0  0
  -26.2284  -15.6390   20.0437 H   0  0  0  0  0  0
  -26.7403  -32.5098   23.0869 H   0  0  0  0  0  0
  -25.0153  -33.9458   25.0209 H   0  0  0  0  0  0
  -22.8008  -31.2645   21.3412 H   0  0  0  0  0  0
  -23.3754  -35.9524   23.3262 H   0  0  0  0  0  0
  -24.3544  -36.8887   22.2059 H   0  0  0  0  0  0
  -23.7246  -37.6377   23.6728 H   0  0  0  0  0  0
  -26.2305  -31.3417   20.6162 H   0  0  0  0  0  0
  -26.9112  -30.6751   22.0569 H   0  0  0  0  0  0
  -28.1269  -28.5262   21.3364 H   0  0  0  0  0  0
  -25.8694  -25.7212   18.9727 H   0  0  0  0  0  0
  -24.0200  -27.2775   18.9133 H   0  0  0  0  0  0
  -23.8888  -30.5088   19.3794 H   0  0  0  0  0  0
  -22.8351  -29.2025   19.8175 H   0  0  0  0  0  0
  -25.1327  -36.1709   25.0783 H   0  0  0  0  0  0
  -21.0060  -28.3383   24.1275 H   0  0  0  0  0  0
  -20.5630  -26.2395   23.3650 H   0  0  0  0  0  0
  -21.6663  -26.7373   22.1228 H   0  0  0  0  0  0
  -19.6905  -25.6264   21.1285 H   0  0  0  0  0  0
  -19.6706  -27.3142   20.6705 H   0  0  0  0  0  0
  -17.4212  -26.6692   21.4019 H   0  0  0  0  0  0
  -18.0352  -26.0105   22.9020 H   0  0  0  0  0  0
  -19.7976  -30.7344   24.2162 H   0  0  0  0  0  0
  -17.5041  -31.6277   24.5175 H   0  0  0  0  0  0
  -15.5376  -30.2968   23.7708 H   0  0  0  0  0  0
  -15.8713  -28.0823   22.7074 H   0  0  0  0  0  0
  -24.5909  -30.7117   25.7693 H   0  0  0  0  0  0
  -24.8860  -32.3049   26.4600 H   0  0  0  0  0  0
  -25.7935  -30.9136   27.0257 H   0  0  0  0  0  0
  -26.3160  -29.6575   24.1446 H   0  0  0  0  0  0
  -27.3938  -29.7275   25.5156 H   0  0  0  0  0  0
  -27.9127  -30.4060   23.9948 H   0  0  0  0  0  0
  -27.2610  -33.3724   26.1931 H   0  0  0  0  0  0
  -28.3977  -32.6809   25.0438 H   0  0  0  0  0  0
  -28.0590  -31.8593   26.5595 H   0  0  0  0  0  0
  -28.2545  -38.0074   24.7502 H   0  0  0  0  0  0
  -28.1069  -36.2603   24.6289 H   0  0  0  0  0  0
  -27.2270  -37.1402   25.8864 H   0  0  0  0  0  0
  -20.9594  -29.8783   21.6664 H   0  0  0  0  0  0
  -26.0082  -38.2742   24.1451 H   0  0  0  0  0  0
  -28.0443  -18.8031   22.1414 H   0  0  0  0  0  0
  -25.5730  -20.5266   23.0368 H   0  0  0  0  0  0
  -26.6459  -21.4738   24.0800 H   0  0  0  0  0  0
  -26.8965  -19.7532   23.9050 H   0  0  0  0  0  0
  -30.8840  -18.4392   20.3584 H   0  0  0  0  0  0
  -29.8414  -18.2812   19.0086 H   0  0  0  0  0  0
  -27.3095  -24.0729   19.1805 H   0  0  0  0  0  0
  -29.0038  -24.1940   19.0298 H   0  0  0  0  0  0
  -28.6677  -16.4074   20.6597 H   0  0  0  0  0  0
  1 25  1  0  0  0
  1 30  2  0  0  0
  1 80  1  0  0  0
  2  3  1  0  0  0
  2 25  1  0  0  0
  2 83  1  0  0  0
  2 84  1  0  0  0
  3  4  1  0  0  0
  3 85  1  0  0  0
  3 86  1  0  0  0
  4  5  1  0  0  0
  4 87  1  0  0  0
  4 88  1  0  0  0
  5  6  1  0  0  0
  5 26  1  0  0  0
  5 89  1  0  0  0
  6 25  1  0  0  0
  6 90  1  0  0  0
  6 91  1  0  0  0
  7  8  2  0  0  0
  7 26  1  0  0  0
  7 29  1  0  0  0
  8  9  1  0  0  0
  8 22  1  0  0  0
  9 10  1  0  0  0
  9 27  2  0  0  0
 10 11  2  0  0  0
 10 15  1  0  0  0
 11 12  1  0  0  0
 11 92  1  0  0  0
 12 13  2  0  0  0
 12 93  1  0  0  0
 13 14  1  0  0  0
 13 31  1  0  0  0
 14 15  2  0  0  0
 14 94  1  0  0  0
 15 95  1  0  0  0
 16 17  2  0  0  0
 16 21  1  0  0  0
 16 31  1  0  0  0
 17 18  1  0  0  0
 17 96  1  0  0  0
 18 19  2  0  0  0
 18 97  1  0  0  0
 19 20  1  0  0  0
 19 24  1  0  0  0
 20 21  2  0  0  0
 20 98  1  0  0  0
 21 23  1  0  0  0
 22 28  1  0  0  0
 22 32  2  0  0  0
 26 27  1  0  0  0
 28 99  1  0  0  0
 28100  1  0  0  0
 29101  1  0  0  0
 29102  1  0  0  0
 33 34  1  0  0  0
 33 66  1  0  0  0
 33 70  2  0  0  0
 34 36  1  0  0  0
 34 59  1  0  0  0
 34103  1  0  0  0
 35 44  2  0  0  0
 35 45  1  0  0  0
 35 68  1  0  0  0
 36 56  1  0  0  0
 36104  1  0  0  0
 37 39  1  0  0  0
 37 47  1  0  0  0
 37 66  1  0  0  0
 37105  1  0  0  0
 38 43  2  0  0  0
 38 46  1  0  0  0
 38 47  1  0  0  0
 39 64  1  0  0  0
 39 67  2  0  0  0
 40 52  1  0  0  0
 40 53  2  0  0  0
 40 58  1  0  0  0
 41106  1  0  0  0
 41107  1  0  0  0
 41108  1  0  0  0
 41 48  1  0  0  0
 42 43  1  0  0  0
 42 66  1  0  0  0
 42109  1  0  0  0
 42110  1  0  0  0
 43 44  1  0  0  0
 44111  1  0  0  0
 45 46  2  0  0  0
 45112  1  0  0  0
 46113  1  0  0  0
 47114  1  0  0  0
 47115  1  0  0  0
 48 56  1  0  0  0
 48 65  1  0  0  0
 48116  1  0  0  0
 49 50  1  0  0  0
 49 53  1  0  0  0
 49 64  1  0  0  0
 49117  1  0  0  0
 50 51  1  0  0  0
 50118  1  0  0  0
 50119  1  0  0  0
 51 52  1  0  0  0
 51120  1  0  0  0
 51121  1  0  0  0
 52122  1  0  0  0
 52123  1  0  0  0
 53 54  1  0  0  0
 54 55  2  0  0  0
 54124  1  0  0  0
 55 57  1  0  0  0
 55125  1  0  0  0
 56 69  2  0  0  0
 57 58  2  0  0  0
 57126  1  0  0  0
 58127  1  0  0  0
 59 60  1  0  0  0
 59 61  1  0  0  0
 59 62  1  0  0  0
 60128  1  0  0  0
 60129  1  0  0  0
 60130  1  0  0  0
 61131  1  0  0  0
 61132  1  0  0  0
 61133  1  0  0  0
 62134  1  0  0  0
 62135  1  0  0  0
 62136  1  0  0  0
 63 65  1  0  0  0
 63137  1  0  0  0
 63138  1  0  0  0
 63139  1  0  0  0
 64140  1  0  0  0
 65141  1  0  0  0
 68 79  1  0  0  0
 71 72  2  0  0  0
 71 73  1  0  0  0
 71142  1  0  0  0
 72 75  1  0  0  0
 72 77  1  0  0  0
 73 76  2  0  0  0
 73 78  1  0  0  0
 74 75  2  0  0  0
 74 76  1  0  0  0
 74 79  1  0  0  0
 75 81  1  0  0  0
 76 82  1  0  0  0
 77143  1  0  0  0
 77144  1  0  0  0
 77145  1  0  0  0
 78 80  1  0  0  0
 78146  1  0  0  0
 78147  1  0  0  0
 79148  1  0  0  0
 79149  1  0  0  0
 80150  1  0  0  0
M  ISO  4   1 100  68 101  79 101  80 100
M  END
> <chiral flag>
0

> <version>
0

> <s_m_source_file>
/data/baiqing/PycharmProjects/Reinvent-master-3.2/result/LINK_invent/BTK/process_docking_weight1_custom_sum_contain_oxygen_bond_distance_aromatic_linkinvent_7_9_3/rearranged_h_0027.sdf

> <i_m_source_file_index>
58

> <r_mmod_Potential_Energy-OPLS-2005>
1397.63537597656

> <r_mmod_Stretch_Energy-OPLS-2005>
655.137268066406

> <r_mmod_Bend_Energy-OPLS-2005>
449.225952148438

> <r_mmod_Torsional_Energy-OPLS-2005>
214.843978881836

> <r_mmod_Improper_Torsional_Energy-OPLS-2005>
6.01070642471313

> <r_mmod_Van_der_Waal_Energy-OPLS-2005>
122.170921325684

> <r_mmod_Electrostatic_Energy-OPLS-2005>
-367.819305419922

> <r_mmod_Solvation_Energy-OPLS-2005>
-217.027053833008

> <b_mmod_Minimization_Converged-OPLS-2005>
0

> <r_mmod_RMS_Derivative-OPLS-2005>
2.81878614425659

$$$$
58
                    3D
 Structure written by MMmdl.
191199  0  0  1  0            999 V2000
  -30.7125  -14.4257   20.6287 C   0  0  0  0  0  0
  -30.4224  -12.3057   19.3997 C   0  0  0  0  0  0
  -29.4863  -12.5152   18.1933 C   0  0  0  0  0  0
  -28.0089  -12.3736   18.6109 C   0  0  0  0  0  0
  -27.6617  -13.2016   19.8763 C   0  0  2  0  0  0
  -28.7016  -12.9504   20.9894 C   0  0  0  0  0  0
  -25.2585  -13.8144   20.5693 C   0  0  0  0  0  0
  -24.1848  -13.0449   20.9168 C   0  0  0  0  0  0
  -24.6381  -11.6896   20.8727 C   0  0  0  0  0  0
  -23.9049  -10.4297   21.0404 C   0  0  0  0  0  0
  -24.3604   -9.4211   21.9182 C   0  0  0  0  0  0
  -23.6290   -8.2243   22.0749 C   0  0  0  0  0  0
  -22.4267   -8.0277   21.3543 C   0  0  0  0  0  0
  -21.9899   -9.0253   20.4646 C   0  0  0  0  0  0
  -22.7220  -10.2133   20.3057 C   0  0  0  0  0  0
  -21.6851   -6.0731   22.5280 C   0  0  0  0  0  0
  -21.4012   -6.5638   23.8212 C   0  0  0  0  0  0
  -21.3660   -5.6791   24.9175 C   0  0  0  0  0  0
  -21.6046   -4.3055   24.7227 C   0  0  0  0  0  0
  -21.8819   -3.8144   23.4349 C   0  0  0  0  0  0
  -21.9192   -4.6959   22.3404 C   0  0  0  0  0  0
  -22.7854  -13.5233   21.1840 C   0  0  0  0  0  0
  -22.1660   -4.2145   21.0982 F   0  0  0  0  0  0
  -21.5630   -3.4541   25.7740 F   0  0  0  0  0  0
  -30.0334  -13.2636   20.4431 N   0  0  0  0  0  0
  -26.3016  -12.9314   20.3346 N   0  0  0  0  0  0
  -25.9305  -11.6477   20.5757 N   0  0  0  0  0  0
  -22.0507  -12.8251   22.0409 N   0  0  0  0  0  0
  -25.4337  -15.1874   20.4070 N   0  0  0  0  0  0
  -31.8043  -14.6651   20.1072 O   0  0  0  0  0  0
  -21.6636   -6.8873   21.4240 O   0  0  0  0  0  0
  -22.3548  -14.5560   20.6697 O   0  0  0  0  0  0
  -24.6102  -31.9862   23.2918 C   0  0  0  0  0  0
  -25.9385  -32.5060   23.9072 C   0  0  1  0  0  0
  -27.8484  -27.3654   19.8996 C   0  0  0  0  0  0
  -25.6419  -33.8959   24.2728 N   0  0  0  0  0  0
  -22.9515  -30.8856   21.5796 C   0  0  2  0  0  0
  -25.4154  -28.1952   19.7817 C   0  0  0  0  0  0
  -22.2863  -29.9671   22.7411 C   0  0  0  0  0  0
  -17.9157  -28.1349   22.8890 C   0  0  0  0  0  0
  -24.1614  -36.7192   23.2509 C   0  0  0  0  0  0
  -26.1385  -30.3648   21.8859 C   0  0  0  0  0  0
  -26.5015  -28.9580   20.7704 C   0  0  0  0  0  0
  -27.7297  -28.4127   20.7996 C   0  0  0  0  0  0
  -26.8532  -26.4172   19.7052 C   0  0  0  0  0  0
  -25.6571  -26.9182   19.3382 C   0  0  0  0  0  0
  -22.6992  -29.6892   20.0269 C   0  0  0  0  0  0
  -25.4254  -36.3238   24.0288 C   0  0  1  0  0  0
  -20.4371  -28.3828   23.1621 C   0  0  2  0  0  0
  -20.5207  -26.9867   22.5009 C   0  0  0  0  0  0
  -19.4132  -26.6579   21.5147 C   0  0  0  0  0  0
  -18.0737  -26.7800   22.2172 C   0  0  0  0  0  0
  -19.0301  -28.8758   23.3474 C   0  0  0  0  0  0
  -18.8469  -30.1449   23.9377 C   0  0  0  0  0  0
  -17.5588  -30.6768   24.0800 C   0  0  0  0  0  0
  -25.9299  -34.9641   23.5221 C   0  0  0  0  0  0
  -16.4500  -29.9369   23.6389 C   0  0  0  0  0  0
  -16.6274  -28.6723   23.0499 C   0  0  0  0  0  0
  -26.4552  -31.7113   25.1753 C   0  0  0  0  0  0
  -25.3531  -31.4493   26.2281 C   0  0  0  0  0  0
  -27.0883  -30.3413   24.8562 C   0  0  0  0  0  0
  -27.5974  -32.5203   25.8372 C   0  0  0  0  0  0
  -27.5696  -37.1877   24.8411 C   0  0  0  0  0  0
  -21.1242  -29.4259   22.4210 N   0  0  0  0  0  0
  -26.4414  -37.3932   23.9358 N   0  0  0  0  0  0
  -24.6018  -31.1924   22.2133 N   0  0  0  0  0  0
  -22.9639  -29.4328   23.6461 O   0  0  0  0  0  0
  -28.0572  -27.8221   18.6402 O   0  0  0  0  0  0
  -26.5781  -34.8949   22.4752 O   0  0  0  0  0  0
  -23.5482  -32.3746   23.7957 O   0  0  0  0  0  0
  -23.5364  -28.3561   18.2085 C   0  0  0  0  0  0
  -24.4533  -29.7099   18.3119 C   0  0  0  0  0  0
  -23.0730  -27.3836   19.4510 C   0  0  0  0  0  0
  -24.7692  -30.3347   19.8268 C   0  0  0  0  0  0
  -23.4743  -27.6603   21.0096 C   0  0  0  0  0  0
  -25.6154  -34.2477   19.2152 C   0  0  0  0  0  0
  -25.8255  -29.4741   17.4372 C   0  0  0  0  0  0
  -22.3516  -26.0595   19.1462 C   0  0  0  0  0  0
  -25.5414  -31.7164   19.6363 C   0  0  0  0  0  0
  -24.8649  -33.0862   19.9077 C   0  0  0  0  0  0
  -27.0066  -19.9609   20.2162 C   0  0  0  0  0  0
  -26.6500  -21.1875   19.3502 C   0  0  0  0  0  0
  -28.4754  -19.5128   20.1298 C   0  0  0  0  0  0
  -25.1636  -21.5646   19.5128 C   0  0  0  0  0  0
  -28.7460  -18.2259   20.9390 C   0  0  0  0  0  0
  -24.6565  -22.7009   18.5938 C   0  0  0  0  0  0
  -30.2278  -17.8079   20.8909 C   0  0  0  0  0  0
  -23.1334  -22.9237   18.7734 C   0  0  0  0  0  0
  -30.6138  -16.6319   21.8161 C   0  0  0  0  0  0
  -22.4313  -23.9152   17.8058 C   0  0  0  0  0  0
  -27.3801  -29.1057   18.0454 C   0  0  0  0  0  0
  -24.2294  -28.9797   21.3978 N   0  0  0  0  0  0
  -30.0811  -15.3371   21.3863 N   0  0  0  0  0  0
  -22.8431  -25.3372   17.9427 N   0  3  0  0  0  0
  -23.7166  -26.3517   22.1323 Cl  0  0  0  0  0  0
  -31.4639  -12.4192   19.0945 H   0  0  0  0  0  0
  -30.3351  -11.2879   19.7805 H   0  0  0  0  0  0
  -29.7217  -11.7975   17.4059 H   0  0  0  0  0  0
  -29.6532  -13.5045   17.7640 H   0  0  0  0  0  0
  -27.8181  -11.3161   18.7972 H   0  0  0  0  0  0
  -27.3558  -12.6575   17.7848 H   0  0  0  0  0  0
  -27.7167  -14.2541   19.5971 H   0  0  0  0  0  0
  -28.6781  -11.9047   21.2981 H   0  0  0  0  0  0
  -28.4542  -13.5166   21.8877 H   0  0  0  0  0  0
  -25.2753   -9.5685   22.4750 H   0  0  0  0  0  0
  -24.0003   -7.4627   22.7465 H   0  0  0  0  0  0
  -21.0826   -8.8766   19.8956 H   0  0  0  0  0  0
  -22.3680  -10.9667   19.6163 H   0  0  0  0  0  0
  -21.2002   -7.6147   23.9713 H   0  0  0  0  0  0
  -21.1485   -6.0524   25.9077 H   0  0  0  0  0  0
  -22.0598   -2.7609   23.2851 H   0  0  0  0  0  0
  -22.4113  -11.9903   22.4804 H   0  0  0  0  0  0
  -21.1125  -13.1284   22.2624 H   0  0  0  0  0  0
  -24.6716  -15.8468   20.5181 H   0  0  0  0  0  0
  -26.2918  -15.6214   20.0931 H   0  0  0  0  0  0
  -26.7441  -32.5456   23.1789 H   0  0  0  0  0  0
  -25.0158  -34.0290   25.0546 H   0  0  0  0  0  0
  -22.3839  -31.8087   21.4597 H   0  0  0  0  0  0
  -23.4077  -35.9327   23.3189 H   0  0  0  0  0  0
  -24.3789  -36.8774   22.1935 H   0  0  0  0  0  0
  -23.7159  -37.6332   23.6432 H   0  0  0  0  0  0
  -27.0268  -30.9885   21.9265 H   0  0  0  0  0  0
  -26.1858  -29.7380   22.7544 H   0  0  0  0  0  0
  -28.5675  -28.9218   21.2444 H   0  0  0  0  0  0
  -27.1109  -25.4305   19.3375 H   0  0  0  0  0  0
  -25.0059  -26.2407   18.8274 H   0  0  0  0  0  0
  -22.3789  -30.3663   19.2194 H   0  0  0  0  0  0
  -21.7483  -29.1584   20.1230 H   0  0  0  0  0  0
  -25.1492  -36.2157   25.0815 H   0  0  0  0  0  0
  -20.8595  -28.2906   24.1644 H   0  0  0  0  0  0
  -20.5382  -26.2144   23.2729 H   0  0  0  0  0  0
  -21.3995  -26.8745   21.9277 H   0  0  0  0  0  0
  -19.5329  -25.6536   21.1045 H   0  0  0  0  0  0
  -19.4348  -27.3472   20.6708 H   0  0  0  0  0  0
  -17.2619  -26.6172   21.5060 H   0  0  0  0  0  0
  -17.9804  -26.0049   22.9800 H   0  0  0  0  0  0
  -19.6944  -30.7224   24.2820 H   0  0  0  0  0  0
  -17.4136  -31.6489   24.5307 H   0  0  0  0  0  0
  -15.4545  -30.3466   23.7354 H   0  0  0  0  0  0
  -15.7647  -28.1189   22.7080 H   0  0  0  0  0  0
  -24.5697  -30.7901   25.8543 H   0  0  0  0  0  0
  -24.8634  -32.3686   26.5487 H   0  0  0  0  0  0
  -25.7539  -30.9812   27.1309 H   0  0  0  0  0  0
  -26.3334  -29.5636   24.7246 H   0  0  0  0  0  0
  -27.6723  -29.9893   25.7069 H   0  0  0  0  0  0
  -27.7920  -30.3845   24.0237 H   0  0  0  0  0  0
  -27.2648  -33.4855   26.2211 H   0  0  0  0  0  0
  -28.4052  -32.7145   25.1305 H   0  0  0  0  0  0
  -28.0312  -32.0026   26.6964 H   0  0  0  0  0  0
  -28.2592  -38.0297   24.7670 H   0  0  0  0  0  0
  -28.1344  -36.2825   24.6099 H   0  0  0  0  0  0
  -27.2290  -37.1304   25.8763 H   0  0  0  0  0  0
  -20.6352  -29.8146   21.6270 H   0  0  0  0  0  0
  -26.0317  -38.2957   24.1624 H   0  0  0  0  0  0
  -23.3831  -27.9621   17.2167 H   0  0  0  0  0  0
  -25.2554  -35.2271   19.5300 H   0  0  0  0  0  0
  -25.5146  -34.1872   18.1304 H   0  0  0  0  0  0
  -26.6849  -34.2421   19.4398 H   0  0  0  0  0  0
  -25.9268  -30.3502   16.7980 H   0  0  0  0  0  0
  -25.6128  -28.6710   16.7304 H   0  0  0  0  0  0
  -21.2833  -26.2565   19.0629 H   0  0  0  0  0  0
  -22.4793  -25.4063   20.0073 H   0  0  0  0  0  0
  -25.7051  -31.7847   18.5643 H   0  0  0  0  0  0
  -26.5758  -31.7116   19.9628 H   0  0  0  0  0  0
  -23.8377  -33.0719   19.5456 H   0  0  0  0  0  0
  -24.8192  -33.3244   20.9672 H   0  0  0  0  0  0
  -26.3701  -19.1260   19.9197 H   0  0  0  0  0  0
  -26.7630  -20.1745   21.2583 H   0  0  0  0  0  0
  -26.8570  -20.9645   18.3024 H   0  0  0  0  0  0
  -27.2815  -22.0375   19.6156 H   0  0  0  0  0  0
  -29.1167  -20.3163   20.4971 H   0  0  0  0  0  0
  -28.7526  -19.3503   19.0871 H   0  0  0  0  0  0
  -24.9803  -21.8389   20.5535 H   0  0  0  0  0  0
  -24.5634  -20.6709   19.3311 H   0  0  0  0  0  0
  -28.1216  -17.4132   20.5657 H   0  0  0  0  0  0
  -28.4503  -18.3868   21.9771 H   0  0  0  0  0  0
  -24.8814  -22.4533   17.5533 H   0  0  0  0  0  0
  -25.1988  -23.6200   18.8228 H   0  0  0  0  0  0
  -30.8297  -18.6694   21.1865 H   0  0  0  0  0  0
  -30.5172  -17.5852   19.8629 H   0  0  0  0  0  0
  -22.9248  -23.1887   19.8098 H   0  0  0  0  0  0
  -22.6462  -21.9598   18.6173 H   0  0  0  0  0  0
  -30.2650  -16.8305   22.8315 H   0  0  0  0  0  0
  -31.7025  -16.5757   21.8864 H   0  0  0  0  0  0
  -21.3479  -23.8434   17.9322 H   0  0  0  0  0  0
  -22.6241  -23.6042   16.7770 H   0  0  0  0  0  0
  -27.6929  -29.9533   18.6574 H   0  0  0  0  0  0
  -27.9999  -29.2319   17.1597 H   0  0  0  0  0  0
  -29.1778  -15.0712   21.7469 H   0  0  0  0  0  0
  -23.8470  -25.3769   17.8830 H   0  0  0  0  0  0
  -22.4756  -25.8132   17.1320 H   0  0  0  0  0  0
  1 25  1  0  0  0
  1 30  2  0  0  0
  1 93  1  0  0  0
  2  3  1  0  0  0
  2 25  1  0  0  0
  2 96  1  0  0  0
  2 97  1  0  0  0
  3  4  1  0  0  0
  3 98  1  0  0  0
  3 99  1  0  0  0
  4  5  1  0  0  0
  4100  1  0  0  0
  4101  1  0  0  0
  5  6  1  0  0  0
  5 26  1  0  0  0
  5102  1  0  0  0
  6 25  1  0  0  0
  6103  1  0  0  0
  6104  1  0  0  0
  7  8  2  0  0  0
  7 26  1  0  0  0
  7 29  1  0  0  0
  8  9  1  0  0  0
  8 22  1  0  0  0
  9 10  1  0  0  0
  9 27  2  0  0  0
 10 11  2  0  0  0
 10 15  1  0  0  0
 11 12  1  0  0  0
 11105  1  0  0  0
 12 13  2  0  0  0
 12106  1  0  0  0
 13 14  1  0  0  0
 13 31  1  0  0  0
 14 15  2  0  0  0
 14107  1  0  0  0
 15108  1  0  0  0
 16 17  2  0  0  0
 16 21  1  0  0  0
 16 31  1  0  0  0
 17 18  1  0  0  0
 17109  1  0  0  0
 18 19  2  0  0  0
 18110  1  0  0  0
 19 20  1  0  0  0
 19 24  1  0  0  0
 20 21  2  0  0  0
 20111  1  0  0  0
 21 23  1  0  0  0
 22 28  1  0  0  0
 22 32  2  0  0  0
 26 27  1  0  0  0
 28112  1  0  0  0
 28113  1  0  0  0
 29114  1  0  0  0
 29115  1  0  0  0
 33 34  1  0  0  0
 33 66  1  0  0  0
 33 70  2  0  0  0
 34 36  1  0  0  0
 34 59  1  0  0  0
 34116  1  0  0  0
 35 44  2  0  0  0
 35 45  1  0  0  0
 35 68  1  0  0  0
 36 56  1  0  0  0
 36117  1  0  0  0
 37 39  1  0  0  0
 37 47  1  0  0  0
 37 66  1  0  0  0
 37118  1  0  0  0
 38 43  2  0  0  0
 38 46  1  0  0  0
 38 47  1  0  0  0
 39 64  1  0  0  0
 39 67  2  0  0  0
 40 52  1  0  0  0
 40 53  2  0  0  0
 40 58  1  0  0  0
 41119  1  0  0  0
 41120  1  0  0  0
 41121  1  0  0  0
 41 48  1  0  0  0
 42 43  1  0  0  0
 42 66  1  0  0  0
 42122  1  0  0  0
 42123  1  0  0  0
 43 44  1  0  0  0
 44124  1  0  0  0
 45 46  2  0  0  0
 45125  1  0  0  0
 46126  1  0  0  0
 47127  1  0  0  0
 47128  1  0  0  0
 48 56  1  0  0  0
 48 65  1  0  0  0
 48129  1  0  0  0
 49 50  1  0  0  0
 49 53  1  0  0  0
 49 64  1  0  0  0
 49130  1  0  0  0
 50 51  1  0  0  0
 50131  1  0  0  0
 50132  1  0  0  0
 51 52  1  0  0  0
 51133  1  0  0  0
 51134  1  0  0  0
 52135  1  0  0  0
 52136  1  0  0  0
 53 54  1  0  0  0
 54 55  2  0  0  0
 54137  1  0  0  0
 55 57  1  0  0  0
 55138  1  0  0  0
 56 69  2  0  0  0
 57 58  2  0  0  0
 57139  1  0  0  0
 58140  1  0  0  0
 59 60  1  0  0  0
 59 61  1  0  0  0
 59 62  1  0  0  0
 60141  1  0  0  0
 60142  1  0  0  0
 60143  1  0  0  0
 61144  1  0  0  0
 61145  1  0  0  0
 61146  1  0  0  0
 62147  1  0  0  0
 62148  1  0  0  0
 62149  1  0  0  0
 63 65  1  0  0  0
 63150  1  0  0  0
 63151  1  0  0  0
 63152  1  0  0  0
 64153  1  0  0  0
 65154  1  0  0  0
 68 91  1  0  0  0
 71 72  2  0  0  0
 71 73  1  0  0  0
 71155  1  0  0  0
 72 74  1  0  0  0
 72 77  1  0  0  0
 73 75  2  0  0  0
 73 78  1  0  0  0
 74 79  1  0  0  0
 74 92  2  0  0  0
 75 92  1  0  0  0
 75 95  1  0  0  0
 76 80  1  0  0  0
 76156  1  0  0  0
 76157  1  0  0  0
 76158  1  0  0  0
 77 91  1  0  0  0
 77159  1  0  0  0
 77160  1  0  0  0
 78 94  1  0  0  0
 78161  1  0  0  0
 78162  1  0  0  0
 79 80  1  0  0  0
 79163  1  0  0  0
 79164  1  0  0  0
 80165  1  0  0  0
 80166  1  0  0  0
 81 82  1  0  0  0
 81 83  1  0  0  0
 81167  1  0  0  0
 81168  1  0  0  0
 82 84  1  0  0  0
 82169  1  0  0  0
 82170  1  0  0  0
 83 85  1  0  0  0
 83171  1  0  0  0
 83172  1  0  0  0
 84 86  1  0  0  0
 84173  1  0  0  0
 84174  1  0  0  0
 85 87  1  0  0  0
 85175  1  0  0  0
 85176  1  0  0  0
 86 88  1  0  0  0
 86177  1  0  0  0
 86178  1  0  0  0
 87 89  1  0  0  0
 87179  1  0  0  0
 87180  1  0  0  0
 88 90  1  0  0  0
 88181  1  0  0  0
 88182  1  0  0  0
 89 93  1  0  0  0
 89183  1  0  0  0
 89184  1  0  0  0
 90 94  1  0  0  0
 90185  1  0  0  0
 90186  1  0  0  0
 91187  1  0  0  0
 91188  1  0  0  0
 93189  1  0  0  0
 94190  1  0  0  0
 94191  1  0  0  0
M  CHG  1  94   1
M  ISO  4   1 100  68 101  91 101  93 100
M  END
> <chiral flag>
0

> <version>
0

> <s_m_source_file>
/data/baiqing/PycharmProjects/Reinvent-master-3.2/result/LINK_invent/BTK/process_docking_weight1_custom_sum_contain_oxygen_bond_distance_aromatic_linkinvent_7_9_3/rearranged_h_0027.sdf

> <i_m_source_file_index>
59

> <r_mmod_Potential_Energy-OPLS-2005>
11116.8095703125

> <r_mmod_Stretch_Energy-OPLS-2005>
6252.81787109375

> <r_mmod_Bend_Energy-OPLS-2005>
528.784118652344

> <r_mmod_Torsional_Energy-OPLS-2005>
530.909545898438

> <r_mmod_Improper_Torsional_Energy-OPLS-2005>
67.4165115356445

> <r_mmod_Van_der_Waal_Energy-OPLS-2005>
3436.60620117188

> <r_mmod_Electrostatic_Energy-OPLS-2005>
-360.980194091797

> <r_mmod_Solvation_Energy-OPLS-2005>
-468.600921630859

> <b_mmod_Minimization_Converged-OPLS-2005>
0

> <r_mmod_RMS_Derivative-OPLS-2005>
13.3481578826904

$$$$
59
                    3D
 Structure written by MMmdl.
163171  0  0  1  0            999 V2000
  -30.6674  -14.6214   20.4849 C   0  0  0  0  0  0
  -30.4225  -12.3721   19.4754 C   0  0  0  0  0  0
  -29.5142  -12.5113   18.2364 C   0  0  0  0  0  0
  -28.0373  -12.3395   18.6390 C   0  0  0  0  0  0
  -27.6496  -13.2242   19.8533 C   0  0  2  0  0  0
  -28.6893  -13.1258   20.9951 C   0  0  0  0  0  0
  -25.2579  -13.8187   20.5685 C   0  0  0  0  0  0
  -24.1859  -13.0448   20.9186 C   0  0  0  0  0  0
  -24.6415  -11.6915   20.8702 C   0  0  0  0  0  0
  -23.9061  -10.4298   21.0373 C   0  0  0  0  0  0
  -24.3617   -9.4227   21.9168 C   0  0  0  0  0  0
  -23.6300   -8.2251   22.0736 C   0  0  0  0  0  0
  -22.4281   -8.0276   21.3521 C   0  0  0  0  0  0
  -21.9905   -9.0240   20.4628 C   0  0  0  0  0  0
  -22.7217  -10.2139   20.3033 C   0  0  0  0  0  0
  -21.6865   -6.0727   22.5279 C   0  0  0  0  0  0
  -21.4020   -6.5636   23.8210 C   0  0  0  0  0  0
  -21.3667   -5.6795   24.9173 C   0  0  0  0  0  0
  -21.6042   -4.3048   24.7215 C   0  0  0  0  0  0
  -21.8830   -3.8140   23.4327 C   0  0  0  0  0  0
  -21.9203   -4.6950   22.3399 C   0  0  0  0  0  0
  -22.7887  -13.5246   21.1841 C   0  0  0  0  0  0
  -22.1680   -4.2165   21.0964 F   0  0  0  0  0  0
  -21.5617   -3.4526   25.7711 F   0  0  0  0  0  0
  -30.0153  -13.4211   20.4346 N   0  0  0  0  0  0
  -26.2991  -12.9364   20.3274 N   0  0  0  0  0  0
  -25.9345  -11.6514   20.5741 N   0  0  0  0  0  0
  -22.0504  -12.8251   22.0379 N   0  0  0  0  0  0
  -25.4286  -15.1910   20.4100 N   0  0  0  0  0  0
  -31.8346  -14.7284   20.1034 O   0  0  0  0  0  0
  -21.6647   -6.8867   21.4242 O   0  0  0  0  0  0
  -22.3571  -14.5542   20.6669 O   0  0  0  0  0  0
  -24.6227  -31.8628   23.2027 C   0  0  0  0  0  0
  -25.9102  -32.4814   23.8365 C   0  0  1  0  0  0
  -27.2390  -27.3652   20.1288 C   0  0  0  0  0  0
  -25.5951  -33.8600   24.2300 N   0  0  0  0  0  0
  -23.4169  -30.4805   21.5441 C   0  0  2  0  0  0
  -24.8678  -28.9371   20.1124 C   0  0  0  0  0  0
  -22.7482  -29.4626   22.4947 C   0  0  0  0  0  0
  -18.0301  -28.1370   22.8493 C   0  0  0  0  0  0
  -24.1507  -36.7315   23.2639 C   0  0  0  0  0  0
  -25.9506  -30.8117   21.3628 C   0  0  0  0  0  0
  -26.0305  -29.4377   20.7143 C   0  0  0  0  0  0
  -27.2223  -28.6617   20.7137 C   0  0  0  0  0  0
  -26.0629  -26.8968   19.5107 C   0  0  0  0  0  0
  -24.8844  -27.6714   19.4978 C   0  0  0  0  0  0
  -23.6297  -29.8081   20.1595 C   0  0  0  0  0  0
  -25.4131  -36.3097   24.0333 C   0  0  1  0  0  0
  -20.5897  -28.3673   23.1307 C   0  0  2  0  0  0
  -20.6788  -26.9402   22.5397 C   0  0  0  0  0  0
  -19.5759  -26.6371   21.5208 C   0  0  0  0  0  0
  -18.1942  -26.7917   22.1620 C   0  0  0  0  0  0
  -19.1539  -28.8842   23.2898 C   0  0  0  0  0  0
  -18.9457  -30.1449   23.8898 C   0  0  0  0  0  0
  -17.6448  -30.6561   24.0568 C   0  0  0  0  0  0
  -25.9055  -34.9466   23.5109 C   0  0  0  0  0  0
  -16.5348  -29.9053   23.6323 C   0  0  0  0  0  0
  -16.7282  -28.6476   23.0340 C   0  0  0  0  0  0
  -26.4483  -31.6592   25.0701 C   0  0  0  0  0  0
  -25.3737  -31.3697   26.1447 C   0  0  0  0  0  0
  -27.0300  -30.3040   24.6087 C   0  0  0  0  0  0
  -27.6062  -32.4295   25.7469 C   0  0  0  0  0  0
  -27.5592  -37.1809   24.8463 C   0  0  0  0  0  0
  -21.4195  -29.3024   22.3721 N   0  0  0  0  0  0
  -26.4304  -37.3788   23.9403 N   0  0  0  0  0  0
  -24.6834  -31.0671   22.0950 N   0  0  0  0  0  0
  -23.4213  -28.8207   23.3057 O   0  0  0  0  0  0
  -28.3674  -26.5512   20.1185 O   0  0  0  0  0  0
  -26.5583  -34.8919   22.4656 O   0  0  0  0  0  0
  -23.5409  -32.1359   23.7382 O   0  0  0  0  0  0
  -33.4399  -19.7964   21.4602 C   0  0  0  0  0  0
  -32.0821  -21.6593   20.7724 C   0  0  0  0  0  0
  -33.3466  -21.1139   21.0137 C   0  0  0  0  0  0
  -32.2885  -18.9990   21.5690 C   0  0  0  0  0  0
  -31.0066  -19.4791   21.1495 C   0  0  0  0  0  0
  -30.8743  -20.9067   20.8496 C   0  0  0  0  0  0
  -34.5877  -21.9661   20.8269 C   0  0  0  0  0  0
  -32.5083  -17.6129   22.1671 C   0  0  0  0  0  0
  -29.8702  -18.4076   21.0751 C   0  0  0  0  0  0
  -28.3621  -23.9189   20.5454 C   0  0  0  0  0  0
  -30.1831  -17.1196   20.1831 C   0  0  0  0  0  0
  -28.3739  -25.4262   21.0556 C   0  0  0  0  0  0
  -29.6947  -23.0889   20.6795 C   0  0  0  0  0  0
  -29.9090  -15.7380   20.7206 N   0  0  0  0  0  0
  -29.6602  -21.6027   20.6473 O   0  0  0  0  0  0
  -31.4748  -12.4470   19.1927 H   0  0  0  0  0  0
  -30.3039  -11.3845   19.9243 H   0  0  0  0  0  0
  -29.7958  -11.7787   17.4803 H   0  0  0  0  0  0
  -29.6647  -13.4921   17.7819 H   0  0  0  0  0  0
  -27.8876  -11.2870   18.8855 H   0  0  0  0  0  0
  -27.3902  -12.5478   17.7847 H   0  0  0  0  0  0
  -27.6565  -14.2520   19.4857 H   0  0  0  0  0  0
  -28.6886  -12.1363   21.4510 H   0  0  0  0  0  0
  -28.4418  -13.8236   21.7946 H   0  0  0  0  0  0
  -25.2758   -9.5750   22.4748 H   0  0  0  0  0  0
  -24.0034   -7.4666   22.7463 H   0  0  0  0  0  0
  -21.0828   -8.8707   19.8970 H   0  0  0  0  0  0
  -22.3622  -10.9641   19.6135 H   0  0  0  0  0  0
  -21.2016   -7.6152   23.9725 H   0  0  0  0  0  0
  -21.1494   -6.0513   25.9091 H   0  0  0  0  0  0
  -22.0608   -2.7605   23.2811 H   0  0  0  0  0  0
  -22.4067  -11.9914   22.4810 H   0  0  0  0  0  0
  -21.1123  -13.1300   22.2545 H   0  0  0  0  0  0
  -24.6540  -15.8392   20.4929 H   0  0  0  0  0  0
  -26.2744  -15.6286   20.0676 H   0  0  0  0  0  0
  -26.7200  -32.5503   23.1151 H   0  0  0  0  0  0
  -25.0199  -33.9786   25.0520 H   0  0  0  0  0  0
  -22.7104  -31.2993   21.3984 H   0  0  0  0  0  0
  -23.3763  -35.9655   23.3289 H   0  0  0  0  0  0
  -24.3596  -36.8921   22.2047 H   0  0  0  0  0  0
  -23.7231  -37.6516   23.6652 H   0  0  0  0  0  0
  -26.0676  -31.5767   20.5929 H   0  0  0  0  0  0
  -26.8397  -30.8708   21.9800 H   0  0  0  0  0  0
  -28.1213  -29.0492   21.1722 H   0  0  0  0  0  0
  -26.0599  -25.9237   19.0377 H   0  0  0  0  0  0
  -23.9979  -27.2842   19.0133 H   0  0  0  0  0  0
  -23.7404  -30.5805   19.3970 H   0  0  0  0  0  0
  -22.7552  -29.2237   19.8665 H   0  0  0  0  0  0
  -25.1303  -36.1976   25.0824 H   0  0  0  0  0  0
  -20.9987  -28.3209   24.1429 H   0  0  0  0  0  0
  -20.5724  -26.2262   23.3584 H   0  0  0  0  0  0
  -21.6664  -26.7449   22.1183 H   0  0  0  0  0  0
  -19.6936  -25.6283   21.1237 H   0  0  0  0  0  0
  -19.6711  -27.3195   20.6756 H   0  0  0  0  0  0
  -17.4229  -26.6679   21.4010 H   0  0  0  0  0  0
  -18.0335  -26.0046   22.9002 H   0  0  0  0  0  0
  -19.7926  -30.7281   24.2242 H   0  0  0  0  0  0
  -17.4987  -31.6235   24.5177 H   0  0  0  0  0  0
  -15.5340  -30.2947   23.7627 H   0  0  0  0  0  0
  -15.8692  -28.0793   22.7033 H   0  0  0  0  0  0
  -24.5943  -30.7022   25.7770 H   0  0  0  0  0  0
  -24.8906  -32.2845   26.4897 H   0  0  0  0  0  0
  -25.8085  -30.8855   27.0206 H   0  0  0  0  0  0
  -26.2821  -29.6811   24.1189 H   0  0  0  0  0  0
  -27.4109  -29.7282   25.4528 H   0  0  0  0  0  0
  -27.8652  -30.4355   23.9204 H   0  0  0  0  0  0
  -27.2725  -33.3622   26.2041 H   0  0  0  0  0  0
  -28.3891  -32.6804   25.0295 H   0  0  0  0  0  0
  -28.0741  -31.8415   26.5380 H   0  0  0  0  0  0
  -28.2604  -38.0112   24.7531 H   0  0  0  0  0  0
  -28.1073  -36.2638   24.6268 H   0  0  0  0  0  0
  -27.2303  -37.1437   25.8859 H   0  0  0  0  0  0
  -20.9376  -29.8709   21.6910 H   0  0  0  0  0  0
  -26.0197  -38.2878   24.1363 H   0  0  0  0  0  0
  -34.4112  -19.3941   21.7161 H   0  0  0  0  0  0
  -32.1052  -22.7043   20.5152 H   0  0  0  0  0  0
  -34.7452  -22.5906   21.7062 H   0  0  0  0  0  0
  -34.4829  -22.6166   19.9576 H   0  0  0  0  0  0
  -35.4754  -21.3530   20.6663 H   0  0  0  0  0  0
  -33.3353  -17.6276   22.8771 H   0  0  0  0  0  0
  -32.7675  -16.8873   21.3986 H   0  0  0  0  0  0
  -31.6428  -17.2498   22.7174 H   0  0  0  0  0  0
  -28.9732  -18.8967   20.6916 H   0  0  0  0  0  0
  -29.6185  -18.1014   22.0892 H   0  0  0  0  0  0
  -27.9934  -23.8645   19.5230 H   0  0  0  0  0  0
  -27.6187  -23.3914   21.1400 H   0  0  0  0  0  0
  -31.2021  -17.1738   19.8063 H   0  0  0  0  0  0
  -29.5917  -17.2029   19.2697 H   0  0  0  0  0  0
  -29.2352  -25.5696   21.7087 H   0  0  0  0  0  0
  -27.5243  -25.5429   21.7312 H   0  0  0  0  0  0
  -30.1749  -23.3879   21.6145 H   0  0  0  0  0  0
  -30.3238  -23.4592   19.8711 H   0  0  0  0  0  0
  -28.9632  -15.5619   21.0282 H   0  0  0  0  0  0
  1 25  1  0  0  0
  1 30  2  0  0  0
  1 84  1  0  0  0
  2  3  1  0  0  0
  2 25  1  0  0  0
  2 86  1  0  0  0
  2 87  1  0  0  0
  3  4  1  0  0  0
  3 88  1  0  0  0
  3 89  1  0  0  0
  4  5  1  0  0  0
  4 90  1  0  0  0
  4 91  1  0  0  0
  5  6  1  0  0  0
  5 26  1  0  0  0
  5 92  1  0  0  0
  6 25  1  0  0  0
  6 93  1  0  0  0
  6 94  1  0  0  0
  7  8  2  0  0  0
  7 26  1  0  0  0
  7 29  1  0  0  0
  8  9  1  0  0  0
  8 22  1  0  0  0
  9 10  1  0  0  0
  9 27  2  0  0  0
 10 11  2  0  0  0
 10 15  1  0  0  0
 11 12  1  0  0  0
 11 95  1  0  0  0
 12 13  2  0  0  0
 12 96  1  0  0  0
 13 14  1  0  0  0
 13 31  1  0  0  0
 14 15  2  0  0  0
 14 97  1  0  0  0
 15 98  1  0  0  0
 16 17  2  0  0  0
 16 21  1  0  0  0
 16 31  1  0  0  0
 17 18  1  0  0  0
 17 99  1  0  0  0
 18 19  2  0  0  0
 18100  1  0  0  0
 19 20  1  0  0  0
 19 24  1  0  0  0
 20 21  2  0  0  0
 20101  1  0  0  0
 21 23  1  0  0  0
 22 28  1  0  0  0
 22 32  2  0  0  0
 26 27  1  0  0  0
 28102  1  0  0  0
 28103  1  0  0  0
 29104  1  0  0  0
 29105  1  0  0  0
 33 34  1  0  0  0
 33 66  1  0  0  0
 33 70  2  0  0  0
 34 36  1  0  0  0
 34 59  1  0  0  0
 34106  1  0  0  0
 35 44  2  0  0  0
 35 45  1  0  0  0
 35 68  1  0  0  0
 36 56  1  0  0  0
 36107  1  0  0  0
 37 39  1  0  0  0
 37 47  1  0  0  0
 37 66  1  0  0  0
 37108  1  0  0  0
 38 43  2  0  0  0
 38 46  1  0  0  0
 38 47  1  0  0  0
 39 64  1  0  0  0
 39 67  2  0  0  0
 40 52  1  0  0  0
 40 53  2  0  0  0
 40 58  1  0  0  0
 41109  1  0  0  0
 41110  1  0  0  0
 41111  1  0  0  0
 41 48  1  0  0  0
 42 43  1  0  0  0
 42 66  1  0  0  0
 42112  1  0  0  0
 42113  1  0  0  0
 43 44  1  0  0  0
 44114  1  0  0  0
 45 46  2  0  0  0
 45115  1  0  0  0
 46116  1  0  0  0
 47117  1  0  0  0
 47118  1  0  0  0
 48 56  1  0  0  0
 48 65  1  0  0  0
 48119  1  0  0  0
 49 50  1  0  0  0
 49 53  1  0  0  0
 49 64  1  0  0  0
 49120  1  0  0  0
 50 51  1  0  0  0
 50121  1  0  0  0
 50122  1  0  0  0
 51 52  1  0  0  0
 51123  1  0  0  0
 51124  1  0  0  0
 52125  1  0  0  0
 52126  1  0  0  0
 53 54  1  0  0  0
 54 55  2  0  0  0
 54127  1  0  0  0
 55 57  1  0  0  0
 55128  1  0  0  0
 56 69  2  0  0  0
 57 58  2  0  0  0
 57129  1  0  0  0
 58130  1  0  0  0
 59 60  1  0  0  0
 59 61  1  0  0  0
 59 62  1  0  0  0
 60131  1  0  0  0
 60132  1  0  0  0
 60133  1  0  0  0
 61134  1  0  0  0
 61135  1  0  0  0
 61136  1  0  0  0
 62137  1  0  0  0
 62138  1  0  0  0
 62139  1  0  0  0
 63 65  1  0  0  0
 63140  1  0  0  0
 63141  1  0  0  0
 63142  1  0  0  0
 64143  1  0  0  0
 65144  1  0  0  0
 68 82  1  0  0  0
 71 73  2  0  0  0
 71 74  1  0  0  0
 71145  1  0  0  0
 72 73  1  0  0  0
 72 76  2  0  0  0
 72146  1  0  0  0
 73 77  1  0  0  0
 74 75  2  0  0  0
 74 78  1  0  0  0
 75 76  1  0  0  0
 75 79  1  0  0  0
 76 85  1  0  0  0
 77147  1  0  0  0
 77148  1  0  0  0
 77149  1  0  0  0
 78150  1  0  0  0
 78151  1  0  0  0
 78152  1  0  0  0
 79 81  1  0  0  0
 79153  1  0  0  0
 79154  1  0  0  0
 80 82  1  0  0  0
 80 83  1  0  0  0
 80155  1  0  0  0
 80156  1  0  0  0
 81 84  1  0  0  0
 81157  1  0  0  0
 81158  1  0  0  0
 82159  1  0  0  0
 82160  1  0  0  0
 83 85  1  0  0  0
 83161  1  0  0  0
 83162  1  0  0  0
 84163  1  0  0  0
M  ISO  4   1 100  68 101  82 101  84 100
M  END
> <chiral flag>
0

> <version>
0

> <s_m_source_file>
/data/baiqing/PycharmProjects/Reinvent-master-3.2/result/LINK_invent/BTK/process_docking_weight1_custom_sum_contain_oxygen_bond_distance_aromatic_linkinvent_7_9_3/rearranged_h_0027.sdf

> <i_m_source_file_index>
60

> <r_mmod_Potential_Energy-OPLS-2005>
95.6310729980469

> <r_mmod_Stretch_Energy-OPLS-2005>
85.7510681152344

> <r_mmod_Bend_Energy-OPLS-2005>
146.490859985352

> <r_mmod_Torsional_Energy-OPLS-2005>
273.049896240234

> <r_mmod_Improper_Torsional_Energy-OPLS-2005>
7.09279251098633

> <r_mmod_Van_der_Waal_Energy-OPLS-2005>
158.336669921875

> <r_mmod_Electrostatic_Energy-OPLS-2005>
-401.477325439453

> <r_mmod_Solvation_Energy-OPLS-2005>
-212.039199829102

> <b_mmod_Minimization_Converged-OPLS-2005>
0

> <r_mmod_RMS_Derivative-OPLS-2005>
4.25420618057251

$$$$
60
                    3D
 Structure written by MMmdl.
160168  0  0  1  0            999 V2000
  -29.1662  -12.4597   20.3091 C   0  0  0  0  0  0
  -29.8406  -11.3036   19.4996 C   0  0  0  0  0  0
  -29.0061  -12.0246   18.0089 C   0  0  0  0  0  0
  -27.9346  -13.3737   18.2917 C   0  0  0  0  0  0
  -27.7515  -14.1876   19.8792 C   0  0  2  0  0  0
  -28.7714  -13.3830   21.3644 C   0  0  0  0  0  0
  -25.3245  -14.7432   20.0911 C   0  0  0  0  0  0
  -24.4572  -14.0533   20.7736 C   0  0  0  0  0  0
  -25.4927  -12.9627   21.1389 C   0  0  0  0  0  0
  -25.0245  -10.1497   21.2139 C   0  0  0  0  0  0
  -24.7912   -9.1798   22.2865 C   0  0  0  0  0  0
  -23.7677   -8.1700   22.4239 C   0  0  0  0  0  0
  -22.6993   -7.9958   21.5107 C   0  0  0  0  0  0
  -22.8047   -8.7925   20.3976 C   0  0  0  0  0  0
  -24.0876   -9.3986   20.2104 C   0  0  0  0  0  0
  -21.6875   -6.1101   22.5695 C   0  0  0  0  0  0
  -21.3791   -6.5602   23.8681 C   0  0  0  0  0  0
  -21.3485   -5.6562   24.9434 C   0  0  0  0  0  0
  -21.5991   -4.2908   24.7208 C   0  0  0  0  0  0
  -21.8757   -3.8269   23.4212 C   0  0  0  0  0  0
  -21.9168   -4.7323   22.3431 C   0  0  0  0  0  0
  -22.8439  -14.2183   20.7639 C   0  0  0  0  0  0
  -22.1697   -4.2678   21.0949 F   0  0  0  0  0  0
  -21.5660   -3.4245   25.7592 F   0  0  0  0  0  0
  -29.7763  -12.0670   21.0211 N   0  0  0  0  0  0
  -26.4671  -14.1194   20.3203 N   0  0  0  0  0  0
  -26.3613  -13.6759   21.5001 N   0  0  0  0  0  0
  -21.9186  -13.3919   21.3403 N   0  0  0  0  0  0
  -25.2932  -15.8569   19.3678 N   0  0  0  0  0  0
  -30.1293  -13.4725   19.7030 O   0  0  0  0  0  0
  -21.7227   -7.0142   21.5380 O   0  0  0  0  0  0
  -22.3451  -15.1778   20.2405 O   0  0  0  0  0  0
  -24.6675  -31.8202   23.1738 C   0  0  0  0  0  0
  -25.9373  -32.4537   23.8161 C   0  0  1  0  0  0
  -26.8372  -26.7014   20.4162 C   0  0  0  0  0  0
  -25.6043  -33.8370   24.2038 N   0  0  0  0  0  0
  -23.4719  -30.4526   21.5210 C   0  0  2  0  0  0
  -24.8799  -28.8431   20.0838 C   0  0  0  0  0  0
  -22.7657  -29.4448   22.4685 C   0  0  0  0  0  0
  -18.0321  -28.1421   22.8453 C   0  0  0  0  0  0
  -24.1494  -36.7190   23.2641 C   0  0  0  0  0  0
  -26.0443  -30.5630   21.4360 C   0  0  0  0  0  0
  -26.0463  -29.1421   20.7951 C   0  0  0  0  0  0
  -27.0517  -28.0815   20.9355 C   0  0  0  0  0  0
  -25.7801  -26.6371   19.5029 C   0  0  0  0  0  0
  -24.8004  -27.6386   19.3772 C   0  0  0  0  0  0
  -23.7033  -29.8073   20.1273 C   0  0  0  0  0  0
  -25.4143  -36.2948   24.0284 C   0  0  1  0  0  0
  -20.5948  -28.3771   23.1151 C   0  0  2  0  0  0
  -20.6801  -26.9441   22.5391 C   0  0  0  0  0  0
  -19.5772  -26.6366   21.5214 C   0  0  0  0  0  0
  -18.1953  -26.7949   22.1619 C   0  0  0  0  0  0
  -19.1584  -28.8917   23.2791 C   0  0  0  0  0  0
  -18.9497  -30.1505   23.8831 C   0  0  0  0  0  0
  -17.6490  -30.6606   24.0553 C   0  0  0  0  0  0
  -25.9127  -34.9332   23.4982 C   0  0  0  0  0  0
  -16.5378  -29.9086   23.6359 C   0  0  0  0  0  0
  -16.7302  -28.6512   23.0365 C   0  0  0  0  0  0
  -26.4579  -31.6543   25.0745 C   0  0  0  0  0  0
  -25.3654  -31.3866   26.1367 C   0  0  0  0  0  0
  -27.0489  -30.2879   24.6622 C   0  0  0  0  0  0
  -27.6056  -32.4381   25.7541 C   0  0  0  0  0  0
  -27.5576  -37.1748   24.8454 C   0  0  0  0  0  0
  -21.4327  -29.3047   22.3470 N   0  0  0  0  0  0
  -26.4276  -37.3701   23.9410 N   0  0  0  0  0  0
  -24.7516  -30.9804   22.0927 N   0  0  0  0  0  0
  -23.4220  -28.7990   23.2899 O   0  0  0  0  0  0
  -27.4087  -25.3645   20.7908 O   0  0  0  0  0  0
  -26.5733  -34.8882   22.4574 O   0  0  0  0  0  0
  -23.5749  -32.1262   23.6789 O   0  0  0  0  0  0
  -26.9472  -11.2921   22.1200 C   0  0  0  0  0  0
  -23.8454  -11.7788   20.2563 C   0  0  0  0  0  0
  -27.3018  -11.5308   20.4393 C   0  0  0  0  0  0
  -23.9005  -11.9532   22.3016 C   0  0  0  0  0  0
  -25.4811  -11.5860   23.0328 C   0  0  0  0  0  0
  -25.6655  -11.5067   19.4300 C   0  0  0  0  0  0
  -23.8229  -13.6106   23.2455 C   0  0  0  0  0  0
  -24.6348  -15.3897   23.2128 C   0  0  0  0  0  0
  -24.8197  -17.0615   22.3042 C   0  0  0  0  0  0
  -25.5238  -18.8101   22.5372 C   0  0  0  0  0  0
  -25.7081  -20.4395   21.5681 C   0  0  0  0  0  0
  -26.5092  -22.1627   21.7321 C   0  0  0  0  0  0
  -26.6133  -23.8209   20.7955 C   0  0  0  0  0  0
  -25.6505  -11.4733   24.7530 Cl  0  0  0  0  0  0
  -25.6751  -11.2425   17.7198 Cl  0  0  0  0  0  0
  -30.8989  -11.1506   19.2319 H   0  0  0  0  0  0
  -29.5268  -10.2480   19.5861 H   0  0  0  0  0  0
  -28.4660  -11.2317   17.4928 H   0  0  0  0  0  0
  -29.7695  -12.3384   17.2941 H   0  0  0  0  0  0
  -26.9976  -13.3299   17.7532 H   0  0  0  0  0  0
  -28.4144  -14.1579   17.7031 H   0  0  0  0  0  0
  -28.0143  -15.2432   19.7864 H   0  0  0  0  0  0
  -28.3764  -13.2809   22.3905 H   0  0  0  0  0  0
  -29.3820  -14.2358   21.7440 H   0  0  0  0  0  0
  -25.4193   -9.2130   23.1639 H   0  0  0  0  0  0
  -23.8144   -7.5494   23.3066 H   0  0  0  0  0  0
  -22.1402   -8.6377   19.5591 H   0  0  0  0  0  0
  -24.1378   -9.6599   19.1651 H   0  0  0  0  0  0
  -21.1751   -7.6067   24.0425 H   0  0  0  0  0  0
  -21.1284   -6.0064   25.9414 H   0  0  0  0  0  0
  -22.0557   -2.7764   23.2518 H   0  0  0  0  0  0
  -22.2360  -12.5581   21.8178 H   0  0  0  0  0  0
  -20.9352  -13.6157   21.3116 H   0  0  0  0  0  0
  -24.4422  -16.3944   19.2552 H   0  0  0  0  0  0
  -26.1177  -16.3151   19.0009 H   0  0  0  0  0  0
  -26.7408  -32.4960   23.0821 H   0  0  0  0  0  0
  -25.0135  -33.9431   25.0154 H   0  0  0  0  0  0
  -22.7899  -31.2916   21.3703 H   0  0  0  0  0  0
  -23.3787  -35.9486   23.3243 H   0  0  0  0  0  0
  -24.3572  -36.8909   22.2069 H   0  0  0  0  0  0
  -23.7211  -37.6343   23.6740 H   0  0  0  0  0  0
  -26.2616  -31.2792   20.6432 H   0  0  0  0  0  0
  -26.9048  -30.6004   22.0921 H   0  0  0  0  0  0
  -27.8909  -28.2538   21.5941 H   0  0  0  0  0  0
  -25.5820  -25.7010   19.0006 H   0  0  0  0  0  0
  -23.9276  -27.4337   18.7714 H   0  0  0  0  0  0
  -23.8929  -30.5874   19.3901 H   0  0  0  0  0  0
  -22.8008  -29.2944   19.7901 H   0  0  0  0  0  0
  -25.1335  -36.1737   25.0773 H   0  0  0  0  0  0
  -21.0041  -28.3403   24.1275 H   0  0  0  0  0  0
  -20.5701  -26.2388   23.3642 H   0  0  0  0  0  0
  -21.6660  -26.7419   22.1188 H   0  0  0  0  0  0
  -19.6930  -25.6255   21.1298 H   0  0  0  0  0  0
  -19.6721  -27.3135   20.6713 H   0  0  0  0  0  0
  -17.4221  -26.6687   21.4023 H   0  0  0  0  0  0
  -18.0348  -26.0110   22.9036 H   0  0  0  0  0  0
  -19.7972  -30.7338   24.2170 H   0  0  0  0  0  0
  -17.5042  -31.6283   24.5165 H   0  0  0  0  0  0
  -15.5378  -30.2970   23.7726 H   0  0  0  0  0  0
  -15.8700  -28.0815   22.7116 H   0  0  0  0  0  0
  -24.5836  -30.7222   25.7666 H   0  0  0  0  0  0
  -24.8847  -32.3100   26.4611 H   0  0  0  0  0  0
  -25.7826  -30.9136   27.0265 H   0  0  0  0  0  0
  -26.3179  -29.6496   24.1651 H   0  0  0  0  0  0
  -27.3948  -29.7336   25.5358 H   0  0  0  0  0  0
  -27.9164  -30.4006   24.0116 H   0  0  0  0  0  0
  -27.2616  -33.3733   26.1974 H   0  0  0  0  0  0
  -28.3943  -32.6866   25.0424 H   0  0  0  0  0  0
  -28.0647  -31.8614   26.5583 H   0  0  0  0  0  0
  -28.2537  -38.0100   24.7567 H   0  0  0  0  0  0
  -28.1131  -36.2632   24.6201 H   0  0  0  0  0  0
  -27.2301  -37.1292   25.8855 H   0  0  0  0  0  0
  -20.9575  -29.8759   21.6619 H   0  0  0  0  0  0
  -26.0118  -38.2747   24.1456 H   0  0  0  0  0  0
  -27.8136  -11.1796   22.7548 H   0  0  0  0  0  0
  -22.9472  -11.7981   19.6517 H   0  0  0  0  0  0
  -24.0906  -13.3258   24.2547 H   0  0  0  0  0  0
  -22.7783  -13.8020   23.4887 H   0  0  0  0  0  0
  -25.6673  -15.1797   23.4913 H   0  0  0  0  0  0
  -24.2108  -15.7676   24.1408 H   0  0  0  0  0  0
  -23.8711  -17.2005   21.7858 H   0  0  0  0  0  0
  -25.5320  -16.7903   21.5452 H   0  0  0  0  0  0
  -26.5552  -18.5950   22.8191 H   0  0  0  0  0  0
  -25.0715  -19.1286   23.4764 H   0  0  0  0  0  0
  -24.6712  -20.6801   21.3296 H   0  0  0  0  0  0
  -26.1064  -20.0930   20.6158 H   0  0  0  0  0  0
  -27.5584  -21.9212   21.9091 H   0  0  0  0  0  0
  -26.1594  -22.4821   22.7133 H   0  0  0  0  0  0
  -25.5649  -24.1017   20.7004 H   0  0  0  0  0  0
  -26.8769  -23.4911   19.7910 H   0  0  0  0  0  0
  1 25  1  0  0  0
  1 30  2  0  0  0
  1 73  1  0  0  0
  2  3  1  0  0  0
  2 25  1  0  0  0
  2 86  1  0  0  0
  2 87  1  0  0  0
  3  4  1  0  0  0
  3 88  1  0  0  0
  3 89  1  0  0  0
  4  5  1  0  0  0
  4 90  1  0  0  0
  4 91  1  0  0  0
  5  6  1  0  0  0
  5 26  1  0  0  0
  5 92  1  0  0  0
  6 25  1  0  0  0
  6 93  1  0  0  0
  6 94  1  0  0  0
  7  8  2  0  0  0
  7 26  1  0  0  0
  7 29  1  0  0  0
  8  9  1  0  0  0
  8 22  1  0  0  0
  9 10  1  0  0  0
  9 27  2  0  0  0
 10 11  2  0  0  0
 10 15  1  0  0  0
 11 12  1  0  0  0
 11 95  1  0  0  0
 12 13  2  0  0  0
 12 96  1  0  0  0
 13 14  1  0  0  0
 13 31  1  0  0  0
 14 15  2  0  0  0
 14 97  1  0  0  0
 15 98  1  0  0  0
 16 17  2  0  0  0
 16 21  1  0  0  0
 16 31  1  0  0  0
 17 18  1  0  0  0
 17 99  1  0  0  0
 18 19  2  0  0  0
 18100  1  0  0  0
 19 20  1  0  0  0
 19 24  1  0  0  0
 20 21  2  0  0  0
 20101  1  0  0  0
 21 23  1  0  0  0
 22 28  1  0  0  0
 22 32  2  0  0  0
 26 27  1  0  0  0
 28102  1  0  0  0
 28103  1  0  0  0
 29104  1  0  0  0
 29105  1  0  0  0
 33 34  1  0  0  0
 33 66  1  0  0  0
 33 70  2  0  0  0
 34 36  1  0  0  0
 34 59  1  0  0  0
 34106  1  0  0  0
 35 44  2  0  0  0
 35 45  1  0  0  0
 35 68  1  0  0  0
 36 56  1  0  0  0
 36107  1  0  0  0
 37 39  1  0  0  0
 37 47  1  0  0  0
 37 66  1  0  0  0
 37108  1  0  0  0
 38 43  2  0  0  0
 38 46  1  0  0  0
 38 47  1  0  0  0
 39 64  1  0  0  0
 39 67  2  0  0  0
 40 52  1  0  0  0
 40 53  2  0  0  0
 40 58  1  0  0  0
 41109  1  0  0  0
 41110  1  0  0  0
 41111  1  0  0  0
 41 48  1  0  0  0
 42 43  1  0  0  0
 42 66  1  0  0  0
 42112  1  0  0  0
 42113  1  0  0  0
 43 44  1  0  0  0
 44114  1  0  0  0
 45 46  2  0  0  0
 45115  1  0  0  0
 46116  1  0  0  0
 47117  1  0  0  0
 47118  1  0  0  0
 48 56  1  0  0  0
 48 65  1  0  0  0
 48119  1  0  0  0
 49 50  1  0  0  0
 49 53  1  0  0  0
 49 64  1  0  0  0
 49120  1  0  0  0
 50 51  1  0  0  0
 50121  1  0  0  0
 50122  1  0  0  0
 51 52  1  0  0  0
 51123  1  0  0  0
 51124  1  0  0  0
 52125  1  0  0  0
 52126  1  0  0  0
 53 54  1  0  0  0
 54 55  2  0  0  0
 54127  1  0  0  0
 55 57  1  0  0  0
 55128  1  0  0  0
 56 69  2  0  0  0
 57 58  2  0  0  0
 57129  1  0  0  0
 58130  1  0  0  0
 59 60  1  0  0  0
 59 61  1  0  0  0
 59 62  1  0  0  0
 60131  1  0  0  0
 60132  1  0  0  0
 60133  1  0  0  0
 61134  1  0  0  0
 61135  1  0  0  0
 61136  1  0  0  0
 62137  1  0  0  0
 62138  1  0  0  0
 62139  1  0  0  0
 63 65  1  0  0  0
 63140  1  0  0  0
 63141  1  0  0  0
 63142  1  0  0  0
 64143  1  0  0  0
 65144  1  0  0  0
 68 83  1  0  0  0
 71 73  2  0  0  0
 71 75  1  0  0  0
 71145  1  0  0  0
 72 74  1  0  0  0
 72 76  2  0  0  0
 72146  1  0  0  0
 73 76  1  0  0  0
 74 75  2  0  0  0
 74 77  1  0  0  0
 75 84  1  0  0  0
 76 85  1  0  0  0
 77 78  1  0  0  0
 77147  1  0  0  0
 77148  1  0  0  0
 78 79  1  0  0  0
 78149  1  0  0  0
 78150  1  0  0  0
 79 80  1  0  0  0
 79151  1  0  0  0
 79152  1  0  0  0
 80 81  1  0  0  0
 80153  1  0  0  0
 80154  1  0  0  0
 81 82  1  0  0  0
 81155  1  0  0  0
 81156  1  0  0  0
 82 83  1  0  0  0
 82157  1  0  0  0
 82158  1  0  0  0
 83159  1  0  0  0
 83160  1  0  0  0
M  ISO  4   1 100  68 101  73 100  83 101
M  END
> <chiral flag>
0

> <version>
0

> <s_m_source_file>
/data/baiqing/PycharmProjects/Reinvent-master-3.2/result/LINK_invent/BTK/process_docking_weight1_custom_sum_contain_oxygen_bond_distance_aromatic_linkinvent_7_9_3/rearranged_h_0027.sdf

> <i_m_source_file_index>
61

> <r_mmod_Potential_Energy-OPLS-2005>
19044.12890625

> <r_mmod_Stretch_Energy-OPLS-2005>
8883.556640625

> <r_mmod_Bend_Energy-OPLS-2005>
1830.82397460938

> <r_mmod_Torsional_Energy-OPLS-2005>
785.006713867188

> <r_mmod_Improper_Torsional_Energy-OPLS-2005>
57.647518157959

> <r_mmod_Van_der_Waal_Energy-OPLS-2005>
3825.3232421875

> <r_mmod_Electrostatic_Energy-OPLS-2005>
-331.416595458984

> <r_mmod_Solvation_Energy-OPLS-2005>
-185.263916015625

> <b_mmod_Minimization_Converged-OPLS-2005>
0

> <r_mmod_RMS_Derivative-OPLS-2005>
4.60635185241699

$$$$
61
                    3D
 Structure written by MMmdl.
170178  0  0  1  0            999 V2000
  -30.7443  -14.3916   20.6608 C   0  0  0  0  0  0
  -30.4194  -12.2885   19.4028 C   0  0  0  0  0  0
  -29.4885  -12.5249   18.1969 C   0  0  0  0  0  0
  -28.0101  -12.3874   18.6089 C   0  0  0  0  0  0
  -27.6673  -13.2033   19.8840 C   0  0  2  0  0  0
  -28.7060  -12.9328   20.9961 C   0  0  0  0  0  0
  -25.2610  -13.8154   20.5676 C   0  0  0  0  0  0
  -24.1851  -13.0440   20.9170 C   0  0  0  0  0  0
  -24.6395  -11.6900   20.8725 C   0  0  0  0  0  0
  -23.9055  -10.4293   21.0395 C   0  0  0  0  0  0
  -24.3611   -9.4209   21.9174 C   0  0  0  0  0  0
  -23.6288   -8.2242   22.0753 C   0  0  0  0  0  0
  -22.4271   -8.0280   21.3544 C   0  0  0  0  0  0
  -21.9899   -9.0250   20.4645 C   0  0  0  0  0  0
  -22.7227  -10.2129   20.3048 C   0  0  0  0  0  0
  -21.6853   -6.0731   22.5278 C   0  0  0  0  0  0
  -21.4014   -6.5639   23.8212 C   0  0  0  0  0  0
  -21.3657   -5.6789   24.9172 C   0  0  0  0  0  0
  -21.6044   -4.3052   24.7225 C   0  0  0  0  0  0
  -21.8817   -3.8145   23.4348 C   0  0  0  0  0  0
  -21.9195   -4.6960   22.3403 C   0  0  0  0  0  0
  -22.7875  -13.5243   21.1831 C   0  0  0  0  0  0
  -22.1661   -4.2148   21.0980 F   0  0  0  0  0  0
  -21.5628   -3.4536   25.7737 F   0  0  0  0  0  0
  -30.0474  -13.2395   20.4616 N   0  0  0  0  0  0
  -26.3052  -12.9320   20.3388 N   0  0  0  0  0  0
  -25.9324  -11.6481   20.5760 N   0  0  0  0  0  0
  -22.0509  -12.8243   22.0391 N   0  0  0  0  0  0
  -25.4346  -15.1868   20.4083 N   0  0  0  0  0  0
  -31.8011  -14.6301   20.0633 O   0  0  0  0  0  0
  -21.6636   -6.8876   21.4241 O   0  0  0  0  0  0
  -22.3562  -14.5547   20.6684 O   0  0  0  0  0  0
  -24.6107  -31.8703   23.2105 C   0  0  0  0  0  0
  -25.9013  -32.4832   23.8406 C   0  0  1  0  0  0
  -27.2488  -27.4607   20.1068 C   0  0  0  0  0  0
  -25.5883  -33.8631   24.2342 N   0  0  0  0  0  0
  -23.3993  -30.4904   21.5497 C   0  0  2  0  0  0
  -24.8535  -28.9535   20.1235 C   0  0  0  0  0  0
  -22.7408  -29.4659   22.5007 C   0  0  0  0  0  0
  -18.0276  -28.1381   22.8510 C   0  0  0  0  0  0
  -24.1491  -36.7317   23.2635 C   0  0  0  0  0  0
  -25.9253  -30.8407   21.3634 C   0  0  0  0  0  0
  -26.0075  -29.4713   20.7259 C   0  0  0  0  0  0
  -27.2081  -28.7275   20.7263 C   0  0  0  0  0  0
  -26.0851  -26.9485   19.4998 C   0  0  0  0  0  0
  -24.8834  -27.6856   19.5114 C   0  0  0  0  0  0
  -23.6111  -29.8158   20.1665 C   0  0  0  0  0  0
  -25.4103  -36.3113   24.0346 C   0  0  1  0  0  0
  -20.5869  -28.3653   23.1339 C   0  0  2  0  0  0
  -20.6759  -26.9384   22.5432 C   0  0  0  0  0  0
  -19.5732  -26.6385   21.5232 C   0  0  0  0  0  0
  -18.1919  -26.7925   22.1644 C   0  0  0  0  0  0
  -19.1530  -28.8836   23.2919 C   0  0  0  0  0  0
  -18.9445  -30.1448   23.8914 C   0  0  0  0  0  0
  -17.6445  -30.6577   24.0573 C   0  0  0  0  0  0
  -25.9026  -34.9478   23.5142 C   0  0  0  0  0  0
  -16.5339  -29.9077   23.6325 C   0  0  0  0  0  0
  -16.7266  -28.6501   23.0337 C   0  0  0  0  0  0
  -26.4455  -31.6599   25.0716 C   0  0  0  0  0  0
  -25.3732  -31.3700   26.1473 C   0  0  0  0  0  0
  -27.0274  -30.3047   24.6055 C   0  0  0  0  0  0
  -27.6037  -32.4308   25.7465 C   0  0  0  0  0  0
  -27.5593  -37.1788   24.8450 C   0  0  0  0  0  0
  -21.4138  -29.3016   22.3737 N   0  0  0  0  0  0
  -26.4285  -37.3802   23.9432 N   0  0  0  0  0  0
  -24.6634  -31.0822   22.0997 N   0  0  0  0  0  0
  -23.4207  -28.8196   23.3038 O   0  0  0  0  0  0
  -28.4156  -26.7464   20.0086 O   0  0  0  0  0  0
  -26.5587  -34.8926   22.4702 O   0  0  0  0  0  0
  -23.5297  -32.1447   23.7502 O   0  0  0  0  0  0
  -29.6521  -18.7979   22.5520 C   0  0  0  0  0  0
  -30.9382  -19.3285   22.2802 C   0  0  0  0  0  0
  -29.4268  -17.4085   22.3481 C   0  0  0  0  0  0
  -31.9282  -18.4412   21.8013 C   0  0  0  0  0  0
  -30.4677  -16.6062   21.8087 C   0  0  0  0  0  0
  -28.5362  -19.7130   23.0513 C   0  0  0  0  0  0
  -28.0621  -16.8007   22.6873 C   0  0  0  0  0  0
  -33.3470  -18.8812   21.4781 C   0  0  0  0  0  0
  -32.9020  -23.3542   21.9928 C   0  0  0  0  0  0
  -31.2599  -20.8144   22.5045 C   0  0  0  0  0  0
  -31.1060  -21.6599   21.2189 C   0  0  0  0  0  0
  -29.9325  -25.0638   20.7467 C   0  0  0  0  0  0
  -30.4453  -24.1003   21.8396 C   0  0  0  0  0  0
  -28.8251  -26.0451   21.1797 C   0  0  0  0  0  0
  -31.5434  -23.1457   21.2993 C   0  0  1  0  0  0
  -31.6858  -17.1380   21.5752 N   0  0  0  0  0  0
  -30.1742  -15.2417   21.5350 N   0  0  0  0  0  0
  -31.4635  -12.3835   19.0986 H   0  0  0  0  0  0
  -30.3145  -11.2662   19.7683 H   0  0  0  0  0  0
  -29.7206  -11.8203   17.3970 H   0  0  0  0  0  0
  -29.6645  -13.5205   17.7874 H   0  0  0  0  0  0
  -27.8087  -11.3291   18.7802 H   0  0  0  0  0  0
  -27.3612  -12.6879   17.7853 H   0  0  0  0  0  0
  -27.7277  -14.2589   19.6188 H   0  0  0  0  0  0
  -28.6707  -11.8824   21.2886 H   0  0  0  0  0  0
  -28.4537  -13.4829   21.9022 H   0  0  0  0  0  0
  -25.2761   -9.5684   22.4743 H   0  0  0  0  0  0
  -23.9999   -7.4636   22.7470 H   0  0  0  0  0  0
  -21.0833   -8.8765   19.8955 H   0  0  0  0  0  0
  -22.3685  -10.9664   19.6154 H   0  0  0  0  0  0
  -21.2002   -7.6145   23.9716 H   0  0  0  0  0  0
  -21.1480   -6.0518   25.9077 H   0  0  0  0  0  0
  -22.0598   -2.7606   23.2844 H   0  0  0  0  0  0
  -22.4122  -11.9899   22.4777 H   0  0  0  0  0  0
  -21.1130  -13.1275   22.2593 H   0  0  0  0  0  0
  -24.6655  -15.8407   20.5056 H   0  0  0  0  0  0
  -26.2808  -15.6199   20.0627 H   0  0  0  0  0  0
  -26.7087  -32.5566   23.1177 H   0  0  0  0  0  0
  -25.0050  -33.9805   25.0492 H   0  0  0  0  0  0
  -22.6859  -31.3037   21.4062 H   0  0  0  0  0  0
  -23.3762  -35.9640   23.3273 H   0  0  0  0  0  0
  -24.3607  -36.8945   22.2057 H   0  0  0  0  0  0
  -23.7220  -37.6509   23.6653 H   0  0  0  0  0  0
  -26.0316  -31.5997   20.5866 H   0  0  0  0  0  0
  -26.8160  -30.9055   21.9753 H   0  0  0  0  0  0
  -28.1025  -29.1286   21.1820 H   0  0  0  0  0  0
  -26.1134  -25.9836   19.0117 H   0  0  0  0  0  0
  -23.9979  -27.2821   19.0394 H   0  0  0  0  0  0
  -23.7154  -30.5852   19.4015 H   0  0  0  0  0  0
  -22.7390  -29.2288   19.8709 H   0  0  0  0  0  0
  -25.1270  -36.1979   25.0836 H   0  0  0  0  0  0
  -20.9980  -28.3202   24.1453 H   0  0  0  0  0  0
  -20.5698  -26.2241   23.3615 H   0  0  0  0  0  0
  -21.6623  -26.7433   22.1198 H   0  0  0  0  0  0
  -19.6878  -25.6306   21.1230 H   0  0  0  0  0  0
  -19.6663  -27.3230   20.6795 H   0  0  0  0  0  0
  -17.4192  -26.6704   21.4038 H   0  0  0  0  0  0
  -18.0277  -26.0067   22.9037 H   0  0  0  0  0  0
  -19.7917  -30.7274   24.2282 H   0  0  0  0  0  0
  -17.4987  -31.6257   24.5172 H   0  0  0  0  0  0
  -15.5335  -30.2978   23.7632 H   0  0  0  0  0  0
  -15.8671  -28.0830   22.7017 H   0  0  0  0  0  0
  -24.5875  -30.7087   25.7802 H   0  0  0  0  0  0
  -24.8973  -32.2870   26.4966 H   0  0  0  0  0  0
  -25.8099  -30.8823   27.0201 H   0  0  0  0  0  0
  -26.2807  -29.6817   24.1122 H   0  0  0  0  0  0
  -27.4081  -29.7258   25.4479 H   0  0  0  0  0  0
  -27.8624  -30.4382   23.9170 H   0  0  0  0  0  0
  -27.2668  -33.3596   26.2082 H   0  0  0  0  0  0
  -28.3826  -32.6892   25.0276 H   0  0  0  0  0  0
  -28.0735  -31.8419   26.5351 H   0  0  0  0  0  0
  -28.2549  -38.0145   24.7593 H   0  0  0  0  0  0
  -28.1155  -36.2688   24.6148 H   0  0  0  0  0  0
  -27.2340  -37.1273   25.8853 H   0  0  0  0  0  0
  -20.9291  -29.8747   21.6972 H   0  0  0  0  0  0
  -26.0175  -38.2873   24.1485 H   0  0  0  0  0  0
  -28.5528  -20.6736   22.5370 H   0  0  0  0  0  0
  -28.6492  -19.8944   24.1205 H   0  0  0  0  0  0
  -27.5404  -19.3100   22.8785 H   0  0  0  0  0  0
  -27.6945  -17.1815   23.6411 H   0  0  0  0  0  0
  -28.0730  -15.7179   22.7941 H   0  0  0  0  0  0
  -27.3348  -17.0521   21.9150 H   0  0  0  0  0  0
  -33.3533  -19.6178   20.6763 H   0  0  0  0  0  0
  -33.9582  -18.0391   21.1493 H   0  0  0  0  0  0
  -33.8343  -19.3124   22.3520 H   0  0  0  0  0  0
  -33.6656  -22.7021   21.5665 H   0  0  0  0  0  0
  -32.8474  -23.1545   23.0620 H   0  0  0  0  0  0
  -33.2493  -24.3816   21.8699 H   0  0  0  0  0  0
  -32.2776  -20.8862   22.8844 H   0  0  0  0  0  0
  -30.6510  -21.2305   23.3060 H   0  0  0  0  0  0
  -30.0761  -21.6092   20.8644 H   0  0  0  0  0  0
  -31.6961  -21.1910   20.4319 H   0  0  0  0  0  0
  -29.5547  -24.4664   19.9161 H   0  0  0  0  0  0
  -30.7705  -25.6375   20.3481 H   0  0  0  0  0  0
  -29.6086  -23.5259   22.2388 H   0  0  0  0  0  0
  -30.8237  -24.6797   22.6825 H   0  0  0  0  0  0
  -29.1970  -26.7450   21.9290 H   0  0  0  0  0  0
  -27.9871  -25.5001   21.6174 H   0  0  0  0  0  0
  -31.7222  -23.4305   20.2609 H   0  0  0  0  0  0
  -29.3155  -14.8998   21.9322 H   0  0  0  0  0  0
  1 25  1  0  0  0
  1 30  2  0  0  0
  1 87  1  0  0  0
  2  3  1  0  0  0
  2 25  1  0  0  0
  2 88  1  0  0  0
  2 89  1  0  0  0
  3  4  1  0  0  0
  3 90  1  0  0  0
  3 91  1  0  0  0
  4  5  1  0  0  0
  4 92  1  0  0  0
  4 93  1  0  0  0
  5  6  1  0  0  0
  5 26  1  0  0  0
  5 94  1  0  0  0
  6 25  1  0  0  0
  6 95  1  0  0  0
  6 96  1  0  0  0
  7  8  2  0  0  0
  7 26  1  0  0  0
  7 29  1  0  0  0
  8  9  1  0  0  0
  8 22  1  0  0  0
  9 10  1  0  0  0
  9 27  2  0  0  0
 10 11  2  0  0  0
 10 15  1  0  0  0
 11 12  1  0  0  0
 11 97  1  0  0  0
 12 13  2  0  0  0
 12 98  1  0  0  0
 13 14  1  0  0  0
 13 31  1  0  0  0
 14 15  2  0  0  0
 14 99  1  0  0  0
 15100  1  0  0  0
 16 17  2  0  0  0
 16 21  1  0  0  0
 16 31  1  0  0  0
 17 18  1  0  0  0
 17101  1  0  0  0
 18 19  2  0  0  0
 18102  1  0  0  0
 19 20  1  0  0  0
 19 24  1  0  0  0
 20 21  2  0  0  0
 20103  1  0  0  0
 21 23  1  0  0  0
 22 28  1  0  0  0
 22 32  2  0  0  0
 26 27  1  0  0  0
 28104  1  0  0  0
 28105  1  0  0  0
 29106  1  0  0  0
 29107  1  0  0  0
 33 34  1  0  0  0
 33 66  1  0  0  0
 33 70  2  0  0  0
 34 36  1  0  0  0
 34 59  1  0  0  0
 34108  1  0  0  0
 35 44  2  0  0  0
 35 45  1  0  0  0
 35 68  1  0  0  0
 36 56  1  0  0  0
 36109  1  0  0  0
 37 39  1  0  0  0
 37 47  1  0  0  0
 37 66  1  0  0  0
 37110  1  0  0  0
 38 43  2  0  0  0
 38 46  1  0  0  0
 38 47  1  0  0  0
 39 64  1  0  0  0
 39 67  2  0  0  0
 40 52  1  0  0  0
 40 53  2  0  0  0
 40 58  1  0  0  0
 41111  1  0  0  0
 41112  1  0  0  0
 41113  1  0  0  0
 41 48  1  0  0  0
 42 43  1  0  0  0
 42 66  1  0  0  0
 42114  1  0  0  0
 42115  1  0  0  0
 43 44  1  0  0  0
 44116  1  0  0  0
 45 46  2  0  0  0
 45117  1  0  0  0
 46118  1  0  0  0
 47119  1  0  0  0
 47120  1  0  0  0
 48 56  1  0  0  0
 48 65  1  0  0  0
 48121  1  0  0  0
 49 50  1  0  0  0
 49 53  1  0  0  0
 49 64  1  0  0  0
 49122  1  0  0  0
 50 51  1  0  0  0
 50123  1  0  0  0
 50124  1  0  0  0
 51 52  1  0  0  0
 51125  1  0  0  0
 51126  1  0  0  0
 52127  1  0  0  0
 52128  1  0  0  0
 53 54  1  0  0  0
 54 55  2  0  0  0
 54129  1  0  0  0
 55 57  1  0  0  0
 55130  1  0  0  0
 56 69  2  0  0  0
 57 58  2  0  0  0
 57131  1  0  0  0
 58132  1  0  0  0
 59 60  1  0  0  0
 59 61  1  0  0  0
 59 62  1  0  0  0
 60133  1  0  0  0
 60134  1  0  0  0
 60135  1  0  0  0
 61136  1  0  0  0
 61137  1  0  0  0
 61138  1  0  0  0
 62139  1  0  0  0
 62140  1  0  0  0
 62141  1  0  0  0
 63 65  1  0  0  0
 63142  1  0  0  0
 63143  1  0  0  0
 63144  1  0  0  0
 64145  1  0  0  0
 65146  1  0  0  0
 68 84  1  0  0  0
 71 72  2  0  0  0
 71 73  1  0  0  0
 71 76  1  0  0  0
 72 74  1  0  0  0
 72 80  1  0  0  0
 73 75  2  0  0  0
 73 77  1  0  0  0
 74 78  1  0  0  0
 74 86  2  0  0  0
 75 86  1  0  0  0
 75 87  1  0  0  0
 76147  1  0  0  0
 76148  1  0  0  0
 76149  1  0  0  0
 77150  1  0  0  0
 77151  1  0  0  0
 77152  1  0  0  0
 78153  1  0  0  0
 78154  1  0  0  0
 78155  1  0  0  0
 79156  1  0  0  0
 79157  1  0  0  0
 79158  1  0  0  0
 79 85  1  0  0  0
 80 81  1  0  0  0
 80159  1  0  0  0
 80160  1  0  0  0
 81 85  1  0  0  0
 81161  1  0  0  0
 81162  1  0  0  0
 82 83  1  0  0  0
 82 84  1  0  0  0
 82163  1  0  0  0
 82164  1  0  0  0
 83 85  1  0  0  0
 83165  1  0  0  0
 83166  1  0  0  0
 84167  1  0  0  0
 84168  1  0  0  0
 85169  1  0  0  0
 87170  1  0  0  0
M  ISO  4   1 100  68 101  84 101  87 100
M  END
> <chiral flag>
0

> <version>
0

> <s_m_source_file>
/data/baiqing/PycharmProjects/Reinvent-master-3.2/result/LINK_invent/BTK/process_docking_weight1_custom_sum_contain_oxygen_bond_distance_aromatic_linkinvent_7_9_3/rearranged_h_0027.sdf

> <i_m_source_file_index>
62

> <r_mmod_Potential_Energy-OPLS-2005>
-190.541976928711

> <r_mmod_Stretch_Energy-OPLS-2005>
37.6323204040527

> <r_mmod_Bend_Energy-OPLS-2005>
104.92000579834

> <r_mmod_Torsional_Energy-OPLS-2005>
242.364212036133

> <r_mmod_Improper_Torsional_Energy-OPLS-2005>
2.47654318809509

> <r_mmod_Van_der_Waal_Energy-OPLS-2005>
161.629135131836

> <r_mmod_Electrostatic_Energy-OPLS-2005>
-519.702392578125

> <r_mmod_Solvation_Energy-OPLS-2005>
-226.436477661133

> <b_mmod_Minimization_Converged-OPLS-2005>
0

> <r_mmod_RMS_Derivative-OPLS-2005>
2.1872284412384

$$$$
62
                    3D
 Structure written by MMmdl.
171180  0  0  1  0            999 V2000
  -30.6843  -14.6175   20.5204 C   0  0  0  0  0  0
  -30.4268  -12.3951   19.4485 C   0  0  0  0  0  0
  -29.5098  -12.5203   18.2162 C   0  0  0  0  0  0
  -28.0302  -12.3606   18.6221 C   0  0  0  0  0  0
  -27.6499  -13.2307   19.8533 C   0  0  2  0  0  0
  -28.6939  -13.1112   20.9849 C   0  0  0  0  0  0
  -25.2546  -13.8182   20.5667 C   0  0  0  0  0  0
  -24.1839  -13.0434   20.9199 C   0  0  0  0  0  0
  -24.6434  -11.6914   20.8719 C   0  0  0  0  0  0
  -23.9105  -10.4288   21.0384 C   0  0  0  0  0  0
  -24.3655   -9.4212   21.9165 C   0  0  0  0  0  0
  -23.6323   -8.2245   22.0749 C   0  0  0  0  0  0
  -22.4302   -8.0283   21.3545 C   0  0  0  0  0  0
  -21.9935   -9.0248   20.4628 C   0  0  0  0  0  0
  -22.7268  -10.2120   20.3032 C   0  0  0  0  0  0
  -21.6858   -6.0745   22.5278 C   0  0  0  0  0  0
  -21.4017   -6.5641   23.8215 C   0  0  0  0  0  0
  -21.3660   -5.6790   24.9163 C   0  0  0  0  0  0
  -21.6039   -4.3059   24.7210 C   0  0  0  0  0  0
  -21.8826   -3.8155   23.4325 C   0  0  0  0  0  0
  -21.9202   -4.6981   22.3393 C   0  0  0  0  0  0
  -22.7853  -13.5206   21.1840 C   0  0  0  0  0  0
  -22.1658   -4.2170   21.0963 F   0  0  0  0  0  0
  -21.5626   -3.4537   25.7716 F   0  0  0  0  0  0
  -30.0093  -13.4308   20.4142 N   0  0  0  0  0  0
  -26.2984  -12.9407   20.3261 N   0  0  0  0  0  0
  -25.9362  -11.6549   20.5720 N   0  0  0  0  0  0
  -22.0483  -12.8211   22.0392 N   0  0  0  0  0  0
  -25.4202  -15.1902   20.4059 N   0  0  0  0  0  0
  -31.8541  -14.7126   20.1465 O   0  0  0  0  0  0
  -21.6651   -6.8893   21.4245 O   0  0  0  0  0  0
  -22.3533  -14.5486   20.6652 O   0  0  0  0  0  0
  -24.6301  -31.8601   23.2039 C   0  0  0  0  0  0
  -25.9156  -32.4759   23.8361 C   0  0  1  0  0  0
  -27.2176  -27.3140   20.1087 C   0  0  0  0  0  0
  -25.5966  -33.8557   24.2282 N   0  0  0  0  0  0
  -23.4215  -30.4893   21.5478 C   0  0  2  0  0  0
  -24.8636  -28.9516   20.1080 C   0  0  0  0  0  0
  -22.7505  -29.4650   22.4947 C   0  0  0  0  0  0
  -18.0300  -28.1383   22.8500 C   0  0  0  0  0  0
  -24.1481  -36.7283   23.2646 C   0  0  0  0  0  0
  -25.9683  -30.7889   21.3788 C   0  0  0  0  0  0
  -26.0370  -29.4209   20.7123 C   0  0  0  0  0  0
  -27.2182  -28.6167   20.6990 C   0  0  0  0  0  0
  -26.0130  -26.9067   19.4827 C   0  0  0  0  0  0
  -24.8562  -27.7016   19.4783 C   0  0  0  0  0  0
  -23.6321  -29.8301   20.1605 C   0  0  0  0  0  0
  -25.4106  -36.3076   24.0342 C   0  0  1  0  0  0
  -20.5908  -28.3706   23.1277 C   0  0  2  0  0  0
  -20.6796  -26.9429   22.5402 C   0  0  0  0  0  0
  -19.5757  -26.6396   21.5224 C   0  0  0  0  0  0
  -18.1937  -26.7933   22.1626 C   0  0  0  0  0  0
  -19.1551  -28.8867   23.2881 C   0  0  0  0  0  0
  -18.9458  -30.1468   23.8893 C   0  0  0  0  0  0
  -17.6447  -30.6577   24.0573 C   0  0  0  0  0  0
  -25.9058  -34.9445   23.5109 C   0  0  0  0  0  0
  -16.5344  -29.9064   23.6331 C   0  0  0  0  0  0
  -16.7285  -28.6485   23.0353 C   0  0  0  0  0  0
  -26.4520  -31.6562   25.0736 C   0  0  0  0  0  0
  -25.3734  -31.3681   26.1440 C   0  0  0  0  0  0
  -27.0378  -30.2980   24.6221 C   0  0  0  0  0  0
  -27.6065  -32.4317   25.7506 C   0  0  0  0  0  0
  -27.5577  -37.1804   24.8469 C   0  0  0  0  0  0
  -21.4224  -29.3047   22.3668 N   0  0  0  0  0  0
  -26.4289  -37.3770   23.9410 N   0  0  0  0  0  0
  -24.6919  -31.0627   22.0986 N   0  0  0  0  0  0
  -23.4224  -28.8207   23.3043 O   0  0  0  0  0  0
  -28.3299  -26.4484   20.1563 O   0  0  0  0  0  0
  -26.5617  -34.8928   22.4669 O   0  0  0  0  0  0
  -23.5465  -32.1411   23.7366 O   0  0  0  0  0  0
  -30.8638  -19.3912   20.1782 C   0  0  0  0  0  0
  -30.4769  -20.7315   19.8988 C   0  0  0  0  0  0
  -30.0035  -18.4507   20.8006 C   0  0  0  0  0  0
  -28.6974  -18.9232   21.1262 C   0  0  0  0  0  0
  -29.1764  -21.2123   20.1928 C   0  0  0  0  0  0
  -28.2920  -20.2639   20.7959 C   0  0  0  0  0  0
  -29.9830  -24.0851   17.6516 C   0  0  0  0  0  0
  -30.3782  -24.1951   19.1374 C   0  0  0  0  0  0
  -28.2281  -22.3410   18.3325 C   0  0  0  0  0  0
  -29.3286  -22.7274   17.3104 C   0  0  1  0  0  0
  -29.1947  -23.8590   20.0671 C   0  0  1  0  0  0
  -27.7159  -18.0019   21.8401 C   0  0  0  0  0  0
  -28.3462  -21.3983   15.3215 C   0  0  0  0  0  0
  -30.6069  -17.0638   21.2393 C   0  0  0  0  0  0
  -28.7828  -22.7627   15.8698 C   0  0  0  0  0  0
  -28.0711  -25.0006   19.9473 C   0  0  0  0  0  0
  -28.6881  -22.4825   19.7174 N   0  0  0  0  0  0
  -29.9907  -15.7317   20.9078 N   0  0  0  0  0  0
  -26.6560  -20.7544   21.0977 Cl  0  0  0  0  0  0
  -31.4729  -12.4952   19.1489 H   0  0  0  0  0  0
  -30.3379  -11.4046   19.8956 H   0  0  0  0  0  0
  -29.7818  -11.7760   17.4660 H   0  0  0  0  0  0
  -29.6604  -13.4944   17.7477 H   0  0  0  0  0  0
  -27.8617  -11.3063   18.8409 H   0  0  0  0  0  0
  -27.3811  -12.6009   17.7783 H   0  0  0  0  0  0
  -27.6595  -14.2651   19.5106 H   0  0  0  0  0  0
  -28.7034  -12.1008   21.3952 H   0  0  0  0  0  0
  -28.4425  -13.7742   21.8148 H   0  0  0  0  0  0
  -25.2799   -9.5688   22.4737 H   0  0  0  0  0  0
  -24.0032   -7.4643   22.7477 H   0  0  0  0  0  0
  -21.0857   -8.8748   19.8940 H   0  0  0  0  0  0
  -22.3719  -10.9649   19.6141 H   0  0  0  0  0  0
  -21.2002   -7.6148   23.9722 H   0  0  0  0  0  0
  -21.1482   -6.0512   25.9072 H   0  0  0  0  0  0
  -22.0613   -2.7626   23.2813 H   0  0  0  0  0  0
  -22.4085  -11.9896   22.4825 H   0  0  0  0  0  0
  -21.1071  -13.1205   22.2499 H   0  0  0  0  0  0
  -24.6454  -15.8341   20.5089 H   0  0  0  0  0  0
  -26.2494  -15.6241   20.0205 H   0  0  0  0  0  0
  -26.7233  -32.5419   23.1119 H   0  0  0  0  0  0
  -25.0141  -33.9667   25.0448 H   0  0  0  0  0  0
  -22.7177  -31.3121   21.4074 H   0  0  0  0  0  0
  -23.3748  -35.9605   23.3293 H   0  0  0  0  0  0
  -24.3583  -36.8918   22.2066 H   0  0  0  0  0  0
  -23.7217  -37.6484   23.6656 H   0  0  0  0  0  0
  -26.1167  -31.5591   20.6203 H   0  0  0  0  0  0
  -26.8443  -30.8207   22.0146 H   0  0  0  0  0  0
  -28.1198  -28.9775   21.1741 H   0  0  0  0  0  0
  -25.9113  -25.9553   18.9877 H   0  0  0  0  0  0
  -23.9631  -27.3379   18.9874 H   0  0  0  0  0  0
  -23.7450  -30.6081   19.4046 H   0  0  0  0  0  0
  -22.7517  -29.2578   19.8612 H   0  0  0  0  0  0
  -25.1277  -36.1945   25.0838 H   0  0  0  0  0  0
  -21.0009  -28.3284   24.1394 H   0  0  0  0  0  0
  -20.5728  -26.2323   23.3610 H   0  0  0  0  0  0
  -21.6656  -26.7465   22.1166 H   0  0  0  0  0  0
  -19.6920  -25.6311   21.1243 H   0  0  0  0  0  0
  -19.6683  -27.3221   20.6765 H   0  0  0  0  0  0
  -17.4223  -26.6737   21.4006 H   0  0  0  0  0  0
  -18.0293  -26.0044   22.8982 H   0  0  0  0  0  0
  -19.7921  -30.7312   24.2249 H   0  0  0  0  0  0
  -17.4976  -31.6249   24.5177 H   0  0  0  0  0  0
  -15.5341  -30.2953   23.7633 H   0  0  0  0  0  0
  -15.8694  -28.0794   22.7055 H   0  0  0  0  0  0
  -24.5939  -30.7004   25.7756 H   0  0  0  0  0  0
  -24.8883  -32.2828   26.4855 H   0  0  0  0  0  0
  -25.8057  -30.8866   27.0221 H   0  0  0  0  0  0
  -26.2970  -29.6711   24.1251 H   0  0  0  0  0  0
  -27.4075  -29.7257   25.4745 H   0  0  0  0  0  0
  -27.8837  -30.4255   23.9460 H   0  0  0  0  0  0
  -27.2659  -33.3627   26.2047 H   0  0  0  0  0  0
  -28.3879  -32.6872   25.0331 H   0  0  0  0  0  0
  -28.0721  -31.8469   26.5452 H   0  0  0  0  0  0
  -28.2592  -38.0104   24.7514 H   0  0  0  0  0  0
  -28.1077  -36.2643   24.6275 H   0  0  0  0  0  0
  -27.2303  -37.1429   25.8875 H   0  0  0  0  0  0
  -20.9429  -29.8748   21.6842 H   0  0  0  0  0  0
  -26.0180  -38.2857   24.1369 H   0  0  0  0  0  0
  -31.8677  -19.0912   19.9121 H   0  0  0  0  0  0
  -31.1926  -21.3634   19.3996 H   0  0  0  0  0  0
  -30.8703  -24.2282   17.0332 H   0  0  0  0  0  0
  -29.3060  -24.8996   17.3908 H   0  0  0  0  0  0
  -30.7471  -25.1996   19.3482 H   0  0  0  0  0  0
  -31.2227  -23.5388   19.3414 H   0  0  0  0  0  0
  -27.9097  -21.3120   18.1506 H   0  0  0  0  0  0
  -27.3287  -22.9380   18.1890 H   0  0  0  0  0  0
  -30.1135  -21.9718   17.3554 H   0  0  0  0  0  0
  -29.5534  -23.8370   21.0979 H   0  0  0  0  0  0
  -28.2192  -17.2395   22.4322 H   0  0  0  0  0  0
  -27.0746  -17.5070   21.1120 H   0  0  0  0  0  0
  -27.0790  -18.5511   22.5340 H   0  0  0  0  0  0
  -27.9723  -21.4993   14.3023 H   0  0  0  0  0  0
  -27.5444  -20.9607   15.9168 H   0  0  0  0  0  0
  -29.1779  -20.6934   15.2980 H   0  0  0  0  0  0
  -30.6764  -17.1065   22.3260 H   0  0  0  0  0  0
  -31.6482  -17.0543   20.9154 H   0  0  0  0  0  0
  -29.5530  -23.1637   15.2074 H   0  0  0  0  0  0
  -27.9432  -23.4583   15.8149 H   0  0  0  0  0  0
  -27.2540  -24.7137   20.6111 H   0  0  0  0  0  0
  -27.6843  -24.9214   18.9350 H   0  0  0  0  0  0
  -29.0193  -15.6028   21.1418 H   0  0  0  0  0  0
  1 25  1  0  0  0
  1 30  2  0  0  0
  1 88  1  0  0  0
  2  3  1  0  0  0
  2 25  1  0  0  0
  2 90  1  0  0  0
  2 91  1  0  0  0
  3  4  1  0  0  0
  3 92  1  0  0  0
  3 93  1  0  0  0
  4  5  1  0  0  0
  4 94  1  0  0  0
  4 95  1  0  0  0
  5  6  1  0  0  0
  5 26  1  0  0  0
  5 96  1  0  0  0
  6 25  1  0  0  0
  6 97  1  0  0  0
  6 98  1  0  0  0
  7  8  2  0  0  0
  7 26  1  0  0  0
  7 29  1  0  0  0
  8  9  1  0  0  0
  8 22  1  0  0  0
  9 10  1  0  0  0
  9 27  2  0  0  0
 10 11  2  0  0  0
 10 15  1  0  0  0
 11 12  1  0  0  0
 11 99  1  0  0  0
 12 13  2  0  0  0
 12100  1  0  0  0
 13 14  1  0  0  0
 13 31  1  0  0  0
 14 15  2  0  0  0
 14101  1  0  0  0
 15102  1  0  0  0
 16 17  2  0  0  0
 16 21  1  0  0  0
 16 31  1  0  0  0
 17 18  1  0  0  0
 17103  1  0  0  0
 18 19  2  0  0  0
 18104  1  0  0  0
 19 20  1  0  0  0
 19 24  1  0  0  0
 20 21  2  0  0  0
 20105  1  0  0  0
 21 23  1  0  0  0
 22 28  1  0  0  0
 22 32  2  0  0  0
 26 27  1  0  0  0
 28106  1  0  0  0
 28107  1  0  0  0
 29108  1  0  0  0
 29109  1  0  0  0
 33 34  1  0  0  0
 33 66  1  0  0  0
 33 70  2  0  0  0
 34 36  1  0  0  0
 34 59  1  0  0  0
 34110  1  0  0  0
 35 44  2  0  0  0
 35 45  1  0  0  0
 35 68  1  0  0  0
 36 56  1  0  0  0
 36111  1  0  0  0
 37 39  1  0  0  0
 37 47  1  0  0  0
 37 66  1  0  0  0
 37112  1  0  0  0
 38 43  2  0  0  0
 38 46  1  0  0  0
 38 47  1  0  0  0
 39 64  1  0  0  0
 39 67  2  0  0  0
 40 52  1  0  0  0
 40 53  2  0  0  0
 40 58  1  0  0  0
 41113  1  0  0  0
 41114  1  0  0  0
 41115  1  0  0  0
 41 48  1  0  0  0
 42 43  1  0  0  0
 42 66  1  0  0  0
 42116  1  0  0  0
 42117  1  0  0  0
 43 44  1  0  0  0
 44118  1  0  0  0
 45 46  2  0  0  0
 45119  1  0  0  0
 46120  1  0  0  0
 47121  1  0  0  0
 47122  1  0  0  0
 48 56  1  0  0  0
 48 65  1  0  0  0
 48123  1  0  0  0
 49 50  1  0  0  0
 49 53  1  0  0  0
 49 64  1  0  0  0
 49124  1  0  0  0
 50 51  1  0  0  0
 50125  1  0  0  0
 50126  1  0  0  0
 51 52  1  0  0  0
 51127  1  0  0  0
 51128  1  0  0  0
 52129  1  0  0  0
 52130  1  0  0  0
 53 54  1  0  0  0
 54 55  2  0  0  0
 54131  1  0  0  0
 55 57  1  0  0  0
 55132  1  0  0  0
 56 69  2  0  0  0
 57 58  2  0  0  0
 57133  1  0  0  0
 58134  1  0  0  0
 59 60  1  0  0  0
 59 61  1  0  0  0
 59 62  1  0  0  0
 60135  1  0  0  0
 60136  1  0  0  0
 60137  1  0  0  0
 61138  1  0  0  0
 61139  1  0  0  0
 61140  1  0  0  0
 62141  1  0  0  0
 62142  1  0  0  0
 62143  1  0  0  0
 63 65  1  0  0  0
 63144  1  0  0  0
 63145  1  0  0  0
 63146  1  0  0  0
 64147  1  0  0  0
 65148  1  0  0  0
 68 86  1  0  0  0
 71 72  2  0  0  0
 71 73  1  0  0  0
 71149  1  0  0  0
 72 75  1  0  0  0
 72150  1  0  0  0
 73 74  2  0  0  0
 73 84  1  0  0  0
 74 76  1  0  0  0
 74 82  1  0  0  0
 75 76  2  0  0  0
 75 87  1  0  0  0
 76 89  1  0  0  0
 77 78  1  0  0  0
 77 80  1  0  0  0
 77151  1  0  0  0
 77152  1  0  0  0
 78 81  1  0  0  0
 78153  1  0  0  0
 78154  1  0  0  0
 79 80  1  0  0  0
 79 87  1  0  0  0
 79155  1  0  0  0
 79156  1  0  0  0
 80 85  1  0  0  0
 80157  1  0  0  0
 81 86  1  0  0  0
 81 87  1  0  0  0
 81158  1  0  0  0
 82159  1  0  0  0
 82160  1  0  0  0
 82161  1  0  0  0
 83 85  1  0  0  0
 83162  1  0  0  0
 83163  1  0  0  0
 83164  1  0  0  0
 84 88  1  0  0  0
 84165  1  0  0  0
 84166  1  0  0  0
 85167  1  0  0  0
 85168  1  0  0  0
 86169  1  0  0  0
 86170  1  0  0  0
 88171  1  0  0  0
M  ISO  4   1 100  68 101  86 101  88 100
M  END
> <chiral flag>
0

> <version>
0

> <s_m_source_file>
/data/baiqing/PycharmProjects/Reinvent-master-3.2/result/LINK_invent/BTK/process_docking_weight1_custom_sum_contain_oxygen_bond_distance_aromatic_linkinvent_7_9_3/rearranged_h_0027.sdf

> <i_m_source_file_index>
63

> <r_mmod_Potential_Energy-OPLS-2005>
158.533264160156

> <r_mmod_Stretch_Energy-OPLS-2005>
86.4265213012695

> <r_mmod_Bend_Energy-OPLS-2005>
160.617141723633

> <r_mmod_Torsional_Energy-OPLS-2005>
268.632629394531

> <r_mmod_Improper_Torsional_Energy-OPLS-2005>
8.23309326171875

> <r_mmod_Van_der_Waal_Energy-OPLS-2005>
159.325378417969

> <r_mmod_Electrostatic_Energy-OPLS-2005>
-370.959716796875

> <r_mmod_Solvation_Energy-OPLS-2005>
-202.227233886719

> <b_mmod_Minimization_Converged-OPLS-2005>
0

> <r_mmod_RMS_Derivative-OPLS-2005>
2.93316435813904

$$$$
63
                    3D
 Structure written by MMmdl.
162171  0  0  1  0            999 V2000
  -30.6974  -14.5414   20.5551 C   0  0  0  0  0  0
  -30.4236  -12.3513   19.4294 C   0  0  0  0  0  0
  -29.4947  -12.5025   18.2080 C   0  0  0  0  0  0
  -28.0179  -12.3559   18.6244 C   0  0  0  0  0  0
  -27.6535  -13.2172   19.8636 C   0  0  2  0  0  0
  -28.6992  -13.0500   20.9875 C   0  0  0  0  0  0
  -25.2535  -13.8149   20.5658 C   0  0  0  0  0  0
  -24.1807  -13.0418   20.9163 C   0  0  0  0  0  0
  -24.6391  -11.6896   20.8731 C   0  0  0  0  0  0
  -23.9062  -10.4281   21.0398 C   0  0  0  0  0  0
  -24.3612   -9.4199   21.9178 C   0  0  0  0  0  0
  -23.6287   -8.2236   22.0750 C   0  0  0  0  0  0
  -22.4268   -8.0274   21.3539 C   0  0  0  0  0  0
  -21.9902   -9.0247   20.4645 C   0  0  0  0  0  0
  -22.7234  -10.2123   20.3051 C   0  0  0  0  0  0
  -21.6854   -6.0728   22.5276 C   0  0  0  0  0  0
  -21.4014   -6.5635   23.8207 C   0  0  0  0  0  0
  -21.3656   -5.6785   24.9169 C   0  0  0  0  0  0
  -21.6041   -4.3047   24.7225 C   0  0  0  0  0  0
  -21.8822   -3.8142   23.4345 C   0  0  0  0  0  0
  -21.9194   -4.6957   22.3400 C   0  0  0  0  0  0
  -22.7832  -13.5214   21.1836 C   0  0  0  0  0  0
  -22.1666   -4.2146   21.0977 F   0  0  0  0  0  0
  -21.5626   -3.4532   25.7739 F   0  0  0  0  0  0
  -30.0196  -13.3645   20.4200 N   0  0  0  0  0  0
  -26.2989  -12.9355   20.3334 N   0  0  0  0  0  0
  -25.9325  -11.6503   20.5762 N   0  0  0  0  0  0
  -22.0482  -12.8216   22.0408 N   0  0  0  0  0  0
  -25.4195  -15.1857   20.4074 N   0  0  0  0  0  0
  -31.8485  -14.6838   20.1361 O   0  0  0  0  0  0
  -21.6632   -6.8871   21.4237 O   0  0  0  0  0  0
  -22.3510  -14.5518   20.6687 O   0  0  0  0  0  0
  -24.6190  -31.8653   23.2063 C   0  0  0  0  0  0
  -25.9067  -32.4804   23.8375 C   0  0  1  0  0  0
  -27.2366  -27.3911   20.0914 C   0  0  0  0  0  0
  -25.5904  -33.8600   24.2317 N   0  0  0  0  0  0
  -23.4102  -30.4885   21.5463 C   0  0  2  0  0  0
  -24.8572  -28.9426   20.1186 C   0  0  0  0  0  0
  -22.7434  -29.4658   22.4952 C   0  0  0  0  0  0
  -18.0284  -28.1390   22.8493 C   0  0  0  0  0  0
  -24.1481  -36.7292   23.2634 C   0  0  0  0  0  0
  -25.9436  -30.8123   21.3698 C   0  0  0  0  0  0
  -26.0188  -29.4402   20.7219 C   0  0  0  0  0  0
  -27.2088  -28.6672   20.7150 C   0  0  0  0  0  0
  -26.0487  -26.9096   19.5005 C   0  0  0  0  0  0
  -24.8666  -27.6755   19.5107 C   0  0  0  0  0  0
  -23.6238  -29.8185   20.1623 C   0  0  0  0  0  0
  -25.4103  -36.3102   24.0339 C   0  0  1  0  0  0
  -20.5878  -28.3689   23.1292 C   0  0  2  0  0  0
  -20.6771  -26.9417   22.5409 C   0  0  0  0  0  0
  -19.5747  -26.6398   21.5205 C   0  0  0  0  0  0
  -18.1928  -26.7940   22.1625 C   0  0  0  0  0  0
  -19.1536  -28.8855   23.2899 C   0  0  0  0  0  0
  -18.9463  -30.1451   23.8928 C   0  0  0  0  0  0
  -17.6463  -30.6596   24.0571 C   0  0  0  0  0  0
  -25.9034  -34.9466   23.5134 C   0  0  0  0  0  0
  -16.5356  -29.9098   23.6320 C   0  0  0  0  0  0
  -16.7269  -28.6508   23.0356 C   0  0  0  0  0  0
  -26.4478  -31.6592   25.0721 C   0  0  0  0  0  0
  -25.3738  -31.3731   26.1474 C   0  0  0  0  0  0
  -27.0288  -30.3017   24.6132 C   0  0  0  0  0  0
  -27.6081  -32.4291   25.7472 C   0  0  0  0  0  0
  -27.5581  -37.1798   24.8464 C   0  0  0  0  0  0
  -21.4158  -29.3047   22.3689 N   0  0  0  0  0  0
  -26.4289  -37.3791   23.9420 N   0  0  0  0  0  0
  -24.6759  -31.0714   22.0982 N   0  0  0  0  0  0
  -23.4185  -28.8196   23.3012 O   0  0  0  0  0  0
  -28.3958  -26.6218   20.0312 O   0  0  0  0  0  0
  -26.5598  -34.8927   22.4695 O   0  0  0  0  0  0
  -23.5366  -32.1422   23.7425 O   0  0  0  0  0  0
  -30.8864  -20.4178   19.9742 C   0  0  0  0  0  0
  -31.1871  -19.1400   20.5039 C   0  0  0  0  0  0
  -28.5267  -19.9462   20.1880 C   0  0  0  0  0  0
  -29.5499  -20.8406   19.7884 C   0  0  0  0  0  0
  -30.1701  -18.2265   20.8754 C   0  0  0  0  0  0
  -29.0206  -27.0035   17.7228 C   0  0  0  0  0  0
  -28.7717  -26.0975   18.7988 C   0  0  0  0  0  0
  -28.8258  -18.6645   20.7299 C   0  0  0  0  0  0
  -29.2488  -26.5020   16.4241 C   0  0  0  0  0  0
  -28.9256  -24.6892   18.5293 C   0  0  0  0  0  0
  -29.2742  -25.1103   16.2461 C   0  0  0  0  0  0
  -29.0608  -28.5112   17.9460 C   0  0  0  0  0  0
  -29.2544  -22.1093   18.9500 C   0  0  0  0  0  0
  -30.5839  -16.8798   21.5341 C   0  0  0  0  0  0
  -28.9496  -23.5333   19.5808 C   0  0  0  0  0  0
  -29.1349  -24.2473   17.2672 N   0  0  0  0  0  0
  -30.0100  -15.5901   21.0687 N   0  0  0  0  0  0
  -27.5181  -17.6501   21.2180 Cl  0  0  0  0  0  0
  -29.4780  -27.5605   15.0686 Cl  0  0  0  0  0  0
  -29.5293  -24.4339   14.6766 Cl  0  0  0  0  0  0
  -31.4656  -12.4574   19.1221 H   0  0  0  0  0  0
  -30.3399  -11.3514   19.8575 H   0  0  0  0  0  0
  -29.7441  -11.7579   17.4509 H   0  0  0  0  0  0
  -29.6525  -13.4769   17.7432 H   0  0  0  0  0  0
  -27.8414  -11.3024   18.8436 H   0  0  0  0  0  0
  -27.3644  -12.6053   17.7875 H   0  0  0  0  0  0
  -27.6799  -14.2575   19.5380 H   0  0  0  0  0  0
  -28.6940  -12.0271   21.3667 H   0  0  0  0  0  0
  -28.4541  -13.6829   21.8417 H   0  0  0  0  0  0
  -25.2759   -9.5673   22.4753 H   0  0  0  0  0  0
  -23.9997   -7.4624   22.7468 H   0  0  0  0  0  0
  -21.0830   -8.8764   19.8954 H   0  0  0  0  0  0
  -22.3690  -10.9658   19.6158 H   0  0  0  0  0  0
  -21.2007   -7.6144   23.9709 H   0  0  0  0  0  0
  -21.1475   -6.0516   25.9070 H   0  0  0  0  0  0
  -22.0606   -2.7604   23.2845 H   0  0  0  0  0  0
  -22.4096  -11.9883   22.4807 H   0  0  0  0  0  0
  -21.1099  -13.1245   22.2611 H   0  0  0  0  0  0
  -24.6598  -15.8409   20.5522 H   0  0  0  0  0  0
  -26.2907  -15.6439   20.1728 H   0  0  0  0  0  0
  -26.7132  -32.5511   23.1127 H   0  0  0  0  0  0
  -25.0060  -33.9751   25.0468 H   0  0  0  0  0  0
  -22.7004  -31.3061   21.4030 H   0  0  0  0  0  0
  -23.3750  -35.9618   23.3309 H   0  0  0  0  0  0
  -24.3575  -36.8899   22.2047 H   0  0  0  0  0  0
  -23.7226  -37.6497   23.6637 H   0  0  0  0  0  0
  -26.0643  -31.5737   20.5985 H   0  0  0  0  0  0
  -26.8281  -30.8662   21.9923 H   0  0  0  0  0  0
  -28.1086  -29.0505   21.1747 H   0  0  0  0  0  0
  -26.0369  -25.9389   19.0255 H   0  0  0  0  0  0
  -23.9705  -27.2852   19.0486 H   0  0  0  0  0  0
  -23.7412  -30.5910   19.4012 H   0  0  0  0  0  0
  -22.7456  -29.2447   19.8617 H   0  0  0  0  0  0
  -25.1277  -36.1964   25.0830 H   0  0  0  0  0  0
  -20.9979  -28.3269   24.1412 H   0  0  0  0  0  0
  -20.5664  -26.2298   23.3606 H   0  0  0  0  0  0
  -21.6643  -26.7452   22.1215 H   0  0  0  0  0  0
  -19.6906  -25.6310   21.1234 H   0  0  0  0  0  0
  -19.6680  -27.3208   20.6735 H   0  0  0  0  0  0
  -17.4193  -26.6679   21.4037 H   0  0  0  0  0  0
  -18.0345  -26.0088   22.9029 H   0  0  0  0  0  0
  -19.7936  -30.7251   24.2332 H   0  0  0  0  0  0
  -17.5020  -31.6278   24.5165 H   0  0  0  0  0  0
  -15.5362  -30.3011   23.7625 H   0  0  0  0  0  0
  -15.8669  -28.0822   22.7082 H   0  0  0  0  0  0
  -24.5872  -30.7124   25.7802 H   0  0  0  0  0  0
  -24.8975  -32.2902   26.4950 H   0  0  0  0  0  0
  -25.8075  -30.8856   27.0214 H   0  0  0  0  0  0
  -26.2824  -29.6796   24.1175 H   0  0  0  0  0  0
  -27.4010  -29.7251   25.4611 H   0  0  0  0  0  0
  -27.8694  -30.4302   23.9311 H   0  0  0  0  0  0
  -27.2741  -33.3601   26.2063 H   0  0  0  0  0  0
  -28.3883  -32.6828   25.0282 H   0  0  0  0  0  0
  -28.0748  -31.8394   26.5374 H   0  0  0  0  0  0
  -28.2606  -38.0087   24.7527 H   0  0  0  0  0  0
  -28.1079  -36.2633   24.6274 H   0  0  0  0  0  0
  -27.2312  -37.1440   25.8869 H   0  0  0  0  0  0
  -20.9323  -29.8757   21.6894 H   0  0  0  0  0  0
  -26.0182  -38.2869   24.1435 H   0  0  0  0  0  0
  -31.7028  -21.0550   19.6599 H   0  0  0  0  0  0
  -32.2257  -18.8625   20.6202 H   0  0  0  0  0  0
  -27.4922  -20.2229   20.0400 H   0  0  0  0  0  0
  -29.3754  -28.7526   18.9597 H   0  0  0  0  0  0
  -28.0799  -28.9495   17.7646 H   0  0  0  0  0  0
  -29.7779  -28.9991   17.2880 H   0  0  0  0  0  0
  -28.4399  -21.8552   18.2706 H   0  0  0  0  0  0
  -30.1334  -22.2097   18.3117 H   0  0  0  0  0  0
  -30.3249  -16.9667   22.5897 H   0  0  0  0  0  0
  -31.6731  -16.8122   21.5287 H   0  0  0  0  0  0
  -27.9975  -23.5127   20.1114 H   0  0  0  0  0  0
  -29.7149  -23.7748   20.3182 H   0  0  0  0  0  0
  -29.0445  -15.4219   21.3070 H   0  0  0  0  0  0
  1 25  1  0  0  0
  1 30  2  0  0  0
  1 87  1  0  0  0
  2  3  1  0  0  0
  2 25  1  0  0  0
  2 91  1  0  0  0
  2 92  1  0  0  0
  3  4  1  0  0  0
  3 93  1  0  0  0
  3 94  1  0  0  0
  4  5  1  0  0  0
  4 95  1  0  0  0
  4 96  1  0  0  0
  5  6  1  0  0  0
  5 26  1  0  0  0
  5 97  1  0  0  0
  6 25  1  0  0  0
  6 98  1  0  0  0
  6 99  1  0  0  0
  7  8  2  0  0  0
  7 26  1  0  0  0
  7 29  1  0  0  0
  8  9  1  0  0  0
  8 22  1  0  0  0
  9 10  1  0  0  0
  9 27  2  0  0  0
 10 11  2  0  0  0
 10 15  1  0  0  0
 11 12  1  0  0  0
 11100  1  0  0  0
 12 13  2  0  0  0
 12101  1  0  0  0
 13 14  1  0  0  0
 13 31  1  0  0  0
 14 15  2  0  0  0
 14102  1  0  0  0
 15103  1  0  0  0
 16 17  2  0  0  0
 16 21  1  0  0  0
 16 31  1  0  0  0
 17 18  1  0  0  0
 17104  1  0  0  0
 18 19  2  0  0  0
 18105  1  0  0  0
 19 20  1  0  0  0
 19 24  1  0  0  0
 20 21  2  0  0  0
 20106  1  0  0  0
 21 23  1  0  0  0
 22 28  1  0  0  0
 22 32  2  0  0  0
 26 27  1  0  0  0
 28107  1  0  0  0
 28108  1  0  0  0
 29109  1  0  0  0
 29110  1  0  0  0
 33 34  1  0  0  0
 33 66  1  0  0  0
 33 70  2  0  0  0
 34 36  1  0  0  0
 34 59  1  0  0  0
 34111  1  0  0  0
 35 44  2  0  0  0
 35 45  1  0  0  0
 35 68  1  0  0  0
 36 56  1  0  0  0
 36112  1  0  0  0
 37 39  1  0  0  0
 37 47  1  0  0  0
 37 66  1  0  0  0
 37113  1  0  0  0
 38 43  2  0  0  0
 38 46  1  0  0  0
 38 47  1  0  0  0
 39 64  1  0  0  0
 39 67  2  0  0  0
 40 52  1  0  0  0
 40 53  2  0  0  0
 40 58  1  0  0  0
 41114  1  0  0  0
 41115  1  0  0  0
 41116  1  0  0  0
 41 48  1  0  0  0
 42 43  1  0  0  0
 42 66  1  0  0  0
 42117  1  0  0  0
 42118  1  0  0  0
 43 44  1  0  0  0
 44119  1  0  0  0
 45 46  2  0  0  0
 45120  1  0  0  0
 46121  1  0  0  0
 47122  1  0  0  0
 47123  1  0  0  0
 48 56  1  0  0  0
 48 65  1  0  0  0
 48124  1  0  0  0
 49 50  1  0  0  0
 49 53  1  0  0  0
 49 64  1  0  0  0
 49125  1  0  0  0
 50 51  1  0  0  0
 50126  1  0  0  0
 50127  1  0  0  0
 51 52  1  0  0  0
 51128  1  0  0  0
 51129  1  0  0  0
 52130  1  0  0  0
 52131  1  0  0  0
 53 54  1  0  0  0
 54 55  2  0  0  0
 54132  1  0  0  0
 55 57  1  0  0  0
 55133  1  0  0  0
 56 69  2  0  0  0
 57 58  2  0  0  0
 57134  1  0  0  0
 58135  1  0  0  0
 59 60  1  0  0  0
 59 61  1  0  0  0
 59 62  1  0  0  0
 60136  1  0  0  0
 60137  1  0  0  0
 60138  1  0  0  0
 61139  1  0  0  0
 61140  1  0  0  0
 61141  1  0  0  0
 62142  1  0  0  0
 62143  1  0  0  0
 62144  1  0  0  0
 63 65  1  0  0  0
 63145  1  0  0  0
 63146  1  0  0  0
 63147  1  0  0  0
 64148  1  0  0  0
 65149  1  0  0  0
 68 77  1  0  0  0
 71 72  2  0  0  0
 71 74  1  0  0  0
 71150  1  0  0  0
 72 75  1  0  0  0
 72151  1  0  0  0
 73 74  2  0  0  0
 73 78  1  0  0  0
 73152  1  0  0  0
 74 83  1  0  0  0
 75 78  2  0  0  0
 75 84  1  0  0  0
 76 77  2  0  0  0
 76 79  1  0  0  0
 76 82  1  0  0  0
 77 80  1  0  0  0
 78 88  1  0  0  0
 79 81  2  0  0  0
 79 89  1  0  0  0
 80 85  1  0  0  0
 80 86  2  0  0  0
 81 86  1  0  0  0
 81 90  1  0  0  0
 82153  1  0  0  0
 82154  1  0  0  0
 82155  1  0  0  0
 83 85  1  0  0  0
 83156  1  0  0  0
 83157  1  0  0  0
 84 87  1  0  0  0
 84158  1  0  0  0
 84159  1  0  0  0
 85160  1  0  0  0
 85161  1  0  0  0
 87162  1  0  0  0
M  ISO  4   1 100  68 101  77 101  87 100
M  END
> <chiral flag>
0

> <version>
0

> <s_m_source_file>
/data/baiqing/PycharmProjects/Reinvent-master-3.2/result/LINK_invent/BTK/process_docking_weight1_custom_sum_contain_oxygen_bond_distance_aromatic_linkinvent_7_9_3/rearranged_h_0027.sdf

> <i_m_source_file_index>
64

> <r_mmod_Potential_Energy-OPLS-2005>
-76.9205322265625

> <r_mmod_Stretch_Energy-OPLS-2005>
58.8534622192383

> <r_mmod_Bend_Energy-OPLS-2005>
123.879272460938

> <r_mmod_Torsional_Energy-OPLS-2005>
220.048461914062

> <r_mmod_Improper_Torsional_Energy-OPLS-2005>
4.49585580825806

> <r_mmod_Van_der_Waal_Energy-OPLS-2005>
175.028472900391

> <r_mmod_Electrostatic_Energy-OPLS-2005>
-480.723724365234

> <r_mmod_Solvation_Energy-OPLS-2005>
-200.888214111328

> <b_mmod_Minimization_Converged-OPLS-2005>
0

> <r_mmod_RMS_Derivative-OPLS-2005>
1.18381953239441

$$$$
64
                    3D
 Structure written by MMmdl.
150158  0  0  1  0            999 V2000
  -30.5862  -14.8909   20.4480 C   0  0  0  0  0  0
  -30.4361  -12.5754   19.4481 C   0  0  0  0  0  0
  -29.4882  -12.4926   18.2236 C   0  0  0  0  0  0
  -28.0372  -12.2695   18.6739 C   0  0  0  0  0  0
  -27.6198  -13.2346   19.8119 C   0  0  2  0  0  0
  -28.6748  -13.2932   20.9403 C   0  0  0  0  0  0
  -25.2491  -13.8256   20.5773 C   0  0  0  0  0  0
  -24.1784  -13.0452   20.9224 C   0  0  0  0  0  0
  -24.6350  -11.6954   20.8780 C   0  0  0  0  0  0
  -23.9053  -10.4300   21.0425 C   0  0  0  0  0  0
  -24.3589   -9.4217   21.9196 C   0  0  0  0  0  0
  -23.6274   -8.2251   22.0778 C   0  0  0  0  0  0
  -22.4283   -8.0272   21.3567 C   0  0  0  0  0  0
  -21.9875   -9.0260   20.4677 C   0  0  0  0  0  0
  -22.7205  -10.2135   20.3073 C   0  0  0  0  0  0
  -21.6821   -6.0708   22.5290 C   0  0  0  0  0  0
  -21.4034   -6.5639   23.8220 C   0  0  0  0  0  0
  -21.3634   -5.6790   24.9172 C   0  0  0  0  0  0
  -21.6069   -4.3064   24.7230 C   0  0  0  0  0  0
  -21.8796   -3.8133   23.4352 C   0  0  0  0  0  0
  -21.9216   -4.6947   22.3400 C   0  0  0  0  0  0
  -22.7774  -13.5231   21.1871 C   0  0  0  0  0  0
  -22.1669   -4.2141   21.0965 F   0  0  0  0  0  0
  -21.5624   -3.4530   25.7729 F   0  0  0  0  0  0
  -29.9490  -13.6673   20.3316 N   0  0  0  0  0  0
  -26.2855  -12.9409   20.3192 N   0  0  0  0  0  0
  -25.9286  -11.6603   20.5781 N   0  0  0  0  0  0
  -22.0415  -12.8267   22.0429 N   0  0  0  0  0  0
  -25.4190  -15.1926   20.4278 N   0  0  0  0  0  0
  -31.8065  -14.9282   20.2683 O   0  0  0  0  0  0
  -21.6644   -6.8864   21.4264 O   0  0  0  0  0  0
  -22.3483  -14.5530   20.6678 O   0  0  0  0  0  0
  -24.6442  -31.8464   23.1899 C   0  0  0  0  0  0
  -25.9226  -32.4725   23.8299 C   0  0  1  0  0  0
  -27.2460  -27.1847   20.2006 C   0  0  0  0  0  0
  -25.6005  -33.8524   24.2266 N   0  0  0  0  0  0
  -23.4445  -30.4670   21.5330 C   0  0  2  0  0  0
  -24.9017  -28.8904   20.1257 C   0  0  0  0  0  0
  -22.7540  -29.4615   22.4929 C   0  0  0  0  0  0
  -18.0299  -28.1391   22.8502 C   0  0  0  0  0  0
  -24.1471  -36.7212   23.2635 C   0  0  0  0  0  0
  -25.9916  -30.7488   21.3696 C   0  0  0  0  0  0
  -26.0779  -29.3590   20.7285 C   0  0  0  0  0  0
  -27.2548  -28.5316   20.7306 C   0  0  0  0  0  0
  -26.0416  -26.7907   19.5742 C   0  0  0  0  0  0
  -24.8892  -27.6110   19.5435 C   0  0  0  0  0  0
  -23.6713  -29.7854   20.1578 C   0  0  0  0  0  0
  -25.4109  -36.3034   24.0345 C   0  0  1  0  0  0
  -20.5912  -28.3727   23.1227 C   0  0  2  0  0  0
  -20.6792  -26.9436   22.5406 C   0  0  0  0  0  0
  -19.5748  -26.6405   21.5199 C   0  0  0  0  0  0
  -18.1936  -26.7951   22.1608 C   0  0  0  0  0  0
  -19.1551  -28.8882   23.2866 C   0  0  0  0  0  0
  -18.9461  -30.1473   23.8901 C   0  0  0  0  0  0
  -17.6454  -30.6596   24.0574 C   0  0  0  0  0  0
  -25.9061  -34.9442   23.5100 C   0  0  0  0  0  0
  -16.5359  -29.9086   23.6317 C   0  0  0  0  0  0
  -16.7278  -28.6488   23.0381 C   0  0  0  0  0  0
  -26.4574  -31.6569   25.0722 C   0  0  0  0  0  0
  -25.3819  -31.3735   26.1465 C   0  0  0  0  0  0
  -27.0456  -30.2986   24.6250 C   0  0  0  0  0  0
  -27.6111  -32.4334   25.7523 C   0  0  0  0  0  0
  -27.5563  -37.1767   24.8485 C   0  0  0  0  0  0
  -21.4245  -29.3066   22.3616 N   0  0  0  0  0  0
  -26.4269  -37.3747   23.9447 N   0  0  0  0  0  0
  -24.7117  -31.0424   22.0864 N   0  0  0  0  0  0
  -23.4197  -28.8176   23.3097 O   0  0  0  0  0  0
  -28.3587  -26.2836   20.2435 O   0  0  0  0  0  0
  -26.5581  -34.8911   22.4643 O   0  0  0  0  0  0
  -23.5570  -32.1333   23.7175 O   0  0  0  0  0  0
  -30.7670  -21.4141   20.5734 C   0  0  0  0  0  0
  -28.6594  -19.6490   20.8028 C   0  0  0  0  0  0
  -29.4868  -22.0571   20.5370 C   0  0  0  0  0  0
  -29.9523  -19.0171   20.8057 C   0  0  0  0  0  0
  -28.4275  -21.0935   20.6682 C   0  0  0  0  0  0
  -30.9967  -19.9958   20.7090 C   0  0  0  0  0  0
  -29.4057  -23.6771   20.2554 C   0  0  0  0  0  0
  -30.2667  -17.4440   21.2129 C   0  0  0  0  0  0
  -28.2191  -24.7863   20.5958 C   0  0  0  0  0  0
  -29.8468  -16.0855   20.5916 N   0  0  0  0  0  0
  -26.7967  -21.6616   20.7066 Cl  0  0  0  0  0  0
  -32.6491  -19.4932   20.8229 Cl  0  0  0  0  0  0
  -31.4574  -12.7428   19.1002 H   0  0  0  0  0  0
  -30.4450  -11.6317   20.0010 H   0  0  0  0  0  0
  -29.7995  -11.6841   17.5580 H   0  0  0  0  0  0
  -29.5507  -13.4086   17.6292 H   0  0  0  0  0  0
  -27.9644  -11.2404   19.0265 H   0  0  0  0  0  0
  -27.3507  -12.3514   17.8275 H   0  0  0  0  0  0
  -27.5698  -14.2193   19.3503 H   0  0  0  0  0  0
  -28.7726  -12.3385   21.4608 H   0  0  0  0  0  0
  -28.3792  -14.0393   21.6796 H   0  0  0  0  0  0
  -25.2711   -9.5694   22.4786 H   0  0  0  0  0  0
  -23.9987   -7.4639   22.7474 H   0  0  0  0  0  0
  -21.0796   -8.8761   19.8963 H   0  0  0  0  0  0
  -22.3647  -10.9689   19.6184 H   0  0  0  0  0  0
  -21.2022   -7.6148   23.9718 H   0  0  0  0  0  0
  -21.1476   -6.0517   25.9083 H   0  0  0  0  0  0
  -22.0591   -2.7598   23.2846 H   0  0  0  0  0  0
  -22.4065  -11.9928   22.4815 H   0  0  0  0  0  0
  -21.1033  -13.1332   22.2671 H   0  0  0  0  0  0
  -24.6575  -15.8488   20.5634 H   0  0  0  0  0  0
  -26.2803  -15.6415   20.1503 H   0  0  0  0  0  0
  -26.7347  -32.5370   23.1084 H   0  0  0  0  0  0
  -25.0316  -33.9634   25.0522 H   0  0  0  0  0  0
  -22.7473  -31.2951   21.3767 H   0  0  0  0  0  0
  -23.3751  -35.9512   23.3289 H   0  0  0  0  0  0
  -24.3564  -36.8800   22.2042 H   0  0  0  0  0  0
  -23.7188  -37.6417   23.6614 H   0  0  0  0  0  0
  -26.1279  -31.5040   20.5939 H   0  0  0  0  0  0
  -26.8658  -30.8113   22.0026 H   0  0  0  0  0  0
  -28.1527  -28.8989   21.2100 H   0  0  0  0  0  0
  -25.9723  -25.8028   19.1363 H   0  0  0  0  0  0
  -23.9819  -27.2330   19.0855 H   0  0  0  0  0  0
  -23.8025  -30.5548   19.3948 H   0  0  0  0  0  0
  -22.7811  -29.2278   19.8556 H   0  0  0  0  0  0
  -25.1280  -36.1864   25.0829 H   0  0  0  0  0  0
  -21.0022  -28.3287   24.1337 H   0  0  0  0  0  0
  -20.5648  -26.2341   23.3630 H   0  0  0  0  0  0
  -21.6668  -26.7442   22.1195 H   0  0  0  0  0  0
  -19.6904  -25.6299   21.1275 H   0  0  0  0  0  0
  -19.6676  -27.3197   20.6716 H   0  0  0  0  0  0
  -17.4220  -26.6743   21.3983 H   0  0  0  0  0  0
  -18.0278  -26.0075   22.8955 H   0  0  0  0  0  0
  -19.7937  -30.7275   24.2293 H   0  0  0  0  0  0
  -17.5013  -31.6266   24.5191 H   0  0  0  0  0  0
  -15.5359  -30.2999   23.7640 H   0  0  0  0  0  0
  -15.8678  -28.0796   22.7126 H   0  0  0  0  0  0
  -24.6000  -30.7046   25.7833 H   0  0  0  0  0  0
  -24.9014  -32.2913   26.4861 H   0  0  0  0  0  0
  -25.8184  -30.8972   27.0261 H   0  0  0  0  0  0
  -26.3064  -29.6709   24.1254 H   0  0  0  0  0  0
  -27.4113  -29.7270   25.4793 H   0  0  0  0  0  0
  -27.8942  -30.4252   23.9529 H   0  0  0  0  0  0
  -27.2686  -33.3622   26.2088 H   0  0  0  0  0  0
  -28.3941  -32.6922   25.0388 H   0  0  0  0  0  0
  -28.0778  -31.8500   26.5465 H   0  0  0  0  0  0
  -28.2625  -38.0004   24.7517 H   0  0  0  0  0  0
  -28.1008  -36.2580   24.6334 H   0  0  0  0  0  0
  -27.2303  -37.1457   25.8879 H   0  0  0  0  0  0
  -20.9435  -29.8706   21.6746 H   0  0  0  0  0  0
  -26.0142  -38.2815   24.1411 H   0  0  0  0  0  0
  -31.6385  -22.0557   20.5146 H   0  0  0  0  0  0
  -27.7918  -19.0172   20.9576 H   0  0  0  0  0  0
  -29.5652  -23.7572   19.1788 H   0  0  0  0  0  0
  -30.3070  -24.0834   20.7246 H   0  0  0  0  0  0
  -29.7315  -17.3742   22.1578 H   0  0  0  0  0  0
  -31.3208  -17.3437   21.4834 H   0  0  0  0  0  0
  -27.2978  -24.4074   20.1677 H   0  0  0  0  0  0
  -28.0951  -24.7705   21.6817 H   0  0  0  0  0  0
  -28.8428  -15.9410   20.5439 H   0  0  0  0  0  0
  1 25  1  0  0  0
  1 30  2  0  0  0
  1 80  1  0  0  0
  2  3  1  0  0  0
  2 25  1  0  0  0
  2 83  1  0  0  0
  2 84  1  0  0  0
  3  4  1  0  0  0
  3 85  1  0  0  0
  3 86  1  0  0  0
  4  5  1  0  0  0
  4 87  1  0  0  0
  4 88  1  0  0  0
  5  6  1  0  0  0
  5 26  1  0  0  0
  5 89  1  0  0  0
  6 25  1  0  0  0
  6 90  1  0  0  0
  6 91  1  0  0  0
  7  8  2  0  0  0
  7 26  1  0  0  0
  7 29  1  0  0  0
  8  9  1  0  0  0
  8 22  1  0  0  0
  9 10  1  0  0  0
  9 27  2  0  0  0
 10 11  2  0  0  0
 10 15  1  0  0  0
 11 12  1  0  0  0
 11 92  1  0  0  0
 12 13  2  0  0  0
 12 93  1  0  0  0
 13 14  1  0  0  0
 13 31  1  0  0  0
 14 15  2  0  0  0
 14 94  1  0  0  0
 15 95  1  0  0  0
 16 17  2  0  0  0
 16 21  1  0  0  0
 16 31  1  0  0  0
 17 18  1  0  0  0
 17 96  1  0  0  0
 18 19  2  0  0  0
 18 97  1  0  0  0
 19 20  1  0  0  0
 19 24  1  0  0  0
 20 21  2  0  0  0
 20 98  1  0  0  0
 21 23  1  0  0  0
 22 28  1  0  0  0
 22 32  2  0  0  0
 26 27  1  0  0  0
 28 99  1  0  0  0
 28100  1  0  0  0
 29101  1  0  0  0
 29102  1  0  0  0
 33 34  1  0  0  0
 33 66  1  0  0  0
 33 70  2  0  0  0
 34 36  1  0  0  0
 34 59  1  0  0  0
 34103  1  0  0  0
 35 44  2  0  0  0
 35 45  1  0  0  0
 35 68  1  0  0  0
 36 56  1  0  0  0
 36104  1  0  0  0
 37 39  1  0  0  0
 37 47  1  0  0  0
 37 66  1  0  0  0
 37105  1  0  0  0
 38 43  2  0  0  0
 38 46  1  0  0  0
 38 47  1  0  0  0
 39 64  1  0  0  0
 39 67  2  0  0  0
 40 52  1  0  0  0
 40 53  2  0  0  0
 40 58  1  0  0  0
 41106  1  0  0  0
 41107  1  0  0  0
 41108  1  0  0  0
 41 48  1  0  0  0
 42 43  1  0  0  0
 42 66  1  0  0  0
 42109  1  0  0  0
 42110  1  0  0  0
 43 44  1  0  0  0
 44111  1  0  0  0
 45 46  2  0  0  0
 45112  1  0  0  0
 46113  1  0  0  0
 47114  1  0  0  0
 47115  1  0  0  0
 48 56  1  0  0  0
 48 65  1  0  0  0
 48116  1  0  0  0
 49 50  1  0  0  0
 49 53  1  0  0  0
 49 64  1  0  0  0
 49117  1  0  0  0
 50 51  1  0  0  0
 50118  1  0  0  0
 50119  1  0  0  0
 51 52  1  0  0  0
 51120  1  0  0  0
 51121  1  0  0  0
 52122  1  0  0  0
 52123  1  0  0  0
 53 54  1  0  0  0
 54 55  2  0  0  0
 54124  1  0  0  0
 55 57  1  0  0  0
 55125  1  0  0  0
 56 69  2  0  0  0
 57 58  2  0  0  0
 57126  1  0  0  0
 58127  1  0  0  0
 59 60  1  0  0  0
 59 61  1  0  0  0
 59 62  1  0  0  0
 60128  1  0  0  0
 60129  1  0  0  0
 60130  1  0  0  0
 61131  1  0  0  0
 61132  1  0  0  0
 61133  1  0  0  0
 62134  1  0  0  0
 62135  1  0  0  0
 62136  1  0  0  0
 63 65  1  0  0  0
 63137  1  0  0  0
 63138  1  0  0  0
 63139  1  0  0  0
 64140  1  0  0  0
 65141  1  0  0  0
 68 79  1  0  0  0
 71 73  2  0  0  0
 71 76  1  0  0  0
 71142  1  0  0  0
 72 74  1  0  0  0
 72 75  2  0  0  0
 72143  1  0  0  0
 73 75  1  0  0  0
 73 77  1  0  0  0
 74 76  2  0  0  0
 74 78  1  0  0  0
 75 81  1  0  0  0
 76 82  1  0  0  0
 77 79  1  0  0  0
 77144  1  0  0  0
 77145  1  0  0  0
 78 80  1  0  0  0
 78146  1  0  0  0
 78147  1  0  0  0
 79148  1  0  0  0
 79149  1  0  0  0
 80150  1  0  0  0
M  ISO  4   1 100  68 101  79 101  80 100
M  END
> <chiral flag>
0

> <version>
0

> <s_m_source_file>
/data/baiqing/PycharmProjects/Reinvent-master-3.2/result/LINK_invent/BTK/process_docking_weight1_custom_sum_contain_oxygen_bond_distance_aromatic_linkinvent_7_9_3/rearranged_h_0027.sdf

> <i_m_source_file_index>
65

> <r_mmod_Potential_Energy-OPLS-2005>
374.754852294922

> <r_mmod_Stretch_Energy-OPLS-2005>
199.72770690918

> <r_mmod_Bend_Energy-OPLS-2005>
256.817016601562

> <r_mmod_Torsional_Energy-OPLS-2005>
230.235488891602

> <r_mmod_Improper_Torsional_Energy-OPLS-2005>
6.81293201446533

> <r_mmod_Van_der_Waal_Energy-OPLS-2005>
129.319915771484

> <r_mmod_Electrostatic_Energy-OPLS-2005>
-391.130706787109

> <r_mmod_Solvation_Energy-OPLS-2005>
-215.869079589844

> <b_mmod_Minimization_Converged-OPLS-2005>
0

> <r_mmod_RMS_Derivative-OPLS-2005>
12.9325256347656

$$$$
65
                    3D
 Structure written by MMmdl.
165174  0  0  1  0            999 V2000
  -30.6504  -14.6114   20.4808 C   0  0  0  0  0  0
  -30.4327  -12.3777   19.4391 C   0  0  0  0  0  0
  -29.4916  -12.4900   18.2190 C   0  0  0  0  0  0
  -28.0206  -12.3324   18.6464 C   0  0  0  0  0  0
  -27.6525  -13.2149   19.8678 C   0  0  2  0  0  0
  -28.7034  -13.0806   20.9941 C   0  0  0  0  0  0
  -25.2528  -13.8160   20.5678 C   0  0  0  0  0  0
  -24.1795  -13.0426   20.9159 C   0  0  0  0  0  0
  -24.6393  -11.6907   20.8754 C   0  0  0  0  0  0
  -23.9063  -10.4292   21.0399 C   0  0  0  0  0  0
  -24.3625   -9.4225   21.9179 C   0  0  0  0  0  0
  -23.6306   -8.2263   22.0759 C   0  0  0  0  0  0
  -22.4288   -8.0291   21.3542 C   0  0  0  0  0  0
  -21.9915   -9.0263   20.4642 C   0  0  0  0  0  0
  -22.7240  -10.2145   20.3042 C   0  0  0  0  0  0
  -21.6868   -6.0752   22.5277 C   0  0  0  0  0  0
  -21.4018   -6.5649   23.8214 C   0  0  0  0  0  0
  -21.3657   -5.6796   24.9166 C   0  0  0  0  0  0
  -21.6042   -4.3059   24.7214 C   0  0  0  0  0  0
  -21.8828   -3.8161   23.4331 C   0  0  0  0  0  0
  -21.9201   -4.6979   22.3393 C   0  0  0  0  0  0
  -22.7834  -13.5227   21.1828 C   0  0  0  0  0  0
  -22.1671   -4.2171   21.0971 F   0  0  0  0  0  0
  -21.5627   -3.4537   25.7723 F   0  0  0  0  0  0
  -30.0178  -13.4010   20.4181 N   0  0  0  0  0  0
  -26.2996  -12.9363   20.3420 N   0  0  0  0  0  0
  -25.9331  -11.6513   20.5838 N   0  0  0  0  0  0
  -22.0498  -12.8210   22.0392 N   0  0  0  0  0  0
  -25.4174  -15.1869   20.4124 N   0  0  0  0  0  0
  -31.8195  -14.7529   20.1167 O   0  0  0  0  0  0
  -21.6651   -6.8890   21.4240 O   0  0  0  0  0  0
  -22.3512  -14.5541   20.6700 O   0  0  0  0  0  0
  -24.6230  -31.8620   23.2051 C   0  0  0  0  0  0
  -25.9081  -32.4799   23.8377 C   0  0  1  0  0  0
  -27.2228  -27.3408   20.1174 C   0  0  0  0  0  0
  -25.5903  -33.8600   24.2284 N   0  0  0  0  0  0
  -23.4162  -30.4865   21.5481 C   0  0  2  0  0  0
  -24.8635  -28.9513   20.1035 C   0  0  0  0  0  0
  -22.7457  -29.4627   22.4954 C   0  0  0  0  0  0
  -18.0268  -28.1355   22.8525 C   0  0  0  0  0  0
  -24.1479  -36.7303   23.2634 C   0  0  0  0  0  0
  -25.9549  -30.8019   21.3738 C   0  0  0  0  0  0
  -26.0284  -29.4311   20.7151 C   0  0  0  0  0  0
  -27.2081  -28.6343   20.7185 C   0  0  0  0  0  0
  -26.0453  -26.9256   19.4537 C   0  0  0  0  0  0
  -24.8729  -27.7047   19.4615 C   0  0  0  0  0  0
  -23.6290  -29.8251   20.1606 C   0  0  0  0  0  0
  -25.4105  -36.3098   24.0328 C   0  0  1  0  0  0
  -20.5871  -28.3665   23.1287 C   0  0  2  0  0  0
  -20.6786  -26.9411   22.5366 C   0  0  0  0  0  0
  -19.5696  -26.6323   21.5248 C   0  0  0  0  0  0
  -18.1903  -26.7881   22.1688 C   0  0  0  0  0  0
  -19.1529  -28.8826   23.2886 C   0  0  0  0  0  0
  -18.9473  -30.1433   23.8896 C   0  0  0  0  0  0
  -17.6481  -30.6571   24.0556 C   0  0  0  0  0  0
  -25.9042  -34.9466   23.5101 C   0  0  0  0  0  0
  -16.5358  -29.9066   23.6356 C   0  0  0  0  0  0
  -16.7254  -28.6473   23.0399 C   0  0  0  0  0  0
  -26.4464  -31.6610   25.0748 C   0  0  0  0  0  0
  -25.3685  -31.3770   26.1474 C   0  0  0  0  0  0
  -27.0306  -30.3035   24.6191 C   0  0  0  0  0  0
  -27.6019  -32.4352   25.7523 C   0  0  0  0  0  0
  -27.5574  -37.1814   24.8468 C   0  0  0  0  0  0
  -21.4161  -29.3064   22.3730 N   0  0  0  0  0  0
  -26.4290  -37.3798   23.9409 N   0  0  0  0  0  0
  -24.6835  -31.0652   22.0996 N   0  0  0  0  0  0
  -23.4187  -28.8136   23.3008 O   0  0  0  0  0  0
  -28.3493  -26.5130   20.2075 O   0  0  0  0  0  0
  -26.5617  -34.8925   22.4668 O   0  0  0  0  0  0
  -23.5398  -32.1408   23.7386 O   0  0  0  0  0  0
  -27.1284  -20.1539   21.5631 C   0  0  0  0  0  0
  -29.2566  -19.6348   20.5449 C   0  0  0  0  0  0
  -26.8861  -18.7879   21.7780 C   0  0  0  0  0  0
  -29.0696  -18.2247   20.8126 C   0  0  0  0  0  0
  -28.2808  -20.6368   20.8971 C   0  0  0  0  0  0
  -27.8485  -17.8294   21.4093 C   0  0  0  0  0  0
  -27.2163  -24.2945   20.8199 C   0  0  0  0  0  0
  -29.5817  -24.2814   20.2329 C   0  0  0  0  0  0
  -27.1241  -22.8114   20.3871 C   0  0  0  0  0  0
  -29.5323  -22.7126   20.0206 C   0  0  0  0  0  0
  -28.2510  -25.0585   19.9592 C   0  0  0  0  0  0
  -24.3639  -18.6769   21.5027 C   0  0  0  0  0  0
  -25.5668  -18.3730   22.4094 C   0  0  0  0  0  0
  -30.1592  -17.1447   20.4750 C   0  0  0  0  0  0
  -28.3705  -22.0604   20.6550 N   0  0  0  0  0  0
  -29.8631  -15.6950   20.7321 N   0  0  0  0  0  0
  -27.5893  -16.5231   21.6507 F   0  0  0  0  0  0
  -31.4699  -12.5038   19.1204 H   0  0  0  0  0  0
  -30.3761  -11.3840   19.8850 H   0  0  0  0  0  0
  -29.7447  -11.7329   17.4753 H   0  0  0  0  0  0
  -29.6278  -13.4561   17.7320 H   0  0  0  0  0  0
  -27.8616  -11.2808   18.8909 H   0  0  0  0  0  0
  -27.3559  -12.5489   17.8094 H   0  0  0  0  0  0
  -27.6664  -14.2466   19.5153 H   0  0  0  0  0  0
  -28.7131  -12.0664   21.3986 H   0  0  0  0  0  0
  -28.4652  -13.7391   21.8310 H   0  0  0  0  0  0
  -25.2775   -9.5730   22.4735 H   0  0  0  0  0  0
  -24.0033   -7.4669   22.7483 H   0  0  0  0  0  0
  -21.0850   -8.8772   19.8949 H   0  0  0  0  0  0
  -22.3693  -10.9680   19.6148 H   0  0  0  0  0  0
  -21.2010   -7.6155   23.9717 H   0  0  0  0  0  0
  -21.1463   -6.0519   25.9069 H   0  0  0  0  0  0
  -22.0606   -2.7622   23.2817 H   0  0  0  0  0  0
  -22.4128  -11.9859   22.4733 H   0  0  0  0  0  0
  -21.1120  -13.1236   22.2607 H   0  0  0  0  0  0
  -24.6654  -15.8343   20.6093 H   0  0  0  0  0  0
  -26.3184  -15.6427   20.3458 H   0  0  0  0  0  0
  -26.7153  -32.5471   23.1137 H   0  0  0  0  0  0
  -25.0083  -33.9760   25.0452 H   0  0  0  0  0  0
  -22.7081  -31.3064   21.4085 H   0  0  0  0  0  0
  -23.3748  -35.9634   23.3316 H   0  0  0  0  0  0
  -24.3563  -36.8910   22.2046 H   0  0  0  0  0  0
  -23.7228  -37.6504   23.6652 H   0  0  0  0  0  0
  -26.0790  -31.5684   20.6071 H   0  0  0  0  0  0
  -26.8378  -30.8505   22.0004 H   0  0  0  0  0  0
  -28.1003  -28.9944   21.2125 H   0  0  0  0  0  0
  -26.0021  -25.9789   18.9380 H   0  0  0  0  0  0
  -23.9846  -27.3390   18.9647 H   0  0  0  0  0  0
  -23.7385  -30.6042   19.4051 H   0  0  0  0  0  0
  -22.7514  -29.2508   19.8595 H   0  0  0  0  0  0
  -25.1289  -36.1964   25.0827 H   0  0  0  0  0  0
  -20.9924  -28.3214   24.1414 H   0  0  0  0  0  0
  -20.5789  -26.2263   23.3555 H   0  0  0  0  0  0
  -21.6644  -26.7512   22.1074 H   0  0  0  0  0  0
  -19.6865  -25.6223   21.1314 H   0  0  0  0  0  0
  -19.6566  -27.3073   20.6737 H   0  0  0  0  0  0
  -17.4187  -26.6645   21.4081 H   0  0  0  0  0  0
  -18.0257  -26.0014   22.9073 H   0  0  0  0  0  0
  -19.7951  -30.7270   24.2231 H   0  0  0  0  0  0
  -17.5035  -31.6250   24.5146 H   0  0  0  0  0  0
  -15.5368  -30.2983   23.7686 H   0  0  0  0  0  0
  -15.8638  -28.0814   22.7087 H   0  0  0  0  0  0
  -24.5844  -30.7138   25.7806 H   0  0  0  0  0  0
  -24.8902  -32.2958   26.4881 H   0  0  0  0  0  0
  -25.7991  -30.8959   27.0262 H   0  0  0  0  0  0
  -26.2892  -29.6809   24.1179 H   0  0  0  0  0  0
  -27.3965  -29.7271   25.4696 H   0  0  0  0  0  0
  -27.8770  -30.4330   23.9441 H   0  0  0  0  0  0
  -27.2608  -33.3641   26.2102 H   0  0  0  0  0  0
  -28.3827  -32.6929   25.0356 H   0  0  0  0  0  0
  -28.0683  -31.8486   26.5445 H   0  0  0  0  0  0
  -28.2609  -38.0095   24.7508 H   0  0  0  0  0  0
  -28.1050  -36.2630   24.6312 H   0  0  0  0  0  0
  -27.2290  -37.1489   25.8870 H   0  0  0  0  0  0
  -20.9310  -29.8812   21.6988 H   0  0  0  0  0  0
  -26.0171  -38.2869   24.1428 H   0  0  0  0  0  0
  -26.3720  -20.8158   21.9472 H   0  0  0  0  0  0
  -30.1709  -19.9426   20.0606 H   0  0  0  0  0  0
  -27.4799  -24.3564   21.8767 H   0  0  0  0  0  0
  -26.2209  -24.7251   20.7474 H   0  0  0  0  0  0
  -30.3756  -24.6973   19.6114 H   0  0  0  0  0  0
  -29.8890  -24.4753   21.2617 H   0  0  0  0  0  0
  -26.9244  -22.7658   19.3158 H   0  0  0  0  0  0
  -26.2289  -22.4043   20.8455 H   0  0  0  0  0  0
  -30.4530  -22.2705   20.4055 H   0  0  0  0  0  0
  -29.5131  -22.4910   18.9521 H   0  0  0  0  0  0
  -28.0083  -24.9302   18.9034 H   0  0  0  0  0  0
  -24.4310  -18.1345   20.5598 H   0  0  0  0  0  0
  -24.2898  -19.7387   21.2662 H   0  0  0  0  0  0
  -23.4311  -18.3814   21.9838 H   0  0  0  0  0  0
  -25.5796  -17.3121   22.6604 H   0  0  0  0  0  0
  -25.4527  -18.8998   23.3560 H   0  0  0  0  0  0
  -31.0624  -17.4031   21.0272 H   0  0  0  0  0  0
  -30.4135  -17.2520   19.4184 H   0  0  0  0  0  0
  -28.9178  -15.5006   21.0330 H   0  0  0  0  0  0
  1 25  1  0  0  0
  1 30  2  0  0  0
  1 86  1  0  0  0
  2  3  1  0  0  0
  2 25  1  0  0  0
  2 88  1  0  0  0
  2 89  1  0  0  0
  3  4  1  0  0  0
  3 90  1  0  0  0
  3 91  1  0  0  0
  4  5  1  0  0  0
  4 92  1  0  0  0
  4 93  1  0  0  0
  5  6  1  0  0  0
  5 26  1  0  0  0
  5 94  1  0  0  0
  6 25  1  0  0  0
  6 95  1  0  0  0
  6 96  1  0  0  0
  7  8  2  0  0  0
  7 26  1  0  0  0
  7 29  1  0  0  0
  8  9  1  0  0  0
  8 22  1  0  0  0
  9 10  1  0  0  0
  9 27  2  0  0  0
 10 11  2  0  0  0
 10 15  1  0  0  0
 11 12  1  0  0  0
 11 97  1  0  0  0
 12 13  2  0  0  0
 12 98  1  0  0  0
 13 14  1  0  0  0
 13 31  1  0  0  0
 14 15  2  0  0  0
 14 99  1  0  0  0
 15100  1  0  0  0
 16 17  2  0  0  0
 16 21  1  0  0  0
 16 31  1  0  0  0
 17 18  1  0  0  0
 17101  1  0  0  0
 18 19  2  0  0  0
 18102  1  0  0  0
 19 20  1  0  0  0
 19 24  1  0  0  0
 20 21  2  0  0  0
 20103  1  0  0  0
 21 23  1  0  0  0
 22 28  1  0  0  0
 22 32  2  0  0  0
 26 27  1  0  0  0
 28104  1  0  0  0
 28105  1  0  0  0
 29106  1  0  0  0
 29107  1  0  0  0
 33 34  1  0  0  0
 33 66  1  0  0  0
 33 70  2  0  0  0
 34 36  1  0  0  0
 34 59  1  0  0  0
 34108  1  0  0  0
 35 44  2  0  0  0
 35 45  1  0  0  0
 35 68  1  0  0  0
 36 56  1  0  0  0
 36109  1  0  0  0
 37 39  1  0  0  0
 37 47  1  0  0  0
 37 66  1  0  0  0
 37110  1  0  0  0
 38 43  2  0  0  0
 38 46  1  0  0  0
 38 47  1  0  0  0
 39 64  1  0  0  0
 39 67  2  0  0  0
 40 52  1  0  0  0
 40 53  2  0  0  0
 40 58  1  0  0  0
 41111  1  0  0  0
 41112  1  0  0  0
 41113  1  0  0  0
 41 48  1  0  0  0
 42 43  1  0  0  0
 42 66  1  0  0  0
 42114  1  0  0  0
 42115  1  0  0  0
 43 44  1  0  0  0
 44116  1  0  0  0
 45 46  2  0  0  0
 45117  1  0  0  0
 46118  1  0  0  0
 47119  1  0  0  0
 47120  1  0  0  0
 48 56  1  0  0  0
 48 65  1  0  0  0
 48121  1  0  0  0
 49 50  1  0  0  0
 49 53  1  0  0  0
 49 64  1  0  0  0
 49122  1  0  0  0
 50 51  1  0  0  0
 50123  1  0  0  0
 50124  1  0  0  0
 51 52  1  0  0  0
 51125  1  0  0  0
 51126  1  0  0  0
 52127  1  0  0  0
 52128  1  0  0  0
 53 54  1  0  0  0
 54 55  2  0  0  0
 54129  1  0  0  0
 55 57  1  0  0  0
 55130  1  0  0  0
 56 69  2  0  0  0
 57 58  2  0  0  0
 57131  1  0  0  0
 58132  1  0  0  0
 59 60  1  0  0  0
 59 61  1  0  0  0
 59 62  1  0  0  0
 60133  1  0  0  0
 60134  1  0  0  0
 60135  1  0  0  0
 61136  1  0  0  0
 61137  1  0  0  0
 61138  1  0  0  0
 62139  1  0  0  0
 62140  1  0  0  0
 62141  1  0  0  0
 63 65  1  0  0  0
 63142  1  0  0  0
 63143  1  0  0  0
 63144  1  0  0  0
 64145  1  0  0  0
 65146  1  0  0  0
 68 81  1  0  0  0
 71 73  2  0  0  0
 71 75  1  0  0  0
 71147  1  0  0  0
 72 74  1  0  0  0
 72 75  2  0  0  0
 72148  1  0  0  0
 73 76  1  0  0  0
 73 83  1  0  0  0
 74 76  2  0  0  0
 74 84  1  0  0  0
 75 85  1  0  0  0
 76 87  1  0  0  0
 77 79  1  0  0  0
 77 81  1  0  0  0
 77149  1  0  0  0
 77150  1  0  0  0
 78 80  1  0  0  0
 78 81  1  0  0  0
 78151  1  0  0  0
 78152  1  0  0  0
 79 85  1  0  0  0
 79153  1  0  0  0
 79154  1  0  0  0
 80 85  1  0  0  0
 80155  1  0  0  0
 80156  1  0  0  0
 81157  1  0  0  0
 82 83  1  0  0  0
 82158  1  0  0  0
 82159  1  0  0  0
 82160  1  0  0  0
 83161  1  0  0  0
 83162  1  0  0  0
 84 86  1  0  0  0
 84163  1  0  0  0
 84164  1  0  0  0
 86165  1  0  0  0
M  ISO  4   1 100  68 101  81 101  86 100
M  END
> <chiral flag>
0

> <version>
0

> <s_m_source_file>
/data/baiqing/PycharmProjects/Reinvent-master-3.2/result/LINK_invent/BTK/process_docking_weight1_custom_sum_contain_oxygen_bond_distance_aromatic_linkinvent_7_9_3/rearranged_h_0027.sdf

> <i_m_source_file_index>
66

> <r_mmod_Potential_Energy-OPLS-2005>
8.85462760925293

> <r_mmod_Stretch_Energy-OPLS-2005>
75.3704605102539

> <r_mmod_Bend_Energy-OPLS-2005>
145.314102172852

> <r_mmod_Torsional_Energy-OPLS-2005>
220.670928955078

> <r_mmod_Improper_Torsional_Energy-OPLS-2005>
8.33506107330322

> <r_mmod_Van_der_Waal_Energy-OPLS-2005>
162.565460205078

> <r_mmod_Electrostatic_Energy-OPLS-2005>
-437.040588378906

> <r_mmod_Solvation_Energy-OPLS-2005>
-209.10725402832

> <b_mmod_Minimization_Converged-OPLS-2005>
0

> <r_mmod_RMS_Derivative-OPLS-2005>
2.64898061752319

$$$$
66
                    3D
 Structure written by MMmdl.
163171  0  0  1  0            999 V2000
  -30.7140  -14.4310   20.6156 C   0  0  0  0  0  0
  -30.4303  -12.2910   19.4122 C   0  0  0  0  0  0
  -29.4962  -12.5058   18.2033 C   0  0  0  0  0  0
  -28.0151  -12.3737   18.6134 C   0  0  0  0  0  0
  -27.6669  -13.2033   19.8773 C   0  0  2  0  0  0
  -28.7102  -12.9617   20.9930 C   0  0  0  0  0  0
  -25.2619  -13.8178   20.5701 C   0  0  0  0  0  0
  -24.1864  -13.0457   20.9190 C   0  0  0  0  0  0
  -24.6412  -11.6910   20.8742 C   0  0  0  0  0  0
  -23.9070  -10.4299   21.0396 C   0  0  0  0  0  0
  -24.3619   -9.4212   21.9176 C   0  0  0  0  0  0
  -23.6290   -8.2253   22.0742 C   0  0  0  0  0  0
  -22.4266   -8.0294   21.3542 C   0  0  0  0  0  0
  -21.9899   -9.0273   20.4641 C   0  0  0  0  0  0
  -22.7239  -10.2145   20.3047 C   0  0  0  0  0  0
  -21.6863   -6.0723   22.5276 C   0  0  0  0  0  0
  -21.4017   -6.5625   23.8209 C   0  0  0  0  0  0
  -21.3661   -5.6777   24.9177 C   0  0  0  0  0  0
  -21.6043   -4.3041   24.7229 C   0  0  0  0  0  0
  -21.8824   -3.8133   23.4354 C   0  0  0  0  0  0
  -21.9197   -4.6949   22.3402 C   0  0  0  0  0  0
  -22.7879  -13.5248   21.1842 C   0  0  0  0  0  0
  -22.1664   -4.2136   21.0982 F   0  0  0  0  0  0
  -21.5632   -3.4521   25.7740 F   0  0  0  0  0  0
  -30.0449  -13.2595   20.4483 N   0  0  0  0  0  0
  -26.3058  -12.9337   20.3388 N   0  0  0  0  0  0
  -25.9336  -11.6501   20.5773 N   0  0  0  0  0  0
  -22.0495  -12.8249   22.0393 N   0  0  0  0  0  0
  -25.4375  -15.1891   20.4085 N   0  0  0  0  0  0
  -31.8167  -14.6404   20.1004 O   0  0  0  0  0  0
  -21.6649   -6.8872   21.4235 O   0  0  0  0  0  0
  -22.3552  -14.5558   20.6678 O   0  0  0  0  0  0
  -24.6099  -31.8712   23.2150 C   0  0  0  0  0  0
  -25.9010  -32.4843   23.8414 C   0  0  1  0  0  0
  -27.2545  -27.4798   20.0749 C   0  0  0  0  0  0
  -25.5878  -33.8642   24.2352 N   0  0  0  0  0  0
  -23.3971  -30.4959   21.5525 C   0  0  2  0  0  0
  -24.8469  -28.9621   20.1243 C   0  0  0  0  0  0
  -22.7380  -29.4686   22.5009 C   0  0  0  0  0  0
  -18.0266  -28.1375   22.8495 C   0  0  0  0  0  0
  -24.1475  -36.7341   23.2643 C   0  0  0  0  0  0
  -25.9210  -30.8462   21.3637 C   0  0  0  0  0  0
  -26.0042  -29.4801   20.7206 C   0  0  0  0  0  0
  -27.2091  -28.7440   20.7106 C   0  0  0  0  0  0
  -26.0760  -26.9648   19.4995 C   0  0  0  0  0  0
  -24.8727  -27.6944   19.5194 C   0  0  0  0  0  0
  -23.6066  -29.8257   20.1684 C   0  0  0  0  0  0
  -25.4092  -36.3138   24.0341 C   0  0  1  0  0  0
  -20.5855  -28.3660   23.1328 C   0  0  2  0  0  0
  -20.6753  -26.9400   22.5426 C   0  0  0  0  0  0
  -19.5741  -26.6391   21.5209 C   0  0  0  0  0  0
  -18.1914  -26.7923   22.1615 C   0  0  0  0  0  0
  -19.1514  -28.8828   23.2911 C   0  0  0  0  0  0
  -18.9449  -30.1434   23.8929 C   0  0  0  0  0  0
  -17.6459  -30.6588   24.0575 C   0  0  0  0  0  0
  -25.9024  -34.9495   23.5147 C   0  0  0  0  0  0
  -16.5349  -29.9102   23.6316 C   0  0  0  0  0  0
  -16.7255  -28.6513   23.0345 C   0  0  0  0  0  0
  -26.4491  -31.6612   25.0710 C   0  0  0  0  0  0
  -25.3819  -31.3702   26.1513 C   0  0  0  0  0  0
  -27.0317  -30.3070   24.6052 C   0  0  0  0  0  0
  -27.6091  -32.4340   25.7411 C   0  0  0  0  0  0
  -27.5592  -37.1794   24.8452 C   0  0  0  0  0  0
  -21.4113  -29.3046   22.3741 N   0  0  0  0  0  0
  -26.4293  -37.3808   23.9413 N   0  0  0  0  0  0
  -24.6608  -31.0838   22.1032 N   0  0  0  0  0  0
  -23.4145  -28.8234   23.3054 O   0  0  0  0  0  0
  -28.3678  -26.6823   19.9356 O   0  0  0  0  0  0
  -26.5591  -34.8940   22.4710 O   0  0  0  0  0  0
  -23.5299  -32.1451   23.7574 O   0  0  0  0  0  0
  -29.6628  -22.7334   22.7902 C   0  0  0  0  0  0
  -29.7850  -24.1174   20.3616 C   0  0  0  0  0  0
  -29.9128  -24.1236   22.7922 C   0  0  0  0  0  0
  -29.4332  -22.0329   21.5865 C   0  0  0  0  0  0
  -29.9450  -24.8388   21.5698 C   0  0  0  0  0  0
  -29.5151  -22.7340   20.3621 C   0  0  0  0  0  0
  -30.1164  -24.8335   24.1215 C   0  0  0  0  0  0
  -29.0156  -20.5662   21.6467 C   0  0  0  0  0  0
  -30.1337  -26.3653   21.5747 C   0  0  0  0  0  0
  -30.0325  -15.5826   21.3818 C   0  0  0  0  0  0
  -30.1224  -19.5448   21.3107 C   0  0  0  0  0  0
  -30.5951  -16.9947   21.0816 C   0  0  0  0  0  0
  -29.6223  -18.1025   21.5300 C   0  0  0  0  0  0
  -29.6737  -27.1126   20.3086 C   0  0  0  0  0  0
  -29.2430  -21.9396   18.8503 Cl  0  0  0  0  0  0
  -31.4726  -12.3962   19.1058 H   0  0  0  0  0  0
  -30.3399  -11.2741   19.7996 H   0  0  0  0  0  0
  -29.7276  -11.7825   17.4212 H   0  0  0  0  0  0
  -29.6753  -13.4922   17.7689 H   0  0  0  0  0  0
  -27.8127  -11.3185   18.7957 H   0  0  0  0  0  0
  -27.3715  -12.6669   17.7832 H   0  0  0  0  0  0
  -27.7154  -14.2524   19.5868 H   0  0  0  0  0  0
  -28.6757  -11.9218   21.3218 H   0  0  0  0  0  0
  -28.4781  -13.5494   21.8808 H   0  0  0  0  0  0
  -25.2775   -9.5691   22.4738 H   0  0  0  0  0  0
  -24.0011   -7.4634   22.7442 H   0  0  0  0  0  0
  -21.0836   -8.8809   19.8929 H   0  0  0  0  0  0
  -22.3725  -10.9692   19.6149 H   0  0  0  0  0  0
  -21.2010   -7.6130   23.9716 H   0  0  0  0  0  0
  -21.1473   -6.0501   25.9078 H   0  0  0  0  0  0
  -22.0599   -2.7594   23.2863 H   0  0  0  0  0  0
  -22.4117  -11.9939   22.4844 H   0  0  0  0  0  0
  -21.1103  -13.1267   22.2540 H   0  0  0  0  0  0
  -24.6817  -15.8555   20.5245 H   0  0  0  0  0  0
  -26.3018  -15.6219   20.1059 H   0  0  0  0  0  0
  -26.7076  -32.5590   23.1174 H   0  0  0  0  0  0
  -25.0007  -33.9789   25.0483 H   0  0  0  0  0  0
  -22.6854  -31.3126   21.4138 H   0  0  0  0  0  0
  -23.3730  -35.9687   23.3324 H   0  0  0  0  0  0
  -24.3573  -36.8943   22.2061 H   0  0  0  0  0  0
  -23.7239  -37.6551   23.6647 H   0  0  0  0  0  0
  -26.0206  -31.6063   20.5878 H   0  0  0  0  0  0
  -26.8122  -30.9092   21.9756 H   0  0  0  0  0  0
  -28.0825  -29.1659   21.1835 H   0  0  0  0  0  0
  -26.0964  -25.9971   19.0183 H   0  0  0  0  0  0
  -23.9829  -27.2808   19.0631 H   0  0  0  0  0  0
  -23.7139  -30.5983   19.4055 H   0  0  0  0  0  0
  -22.7314  -29.2428   19.8744 H   0  0  0  0  0  0
  -25.1267  -36.2017   25.0837 H   0  0  0  0  0  0
  -20.9938  -28.3219   24.1451 H   0  0  0  0  0  0
  -20.5629  -26.2272   23.3613 H   0  0  0  0  0  0
  -21.6629  -26.7442   22.1242 H   0  0  0  0  0  0
  -19.6904  -25.6303   21.1237 H   0  0  0  0  0  0
  -19.6685  -27.3207   20.6745 H   0  0  0  0  0  0
  -17.4191  -26.6686   21.4015 H   0  0  0  0  0  0
  -18.0309  -26.0053   22.8998 H   0  0  0  0  0  0
  -19.7933  -30.7229   24.2320 H   0  0  0  0  0  0
  -17.5027  -31.6265   24.5180 H   0  0  0  0  0  0
  -15.5353  -30.3023   23.7624 H   0  0  0  0  0  0
  -15.8655  -28.0847   22.7045 H   0  0  0  0  0  0
  -24.5891  -30.7159   25.7862 H   0  0  0  0  0  0
  -24.9137  -32.2870   26.5116 H   0  0  0  0  0  0
  -25.8217  -30.8754   27.0186 H   0  0  0  0  0  0
  -26.2842  -29.6797   24.1171 H   0  0  0  0  0  0
  -27.4223  -29.7354   25.4481 H   0  0  0  0  0  0
  -27.8643  -30.4422   23.9139 H   0  0  0  0  0  0
  -27.2703  -33.3563   26.2142 H   0  0  0  0  0  0
  -28.3776  -32.7061   25.0158 H   0  0  0  0  0  0
  -28.0921  -31.8410   26.5195 H   0  0  0  0  0  0
  -28.2623  -38.0084   24.7505 H   0  0  0  0  0  0
  -28.1078  -36.2614   24.6257 H   0  0  0  0  0  0
  -27.2326  -37.1445   25.8865 H   0  0  0  0  0  0
  -20.9254  -29.8780   21.6997 H   0  0  0  0  0  0
  -26.0202  -38.2894   24.1427 H   0  0  0  0  0  0
  -29.6070  -22.2024   23.7305 H   0  0  0  0  0  0
  -29.8206  -24.6224   19.4079 H   0  0  0  0  0  0
  -30.3446  -24.1223   24.9157 H   0  0  0  0  0  0
  -29.2144  -25.3770   24.4051 H   0  0  0  0  0  0
  -30.9437  -25.5431   24.0736 H   0  0  0  0  0  0
  -28.1653  -20.4215   20.9790 H   0  0  0  0  0  0
  -28.6290  -20.3621   22.6463 H   0  0  0  0  0  0
  -31.1840  -26.5872   21.7716 H   0  0  0  0  0  0
  -29.5732  -26.7846   22.4085 H   0  0  0  0  0  0
  -28.9810  -15.5941   21.1003 H   0  0  0  0  0  0
  -30.0730  -15.3778   22.4519 H   0  0  0  0  0  0
  -30.9980  -19.7239   21.9358 H   0  0  0  0  0  0
  -30.4466  -19.6777   20.2772 H   0  0  0  0  0  0
  -30.7878  -17.1041   20.0127 H   0  0  0  0  0  0
  -31.5564  -17.1188   21.5827 H   0  0  0  0  0  0
  -28.6773  -17.9721   20.9984 H   0  0  0  0  0  0
  -29.3932  -17.9692   22.5884 H   0  0  0  0  0  0
  -29.7781  -28.1885   20.4226 H   0  0  0  0  0  0
  -30.3407  -26.8572   19.4853 H   0  0  0  0  0  0
  1 25  1  0  0  0
  1 30  2  0  0  0
  1 80  1  0  0  0
  2  3  1  0  0  0
  2 25  1  0  0  0
  2 86  1  0  0  0
  2 87  1  0  0  0
  3  4  1  0  0  0
  3 88  1  0  0  0
  3 89  1  0  0  0
  4  5  1  0  0  0
  4 90  1  0  0  0
  4 91  1  0  0  0
  5  6  1  0  0  0
  5 26  1  0  0  0
  5 92  1  0  0  0
  6 25  1  0  0  0
  6 93  1  0  0  0
  6 94  1  0  0  0
  7  8  2  0  0  0
  7 26  1  0  0  0
  7 29  1  0  0  0
  8  9  1  0  0  0
  8 22  1  0  0  0
  9 10  1  0  0  0
  9 27  2  0  0  0
 10 11  2  0  0  0
 10 15  1  0  0  0
 11 12  1  0  0  0
 11 95  1  0  0  0
 12 13  2  0  0  0
 12 96  1  0  0  0
 13 14  1  0  0  0
 13 31  1  0  0  0
 14 15  2  0  0  0
 14 97  1  0  0  0
 15 98  1  0  0  0
 16 17  2  0  0  0
 16 21  1  0  0  0
 16 31  1  0  0  0
 17 18  1  0  0  0
 17 99  1  0  0  0
 18 19  2  0  0  0
 18100  1  0  0  0
 19 20  1  0  0  0
 19 24  1  0  0  0
 20 21  2  0  0  0
 20101  1  0  0  0
 21 23  1  0  0  0
 22 28  1  0  0  0
 22 32  2  0  0  0
 26 27  1  0  0  0
 28102  1  0  0  0
 28103  1  0  0  0
 29104  1  0  0  0
 29105  1  0  0  0
 33 34  1  0  0  0
 33 66  1  0  0  0
 33 70  2  0  0  0
 34 36  1  0  0  0
 34 59  1  0  0  0
 34106  1  0  0  0
 35 44  2  0  0  0
 35 45  1  0  0  0
 35 68  1  0  0  0
 36 56  1  0  0  0
 36107  1  0  0  0
 37 39  1  0  0  0
 37 47  1  0  0  0
 37 66  1  0  0  0
 37108  1  0  0  0
 38 43  2  0  0  0
 38 46  1  0  0  0
 38 47  1  0  0  0
 39 64  1  0  0  0
 39 67  2  0  0  0
 40 52  1  0  0  0
 40 53  2  0  0  0
 40 58  1  0  0  0
 41109  1  0  0  0
 41110  1  0  0  0
 41111  1  0  0  0
 41 48  1  0  0  0
 42 43  1  0  0  0
 42 66  1  0  0  0
 42112  1  0  0  0
 42113  1  0  0  0
 43 44  1  0  0  0
 44114  1  0  0  0
 45 46  2  0  0  0
 45115  1  0  0  0
 46116  1  0  0  0
 47117  1  0  0  0
 47118  1  0  0  0
 48 56  1  0  0  0
 48 65  1  0  0  0
 48119  1  0  0  0
 49 50  1  0  0  0
 49 53  1  0  0  0
 49 64  1  0  0  0
 49120  1  0  0  0
 50 51  1  0  0  0
 50121  1  0  0  0
 50122  1  0  0  0
 51 52  1  0  0  0
 51123  1  0  0  0
 51124  1  0  0  0
 52125  1  0  0  0
 52126  1  0  0  0
 53 54  1  0  0  0
 54 55  2  0  0  0
 54127  1  0  0  0
 55 57  1  0  0  0
 55128  1  0  0  0
 56 69  2  0  0  0
 57 58  2  0  0  0
 57129  1  0  0  0
 58130  1  0  0  0
 59 60  1  0  0  0
 59 61  1  0  0  0
 59 62  1  0  0  0
 60131  1  0  0  0
 60132  1  0  0  0
 60133  1  0  0  0
 61134  1  0  0  0
 61135  1  0  0  0
 61136  1  0  0  0
 62137  1  0  0  0
 62138  1  0  0  0
 62139  1  0  0  0
 63 65  1  0  0  0
 63140  1  0  0  0
 63141  1  0  0  0
 63142  1  0  0  0
 64143  1  0  0  0
 65144  1  0  0  0
 68 84  1  0  0  0
 71 73  2  0  0  0
 71 74  1  0  0  0
 71145  1  0  0  0
 72 75  2  0  0  0
 72 76  1  0  0  0
 72146  1  0  0  0
 73 75  1  0  0  0
 73 77  1  0  0  0
 74 76  2  0  0  0
 74 78  1  0  0  0
 75 79  1  0  0  0
 76 85  1  0  0  0
 77147  1  0  0  0
 77148  1  0  0  0
 77149  1  0  0  0
 78 81  1  0  0  0
 78150  1  0  0  0
 78151  1  0  0  0
 79 84  1  0  0  0
 79152  1  0  0  0
 79153  1  0  0  0
 80 82  1  0  0  0
 80154  1  0  0  0
 80155  1  0  0  0
 81 83  1  0  0  0
 81156  1  0  0  0
 81157  1  0  0  0
 82 83  1  0  0  0
 82158  1  0  0  0
 82159  1  0  0  0
 83160  1  0  0  0
 83161  1  0  0  0
 84162  1  0  0  0
 84163  1  0  0  0
M  ISO  4   1 100  68 101  80 100  84 101
M  END
> <chiral flag>
0

> <version>
0

> <s_m_source_file>
/data/baiqing/PycharmProjects/Reinvent-master-3.2/result/LINK_invent/BTK/process_docking_weight1_custom_sum_contain_oxygen_bond_distance_aromatic_linkinvent_7_9_3/rearranged_h_0027.sdf

> <i_m_source_file_index>
67

> <r_mmod_Potential_Energy-OPLS-2005>
-27.6986312866211

> <r_mmod_Stretch_Energy-OPLS-2005>
34.6090545654297

> <r_mmod_Bend_Energy-OPLS-2005>
106.098709106445

> <r_mmod_Torsional_Energy-OPLS-2005>
159.030181884766

> <r_mmod_Improper_Torsional_Energy-OPLS-2005>
2.68115448951721

> <r_mmod_Van_der_Waal_Energy-OPLS-2005>
153.899459838867

> <r_mmod_Electrostatic_Energy-OPLS-2005>
-303.942749023438

> <r_mmod_Solvation_Energy-OPLS-2005>
-188.739135742188

> <b_mmod_Minimization_Converged-OPLS-2005>
0

> <r_mmod_RMS_Derivative-OPLS-2005>
2.23991394042969

$$$$
67
                    3D
 Structure written by MMmdl.
164172  0  0  1  0            999 V2000
  -30.7217  -14.5487   20.4598 C   0  0  0  0  0  0
  -30.4121  -12.3305   19.4367 C   0  0  0  0  0  0
  -29.4860  -12.4458   18.2092 C   0  0  0  0  0  0
  -28.0092  -12.3291   18.6313 C   0  0  0  0  0  0
  -27.6469  -13.2192   19.8520 C   0  0  2  0  0  0
  -28.7000  -13.0998   20.9754 C   0  0  0  0  0  0
  -25.2544  -13.8199   20.5705 C   0  0  0  0  0  0
  -24.1819  -13.0458   20.9227 C   0  0  0  0  0  0
  -24.6393  -11.6928   20.8783 C   0  0  0  0  0  0
  -23.9070  -10.4300   21.0434 C   0  0  0  0  0  0
  -24.3619   -9.4207   21.9201 C   0  0  0  0  0  0
  -23.6291   -8.2244   22.0766 C   0  0  0  0  0  0
  -22.4274   -8.0289   21.3556 C   0  0  0  0  0  0
  -21.9918   -9.0264   20.4654 C   0  0  0  0  0  0
  -22.7250  -10.2142   20.3071 C   0  0  0  0  0  0
  -21.6847   -6.0741   22.5279 C   0  0  0  0  0  0
  -21.4011   -6.5646   23.8215 C   0  0  0  0  0  0
  -21.3664   -5.6798   24.9180 C   0  0  0  0  0  0
  -21.6048   -4.3059   24.7226 C   0  0  0  0  0  0
  -21.8819   -3.8155   23.4345 C   0  0  0  0  0  0
  -21.9195   -4.6971   22.3402 C   0  0  0  0  0  0
  -22.7837  -13.5243   21.1871 C   0  0  0  0  0  0
  -22.1659   -4.2157   21.0978 F   0  0  0  0  0  0
  -21.5636   -3.4542   25.7737 F   0  0  0  0  0  0
  -30.0094  -13.3878   20.3795 N   0  0  0  0  0  0
  -26.2970  -12.9387   20.3334 N   0  0  0  0  0  0
  -25.9326  -11.6543   20.5818 N   0  0  0  0  0  0
  -22.0475  -12.8227   22.0414 N   0  0  0  0  0  0
  -25.4245  -15.1911   20.4072 N   0  0  0  0  0  0
  -31.9350  -14.5430   20.2669 O   0  0  0  0  0  0
  -21.6640   -6.8885   21.4240 O   0  0  0  0  0  0
  -22.3523  -14.5544   20.6714 O   0  0  0  0  0  0
  -24.6192  -31.8668   23.2102 C   0  0  0  0  0  0
  -25.9074  -32.4815   23.8397 C   0  0  1  0  0  0
  -27.2164  -27.3909   20.1007 C   0  0  0  0  0  0
  -25.5919  -33.8615   24.2322 N   0  0  0  0  0  0
  -23.4068  -30.4946   21.5531 C   0  0  2  0  0  0
  -24.8496  -28.9652   20.1119 C   0  0  0  0  0  0
  -22.7430  -29.4665   22.4983 C   0  0  0  0  0  0
  -18.0275  -28.1377   22.8493 C   0  0  0  0  0  0
  -24.1491  -36.7314   23.2635 C   0  0  0  0  0  0
  -25.9428  -30.8208   21.3703 C   0  0  0  0  0  0
  -26.0170  -29.4556   20.7104 C   0  0  0  0  0  0
  -27.2058  -28.6796   20.6971 C   0  0  0  0  0  0
  -26.0260  -26.9401   19.4799 C   0  0  0  0  0  0
  -24.8528  -27.7097   19.4898 C   0  0  0  0  0  0
  -23.6144  -29.8355   20.1655 C   0  0  0  0  0  0
  -25.4113  -36.3109   24.0334 C   0  0  1  0  0  0
  -20.5871  -28.3672   23.1310 C   0  0  2  0  0  0
  -20.6771  -26.9406   22.5412 C   0  0  0  0  0  0
  -19.5744  -26.6385   21.5213 C   0  0  0  0  0  0
  -18.1924  -26.7924   22.1626 C   0  0  0  0  0  0
  -19.1527  -28.8842   23.2896 C   0  0  0  0  0  0
  -18.9452  -30.1451   23.8901 C   0  0  0  0  0  0
  -17.6454  -30.6585   24.0566 C   0  0  0  0  0  0
  -25.9042  -34.9472   23.5120 C   0  0  0  0  0  0
  -16.5346  -29.9083   23.6331 C   0  0  0  0  0  0
  -16.7266  -28.6503   23.0350 C   0  0  0  0  0  0
  -26.4481  -31.6599   25.0737 C   0  0  0  0  0  0
  -25.3732  -31.3709   26.1473 C   0  0  0  0  0  0
  -27.0317  -30.3036   24.6141 C   0  0  0  0  0  0
  -27.6054  -32.4318   25.7507 C   0  0  0  0  0  0
  -27.5585  -37.1811   24.8461 C   0  0  0  0  0  0
  -21.4153  -29.3040   22.3717 N   0  0  0  0  0  0
  -26.4298  -37.3794   23.9405 N   0  0  0  0  0  0
  -24.6749  -31.0749   22.1019 N   0  0  0  0  0  0
  -23.4191  -28.8193   23.3022 O   0  0  0  0  0  0
  -28.3477  -26.5826   20.1439 O   0  0  0  0  0  0
  -26.5602  -34.8929   22.4682 O   0  0  0  0  0  0
  -23.5378  -32.1437   23.7479 O   0  0  0  0  0  0
  -30.7662  -20.2928   22.3341 C   0  0  0  0  0  0
  -29.9885  -20.3411   21.1672 C   0  0  0  0  0  0
  -29.7012  -17.9022   21.4114 C   0  0  0  0  0  0
  -29.4066  -19.1201   20.7250 C   0  0  0  0  0  0
  -30.5201  -18.0022   22.5586 C   0  0  0  0  0  0
  -32.7856  -16.7461   18.3502 C   0  0  0  0  0  0
  -29.9450  -21.6700   20.3801 C   0  0  0  0  0  0
  -29.1647  -16.5096   20.9716 C   0  0  0  0  0  0
  -31.3680  -17.2941   18.5602 C   0  0  0  0  0  0
  -28.9158  -22.7460   20.8312 C   0  0  0  0  0  0
  -29.3039  -24.2217   20.4693 C   0  0  0  0  0  0
  -30.2463  -16.2377   18.7409 C   0  0  0  0  0  0
  -28.0838  -25.1557   20.2507 C   0  0  0  0  0  0
  -31.0190  -19.1650   23.0180 N   0  0  0  0  0  0
  -30.0446  -15.6838   20.0994 N   0  0  0  0  0  0
  -28.3844  -19.1232   19.3294 Cl  0  0  0  0  0  0
  -30.9472  -16.5912   23.4608 Cl  0  0  0  0  0  0
  -31.4544  -12.4121   19.1243 H   0  0  0  0  0  0
  -30.3157  -11.3499   19.9053 H   0  0  0  0  0  0
  -29.7267  -11.6664   17.4845 H   0  0  0  0  0  0
  -29.6470  -13.3913   17.6950 H   0  0  0  0  0  0
  -27.8286  -11.2814   18.8735 H   0  0  0  0  0  0
  -27.3563  -12.5614   17.7892 H   0  0  0  0  0  0
  -27.6584  -14.2482   19.4936 H   0  0  0  0  0  0
  -28.6955  -12.0963   21.4026 H   0  0  0  0  0  0
  -28.4752  -13.7770   21.7981 H   0  0  0  0  0  0
  -25.2765   -9.5682   22.4774 H   0  0  0  0  0  0
  -24.0011   -7.4633   22.7475 H   0  0  0  0  0  0
  -21.0866   -8.8786   19.8939 H   0  0  0  0  0  0
  -22.3724  -10.9689   19.6179 H   0  0  0  0  0  0
  -21.1987   -7.6151   23.9717 H   0  0  0  0  0  0
  -21.1492   -6.0530   25.9085 H   0  0  0  0  0  0
  -22.0589   -2.7617   23.2841 H   0  0  0  0  0  0
  -22.4092  -11.9883   22.4784 H   0  0  0  0  0  0
  -21.1089  -13.1249   22.2613 H   0  0  0  0  0  0
  -24.6516  -15.8408   20.5011 H   0  0  0  0  0  0
  -26.2618  -15.6241   20.0423 H   0  0  0  0  0  0
  -26.7143  -32.5506   23.1156 H   0  0  0  0  0  0
  -25.0072  -33.9774   25.0469 H   0  0  0  0  0  0
  -22.6965  -31.3129   21.4178 H   0  0  0  0  0  0
  -23.3755  -35.9645   23.3299 H   0  0  0  0  0  0
  -24.3579  -36.8932   22.2047 H   0  0  0  0  0  0
  -23.7245  -37.6519   23.6653 H   0  0  0  0  0  0
  -26.0648  -31.5898   20.6058 H   0  0  0  0  0  0
  -26.8275  -30.8664   21.9945 H   0  0  0  0  0  0
  -28.1032  -29.0512   21.1722 H   0  0  0  0  0  0
  -25.9654  -25.9882   18.9763 H   0  0  0  0  0  0
  -23.9592  -27.3278   19.0158 H   0  0  0  0  0  0
  -23.7242  -30.6142   19.4095 H   0  0  0  0  0  0
  -22.7359  -29.2605   19.8669 H   0  0  0  0  0  0
  -25.1290  -36.1971   25.0828 H   0  0  0  0  0  0
  -20.9960  -28.3238   24.1433 H   0  0  0  0  0  0
  -20.5689  -26.2275   23.3596 H   0  0  0  0  0  0
  -21.6640  -26.7454   22.1199 H   0  0  0  0  0  0
  -19.6906  -25.6300   21.1230 H   0  0  0  0  0  0
  -19.6679  -27.3206   20.6751 H   0  0  0  0  0  0
  -17.4191  -26.6678   21.4025 H   0  0  0  0  0  0
  -18.0320  -26.0063   22.9019 H   0  0  0  0  0  0
  -19.7928  -30.7266   24.2272 H   0  0  0  0  0  0
  -17.5009  -31.6266   24.5163 H   0  0  0  0  0  0
  -15.5347  -30.2983   23.7657 H   0  0  0  0  0  0
  -15.8668  -28.0825   22.7058 H   0  0  0  0  0  0
  -24.5906  -30.7061   25.7799 H   0  0  0  0  0  0
  -24.8920  -32.2860   26.4927 H   0  0  0  0  0  0
  -25.8072  -30.8864   27.0228 H   0  0  0  0  0  0
  -26.2876  -29.6792   24.1178 H   0  0  0  0  0  0
  -27.4053  -29.7280   25.4623 H   0  0  0  0  0  0
  -27.8731  -30.4346   23.9333 H   0  0  0  0  0  0
  -27.2675  -33.3610   26.2113 H   0  0  0  0  0  0
  -28.3856  -32.6888   25.0328 H   0  0  0  0  0  0
  -28.0731  -31.8416   26.5400 H   0  0  0  0  0  0
  -28.2600  -38.0112   24.7525 H   0  0  0  0  0  0
  -28.1087  -36.2642   24.6277 H   0  0  0  0  0  0
  -27.2296  -37.1454   25.8863 H   0  0  0  0  0  0
  -20.9311  -29.8776   21.6954 H   0  0  0  0  0  0
  -26.0186  -38.2874   24.1408 H   0  0  0  0  0  0
  -31.2390  -21.1867   22.7148 H   0  0  0  0  0  0
  -33.4378  -17.5230   17.9508 H   0  0  0  0  0  0
  -32.7974  -15.9128   17.6470 H   0  0  0  0  0  0
  -33.2348  -16.4146   19.2853 H   0  0  0  0  0  0
  -29.8239  -21.4714   19.3143 H   0  0  0  0  0  0
  -30.9431  -22.1040   20.4617 H   0  0  0  0  0  0
  -28.2093  -16.6411   20.4652 H   0  0  0  0  0  0
  -28.9025  -15.9475   21.8667 H   0  0  0  0  0  0
  -31.1171  -17.8729   17.6702 H   0  0  0  0  0  0
  -31.3913  -18.0156   19.3718 H   0  0  0  0  0  0
  -28.7815  -22.6948   21.9122 H   0  0  0  0  0  0
  -27.9449  -22.4911   20.4038 H   0  0  0  0  0  0
  -29.9080  -24.2327   19.5611 H   0  0  0  0  0  0
  -29.9415  -24.6260   21.2562 H   0  0  0  0  0  0
  -30.4233  -15.4298   18.0318 H   0  0  0  0  0  0
  -29.3006  -16.6665   18.4108 H   0  0  0  0  0  0
  -27.3742  -24.9952   21.0647 H   0  0  0  0  0  0
  -27.6118  -24.7957   19.3376 H   0  0  0  0  0  0
  1 25  1  0  0  0
  1 30  2  0  0  0
  1 85  1  0  0  0
  2  3  1  0  0  0
  2 25  1  0  0  0
  2 88  1  0  0  0
  2 89  1  0  0  0
  3  4  1  0  0  0
  3 90  1  0  0  0
  3 91  1  0  0  0
  4  5  1  0  0  0
  4 92  1  0  0  0
  4 93  1  0  0  0
  5  6  1  0  0  0
  5 26  1  0  0  0
  5 94  1  0  0  0
  6 25  1  0  0  0
  6 95  1  0  0  0
  6 96  1  0  0  0
  7  8  2  0  0  0
  7 26  1  0  0  0
  7 29  1  0  0  0
  8  9  1  0  0  0
  8 22  1  0  0  0
  9 10  1  0  0  0
  9 27  2  0  0  0
 10 11  2  0  0  0
 10 15  1  0  0  0
 11 12  1  0  0  0
 11 97  1  0  0  0
 12 13  2  0  0  0
 12 98  1  0  0  0
 13 14  1  0  0  0
 13 31  1  0  0  0
 14 15  2  0  0  0
 14 99  1  0  0  0
 15100  1  0  0  0
 16 17  2  0  0  0
 16 21  1  0  0  0
 16 31  1  0  0  0
 17 18  1  0  0  0
 17101  1  0  0  0
 18 19  2  0  0  0
 18102  1  0  0  0
 19 20  1  0  0  0
 19 24  1  0  0  0
 20 21  2  0  0  0
 20103  1  0  0  0
 21 23  1  0  0  0
 22 28  1  0  0  0
 22 32  2  0  0  0
 26 27  1  0  0  0
 28104  1  0  0  0
 28105  1  0  0  0
 29106  1  0  0  0
 29107  1  0  0  0
 33 34  1  0  0  0
 33 66  1  0  0  0
 33 70  2  0  0  0
 34 36  1  0  0  0
 34 59  1  0  0  0
 34108  1  0  0  0
 35 44  2  0  0  0
 35 45  1  0  0  0
 35 68  1  0  0  0
 36 56  1  0  0  0
 36109  1  0  0  0
 37 39  1  0  0  0
 37 47  1  0  0  0
 37 66  1  0  0  0
 37110  1  0  0  0
 38 43  2  0  0  0
 38 46  1  0  0  0
 38 47  1  0  0  0
 39 64  1  0  0  0
 39 67  2  0  0  0
 40 52  1  0  0  0
 40 53  2  0  0  0
 40 58  1  0  0  0
 41111  1  0  0  0
 41112  1  0  0  0
 41113  1  0  0  0
 41 48  1  0  0  0
 42 43  1  0  0  0
 42 66  1  0  0  0
 42114  1  0  0  0
 42115  1  0  0  0
 43 44  1  0  0  0
 44116  1  0  0  0
 45 46  2  0  0  0
 45117  1  0  0  0
 46118  1  0  0  0
 47119  1  0  0  0
 47120  1  0  0  0
 48 56  1  0  0  0
 48 65  1  0  0  0
 48121  1  0  0  0
 49 50  1  0  0  0
 49 53  1  0  0  0
 49 64  1  0  0  0
 49122  1  0  0  0
 50 51  1  0  0  0
 50123  1  0  0  0
 50124  1  0  0  0
 51 52  1  0  0  0
 51125  1  0  0  0
 51126  1  0  0  0
 52127  1  0  0  0
 52128  1  0  0  0
 53 54  1  0  0  0
 54 55  2  0  0  0
 54129  1  0  0  0
 55 57  1  0  0  0
 55130  1  0  0  0
 56 69  2  0  0  0
 57 58  2  0  0  0
 57131  1  0  0  0
 58132  1  0  0  0
 59 60  1  0  0  0
 59 61  1  0  0  0
 59 62  1  0  0  0
 60133  1  0  0  0
 60134  1  0  0  0
 60135  1  0  0  0
 61136  1  0  0  0
 61137  1  0  0  0
 61138  1  0  0  0
 62139  1  0  0  0
 62140  1  0  0  0
 62141  1  0  0  0
 63 65  1  0  0  0
 63142  1  0  0  0
 63143  1  0  0  0
 63144  1  0  0  0
 64145  1  0  0  0
 65146  1  0  0  0
 68 83  1  0  0  0
 71 72  2  0  0  0
 71 84  1  0  0  0
 71147  1  0  0  0
 72 74  1  0  0  0
 72 77  1  0  0  0
 73 74  2  0  0  0
 73 75  1  0  0  0
 73 78  1  0  0  0
 74 86  1  0  0  0
 75 84  2  0  0  0
 75 87  1  0  0  0
 76 79  1  0  0  0
 76148  1  0  0  0
 76149  1  0  0  0
 76150  1  0  0  0
 77 80  1  0  0  0
 77151  1  0  0  0
 77152  1  0  0  0
 78 85  1  0  0  0
 78153  1  0  0  0
 78154  1  0  0  0
 79 82  1  0  0  0
 79155  1  0  0  0
 79156  1  0  0  0
 80 81  1  0  0  0
 80157  1  0  0  0
 80158  1  0  0  0
 81 83  1  0  0  0
 81159  1  0  0  0
 81160  1  0  0  0
 82 85  1  0  0  0
 82161  1  0  0  0
 82162  1  0  0  0
 83163  1  0  0  0
 83164  1  0  0  0
M  ISO  4   1 100  68 101  83 101  85 100
M  END
> <chiral flag>
0

> <version>
0

> <s_m_source_file>
/data/baiqing/PycharmProjects/Reinvent-master-3.2/result/LINK_invent/BTK/process_docking_weight1_custom_sum_contain_oxygen_bond_distance_aromatic_linkinvent_7_9_3/rearranged_h_0027.sdf

> <i_m_source_file_index>
68

> <r_mmod_Potential_Energy-OPLS-2005>
62.6760902404785

> <r_mmod_Stretch_Energy-OPLS-2005>
51.9137306213379

> <r_mmod_Bend_Energy-OPLS-2005>
118.768661499023

> <r_mmod_Torsional_Energy-OPLS-2005>
321.770874023438

> <r_mmod_Improper_Torsional_Energy-OPLS-2005>
24.3733367919922

> <r_mmod_Van_der_Waal_Energy-OPLS-2005>
144.144165039062

> <r_mmod_Electrostatic_Energy-OPLS-2005>
-445.001190185547

> <r_mmod_Solvation_Energy-OPLS-2005>
-192.157989501953

> <b_mmod_Minimization_Converged-OPLS-2005>
0

> <r_mmod_RMS_Derivative-OPLS-2005>
0.919218897819519

$$$$
68
                    3D
 Structure written by MMmdl.
186194  0  0  1  0            999 V2000
  -30.7703  -14.3871   20.7012 C   0  0  0  0  0  0
  -30.4339  -12.3187   19.4003 C   0  0  0  0  0  0
  -29.4973  -12.5356   18.1958 C   0  0  0  0  0  0
  -28.0152  -12.4010   18.6052 C   0  0  0  0  0  0
  -27.6724  -13.2033   19.8883 C   0  0  2  0  0  0
  -28.7167  -12.9109   20.9915 C   0  0  0  0  0  0
  -25.2618  -13.8155   20.5730 C   0  0  0  0  0  0
  -24.1841  -13.0420   20.9198 C   0  0  0  0  0  0
  -24.6380  -11.6900   20.8717 C   0  0  0  0  0  0
  -23.9035  -10.4281   21.0384 C   0  0  0  0  0  0
  -24.3587   -9.4217   21.9186 C   0  0  0  0  0  0
  -23.6270   -8.2248   22.0747 C   0  0  0  0  0  0
  -22.4256   -8.0268   21.3541 C   0  0  0  0  0  0
  -21.9891   -9.0239   20.4646 C   0  0  0  0  0  0
  -22.7195  -10.2132   20.3050 C   0  0  0  0  0  0
  -21.6866   -6.0723   22.5270 C   0  0  0  0  0  0
  -21.4007   -6.5616   23.8202 C   0  0  0  0  0  0
  -21.3668   -5.6771   24.9172 C   0  0  0  0  0  0
  -21.6044   -4.3035   24.7216 C   0  0  0  0  0  0
  -21.8817   -3.8126   23.4336 C   0  0  0  0  0  0
  -21.9180   -4.6949   22.3386 C   0  0  0  0  0  0
  -22.7874  -13.5283   21.1789 C   0  0  0  0  0  0
  -22.1665   -4.2138   21.0973 F   0  0  0  0  0  0
  -21.5635   -3.4506   25.7728 F   0  0  0  0  0  0
  -30.0479  -13.2545   20.4671 N   0  0  0  0  0  0
  -26.3078  -12.9319   20.3447 N   0  0  0  0  0  0
  -25.9321  -11.6476   20.5782 N   0  0  0  0  0  0
  -22.0422  -12.8339   22.0337 N   0  0  0  0  0  0
  -25.4232  -15.1877   20.4141 N   0  0  0  0  0  0
  -31.8032  -14.6583   20.0858 O   0  0  0  0  0  0
  -21.6633   -6.8861   21.4231 O   0  0  0  0  0  0
  -22.3599  -14.5565   20.6591 O   0  0  0  0  0  0
  -24.6118  -31.8724   23.2111 C   0  0  0  0  0  0
  -25.9044  -32.4838   23.8397 C   0  0  1  0  0  0
  -27.2729  -27.4767   20.1288 C   0  0  0  0  0  0
  -25.5914  -33.8631   24.2366 N   0  0  0  0  0  0
  -23.3948  -30.4942   21.5467 C   0  0  2  0  0  0
  -24.8550  -28.9506   20.1215 C   0  0  0  0  0  0
  -22.7429  -29.4658   22.4970 C   0  0  0  0  0  0
  -18.0373  -28.1398   22.8302 C   0  0  0  0  0  0
  -24.1470  -36.7312   23.2636 C   0  0  0  0  0  0
  -25.9170  -30.8487   21.3591 C   0  0  0  0  0  0
  -25.9986  -29.4776   20.7275 C   0  0  0  0  0  0
  -27.2027  -28.7519   20.7359 C   0  0  0  0  0  0
  -26.1184  -26.9614   19.5011 C   0  0  0  0  0  0
  -24.9074  -27.6869   19.5011 C   0  0  0  0  0  0
  -23.6111  -29.8107   20.1664 C   0  0  0  0  0  0
  -25.4094  -36.3132   24.0354 C   0  0  1  0  0  0
  -20.5892  -28.3772   23.1413 C   0  0  2  0  0  0
  -20.6866  -26.9478   22.5588 C   0  0  0  0  0  0
  -19.6113  -26.6619   21.5095 C   0  0  0  0  0  0
  -18.2158  -26.8057   22.1240 C   0  0  0  0  0  0
  -19.1541  -28.8883   23.2820 C   0  0  0  0  0  0
  -18.9433  -30.1460   23.8829 C   0  0  0  0  0  0
  -17.6422  -30.6537   24.0503 C   0  0  0  0  0  0
  -25.9037  -34.9488   23.5155 C   0  0  0  0  0  0
  -16.5340  -29.9011   23.6206 C   0  0  0  0  0  0
  -16.7325  -28.6487   23.0147 C   0  0  0  0  0  0
  -26.4514  -31.6569   25.0670 C   0  0  0  0  0  0
  -25.3826  -31.3614   26.1452 C   0  0  0  0  0  0
  -27.0323  -30.3006   24.5975 C   0  0  0  0  0  0
  -27.6117  -32.4268   25.7434 C   0  0  0  0  0  0
  -27.5578  -37.1811   24.8470 C   0  0  0  0  0  0
  -21.4133  -29.3219   22.3912 N   0  0  0  0  0  0
  -26.4297  -37.3820   23.9417 N   0  0  0  0  0  0
  -24.6576  -31.0876   22.0968 N   0  0  0  0  0  0
  -23.4253  -28.8039   23.2829 O   0  0  0  0  0  0
  -28.4295  -26.7292   20.0887 O   0  0  0  0  0  0
  -26.5582  -34.8943   22.4708 O   0  0  0  0  0  0
  -23.5350  -32.1428   23.7586 O   0  0  0  0  0  0
  -25.3778  -23.3618   22.2736 C   0  0  0  0  0  0
  -25.6919  -24.3806   23.1952 C   0  0  0  0  0  0
  -26.9424  -25.0578   23.0980 C   0  0  0  0  0  0
  -27.8590  -24.7001   22.0655 C   0  0  0  0  0  0
  -27.5046  -23.6942   21.1235 C   0  0  0  0  0  0
  -26.2642  -23.0215   21.2426 C   0  0  0  0  0  0
  -27.3144  -26.1490   24.1052 C   0  0  0  0  0  0
  -28.4639  -23.3317   19.9930 C   0  0  0  0  0  0
  -29.2408  -25.3712   21.9777 C   0  0  0  0  0  0
  -24.6629  -24.7050   24.2802 C   0  0  0  0  0  0
  -27.3919  -19.3974   24.5192 C   0  0  0  0  0  0
  -28.1046  -19.4115   23.1582 C   0  0  0  0  0  0
  -27.1653  -20.8042   25.0809 C   0  0  0  0  0  0
  -28.0628  -18.0422   22.4662 C   0  0  0  0  0  0
  -26.3352  -20.7665   26.3799 C   0  0  0  0  0  0
  -29.4108  -17.3142   22.4088 C   0  0  0  0  0  0
  -25.7867  -22.1293   26.8270 C   0  0  0  0  0  0
  -29.1895  -15.8863   21.8882 C   0  0  0  0  0  0
  -24.7597  -22.7598   25.8564 C   0  0  0  0  0  0
  -29.2637  -26.7337   21.2600 C   0  0  0  0  0  0
  -30.4361  -15.1339   21.7644 N   0  0  0  0  0  0
  -25.0900  -24.1734   25.5887 N   0  3  0  0  0  0
  -25.7856  -21.7666   20.1513 Cl  0  0  0  0  0  0
  -31.4736  -12.4446   19.0941 H   0  0  0  0  0  0
  -30.3690  -11.2971   19.7746 H   0  0  0  0  0  0
  -29.7354  -11.8210   17.4059 H   0  0  0  0  0  0
  -29.6742  -13.5263   17.7739 H   0  0  0  0  0  0
  -27.8111  -11.3432   18.7671 H   0  0  0  0  0  0
  -27.3732  -12.7182   17.7812 H   0  0  0  0  0  0
  -27.7321  -14.2606   19.6307 H   0  0  0  0  0  0
  -28.7048  -11.8509   21.2440 H   0  0  0  0  0  0
  -28.4715  -13.4018   21.9268 H   0  0  0  0  0  0
  -25.2723   -9.5706   22.4773 H   0  0  0  0  0  0
  -23.9950   -7.4654   22.7511 H   0  0  0  0  0  0
  -21.0793   -8.8754   19.8992 H   0  0  0  0  0  0
  -22.3622  -10.9665   19.6154 H   0  0  0  0  0  0
  -21.2005   -7.6121   23.9708 H   0  0  0  0  0  0
  -21.1506   -6.0498   25.9078 H   0  0  0  0  0  0
  -22.0586   -2.7584   23.2827 H   0  0  0  0  0  0
  -22.3978  -12.0073   22.4892 H   0  0  0  0  0  0
  -21.1025  -13.1437   22.2417 H   0  0  0  0  0  0
  -24.6408  -15.8238   20.5177 H   0  0  0  0  0  0
  -26.2629  -15.6413   20.0761 H   0  0  0  0  0  0
  -26.7081  -32.5611   23.1153 H   0  0  0  0  0  0
  -25.0103  -33.9767   25.0545 H   0  0  0  0  0  0
  -22.6840  -31.3127   21.4014 H   0  0  0  0  0  0
  -23.3755  -35.9622   23.3337 H   0  0  0  0  0  0
  -24.3551  -36.8905   22.2037 H   0  0  0  0  0  0
  -23.7186  -37.6511   23.6627 H   0  0  0  0  0  0
  -26.0188  -31.5974   20.5723 H   0  0  0  0  0  0
  -26.8080  -30.9172   21.9725 H   0  0  0  0  0  0
  -28.0733  -29.1958   21.1966 H   0  0  0  0  0  0
  -26.1636  -25.9966   19.0108 H   0  0  0  0  0  0
  -24.0303  -27.2821   19.0174 H   0  0  0  0  0  0
  -23.7161  -30.5723   19.3945 H   0  0  0  0  0  0
  -22.7401  -29.2237   19.8711 H   0  0  0  0  0  0
  -25.1261  -36.2021   25.0842 H   0  0  0  0  0  0
  -20.9869  -28.3420   24.1563 H   0  0  0  0  0  0
  -20.5467  -26.2395   23.3778 H   0  0  0  0  0  0
  -21.6800  -26.7399   22.1593 H   0  0  0  0  0  0
  -19.7430  -25.6653   21.0901 H   0  0  0  0  0  0
  -19.7339  -27.3610   20.6783 H   0  0  0  0  0  0
  -17.4638  -26.7049   21.3414 H   0  0  0  0  0  0
  -18.0375  -25.9981   22.8345 H   0  0  0  0  0  0
  -19.7901  -30.7263   24.2212 H   0  0  0  0  0  0
  -17.4934  -31.6178   24.5158 H   0  0  0  0  0  0
  -15.5334  -30.2835   23.7566 H   0  0  0  0  0  0
  -15.8760  -28.0839   22.6740 H   0  0  0  0  0  0
  -24.6001  -30.6964   25.7778 H   0  0  0  0  0  0
  -24.9018  -32.2734   26.4983 H   0  0  0  0  0  0
  -25.8240  -30.8719   27.0141 H   0  0  0  0  0  0
  -26.2789  -29.6718   24.1183 H   0  0  0  0  0  0
  -27.4281  -29.7276   25.4368 H   0  0  0  0  0  0
  -27.8556  -30.4332   23.8947 H   0  0  0  0  0  0
  -27.2758  -33.3542   26.2079 H   0  0  0  0  0  0
  -28.3890  -32.6868   25.0238 H   0  0  0  0  0  0
  -28.0813  -31.8336   26.5298 H   0  0  0  0  0  0
  -28.2626  -38.0088   24.7527 H   0  0  0  0  0  0
  -28.1051  -36.2623   24.6290 H   0  0  0  0  0  0
  -27.2294  -37.1439   25.8877 H   0  0  0  0  0  0
  -20.9180  -29.9537   21.7765 H   0  0  0  0  0  0
  -26.0213  -38.2902   24.1447 H   0  0  0  0  0  0
  -24.4392  -22.8254   22.3416 H   0  0  0  0  0  0
  -26.4539  -26.6721   24.5107 H   0  0  0  0  0  0
  -27.9133  -26.9433   23.6732 H   0  0  0  0  0  0
  -27.8821  -25.7301   24.9388 H   0  0  0  0  0  0
  -28.7361  -24.2230   19.4238 H   0  0  0  0  0  0
  -28.0607  -22.6173   19.2811 H   0  0  0  0  0  0
  -29.3662  -22.8764   20.4005 H   0  0  0  0  0  0
  -29.9591  -24.7189   21.4852 H   0  0  0  0  0  0
  -29.6607  -25.4854   22.9806 H   0  0  0  0  0  0
  -23.6827  -24.3035   24.0156 H   0  0  0  0  0  0
  -24.5160  -25.7817   24.3462 H   0  0  0  0  0  0
  -27.9482  -18.7917   25.2365 H   0  0  0  0  0  0
  -26.4200  -18.9172   24.4004 H   0  0  0  0  0  0
  -29.1310  -19.7622   23.2640 H   0  0  0  0  0  0
  -27.6086  -20.1352   22.5095 H   0  0  0  0  0  0
  -26.6676  -21.3951   24.3091 H   0  0  0  0  0  0
  -28.1245  -21.2900   25.2600 H   0  0  0  0  0  0
  -27.6912  -18.1703   21.4494 H   0  0  0  0  0  0
  -27.3360  -17.3986   22.9624 H   0  0  0  0  0  0
  -26.9632  -20.3614   27.1756 H   0  0  0  0  0  0
  -25.5018  -20.0722   26.2766 H   0  0  0  0  0  0
  -29.8606  -17.2836   23.4032 H   0  0  0  0  0  0
  -30.0960  -17.8675   21.7648 H   0  0  0  0  0  0
  -26.6235  -22.8037   27.0111 H   0  0  0  0  0  0
  -25.3013  -21.9969   27.7948 H   0  0  0  0  0  0
  -28.6751  -15.9337   20.9280 H   0  0  0  0  0  0
  -28.5274  -15.3812   22.5933 H   0  0  0  0  0  0
  -23.7535  -22.6992   26.2797 H   0  0  0  0  0  0
  -24.7057  -22.2001   24.9219 H   0  0  0  0  0  0
  -30.2916  -26.9693   20.9817 H   0  0  0  0  0  0
  -29.0039  -27.5003   21.9830 H   0  0  0  0  0  0
  -31.2240  -15.6668   22.1027 H   0  0  0  0  0  0
  -24.6836  -24.7353   26.3191 H   0  0  0  0  0  0
  -26.0882  -24.2863   25.6329 H   0  0  0  0  0  0
  1 25  1  0  0  0
  1 30  2  0  0  0
  1 91  1  0  0  0
  2  3  1  0  0  0
  2 25  1  0  0  0
  2 94  1  0  0  0
  2 95  1  0  0  0
  3  4  1  0  0  0
  3 96  1  0  0  0
  3 97  1  0  0  0
  4  5  1  0  0  0
  4 98  1  0  0  0
  4 99  1  0  0  0
  5  6  1  0  0  0
  5 26  1  0  0  0
  5100  1  0  0  0
  6 25  1  0  0  0
  6101  1  0  0  0
  6102  1  0  0  0
  7  8  2  0  0  0
  7 26  1  0  0  0
  7 29  1  0  0  0
  8  9  1  0  0  0
  8 22  1  0  0  0
  9 10  1  0  0  0
  9 27  2  0  0  0
 10 11  2  0  0  0
 10 15  1  0  0  0
 11 12  1  0  0  0
 11103  1  0  0  0
 12 13  2  0  0  0
 12104  1  0  0  0
 13 14  1  0  0  0
 13 31  1  0  0  0
 14 15  2  0  0  0
 14105  1  0  0  0
 15106  1  0  0  0
 16 17  2  0  0  0
 16 21  1  0  0  0
 16 31  1  0  0  0
 17 18  1  0  0  0
 17107  1  0  0  0
 18 19  2  0  0  0
 18108  1  0  0  0
 19 20  1  0  0  0
 19 24  1  0  0  0
 20 21  2  0  0  0
 20109  1  0  0  0
 21 23  1  0  0  0
 22 28  1  0  0  0
 22 32  2  0  0  0
 26 27  1  0  0  0
 28110  1  0  0  0
 28111  1  0  0  0
 29112  1  0  0  0
 29113  1  0  0  0
 33 34  1  0  0  0
 33 66  1  0  0  0
 33 70  2  0  0  0
 34 36  1  0  0  0
 34 59  1  0  0  0
 34114  1  0  0  0
 35 44  2  0  0  0
 35 45  1  0  0  0
 35 68  1  0  0  0
 36 56  1  0  0  0
 36115  1  0  0  0
 37 39  1  0  0  0
 37 47  1  0  0  0
 37 66  1  0  0  0
 37116  1  0  0  0
 38 43  2  0  0  0
 38 46  1  0  0  0
 38 47  1  0  0  0
 39 64  1  0  0  0
 39 67  2  0  0  0
 40 52  1  0  0  0
 40 53  2  0  0  0
 40 58  1  0  0  0
 41117  1  0  0  0
 41118  1  0  0  0
 41119  1  0  0  0
 41 48  1  0  0  0
 42 43  1  0  0  0
 42 66  1  0  0  0
 42120  1  0  0  0
 42121  1  0  0  0
 43 44  1  0  0  0
 44122  1  0  0  0
 45 46  2  0  0  0
 45123  1  0  0  0
 46124  1  0  0  0
 47125  1  0  0  0
 47126  1  0  0  0
 48 56  1  0  0  0
 48 65  1  0  0  0
 48127  1  0  0  0
 49 50  1  0  0  0
 49 53  1  0  0  0
 49 64  1  0  0  0
 49128  1  0  0  0
 50 51  1  0  0  0
 50129  1  0  0  0
 50130  1  0  0  0
 51 52  1  0  0  0
 51131  1  0  0  0
 51132  1  0  0  0
 52133  1  0  0  0
 52134  1  0  0  0
 53 54  1  0  0  0
 54 55  2  0  0  0
 54135  1  0  0  0
 55 57  1  0  0  0
 55136  1  0  0  0
 56 69  2  0  0  0
 57 58  2  0  0  0
 57137  1  0  0  0
 58138  1  0  0  0
 59 60  1  0  0  0
 59 61  1  0  0  0
 59 62  1  0  0  0
 60139  1  0  0  0
 60140  1  0  0  0
 60141  1  0  0  0
 61142  1  0  0  0
 61143  1  0  0  0
 61144  1  0  0  0
 62145  1  0  0  0
 62146  1  0  0  0
 62147  1  0  0  0
 63 65  1  0  0  0
 63148  1  0  0  0
 63149  1  0  0  0
 63150  1  0  0  0
 64151  1  0  0  0
 65152  1  0  0  0
 68 90  1  0  0  0
 71 72  2  0  0  0
 71 76  1  0  0  0
 71153  1  0  0  0
 72 73  1  0  0  0
 72 80  1  0  0  0
 73 74  2  0  0  0
 73 77  1  0  0  0
 74 75  1  0  0  0
 74 79  1  0  0  0
 75 76  2  0  0  0
 75 78  1  0  0  0
 76 93  1  0  0  0
 77154  1  0  0  0
 77155  1  0  0  0
 77156  1  0  0  0
 78157  1  0  0  0
 78158  1  0  0  0
 78159  1  0  0  0
 79 90  1  0  0  0
 79160  1  0  0  0
 79161  1  0  0  0
 80 92  1  0  0  0
 80162  1  0  0  0
 80163  1  0  0  0
 81 82  1  0  0  0
 81 83  1  0  0  0
 81164  1  0  0  0
 81165  1  0  0  0
 82 84  1  0  0  0
 82166  1  0  0  0
 82167  1  0  0  0
 83 85  1  0  0  0
 83168  1  0  0  0
 83169  1  0  0  0
 84 86  1  0  0  0
 84170  1  0  0  0
 84171  1  0  0  0
 85 87  1  0  0  0
 85172  1  0  0  0
 85173  1  0  0  0
 86 88  1  0  0  0
 86174  1  0  0  0
 86175  1  0  0  0
 87 89  1  0  0  0
 87176  1  0  0  0
 87177  1  0  0  0
 88 91  1  0  0  0
 88178  1  0  0  0
 88179  1  0  0  0
 89 92  1  0  0  0
 89180  1  0  0  0
 89181  1  0  0  0
 90182  1  0  0  0
 90183  1  0  0  0
 91184  1  0  0  0
 92185  1  0  0  0
 92186  1  0  0  0
M  CHG  1  92   1
M  ISO  4   1 100  68 101  90 101  91 100
M  END
> <chiral flag>
0

> <version>
0

> <s_m_source_file>
/data/baiqing/PycharmProjects/Reinvent-master-3.2/result/LINK_invent/BTK/process_docking_weight1_custom_sum_contain_oxygen_bond_distance_aromatic_linkinvent_7_9_3/rearranged_h_0027.sdf

> <i_m_source_file_index>
69

> <r_mmod_Potential_Energy-OPLS-2005>
-172.531875610352

> <r_mmod_Stretch_Energy-OPLS-2005>
39.1858749389648

> <r_mmod_Bend_Energy-OPLS-2005>
114.404479980469

> <r_mmod_Torsional_Energy-OPLS-2005>
280.558502197266

> <r_mmod_Improper_Torsional_Energy-OPLS-2005>
7.57765436172485

> <r_mmod_Van_der_Waal_Energy-OPLS-2005>
144.638946533203

> <r_mmod_Electrostatic_Energy-OPLS-2005>
-331.554992675781

> <r_mmod_Solvation_Energy-OPLS-2005>
-435.651702880859

> <b_mmod_Minimization_Converged-OPLS-2005>
0

> <r_mmod_RMS_Derivative-OPLS-2005>
5.69464063644409

$$$$
69
                    3D
 Structure written by MMmdl.
182190  0  0  1  0            999 V2000
  -30.8368  -14.4235   20.3938 C   0  0  0  0  0  0
  -30.3497  -12.2306   19.4588 C   0  0  0  0  0  0
  -29.4710  -12.3813   18.2041 C   0  0  0  0  0  0
  -27.9956  -12.2767   18.6185 C   0  0  0  0  0  0
  -27.6253  -13.1933   19.8076 C   0  0  2  0  0  0
  -28.6795  -13.1800   20.9355 C   0  0  0  0  0  0
  -25.2551  -13.8053   20.5764 C   0  0  0  0  0  0
  -24.1793  -13.0358   20.9375 C   0  0  0  0  0  0
  -24.6328  -11.6868   20.8852 C   0  0  0  0  0  0
  -23.8995  -10.4243   21.0465 C   0  0  0  0  0  0
  -24.3566   -9.4196   21.9271 C   0  0  0  0  0  0
  -23.6285   -8.2208   22.0793 C   0  0  0  0  0  0
  -22.4283   -8.0274   21.3559 C   0  0  0  0  0  0
  -21.9911   -9.0227   20.4655 C   0  0  0  0  0  0
  -22.7188  -10.2133   20.3065 C   0  0  0  0  0  0
  -21.6837   -6.0757   22.5312 C   0  0  0  0  0  0
  -21.4037   -6.5653   23.8264 C   0  0  0  0  0  0
  -21.3606   -5.6796   24.9198 C   0  0  0  0  0  0
  -21.6046   -4.3056   24.7245 C   0  0  0  0  0  0
  -21.8810   -3.8147   23.4352 C   0  0  0  0  0  0
  -21.9183   -4.6982   22.3430 C   0  0  0  0  0  0
  -22.7881  -13.5282   21.2004 C   0  0  0  0  0  0
  -22.1637   -4.2173   21.1000 F   0  0  0  0  0  0
  -21.5615   -3.4514   25.7733 F   0  0  0  0  0  0
  -30.0063  -13.3512   20.3416 N   0  0  0  0  0  0
  -26.2866  -12.9167   20.3135 N   0  0  0  0  0  0
  -25.9222  -11.6384   20.5806 N   0  0  0  0  0  0
  -22.0463  -12.8280   22.0514 N   0  0  0  0  0  0
  -25.4342  -15.1697   20.4178 N   0  0  0  0  0  0
  -32.0453  -14.2284   20.3468 O   0  0  0  0  0  0
  -21.6642   -6.8893   21.4260 O   0  0  0  0  0  0
  -22.3634  -14.5614   20.6859 O   0  0  0  0  0  0
  -24.6096  -31.8714   23.2122 C   0  0  0  0  0  0
  -25.8997  -32.4871   23.8446 C   0  0  1  0  0  0
  -27.2184  -27.4367   20.0897 C   0  0  0  0  0  0
  -25.5864  -33.8669   24.2364 N   0  0  0  0  0  0
  -23.3947  -30.4926   21.5596 C   0  0  2  0  0  0
  -24.8316  -28.9566   20.1204 C   0  0  0  0  0  0
  -22.7399  -29.4621   22.5060 C   0  0  0  0  0  0
  -18.0263  -28.1317   22.8508 C   0  0  0  0  0  0
  -24.1464  -36.7302   23.2641 C   0  0  0  0  0  0
  -25.9223  -30.8362   21.3620 C   0  0  0  0  0  0
  -25.9927  -29.4708   20.7083 C   0  0  0  0  0  0
  -27.1868  -28.7189   20.6842 C   0  0  0  0  0  0
  -26.0295  -26.9242   19.5175 C   0  0  0  0  0  0
  -24.8437  -27.6835   19.5230 C   0  0  0  0  0  0
  -23.5987  -29.8290   20.1713 C   0  0  0  0  0  0
  -25.4091  -36.3147   24.0363 C   0  0  1  0  0  0
  -20.5848  -28.3568   23.1369 C   0  0  2  0  0  0
  -20.6728  -26.9313   22.5430 C   0  0  0  0  0  0
  -19.5712  -26.6324   21.5218 C   0  0  0  0  0  0
  -18.1891  -26.7871   22.1624 C   0  0  0  0  0  0
  -19.1512  -28.8775   23.2929 C   0  0  0  0  0  0
  -18.9441  -30.1400   23.8906 C   0  0  0  0  0  0
  -17.6441  -30.6549   24.0531 C   0  0  0  0  0  0
  -25.9020  -34.9515   23.5167 C   0  0  0  0  0  0
  -16.5330  -29.9025   23.6332 C   0  0  0  0  0  0
  -16.7254  -28.6433   23.0372 C   0  0  0  0  0  0
  -26.4426  -31.6663   25.0785 C   0  0  0  0  0  0
  -25.3728  -31.3749   26.1576 C   0  0  0  0  0  0
  -27.0216  -30.3127   24.6076 C   0  0  0  0  0  0
  -27.5993  -32.4396   25.7532 C   0  0  0  0  0  0
  -27.5584  -37.1812   24.8472 C   0  0  0  0  0  0
  -21.4130  -29.2956   22.3816 N   0  0  0  0  0  0
  -26.4274  -37.3826   23.9458 N   0  0  0  0  0  0
  -24.6624  -31.0805   22.1033 N   0  0  0  0  0  0
  -23.4210  -28.8153   23.3061 O   0  0  0  0  0  0
  -28.4205  -26.7598   20.0820 O   0  0  0  0  0  0
  -26.5567  -34.8936   22.4719 O   0  0  0  0  0  0
  -23.5314  -32.1456   23.7552 O   0  0  0  0  0  0
  -31.4583  -17.8603   23.7421 C   0  0  0  0  0  0
  -33.3629  -18.9662   23.1345 C   0  0  0  0  0  0
  -32.6861  -18.2444   24.1652 C   0  0  0  0  0  0
  -32.4483  -19.0720   22.1001 C   0  0  0  0  0  0
  -35.5718  -19.5229   24.4448 C   0  0  0  0  0  0
  -33.9011  -19.5748   20.0469 C   0  0  0  0  0  0
  -29.4523  -16.1317   18.9854 C   0  0  0  0  0  0
  -31.7394  -16.6519   19.7251 C   0  0  0  0  0  0
  -34.7941  -19.5051   23.1140 C   0  0  0  0  0  0
  -30.1727  -22.9290   20.8595 C   0  0  0  0  0  0
  -28.6371  -23.0025   20.7500 C   0  0  0  0  0  0
  -30.6598  -21.4743   20.9091 C   0  0  0  0  0  0
  -28.0561  -24.4315   20.8284 C   0  0  0  0  0  0
  -32.1912  -21.2962   20.8516 C   0  0  0  0  0  0
  -29.8491  -16.5269   21.4821 C   0  0  0  0  0  0
  -30.0741  -18.0495   21.7017 C   0  0  0  0  0  0
  -28.4887  -25.3866   19.6822 C   0  0  0  0  0  0
  -32.5657  -19.8046   20.7704 C   0  0  2  0  0  0
  -30.4227  -15.9192   20.1714 C   0  0  0  0  0  0
  -31.2988  -18.3325   22.4565 N   0  0  0  0  0  0
  -33.2853  -17.8146   25.7275 Cl  0  0  0  0  0  0
  -31.4035  -12.1788   19.1883 H   0  0  0  0  0  0
  -30.1360  -11.2876   19.9677 H   0  0  0  0  0  0
  -29.7049  -11.6011   17.4778 H   0  0  0  0  0  0
  -29.6613  -13.3127   17.6820 H   0  0  0  0  0  0
  -27.8165  -11.2316   18.8797 H   0  0  0  0  0  0
  -27.3470  -12.4992   17.7734 H   0  0  0  0  0  0
  -27.5975  -14.1786   19.3622 H   0  0  0  0  0  0
  -28.6529  -12.2343   21.4805 H   0  0  0  0  0  0
  -28.4506  -13.9570   21.6645 H   0  0  0  0  0  0
  -25.2641   -9.5701   22.4930 H   0  0  0  0  0  0
  -23.9985   -7.4554   22.7478 H   0  0  0  0  0  0
  -21.0854   -8.8661   19.8953 H   0  0  0  0  0  0
  -22.3580  -10.9670   19.6170 H   0  0  0  0  0  0
  -21.2039   -7.6180   23.9748 H   0  0  0  0  0  0
  -21.1491   -6.0547   25.9137 H   0  0  0  0  0  0
  -22.0660   -2.7616   23.2818 H   0  0  0  0  0  0
  -22.4001  -11.9788   22.4678 H   0  0  0  0  0  0
  -21.1162  -13.1498   22.2789 H   0  0  0  0  0  0
  -24.7146  -15.8413   20.6593 H   0  0  0  0  0  0
  -26.2513  -15.5871   19.9921 H   0  0  0  0  0  0
  -26.7042  -32.5552   23.1196 H   0  0  0  0  0  0
  -25.0114  -33.9860   25.0574 H   0  0  0  0  0  0
  -22.6787  -31.3062   21.4289 H   0  0  0  0  0  0
  -23.3766  -35.9594   23.3317 H   0  0  0  0  0  0
  -24.3540  -36.8885   22.2045 H   0  0  0  0  0  0
  -23.7155  -37.6491   23.6621 H   0  0  0  0  0  0
  -26.0365  -31.6028   20.5926 H   0  0  0  0  0  0
  -26.8103  -30.8865   21.9805 H   0  0  0  0  0  0
  -28.0870  -29.1141   21.1306 H   0  0  0  0  0  0
  -25.9864  -25.9445   19.0621 H   0  0  0  0  0  0
  -23.9408  -27.2826   19.0804 H   0  0  0  0  0  0
  -23.7096  -30.6089   19.4175 H   0  0  0  0  0  0
  -22.7191  -29.2552   19.8744 H   0  0  0  0  0  0
  -25.1258  -36.2027   25.0849 H   0  0  0  0  0  0
  -20.9922  -28.3060   24.1501 H   0  0  0  0  0  0
  -20.5571  -26.2155   23.3595 H   0  0  0  0  0  0
  -21.6602  -26.7309   22.1257 H   0  0  0  0  0  0
  -19.6835  -25.6234   21.1238 H   0  0  0  0  0  0
  -19.6667  -27.3139   20.6760 H   0  0  0  0  0  0
  -17.4168  -26.6669   21.4013 H   0  0  0  0  0  0
  -18.0247  -26.0004   22.8997 H   0  0  0  0  0  0
  -19.7923  -30.7205   24.2272 H   0  0  0  0  0  0
  -17.4998  -31.6245   24.5095 H   0  0  0  0  0  0
  -15.5323  -30.2910   23.7662 H   0  0  0  0  0  0
  -15.8657  -28.0725   22.7119 H   0  0  0  0  0  0
  -24.5901  -30.7068   25.7983 H   0  0  0  0  0  0
  -24.8922  -32.2881   26.5084 H   0  0  0  0  0  0
  -25.8159  -30.8943   27.0304 H   0  0  0  0  0  0
  -26.2724  -29.6980   24.1078 H   0  0  0  0  0  0
  -27.3963  -29.7275   25.4474 H   0  0  0  0  0  0
  -27.8572  -30.4505   23.9216 H   0  0  0  0  0  0
  -27.2612  -33.3704   26.2100 H   0  0  0  0  0  0
  -28.3805  -32.6961   25.0368 H   0  0  0  0  0  0
  -28.0649  -31.8548   26.5469 H   0  0  0  0  0  0
  -28.2605  -38.0106   24.7566 H   0  0  0  0  0  0
  -28.1078  -36.2659   24.6248 H   0  0  0  0  0  0
  -27.2320  -37.1397   25.8869 H   0  0  0  0  0  0
  -20.9262  -29.8759   21.7130 H   0  0  0  0  0  0
  -26.0188  -38.2905   24.1479 H   0  0  0  0  0  0
  -30.6897  -17.2764   24.2208 H   0  0  0  0  0  0
  -36.5601  -19.9706   24.3322 H   0  0  0  0  0  0
  -35.7521  -18.5136   24.8184 H   0  0  0  0  0  0
  -35.0483  -20.0927   25.2087 H   0  0  0  0  0  0
  -34.1560  -18.5172   20.0371 H   0  0  0  0  0  0
  -34.7424  -20.1265   20.4661 H   0  0  0  0  0  0
  -33.8230  -19.8885   19.0103 H   0  0  0  0  0  0
  -28.3999  -16.0789   19.2632 H   0  0  0  0  0  0
  -29.6600  -15.4366   18.1679 H   0  0  0  0  0  0
  -29.5631  -17.1328   18.5642 H   0  0  0  0  0  0
  -31.5649  -17.6085   19.2613 H   0  0  0  0  0  0
  -32.3055  -16.1129   18.9592 H   0  0  0  0  0  0
  -32.4184  -16.7858   20.5655 H   0  0  0  0  0  0
  -34.7663  -20.5109   22.6968 H   0  0  0  0  0  0
  -35.3391  -18.8998   22.3924 H   0  0  0  0  0  0
  -30.5029  -23.4619   21.7497 H   0  0  0  0  0  0
  -30.6257  -23.4295   20.0032 H   0  0  0  0  0  0
  -28.2192  -22.4250   21.5801 H   0  0  0  0  0  0
  -28.3031  -22.5067   19.8362 H   0  0  0  0  0  0
  -30.2246  -20.9633   20.0499 H   0  0  0  0  0  0
  -30.2717  -20.9819   21.8026 H   0  0  0  0  0  0
  -28.3474  -24.8635   21.7870 H   0  0  0  0  0  0
  -26.9670  -24.3623   20.8493 H   0  0  0  0  0  0
  -32.6911  -21.7597   21.7035 H   0  0  0  0  0  0
  -32.5556  -21.8133   19.9613 H   0  0  0  0  0  0
  -28.7757  -16.3320   21.5018 H   0  0  0  0  0  0
  -30.2236  -15.9775   22.3437 H   0  0  0  0  0  0
  -29.2419  -18.4427   22.2841 H   0  0  0  0  0  0
  -30.0170  -18.5966   20.7672 H   0  0  0  0  0  0
  -27.9597  -25.1801   18.7472 H   0  0  0  0  0  0
  -29.5411  -25.2328   19.4522 H   0  0  0  0  0  0
  -31.8438  -19.4149   20.0725 H   0  0  0  0  0  0
  1 25  1  0  0  0
  1 30  2  0  0  0
  1 89  1  0  0  0
  2  3  1  0  0  0
  2 25  1  0  0  0
  2 92  1  0  0  0
  2 93  1  0  0  0
  3  4  1  0  0  0
  3 94  1  0  0  0
  3 95  1  0  0  0
  4  5  1  0  0  0
  4 96  1  0  0  0
  4 97  1  0  0  0
  5  6  1  0  0  0
  5 26  1  0  0  0
  5 98  1  0  0  0
  6 25  1  0  0  0
  6 99  1  0  0  0
  6100  1  0  0  0
  7  8  2  0  0  0
  7 26  1  0  0  0
  7 29  1  0  0  0
  8  9  1  0  0  0
  8 22  1  0  0  0
  9 10  1  0  0  0
  9 27  2  0  0  0
 10 11  2  0  0  0
 10 15  1  0  0  0
 11 12  1  0  0  0
 11101  1  0  0  0
 12 13  2  0  0  0
 12102  1  0  0  0
 13 14  1  0  0  0
 13 31  1  0  0  0
 14 15  2  0  0  0
 14103  1  0  0  0
 15104  1  0  0  0
 16 17  2  0  0  0
 16 21  1  0  0  0
 16 31  1  0  0  0
 17 18  1  0  0  0
 17105  1  0  0  0
 18 19  2  0  0  0
 18106  1  0  0  0
 19 20  1  0  0  0
 19 24  1  0  0  0
 20 21  2  0  0  0
 20107  1  0  0  0
 21 23  1  0  0  0
 22 28  1  0  0  0
 22 32  2  0  0  0
 26 27  1  0  0  0
 28108  1  0  0  0
 28109  1  0  0  0
 29110  1  0  0  0
 29111  1  0  0  0
 33 34  1  0  0  0
 33 66  1  0  0  0
 33 70  2  0  0  0
 34 36  1  0  0  0
 34 59  1  0  0  0
 34112  1  0  0  0
 35 44  2  0  0  0
 35 45  1  0  0  0
 35 68  1  0  0  0
 36 56  1  0  0  0
 36113  1  0  0  0
 37 39  1  0  0  0
 37 47  1  0  0  0
 37 66  1  0  0  0
 37114  1  0  0  0
 38 43  2  0  0  0
 38 46  1  0  0  0
 38 47  1  0  0  0
 39 64  1  0  0  0
 39 67  2  0  0  0
 40 52  1  0  0  0
 40 53  2  0  0  0
 40 58  1  0  0  0
 41115  1  0  0  0
 41116  1  0  0  0
 41117  1  0  0  0
 41 48  1  0  0  0
 42 43  1  0  0  0
 42 66  1  0  0  0
 42118  1  0  0  0
 42119  1  0  0  0
 43 44  1  0  0  0
 44120  1  0  0  0
 45 46  2  0  0  0
 45121  1  0  0  0
 46122  1  0  0  0
 47123  1  0  0  0
 47124  1  0  0  0
 48 56  1  0  0  0
 48 65  1  0  0  0
 48125  1  0  0  0
 49 50  1  0  0  0
 49 53  1  0  0  0
 49 64  1  0  0  0
 49126  1  0  0  0
 50 51  1  0  0  0
 50127  1  0  0  0
 50128  1  0  0  0
 51 52  1  0  0  0
 51129  1  0  0  0
 51130  1  0  0  0
 52131  1  0  0  0
 52132  1  0  0  0
 53 54  1  0  0  0
 54 55  2  0  0  0
 54133  1  0  0  0
 55 57  1  0  0  0
 55134  1  0  0  0
 56 69  2  0  0  0
 57 58  2  0  0  0
 57135  1  0  0  0
 58136  1  0  0  0
 59 60  1  0  0  0
 59 61  1  0  0  0
 59 62  1  0  0  0
 60137  1  0  0  0
 60138  1  0  0  0
 60139  1  0  0  0
 61140  1  0  0  0
 61141  1  0  0  0
 61142  1  0  0  0
 62143  1  0  0  0
 62144  1  0  0  0
 62145  1  0  0  0
 63 65  1  0  0  0
 63146  1  0  0  0
 63147  1  0  0  0
 63148  1  0  0  0
 64149  1  0  0  0
 65150  1  0  0  0
 68 87  1  0  0  0
 71 73  2  0  0  0
 71 90  1  0  0  0
 71151  1  0  0  0
 72 73  1  0  0  0
 72 74  2  0  0  0
 72 79  1  0  0  0
 73 91  1  0  0  0
 74 88  1  0  0  0
 74 90  1  0  0  0
 75 79  1  0  0  0
 75152  1  0  0  0
 75153  1  0  0  0
 75154  1  0  0  0
 76155  1  0  0  0
 76156  1  0  0  0
 76157  1  0  0  0
 76 88  1  0  0  0
 77158  1  0  0  0
 77159  1  0  0  0
 77160  1  0  0  0
 77 89  1  0  0  0
 78 89  1  0  0  0
 78161  1  0  0  0
 78162  1  0  0  0
 78163  1  0  0  0
 79164  1  0  0  0
 79165  1  0  0  0
 80 81  1  0  0  0
 80 82  1  0  0  0
 80166  1  0  0  0
 80167  1  0  0  0
 81 83  1  0  0  0
 81168  1  0  0  0
 81169  1  0  0  0
 82 84  1  0  0  0
 82170  1  0  0  0
 82171  1  0  0  0
 83 87  1  0  0  0
 83172  1  0  0  0
 83173  1  0  0  0
 84 88  1  0  0  0
 84174  1  0  0  0
 84175  1  0  0  0
 85 86  1  0  0  0
 85 89  1  0  0  0
 85176  1  0  0  0
 85177  1  0  0  0
 86 90  1  0  0  0
 86178  1  0  0  0
 86179  1  0  0  0
 87180  1  0  0  0
 87181  1  0  0  0
 88182  1  0  0  0
M  ISO  4   1 100  68 101  87 101  89 100
M  END
> <chiral flag>
0

> <version>
0

> <s_m_source_file>
/data/baiqing/PycharmProjects/Reinvent-master-3.2/result/LINK_invent/BTK/process_docking_weight1_custom_sum_contain_oxygen_bond_distance_aromatic_linkinvent_7_9_3/rearranged_h_0027.sdf

> <i_m_source_file_index>
70

> <r_mmod_Potential_Energy-OPLS-2005>
182.847442626953

> <r_mmod_Stretch_Energy-OPLS-2005>
43.3865661621094

> <r_mmod_Bend_Energy-OPLS-2005>
158.277969360352

> <r_mmod_Torsional_Energy-OPLS-2005>
259.771087646484

> <r_mmod_Improper_Torsional_Energy-OPLS-2005>
7.24884557723999

> <r_mmod_Van_der_Waal_Energy-OPLS-2005>
155.932861328125

> <r_mmod_Electrostatic_Energy-OPLS-2005>
-324.6279296875

> <r_mmod_Solvation_Energy-OPLS-2005>
-184.246948242188

> <b_mmod_Minimization_Converged-OPLS-2005>
0

> <r_mmod_RMS_Derivative-OPLS-2005>
9.02126502990723

$$$$
70
                    3D
 Structure written by MMmdl.
168176  0  0  1  0            999 V2000
  -30.7070  -14.4416   20.6148 C   0  0  0  0  0  0
  -30.4279  -12.3041   19.4069 C   0  0  0  0  0  0
  -29.4939  -12.5209   18.1983 C   0  0  0  0  0  0
  -28.0146  -12.3825   18.6118 C   0  0  0  0  0  0
  -27.6680  -13.2012   19.8839 C   0  0  2  0  0  0
  -28.7095  -12.9418   20.9952 C   0  0  0  0  0  0
  -25.2598  -13.8109   20.5646 C   0  0  0  0  0  0
  -24.1852  -13.0407   20.9181 C   0  0  0  0  0  0
  -24.6396  -11.6876   20.8728 C   0  0  0  0  0  0
  -23.9053  -10.4271   21.0391 C   0  0  0  0  0  0
  -24.3605   -9.4198   21.9182 C   0  0  0  0  0  0
  -23.6280   -8.2232   22.0753 C   0  0  0  0  0  0
  -22.4264   -8.0266   21.3539 C   0  0  0  0  0  0
  -21.9897   -9.0238   20.4644 C   0  0  0  0  0  0
  -22.7219  -10.2121   20.3050 C   0  0  0  0  0  0
  -21.6852   -6.0729   22.5275 C   0  0  0  0  0  0
  -21.4010   -6.5636   23.8209 C   0  0  0  0  0  0
  -21.3662   -5.6792   24.9172 C   0  0  0  0  0  0
  -21.6043   -4.3052   24.7225 C   0  0  0  0  0  0
  -21.8819   -3.8143   23.4344 C   0  0  0  0  0  0
  -21.9194   -4.6956   22.3399 C   0  0  0  0  0  0
  -22.7881  -13.5223   21.1835 C   0  0  0  0  0  0
  -22.1667   -4.2141   21.0976 F   0  0  0  0  0  0
  -21.5629   -3.4538   25.7741 F   0  0  0  0  0  0
  -30.0447  -13.2629   20.4541 N   0  0  0  0  0  0
  -26.3054  -12.9287   20.3393 N   0  0  0  0  0  0
  -25.9330  -11.6451   20.5774 N   0  0  0  0  0  0
  -22.0521  -12.8221   22.0390 N   0  0  0  0  0  0
  -25.4265  -15.1805   20.3948 N   0  0  0  0  0  0
  -31.7988  -14.6653   20.0830 O   0  0  0  0  0  0
  -21.6634   -6.8863   21.4231 O   0  0  0  0  0  0
  -22.3569  -14.5529   20.6684 O   0  0  0  0  0  0
  -24.6117  -31.8671   23.2103 C   0  0  0  0  0  0
  -25.9008  -32.4816   23.8394 C   0  0  1  0  0  0
  -27.2436  -27.4522   20.1014 C   0  0  0  0  0  0
  -25.5862  -33.8621   24.2325 N   0  0  0  0  0  0
  -23.4025  -30.4892   21.5478 C   0  0  2  0  0  0
  -24.8523  -28.9524   20.1185 C   0  0  0  0  0  0
  -22.7414  -29.4635   22.4965 C   0  0  0  0  0  0
  -18.0271  -28.1386   22.8481 C   0  0  0  0  0  0
  -24.1482  -36.7317   23.2649 C   0  0  0  0  0  0
  -25.9284  -30.8387   21.3616 C   0  0  0  0  0  0
  -26.0086  -29.4714   20.7150 C   0  0  0  0  0  0
  -27.2104  -28.7297   20.7040 C   0  0  0  0  0  0
  -26.0768  -26.9441   19.4985 C   0  0  0  0  0  0
  -24.8781  -27.6852   19.5084 C   0  0  0  0  0  0
  -23.6135  -29.8190   20.1643 C   0  0  0  0  0  0
  -25.4097  -36.3106   24.0345 C   0  0  1  0  0  0
  -20.5857  -28.3650   23.1319 C   0  0  2  0  0  0
  -20.6745  -26.9387   22.5408 C   0  0  0  0  0  0
  -19.5733  -26.6381   21.5200 C   0  0  0  0  0  0
  -18.1911  -26.7928   22.1626 C   0  0  0  0  0  0
  -19.1523  -28.8837   23.2893 C   0  0  0  0  0  0
  -18.9461  -30.1441   23.8902 C   0  0  0  0  0  0
  -17.6467  -30.6583   24.0568 C   0  0  0  0  0  0
  -25.9024  -34.9467   23.5138 C   0  0  0  0  0  0
  -16.5354  -29.9089   23.6332 C   0  0  0  0  0  0
  -16.7259  -28.6511   23.0335 C   0  0  0  0  0  0
  -26.4453  -31.6606   25.0715 C   0  0  0  0  0  0
  -25.3741  -31.3716   26.1488 C   0  0  0  0  0  0
  -27.0285  -30.3054   24.6071 C   0  0  0  0  0  0
  -27.6012  -32.4347   25.7476 C   0  0  0  0  0  0
  -27.5571  -37.1806   24.8469 C   0  0  0  0  0  0
  -21.4138  -29.3021   22.3729 N   0  0  0  0  0  0
  -26.4283  -37.3784   23.9414 N   0  0  0  0  0  0
  -24.6655  -31.0790   22.0988 N   0  0  0  0  0  0
  -23.4188  -28.8170   23.2994 O   0  0  0  0  0  0
  -28.4005  -26.7096   20.0206 O   0  0  0  0  0  0
  -26.5603  -34.8913   22.4704 O   0  0  0  0  0  0
  -23.5309  -32.1417   23.7491 O   0  0  0  0  0  0
  -29.2061  -18.9025   22.1943 C   0  0  0  0  0  0
  -31.3554  -17.4833   21.0958 C   0  0  0  0  0  0
  -30.3746  -19.6055   21.8419 C   0  0  0  0  0  0
  -29.1041  -17.5071   22.0202 C   0  0  0  0  0  0
  -31.4540  -18.8850   21.2730 C   0  0  0  0  0  0
  -30.1858  -16.7726   21.4703 C   0  0  0  0  0  0
  -27.7992  -16.8432   22.4302 C   0  0  0  0  0  0
  -32.7391  -19.5864   20.8686 C   0  0  0  0  0  0
  -27.9431  -26.0247   22.4001 C   0  0  0  0  0  0
  -30.2309  -26.6037   21.5013 C   0  0  0  0  0  0
  -30.4493  -21.1012   22.1656 C   0  0  0  0  0  0
  -29.7744  -22.0350   21.1353 C   0  0  0  0  0  0
  -29.7112  -23.5008   21.6321 C   0  0  0  0  0  0
  -29.0367  -24.4996   20.6551 C   0  0  0  0  0  0
  -28.8732  -25.9664   21.1620 C   0  0  0  0  0  0
  -30.0374  -15.3541   21.3446 N   0  0  0  0  0  0
  -31.4715  -12.4092   19.1057 H   0  0  0  0  0  0
  -30.3324  -11.2837   19.7829 H   0  0  0  0  0  0
  -29.7269  -11.8061   17.4084 H   0  0  0  0  0  0
  -29.6660  -13.5117   17.7731 H   0  0  0  0  0  0
  -27.8170  -11.3243   18.7875 H   0  0  0  0  0  0
  -27.3631  -12.6797   17.7887 H   0  0  0  0  0  0
  -27.7230  -14.2564   19.6143 H   0  0  0  0  0  0
  -28.6843  -11.8919   21.2927 H   0  0  0  0  0  0
  -28.4621  -13.4950   21.9015 H   0  0  0  0  0  0
  -25.2754   -9.5676   22.4756 H   0  0  0  0  0  0
  -23.9993   -7.4623   22.7476 H   0  0  0  0  0  0
  -21.0830   -8.8745   19.8950 H   0  0  0  0  0  0
  -22.3670  -10.9657   19.6158 H   0  0  0  0  0  0
  -21.1998   -7.6147   23.9703 H   0  0  0  0  0  0
  -21.1492   -6.0529   25.9076 H   0  0  0  0  0  0
  -22.0596   -2.7602   23.2848 H   0  0  0  0  0  0
  -22.4149  -11.9883   22.4776 H   0  0  0  0  0  0
  -21.1138  -13.1242   22.2590 H   0  0  0  0  0  0
  -24.6535  -15.8296   20.4895 H   0  0  0  0  0  0
  -26.2668  -15.6124   20.0328 H   0  0  0  0  0  0
  -26.7086  -32.5529   23.1167 H   0  0  0  0  0  0
  -24.9955  -33.9798   25.0433 H   0  0  0  0  0  0
  -22.6922  -31.3063   21.4061 H   0  0  0  0  0  0
  -23.3717  -35.9677   23.3335 H   0  0  0  0  0  0
  -24.3581  -36.8917   22.2059 H   0  0  0  0  0  0
  -23.7251  -37.6536   23.6658 H   0  0  0  0  0  0
  -26.0374  -31.6032   20.5912 H   0  0  0  0  0  0
  -26.8173  -30.8958   21.9775 H   0  0  0  0  0  0
  -28.1089  -29.1325   21.1516 H   0  0  0  0  0  0
  -26.0998  -25.9739   19.0219 H   0  0  0  0  0  0
  -23.9916  -27.2821   19.0372 H   0  0  0  0  0  0
  -23.7238  -30.5930   19.4038 H   0  0  0  0  0  0
  -22.7390  -29.2373   19.8671 H   0  0  0  0  0  0
  -25.1268  -36.1958   25.0834 H   0  0  0  0  0  0
  -20.9956  -28.3204   24.1436 H   0  0  0  0  0  0
  -20.5643  -26.2263   23.3595 H   0  0  0  0  0  0
  -21.6622  -26.7417   22.1213 H   0  0  0  0  0  0
  -19.6891  -25.6294   21.1219 H   0  0  0  0  0  0
  -19.6669  -27.3204   20.6738 H   0  0  0  0  0  0
  -17.4181  -26.6666   21.4028 H   0  0  0  0  0  0
  -18.0307  -26.0078   22.9035 H   0  0  0  0  0  0
  -19.7954  -30.7246   24.2257 H   0  0  0  0  0  0
  -17.5045  -31.6274   24.5164 H   0  0  0  0  0  0
  -15.5367  -30.3009   23.7654 H   0  0  0  0  0  0
  -15.8656  -28.0862   22.7012 H   0  0  0  0  0  0
  -24.5878  -30.7086   25.7866 H   0  0  0  0  0  0
  -24.8976  -32.2888   26.4965 H   0  0  0  0  0  0
  -25.8121  -30.8879   27.0223 H   0  0  0  0  0  0
  -26.2813  -29.6828   24.1142 H   0  0  0  0  0  0
  -27.4093  -29.7266   25.4495 H   0  0  0  0  0  0
  -27.8636  -30.4400   23.9185 H   0  0  0  0  0  0
  -27.2583  -33.3617   26.2075 H   0  0  0  0  0  0
  -28.3793  -32.6963   25.0297 H   0  0  0  0  0  0
  -28.0699  -31.8467   26.5381 H   0  0  0  0  0  0
  -28.2585  -38.0104   24.7479 H   0  0  0  0  0  0
  -28.1058  -36.2620   24.6315 H   0  0  0  0  0  0
  -27.2295  -37.1482   25.8880 H   0  0  0  0  0  0
  -20.9289  -29.8766   21.6974 H   0  0  0  0  0  0
  -26.0168  -38.2856   24.1427 H   0  0  0  0  0  0
  -28.3769  -19.4442   22.6292 H   0  0  0  0  0  0
  -32.2069  -16.9658   20.6804 H   0  0  0  0  0  0
  -27.3604  -17.3578   23.2860 H   0  0  0  0  0  0
  -27.9122  -15.7979   22.7107 H   0  0  0  0  0  0
  -27.0910  -16.9061   21.6056 H   0  0  0  0  0  0
  -33.3487  -18.9525   20.2241 H   0  0  0  0  0  0
  -33.3324  -19.8368   21.7497 H   0  0  0  0  0  0
  -32.5283  -20.5047   20.3191 H   0  0  0  0  0  0
  -28.3642  -25.4801   23.2447 H   0  0  0  0  0  0
  -26.9621  -25.5956   22.1941 H   0  0  0  0  0  0
  -27.7914  -27.0445   22.7525 H   0  0  0  0  0  0
  -30.6981  -26.1199   22.3594 H   0  0  0  0  0  0
  -30.1192  -27.6595   21.7520 H   0  0  0  0  0  0
  -30.9251  -26.5316   20.6638 H   0  0  0  0  0  0
  -31.4829  -21.4081   22.3208 H   0  0  0  0  0  0
  -29.9704  -21.2457   23.1349 H   0  0  0  0  0  0
  -28.7603  -21.6845   20.9413 H   0  0  0  0  0  0
  -30.3095  -21.9761   20.1868 H   0  0  0  0  0  0
  -29.1789  -23.5103   22.5826 H   0  0  0  0  0  0
  -30.7266  -23.8356   21.8474 H   0  0  0  0  0  0
  -28.0523  -24.1164   20.3843 H   0  0  0  0  0  0
  -29.6125  -24.5113   19.7281 H   0  0  0  0  0  0
  -29.1833  -14.9858   21.7315 H   0  0  0  0  0  0
  1 25  1  0  0  0
  1 30  2  0  0  0
  1 86  1  0  0  0
  2  3  1  0  0  0
  2 25  1  0  0  0
  2 87  1  0  0  0
  2 88  1  0  0  0
  3  4  1  0  0  0
  3 89  1  0  0  0
  3 90  1  0  0  0
  4  5  1  0  0  0
  4 91  1  0  0  0
  4 92  1  0  0  0
  5  6  1  0  0  0
  5 26  1  0  0  0
  5 93  1  0  0  0
  6 25  1  0  0  0
  6 94  1  0  0  0
  6 95  1  0  0  0
  7  8  2  0  0  0
  7 26  1  0  0  0
  7 29  1  0  0  0
  8  9  1  0  0  0
  8 22  1  0  0  0
  9 10  1  0  0  0
  9 27  2  0  0  0
 10 11  2  0  0  0
 10 15  1  0  0  0
 11 12  1  0  0  0
 11 96  1  0  0  0
 12 13  2  0  0  0
 12 97  1  0  0  0
 13 14  1  0  0  0
 13 31  1  0  0  0
 14 15  2  0  0  0
 14 98  1  0  0  0
 15 99  1  0  0  0
 16 17  2  0  0  0
 16 21  1  0  0  0
 16 31  1  0  0  0
 17 18  1  0  0  0
 17100  1  0  0  0
 18 19  2  0  0  0
 18101  1  0  0  0
 19 20  1  0  0  0
 19 24  1  0  0  0
 20 21  2  0  0  0
 20102  1  0  0  0
 21 23  1  0  0  0
 22 28  1  0  0  0
 22 32  2  0  0  0
 26 27  1  0  0  0
 28103  1  0  0  0
 28104  1  0  0  0
 29105  1  0  0  0
 29106  1  0  0  0
 33 34  1  0  0  0
 33 66  1  0  0  0
 33 70  2  0  0  0
 34 36  1  0  0  0
 34 59  1  0  0  0
 34107  1  0  0  0
 35 44  2  0  0  0
 35 45  1  0  0  0
 35 68  1  0  0  0
 36 56  1  0  0  0
 36108  1  0  0  0
 37 39  1  0  0  0
 37 47  1  0  0  0
 37 66  1  0  0  0
 37109  1  0  0  0
 38 43  2  0  0  0
 38 46  1  0  0  0
 38 47  1  0  0  0
 39 64  1  0  0  0
 39 67  2  0  0  0
 40 52  1  0  0  0
 40 53  2  0  0  0
 40 58  1  0  0  0
 41110  1  0  0  0
 41111  1  0  0  0
 41112  1  0  0  0
 41 48  1  0  0  0
 42 43  1  0  0  0
 42 66  1  0  0  0
 42113  1  0  0  0
 42114  1  0  0  0
 43 44  1  0  0  0
 44115  1  0  0  0
 45 46  2  0  0  0
 45116  1  0  0  0
 46117  1  0  0  0
 47118  1  0  0  0
 47119  1  0  0  0
 48 56  1  0  0  0
 48 65  1  0  0  0
 48120  1  0  0  0
 49 50  1  0  0  0
 49 53  1  0  0  0
 49 64  1  0  0  0
 49121  1  0  0  0
 50 51  1  0  0  0
 50122  1  0  0  0
 50123  1  0  0  0
 51 52  1  0  0  0
 51124  1  0  0  0
 51125  1  0  0  0
 52126  1  0  0  0
 52127  1  0  0  0
 53 54  1  0  0  0
 54 55  2  0  0  0
 54128  1  0  0  0
 55 57  1  0  0  0
 55129  1  0  0  0
 56 69  2  0  0  0
 57 58  2  0  0  0
 57130  1  0  0  0
 58131  1  0  0  0
 59 60  1  0  0  0
 59 61  1  0  0  0
 59 62  1  0  0  0
 60132  1  0  0  0
 60133  1  0  0  0
 60134  1  0  0  0
 61135  1  0  0  0
 61136  1  0  0  0
 61137  1  0  0  0
 62138  1  0  0  0
 62139  1  0  0  0
 62140  1  0  0  0
 63 65  1  0  0  0
 63141  1  0  0  0
 63142  1  0  0  0
 63143  1  0  0  0
 64144  1  0  0  0
 65145  1  0  0  0
 68 85  1  0  0  0
 71 73  2  0  0  0
 71 74  1  0  0  0
 71146  1  0  0  0
 72 75  2  0  0  0
 72 76  1  0  0  0
 72147  1  0  0  0
 73 75  1  0  0  0
 73 81  1  0  0  0
 74 76  2  0  0  0
 74 77  1  0  0  0
 75 78  1  0  0  0
 76 86  1  0  0  0
 77148  1  0  0  0
 77149  1  0  0  0
 77150  1  0  0  0
 78151  1  0  0  0
 78152  1  0  0  0
 78153  1  0  0  0
 79154  1  0  0  0
 79155  1  0  0  0
 79156  1  0  0  0
 79 85  1  0  0  0
 80 85  1  0  0  0
 80157  1  0  0  0
 80158  1  0  0  0
 80159  1  0  0  0
 81 82  1  0  0  0
 81160  1  0  0  0
 81161  1  0  0  0
 82 83  1  0  0  0
 82162  1  0  0  0
 82163  1  0  0  0
 83 84  1  0  0  0
 83164  1  0  0  0
 83165  1  0  0  0
 84 85  1  0  0  0
 84166  1  0  0  0
 84167  1  0  0  0
 86168  1  0  0  0
M  ISO  4   1 100  68 101  85 101  86 100
M  END
> <chiral flag>
0

> <version>
0

> <s_m_source_file>
/data/baiqing/PycharmProjects/Reinvent-master-3.2/result/LINK_invent/BTK/process_docking_weight1_custom_sum_contain_oxygen_bond_distance_aromatic_linkinvent_7_9_3/rearranged_h_0027.sdf

> <i_m_source_file_index>
71

> <r_mmod_Potential_Energy-OPLS-2005>
-58.7004241943359

> <r_mmod_Stretch_Energy-OPLS-2005>
38.7911682128906

> <r_mmod_Bend_Energy-OPLS-2005>
113.739738464355

> <r_mmod_Torsional_Energy-OPLS-2005>
234.087799072266

> <r_mmod_Improper_Torsional_Energy-OPLS-2005>
3.07252788543701

> <r_mmod_Van_der_Waal_Energy-OPLS-2005>
153.062149047852

> <r_mmod_Electrostatic_Energy-OPLS-2005>
-421.367126464844

> <r_mmod_Solvation_Energy-OPLS-2005>
-188.418594360352

> <b_mmod_Minimization_Converged-OPLS-2005>
0

> <r_mmod_RMS_Derivative-OPLS-2005>
2.0429699420929

$$$$
71
                    3D
 Structure written by MMmdl.
155164  0  0  1  0            999 V2000
  -30.5789  -15.0077   20.3690 C   0  0  0  0  0  0
  -30.4354  -12.6237   19.5092 C   0  0  0  0  0  0
  -29.5264  -12.5212   18.2638 C   0  0  0  0  0  0
  -28.0622  -12.3038   18.6853 C   0  0  0  0  0  0
  -27.6244  -13.2621   19.8236 C   0  0  2  0  0  0
  -28.6663  -13.3635   20.9546 C   0  0  0  0  0  0
  -25.2473  -13.8247   20.5735 C   0  0  0  0  0  0
  -24.1793  -13.0463   20.9220 C   0  0  0  0  0  0
  -24.6419  -11.6946   20.8743 C   0  0  0  0  0  0
  -23.9106  -10.4309   21.0400 C   0  0  0  0  0  0
  -24.3654   -9.4220   21.9182 C   0  0  0  0  0  0
  -23.6324   -8.2257   22.0752 C   0  0  0  0  0  0
  -22.4305   -8.0290   21.3539 C   0  0  0  0  0  0
  -21.9944   -9.0265   20.4646 C   0  0  0  0  0  0
  -22.7275  -10.2146   20.3051 C   0  0  0  0  0  0
  -21.6865   -6.0744   22.5280 C   0  0  0  0  0  0
  -21.4012   -6.5649   23.8208 C   0  0  0  0  0  0
  -21.3652   -5.6798   24.9174 C   0  0  0  0  0  0
  -21.6041   -4.3058   24.7223 C   0  0  0  0  0  0
  -21.8823   -3.8152   23.4345 C   0  0  0  0  0  0
  -21.9197   -4.6972   22.3406 C   0  0  0  0  0  0
  -22.7808  -13.5222   21.1875 C   0  0  0  0  0  0
  -22.1669   -4.2158   21.0980 F   0  0  0  0  0  0
  -21.5627   -3.4542   25.7731 F   0  0  0  0  0  0
  -29.9396  -13.7618   20.3438 N   0  0  0  0  0  0
  -26.2896  -12.9507   20.3227 N   0  0  0  0  0  0
  -25.9360  -11.6621   20.5722 N   0  0  0  0  0  0
  -22.0465  -12.8189   22.0417 N   0  0  0  0  0  0
  -25.4159  -15.1988   20.4223 N   0  0  0  0  0  0
  -31.7948  -14.9638   20.1520 O   0  0  0  0  0  0
  -21.6658   -6.8891   21.4241 O   0  0  0  0  0  0
  -22.3481  -14.5526   20.6712 O   0  0  0  0  0  0
  -24.6482  -31.8408   23.1833 C   0  0  0  0  0  0
  -25.9244  -32.4677   23.8238 C   0  0  1  0  0  0
  -27.2154  -27.1003   20.1516 C   0  0  0  0  0  0
  -25.6019  -33.8476   24.2204 N   0  0  0  0  0  0
  -23.4533  -30.4592   21.5273 C   0  0  2  0  0  0
  -24.9029  -28.8775   20.1094 C   0  0  0  0  0  0
  -22.7581  -29.4555   22.4823 C   0  0  0  0  0  0
  -18.0310  -28.1420   22.8479 C   0  0  0  0  0  0
  -24.1477  -36.7176   23.2644 C   0  0  0  0  0  0
  -26.0113  -30.7042   21.3855 C   0  0  0  0  0  0
  -26.0815  -29.3119   20.7267 C   0  0  0  0  0  0
  -27.2390  -28.4402   20.7279 C   0  0  0  0  0  0
  -26.0064  -26.7760   19.4993 C   0  0  0  0  0  0
  -24.8793  -27.6237   19.4808 C   0  0  0  0  0  0
  -23.6822  -29.7820   20.1497 C   0  0  0  0  0  0
  -25.4112  -36.2990   24.0331 C   0  0  1  0  0  0
  -20.5932  -28.3752   23.1214 C   0  0  2  0  0  0
  -20.6788  -26.9455   22.5394 C   0  0  0  0  0  0
  -19.5760  -26.6407   21.5208 C   0  0  0  0  0  0
  -18.1943  -26.7959   22.1624 C   0  0  0  0  0  0
  -19.1574  -28.8905   23.2842 C   0  0  0  0  0  0
  -18.9493  -30.1499   23.8874 C   0  0  0  0  0  0
  -17.6492  -30.6617   24.0573 C   0  0  0  0  0  0
  -25.9077  -34.9385   23.5056 C   0  0  0  0  0  0
  -16.5379  -29.9103   23.6360 C   0  0  0  0  0  0
  -16.7296  -28.6524   23.0372 C   0  0  0  0  0  0
  -26.4574  -31.6532   25.0671 C   0  0  0  0  0  0
  -25.3780  -31.3709   26.1377 C   0  0  0  0  0  0
  -27.0427  -30.2925   24.6253 C   0  0  0  0  0  0
  -27.6098  -32.4314   25.7451 C   0  0  0  0  0  0
  -27.5555  -37.1748   24.8494 C   0  0  0  0  0  0
  -21.4280  -29.3062   22.3559 N   0  0  0  0  0  0
  -26.4267  -37.3722   23.9444 N   0  0  0  0  0  0
  -24.7245  -31.0236   22.0869 N   0  0  0  0  0  0
  -23.4196  -28.8098   23.2999 O   0  0  0  0  0  0
  -28.2797  -26.1171   20.2085 O   0  0  0  0  0  0
  -26.5615  -34.8903   22.4606 O   0  0  0  0  0  0
  -23.5596  -32.1295   23.7031 O   0  0  0  0  0  0
  -29.0154  -17.0590   19.4726 C   0  0  0  0  0  0
  -30.0284  -18.9763   21.1856 C   0  0  0  0  0  0
  -29.9371  -16.5005   20.4281 C   0  0  0  0  0  0
  -29.0938  -19.5338   20.2447 C   0  0  0  0  0  0
  -30.4422  -17.5732   21.2584 C   0  0  0  0  0  0
  -28.6261  -18.4681   19.3797 C   0  0  0  0  0  0
  -29.1467  -22.1380   19.0563 C   0  0  0  0  0  0
  -28.4312  -22.0881   21.4269 C   0  0  0  0  0  0
  -29.3295  -23.7284   19.3702 C   0  0  0  0  0  0
  -27.8339  -23.6128   21.2879 C   0  0  0  0  0  0
  -28.5776  -21.1353   20.1587 C   0  0  2  0  0  0
  -28.1394  -24.5535   20.0280 C   0  0  1  0  0  0
  -31.3954  -17.2722   22.1717 F   0  0  0  0  0  0
  -27.5462  -18.8775   18.0962 Cl  0  0  0  0  0  0
  -31.4717  -12.7567   19.1927 H   0  0  0  0  0  0
  -30.4228  -11.6935   20.0800 H   0  0  0  0  0  0
  -29.8555  -11.7018   17.6232 H   0  0  0  0  0  0
  -29.6111  -13.4315   17.6677 H   0  0  0  0  0  0
  -27.9739  -11.2705   19.0227 H   0  0  0  0  0  0
  -27.3990  -12.4004   17.8261 H   0  0  0  0  0  0
  -27.5659  -14.2472   19.3609 H   0  0  0  0  0  0
  -28.7674  -12.4182   21.4883 H   0  0  0  0  0  0
  -28.3606  -14.1071   21.6921 H   0  0  0  0  0  0
  -25.2798   -9.5699   22.4763 H   0  0  0  0  0  0
  -24.0035   -7.4650   22.7477 H   0  0  0  0  0  0
  -21.0871   -8.8786   19.8957 H   0  0  0  0  0  0
  -22.3729  -10.9684   19.6165 H   0  0  0  0  0  0
  -21.1993   -7.6155   23.9711 H   0  0  0  0  0  0
  -21.1464   -6.0526   25.9073 H   0  0  0  0  0  0
  -22.0599   -2.7612   23.2838 H   0  0  0  0  0  0
  -22.4106  -11.9867   22.4806 H   0  0  0  0  0  0
  -21.1064  -13.1172   22.2605 H   0  0  0  0  0  0
  -24.6518  -15.8531   20.5466 H   0  0  0  0  0  0
  -26.2776  -15.6451   20.1355 H   0  0  0  0  0  0
  -26.7285  -32.5276   23.0939 H   0  0  0  0  0  0
  -25.0346  -33.9604   25.0471 H   0  0  0  0  0  0
  -22.7587  -31.2847   21.3631 H   0  0  0  0  0  0
  -23.3789  -35.9460   23.3303 H   0  0  0  0  0  0
  -24.3565  -36.8786   22.2062 H   0  0  0  0  0  0
  -23.7185  -37.6357   23.6661 H   0  0  0  0  0  0
  -26.1668  -31.4569   20.6110 H   0  0  0  0  0  0
  -26.8823  -30.7585   22.0273 H   0  0  0  0  0  0
  -28.1374  -28.7725   21.2277 H   0  0  0  0  0  0
  -25.8858  -25.8263   19.0034 H   0  0  0  0  0  0
  -23.9810  -27.2842   18.9832 H   0  0  0  0  0  0
  -23.8194  -30.5500   19.3880 H   0  0  0  0  0  0
  -22.7994  -29.2185   19.8444 H   0  0  0  0  0  0
  -25.1291  -36.1799   25.0824 H   0  0  0  0  0  0
  -21.0047  -28.3344   24.1323 H   0  0  0  0  0  0
  -20.5686  -26.2373   23.3620 H   0  0  0  0  0  0
  -21.6646  -26.7437   22.1190 H   0  0  0  0  0  0
  -19.6925  -25.6310   21.1249 H   0  0  0  0  0  0
  -19.6705  -27.3204   20.6729 H   0  0  0  0  0  0
  -17.4217  -26.6740   21.4019 H   0  0  0  0  0  0
  -18.0320  -26.0104   22.9024 H   0  0  0  0  0  0
  -19.7976  -30.7331   24.2221 H   0  0  0  0  0  0
  -17.5051  -31.6294   24.5181 H   0  0  0  0  0  0
  -15.5381  -30.3009   23.7701 H   0  0  0  0  0  0
  -15.8690  -28.0840   22.7096 H   0  0  0  0  0  0
  -24.5988  -30.7012   25.7721 H   0  0  0  0  0  0
  -24.8951  -32.2878   26.4768 H   0  0  0  0  0  0
  -25.8110  -30.8935   27.0180 H   0  0  0  0  0  0
  -26.3020  -29.6653   24.1286 H   0  0  0  0  0  0
  -27.4064  -29.7225   25.4818 H   0  0  0  0  0  0
  -27.8917  -30.4146   23.9524 H   0  0  0  0  0  0
  -27.2697  -33.3683   26.1886 H   0  0  0  0  0  0
  -28.3979  -32.6782   25.0314 H   0  0  0  0  0  0
  -28.0692  -31.8539   26.5491 H   0  0  0  0  0  0
  -28.2580  -38.0039   24.7526 H   0  0  0  0  0  0
  -28.1036  -36.2570   24.6319 H   0  0  0  0  0  0
  -27.2280  -37.1375   25.8903 H   0  0  0  0  0  0
  -20.9498  -29.8741   21.6701 H   0  0  0  0  0  0
  -26.0112  -38.2769   24.1502 H   0  0  0  0  0  0
  -28.6231  -16.3916   18.7196 H   0  0  0  0  0  0
  -30.4832  -19.6578   21.8901 H   0  0  0  0  0  0
  -30.1150  -21.7552   18.7391 H   0  0  0  0  0  0
  -28.5178  -22.0413   18.1694 H   0  0  0  0  0  0
  -27.8183  -21.5684   22.1652 H   0  0  0  0  0  0
  -29.4135  -22.1619   21.8914 H   0  0  0  0  0  0
  -29.6130  -24.2220   18.4407 H   0  0  0  0  0  0
  -30.2031  -23.8425   20.0134 H   0  0  0  0  0  0
  -28.1814  -24.1495   22.1724 H   0  0  0  0  0  0
  -26.7497  -23.5765   21.4074 H   0  0  0  0  0  0
  -27.5337  -20.9975   19.8715 H   0  0  0  0  0  0
  -27.3254  -24.3954   19.3273 H   0  0  0  0  0  0
  1 25  1  0  0  0
  1 30  2  0  0  0
  1 73  1  0  0  0
  2  3  1  0  0  0
  2 25  1  0  0  0
  2 85  1  0  0  0
  2 86  1  0  0  0
  3  4  1  0  0  0
  3 87  1  0  0  0
  3 88  1  0  0  0
  4  5  1  0  0  0
  4 89  1  0  0  0
  4 90  1  0  0  0
  5  6  1  0  0  0
  5 26  1  0  0  0
  5 91  1  0  0  0
  6 25  1  0  0  0
  6 92  1  0  0  0
  6 93  1  0  0  0
  7  8  2  0  0  0
  7 26  1  0  0  0
  7 29  1  0  0  0
  8  9  1  0  0  0
  8 22  1  0  0  0
  9 10  1  0  0  0
  9 27  2  0  0  0
 10 11  2  0  0  0
 10 15  1  0  0  0
 11 12  1  0  0  0
 11 94  1  0  0  0
 12 13  2  0  0  0
 12 95  1  0  0  0
 13 14  1  0  0  0
 13 31  1  0  0  0
 14 15  2  0  0  0
 14 96  1  0  0  0
 15 97  1  0  0  0
 16 17  2  0  0  0
 16 21  1  0  0  0
 16 31  1  0  0  0
 17 18  1  0  0  0
 17 98  1  0  0  0
 18 19  2  0  0  0
 18 99  1  0  0  0
 19 20  1  0  0  0
 19 24  1  0  0  0
 20 21  2  0  0  0
 20100  1  0  0  0
 21 23  1  0  0  0
 22 28  1  0  0  0
 22 32  2  0  0  0
 26 27  1  0  0  0
 28101  1  0  0  0
 28102  1  0  0  0
 29103  1  0  0  0
 29104  1  0  0  0
 33 34  1  0  0  0
 33 66  1  0  0  0
 33 70  2  0  0  0
 34 36  1  0  0  0
 34 59  1  0  0  0
 34105  1  0  0  0
 35 44  2  0  0  0
 35 45  1  0  0  0
 35 68  1  0  0  0
 36 56  1  0  0  0
 36106  1  0  0  0
 37 39  1  0  0  0
 37 47  1  0  0  0
 37 66  1  0  0  0
 37107  1  0  0  0
 38 43  2  0  0  0
 38 46  1  0  0  0
 38 47  1  0  0  0
 39 64  1  0  0  0
 39 67  2  0  0  0
 40 52  1  0  0  0
 40 53  2  0  0  0
 40 58  1  0  0  0
 41108  1  0  0  0
 41109  1  0  0  0
 41110  1  0  0  0
 41 48  1  0  0  0
 42 43  1  0  0  0
 42 66  1  0  0  0
 42111  1  0  0  0
 42112  1  0  0  0
 43 44  1  0  0  0
 44113  1  0  0  0
 45 46  2  0  0  0
 45114  1  0  0  0
 46115  1  0  0  0
 47116  1  0  0  0
 47117  1  0  0  0
 48 56  1  0  0  0
 48 65  1  0  0  0
 48118  1  0  0  0
 49 50  1  0  0  0
 49 53  1  0  0  0
 49 64  1  0  0  0
 49119  1  0  0  0
 50 51  1  0  0  0
 50120  1  0  0  0
 50121  1  0  0  0
 51 52  1  0  0  0
 51122  1  0  0  0
 51123  1  0  0  0
 52124  1  0  0  0
 52125  1  0  0  0
 53 54  1  0  0  0
 54 55  2  0  0  0
 54126  1  0  0  0
 55 57  1  0  0  0
 55127  1  0  0  0
 56 69  2  0  0  0
 57 58  2  0  0  0
 57128  1  0  0  0
 58129  1  0  0  0
 59 60  1  0  0  0
 59 61  1  0  0  0
 59 62  1  0  0  0
 60130  1  0  0  0
 60131  1  0  0  0
 60132  1  0  0  0
 61133  1  0  0  0
 61134  1  0  0  0
 61135  1  0  0  0
 62136  1  0  0  0
 62137  1  0  0  0
 62138  1  0  0  0
 63 65  1  0  0  0
 63139  1  0  0  0
 63140  1  0  0  0
 63141  1  0  0  0
 64142  1  0  0  0
 65143  1  0  0  0
 68 82  1  0  0  0
 71 73  2  0  0  0
 71 76  1  0  0  0
 71144  1  0  0  0
 72 74  1  0  0  0
 72 75  2  0  0  0
 72145  1  0  0  0
 73 75  1  0  0  0
 74 76  2  0  0  0
 74 81  1  0  0  0
 75 83  1  0  0  0
 76 84  1  0  0  0
 77 79  1  0  0  0
 77 81  1  0  0  0
 77146  1  0  0  0
 77147  1  0  0  0
 78 80  1  0  0  0
 78 81  1  0  0  0
 78148  1  0  0  0
 78149  1  0  0  0
 79 82  1  0  0  0
 79150  1  0  0  0
 79151  1  0  0  0
 80 82  1  0  0  0
 80152  1  0  0  0
 80153  1  0  0  0
 81154  1  0  0  0
 82155  1  0  0  0
M  ISO  4   1 100  68 101  73 100  82 101
M  END
> <chiral flag>
0

> <version>
0

> <s_m_source_file>
/data/baiqing/PycharmProjects/Reinvent-master-3.2/result/LINK_invent/BTK/process_docking_weight1_custom_sum_contain_oxygen_bond_distance_aromatic_linkinvent_7_9_3/rearranged_h_0027.sdf

> <i_m_source_file_index>
72

> <r_mmod_Potential_Energy-OPLS-2005>
668.605895996094

> <r_mmod_Stretch_Energy-OPLS-2005>
256.829010009766

> <r_mmod_Bend_Energy-OPLS-2005>
302.962615966797

> <r_mmod_Torsional_Energy-OPLS-2005>
251.924560546875

> <r_mmod_Improper_Torsional_Energy-OPLS-2005>
5.68009662628174

> <r_mmod_Van_der_Waal_Energy-OPLS-2005>
130.328964233398

> <r_mmod_Electrostatic_Energy-OPLS-2005>
-324.079681396484

> <r_mmod_Solvation_Energy-OPLS-2005>
-183.53337097168

> <b_mmod_Minimization_Converged-OPLS-2005>
0

> <r_mmod_RMS_Derivative-OPLS-2005>
3.2589225769043

$$$$
72
                    3D
 Structure written by MMmdl.
162170  0  0  1  0            999 V2000
  -30.7426  -14.3972   20.6640 C   0  0  0  0  0  0
  -30.4229  -12.3016   19.3959 C   0  0  0  0  0  0
  -29.4862  -12.5197   18.1921 C   0  0  0  0  0  0
  -28.0102  -12.3742   18.6105 C   0  0  0  0  0  0
  -27.6651  -13.2009   19.8771 C   0  0  2  0  0  0
  -28.7039  -12.9451   20.9902 C   0  0  0  0  0  0
  -25.2608  -13.8150   20.5671 C   0  0  0  0  0  0
  -24.1848  -13.0438   20.9164 C   0  0  0  0  0  0
  -24.6388  -11.6900   20.8726 C   0  0  0  0  0  0
  -23.9054  -10.4292   21.0402 C   0  0  0  0  0  0
  -24.3607   -9.4209   21.9182 C   0  0  0  0  0  0
  -23.6285   -8.2245   22.0755 C   0  0  0  0  0  0
  -22.4270   -8.0279   21.3543 C   0  0  0  0  0  0
  -21.9902   -9.0252   20.4646 C   0  0  0  0  0  0
  -22.7228  -10.2133   20.3052 C   0  0  0  0  0  0
  -21.6852   -6.0733   22.5278 C   0  0  0  0  0  0
  -21.4013   -6.5638   23.8210 C   0  0  0  0  0  0
  -21.3658   -5.6792   24.9174 C   0  0  0  0  0  0
  -21.6046   -4.3054   24.7227 C   0  0  0  0  0  0
  -21.8819   -3.8145   23.4347 C   0  0  0  0  0  0
  -21.9192   -4.6961   22.3402 C   0  0  0  0  0  0
  -22.7873  -13.5244   21.1832 C   0  0  0  0  0  0
  -22.1661   -4.2147   21.0980 F   0  0  0  0  0  0
  -21.5630   -3.4538   25.7739 F   0  0  0  0  0  0
  -30.0415  -13.2537   20.4492 N   0  0  0  0  0  0
  -26.3039  -12.9309   20.3364 N   0  0  0  0  0  0
  -25.9311  -11.6473   20.5751 N   0  0  0  0  0  0
  -22.0509  -12.8240   22.0386 N   0  0  0  0  0  0
  -25.4356  -15.1866   20.4084 N   0  0  0  0  0  0
  -31.8061  -14.6593   20.0947 O   0  0  0  0  0  0
  -21.6636   -6.8875   21.4240 O   0  0  0  0  0  0
  -22.3564  -14.5555   20.6686 O   0  0  0  0  0  0
  -24.6137  -31.8694   23.2114 C   0  0  0  0  0  0
  -25.9034  -32.4831   23.8410 C   0  0  1  0  0  0
  -27.2366  -27.4387   20.0888 C   0  0  0  0  0  0
  -25.5884  -33.8630   24.2334 N   0  0  0  0  0  0
  -23.4010  -30.4927   21.5531 C   0  0  2  0  0  0
  -24.8448  -28.9567   20.1214 C   0  0  0  0  0  0
  -22.7412  -29.4660   22.5014 C   0  0  0  0  0  0
  -18.0268  -28.1375   22.8492 C   0  0  0  0  0  0
  -24.1487  -36.7320   23.2637 C   0  0  0  0  0  0
  -25.9300  -30.8337   21.3656 C   0  0  0  0  0  0
  -26.0055  -29.4682   20.7132 C   0  0  0  0  0  0
  -27.2018  -28.7169   20.6917 C   0  0  0  0  0  0
  -26.0519  -26.9391   19.4966 C   0  0  0  0  0  0
  -24.8623  -27.6905   19.5138 C   0  0  0  0  0  0
  -23.6085  -29.8247   20.1686 C   0  0  0  0  0  0
  -25.4105  -36.3118   24.0338 C   0  0  1  0  0  0
  -20.5860  -28.3655   23.1331 C   0  0  2  0  0  0
  -20.6765  -26.9397   22.5420 C   0  0  0  0  0  0
  -19.5741  -26.6386   21.5217 C   0  0  0  0  0  0
  -18.1915  -26.7919   22.1624 C   0  0  0  0  0  0
  -19.1518  -28.8832   23.2905 C   0  0  0  0  0  0
  -18.9451  -30.1440   23.8915 C   0  0  0  0  0  0
  -17.6457  -30.6584   24.0564 C   0  0  0  0  0  0
  -25.9030  -34.9483   23.5137 C   0  0  0  0  0  0
  -16.5346  -29.9087   23.6327 C   0  0  0  0  0  0
  -16.7258  -28.6504   23.0346 C   0  0  0  0  0  0
  -26.4461  -31.6610   25.0738 C   0  0  0  0  0  0
  -25.3725  -31.3715   26.1492 C   0  0  0  0  0  0
  -27.0291  -30.3051   24.6111 C   0  0  0  0  0  0
  -27.6038  -32.4330   25.7500 C   0  0  0  0  0  0
  -27.5583  -37.1815   24.8463 C   0  0  0  0  0  0
  -21.4142  -29.3028   22.3752 N   0  0  0  0  0  0
  -26.4298  -37.3797   23.9404 N   0  0  0  0  0  0
  -24.6665  -31.0798   22.1015 N   0  0  0  0  0  0
  -23.4196  -28.8201   23.3045 O   0  0  0  0  0  0
  -28.4386  -26.7582   20.0605 O   0  0  0  0  0  0
  -26.5604  -34.8929   22.4704 O   0  0  0  0  0  0
  -23.5331  -32.1455   23.7511 O   0  0  0  0  0  0
  -27.8822  -19.7623   21.9034 C   0  0  0  0  0  0
  -29.0730  -21.9397   20.5981 C   0  0  0  0  0  0
  -27.4421  -21.0731   22.1845 C   0  0  0  0  0  0
  -28.9027  -19.5219   20.9616 C   0  0  0  0  0  0
  -28.0403  -22.1838   21.5333 C   0  0  0  0  0  0
  -29.4980  -20.6255   20.3054 C   0  0  0  0  0  0
  -26.3107  -21.2547   23.1842 C   0  0  0  0  0  0
  -29.2992  -18.0778   20.6529 C   0  0  0  0  0  0
  -27.5355  -23.6034   21.8303 C   0  0  0  0  0  0
  -30.7143  -17.6853   21.1343 C   0  0  0  0  0  0
  -28.4692  -24.7978   21.5287 C   0  0  0  0  0  0
  -30.7825  -16.4687   22.0839 C   0  0  0  0  0  0
  -28.4473  -25.3232   20.0781 C   0  0  0  0  0  0
  -30.1909  -15.2410   21.5478 N   0  0  0  0  0  0
  -30.7402  -20.3972   19.1250 Cl  0  0  0  0  0  0
  -31.4643  -12.4137   19.0888 H   0  0  0  0  0  0
  -30.3345  -11.2807   19.7703 H   0  0  0  0  0  0
  -29.7209  -11.8078   17.3999 H   0  0  0  0  0  0
  -29.6525  -13.5125   17.7712 H   0  0  0  0  0  0
  -27.8207  -11.3162   18.7967 H   0  0  0  0  0  0
  -27.3555  -12.6585   17.7861 H   0  0  0  0  0  0
  -27.7225  -14.2541   19.6012 H   0  0  0  0  0  0
  -28.6750  -11.8988   21.2979 H   0  0  0  0  0  0
  -28.4495  -13.5098   21.8871 H   0  0  0  0  0  0
  -25.2752   -9.5688   22.4753 H   0  0  0  0  0  0
  -23.9995   -7.4639   22.7475 H   0  0  0  0  0  0
  -21.0835   -8.8768   19.8950 H   0  0  0  0  0  0
  -22.3687  -10.9669   19.6159 H   0  0  0  0  0  0
  -21.2003   -7.6146   23.9714 H   0  0  0  0  0  0
  -21.1481   -6.0521   25.9077 H   0  0  0  0  0  0
  -22.0600   -2.7607   23.2848 H   0  0  0  0  0  0
  -22.4114  -11.9895   22.4770 H   0  0  0  0  0  0
  -21.1126  -13.1271   22.2583 H   0  0  0  0  0  0
  -24.6740  -15.8471   20.5192 H   0  0  0  0  0  0
  -26.2947  -15.6211   20.0952 H   0  0  0  0  0  0
  -26.7106  -32.5549   23.1178 H   0  0  0  0  0  0
  -25.0021  -33.9788   25.0473 H   0  0  0  0  0  0
  -22.6888  -31.3089   21.4154 H   0  0  0  0  0  0
  -23.3746  -35.9656   23.3314 H   0  0  0  0  0  0
  -24.3578  -36.8921   22.2047 H   0  0  0  0  0  0
  -23.7249  -37.6530   23.6649 H   0  0  0  0  0  0
  -26.0453  -31.6005   20.5983 H   0  0  0  0  0  0
  -26.8167  -30.8852   21.9860 H   0  0  0  0  0  0
  -28.1021  -29.1134   21.1407 H   0  0  0  0  0  0
  -26.0201  -25.9884   18.9885 H   0  0  0  0  0  0
  -23.9704  -27.2927   19.0495 H   0  0  0  0  0  0
  -23.7175  -30.5998   19.4093 H   0  0  0  0  0  0
  -22.7320  -29.2442   19.8737 H   0  0  0  0  0  0
  -25.1283  -36.1992   25.0830 H   0  0  0  0  0  0
  -20.9941  -28.3222   24.1456 H   0  0  0  0  0  0
  -20.5691  -26.2258   23.3600 H   0  0  0  0  0  0
  -21.6633  -26.7459   22.1196 H   0  0  0  0  0  0
  -19.6910  -25.6308   21.1221 H   0  0  0  0  0  0
  -19.6684  -27.3220   20.6767 H   0  0  0  0  0  0
  -17.4190  -26.6672   21.4019 H   0  0  0  0  0  0
  -18.0307  -26.0061   22.9021 H   0  0  0  0  0  0
  -19.7935  -30.7236   24.2299 H   0  0  0  0  0  0
  -17.5019  -31.6266   24.5159 H   0  0  0  0  0  0
  -15.5346  -30.2992   23.7649 H   0  0  0  0  0  0
  -15.8657  -28.0830   22.7053 H   0  0  0  0  0  0
  -24.5884  -30.7081   25.7832 H   0  0  0  0  0  0
  -24.8930  -32.2864   26.4974 H   0  0  0  0  0  0
  -25.8070  -30.8860   27.0239 H   0  0  0  0  0  0
  -26.2842  -29.6823   24.1143 H   0  0  0  0  0  0
  -27.4039  -29.7278   25.4572 H   0  0  0  0  0  0
  -27.8686  -30.4370   23.9282 H   0  0  0  0  0  0
  -27.2653  -33.3616   26.2113 H   0  0  0  0  0  0
  -28.3822  -32.6916   25.0310 H   0  0  0  0  0  0
  -28.0734  -31.8438   26.5385 H   0  0  0  0  0  0
  -28.2605  -38.0110   24.7502 H   0  0  0  0  0  0
  -28.1073  -36.2638   24.6299 H   0  0  0  0  0  0
  -27.2294  -37.1471   25.8866 H   0  0  0  0  0  0
  -20.9318  -29.8758   21.6974 H   0  0  0  0  0  0
  -26.0195  -38.2881   24.1396 H   0  0  0  0  0  0
  -27.4153  -18.9250   22.4043 H   0  0  0  0  0  0
  -29.5488  -22.7558   20.0774 H   0  0  0  0  0  0
  -25.8343  -20.3040   23.4250 H   0  0  0  0  0  0
  -25.5370  -21.9117   22.7864 H   0  0  0  0  0  0
  -26.6852  -21.6829   24.1143 H   0  0  0  0  0  0
  -29.2265  -17.9232   19.5756 H   0  0  0  0  0  0
  -28.5556  -17.4072   21.0844 H   0  0  0  0  0  0
  -27.3250  -23.6538   22.8987 H   0  0  0  0  0  0
  -26.5740  -23.7472   21.3360 H   0  0  0  0  0  0
  -31.1761  -18.5339   21.6413 H   0  0  0  0  0  0
  -31.3453  -17.5010   20.2637 H   0  0  0  0  0  0
  -29.4894  -24.5978   21.8589 H   0  0  0  0  0  0
  -28.1244  -25.6134   22.1653 H   0  0  0  0  0  0
  -30.2676  -16.7092   23.0150 H   0  0  0  0  0  0
  -31.8212  -16.2761   22.3590 H   0  0  0  0  0  0
  -27.6522  -24.8606   19.4990 H   0  0  0  0  0  0
  -29.3629  -25.0080   19.5784 H   0  0  0  0  0  0
  -29.3172  -14.9402   21.9546 H   0  0  0  0  0  0
  1 25  1  0  0  0
  1 30  2  0  0  0
  1 84  1  0  0  0
  2  3  1  0  0  0
  2 25  1  0  0  0
  2 86  1  0  0  0
  2 87  1  0  0  0
  3  4  1  0  0  0
  3 88  1  0  0  0
  3 89  1  0  0  0
  4  5  1  0  0  0
  4 90  1  0  0  0
  4 91  1  0  0  0
  5  6  1  0  0  0
  5 26  1  0  0  0
  5 92  1  0  0  0
  6 25  1  0  0  0
  6 93  1  0  0  0
  6 94  1  0  0  0
  7  8  2  0  0  0
  7 26  1  0  0  0
  7 29  1  0  0  0
  8  9  1  0  0  0
  8 22  1  0  0  0
  9 10  1  0  0  0
  9 27  2  0  0  0
 10 11  2  0  0  0
 10 15  1  0  0  0
 11 12  1  0  0  0
 11 95  1  0  0  0
 12 13  2  0  0  0
 12 96  1  0  0  0
 13 14  1  0  0  0
 13 31  1  0  0  0
 14 15  2  0  0  0
 14 97  1  0  0  0
 15 98  1  0  0  0
 16 17  2  0  0  0
 16 21  1  0  0  0
 16 31  1  0  0  0
 17 18  1  0  0  0
 17 99  1  0  0  0
 18 19  2  0  0  0
 18100  1  0  0  0
 19 20  1  0  0  0
 19 24  1  0  0  0
 20 21  2  0  0  0
 20101  1  0  0  0
 21 23  1  0  0  0
 22 28  1  0  0  0
 22 32  2  0  0  0
 26 27  1  0  0  0
 28102  1  0  0  0
 28103  1  0  0  0
 29104  1  0  0  0
 29105  1  0  0  0
 33 34  1  0  0  0
 33 66  1  0  0  0
 33 70  2  0  0  0
 34 36  1  0  0  0
 34 59  1  0  0  0
 34106  1  0  0  0
 35 44  2  0  0  0
 35 45  1  0  0  0
 35 68  1  0  0  0
 36 56  1  0  0  0
 36107  1  0  0  0
 37 39  1  0  0  0
 37 47  1  0  0  0
 37 66  1  0  0  0
 37108  1  0  0  0
 38 43  2  0  0  0
 38 46  1  0  0  0
 38 47  1  0  0  0
 39 64  1  0  0  0
 39 67  2  0  0  0
 40 52  1  0  0  0
 40 53  2  0  0  0
 40 58  1  0  0  0
 41109  1  0  0  0
 41110  1  0  0  0
 41111  1  0  0  0
 41 48  1  0  0  0
 42 43  1  0  0  0
 42 66  1  0  0  0
 42112  1  0  0  0
 42113  1  0  0  0
 43 44  1  0  0  0
 44114  1  0  0  0
 45 46  2  0  0  0
 45115  1  0  0  0
 46116  1  0  0  0
 47117  1  0  0  0
 47118  1  0  0  0
 48 56  1  0  0  0
 48 65  1  0  0  0
 48119  1  0  0  0
 49 50  1  0  0  0
 49 53  1  0  0  0
 49 64  1  0  0  0
 49120  1  0  0  0
 50 51  1  0  0  0
 50121  1  0  0  0
 50122  1  0  0  0
 51 52  1  0  0  0
 51123  1  0  0  0
 51124  1  0  0  0
 52125  1  0  0  0
 52126  1  0  0  0
 53 54  1  0  0  0
 54 55  2  0  0  0
 54127  1  0  0  0
 55 57  1  0  0  0
 55128  1  0  0  0
 56 69  2  0  0  0
 57 58  2  0  0  0
 57129  1  0  0  0
 58130  1  0  0  0
 59 60  1  0  0  0
 59 61  1  0  0  0
 59 62  1  0  0  0
 60131  1  0  0  0
 60132  1  0  0  0
 60133  1  0  0  0
 61134  1  0  0  0
 61135  1  0  0  0
 61136  1  0  0  0
 62137  1  0  0  0
 62138  1  0  0  0
 62139  1  0  0  0
 63 65  1  0  0  0
 63140  1  0  0  0
 63141  1  0  0  0
 63142  1  0  0  0
 64143  1  0  0  0
 65144  1  0  0  0
 68 83  1  0  0  0
 71 73  2  0  0  0
 71 74  1  0  0  0
 71145  1  0  0  0
 72 75  2  0  0  0
 72 76  1  0  0  0
 72146  1  0  0  0
 73 75  1  0  0  0
 73 77  1  0  0  0
 74 76  2  0  0  0
 74 78  1  0  0  0
 75 79  1  0  0  0
 76 85  1  0  0  0
 77147  1  0  0  0
 77148  1  0  0  0
 77149  1  0  0  0
 78 80  1  0  0  0
 78150  1  0  0  0
 78151  1  0  0  0
 79 81  1  0  0  0
 79152  1  0  0  0
 79153  1  0  0  0
 80 82  1  0  0  0
 80154  1  0  0  0
 80155  1  0  0  0
 81 83  1  0  0  0
 81156  1  0  0  0
 81157  1  0  0  0
 82 84  1  0  0  0
 82158  1  0  0  0
 82159  1  0  0  0
 83160  1  0  0  0
 83161  1  0  0  0
 84162  1  0  0  0
M  ISO  4   1 100  68 101  83 101  84 100
M  END
> <chiral flag>
0

> <version>
0

> <s_m_source_file>
/data/baiqing/PycharmProjects/Reinvent-master-3.2/result/LINK_invent/BTK/process_docking_weight1_custom_sum_contain_oxygen_bond_distance_aromatic_linkinvent_7_9_3/rearranged_h_0027.sdf

> <i_m_source_file_index>
73

> <r_mmod_Potential_Energy-OPLS-2005>
-56.6947937011719

> <r_mmod_Stretch_Energy-OPLS-2005>
35.6417961120605

> <r_mmod_Bend_Energy-OPLS-2005>
104.854782104492

> <r_mmod_Torsional_Energy-OPLS-2005>
219.668334960938

> <r_mmod_Improper_Torsional_Energy-OPLS-2005>
1.89909958839417

> <r_mmod_Van_der_Waal_Energy-OPLS-2005>
153.690856933594

> <r_mmod_Electrostatic_Energy-OPLS-2005>
-378.458862304688

> <r_mmod_Solvation_Energy-OPLS-2005>
-202.39306640625

> <b_mmod_Minimization_Converged-OPLS-2005>
0

> <r_mmod_RMS_Derivative-OPLS-2005>
0.835932195186615

$$$$
73
                    3D
 Structure written by MMmdl.
156164  0  0  1  0            999 V2000
  -30.6386  -14.6702   20.4424 C   0  0  0  0  0  0
  -30.4253  -12.3957   19.4744 C   0  0  0  0  0  0
  -29.5080  -12.4942   18.2345 C   0  0  0  0  0  0
  -28.0309  -12.3395   18.6432 C   0  0  0  0  0  0
  -27.6480  -13.2280   19.8580 C   0  0  2  0  0  0
  -28.6918  -13.1310   20.9942 C   0  0  0  0  0  0
  -25.2521  -13.8198   20.5696 C   0  0  0  0  0  0
  -24.1811  -13.0440   20.9204 C   0  0  0  0  0  0
  -24.6401  -11.6921   20.8742 C   0  0  0  0  0  0
  -23.9079  -10.4287   21.0396 C   0  0  0  0  0  0
  -24.3626   -9.4194   21.9174 C   0  0  0  0  0  0
  -23.6289   -8.2232   22.0748 C   0  0  0  0  0  0
  -22.4269   -8.0280   21.3541 C   0  0  0  0  0  0
  -21.9905   -9.0261   20.4649 C   0  0  0  0  0  0
  -22.7245  -10.2133   20.3049 C   0  0  0  0  0  0
  -21.6852   -6.0723   22.5270 C   0  0  0  0  0  0
  -21.4033   -6.5635   23.8204 C   0  0  0  0  0  0
  -21.3661   -5.6790   24.9169 C   0  0  0  0  0  0
  -21.6036   -4.3052   24.7218 C   0  0  0  0  0  0
  -21.8828   -3.8137   23.4343 C   0  0  0  0  0  0
  -21.9193   -4.6952   22.3397 C   0  0  0  0  0  0
  -22.7821  -13.5216   21.1846 C   0  0  0  0  0  0
  -22.1657   -4.2144   21.0969 F   0  0  0  0  0  0
  -21.5612   -3.4535   25.7730 F   0  0  0  0  0  0
  -30.0062  -13.4515   20.4209 N   0  0  0  0  0  0
  -26.2967  -12.9408   20.3310 N   0  0  0  0  0  0
  -25.9334  -11.6553   20.5764 N   0  0  0  0  0  0
  -22.0467  -12.8232   22.0425 N   0  0  0  0  0  0
  -25.4173  -15.1922   20.4101 N   0  0  0  0  0  0
  -31.8088  -14.7716   20.0703 O   0  0  0  0  0  0
  -21.6640   -6.8871   21.4229 O   0  0  0  0  0  0
  -22.3505  -14.5506   20.6661 O   0  0  0  0  0  0
  -24.6269  -31.8574   23.2012 C   0  0  0  0  0  0
  -25.9105  -32.4765   23.8357 C   0  0  1  0  0  0
  -27.2218  -27.2922   20.1173 C   0  0  0  0  0  0
  -25.5899  -33.8564   24.2256 N   0  0  0  0  0  0
  -23.4229  -30.4834   21.5445 C   0  0  2  0  0  0
  -24.8703  -28.9387   20.1100 C   0  0  0  0  0  0
  -22.7491  -29.4603   22.4911 C   0  0  0  0  0  0
  -18.0287  -28.1366   22.8482 C   0  0  0  0  0  0
  -24.1486  -36.7292   23.2646 C   0  0  0  0  0  0
  -25.9701  -30.7797   21.3815 C   0  0  0  0  0  0
  -26.0424  -29.4078   20.7172 C   0  0  0  0  0  0
  -27.2197  -28.5972   20.7102 C   0  0  0  0  0  0
  -26.0256  -26.8910   19.4758 C   0  0  0  0  0  0
  -24.8645  -27.6862   19.4817 C   0  0  0  0  0  0
  -23.6414  -29.8238   20.1591 C   0  0  0  0  0  0
  -25.4110  -36.3069   24.0328 C   0  0  1  0  0  0
  -20.5892  -28.3674   23.1261 C   0  0  2  0  0  0
  -20.6760  -26.9387   22.5400 C   0  0  0  0  0  0
  -19.5738  -26.6361   21.5196 C   0  0  0  0  0  0
  -18.1925  -26.7907   22.1616 C   0  0  0  0  0  0
  -19.1539  -28.8833   23.2869 C   0  0  0  0  0  0
  -18.9471  -30.1437   23.8890 C   0  0  0  0  0  0
  -17.6469  -30.6570   24.0557 C   0  0  0  0  0  0
  -25.9051  -34.9443   23.5093 C   0  0  0  0  0  0
  -16.5361  -29.9071   23.6325 C   0  0  0  0  0  0
  -16.7272  -28.6482   23.0357 C   0  0  0  0  0  0
  -26.4474  -31.6592   25.0745 C   0  0  0  0  0  0
  -25.3706  -31.3774   26.1482 C   0  0  0  0  0  0
  -27.0344  -30.3006   24.6260 C   0  0  0  0  0  0
  -27.6016  -32.4360   25.7514 C   0  0  0  0  0  0
  -27.5576  -37.1799   24.8461 C   0  0  0  0  0  0
  -21.4204  -29.3026   22.3660 N   0  0  0  0  0  0
  -26.4283  -37.3764   23.9408 N   0  0  0  0  0  0
  -24.6923  -31.0574   22.0976 N   0  0  0  0  0  0
  -23.4212  -28.8122   23.2988 O   0  0  0  0  0  0
  -28.3241  -26.4114   20.1880 O   0  0  0  0  0  0
  -26.5644  -34.8908   22.4678 O   0  0  0  0  0  0
  -23.5428  -32.1386   23.7311 O   0  0  0  0  0  0
  -29.3890  -19.6930   20.0815 C   0  0  0  0  0  0
  -30.5098  -21.2061   21.6042 C   0  0  0  0  0  0
  -29.5677  -21.0412   20.5688 C   0  0  0  0  0  0
  -30.1019  -18.5441   20.5978 C   0  0  0  0  0  0
  -31.2371  -20.1106   22.1363 C   0  0  0  0  0  0
  -31.0266  -18.7910   21.6450 C   0  0  0  0  0  0
  -28.7693  -22.2865   19.9997 C   0  0  0  0  0  0
  -30.0136  -17.1229   19.8982 C   0  0  0  0  0  0
  -29.0953  -23.8056   20.4387 C   0  0  0  0  0  0
  -28.0976  -24.9556   19.9277 C   0  0  0  0  0  0
  -32.2842  -20.3678   23.2214 C   0  0  0  0  0  0
  -29.8619  -15.7931   20.6197 N   0  0  0  0  0  0
  -32.3546  -21.6581   23.5519 F   0  0  0  0  0  0
  -31.9953  -19.6848   24.3295 F   0  0  0  0  0  0
  -33.4926  -20.0025   22.7906 F   0  0  0  0  0  0
  -31.9554  -17.4804   22.2956 Cl  0  0  0  0  0  0
  -31.4712  -12.4882   19.1782 H   0  0  0  0  0  0
  -30.3364  -11.4138   19.9434 H   0  0  0  0  0  0
  -29.7751  -11.7236   17.5106 H   0  0  0  0  0  0
  -29.6595  -13.4509   17.7327 H   0  0  0  0  0  0
  -27.8662  -11.2884   18.8866 H   0  0  0  0  0  0
  -27.3800  -12.5571   17.7949 H   0  0  0  0  0  0
  -27.6534  -14.2566   19.4956 H   0  0  0  0  0  0
  -28.7024  -12.1285   21.4238 H   0  0  0  0  0  0
  -28.4410  -13.8101   21.8112 H   0  0  0  0  0  0
  -25.2770   -9.5662   22.4760 H   0  0  0  0  0  0
  -23.9984   -7.4625   22.7481 H   0  0  0  0  0  0
  -21.0825   -8.8790   19.8971 H   0  0  0  0  0  0
  -22.3699  -10.9669   19.6163 H   0  0  0  0  0  0
  -21.2054   -7.6152   23.9711 H   0  0  0  0  0  0
  -21.1462   -6.0515   25.9070 H   0  0  0  0  0  0
  -22.0606   -2.7598   23.2839 H   0  0  0  0  0  0
  -22.4082  -11.9918   22.4858 H   0  0  0  0  0  0
  -21.1073  -13.1242   22.2614 H   0  0  0  0  0  0
  -24.6434  -15.8383   20.5199 H   0  0  0  0  0  0
  -26.2574  -15.6364   20.0615 H   0  0  0  0  0  0
  -26.7179  -32.5423   23.1115 H   0  0  0  0  0  0
  -25.0007  -33.9706   25.0371 H   0  0  0  0  0  0
  -22.7172  -31.3047   21.4018 H   0  0  0  0  0  0
  -23.3735  -35.9637   23.3305 H   0  0  0  0  0  0
  -24.3586  -36.8924   22.2065 H   0  0  0  0  0  0
  -23.7254  -37.6495   23.6684 H   0  0  0  0  0  0
  -26.1191  -31.5474   20.6208 H   0  0  0  0  0  0
  -26.8424  -30.8140   22.0228 H   0  0  0  0  0  0
  -28.1171  -28.9519   21.1977 H   0  0  0  0  0  0
  -25.9514  -25.9392   18.9731 H   0  0  0  0  0  0
  -23.9665  -27.3197   19.0020 H   0  0  0  0  0  0
  -23.7686  -30.6031   19.4068 H   0  0  0  0  0  0
  -22.7605  -29.2601   19.8481 H   0  0  0  0  0  0
  -25.1287  -36.1922   25.0820 H   0  0  0  0  0  0
  -20.9991  -28.3249   24.1376 H   0  0  0  0  0  0
  -20.5610  -26.2298   23.3614 H   0  0  0  0  0  0
  -21.6641  -26.7379   22.1228 H   0  0  0  0  0  0
  -19.6897  -25.6264   21.1235 H   0  0  0  0  0  0
  -19.6672  -27.3164   20.6722 H   0  0  0  0  0  0
  -17.4189  -26.6654   21.4022 H   0  0  0  0  0  0
  -18.0330  -26.0039   22.9006 H   0  0  0  0  0  0
  -19.7955  -30.7242   24.2265 H   0  0  0  0  0  0
  -17.5033  -31.6254   24.5150 H   0  0  0  0  0  0
  -15.5361  -30.2979   23.7631 H   0  0  0  0  0  0
  -15.8679  -28.0791   22.7091 H   0  0  0  0  0  0
  -24.5816  -30.7190   25.7825 H   0  0  0  0  0  0
  -24.8977  -32.2974   26.4940 H   0  0  0  0  0  0
  -25.8010  -30.8917   27.0250 H   0  0  0  0  0  0
  -26.2965  -29.6752   24.1227 H   0  0  0  0  0  0
  -27.3957  -29.7266   25.4804 H   0  0  0  0  0  0
  -27.8857  -30.4272   23.9567 H   0  0  0  0  0  0
  -27.2575  -33.3634   26.2109 H   0  0  0  0  0  0
  -28.3802  -32.6985   25.0337 H   0  0  0  0  0  0
  -28.0717  -31.8506   26.5429 H   0  0  0  0  0  0
  -28.2580  -38.0108   24.7502 H   0  0  0  0  0  0
  -28.1080  -36.2637   24.6275 H   0  0  0  0  0  0
  -27.2307  -37.1437   25.8869 H   0  0  0  0  0  0
  -20.9372  -29.8822   21.6939 H   0  0  0  0  0  0
  -26.0158  -38.2833   24.1414 H   0  0  0  0  0  0
  -28.7026  -19.5383   19.2597 H   0  0  0  0  0  0
  -30.6909  -22.1944   21.9983 H   0  0  0  0  0  0
  -27.7182  -22.0975   20.2194 H   0  0  0  0  0  0
  -28.8392  -22.2334   18.9127 H   0  0  0  0  0  0
  -30.8932  -17.0608   19.2547 H   0  0  0  0  0  0
  -29.1797  -17.1705   19.1974 H   0  0  0  0  0  0
  -30.1079  -24.0516   20.1200 H   0  0  0  0  0  0
  -29.1029  -23.8527   21.5271 H   0  0  0  0  0  0
  -27.1296  -24.6844   20.3496 H   0  0  0  0  0  0
  -28.0014  -24.8443   18.8476 H   0  0  0  0  0  0
  -28.9367  -15.6081   20.9754 H   0  0  0  0  0  0
  1 25  1  0  0  0
  1 30  2  0  0  0
  1 82  1  0  0  0
  2  3  1  0  0  0
  2 25  1  0  0  0
  2 87  1  0  0  0
  2 88  1  0  0  0
  3  4  1  0  0  0
  3 89  1  0  0  0
  3 90  1  0  0  0
  4  5  1  0  0  0
  4 91  1  0  0  0
  4 92  1  0  0  0
  5  6  1  0  0  0
  5 26  1  0  0  0
  5 93  1  0  0  0
  6 25  1  0  0  0
  6 94  1  0  0  0
  6 95  1  0  0  0
  7  8  2  0  0  0
  7 26  1  0  0  0
  7 29  1  0  0  0
  8  9  1  0  0  0
  8 22  1  0  0  0
  9 10  1  0  0  0
  9 27  2  0  0  0
 10 11  2  0  0  0
 10 15  1  0  0  0
 11 12  1  0  0  0
 11 96  1  0  0  0
 12 13  2  0  0  0
 12 97  1  0  0  0
 13 14  1  0  0  0
 13 31  1  0  0  0
 14 15  2  0  0  0
 14 98  1  0  0  0
 15 99  1  0  0  0
 16 17  2  0  0  0
 16 21  1  0  0  0
 16 31  1  0  0  0
 17 18  1  0  0  0
 17100  1  0  0  0
 18 19  2  0  0  0
 18101  1  0  0  0
 19 20  1  0  0  0
 19 24  1  0  0  0
 20 21  2  0  0  0
 20102  1  0  0  0
 21 23  1  0  0  0
 22 28  1  0  0  0
 22 32  2  0  0  0
 26 27  1  0  0  0
 28103  1  0  0  0
 28104  1  0  0  0
 29105  1  0  0  0
 29106  1  0  0  0
 33 34  1  0  0  0
 33 66  1  0  0  0
 33 70  2  0  0  0
 34 36  1  0  0  0
 34 59  1  0  0  0
 34107  1  0  0  0
 35 44  2  0  0  0
 35 45  1  0  0  0
 35 68  1  0  0  0
 36 56  1  0  0  0
 36108  1  0  0  0
 37 39  1  0  0  0
 37 47  1  0  0  0
 37 66  1  0  0  0
 37109  1  0  0  0
 38 43  2  0  0  0
 38 46  1  0  0  0
 38 47  1  0  0  0
 39 64  1  0  0  0
 39 67  2  0  0  0
 40 52  1  0  0  0
 40 53  2  0  0  0
 40 58  1  0  0  0
 41110  1  0  0  0
 41111  1  0  0  0
 41112  1  0  0  0
 41 48  1  0  0  0
 42 43  1  0  0  0
 42 66  1  0  0  0
 42113  1  0  0  0
 42114  1  0  0  0
 43 44  1  0  0  0
 44115  1  0  0  0
 45 46  2  0  0  0
 45116  1  0  0  0
 46117  1  0  0  0
 47118  1  0  0  0
 47119  1  0  0  0
 48 56  1  0  0  0
 48 65  1  0  0  0
 48120  1  0  0  0
 49 50  1  0  0  0
 49 53  1  0  0  0
 49 64  1  0  0  0
 49121  1  0  0  0
 50 51  1  0  0  0
 50122  1  0  0  0
 50123  1  0  0  0
 51 52  1  0  0  0
 51124  1  0  0  0
 51125  1  0  0  0
 52126  1  0  0  0
 52127  1  0  0  0
 53 54  1  0  0  0
 54 55  2  0  0  0
 54128  1  0  0  0
 55 57  1  0  0  0
 55129  1  0  0  0
 56 69  2  0  0  0
 57 58  2  0  0  0
 57130  1  0  0  0
 58131  1  0  0  0
 59 60  1  0  0  0
 59 61  1  0  0  0
 59 62  1  0  0  0
 60132  1  0  0  0
 60133  1  0  0  0
 60134  1  0  0  0
 61135  1  0  0  0
 61136  1  0  0  0
 61137  1  0  0  0
 62138  1  0  0  0
 62139  1  0  0  0
 62140  1  0  0  0
 63 65  1  0  0  0
 63141  1  0  0  0
 63142  1  0  0  0
 63143  1  0  0  0
 64144  1  0  0  0
 65145  1  0  0  0
 68 80  1  0  0  0
 71 73  2  0  0  0
 71 74  1  0  0  0
 71146  1  0  0  0
 72 73  1  0  0  0
 72 75  2  0  0  0
 72147  1  0  0  0
 73 77  1  0  0  0
 74 76  2  0  0  0
 74 78  1  0  0  0
 75 76  1  0  0  0
 75 81  1  0  0  0
 76 86  1  0  0  0
 77 79  1  0  0  0
 77148  1  0  0  0
 77149  1  0  0  0
 78 82  1  0  0  0
 78150  1  0  0  0
 78151  1  0  0  0
 79 80  1  0  0  0
 79152  1  0  0  0
 79153  1  0  0  0
 80154  1  0  0  0
 80155  1  0  0  0
 81 83  1  0  0  0
 81 84  1  0  0  0
 81 85  1  0  0  0
 82156  1  0  0  0
M  ISO  4   1 100  68 101  80 101  82 100
M  END
> <chiral flag>
0

> <version>
0

> <s_m_source_file>
/data/baiqing/PycharmProjects/Reinvent-master-3.2/result/LINK_invent/BTK/process_docking_weight1_custom_sum_contain_oxygen_bond_distance_aromatic_linkinvent_7_9_3/rearranged_h_0027.sdf

> <i_m_source_file_index>
74

> <r_mmod_Potential_Energy-OPLS-2005>
129.465347290039

> <r_mmod_Stretch_Energy-OPLS-2005>
102.830863952637

> <r_mmod_Bend_Energy-OPLS-2005>
150.219528198242

> <r_mmod_Torsional_Energy-OPLS-2005>
211.841247558594

> <r_mmod_Improper_Torsional_Energy-OPLS-2005>
8.99851608276367

> <r_mmod_Van_der_Waal_Energy-OPLS-2005>
148.212448120117

> <r_mmod_Electrostatic_Energy-OPLS-2005>
-342.447601318359

> <r_mmod_Solvation_Energy-OPLS-2005>
-213.273406982422

> <b_mmod_Minimization_Converged-OPLS-2005>
0

> <r_mmod_RMS_Derivative-OPLS-2005>
2.05854725837708

$$$$
74
                    3D
 Structure written by MMmdl.
177186  0  0  1  0            999 V2000
  -30.8049  -14.3285   20.7324 C   0  0  0  0  0  0
  -30.4131  -12.2985   19.3860 C   0  0  0  0  0  0
  -29.4767  -12.5316   18.1882 C   0  0  0  0  0  0
  -28.0059  -12.3758   18.6122 C   0  0  0  0  0  0
  -27.6652  -13.2044   19.8779 C   0  0  2  0  0  0
  -28.7029  -12.9590   20.9949 C   0  0  0  0  0  0
  -25.2599  -13.8164   20.5677 C   0  0  0  0  0  0
  -24.1843  -13.0440   20.9166 C   0  0  0  0  0  0
  -24.6394  -11.6909   20.8734 C   0  0  0  0  0  0
  -23.9065  -10.4296   21.0402 C   0  0  0  0  0  0
  -24.3615   -9.4212   21.9182 C   0  0  0  0  0  0
  -23.6288   -8.2249   22.0759 C   0  0  0  0  0  0
  -22.4272   -8.0284   21.3546 C   0  0  0  0  0  0
  -21.9908   -9.0260   20.4646 C   0  0  0  0  0  0
  -22.7240  -10.2136   20.3050 C   0  0  0  0  0  0
  -21.6849   -6.0737   22.5279 C   0  0  0  0  0  0
  -21.4016   -6.5641   23.8214 C   0  0  0  0  0  0
  -21.3661   -5.6791   24.9180 C   0  0  0  0  0  0
  -21.6038   -4.3052   24.7225 C   0  0  0  0  0  0
  -21.8821   -3.8144   23.4347 C   0  0  0  0  0  0
  -21.9196   -4.6965   22.3401 C   0  0  0  0  0  0
  -22.7866  -13.5240   21.1831 C   0  0  0  0  0  0
  -22.1659   -4.2150   21.0978 F   0  0  0  0  0  0
  -21.5631   -3.4535   25.7739 F   0  0  0  0  0  0
  -30.0499  -13.2355   20.4589 N   0  0  0  0  0  0
  -26.3041  -12.9332   20.3383 N   0  0  0  0  0  0
  -25.9320  -11.6489   20.5760 N   0  0  0  0  0  0
  -22.0505  -12.8232   22.0387 N   0  0  0  0  0  0
  -25.4327  -15.1880   20.4092 N   0  0  0  0  0  0
  -31.7781  -14.6701   20.0515 O   0  0  0  0  0  0
  -21.6639   -6.8882   21.4239 O   0  0  0  0  0  0
  -22.3551  -14.5548   20.6687 O   0  0  0  0  0  0
  -24.6105  -31.8706   23.2118 C   0  0  0  0  0  0
  -25.9026  -32.4832   23.8379 C   0  0  1  0  0  0
  -27.2325  -27.4675   20.0804 C   0  0  0  0  0  0
  -25.5913  -33.8623   24.2323 N   0  0  0  0  0  0
  -23.3935  -30.4949   21.5507 C   0  0  2  0  0  0
  -24.8354  -28.9602   20.1154 C   0  0  0  0  0  0
  -22.7388  -29.4662   22.4990 C   0  0  0  0  0  0
  -18.0273  -28.1341   22.8502 C   0  0  0  0  0  0
  -24.1489  -36.7314   23.2632 C   0  0  0  0  0  0
  -25.9173  -30.8447   21.3588 C   0  0  0  0  0  0
  -25.9924  -29.4802   20.7054 C   0  0  0  0  0  0
  -27.1915  -28.7391   20.6872 C   0  0  0  0  0  0
  -26.0575  -26.9506   19.4869 C   0  0  0  0  0  0
  -24.8605  -27.6917   19.5079 C   0  0  0  0  0  0
  -23.5964  -29.8244   20.1657 C   0  0  0  0  0  0
  -25.4112  -36.3122   24.0331 C   0  0  1  0  0  0
  -20.5853  -28.3639   23.1310 C   0  0  2  0  0  0
  -20.6750  -26.9376   22.5411 C   0  0  0  0  0  0
  -19.5731  -26.6356   21.5206 C   0  0  0  0  0  0
  -18.1907  -26.7899   22.1614 C   0  0  0  0  0  0
  -19.1516  -28.8807   23.2915 C   0  0  0  0  0  0
  -18.9451  -30.1407   23.8938 C   0  0  0  0  0  0
  -17.6454  -30.6573   24.0538 C   0  0  0  0  0  0
  -25.9029  -34.9485   23.5125 C   0  0  0  0  0  0
  -16.5352  -29.9070   23.6296 C   0  0  0  0  0  0
  -16.7263  -28.6468   23.0361 C   0  0  0  0  0  0
  -26.4479  -31.6603   25.0694 C   0  0  0  0  0  0
  -25.3765  -31.3686   26.1464 C   0  0  0  0  0  0
  -27.0308  -30.3055   24.6039 C   0  0  0  0  0  0
  -27.6030  -32.4335   25.7493 C   0  0  0  0  0  0
  -27.5588  -37.1829   24.8467 C   0  0  0  0  0  0
  -21.4119  -29.3035   22.3744 N   0  0  0  0  0  0
  -26.4306  -37.3800   23.9391 N   0  0  0  0  0  0
  -24.6583  -31.0842   22.0993 N   0  0  0  0  0  0
  -23.4198  -28.8183   23.2982 O   0  0  0  0  0  0
  -28.4372  -26.8068   20.0886 O   0  0  0  0  0  0
  -26.5572  -34.8946   22.4682 O   0  0  0  0  0  0
  -23.5317  -32.1440   23.7559 O   0  0  0  0  0  0
  -29.9591  -19.2920   23.7083 C   0  0  0  0  0  0
  -30.4884  -18.2674   22.8620 C   0  0  0  0  0  0
  -30.6668  -16.9604   23.3928 C   0  0  0  0  0  0
  -29.5676  -18.9140   25.0239 C   0  0  0  0  0  0
  -30.2235  -16.7098   24.7084 C   0  0  0  0  0  0
  -28.3905  -21.1612   22.8495 C   0  0  0  0  0  0
  -30.5591  -21.8154   24.0440 C   0  0  0  0  0  0
  -28.3586  -22.5413   22.1661 C   0  0  0  0  0  0
  -30.5311  -23.1801   23.3284 C   0  0  0  0  0  0
  -29.8368  -20.7458   23.1966 C   0  0  1  0  0  0
  -29.0974  -23.6549   22.9704 C   0  0  2  0  0  0
  -30.8766  -18.5552   21.4094 C   0  0  0  0  0  0
  -29.0043  -19.8632   26.0704 C   0  0  0  0  0  0
  -28.3063  -23.9602   24.2635 C   0  0  0  0  0  0
  -31.3914  -15.8552   22.6103 C   0  0  0  0  0  0
  -29.6180  -24.9102   20.7905 C   0  0  0  0  0  0
  -28.4838  -25.3995   19.8812 C   0  0  0  0  0  0
  -29.6836  -17.6580   25.4884 N   0  0  0  0  0  0
  -30.5110  -14.9333   21.8923 N   0  0  0  0  0  0
  -29.1716  -24.9333   22.2091 N   0  3  0  0  0  0
  -30.3435  -15.1326   25.4042 Cl  0  0  0  0  0  0
  -31.4549  -12.4040   19.0755 H   0  0  0  0  0  0
  -30.3180  -11.2744   19.7503 H   0  0  0  0  0  0
  -29.7100  -11.8287   17.3869 H   0  0  0  0  0  0
  -29.6402  -13.5300   17.7791 H   0  0  0  0  0  0
  -27.8233  -11.3174   18.8018 H   0  0  0  0  0  0
  -27.3460  -12.6564   17.7906 H   0  0  0  0  0  0
  -27.7208  -14.2566   19.5970 H   0  0  0  0  0  0
  -28.6614  -11.9225   21.3325 H   0  0  0  0  0  0
  -28.4447  -13.5604   21.8671 H   0  0  0  0  0  0
  -25.2758   -9.5691   22.4759 H   0  0  0  0  0  0
  -23.9998   -7.4643   22.7480 H   0  0  0  0  0  0
  -21.0843   -8.8777   19.8947 H   0  0  0  0  0  0
  -22.3700  -10.9675   19.6160 H   0  0  0  0  0  0
  -21.2007   -7.6151   23.9721 H   0  0  0  0  0  0
  -21.1478   -6.0520   25.9083 H   0  0  0  0  0  0
  -22.0600   -2.7609   23.2847 H   0  0  0  0  0  0
  -22.4100  -11.9875   22.4757 H   0  0  0  0  0  0
  -21.1125  -13.1264   22.2593 H   0  0  0  0  0  0
  -24.6710  -15.8485   20.5247 H   0  0  0  0  0  0
  -26.2955  -15.6271   20.1111 H   0  0  0  0  0  0
  -26.7079  -32.5558   23.1119 H   0  0  0  0  0  0
  -25.0159  -33.9772   25.0541 H   0  0  0  0  0  0
  -22.6811  -31.3111   21.4137 H   0  0  0  0  0  0
  -23.3766  -35.9630   23.3314 H   0  0  0  0  0  0
  -24.3596  -36.8908   22.2041 H   0  0  0  0  0  0
  -23.7234  -37.6519   23.6648 H   0  0  0  0  0  0
  -26.0273  -31.6154   20.5952 H   0  0  0  0  0  0
  -26.8054  -30.8937   21.9777 H   0  0  0  0  0  0
  -28.0892  -29.1409   21.1372 H   0  0  0  0  0  0
  -26.0463  -25.9924   18.9886 H   0  0  0  0  0  0
  -23.9701  -27.2845   19.0492 H   0  0  0  0  0  0
  -23.7019  -30.5981   19.4042 H   0  0  0  0  0  0
  -22.7188  -29.2419   19.8755 H   0  0  0  0  0  0
  -25.1287  -36.1999   25.0819 H   0  0  0  0  0  0
  -20.9974  -28.3239   24.1413 H   0  0  0  0  0  0
  -20.5618  -26.2261   23.3597 H   0  0  0  0  0  0
  -21.6613  -26.7384   22.1208 H   0  0  0  0  0  0
  -19.6879  -25.6280   21.1204 H   0  0  0  0  0  0
  -19.6654  -27.3174   20.6737 H   0  0  0  0  0  0
  -17.4160  -26.6662   21.4027 H   0  0  0  0  0  0
  -18.0301  -26.0017   22.8977 H   0  0  0  0  0  0
  -19.7940  -30.7180   24.2350 H   0  0  0  0  0  0
  -17.5025  -31.6253   24.5130 H   0  0  0  0  0  0
  -15.5361  -30.2975   23.7588 H   0  0  0  0  0  0
  -15.8663  -28.0772   22.7082 H   0  0  0  0  0  0
  -24.5928  -30.7027   25.7822 H   0  0  0  0  0  0
  -24.8967  -32.2826   26.4969 H   0  0  0  0  0  0
  -25.8148  -30.8838   27.0194 H   0  0  0  0  0  0
  -26.2826  -29.6831   24.1105 H   0  0  0  0  0  0
  -27.4100  -29.7279   25.4477 H   0  0  0  0  0  0
  -27.8659  -30.4364   23.9147 H   0  0  0  0  0  0
  -27.2606  -33.3606   26.2112 H   0  0  0  0  0  0
  -28.3865  -32.6953   25.0360 H   0  0  0  0  0  0
  -28.0688  -31.8436   26.5405 H   0  0  0  0  0  0
  -28.2611  -38.0121   24.7535 H   0  0  0  0  0  0
  -28.1088  -36.2668   24.6294 H   0  0  0  0  0  0
  -27.2311  -37.1464   25.8869 H   0  0  0  0  0  0
  -20.9270  -29.8840   21.7043 H   0  0  0  0  0  0
  -26.0221  -38.2886   24.1393 H   0  0  0  0  0  0
  -27.9622  -20.4282   22.1648 H   0  0  0  0  0  0
  -27.7352  -21.1684   23.7165 H   0  0  0  0  0  0
  -30.1301  -21.9319   25.0341 H   0  0  0  0  0  0
  -31.5969  -21.5194   24.2025 H   0  0  0  0  0  0
  -27.3264  -22.8351   21.9741 H   0  0  0  0  0  0
  -28.8054  -22.3892   21.1869 H   0  0  0  0  0  0
  -31.1320  -23.1034   22.4224 H   0  0  0  0  0  0
  -31.0308  -23.9219   23.9533 H   0  0  0  0  0  0
  -30.3817  -20.8089   22.2598 H   0  0  0  0  0  0
  -30.1360  -19.1828   20.9140 H   0  0  0  0  0  0
  -30.9253  -17.6612   20.7908 H   0  0  0  0  0  0
  -31.8465  -19.0513   21.3643 H   0  0  0  0  0  0
  -28.3815  -20.6475   25.6537 H   0  0  0  0  0  0
  -29.8164  -20.3248   26.6329 H   0  0  0  0  0  0
  -28.3801  -19.3278   26.7866 H   0  0  0  0  0  0
  -28.1922  -23.0881   24.9048 H   0  0  0  0  0  0
  -27.2990  -24.3138   24.0440 H   0  0  0  0  0  0
  -28.7952  -24.7273   24.8648 H   0  0  0  0  0  0
  -31.9875  -15.2606   23.3035 H   0  0  0  0  0  0
  -32.1447  -16.2923   21.9543 H   0  0  0  0  0  0
  -30.4755  -25.5758   20.6813 H   0  0  0  0  0  0
  -29.9812  -23.9390   20.4659 H   0  0  0  0  0  0
  -27.5610  -24.8760   20.1391 H   0  0  0  0  0  0
  -28.7016  -25.1962   18.8324 H   0  0  0  0  0  0
  -29.7219  -14.5563   22.3943 H   0  0  0  0  0  0
  -29.7699  -25.5716   22.7124 H   0  0  0  0  0  0
  -28.2565  -25.3578   22.2162 H   0  0  0  0  0  0
  1 25  1  0  0  0
  1 30  2  0  0  0
  1 89  1  0  0  0
  2  3  1  0  0  0
  2 25  1  0  0  0
  2 92  1  0  0  0
  2 93  1  0  0  0
  3  4  1  0  0  0
  3 94  1  0  0  0
  3 95  1  0  0  0
  4  5  1  0  0  0
  4 96  1  0  0  0
  4 97  1  0  0  0
  5  6  1  0  0  0
  5 26  1  0  0  0
  5 98  1  0  0  0
  6 25  1  0  0  0
  6 99  1  0  0  0
  6100  1  0  0  0
  7  8  2  0  0  0
  7 26  1  0  0  0
  7 29  1  0  0  0
  8  9  1  0  0  0
  8 22  1  0  0  0
  9 10  1  0  0  0
  9 27  2  0  0  0
 10 11  2  0  0  0
 10 15  1  0  0  0
 11 12  1  0  0  0
 11101  1  0  0  0
 12 13  2  0  0  0
 12102  1  0  0  0
 13 14  1  0  0  0
 13 31  1  0  0  0
 14 15  2  0  0  0
 14103  1  0  0  0
 15104  1  0  0  0
 16 17  2  0  0  0
 16 21  1  0  0  0
 16 31  1  0  0  0
 17 18  1  0  0  0
 17105  1  0  0  0
 18 19  2  0  0  0
 18106  1  0  0  0
 19 20  1  0  0  0
 19 24  1  0  0  0
 20 21  2  0  0  0
 20107  1  0  0  0
 21 23  1  0  0  0
 22 28  1  0  0  0
 22 32  2  0  0  0
 26 27  1  0  0  0
 28108  1  0  0  0
 28109  1  0  0  0
 29110  1  0  0  0
 29111  1  0  0  0
 33 34  1  0  0  0
 33 66  1  0  0  0
 33 70  2  0  0  0
 34 36  1  0  0  0
 34 59  1  0  0  0
 34112  1  0  0  0
 35 44  2  0  0  0
 35 45  1  0  0  0
 35 68  1  0  0  0
 36 56  1  0  0  0
 36113  1  0  0  0
 37 39  1  0  0  0
 37 47  1  0  0  0
 37 66  1  0  0  0
 37114  1  0  0  0
 38 43  2  0  0  0
 38 46  1  0  0  0
 38 47  1  0  0  0
 39 64  1  0  0  0
 39 67  2  0  0  0
 40 52  1  0  0  0
 40 53  2  0  0  0
 40 58  1  0  0  0
 41115  1  0  0  0
 41116  1  0  0  0
 41117  1  0  0  0
 41 48  1  0  0  0
 42 43  1  0  0  0
 42 66  1  0  0  0
 42118  1  0  0  0
 42119  1  0  0  0
 43 44  1  0  0  0
 44120  1  0  0  0
 45 46  2  0  0  0
 45121  1  0  0  0
 46122  1  0  0  0
 47123  1  0  0  0
 47124  1  0  0  0
 48 56  1  0  0  0
 48 65  1  0  0  0
 48125  1  0  0  0
 49 50  1  0  0  0
 49 53  1  0  0  0
 49 64  1  0  0  0
 49126  1  0  0  0
 50 51  1  0  0  0
 50127  1  0  0  0
 50128  1  0  0  0
 51 52  1  0  0  0
 51129  1  0  0  0
 51130  1  0  0  0
 52131  1  0  0  0
 52132  1  0  0  0
 53 54  1  0  0  0
 54 55  2  0  0  0
 54133  1  0  0  0
 55 57  1  0  0  0
 55134  1  0  0  0
 56 69  2  0  0  0
 57 58  2  0  0  0
 57135  1  0  0  0
 58136  1  0  0  0
 59 60  1  0  0  0
 59 61  1  0  0  0
 59 62  1  0  0  0
 60137  1  0  0  0
 60138  1  0  0  0
 60139  1  0  0  0
 61140  1  0  0  0
 61141  1  0  0  0
 61142  1  0  0  0
 62143  1  0  0  0
 62144  1  0  0  0
 62145  1  0  0  0
 63 65  1  0  0  0
 63146  1  0  0  0
 63147  1  0  0  0
 63148  1  0  0  0
 64149  1  0  0  0
 65150  1  0  0  0
 68 87  1  0  0  0
 71 72  2  0  0  0
 71 74  1  0  0  0
 71 80  1  0  0  0
 72 73  1  0  0  0
 72 82  1  0  0  0
 73 75  2  0  0  0
 73 85  1  0  0  0
 74 83  1  0  0  0
 74 88  2  0  0  0
 75 88  1  0  0  0
 75 91  1  0  0  0
 76 78  1  0  0  0
 76 80  1  0  0  0
 76151  1  0  0  0
 76152  1  0  0  0
 77 79  1  0  0  0
 77 80  1  0  0  0
 77153  1  0  0  0
 77154  1  0  0  0
 78 81  1  0  0  0
 78155  1  0  0  0
 78156  1  0  0  0
 79 81  1  0  0  0
 79157  1  0  0  0
 79158  1  0  0  0
 80159  1  0  0  0
 81 84  1  0  0  0
 81 90  1  0  0  0
 82160  1  0  0  0
 82161  1  0  0  0
 82162  1  0  0  0
 83163  1  0  0  0
 83164  1  0  0  0
 83165  1  0  0  0
 84166  1  0  0  0
 84167  1  0  0  0
 84168  1  0  0  0
 85 89  1  0  0  0
 85169  1  0  0  0
 85170  1  0  0  0
 86 87  1  0  0  0
 86 90  1  0  0  0
 86171  1  0  0  0
 86172  1  0  0  0
 87173  1  0  0  0
 87174  1  0  0  0
 89175  1  0  0  0
 90176  1  0  0  0
 90177  1  0  0  0
M  CHG  1  90   1
M  ISO  4   1 100  68 101  87 101  89 100
M  END
> <chiral flag>
0

> <version>
0

> <s_m_source_file>
/data/baiqing/PycharmProjects/Reinvent-master-3.2/result/LINK_invent/BTK/process_docking_weight1_custom_sum_contain_oxygen_bond_distance_aromatic_linkinvent_7_9_3/rearranged_h_0027.sdf

> <i_m_source_file_index>
75

> <r_mmod_Potential_Energy-OPLS-2005>
-263.247314453125

> <r_mmod_Stretch_Energy-OPLS-2005>
40.3064231872559

> <r_mmod_Bend_Energy-OPLS-2005>
124.417808532715

> <r_mmod_Torsional_Energy-OPLS-2005>
252.102111816406

> <r_mmod_Improper_Torsional_Energy-OPLS-2005>
3.46695041656494

> <r_mmod_Van_der_Waal_Energy-OPLS-2005>
177.813095092773

> <r_mmod_Electrostatic_Energy-OPLS-2005>
-433.535278320312

> <r_mmod_Solvation_Energy-OPLS-2005>
-436.225280761719

> <b_mmod_Minimization_Converged-OPLS-2005>
0

> <r_mmod_RMS_Derivative-OPLS-2005>
2.37097191810608

$$$$
75
                    3D
 Structure written by MMmdl.
162170  0  0  1  0            999 V2000
  -30.7328  -14.4112   20.6615 C   0  0  0  0  0  0
  -30.4273  -12.3063   19.3984 C   0  0  0  0  0  0
  -29.4895  -12.5313   18.1958 C   0  0  0  0  0  0
  -28.0118  -12.3876   18.6105 C   0  0  0  0  0  0
  -27.6673  -13.2039   19.8842 C   0  0  2  0  0  0
  -28.7082  -12.9367   20.9940 C   0  0  0  0  0  0
  -25.2580  -13.8136   20.5635 C   0  0  0  0  0  0
  -24.1831  -13.0421   20.9138 C   0  0  0  0  0  0
  -24.6394  -11.6890   20.8718 C   0  0  0  0  0  0
  -23.9060  -10.4281   21.0398 C   0  0  0  0  0  0
  -24.3612   -9.4201   21.9182 C   0  0  0  0  0  0
  -23.6287   -8.2237   22.0755 C   0  0  0  0  0  0
  -22.4267   -8.0275   21.3541 C   0  0  0  0  0  0
  -21.9905   -9.0245   20.4646 C   0  0  0  0  0  0
  -22.7234  -10.2127   20.3047 C   0  0  0  0  0  0
  -21.6851   -6.0729   22.5278 C   0  0  0  0  0  0
  -21.4011   -6.5634   23.8209 C   0  0  0  0  0  0
  -21.3661   -5.6788   24.9174 C   0  0  0  0  0  0
  -21.6045   -4.3050   24.7227 C   0  0  0  0  0  0
  -21.8821   -3.8143   23.4346 C   0  0  0  0  0  0
  -21.9193   -4.6955   22.3400 C   0  0  0  0  0  0
  -22.7858  -13.5225   21.1818 C   0  0  0  0  0  0
  -22.1663   -4.2140   21.0980 F   0  0  0  0  0  0
  -21.5631   -3.4536   25.7741 F   0  0  0  0  0  0
  -30.0466  -13.2546   20.4561 N   0  0  0  0  0  0
  -26.3051  -12.9321   20.3408 N   0  0  0  0  0  0
  -25.9330  -11.6478   20.5782 N   0  0  0  0  0  0
  -22.0507  -12.8216   22.0387 N   0  0  0  0  0  0
  -25.4253  -15.1843   20.4000 N   0  0  0  0  0  0
  -31.7984  -14.6692   20.0921 O   0  0  0  0  0  0
  -21.6639   -6.8872   21.4236 O   0  0  0  0  0  0
  -22.3535  -14.5535   20.6684 O   0  0  0  0  0  0
  -24.6136  -31.8699   23.2112 C   0  0  0  0  0  0
  -25.9031  -32.4830   23.8402 C   0  0  1  0  0  0
  -27.2427  -27.4519   20.0953 C   0  0  0  0  0  0
  -25.5887  -33.8627   24.2329 N   0  0  0  0  0  0
  -23.4012  -30.4923   21.5507 C   0  0  2  0  0  0
  -24.8505  -28.9508   20.1260 C   0  0  0  0  0  0
  -22.7395  -29.4679   22.5005 C   0  0  0  0  0  0
  -18.0270  -28.1390   22.8505 C   0  0  0  0  0  0
  -24.1473  -36.7312   23.2638 C   0  0  0  0  0  0
  -25.9283  -30.8352   21.3649 C   0  0  0  0  0  0
  -26.0075  -29.4635   20.7290 C   0  0  0  0  0  0
  -27.2080  -28.7163   20.7248 C   0  0  0  0  0  0
  -26.0743  -26.9488   19.4908 C   0  0  0  0  0  0
  -24.8751  -27.6860   19.5120 C   0  0  0  0  0  0
  -23.6124  -29.8187   20.1681 C   0  0  0  0  0  0
  -25.4093  -36.3112   24.0342 C   0  0  1  0  0  0
  -20.5859  -28.3666   23.1323 C   0  0  2  0  0  0
  -20.6763  -26.9406   22.5420 C   0  0  0  0  0  0
  -19.5742  -26.6400   21.5219 C   0  0  0  0  0  0
  -18.1917  -26.7944   22.1625 C   0  0  0  0  0  0
  -19.1521  -28.8844   23.2910 C   0  0  0  0  0  0
  -18.9460  -30.1455   23.8914 C   0  0  0  0  0  0
  -17.6465  -30.6599   24.0582 C   0  0  0  0  0  0
  -25.9030  -34.9479   23.5136 C   0  0  0  0  0  0
  -16.5353  -29.9109   23.6337 C   0  0  0  0  0  0
  -16.7261  -28.6525   23.0355 C   0  0  0  0  0  0
  -26.4466  -31.6604   25.0719 C   0  0  0  0  0  0
  -25.3745  -31.3722   26.1480 C   0  0  0  0  0  0
  -27.0294  -30.3052   24.6073 C   0  0  0  0  0  0
  -27.6031  -32.4332   25.7488 C   0  0  0  0  0  0
  -27.5570  -37.1807   24.8466 C   0  0  0  0  0  0
  -21.4128  -29.3039   22.3736 N   0  0  0  0  0  0
  -26.4275  -37.3796   23.9419 N   0  0  0  0  0  0
  -24.6656  -31.0807   22.1008 N   0  0  0  0  0  0
  -23.4169  -28.8239   23.3055 O   0  0  0  0  0  0
  -28.4014  -26.7289   19.9486 O   0  0  0  0  0  0
  -26.5585  -34.8934   22.4694 O   0  0  0  0  0  0
  -23.5330  -32.1454   23.7512 O   0  0  0  0  0  0
  -31.7670  -17.1177   21.8983 C   0  0  0  0  0  0
  -29.6298  -18.7571   22.6975 C   0  0  0  0  0  0
  -32.0219  -18.4289   22.3649 C   0  0  0  0  0  0
  -30.9461  -19.2564   22.7828 C   0  0  0  0  0  0
  -30.4474  -16.6089   21.8517 C   0  0  0  0  0  0
  -29.3819  -17.4446   22.2529 C   0  0  0  0  0  0
  -33.4632  -18.9023   22.4581 C   0  0  0  0  0  0
  -31.1748  -20.6177   23.4425 C   0  0  0  0  0  0
  -31.3638  -21.8283   22.5025 C   0  0  0  0  0  0
  -30.0733  -22.4609   21.9343 C   0  0  0  0  0  0
  -30.1667  -24.0026   21.8479 C   0  0  0  0  0  0
  -29.0736  -24.6620   20.9855 C   0  0  0  0  0  0
  -29.0197  -26.2018   21.1160 C   0  0  0  0  0  0
  -30.1280  -15.2650   21.5027 N   0  0  0  0  0  0
  -27.7576  -16.8551   22.2428 Cl  0  0  0  0  0  0
  -31.4684  -12.4214   19.0908 H   0  0  0  0  0  0
  -30.3392  -11.2832   19.7665 H   0  0  0  0  0  0
  -29.7246  -11.8262   17.3974 H   0  0  0  0  0  0
  -29.6583  -13.5271   17.7825 H   0  0  0  0  0  0
  -27.8156  -11.3293   18.7850 H   0  0  0  0  0  0
  -27.3603  -12.6851   17.7881 H   0  0  0  0  0  0
  -27.7250  -14.2601   19.6187 H   0  0  0  0  0  0
  -28.6806  -11.8862   21.2874 H   0  0  0  0  0  0
  -28.4547  -13.4859   21.9014 H   0  0  0  0  0  0
  -25.2758   -9.5677   22.4751 H   0  0  0  0  0  0
  -23.9994   -7.4633   22.7476 H   0  0  0  0  0  0
  -21.0834   -8.8760   19.8957 H   0  0  0  0  0  0
  -22.3692  -10.9654   19.6148 H   0  0  0  0  0  0
  -21.1999   -7.6142   23.9705 H   0  0  0  0  0  0
  -21.1484   -6.0524   25.9077 H   0  0  0  0  0  0
  -22.0598   -2.7603   23.2851 H   0  0  0  0  0  0
  -22.4124  -11.9874   22.4762 H   0  0  0  0  0  0
  -21.1129  -13.1245   22.2603 H   0  0  0  0  0  0
  -24.6698  -15.8429   20.5501 H   0  0  0  0  0  0
  -26.3063  -15.6349   20.1880 H   0  0  0  0  0  0
  -26.7107  -32.5561   23.1176 H   0  0  0  0  0  0
  -25.0044  -33.9782   25.0483 H   0  0  0  0  0  0
  -22.6909  -31.3097   21.4095 H   0  0  0  0  0  0
  -23.3728  -35.9651   23.3317 H   0  0  0  0  0  0
  -24.3575  -36.8912   22.2050 H   0  0  0  0  0  0
  -23.7236  -37.6527   23.6643 H   0  0  0  0  0  0
  -26.0335  -31.5914   20.5853 H   0  0  0  0  0  0
  -26.8199  -30.9010   21.9760 H   0  0  0  0  0  0
  -28.1058  -29.1210   21.1704 H   0  0  0  0  0  0
  -26.1007  -25.9901   18.9920 H   0  0  0  0  0  0
  -23.9876  -27.2855   19.0406 H   0  0  0  0  0  0
  -23.7221  -30.5899   19.4051 H   0  0  0  0  0  0
  -22.7377  -29.2362   19.8733 H   0  0  0  0  0  0
  -25.1276  -36.1963   25.0836 H   0  0  0  0  0  0
  -20.9958  -28.3225   24.1440 H   0  0  0  0  0  0
  -20.5671  -26.2274   23.3605 H   0  0  0  0  0  0
  -21.6634  -26.7465   22.1211 H   0  0  0  0  0  0
  -19.6895  -25.6312   21.1238 H   0  0  0  0  0  0
  -19.6680  -27.3221   20.6757 H   0  0  0  0  0  0
  -17.4198  -26.6702   21.4015 H   0  0  0  0  0  0
  -18.0307  -26.0080   22.9016 H   0  0  0  0  0  0
  -19.7938  -30.7271   24.2275 H   0  0  0  0  0  0
  -17.5032  -31.6280   24.5185 H   0  0  0  0  0  0
  -15.5358  -30.3029   23.7655 H   0  0  0  0  0  0
  -15.8660  -28.0866   22.7048 H   0  0  0  0  0  0
  -24.5896  -30.7086   25.7844 H   0  0  0  0  0  0
  -24.8963  -32.2891   26.4937 H   0  0  0  0  0  0
  -25.8118  -30.8897   27.0229 H   0  0  0  0  0  0
  -26.2832  -29.6815   24.1138 H   0  0  0  0  0  0
  -27.4095  -29.7278   25.4508 H   0  0  0  0  0  0
  -27.8648  -30.4387   23.9199 H   0  0  0  0  0  0
  -27.2623  -33.3612   26.2092 H   0  0  0  0  0  0
  -28.3820  -32.6936   25.0311 H   0  0  0  0  0  0
  -28.0714  -31.8449   26.5386 H   0  0  0  0  0  0
  -28.2601  -38.0092   24.7515 H   0  0  0  0  0  0
  -28.1056  -36.2632   24.6284 H   0  0  0  0  0  0
  -27.2303  -37.1450   25.8873 H   0  0  0  0  0  0
  -20.9288  -29.8753   21.6955 H   0  0  0  0  0  0
  -26.0162  -38.2873   24.1429 H   0  0  0  0  0  0
  -32.6005  -16.4891   21.6201 H   0  0  0  0  0  0
  -28.7978  -19.3648   23.0237 H   0  0  0  0  0  0
  -34.1459  -18.2032   21.9750 H   0  0  0  0  0  0
  -33.7689  -18.9956   23.5008 H   0  0  0  0  0  0
  -33.5914  -19.8693   21.9732 H   0  0  0  0  0  0
  -32.0557  -20.5360   24.0798 H   0  0  0  0  0  0
  -30.3604  -20.8226   24.1390 H   0  0  0  0  0  0
  -32.0588  -21.5948   21.6966 H   0  0  0  0  0  0
  -31.8681  -22.5903   23.0983 H   0  0  0  0  0  0
  -29.2152  -22.1992   22.5552 H   0  0  0  0  0  0
  -29.8736  -22.0348   20.9502 H   0  0  0  0  0  0
  -31.1390  -24.2857   21.4404 H   0  0  0  0  0  0
  -30.1324  -24.4126   22.8584 H   0  0  0  0  0  0
  -28.0942  -24.2457   21.2235 H   0  0  0  0  0  0
  -29.2707  -24.3970   19.9455 H   0  0  0  0  0  0
  -30.0297  -26.6100   21.1623 H   0  0  0  0  0  0
  -28.5104  -26.4972   22.0354 H   0  0  0  0  0  0
  -29.2280  -14.9497   21.8326 H   0  0  0  0  0  0
  1 25  1  0  0  0
  1 30  2  0  0  0
  1 84  1  0  0  0
  2  3  1  0  0  0
  2 25  1  0  0  0
  2 86  1  0  0  0
  2 87  1  0  0  0
  3  4  1  0  0  0
  3 88  1  0  0  0
  3 89  1  0  0  0
  4  5  1  0  0  0
  4 90  1  0  0  0
  4 91  1  0  0  0
  5  6  1  0  0  0
  5 26  1  0  0  0
  5 92  1  0  0  0
  6 25  1  0  0  0
  6 93  1  0  0  0
  6 94  1  0  0  0
  7  8  2  0  0  0
  7 26  1  0  0  0
  7 29  1  0  0  0
  8  9  1  0  0  0
  8 22  1  0  0  0
  9 10  1  0  0  0
  9 27  2  0  0  0
 10 11  2  0  0  0
 10 15  1  0  0  0
 11 12  1  0  0  0
 11 95  1  0  0  0
 12 13  2  0  0  0
 12 96  1  0  0  0
 13 14  1  0  0  0
 13 31  1  0  0  0
 14 15  2  0  0  0
 14 97  1  0  0  0
 15 98  1  0  0  0
 16 17  2  0  0  0
 16 21  1  0  0  0
 16 31  1  0  0  0
 17 18  1  0  0  0
 17 99  1  0  0  0
 18 19  2  0  0  0
 18100  1  0  0  0
 19 20  1  0  0  0
 19 24  1  0  0  0
 20 21  2  0  0  0
 20101  1  0  0  0
 21 23  1  0  0  0
 22 28  1  0  0  0
 22 32  2  0  0  0
 26 27  1  0  0  0
 28102  1  0  0  0
 28103  1  0  0  0
 29104  1  0  0  0
 29105  1  0  0  0
 33 34  1  0  0  0
 33 66  1  0  0  0
 33 70  2  0  0  0
 34 36  1  0  0  0
 34 59  1  0  0  0
 34106  1  0  0  0
 35 44  2  0  0  0
 35 45  1  0  0  0
 35 68  1  0  0  0
 36 56  1  0  0  0
 36107  1  0  0  0
 37 39  1  0  0  0
 37 47  1  0  0  0
 37 66  1  0  0  0
 37108  1  0  0  0
 38 43  2  0  0  0
 38 46  1  0  0  0
 38 47  1  0  0  0
 39 64  1  0  0  0
 39 67  2  0  0  0
 40 52  1  0  0  0
 40 53  2  0  0  0
 40 58  1  0  0  0
 41109  1  0  0  0
 41110  1  0  0  0
 41111  1  0  0  0
 41 48  1  0  0  0
 42 43  1  0  0  0
 42 66  1  0  0  0
 42112  1  0  0  0
 42113  1  0  0  0
 43 44  1  0  0  0
 44114  1  0  0  0
 45 46  2  0  0  0
 45115  1  0  0  0
 46116  1  0  0  0
 47117  1  0  0  0
 47118  1  0  0  0
 48 56  1  0  0  0
 48 65  1  0  0  0
 48119  1  0  0  0
 49 50  1  0  0  0
 49 53  1  0  0  0
 49 64  1  0  0  0
 49120  1  0  0  0
 50 51  1  0  0  0
 50121  1  0  0  0
 50122  1  0  0  0
 51 52  1  0  0  0
 51123  1  0  0  0
 51124  1  0  0  0
 52125  1  0  0  0
 52126  1  0  0  0
 53 54  1  0  0  0
 54 55  2  0  0  0
 54127  1  0  0  0
 55 57  1  0  0  0
 55128  1  0  0  0
 56 69  2  0  0  0
 57 58  2  0  0  0
 57129  1  0  0  0
 58130  1  0  0  0
 59 60  1  0  0  0
 59 61  1  0  0  0
 59 62  1  0  0  0
 60131  1  0  0  0
 60132  1  0  0  0
 60133  1  0  0  0
 61134  1  0  0  0
 61135  1  0  0  0
 61136  1  0  0  0
 62137  1  0  0  0
 62138  1  0  0  0
 62139  1  0  0  0
 63 65  1  0  0  0
 63140  1  0  0  0
 63141  1  0  0  0
 63142  1  0  0  0
 64143  1  0  0  0
 65144  1  0  0  0
 68 83  1  0  0  0
 71 73  2  0  0  0
 71 75  1  0  0  0
 71145  1  0  0  0
 72 74  2  0  0  0
 72 76  1  0  0  0
 72146  1  0  0  0
 73 74  1  0  0  0
 73 77  1  0  0  0
 74 78  1  0  0  0
 75 76  2  0  0  0
 75 84  1  0  0  0
 76 85  1  0  0  0
 77147  1  0  0  0
 77148  1  0  0  0
 77149  1  0  0  0
 78 79  1  0  0  0
 78150  1  0  0  0
 78151  1  0  0  0
 79 80  1  0  0  0
 79152  1  0  0  0
 79153  1  0  0  0
 80 81  1  0  0  0
 80154  1  0  0  0
 80155  1  0  0  0
 81 82  1  0  0  0
 81156  1  0  0  0
 81157  1  0  0  0
 82 83  1  0  0  0
 82158  1  0  0  0
 82159  1  0  0  0
 83160  1  0  0  0
 83161  1  0  0  0
 84162  1  0  0  0
M  ISO  4   1 100  68 101  83 101  84 100
M  END
> <chiral flag>
0

> <version>
0

> <s_m_source_file>
/data/baiqing/PycharmProjects/Reinvent-master-3.2/result/LINK_invent/BTK/process_docking_weight1_custom_sum_contain_oxygen_bond_distance_aromatic_linkinvent_7_9_3/rearranged_h_0027.sdf

> <i_m_source_file_index>
76

> <r_mmod_Potential_Energy-OPLS-2005>
-43.5280876159668

> <r_mmod_Stretch_Energy-OPLS-2005>
34.4153442382812

> <r_mmod_Bend_Energy-OPLS-2005>
103.005844116211

> <r_mmod_Torsional_Energy-OPLS-2005>
245.133499145508

> <r_mmod_Improper_Torsional_Energy-OPLS-2005>
3.03772473335266

> <r_mmod_Van_der_Waal_Energy-OPLS-2005>
147.433868408203

> <r_mmod_Electrostatic_Energy-OPLS-2005>
-396.764801025391

> <r_mmod_Solvation_Energy-OPLS-2005>
-187.633178710938

> <b_mmod_Minimization_Converged-OPLS-2005>
0

> <r_mmod_RMS_Derivative-OPLS-2005>
1.34450364112854

$$$$
76
                    3D
 Structure written by MMmdl.
165173  0  0  1  0            999 V2000
  -30.6589  -14.4376   20.5787 C   0  0  0  0  0  0
  -30.4269  -12.2960   19.3885 C   0  0  0  0  0  0
  -29.4817  -12.5214   18.1898 C   0  0  0  0  0  0
  -28.0051  -12.3792   18.6069 C   0  0  0  0  0  0
  -27.6624  -13.1921   19.8829 C   0  0  2  0  0  0
  -28.7032  -12.9018   20.9848 C   0  0  0  0  0  0
  -25.2553  -13.8105   20.5653 C   0  0  0  0  0  0
  -24.1843  -13.0408   20.9199 C   0  0  0  0  0  0
  -24.6410  -11.6861   20.8801 C   0  0  0  0  0  0
  -23.9090  -10.4247   21.0447 C   0  0  0  0  0  0
  -24.3637   -9.4149   21.9213 C   0  0  0  0  0  0
  -23.6277   -8.2205   22.0767 C   0  0  0  0  0  0
  -22.4247   -8.0280   21.3573 C   0  0  0  0  0  0
  -21.9920   -9.0258   20.4683 C   0  0  0  0  0  0
  -22.7279  -10.2107   20.3088 C   0  0  0  0  0  0
  -21.6846   -6.0738   22.5273 C   0  0  0  0  0  0
  -21.3990   -6.5645   23.8208 C   0  0  0  0  0  0
  -21.3654   -5.6812   24.9177 C   0  0  0  0  0  0
  -21.6035   -4.3063   24.7226 C   0  0  0  0  0  0
  -21.8838   -3.8160   23.4342 C   0  0  0  0  0  0
  -21.9169   -4.6963   22.3398 C   0  0  0  0  0  0
  -22.7848  -13.5164   21.1851 C   0  0  0  0  0  0
  -22.1644   -4.2157   21.0968 F   0  0  0  0  0  0
  -21.5636   -3.4545   25.7733 F   0  0  0  0  0  0
  -30.0399  -13.2323   20.4520 N   0  0  0  0  0  0
  -26.3017  -12.9274   20.3406 N   0  0  0  0  0  0
  -25.9337  -11.6450   20.5863 N   0  0  0  0  0  0
  -22.0522  -12.8172   22.0412 N   0  0  0  0  0  0
  -25.4270  -15.1843   20.3944 N   0  0  0  0  0  0
  -31.7463  -14.7085   20.0573 O   0  0  0  0  0  0
  -21.6623   -6.8874   21.4237 O   0  0  0  0  0  0
  -22.3500  -14.5440   20.6641 O   0  0  0  0  0  0
  -24.6053  -31.8731   23.2147 C   0  0  0  0  0  0
  -25.8998  -32.4829   23.8374 C   0  0  1  0  0  0
  -27.2157  -27.4696   20.0890 C   0  0  0  0  0  0
  -25.5919  -33.8614   24.2310 N   0  0  0  0  0  0
  -23.3926  -30.4999   21.5458 C   0  0  2  0  0  0
  -24.8397  -28.9753   20.0991 C   0  0  0  0  0  0
  -22.7346  -29.4719   22.4947 C   0  0  0  0  0  0
  -18.0293  -28.1391   22.8448 C   0  0  0  0  0  0
  -24.1515  -36.7324   23.2624 C   0  0  0  0  0  0
  -25.9138  -30.8518   21.3582 C   0  0  0  0  0  0
  -25.9935  -29.4868   20.7099 C   0  0  0  0  0  0
  -27.1869  -28.7329   20.7198 C   0  0  0  0  0  0
  -26.0596  -26.9752   19.4566 C   0  0  0  0  0  0
  -24.8671  -27.7156   19.4764 C   0  0  0  0  0  0
  -23.5941  -29.8277   20.1574 C   0  0  0  0  0  0
  -25.4129  -36.3077   24.0294 C   0  0  1  0  0  0
  -20.5862  -28.3703   23.1335 C   0  0  2  0  0  0
  -20.6769  -26.9438   22.5431 C   0  0  0  0  0  0
  -19.5795  -26.6391   21.5194 C   0  0  0  0  0  0
  -18.1970  -26.7925   22.1603 C   0  0  0  0  0  0
  -19.1525  -28.8849   23.2894 C   0  0  0  0  0  0
  -18.9448  -30.1462   23.8920 C   0  0  0  0  0  0
  -17.6442  -30.6585   24.0582 C   0  0  0  0  0  0
  -25.9029  -34.9457   23.5090 C   0  0  0  0  0  0
  -16.5345  -29.9080   23.6312 C   0  0  0  0  0  0
  -16.7279  -28.6511   23.0287 C   0  0  0  0  0  0
  -26.4469  -31.6579   25.0668 C   0  0  0  0  0  0
  -25.3763  -31.3682   26.1426 C   0  0  0  0  0  0
  -27.0321  -30.3037   24.6003 C   0  0  0  0  0  0
  -27.6058  -32.4267   25.7456 C   0  0  0  0  0  0
  -27.5567  -37.1826   24.8440 C   0  0  0  0  0  0
  -21.4065  -29.3119   22.3706 N   0  0  0  0  0  0
  -26.4300  -37.3757   23.9367 N   0  0  0  0  0  0
  -24.6548  -31.0863   22.1012 N   0  0  0  0  0  0
  -23.4134  -28.8207   23.2925 O   0  0  0  0  0  0
  -28.3390  -26.6933   20.0785 O   0  0  0  0  0  0
  -26.5573  -34.8905   22.4640 O   0  0  0  0  0  0
  -23.5265  -32.1404   23.7615 O   0  0  0  0  0  0
  -27.6746  -21.5481   20.9758 C   0  0  0  0  0  0
  -28.5331  -23.6247   19.2939 C   0  0  0  0  0  0
  -28.3262  -22.6741   21.5216 C   0  0  0  0  0  0
  -27.4014  -21.4701   19.5914 C   0  0  0  0  0  0
  -28.7938  -23.7080   20.6759 C   0  0  0  0  0  0
  -27.8217  -22.5374   18.7558 C   0  0  0  0  0  0
  -28.4538  -22.7963   23.0261 C   0  0  0  0  0  0
  -26.5813  -20.3078   19.0263 C   0  0  0  0  0  0
  -29.5398  -24.9247   21.2281 C   0  0  0  0  0  0
  -26.9527  -18.8807   19.4964 C   0  0  0  0  0  0
  -28.4557  -18.5099   19.4573 C   0  0  0  0  0  0
  -28.7179  -17.0379   19.8342 C   0  0  0  0  0  0
  -29.8461  -16.7972   20.8575 C   0  0  0  0  0  0
  -28.6612  -26.1740   21.3624 C   0  0  0  0  0  0
  -29.8924  -15.3681   21.1679 N   0  0  0  0  0  0
  -27.4303  -22.5862   17.0699 Cl  0  0  0  0  0  0
  -31.4619  -12.4312   19.0760 H   0  0  0  0  0  0
  -30.3512  -11.2668   19.7446 H   0  0  0  0  0  0
  -29.7187  -11.8195   17.3887 H   0  0  0  0  0  0
  -29.6494  -13.5167   17.7759 H   0  0  0  0  0  0
  -27.8100  -11.3197   18.7778 H   0  0  0  0  0  0
  -27.3551  -12.6856   17.7872 H   0  0  0  0  0  0
  -27.7266  -14.2458   19.6137 H   0  0  0  0  0  0
  -28.6806  -11.8425   21.2475 H   0  0  0  0  0  0
  -28.4658  -13.4288   21.9076 H   0  0  0  0  0  0
  -25.2800   -9.5544   22.4789 H   0  0  0  0  0  0
  -23.9965   -7.4555   22.7460 H   0  0  0  0  0  0
  -21.0877   -8.8827   19.8964 H   0  0  0  0  0  0
  -22.3825  -10.9665   19.6182 H   0  0  0  0  0  0
  -21.2002   -7.6165   23.9699 H   0  0  0  0  0  0
  -21.1455   -6.0554   25.9081 H   0  0  0  0  0  0
  -22.0619   -2.7614   23.2855 H   0  0  0  0  0  0
  -22.4149  -11.9811   22.4785 H   0  0  0  0  0  0
  -21.1148  -13.1199   22.2671 H   0  0  0  0  0  0
  -24.6627  -15.8445   20.4890 H   0  0  0  0  0  0
  -26.2802  -15.6099   20.0586 H   0  0  0  0  0  0
  -26.7071  -32.5589   23.1148 H   0  0  0  0  0  0
  -25.0142  -33.9784   25.0489 H   0  0  0  0  0  0
  -22.6768  -31.3149   21.4064 H   0  0  0  0  0  0
  -23.3727  -35.9705   23.3280 H   0  0  0  0  0  0
  -24.3611  -36.8947   22.2037 H   0  0  0  0  0  0
  -23.7335  -37.6552   23.6659 H   0  0  0  0  0  0
  -26.0018  -31.6183   20.5860 H   0  0  0  0  0  0
  -26.8078  -30.9182   21.9637 H   0  0  0  0  0  0
  -28.0756  -29.1123   21.2057 H   0  0  0  0  0  0
  -26.0699  -26.0112   18.9693 H   0  0  0  0  0  0
  -23.9782  -27.3124   19.0068 H   0  0  0  0  0  0
  -23.6811  -30.5941   19.3854 H   0  0  0  0  0  0
  -22.7202  -29.2286   19.8837 H   0  0  0  0  0  0
  -25.1332  -36.1920   25.0779 H   0  0  0  0  0  0
  -21.0018  -28.3319   24.1443 H   0  0  0  0  0  0
  -20.5666  -26.2306   23.3595 H   0  0  0  0  0  0
  -21.6660  -26.7545   22.1273 H   0  0  0  0  0  0
  -19.6966  -25.6293   21.1272 H   0  0  0  0  0  0
  -19.6764  -27.3192   20.6693 H   0  0  0  0  0  0
  -17.4244  -26.6646   21.4003 H   0  0  0  0  0  0
  -18.0394  -26.0068   22.9008 H   0  0  0  0  0  0
  -19.7923  -30.7294   24.2273 H   0  0  0  0  0  0
  -17.4998  -31.6254   24.5222 H   0  0  0  0  0  0
  -15.5330  -30.2987   23.7676 H   0  0  0  0  0  0
  -15.8662  -28.0913   22.6910 H   0  0  0  0  0  0
  -24.5936  -30.7029   25.7744 H   0  0  0  0  0  0
  -24.8986  -32.2869   26.4846 H   0  0  0  0  0  0
  -25.8141  -30.8856   27.0174 H   0  0  0  0  0  0
  -26.2864  -29.6759   24.1112 H   0  0  0  0  0  0
  -27.4164  -29.7295   25.4440 H   0  0  0  0  0  0
  -27.8643  -30.4343   23.9081 H   0  0  0  0  0  0
  -27.2659  -33.3533   26.2080 H   0  0  0  0  0  0
  -28.3882  -32.6844   25.0306 H   0  0  0  0  0  0
  -28.0695  -31.8344   26.5344 H   0  0  0  0  0  0
  -28.2585  -38.0125   24.7462 H   0  0  0  0  0  0
  -28.1081  -36.2652   24.6322 H   0  0  0  0  0  0
  -27.2281  -37.1516   25.8845 H   0  0  0  0  0  0
  -20.9155  -29.8853   21.6982 H   0  0  0  0  0  0
  -26.0167  -38.2818   24.1398 H   0  0  0  0  0  0
  -27.3474  -20.7598   21.6389 H   0  0  0  0  0  0
  -28.8440  -24.4276   18.6426 H   0  0  0  0  0  0
  -28.0885  -21.9222   23.5615 H   0  0  0  0  0  0
  -29.4902  -22.9356   23.3188 H   0  0  0  0  0  0
  -27.8626  -23.6549   23.3497 H   0  0  0  0  0  0
  -26.6379  -20.3101   17.9401 H   0  0  0  0  0  0
  -25.5352  -20.5057   19.2690 H   0  0  0  0  0  0
  -30.4147  -25.1299   20.6140 H   0  0  0  0  0  0
  -29.9431  -24.7126   22.2100 H   0  0  0  0  0  0
  -26.4014  -18.1784   18.8666 H   0  0  0  0  0  0
  -26.5725  -18.7309   20.5078 H   0  0  0  0  0  0
  -28.8366  -18.6850   18.4537 H   0  0  0  0  0  0
  -29.0303  -19.1616   20.1162 H   0  0  0  0  0  0
  -28.9261  -16.4740   18.9234 H   0  0  0  0  0  0
  -27.8054  -16.6138   20.2557 H   0  0  0  0  0  0
  -30.8044  -17.1659   20.4852 H   0  0  0  0  0  0
  -29.6347  -17.3496   21.7775 H   0  0  0  0  0  0
  -29.2005  -26.9291   21.9280 H   0  0  0  0  0  0
  -27.7579  -25.9218   21.9285 H   0  0  0  0  0  0
  -29.0702  -15.0038   21.6271 H   0  0  0  0  0  0
  1 25  1  0  0  0
  1 30  2  0  0  0
  1 85  1  0  0  0
  2  3  1  0  0  0
  2 25  1  0  0  0
  2 87  1  0  0  0
  2 88  1  0  0  0
  3  4  1  0  0  0
  3 89  1  0  0  0
  3 90  1  0  0  0
  4  5  1  0  0  0
  4 91  1  0  0  0
  4 92  1  0  0  0
  5  6  1  0  0  0
  5 26  1  0  0  0
  5 93  1  0  0  0
  6 25  1  0  0  0
  6 94  1  0  0  0
  6 95  1  0  0  0
  7  8  2  0  0  0
  7 26  1  0  0  0
  7 29  1  0  0  0
  8  9  1  0  0  0
  8 22  1  0  0  0
  9 10  1  0  0  0
  9 27  2  0  0  0
 10 11  2  0  0  0
 10 15  1  0  0  0
 11 12  1  0  0  0
 11 96  1  0  0  0
 12 13  2  0  0  0
 12 97  1  0  0  0
 13 14  1  0  0  0
 13 31  1  0  0  0
 14 15  2  0  0  0
 14 98  1  0  0  0
 15 99  1  0  0  0
 16 17  2  0  0  0
 16 21  1  0  0  0
 16 31  1  0  0  0
 17 18  1  0  0  0
 17100  1  0  0  0
 18 19  2  0  0  0
 18101  1  0  0  0
 19 20  1  0  0  0
 19 24  1  0  0  0
 20 21  2  0  0  0
 20102  1  0  0  0
 21 23  1  0  0  0
 22 28  1  0  0  0
 22 32  2  0  0  0
 26 27  1  0  0  0
 28103  1  0  0  0
 28104  1  0  0  0
 29105  1  0  0  0
 29106  1  0  0  0
 33 34  1  0  0  0
 33 66  1  0  0  0
 33 70  2  0  0  0
 34 36  1  0  0  0
 34 59  1  0  0  0
 34107  1  0  0  0
 35 44  2  0  0  0
 35 45  1  0  0  0
 35 68  1  0  0  0
 36 56  1  0  0  0
 36108  1  0  0  0
 37 39  1  0  0  0
 37 47  1  0  0  0
 37 66  1  0  0  0
 37109  1  0  0  0
 38 43  2  0  0  0
 38 46  1  0  0  0
 38 47  1  0  0  0
 39 64  1  0  0  0
 39 67  2  0  0  0
 40 52  1  0  0  0
 40 53  2  0  0  0
 40 58  1  0  0  0
 41110  1  0  0  0
 41111  1  0  0  0
 41112  1  0  0  0
 41 48  1  0  0  0
 42 43  1  0  0  0
 42 66  1  0  0  0
 42113  1  0  0  0
 42114  1  0  0  0
 43 44  1  0  0  0
 44115  1  0  0  0
 45 46  2  0  0  0
 45116  1  0  0  0
 46117  1  0  0  0
 47118  1  0  0  0
 47119  1  0  0  0
 48 56  1  0  0  0
 48 65  1  0  0  0
 48120  1  0  0  0
 49 50  1  0  0  0
 49 53  1  0  0  0
 49 64  1  0  0  0
 49121  1  0  0  0
 50 51  1  0  0  0
 50122  1  0  0  0
 50123  1  0  0  0
 51 52  1  0  0  0
 51124  1  0  0  0
 51125  1  0  0  0
 52126  1  0  0  0
 52127  1  0  0  0
 53 54  1  0  0  0
 54 55  2  0  0  0
 54128  1  0  0  0
 55 57  1  0  0  0
 55129  1  0  0  0
 56 69  2  0  0  0
 57 58  2  0  0  0
 57130  1  0  0  0
 58131  1  0  0  0
 59 60  1  0  0  0
 59 61  1  0  0  0
 59 62  1  0  0  0
 60132  1  0  0  0
 60133  1  0  0  0
 60134  1  0  0  0
 61135  1  0  0  0
 61136  1  0  0  0
 61137  1  0  0  0
 62138  1  0  0  0
 62139  1  0  0  0
 62140  1  0  0  0
 63 65  1  0  0  0
 63141  1  0  0  0
 63142  1  0  0  0
 63143  1  0  0  0
 64144  1  0  0  0
 65145  1  0  0  0
 68 84  1  0  0  0
 71 73  2  0  0  0
 71 74  1  0  0  0
 71146  1  0  0  0
 72 75  2  0  0  0
 72 76  1  0  0  0
 72147  1  0  0  0
 73 75  1  0  0  0
 73 77  1  0  0  0
 74 76  2  0  0  0
 74 78  1  0  0  0
 75 79  1  0  0  0
 76 86  1  0  0  0
 77148  1  0  0  0
 77149  1  0  0  0
 77150  1  0  0  0
 78 80  1  0  0  0
 78151  1  0  0  0
 78152  1  0  0  0
 79 84  1  0  0  0
 79153  1  0  0  0
 79154  1  0  0  0
 80 81  1  0  0  0
 80155  1  0  0  0
 80156  1  0  0  0
 81 82  1  0  0  0
 81157  1  0  0  0
 81158  1  0  0  0
 82 83  1  0  0  0
 82159  1  0  0  0
 82160  1  0  0  0
 83 85  1  0  0  0
 83161  1  0  0  0
 83162  1  0  0  0
 84163  1  0  0  0
 84164  1  0  0  0
 85165  1  0  0  0
M  ISO  4   1 100  68 101  84 101  85 100
M  END
> <chiral flag>
0

> <version>
0

> <s_m_source_file>
/data/baiqing/PycharmProjects/Reinvent-master-3.2/result/LINK_invent/BTK/process_docking_weight1_custom_sum_contain_oxygen_bond_distance_aromatic_linkinvent_7_9_3/rearranged_h_0027.sdf

> <i_m_source_file_index>
77

> <r_mmod_Potential_Energy-OPLS-2005>
-36.546329498291

> <r_mmod_Stretch_Energy-OPLS-2005>
33.711841583252

> <r_mmod_Bend_Energy-OPLS-2005>
91.6776428222656

> <r_mmod_Torsional_Energy-OPLS-2005>
238.661239624023

> <r_mmod_Improper_Torsional_Energy-OPLS-2005>
6.03565263748169

> <r_mmod_Van_der_Waal_Energy-OPLS-2005>
147.757171630859

> <r_mmod_Electrostatic_Energy-OPLS-2005>
-362.870330810547

> <r_mmod_Solvation_Energy-OPLS-2005>
-202.273651123047

> <b_mmod_Minimization_Converged-OPLS-2005>
0

> <r_mmod_RMS_Derivative-OPLS-2005>
7.59305953979492

$$$$
77
                    3D
 Structure written by MMmdl.
152160  0  0  1  0            999 V2000
  -30.4303  -15.1984   20.3780 C   0  0  0  0  0  0
  -30.4465  -12.7529   19.5278 C   0  0  0  0  0  0
  -29.5372  -12.5696   18.2857 C   0  0  0  0  0  0
  -28.0805  -12.3036   18.7074 C   0  0  0  0  0  0
  -27.6195  -13.2639   19.8319 C   0  0  2  0  0  0
  -28.6546  -13.3895   20.9704 C   0  0  0  0  0  0
  -25.2410  -13.8228   20.5721 C   0  0  0  0  0  0
  -24.1751  -13.0433   20.9244 C   0  0  0  0  0  0
  -24.6386  -11.6923   20.8748 C   0  0  0  0  0  0
  -23.9072  -10.4286   21.0391 C   0  0  0  0  0  0
  -24.3622   -9.4207   21.9174 C   0  0  0  0  0  0
  -23.6292   -8.2244   22.0751 C   0  0  0  0  0  0
  -22.4277   -8.0275   21.3542 C   0  0  0  0  0  0
  -21.9909   -9.0247   20.4642 C   0  0  0  0  0  0
  -22.7240  -10.2125   20.3044 C   0  0  0  0  0  0
  -21.6856   -6.0726   22.5273 C   0  0  0  0  0  0
  -21.4024   -6.5630   23.8205 C   0  0  0  0  0  0
  -21.3663   -5.6787   24.9170 C   0  0  0  0  0  0
  -21.6043   -4.3048   24.7223 C   0  0  0  0  0  0
  -21.8819   -3.8137   23.4347 C   0  0  0  0  0  0
  -21.9197   -4.6949   22.3400 C   0  0  0  0  0  0
  -22.7771  -13.5192   21.1896 C   0  0  0  0  0  0
  -22.1660   -4.2130   21.0979 F   0  0  0  0  0  0
  -21.5627   -3.4535   25.7742 F   0  0  0  0  0  0
  -29.9006  -13.8815   20.3609 N   0  0  0  0  0  0
  -26.2841  -12.9482   20.3226 N   0  0  0  0  0  0
  -25.9325  -11.6597   20.5721 N   0  0  0  0  0  0
  -22.0434  -12.8177   22.0457 N   0  0  0  0  0  0
  -25.4038  -15.1963   20.4128 N   0  0  0  0  0  0
  -31.6413  -15.2467   20.1110 O   0  0  0  0  0  0
  -21.6645   -6.8871   21.4235 O   0  0  0  0  0  0
  -22.3446  -14.5492   20.6737 O   0  0  0  0  0  0
  -24.6583  -31.8276   23.1731 C   0  0  0  0  0  0
  -25.9287  -32.4606   23.8170 C   0  0  1  0  0  0
  -27.2233  -26.9731   20.1815 C   0  0  0  0  0  0
  -25.5973  -33.8416   24.2083 N   0  0  0  0  0  0
  -23.4709  -30.4390   21.5216 C   0  0  2  0  0  0
  -24.9249  -28.8322   20.1121 C   0  0  0  0  0  0
  -22.7638  -29.4454   22.4793 C   0  0  0  0  0  0
  -18.0315  -28.1402   22.8449 C   0  0  0  0  0  0
  -24.1494  -36.7224   23.2643 C   0  0  0  0  0  0
  -26.0366  -30.6491   21.3954 C   0  0  0  0  0  0
  -26.1071  -29.2432   20.7398 C   0  0  0  0  0  0
  -27.2530  -28.3348   20.7478 C   0  0  0  0  0  0
  -26.0113  -26.6997   19.5098 C   0  0  0  0  0  0
  -24.8995  -27.5800   19.4763 C   0  0  0  0  0  0
  -23.7085  -29.7551   20.1474 C   0  0  0  0  0  0
  -25.4130  -36.2975   24.0297 C   0  0  1  0  0  0
  -20.5936  -28.3744   23.1190 C   0  0  2  0  0  0
  -20.6795  -26.9429   22.5400 C   0  0  0  0  0  0
  -19.5780  -26.6372   21.5203 C   0  0  0  0  0  0
  -18.1955  -26.7932   22.1608 C   0  0  0  0  0  0
  -19.1577  -28.8892   23.2804 C   0  0  0  0  0  0
  -18.9489  -30.1482   23.8840 C   0  0  0  0  0  0
  -17.6488  -30.6594   24.0547 C   0  0  0  0  0  0
  -25.9092  -34.9357   23.5012 C   0  0  0  0  0  0
  -16.5379  -29.9082   23.6339 C   0  0  0  0  0  0
  -16.7302  -28.6505   23.0348 C   0  0  0  0  0  0
  -26.4555  -31.6535   25.0682 C   0  0  0  0  0  0
  -25.3688  -31.3786   26.1342 C   0  0  0  0  0  0
  -27.0437  -30.2896   24.6398 C   0  0  0  0  0  0
  -27.6036  -32.4357   25.7490 C   0  0  0  0  0  0
  -27.5576  -37.1763   24.8459 C   0  0  0  0  0  0
  -21.4313  -29.3040   22.3545 N   0  0  0  0  0  0
  -26.4278  -37.3709   23.9412 N   0  0  0  0  0  0
  -24.7427  -30.9975   22.0843 N   0  0  0  0  0  0
  -23.4196  -28.8015   23.3015 O   0  0  0  0  0  0
  -28.2464  -25.9037   20.2600 O   0  0  0  0  0  0
  -26.5703  -34.8884   22.4606 O   0  0  0  0  0  0
  -23.5670  -32.1229   23.6859 O   0  0  0  0  0  0
  -28.4091  -18.7516   20.9755 C   0  0  0  0  0  0
  -28.2085  -20.2212   20.9446 C   0  0  0  0  0  0
  -29.1162  -21.1736   20.3342 C   0  0  0  0  0  0
  -30.2079  -20.3415   19.8104 C   0  0  0  0  0  0
  -29.5319  -17.9919   20.4457 C   0  0  0  0  0  0
  -26.9850  -20.7843   21.6404 C   0  0  0  0  0  0
  -31.3661  -21.0412   19.1269 C   0  0  0  0  0  0
  -29.1208  -22.9222   20.4235 C   0  0  0  0  0  0
  -28.0200  -24.2889   20.1419 C   0  0  0  0  0  0
  -30.3875  -18.9249   19.8631 N   0  0  0  0  0  0
  -29.5843  -16.3892   20.5494 N   0  0  0  0  0  0
  -31.4687  -12.9518   19.2034 H   0  0  0  0  0  0
  -30.4995  -11.8309   20.1096 H   0  0  0  0  0  0
  -29.9036  -11.7539   17.6610 H   0  0  0  0  0  0
  -29.5781  -13.4702   17.6722 H   0  0  0  0  0  0
  -28.0219  -11.2730   19.0600 H   0  0  0  0  0  0
  -27.4141  -12.3702   17.8460 H   0  0  0  0  0  0
  -27.5507  -14.2428   19.3564 H   0  0  0  0  0  0
  -28.8012  -12.4364   21.4810 H   0  0  0  0  0  0
  -28.3058  -14.0927   21.7285 H   0  0  0  0  0  0
  -25.2761   -9.5688   22.4752 H   0  0  0  0  0  0
  -23.9998   -7.4638   22.7474 H   0  0  0  0  0  0
  -21.0843   -8.8760   19.8946 H   0  0  0  0  0  0
  -22.3689  -10.9661   19.6152 H   0  0  0  0  0  0
  -21.2022   -7.6138   23.9704 H   0  0  0  0  0  0
  -21.1485   -6.0518   25.9071 H   0  0  0  0  0  0
  -22.0596   -2.7595   23.2854 H   0  0  0  0  0  0
  -22.4077  -11.9854   22.4855 H   0  0  0  0  0  0
  -21.1038  -13.1167   22.2657 H   0  0  0  0  0  0
  -24.6219  -15.8357   20.5058 H   0  0  0  0  0  0
  -26.2251  -15.6349   20.0192 H   0  0  0  0  0  0
  -26.7345  -32.5155   23.0877 H   0  0  0  0  0  0
  -25.0050  -33.9500   25.0187 H   0  0  0  0  0  0
  -22.7809  -31.2687   21.3529 H   0  0  0  0  0  0
  -23.3762  -35.9549   23.3264 H   0  0  0  0  0  0
  -24.3572  -36.8925   22.2066 H   0  0  0  0  0  0
  -23.7249  -37.6398   23.6733 H   0  0  0  0  0  0
  -26.2090  -31.3931   20.6164 H   0  0  0  0  0  0
  -26.8990  -30.7060   22.0479 H   0  0  0  0  0  0
  -28.1511  -28.6492   21.2613 H   0  0  0  0  0  0
  -25.8912  -25.7400   19.0287 H   0  0  0  0  0  0
  -23.9996  -27.2584   18.9706 H   0  0  0  0  0  0
  -23.8597  -30.5247   19.3895 H   0  0  0  0  0  0
  -22.8190  -29.2080   19.8309 H   0  0  0  0  0  0
  -25.1324  -36.1769   25.0785 H   0  0  0  0  0  0
  -21.0016  -28.3356   24.1318 H   0  0  0  0  0  0
  -20.5689  -26.2352   23.3634 H   0  0  0  0  0  0
  -21.6659  -26.7417   22.1205 H   0  0  0  0  0  0
  -19.6943  -25.6270   21.1275 H   0  0  0  0  0  0
  -19.6736  -27.3139   20.6698 H   0  0  0  0  0  0
  -17.4226  -26.6662   21.4013 H   0  0  0  0  0  0
  -18.0359  -26.0091   22.9022 H   0  0  0  0  0  0
  -19.7972  -30.7299   24.2193 H   0  0  0  0  0  0
  -17.5048  -31.6272   24.5156 H   0  0  0  0  0  0
  -15.5378  -30.2964   23.7708 H   0  0  0  0  0  0
  -15.8698  -28.0817   22.7089 H   0  0  0  0  0  0
  -24.5876  -30.7127   25.7653 H   0  0  0  0  0  0
  -24.8860  -32.2988   26.4642 H   0  0  0  0  0  0
  -25.7911  -30.9034   27.0204 H   0  0  0  0  0  0
  -26.3086  -29.6581   24.1396 H   0  0  0  0  0  0
  -27.3954  -29.7253   25.5047 H   0  0  0  0  0  0
  -27.9035  -30.4059   23.9797 H   0  0  0  0  0  0
  -27.2584  -33.3704   26.1924 H   0  0  0  0  0  0
  -28.3913  -32.6866   25.0371 H   0  0  0  0  0  0
  -28.0626  -31.8590   26.5535 H   0  0  0  0  0  0
  -28.2547  -38.0100   24.7521 H   0  0  0  0  0  0
  -28.1124  -36.2627   24.6263 H   0  0  0  0  0  0
  -27.2297  -37.1366   25.8861 H   0  0  0  0  0  0
  -20.9557  -29.8738   21.6686 H   0  0  0  0  0  0
  -26.0131  -38.2765   24.1438 H   0  0  0  0  0  0
  -27.6414  -18.1703   21.4679 H   0  0  0  0  0  0
  -26.2878  -19.9999   21.9357 H   0  0  0  0  0  0
  -26.4526  -21.4752   20.9871 H   0  0  0  0  0  0
  -27.2823  -21.3259   22.5388 H   0  0  0  0  0  0
  -31.0040  -21.6778   18.3193 H   0  0  0  0  0  0
  -32.0707  -20.3307   18.6930 H   0  0  0  0  0  0
  -31.9109  -21.6606   19.8388 H   0  0  0  0  0  0
  -29.9870  -23.2038   19.8278 H   0  0  0  0  0  0
  -29.4598  -23.0874   21.4458 H   0  0  0  0  0  0
  -27.1603  -24.0990   20.7841 H   0  0  0  0  0  0
  -27.6425  -24.1458   19.1293 H   0  0  0  0  0  0
  -28.6777  -16.0495   20.8253 H   0  0  0  0  0  0
  1 25  1  0  0  0
  1 30  2  0  0  0
  1 81  1  0  0  0
  2  3  1  0  0  0
  2 25  1  0  0  0
  2 82  1  0  0  0
  2 83  1  0  0  0
  3  4  1  0  0  0
  3 84  1  0  0  0
  3 85  1  0  0  0
  4  5  1  0  0  0
  4 86  1  0  0  0
  4 87  1  0  0  0
  5  6  1  0  0  0
  5 26  1  0  0  0
  5 88  1  0  0  0
  6 25  1  0  0  0
  6 89  1  0  0  0
  6 90  1  0  0  0
  7  8  2  0  0  0
  7 26  1  0  0  0
  7 29  1  0  0  0
  8  9  1  0  0  0
  8 22  1  0  0  0
  9 10  1  0  0  0
  9 27  2  0  0  0
 10 11  2  0  0  0
 10 15  1  0  0  0
 11 12  1  0  0  0
 11 91  1  0  0  0
 12 13  2  0  0  0
 12 92  1  0  0  0
 13 14  1  0  0  0
 13 31  1  0  0  0
 14 15  2  0  0  0
 14 93  1  0  0  0
 15 94  1  0  0  0
 16 17  2  0  0  0
 16 21  1  0  0  0
 16 31  1  0  0  0
 17 18  1  0  0  0
 17 95  1  0  0  0
 18 19  2  0  0  0
 18 96  1  0  0  0
 19 20  1  0  0  0
 19 24  1  0  0  0
 20 21  2  0  0  0
 20 97  1  0  0  0
 21 23  1  0  0  0
 22 28  1  0  0  0
 22 32  2  0  0  0
 26 27  1  0  0  0
 28 98  1  0  0  0
 28 99  1  0  0  0
 29100  1  0  0  0
 29101  1  0  0  0
 33 34  1  0  0  0
 33 66  1  0  0  0
 33 70  2  0  0  0
 34 36  1  0  0  0
 34 59  1  0  0  0
 34102  1  0  0  0
 35 44  2  0  0  0
 35 45  1  0  0  0
 35 68  1  0  0  0
 36 56  1  0  0  0
 36103  1  0  0  0
 37 39  1  0  0  0
 37 47  1  0  0  0
 37 66  1  0  0  0
 37104  1  0  0  0
 38 43  2  0  0  0
 38 46  1  0  0  0
 38 47  1  0  0  0
 39 64  1  0  0  0
 39 67  2  0  0  0
 40 52  1  0  0  0
 40 53  2  0  0  0
 40 58  1  0  0  0
 41105  1  0  0  0
 41106  1  0  0  0
 41107  1  0  0  0
 41 48  1  0  0  0
 42 43  1  0  0  0
 42 66  1  0  0  0
 42108  1  0  0  0
 42109  1  0  0  0
 43 44  1  0  0  0
 44110  1  0  0  0
 45 46  2  0  0  0
 45111  1  0  0  0
 46112  1  0  0  0
 47113  1  0  0  0
 47114  1  0  0  0
 48 56  1  0  0  0
 48 65  1  0  0  0
 48115  1  0  0  0
 49 50  1  0  0  0
 49 53  1  0  0  0
 49 64  1  0  0  0
 49116  1  0  0  0
 50 51  1  0  0  0
 50117  1  0  0  0
 50118  1  0  0  0
 51 52  1  0  0  0
 51119  1  0  0  0
 51120  1  0  0  0
 52121  1  0  0  0
 52122  1  0  0  0
 53 54  1  0  0  0
 54 55  2  0  0  0
 54123  1  0  0  0
 55 57  1  0  0  0
 55124  1  0  0  0
 56 69  2  0  0  0
 57 58  2  0  0  0
 57125  1  0  0  0
 58126  1  0  0  0
 59 60  1  0  0  0
 59 61  1  0  0  0
 59 62  1  0  0  0
 60127  1  0  0  0
 60128  1  0  0  0
 60129  1  0  0  0
 61130  1  0  0  0
 61131  1  0  0  0
 61132  1  0  0  0
 62133  1  0  0  0
 62134  1  0  0  0
 62135  1  0  0  0
 63 65  1  0  0  0
 63136  1  0  0  0
 63137  1  0  0  0
 63138  1  0  0  0
 64139  1  0  0  0
 65140  1  0  0  0
 68 79  1  0  0  0
 71 72  2  0  0  0
 71 75  1  0  0  0
 71141  1  0  0  0
 72 73  1  0  0  0
 72 76  1  0  0  0
 73 74  2  0  0  0
 73 78  1  0  0  0
 74 77  1  0  0  0
 74 80  1  0  0  0
 75 80  2  0  0  0
 75 81  1  0  0  0
 76142  1  0  0  0
 76143  1  0  0  0
 76144  1  0  0  0
 77145  1  0  0  0
 77146  1  0  0  0
 77147  1  0  0  0
 78 79  1  0  0  0
 78148  1  0  0  0
 78149  1  0  0  0
 79150  1  0  0  0
 79151  1  0  0  0
 81152  1  0  0  0
M  ISO  4   1 100  68 101  79 101  81 100
M  END
> <chiral flag>
0

> <version>
0

> <s_m_source_file>
/data/baiqing/PycharmProjects/Reinvent-master-3.2/result/LINK_invent/BTK/process_docking_weight1_custom_sum_contain_oxygen_bond_distance_aromatic_linkinvent_7_9_3/rearranged_h_0027.sdf

> <i_m_source_file_index>
78

> <r_mmod_Potential_Energy-OPLS-2005>
873.646423339844

> <r_mmod_Stretch_Energy-OPLS-2005>
469.356811523438

> <r_mmod_Bend_Energy-OPLS-2005>
418.096466064453

> <r_mmod_Torsional_Energy-OPLS-2005>
206.963500976562

> <r_mmod_Improper_Torsional_Energy-OPLS-2005>
4.85232353210449

> <r_mmod_Van_der_Waal_Energy-OPLS-2005>
129.341293334961

> <r_mmod_Electrostatic_Energy-OPLS-2005>
-508.470947265625

> <r_mmod_Solvation_Energy-OPLS-2005>
-236.605758666992

> <b_mmod_Minimization_Converged-OPLS-2005>
0

> <r_mmod_RMS_Derivative-OPLS-2005>
1.04177498817444

$$$$
78
                    3D
 Structure written by MMmdl.
185193  0  0  1  0            999 V2000
  -30.7813  -14.3111   20.7428 C   0  0  0  0  0  0
  -30.4280  -12.2892   19.3674 C   0  0  0  0  0  0
  -29.4772  -12.5084   18.1776 C   0  0  0  0  0  0
  -28.0070  -12.3535   18.6027 C   0  0  0  0  0  0
  -27.6684  -13.1806   19.8669 C   0  0  2  0  0  0
  -28.6999  -12.9081   20.9768 C   0  0  0  0  0  0
  -25.2637  -13.8088   20.5561 C   0  0  0  0  0  0
  -24.1864  -13.0452   20.9127 C   0  0  0  0  0  0
  -24.6352  -11.6886   20.8715 C   0  0  0  0  0  0
  -23.9000  -10.4304   21.0398 C   0  0  0  0  0  0
  -24.3590   -9.4188   21.9138 C   0  0  0  0  0  0
  -23.6280   -8.2204   22.0690 C   0  0  0  0  0  0
  -22.4244   -8.0268   21.3516 C   0  0  0  0  0  0
  -21.9848   -9.0278   20.4667 C   0  0  0  0  0  0
  -22.7151  -10.2156   20.3092 C   0  0  0  0  0  0
  -21.6842   -6.0733   22.5286 C   0  0  0  0  0  0
  -21.3992   -6.5615   23.8239 C   0  0  0  0  0  0
  -21.3671   -5.6747   24.9191 C   0  0  0  0  0  0
  -21.6056   -4.3033   24.7215 C   0  0  0  0  0  0
  -21.8807   -3.8129   23.4338 C   0  0  0  0  0  0
  -21.9176   -4.6958   22.3385 C   0  0  0  0  0  0
  -22.7931  -13.5338   21.1884 C   0  0  0  0  0  0
  -22.1646   -4.2154   21.0963 F   0  0  0  0  0  0
  -21.5648   -3.4498   25.7721 F   0  0  0  0  0  0
  -30.0510  -13.2062   20.4517 N   0  0  0  0  0  0
  -26.3046  -12.9216   20.3311 N   0  0  0  0  0  0
  -25.9274  -11.6416   20.5729 N   0  0  0  0  0  0
  -22.0569  -12.8353   22.0454 N   0  0  0  0  0  0
  -25.4487  -15.1753   20.3795 N   0  0  0  0  0  0
  -31.7636  -14.6854   20.0955 O   0  0  0  0  0  0
  -21.6590   -6.8859   21.4259 O   0  0  0  0  0  0
  -22.3644  -14.5695   20.6812 O   0  0  0  0  0  0
  -24.6131  -31.8752   23.2217 C   0  0  0  0  0  0
  -25.9036  -32.4873   23.8488 C   0  0  1  0  0  0
  -27.1978  -27.4326   20.1039 C   0  0  0  0  0  0
  -25.5898  -33.8671   24.2405 N   0  0  0  0  0  0
  -23.3996  -30.5050   21.5674 C   0  0  2  0  0  0
  -24.8419  -28.9919   20.1185 C   0  0  0  0  0  0
  -22.7439  -29.4669   22.5088 C   0  0  0  0  0  0
  -18.0298  -28.1397   22.8456 C   0  0  0  0  0  0
  -24.1469  -36.7341   23.2631 C   0  0  0  0  0  0
  -25.9362  -30.8322   21.3849 C   0  0  0  0  0  0
  -26.0066  -29.4737   20.7297 C   0  0  0  0  0  0
  -27.1880  -28.6974   20.7327 C   0  0  0  0  0  0
  -26.0281  -27.0064   19.4434 C   0  0  0  0  0  0
  -24.8456  -27.7540   19.4673 C   0  0  0  0  0  0
  -23.6061  -29.8518   20.1782 C   0  0  0  0  0  0
  -25.4092  -36.3149   24.0343 C   0  0  1  0  0  0
  -20.5877  -28.3629   23.1360 C   0  0  2  0  0  0
  -20.6795  -26.9385   22.5443 C   0  0  0  0  0  0
  -19.5837  -26.6461   21.5157 C   0  0  0  0  0  0
  -18.1955  -26.8003   22.1456 C   0  0  0  0  0  0
  -19.1542  -28.8824   23.2920 C   0  0  0  0  0  0
  -18.9461  -30.1416   23.8970 C   0  0  0  0  0  0
  -17.6470  -30.6563   24.0630 C   0  0  0  0  0  0
  -25.9011  -34.9498   23.5171 C   0  0  0  0  0  0
  -16.5357  -29.9083   23.6353 C   0  0  0  0  0  0
  -16.7289  -28.6532   23.0324 C   0  0  0  0  0  0
  -26.4469  -31.6635   25.0789 C   0  0  0  0  0  0
  -25.3739  -31.3705   26.1538 C   0  0  0  0  0  0
  -27.0265  -30.3067   24.6147 C   0  0  0  0  0  0
  -27.6067  -32.4319   25.7513 C   0  0  0  0  0  0
  -27.5588  -37.1825   24.8467 C   0  0  0  0  0  0
  -21.4174  -29.2989   22.3792 N   0  0  0  0  0  0
  -26.4298  -37.3834   23.9399 N   0  0  0  0  0  0
  -24.6696  -31.0841   22.1159 N   0  0  0  0  0  0
  -23.4217  -28.8164   23.3085 O   0  0  0  0  0  0
  -28.3335  -26.6457   20.0861 O   0  0  0  0  0  0
  -26.5568  -34.8955   22.4728 O   0  0  0  0  0  0
  -23.5313  -32.1512   23.7619 O   0  0  0  0  0  0
  -25.4996  -22.7721   20.8355 C   0  0  0  0  0  0
  -26.6344  -23.4771   21.3393 C   0  0  0  0  0  0
  -25.2030  -22.9070   19.4549 C   0  0  0  0  0  0
  -27.3683  -24.3031   20.4449 C   0  0  0  0  0  0
  -26.1455  -23.5664   18.6313 C   0  0  0  0  0  0
  -27.0309  -23.3831   22.8099 C   0  0  0  0  0  0
  -21.3584  -22.9151   18.8444 C   0  0  0  0  0  0
  -23.8704  -22.4445   18.8726 C   0  0  0  0  0  0
  -24.5565  -21.9559   21.7415 C   0  0  0  0  0  0
  -28.2978  -25.4534   20.9086 C   0  0  0  0  0  0
  -22.7558  -23.4809   19.1268 C   0  0  0  0  0  0
  -27.2881  -17.1499   23.2229 C   0  0  0  0  0  0
  -26.2375  -17.8877   22.3792 C   0  0  0  0  0  0
  -28.6708  -17.2598   22.5659 C   0  0  0  0  0  0
  -24.7806  -17.5493   22.7516 C   0  0  0  0  0  0
  -29.8338  -16.6957   23.4078 C   0  0  0  0  0  0
  -23.7269  -18.1817   21.8158 C   0  0  0  0  0  0
  -30.9422  -16.0743   22.5385 C   0  0  0  0  0  0
  -23.5265  -19.7001   22.0096 C   0  0  0  0  0  0
  -27.2344  -24.1855   19.1143 N   0  0  0  0  0  0
  -30.3904  -14.9080   21.8704 N   0  0  0  0  0  0
  -24.6426  -20.5069   21.4624 N   0  3  0  0  0  0
  -25.8554  -23.7829   16.9386 Cl  0  0  0  0  0  0
  -31.4629  -12.4299   19.0506 H   0  0  0  0  0  0
  -30.3702  -11.2595   19.7212 H   0  0  0  0  0  0
  -29.7084  -11.7993   17.3820 H   0  0  0  0  0  0
  -29.6380  -13.5034   17.7603 H   0  0  0  0  0  0
  -27.8245  -11.2923   18.7897 H   0  0  0  0  0  0
  -27.3456  -12.6276   17.7802 H   0  0  0  0  0  0
  -27.7352  -14.2336   19.5964 H   0  0  0  0  0  0
  -28.6587  -11.8616   21.2829 H   0  0  0  0  0  0
  -28.4228  -13.4743   21.8675 H   0  0  0  0  0  0
  -25.2762   -9.5636   22.4689 H   0  0  0  0  0  0
  -24.0021   -7.4560   22.7365 H   0  0  0  0  0  0
  -21.0722   -8.8818   19.9016 H   0  0  0  0  0  0
  -22.3589  -10.9723   19.6252 H   0  0  0  0  0  0
  -21.1959   -7.6116   23.9762 H   0  0  0  0  0  0
  -21.1534   -6.0449   25.9113 H   0  0  0  0  0  0
  -22.0581   -2.7588   23.2812 H   0  0  0  0  0  0
  -22.4086  -11.9893   22.4704 H   0  0  0  0  0  0
  -21.1330  -13.1601   22.2977 H   0  0  0  0  0  0
  -24.7130  -15.8497   20.5379 H   0  0  0  0  0  0
  -26.3215  -15.5947   20.0922 H   0  0  0  0  0  0
  -26.7122  -32.5617   23.1267 H   0  0  0  0  0  0
  -25.0074  -33.9829   25.0565 H   0  0  0  0  0  0
  -22.6870  -31.3206   21.4373 H   0  0  0  0  0  0
  -23.3743  -35.9670   23.3309 H   0  0  0  0  0  0
  -24.3578  -36.8931   22.2047 H   0  0  0  0  0  0
  -23.7192  -37.6551   23.6618 H   0  0  0  0  0  0
  -26.0531  -31.5883   20.6088 H   0  0  0  0  0  0
  -26.8271  -30.8881   21.9996 H   0  0  0  0  0  0
  -28.0845  -29.0571   21.2177 H   0  0  0  0  0  0
  -25.9797  -26.1203   18.8512 H   0  0  0  0  0  0
  -23.9611  -27.3855   18.9706 H   0  0  0  0  0  0
  -23.7174  -30.6315   19.4241 H   0  0  0  0  0  0
  -22.7321  -29.2676   19.8820 H   0  0  0  0  0  0
  -25.1255  -36.2076   25.0842 H   0  0  0  0  0  0
  -20.9952  -28.3201   24.1492 H   0  0  0  0  0  0
  -20.5652  -26.2224   23.3610 H   0  0  0  0  0  0
  -21.6693  -26.7435   22.1283 H   0  0  0  0  0  0
  -19.7014  -25.6431   21.1065 H   0  0  0  0  0  0
  -19.6867  -27.3390   20.6808 H   0  0  0  0  0  0
  -17.4341  -26.6973   21.3706 H   0  0  0  0  0  0
  -18.0150  -26.0030   22.8688 H   0  0  0  0  0  0
  -19.7952  -30.7186   24.2407 H   0  0  0  0  0  0
  -17.5042  -31.6214   24.5280 H   0  0  0  0  0  0
  -15.5372  -30.2986   23.7683 H   0  0  0  0  0  0
  -15.8686  -28.0882   22.6970 H   0  0  0  0  0  0
  -24.5942  -30.7004   25.7900 H   0  0  0  0  0  0
  -24.8871  -32.2819   26.5018 H   0  0  0  0  0  0
  -25.8105  -30.8892   27.0294 H   0  0  0  0  0  0
  -26.2792  -29.6860   24.1177 H   0  0  0  0  0  0
  -27.4007  -29.7277   25.4608 H   0  0  0  0  0  0
  -27.8667  -30.4397   23.9315 H   0  0  0  0  0  0
  -27.2749  -33.3636   26.2127 H   0  0  0  0  0  0
  -28.3850  -32.6859   25.0293 H   0  0  0  0  0  0
  -28.0775  -31.8410   26.5392 H   0  0  0  0  0  0
  -28.2638  -38.0099   24.7528 H   0  0  0  0  0  0
  -28.1048  -36.2637   24.6275 H   0  0  0  0  0  0
  -27.2301  -37.1467   25.8870 H   0  0  0  0  0  0
  -20.9361  -29.8723   21.7021 H   0  0  0  0  0  0
  -26.0214  -38.2930   24.1392 H   0  0  0  0  0  0
  -26.9827  -22.3481   23.1536 H   0  0  0  0  0  0
  -26.3807  -23.9815   23.4487 H   0  0  0  0  0  0
  -28.0618  -23.7023   22.9646 H   0  0  0  0  0  0
  -20.5867  -23.6486   19.0780 H   0  0  0  0  0  0
  -21.1567  -22.0273   19.4467 H   0  0  0  0  0  0
  -21.2546  -22.6395   17.7946 H   0  0  0  0  0  0
  -23.5837  -21.4813   19.2858 H   0  0  0  0  0  0
  -23.9517  -22.2428   17.8046 H   0  0  0  0  0  0
  -23.5293  -22.2798   21.5913 H   0  0  0  0  0  0
  -24.7457  -22.1298   22.8004 H   0  0  0  0  0  0
  -28.0216  -25.7680   21.9174 H   0  0  0  0  0  0
  -29.3127  -25.0618   20.9591 H   0  0  0  0  0  0
  -22.7720  -23.8327   20.1601 H   0  0  0  0  0  0
  -22.9327  -24.3742   18.5248 H   0  0  0  0  0  0
  -27.0190  -16.0955   23.3233 H   0  0  0  0  0  0
  -27.3100  -17.5641   24.2334 H   0  0  0  0  0  0
  -26.3914  -17.6566   21.3224 H   0  0  0  0  0  0
  -26.4360  -18.9533   22.4917 H   0  0  0  0  0  0
  -28.8887  -18.3017   22.3268 H   0  0  0  0  0  0
  -28.6097  -16.7494   21.6028 H   0  0  0  0  0  0
  -24.5800  -17.8318   23.7845 H   0  0  0  0  0  0
  -24.6582  -16.4677   22.7117 H   0  0  0  0  0  0
  -29.4677  -15.9423   24.1064 H   0  0  0  0  0  0
  -30.2478  -17.4922   24.0274 H   0  0  0  0  0  0
  -22.7715  -17.6925   22.0252 H   0  0  0  0  0  0
  -23.9338  -17.9488   20.7694 H   0  0  0  0  0  0
  -31.7793  -15.7501   23.1541 H   0  0  0  0  0  0
  -31.3250  -16.8008   21.8183 H   0  0  0  0  0  0
  -23.3992  -19.9143   23.0697 H   0  0  0  0  0  0
  -22.5965  -20.0004   21.5198 H   0  0  0  0  0  0
  -29.5876  -14.4903   22.3151 H   0  0  0  0  0  0
  -25.5033  -20.1672   21.8516 H   0  0  0  0  0  0
  -24.6893  -20.3803   20.4639 H   0  0  0  0  0  0
  1 25  1  0  0  0
  1 30  2  0  0  0
  1 91  1  0  0  0
  2  3  1  0  0  0
  2 25  1  0  0  0
  2 94  1  0  0  0
  2 95  1  0  0  0
  3  4  1  0  0  0
  3 96  1  0  0  0
  3 97  1  0  0  0
  4  5  1  0  0  0
  4 98  1  0  0  0
  4 99  1  0  0  0
  5  6  1  0  0  0
  5 26  1  0  0  0
  5100  1  0  0  0
  6 25  1  0  0  0
  6101  1  0  0  0
  6102  1  0  0  0
  7  8  2  0  0  0
  7 26  1  0  0  0
  7 29  1  0  0  0
  8  9  1  0  0  0
  8 22  1  0  0  0
  9 10  1  0  0  0
  9 27  2  0  0  0
 10 11  2  0  0  0
 10 15  1  0  0  0
 11 12  1  0  0  0
 11103  1  0  0  0
 12 13  2  0  0  0
 12104  1  0  0  0
 13 14  1  0  0  0
 13 31  1  0  0  0
 14 15  2  0  0  0
 14105  1  0  0  0
 15106  1  0  0  0
 16 17  2  0  0  0
 16 21  1  0  0  0
 16 31  1  0  0  0
 17 18  1  0  0  0
 17107  1  0  0  0
 18 19  2  0  0  0
 18108  1  0  0  0
 19 20  1  0  0  0
 19 24  1  0  0  0
 20 21  2  0  0  0
 20109  1  0  0  0
 21 23  1  0  0  0
 22 28  1  0  0  0
 22 32  2  0  0  0
 26 27  1  0  0  0
 28110  1  0  0  0
 28111  1  0  0  0
 29112  1  0  0  0
 29113  1  0  0  0
 33 34  1  0  0  0
 33 66  1  0  0  0
 33 70  2  0  0  0
 34 36  1  0  0  0
 34 59  1  0  0  0
 34114  1  0  0  0
 35 44  2  0  0  0
 35 45  1  0  0  0
 35 68  1  0  0  0
 36 56  1  0  0  0
 36115  1  0  0  0
 37 39  1  0  0  0
 37 47  1  0  0  0
 37 66  1  0  0  0
 37116  1  0  0  0
 38 43  2  0  0  0
 38 46  1  0  0  0
 38 47  1  0  0  0
 39 64  1  0  0  0
 39 67  2  0  0  0
 40 52  1  0  0  0
 40 53  2  0  0  0
 40 58  1  0  0  0
 41117  1  0  0  0
 41118  1  0  0  0
 41119  1  0  0  0
 41 48  1  0  0  0
 42 43  1  0  0  0
 42 66  1  0  0  0
 42120  1  0  0  0
 42121  1  0  0  0
 43 44  1  0  0  0
 44122  1  0  0  0
 45 46  2  0  0  0
 45123  1  0  0  0
 46124  1  0  0  0
 47125  1  0  0  0
 47126  1  0  0  0
 48 56  1  0  0  0
 48 65  1  0  0  0
 48127  1  0  0  0
 49 50  1  0  0  0
 49 53  1  0  0  0
 49 64  1  0  0  0
 49128  1  0  0  0
 50 51  1  0  0  0
 50129  1  0  0  0
 50130  1  0  0  0
 51 52  1  0  0  0
 51131  1  0  0  0
 51132  1  0  0  0
 52133  1  0  0  0
 52134  1  0  0  0
 53 54  1  0  0  0
 54 55  2  0  0  0
 54135  1  0  0  0
 55 57  1  0  0  0
 55136  1  0  0  0
 56 69  2  0  0  0
 57 58  2  0  0  0
 57137  1  0  0  0
 58138  1  0  0  0
 59 60  1  0  0  0
 59 61  1  0  0  0
 59 62  1  0  0  0
 60139  1  0  0  0
 60140  1  0  0  0
 60141  1  0  0  0
 61142  1  0  0  0
 61143  1  0  0  0
 61144  1  0  0  0
 62145  1  0  0  0
 62146  1  0  0  0
 62147  1  0  0  0
 63 65  1  0  0  0
 63148  1  0  0  0
 63149  1  0  0  0
 63150  1  0  0  0
 64151  1  0  0  0
 65152  1  0  0  0
 68 80  1  0  0  0
 71 72  2  0  0  0
 71 73  1  0  0  0
 71 79  1  0  0  0
 72 74  1  0  0  0
 72 76  1  0  0  0
 73 75  2  0  0  0
 73 78  1  0  0  0
 74 80  1  0  0  0
 74 90  2  0  0  0
 75 90  1  0  0  0
 75 93  1  0  0  0
 76153  1  0  0  0
 76154  1  0  0  0
 76155  1  0  0  0
 77 81  1  0  0  0
 77156  1  0  0  0
 77157  1  0  0  0
 77158  1  0  0  0
 78 81  1  0  0  0
 78159  1  0  0  0
 78160  1  0  0  0
 79 92  1  0  0  0
 79161  1  0  0  0
 79162  1  0  0  0
 80163  1  0  0  0
 80164  1  0  0  0
 81165  1  0  0  0
 81166  1  0  0  0
 82 83  1  0  0  0
 82 84  1  0  0  0
 82167  1  0  0  0
 82168  1  0  0  0
 83 85  1  0  0  0
 83169  1  0  0  0
 83170  1  0  0  0
 84 86  1  0  0  0
 84171  1  0  0  0
 84172  1  0  0  0
 85 87  1  0  0  0
 85173  1  0  0  0
 85174  1  0  0  0
 86 88  1  0  0  0
 86175  1  0  0  0
 86176  1  0  0  0
 87 89  1  0  0  0
 87177  1  0  0  0
 87178  1  0  0  0
 88 91  1  0  0  0
 88179  1  0  0  0
 88180  1  0  0  0
 89 92  1  0  0  0
 89181  1  0  0  0
 89182  1  0  0  0
 91183  1  0  0  0
 92184  1  0  0  0
 92185  1  0  0  0
M  CHG  1  92   1
M  ISO  4   1 100  68 101  80 101  91 100
M  END
> <chiral flag>
0

> <version>
0

> <s_m_source_file>
/data/baiqing/PycharmProjects/Reinvent-master-3.2/result/LINK_invent/BTK/process_docking_weight1_custom_sum_contain_oxygen_bond_distance_aromatic_linkinvent_7_9_3/rearranged_h_0027.sdf

> <i_m_source_file_index>
79

> <r_mmod_Potential_Energy-OPLS-2005>
-361.666778564453

> <r_mmod_Stretch_Energy-OPLS-2005>
40.4959602355957

> <r_mmod_Bend_Energy-OPLS-2005>
105.454666137695

> <r_mmod_Torsional_Energy-OPLS-2005>
261.478485107422

> <r_mmod_Improper_Torsional_Energy-OPLS-2005>
3.0944983959198

> <r_mmod_Van_der_Waal_Energy-OPLS-2005>
150.813995361328

> <r_mmod_Electrostatic_Energy-OPLS-2005>
-465.137878417969

> <r_mmod_Solvation_Energy-OPLS-2005>
-471.642486572266

> <b_mmod_Minimization_Converged-OPLS-2005>
0

> <r_mmod_RMS_Derivative-OPLS-2005>
6.8741888999939

$$$$
79
                    3D
 Structure written by MMmdl.
166175  0  0  1  0            999 V2000
  -30.7795  -14.3415   20.6721 C   0  0  0  0  0  0
  -30.4090  -12.2636   19.4017 C   0  0  0  0  0  0
  -29.4821  -12.5379   18.2018 C   0  0  0  0  0  0
  -28.0087  -12.3756   18.6195 C   0  0  0  0  0  0
  -27.6693  -13.1922   19.8910 C   0  0  2  0  0  0
  -28.7107  -12.9389   21.0060 C   0  0  0  0  0  0
  -25.2654  -13.8107   20.5745 C   0  0  0  0  0  0
  -24.1876  -13.0435   20.9174 C   0  0  0  0  0  0
  -24.6391  -11.6890   20.8718 C   0  0  0  0  0  0
  -23.9054  -10.4298   21.0396 C   0  0  0  0  0  0
  -24.3602   -9.4209   21.9177 C   0  0  0  0  0  0
  -23.6285   -8.2237   22.0733 C   0  0  0  0  0  0
  -22.4257   -8.0277   21.3537 C   0  0  0  0  0  0
  -21.9911   -9.0248   20.4631 C   0  0  0  0  0  0
  -22.7230  -10.2131   20.3040 C   0  0  0  0  0  0
  -21.6838   -6.0739   22.5277 C   0  0  0  0  0  0
  -21.4014   -6.5648   23.8218 C   0  0  0  0  0  0
  -21.3673   -5.6783   24.9176 C   0  0  0  0  0  0
  -21.6054   -4.3055   24.7215 C   0  0  0  0  0  0
  -21.8822   -3.8147   23.4342 C   0  0  0  0  0  0
  -21.9197   -4.6970   22.3396 C   0  0  0  0  0  0
  -22.7899  -13.5256   21.1871 C   0  0  0  0  0  0
  -22.1661   -4.2169   21.0965 F   0  0  0  0  0  0
  -21.5636   -3.4536   25.7730 F   0  0  0  0  0  0
  -30.0615  -13.2073   20.4735 N   0  0  0  0  0  0
  -26.3086  -12.9261   20.3479 N   0  0  0  0  0  0
  -25.9319  -11.6437   20.5781 N   0  0  0  0  0  0
  -22.0517  -12.8210   22.0371 N   0  0  0  0  0  0
  -25.4442  -15.1819   20.4185 N   0  0  0  0  0  0
  -31.7904  -14.6329   20.0216 O   0  0  0  0  0  0
  -21.6620   -6.8874   21.4232 O   0  0  0  0  0  0
  -22.3597  -14.5586   20.6755 O   0  0  0  0  0  0
  -24.6045  -31.8731   23.2182 C   0  0  0  0  0  0
  -25.8969  -32.4846   23.8441 C   0  0  1  0  0  0
  -27.2582  -27.5260   20.0775 C   0  0  0  0  0  0
  -25.5869  -33.8650   24.2373 N   0  0  0  0  0  0
  -23.3893  -30.4947   21.5531 C   0  0  2  0  0  0
  -24.8381  -28.9668   20.1231 C   0  0  0  0  0  0
  -22.7374  -29.4661   22.5022 C   0  0  0  0  0  0
  -18.0261  -28.1361   22.8523 C   0  0  0  0  0  0
  -24.1467  -36.7358   23.2640 C   0  0  0  0  0  0
  -25.9052  -30.8668   21.3569 C   0  0  0  0  0  0
  -25.9885  -29.5036   20.7152 C   0  0  0  0  0  0
  -27.1990  -28.7917   20.6922 C   0  0  0  0  0  0
  -26.0971  -26.9824   19.4922 C   0  0  0  0  0  0
  -24.8857  -27.6987   19.5123 C   0  0  0  0  0  0
  -23.5948  -29.8202   20.1698 C   0  0  0  0  0  0
  -25.4087  -36.3136   24.0345 C   0  0  1  0  0  0
  -20.5841  -28.3638   23.1329 C   0  0  2  0  0  0
  -20.6728  -26.9391   22.5400 C   0  0  0  0  0  0
  -19.5705  -26.6375   21.5209 C   0  0  0  0  0  0
  -18.1900  -26.7908   22.1617 C   0  0  0  0  0  0
  -19.1497  -28.8810   23.2930 C   0  0  0  0  0  0
  -18.9427  -30.1422   23.8924 C   0  0  0  0  0  0
  -17.6435  -30.6550   24.0586 C   0  0  0  0  0  0
  -25.9047  -34.9502   23.5175 C   0  0  0  0  0  0
  -16.5329  -29.9054   23.6342 C   0  0  0  0  0  0
  -16.7249  -28.6484   23.0367 C   0  0  0  0  0  0
  -26.4435  -31.6587   25.0736 C   0  0  0  0  0  0
  -25.3713  -31.3648   26.1491 C   0  0  0  0  0  0
  -27.0258  -30.3031   24.6043 C   0  0  0  0  0  0
  -27.6009  -32.4305   25.7492 C   0  0  0  0  0  0
  -27.5576  -37.1847   24.8456 C   0  0  0  0  0  0
  -21.4108  -29.3011   22.3745 N   0  0  0  0  0  0
  -26.4284  -37.3820   23.9428 N   0  0  0  0  0  0
  -24.6511  -31.0899   22.1036 N   0  0  0  0  0  0
  -23.4176  -28.8245   23.3061 O   0  0  0  0  0  0
  -28.4352  -26.8374   19.9489 O   0  0  0  0  0  0
  -26.5605  -34.8929   22.4728 O   0  0  0  0  0  0
  -23.5235  -32.1454   23.7609 O   0  0  0  0  0  0
  -31.8049  -18.4071   22.6026 C   0  0  0  0  0  0
  -31.5593  -17.0252   22.5678 C   0  0  0  0  0  0
  -31.0978  -19.2790   21.7473 C   0  0  0  0  0  0
  -30.1300  -18.7660   20.8534 C   0  0  0  0  0  0
  -30.5826  -16.5105   21.6946 C   0  0  0  0  0  0
  -29.8445  -17.3783   20.8553 C   0  0  0  0  0  0
  -31.3695  -20.7691   21.8291 C   0  0  0  0  0  0
  -29.4057  -19.7048   19.8946 C   0  0  0  0  0  0
  -30.1328  -21.5665   22.2754 C   0  0  0  0  0  0
  -28.4608  -20.6847   20.5956 C   0  0  0  0  0  0
  -28.6885  -24.2475   20.8991 C   0  0  0  0  0  0
  -28.7192  -25.4545   21.8477 C   0  0  0  0  0  0
  -28.2351  -22.9438   21.5619 C   0  0  0  0  0  0
  -29.2350  -26.6947   21.1164 C   0  0  0  0  0  0
  -30.3491  -15.1203   21.6692 N   0  0  0  0  0  0
  -29.1622  -21.8515   21.1849 N   0  3  1  0  0  0
  -28.5912  -16.7401   19.8468 Cl  0  0  0  0  0  0
  -31.4560  -12.3424   19.1054 H   0  0  0  0  0  0
  -30.2793  -11.2410   19.7533 H   0  0  0  0  0  0
  -29.7172  -11.8650   17.3767 H   0  0  0  0  0  0
  -29.6507  -13.5508   17.8297 H   0  0  0  0  0  0
  -27.8253  -11.3163   18.7929 H   0  0  0  0  0  0
  -27.3502  -12.6695   17.8029 H   0  0  0  0  0  0
  -27.7231  -14.2404   19.6102 H   0  0  0  0  0  0
  -28.6638  -11.9004   21.3383 H   0  0  0  0  0  0
  -28.4675  -13.5324   21.8865 H   0  0  0  0  0  0
  -25.2737   -9.5700   22.4769 H   0  0  0  0  0  0
  -24.0008   -7.4625   22.7452 H   0  0  0  0  0  0
  -21.0841   -8.8753   19.8929 H   0  0  0  0  0  0
  -22.3676  -10.9669   19.6148 H   0  0  0  0  0  0
  -21.1986   -7.6155   23.9751 H   0  0  0  0  0  0
  -21.1495   -6.0493   25.9084 H   0  0  0  0  0  0
  -22.0590   -2.7613   23.2813 H   0  0  0  0  0  0
  -22.4081  -11.9807   22.4681 H   0  0  0  0  0  0
  -21.1170  -13.1276   22.2651 H   0  0  0  0  0  0
  -24.6914  -15.8486   20.5499 H   0  0  0  0  0  0
  -26.3237  -15.6174   20.1626 H   0  0  0  0  0  0
  -26.7052  -32.5620   23.1242 H   0  0  0  0  0  0
  -24.9884  -33.9805   25.0404 H   0  0  0  0  0  0
  -22.6780  -31.3101   21.4137 H   0  0  0  0  0  0
  -23.3707  -35.9712   23.3282 H   0  0  0  0  0  0
  -24.3561  -36.9009   22.2062 H   0  0  0  0  0  0
  -23.7198  -37.6546   23.6670 H   0  0  0  0  0  0
  -26.0013  -31.6322   20.5853 H   0  0  0  0  0  0
  -26.7984  -30.9276   21.9674 H   0  0  0  0  0  0
  -28.0869  -29.2494   21.1038 H   0  0  0  0  0  0
  -26.1474  -26.0209   19.0022 H   0  0  0  0  0  0
  -24.0062  -27.2799   19.0411 H   0  0  0  0  0  0
  -23.6961  -30.5890   19.4024 H   0  0  0  0  0  0
  -22.7250  -29.2292   19.8774 H   0  0  0  0  0  0
  -25.1243  -36.2039   25.0834 H   0  0  0  0  0  0
  -20.9949  -28.3145   24.1440 H   0  0  0  0  0  0
  -20.5550  -26.2269   23.3571 H   0  0  0  0  0  0
  -21.6596  -26.7365   22.1246 H   0  0  0  0  0  0
  -19.6850  -25.6299   21.1212 H   0  0  0  0  0  0
  -19.6612  -27.3200   20.6761 H   0  0  0  0  0  0
  -17.4168  -26.6691   21.4031 H   0  0  0  0  0  0
  -18.0300  -25.9981   22.8931 H   0  0  0  0  0  0
  -19.7895  -30.7278   24.2239 H   0  0  0  0  0  0
  -17.4971  -31.6233   24.5178 H   0  0  0  0  0  0
  -15.5337  -30.2988   23.7585 H   0  0  0  0  0  0
  -15.8666  -28.0817   22.7037 H   0  0  0  0  0  0
  -24.5912  -30.6973   25.7840 H   0  0  0  0  0  0
  -24.8853  -32.2761   26.4982 H   0  0  0  0  0  0
  -25.8072  -30.8789   27.0228 H   0  0  0  0  0  0
  -26.2782  -29.6829   24.1068 H   0  0  0  0  0  0
  -27.4004  -29.7247   25.4504 H   0  0  0  0  0  0
  -27.8646  -30.4368   23.9206 H   0  0  0  0  0  0
  -27.2614  -33.3594   26.2086 H   0  0  0  0  0  0
  -28.3807  -32.6864   25.0319 H   0  0  0  0  0  0
  -28.0673  -31.8405   26.5397 H   0  0  0  0  0  0
  -28.2578  -38.0165   24.7548 H   0  0  0  0  0  0
  -28.1085  -36.2703   24.6211 H   0  0  0  0  0  0
  -27.2321  -37.1419   25.8865 H   0  0  0  0  0  0
  -20.9245  -29.8783   21.7041 H   0  0  0  0  0  0
  -26.0173  -38.2894   24.1432 H   0  0  0  0  0  0
  -32.5520  -18.7949   23.2820 H   0  0  0  0  0  0
  -32.1243  -16.3643   23.2076 H   0  0  0  0  0  0
  -31.7527  -21.1381   20.8787 H   0  0  0  0  0  0
  -32.1708  -20.9465   22.5475 H   0  0  0  0  0  0
  -28.8305  -19.1586   19.1520 H   0  0  0  0  0  0
  -30.1405  -20.2427   19.2966 H   0  0  0  0  0  0
  -30.4922  -22.5240   22.6548 H   0  0  0  0  0  0
  -29.6342  -21.0757   23.1124 H   0  0  0  0  0  0
  -27.8330  -20.1810   21.3306 H   0  0  0  0  0  0
  -27.7857  -21.0608   19.8266 H   0  0  0  0  0  0
  -29.6788  -24.1352   20.4535 H   0  0  0  0  0  0
  -28.0169  -24.4469   20.0609 H   0  0  0  0  0  0
  -29.3701  -25.2446   22.6970 H   0  0  0  0  0  0
  -27.7269  -25.6460   22.2571 H   0  0  0  0  0  0
  -27.2139  -22.7274   21.2507 H   0  0  0  0  0  0
  -28.1707  -23.0430   22.6482 H   0  0  0  0  0  0
  -30.2709  -26.5480   20.8082 H   0  0  0  0  0  0
  -29.2361  -27.5610   21.7757 H   0  0  0  0  0  0
  -29.5705  -14.7727   22.2065 H   0  0  0  0  0  0
  -29.6986  -22.2436   20.4255 H   0  0  0  0  0  0
  1 25  1  0  0  0
  1 30  2  0  0  0
  1 85  1  0  0  0
  2  3  1  0  0  0
  2 25  1  0  0  0
  2 88  1  0  0  0
  2 89  1  0  0  0
  3  4  1  0  0  0
  3 90  1  0  0  0
  3 91  1  0  0  0
  4  5  1  0  0  0
  4 92  1  0  0  0
  4 93  1  0  0  0
  5  6  1  0  0  0
  5 26  1  0  0  0
  5 94  1  0  0  0
  6 25  1  0  0  0
  6 95  1  0  0  0
  6 96  1  0  0  0
  7  8  2  0  0  0
  7 26  1  0  0  0
  7 29  1  0  0  0
  8  9  1  0  0  0
  8 22  1  0  0  0
  9 10  1  0  0  0
  9 27  2  0  0  0
 10 11  2  0  0  0
 10 15  1  0  0  0
 11 12  1  0  0  0
 11 97  1  0  0  0
 12 13  2  0  0  0
 12 98  1  0  0  0
 13 14  1  0  0  0
 13 31  1  0  0  0
 14 15  2  0  0  0
 14 99  1  0  0  0
 15100  1  0  0  0
 16 17  2  0  0  0
 16 21  1  0  0  0
 16 31  1  0  0  0
 17 18  1  0  0  0
 17101  1  0  0  0
 18 19  2  0  0  0
 18102  1  0  0  0
 19 20  1  0  0  0
 19 24  1  0  0  0
 20 21  2  0  0  0
 20103  1  0  0  0
 21 23  1  0  0  0
 22 28  1  0  0  0
 22 32  2  0  0  0
 26 27  1  0  0  0
 28104  1  0  0  0
 28105  1  0  0  0
 29106  1  0  0  0
 29107  1  0  0  0
 33 34  1  0  0  0
 33 66  1  0  0  0
 33 70  2  0  0  0
 34 36  1  0  0  0
 34 59  1  0  0  0
 34108  1  0  0  0
 35 44  2  0  0  0
 35 45  1  0  0  0
 35 68  1  0  0  0
 36 56  1  0  0  0
 36109  1  0  0  0
 37 39  1  0  0  0
 37 47  1  0  0  0
 37 66  1  0  0  0
 37110  1  0  0  0
 38 43  2  0  0  0
 38 46  1  0  0  0
 38 47  1  0  0  0
 39 64  1  0  0  0
 39 67  2  0  0  0
 40 52  1  0  0  0
 40 53  2  0  0  0
 40 58  1  0  0  0
 41111  1  0  0  0
 41112  1  0  0  0
 41113  1  0  0  0
 41 48  1  0  0  0
 42 43  1  0  0  0
 42 66  1  0  0  0
 42114  1  0  0  0
 42115  1  0  0  0
 43 44  1  0  0  0
 44116  1  0  0  0
 45 46  2  0  0  0
 45117  1  0  0  0
 46118  1  0  0  0
 47119  1  0  0  0
 47120  1  0  0  0
 48 56  1  0  0  0
 48 65  1  0  0  0
 48121  1  0  0  0
 49 50  1  0  0  0
 49 53  1  0  0  0
 49 64  1  0  0  0
 49122  1  0  0  0
 50 51  1  0  0  0
 50123  1  0  0  0
 50124  1  0  0  0
 51 52  1  0  0  0
 51125  1  0  0  0
 51126  1  0  0  0
 52127  1  0  0  0
 52128  1  0  0  0
 53 54  1  0  0  0
 54 55  2  0  0  0
 54129  1  0  0  0
 55 57  1  0  0  0
 55130  1  0  0  0
 56 69  2  0  0  0
 57 58  2  0  0  0
 57131  1  0  0  0
 58132  1  0  0  0
 59 60  1  0  0  0
 59 61  1  0  0  0
 59 62  1  0  0  0
 60133  1  0  0  0
 60134  1  0  0  0
 60135  1  0  0  0
 61136  1  0  0  0
 61137  1  0  0  0
 61138  1  0  0  0
 62139  1  0  0  0
 62140  1  0  0  0
 62141  1  0  0  0
 63 65  1  0  0  0
 63142  1  0  0  0
 63143  1  0  0  0
 63144  1  0  0  0
 64145  1  0  0  0
 65146  1  0  0  0
 68 84  1  0  0  0
 71 72  2  0  0  0
 71 73  1  0  0  0
 71147  1  0  0  0
 72 75  1  0  0  0
 72148  1  0  0  0
 73 74  2  0  0  0
 73 77  1  0  0  0
 74 76  1  0  0  0
 74 78  1  0  0  0
 75 76  2  0  0  0
 75 85  1  0  0  0
 76 87  1  0  0  0
 77 79  1  0  0  0
 77149  1  0  0  0
 77150  1  0  0  0
 78 80  1  0  0  0
 78151  1  0  0  0
 78152  1  0  0  0
 79 86  1  0  0  0
 79153  1  0  0  0
 79154  1  0  0  0
 80 86  1  0  0  0
 80155  1  0  0  0
 80156  1  0  0  0
 81 82  1  0  0  0
 81 83  1  0  0  0
 81157  1  0  0  0
 81158  1  0  0  0
 82 84  1  0  0  0
 82159  1  0  0  0
 82160  1  0  0  0
 83161  1  0  0  0
 83162  1  0  0  0
 83 86  1  0  0  0
 84163  1  0  0  0
 84164  1  0  0  0
 85165  1  0  0  0
 86166  1  0  0  0
M  CHG  1  86   1
M  ISO  4   1 100  68 101  84 101  85 100
M  END
> <chiral flag>
0

> <version>
0

> <s_m_source_file>
/data/baiqing/PycharmProjects/Reinvent-master-3.2/result/LINK_invent/BTK/process_docking_weight1_custom_sum_contain_oxygen_bond_distance_aromatic_linkinvent_7_9_3/rearranged_h_0027.sdf

> <i_m_source_file_index>
80

> <r_mmod_Potential_Energy-OPLS-2005>
-127.783828735352

> <r_mmod_Stretch_Energy-OPLS-2005>
30.9962673187256

> <r_mmod_Bend_Energy-OPLS-2005>
96.9343109130859

> <r_mmod_Torsional_Energy-OPLS-2005>
303.269958496094

> <r_mmod_Improper_Torsional_Energy-OPLS-2005>
3.45392823219299

> <r_mmod_Van_der_Waal_Energy-OPLS-2005>
168.81819152832

> <r_mmod_Electrostatic_Energy-OPLS-2005>
-297.254364013672

> <r_mmod_Solvation_Energy-OPLS-2005>
-441.424377441406

> <b_mmod_Minimization_Converged-OPLS-2005>
0

> <r_mmod_RMS_Derivative-OPLS-2005>
4.87456798553467

$$$$
80
                    3D
 Structure written by MMmdl.
151159  0  0  1  0            999 V2000
  -30.5212  -14.9847   20.4388 C   0  0  0  0  0  0
  -30.4308  -12.6110   19.4990 C   0  0  0  0  0  0
  -29.5193  -12.5563   18.2518 C   0  0  0  0  0  0
  -28.0462  -12.3458   18.6546 C   0  0  0  0  0  0
  -27.6209  -13.2626   19.8317 C   0  0  2  0  0  0
  -28.6613  -13.2846   20.9678 C   0  0  0  0  0  0
  -25.2409  -13.8227   20.5702 C   0  0  0  0  0  0
  -24.1758  -13.0422   20.9235 C   0  0  0  0  0  0
  -24.6398  -11.6919   20.8713 C   0  0  0  0  0  0
  -23.9100  -10.4280   21.0378 C   0  0  0  0  0  0
  -24.3639   -9.4212   21.9168 C   0  0  0  0  0  0
  -23.6333   -8.2235   22.0722 C   0  0  0  0  0  0
  -22.4307   -8.0277   21.3522 C   0  0  0  0  0  0
  -21.9948   -9.0252   20.4608 C   0  0  0  0  0  0
  -22.7270  -10.2139   20.3040 C   0  0  0  0  0  0
  -21.6855   -6.0750   22.5294 C   0  0  0  0  0  0
  -21.4006   -6.5642   23.8233 C   0  0  0  0  0  0
  -21.3669   -5.6783   24.9184 C   0  0  0  0  0  0
  -21.6051   -4.3056   24.7219 C   0  0  0  0  0  0
  -21.8812   -3.8148   23.4342 C   0  0  0  0  0  0
  -21.9186   -4.6971   22.3396 C   0  0  0  0  0  0
  -22.7777  -13.5152   21.1913 C   0  0  0  0  0  0
  -22.1649   -4.2154   21.0977 F   0  0  0  0  0  0
  -21.5651   -3.4541   25.7735 F   0  0  0  0  0  0
  -29.9326  -13.7170   20.3721 N   0  0  0  0  0  0
  -26.2840  -12.9490   20.3192 N   0  0  0  0  0  0
  -25.9326  -11.6600   20.5636 N   0  0  0  0  0  0
  -22.0420  -12.8151   22.0483 N   0  0  0  0  0  0
  -25.4048  -15.1953   20.4128 N   0  0  0  0  0  0
  -31.7328  -15.0224   20.1805 O   0  0  0  0  0  0
  -21.6657   -6.8901   21.4255 O   0  0  0  0  0  0
  -22.3470  -14.5465   20.6763 O   0  0  0  0  0  0
  -24.6510  -31.8385   23.1799 C   0  0  0  0  0  0
  -25.9249  -32.4655   23.8221 C   0  0  1  0  0  0
  -27.2018  -27.0777   20.1569 C   0  0  0  0  0  0
  -25.5967  -33.8464   24.2133 N   0  0  0  0  0  0
  -23.4571  -30.4570   21.5270 C   0  0  2  0  0  0
  -24.9016  -28.8732   20.1056 C   0  0  0  0  0  0
  -22.7616  -29.4525   22.4789 C   0  0  0  0  0  0
  -18.0331  -28.1425   22.8481 C   0  0  0  0  0  0
  -24.1484  -36.7219   23.2654 C   0  0  0  0  0  0
  -26.0175  -30.6912   21.3902 C   0  0  0  0  0  0
  -26.0821  -29.2981   20.7304 C   0  0  0  0  0  0
  -27.2319  -28.4172   20.7364 C   0  0  0  0  0  0
  -25.9956  -26.7659   19.4917 C   0  0  0  0  0  0
  -24.8734  -27.6241   19.4702 C   0  0  0  0  0  0
  -23.6863  -29.7873   20.1447 C   0  0  0  0  0  0
  -25.4128  -36.2980   24.0309 C   0  0  1  0  0  0
  -20.5959  -28.3754   23.1209 C   0  0  2  0  0  0
  -20.6815  -26.9450   22.5405 C   0  0  0  0  0  0
  -19.5783  -26.6382   21.5223 C   0  0  0  0  0  0
  -18.1956  -26.7956   22.1627 C   0  0  0  0  0  0
  -19.1598  -28.8907   23.2837 C   0  0  0  0  0  0
  -18.9508  -30.1512   23.8853 C   0  0  0  0  0  0
  -17.6502  -30.6605   24.0588 C   0  0  0  0  0  0
  -25.9084  -34.9380   23.5018 C   0  0  0  0  0  0
  -16.5389  -29.9113   23.6363 C   0  0  0  0  0  0
  -16.7314  -28.6551   23.0334 C   0  0  0  0  0  0
  -26.4533  -31.6555   25.0706 C   0  0  0  0  0  0
  -25.3690  -31.3808   26.1375 C   0  0  0  0  0  0
  -27.0431  -30.2942   24.6354 C   0  0  0  0  0  0
  -27.6022  -32.4374   25.7505 C   0  0  0  0  0  0
  -27.5569  -37.1760   24.8475 C   0  0  0  0  0  0
  -21.4302  -29.3060   22.3566 N   0  0  0  0  0  0
  -26.4271  -37.3716   23.9438 N   0  0  0  0  0  0
  -24.7293  -31.0186   22.0865 N   0  0  0  0  0  0
  -23.4237  -28.8100   23.2975 O   0  0  0  0  0  0
  -28.2314  -26.0553   20.2338 O   0  0  0  0  0  0
  -26.5682  -34.8906   22.4617 O   0  0  0  0  0  0
  -23.5617  -32.1273   23.6998 O   0  0  0  0  0  0
  -30.9990  -18.1093   21.6661 C   0  0  0  0  0  0
  -29.9631  -17.6988   20.7825 C   0  0  0  0  0  0
  -31.2635  -19.4952   21.8296 C   0  0  0  0  0  0
  -29.4490  -20.1657   20.5953 C   0  0  0  0  0  0
  -31.8005  -17.1207   22.5131 C   0  0  0  0  0  0
  -28.5018  -21.4885   20.2374 C   0  0  0  0  0  0
  -28.9244  -23.1460   20.3767 C   0  0  0  0  0  0
  -27.9238  -24.5088   20.1066 C   0  0  0  0  0  0
  -29.1784  -18.8080   20.3209 N   0  0  0  0  0  0
  -30.5100  -20.4794   21.3103 N   0  0  0  0  0  0
  -29.7263  -16.1808   20.5496 N   0  0  0  0  0  0
  -32.6129  -20.0301   22.7715 Cl  0  0  0  0  0  0
  -31.4650  -12.7640   19.1917 H   0  0  0  0  0  0
  -30.4195  -11.6555   20.0276 H   0  0  0  0  0  0
  -29.8438  -11.7681   17.5709 H   0  0  0  0  0  0
  -29.6140  -13.4918   17.6986 H   0  0  0  0  0  0
  -27.9203  -11.3001   18.9335 H   0  0  0  0  0  0
  -27.3909  -12.5072   17.7979 H   0  0  0  0  0  0
  -27.5836  -14.2712   19.4197 H   0  0  0  0  0  0
  -28.7454  -12.3011   21.4298 H   0  0  0  0  0  0
  -28.3547  -13.9748   21.7568 H   0  0  0  0  0  0
  -25.2747   -9.5705   22.4809 H   0  0  0  0  0  0
  -24.0033   -7.4613   22.7434 H   0  0  0  0  0  0
  -21.0889   -8.8801   19.8902 H   0  0  0  0  0  0
  -22.3719  -10.9717   19.6201 H   0  0  0  0  0  0
  -21.2004   -7.6150   23.9752 H   0  0  0  0  0  0
  -21.1496   -6.0498   25.9098 H   0  0  0  0  0  0
  -22.0578   -2.7616   23.2828 H   0  0  0  0  0  0
  -22.4045  -11.9831   22.4893 H   0  0  0  0  0  0
  -21.1028  -13.1175   22.2646 H   0  0  0  0  0  0
  -24.6177  -15.8321   20.4807 H   0  0  0  0  0  0
  -26.2364  -15.6370   20.0430 H   0  0  0  0  0  0
  -26.7337  -32.5221   23.0964 H   0  0  0  0  0  0
  -25.0110  -33.9577   25.0273 H   0  0  0  0  0  0
  -22.7654  -31.2871   21.3694 H   0  0  0  0  0  0
  -23.3735  -35.9550   23.3284 H   0  0  0  0  0  0
  -24.3565  -36.8881   22.2066 H   0  0  0  0  0  0
  -23.7218  -37.6408   23.6719 H   0  0  0  0  0  0
  -26.1901  -31.4430   20.6187 H   0  0  0  0  0  0
  -26.8828  -30.7321   22.0399 H   0  0  0  0  0  0
  -28.1269  -28.7334   21.2550 H   0  0  0  0  0  0
  -25.8815  -25.8067   19.0061 H   0  0  0  0  0  0
  -23.9721  -27.2967   18.9664 H   0  0  0  0  0  0
  -23.8377  -30.5644   19.3921 H   0  0  0  0  0  0
  -22.7975  -29.2369   19.8267 H   0  0  0  0  0  0
  -25.1308  -36.1768   25.0790 H   0  0  0  0  0  0
  -21.0059  -28.3323   24.1330 H   0  0  0  0  0  0
  -20.5697  -26.2368   23.3628 H   0  0  0  0  0  0
  -21.6663  -26.7438   22.1197 H   0  0  0  0  0  0
  -19.6939  -25.6274   21.1281 H   0  0  0  0  0  0
  -19.6719  -27.3181   20.6740 H   0  0  0  0  0  0
  -17.4233  -26.6716   21.4026 H   0  0  0  0  0  0
  -18.0360  -26.0119   22.9043 H   0  0  0  0  0  0
  -19.7989  -30.7368   24.2132 H   0  0  0  0  0  0
  -17.5058  -31.6260   24.5236 H   0  0  0  0  0  0
  -15.5391  -30.3004   23.7699 H   0  0  0  0  0  0
  -15.8711  -28.0881   22.7003 H   0  0  0  0  0  0
  -24.5808  -30.7248   25.7673 H   0  0  0  0  0  0
  -24.8969  -32.3040   26.4753 H   0  0  0  0  0  0
  -25.7898  -30.8965   27.0184 H   0  0  0  0  0  0
  -26.3087  -29.6622   24.1347 H   0  0  0  0  0  0
  -27.4023  -29.7284   25.4957 H   0  0  0  0  0  0
  -27.8991  -30.4187   23.9717 H   0  0  0  0  0  0
  -27.2549  -33.3681   26.2016 H   0  0  0  0  0  0
  -28.3849  -32.6925   25.0349 H   0  0  0  0  0  0
  -28.0670  -31.8562   26.5478 H   0  0  0  0  0  0
  -28.2538  -38.0099   24.7520 H   0  0  0  0  0  0
  -28.1084  -36.2606   24.6252 H   0  0  0  0  0  0
  -27.2303  -37.1363   25.8886 H   0  0  0  0  0  0
  -20.9512  -29.8779   21.6748 H   0  0  0  0  0  0
  -26.0086  -38.2766   24.1454 H   0  0  0  0  0  0
  -32.7432  -16.8660   22.0274 H   0  0  0  0  0  0
  -31.2449  -16.2103   22.7305 H   0  0  0  0  0  0
  -32.0233  -17.5404   23.4968 H   0  0  0  0  0  0
  -27.6020  -21.3473   20.8378 H   0  0  0  0  0  0
  -28.1652  -21.3349   19.2130 H   0  0  0  0  0  0
  -29.7858  -23.2757   19.7226 H   0  0  0  0  0  0
  -29.3308  -23.2647   21.3817 H   0  0  0  0  0  0
  -27.0395  -24.3454   20.7252 H   0  0  0  0  0  0
  -27.5648  -24.3786   19.0868 H   0  0  0  0  0  0
  -28.7467  -15.9690   20.4505 H   0  0  0  0  0  0
  1 25  1  0  0  0
  1 30  2  0  0  0
  1 81  1  0  0  0
  2  3  1  0  0  0
  2 25  1  0  0  0
  2 83  1  0  0  0
  2 84  1  0  0  0
  3  4  1  0  0  0
  3 85  1  0  0  0
  3 86  1  0  0  0
  4  5  1  0  0  0
  4 87  1  0  0  0
  4 88  1  0  0  0
  5  6  1  0  0  0
  5 26  1  0  0  0
  5 89  1  0  0  0
  6 25  1  0  0  0
  6 90  1  0  0  0
  6 91  1  0  0  0
  7  8  2  0  0  0
  7 26  1  0  0  0
  7 29  1  0  0  0
  8  9  1  0  0  0
  8 22  1  0  0  0
  9 10  1  0  0  0
  9 27  2  0  0  0
 10 11  2  0  0  0
 10 15  1  0  0  0
 11 12  1  0  0  0
 11 92  1  0  0  0
 12 13  2  0  0  0
 12 93  1  0  0  0
 13 14  1  0  0  0
 13 31  1  0  0  0
 14 15  2  0  0  0
 14 94  1  0  0  0
 15 95  1  0  0  0
 16 17  2  0  0  0
 16 21  1  0  0  0
 16 31  1  0  0  0
 17 18  1  0  0  0
 17 96  1  0  0  0
 18 19  2  0  0  0
 18 97  1  0  0  0
 19 20  1  0  0  0
 19 24  1  0  0  0
 20 21  2  0  0  0
 20 98  1  0  0  0
 21 23  1  0  0  0
 22 28  1  0  0  0
 22 32  2  0  0  0
 26 27  1  0  0  0
 28 99  1  0  0  0
 28100  1  0  0  0
 29101  1  0  0  0
 29102  1  0  0  0
 33 34  1  0  0  0
 33 66  1  0  0  0
 33 70  2  0  0  0
 34 36  1  0  0  0
 34 59  1  0  0  0
 34103  1  0  0  0
 35 44  2  0  0  0
 35 45  1  0  0  0
 35 68  1  0  0  0
 36 56  1  0  0  0
 36104  1  0  0  0
 37 39  1  0  0  0
 37 47  1  0  0  0
 37 66  1  0  0  0
 37105  1  0  0  0
 38 43  2  0  0  0
 38 46  1  0  0  0
 38 47  1  0  0  0
 39 64  1  0  0  0
 39 67  2  0  0  0
 40 52  1  0  0  0
 40 53  2  0  0  0
 40 58  1  0  0  0
 41106  1  0  0  0
 41107  1  0  0  0
 41108  1  0  0  0
 41 48  1  0  0  0
 42 43  1  0  0  0
 42 66  1  0  0  0
 42109  1  0  0  0
 42110  1  0  0  0
 43 44  1  0  0  0
 44111  1  0  0  0
 45 46  2  0  0  0
 45112  1  0  0  0
 46113  1  0  0  0
 47114  1  0  0  0
 47115  1  0  0  0
 48 56  1  0  0  0
 48 65  1  0  0  0
 48116  1  0  0  0
 49 50  1  0  0  0
 49 53  1  0  0  0
 49 64  1  0  0  0
 49117  1  0  0  0
 50 51  1  0  0  0
 50118  1  0  0  0
 50119  1  0  0  0
 51 52  1  0  0  0
 51120  1  0  0  0
 51121  1  0  0  0
 52122  1  0  0  0
 52123  1  0  0  0
 53 54  1  0  0  0
 54 55  2  0  0  0
 54124  1  0  0  0
 55 57  1  0  0  0
 55125  1  0  0  0
 56 69  2  0  0  0
 57 58  2  0  0  0
 57126  1  0  0  0
 58127  1  0  0  0
 59 60  1  0  0  0
 59 61  1  0  0  0
 59 62  1  0  0  0
 60128  1  0  0  0
 60129  1  0  0  0
 60130  1  0  0  0
 61131  1  0  0  0
 61132  1  0  0  0
 61133  1  0  0  0
 62134  1  0  0  0
 62135  1  0  0  0
 62136  1  0  0  0
 63 65  1  0  0  0
 63137  1  0  0  0
 63138  1  0  0  0
 63139  1  0  0  0
 64140  1  0  0  0
 65141  1  0  0  0
 68 78  1  0  0  0
 71 72  2  0  0  0
 71 73  1  0  0  0
 71 75  1  0  0  0
 72 79  1  0  0  0
 72 81  1  0  0  0
 73 80  2  0  0  0
 73 82  1  0  0  0
 74 76  1  0  0  0
 74 79  2  0  0  0
 74 80  1  0  0  0
 75142  1  0  0  0
 75143  1  0  0  0
 75144  1  0  0  0
 76 77  1  0  0  0
 76145  1  0  0  0
 76146  1  0  0  0
 77 78  1  0  0  0
 77147  1  0  0  0
 77148  1  0  0  0
 78149  1  0  0  0
 78150  1  0  0  0
 81151  1  0  0  0
M  ISO  4   1 100  68 101  78 101  81 100
M  END
> <chiral flag>
0

> <version>
0

> <s_m_source_file>
/data/baiqing/PycharmProjects/Reinvent-master-3.2/result/LINK_invent/BTK/process_docking_weight1_custom_sum_contain_oxygen_bond_distance_aromatic_linkinvent_7_9_3/rearranged_h_0027.sdf

> <i_m_source_file_index>
81

> <r_mmod_Potential_Energy-OPLS-2005>
169.091445922852

> <r_mmod_Stretch_Energy-OPLS-2005>
311.716217041016

> <r_mmod_Bend_Energy-OPLS-2005>
279.768768310547

> <r_mmod_Torsional_Energy-OPLS-2005>
232.903335571289

> <r_mmod_Improper_Torsional_Energy-OPLS-2005>
6.51400327682495

> <r_mmod_Van_der_Waal_Energy-OPLS-2005>
142.908325195312

> <r_mmod_Electrostatic_Energy-OPLS-2005>
-812.772094726562

> <r_mmod_Solvation_Energy-OPLS-2005>
-224.157974243164

> <b_mmod_Minimization_Converged-OPLS-2005>
0

> <r_mmod_RMS_Derivative-OPLS-2005>
4.18893051147461

$$$$
81
                    3D
 Structure written by MMmdl.
178187  0  0  1  0            999 V2000
  -30.7587  -14.4981   20.5016 C   0  0  0  0  0  0
  -30.3850  -12.3219   19.4084 C   0  0  0  0  0  0
  -29.4573  -12.4554   18.1889 C   0  0  0  0  0  0
  -27.9866  -12.3149   18.6228 C   0  0  0  0  0  0
  -27.6264  -13.1964   19.8468 C   0  0  2  0  0  0
  -28.6894  -13.1106   20.9634 C   0  0  0  0  0  0
  -25.2398  -13.7936   20.5826 C   0  0  0  0  0  0
  -24.1693  -13.0226   20.9272 C   0  0  0  0  0  0
  -24.6299  -11.6742   20.8792 C   0  0  0  0  0  0
  -23.8996  -10.4171   21.0422 C   0  0  0  0  0  0
  -24.3565   -9.4097   21.9196 C   0  0  0  0  0  0
  -23.6243   -8.2139   22.0738 C   0  0  0  0  0  0
  -22.4229   -8.0200   21.3534 C   0  0  0  0  0  0
  -21.9858   -9.0160   20.4631 C   0  0  0  0  0  0
  -22.7177  -10.2034   20.3056 C   0  0  0  0  0  0
  -21.6819   -6.0698   22.5275 C   0  0  0  0  0  0
  -21.3971   -6.5612   23.8203 C   0  0  0  0  0  0
  -21.3656   -5.6770   24.9167 C   0  0  0  0  0  0
  -21.6060   -4.3031   24.7230 C   0  0  0  0  0  0
  -21.8833   -3.8120   23.4350 C   0  0  0  0  0  0
  -21.9181   -4.6935   22.3401 C   0  0  0  0  0  0
  -22.7744  -13.5067   21.1938 C   0  0  0  0  0  0
  -22.1661   -4.2126   21.0985 F   0  0  0  0  0  0
  -21.5657   -3.4525   25.7749 F   0  0  0  0  0  0
  -29.9961  -13.3796   20.3530 N   0  0  0  0  0  0
  -26.2836  -12.9176   20.3366 N   0  0  0  0  0  0
  -25.9221  -11.6347   20.5800 N   0  0  0  0  0  0
  -22.0399  -12.8048   22.0485 N   0  0  0  0  0  0
  -25.3842  -15.1616   20.4414 N   0  0  0  0  0  0
  -31.9637  -14.4623   20.2604 O   0  0  0  0  0  0
  -21.6595   -6.8810   21.4233 O   0  0  0  0  0  0
  -22.3471  -14.5413   20.6832 O   0  0  0  0  0  0
  -24.6113  -31.8727   23.2155 C   0  0  0  0  0  0
  -25.9018  -32.4861   23.8435 C   0  0  1  0  0  0
  -27.2263  -27.4697   20.0898 C   0  0  0  0  0  0
  -25.5881  -33.8655   24.2356 N   0  0  0  0  0  0
  -23.3954  -30.4994   21.5555 C   0  0  2  0  0  0
  -24.8397  -28.9732   20.1143 C   0  0  0  0  0  0
  -22.7391  -29.4683   22.5009 C   0  0  0  0  0  0
  -18.0247  -28.1401   22.8512 C   0  0  0  0  0  0
  -24.1457  -36.7321   23.2646 C   0  0  0  0  0  0
  -25.9200  -30.8512   21.3591 C   0  0  0  0  0  0
  -25.9978  -29.4857   20.7121 C   0  0  0  0  0  0
  -27.1957  -28.7407   20.6981 C   0  0  0  0  0  0
  -26.0561  -26.9746   19.4680 C   0  0  0  0  0  0
  -24.8617  -27.7155   19.4893 C   0  0  0  0  0  0
  -23.6018  -29.8387   20.1666 C   0  0  0  0  0  0
  -25.4089  -36.3142   24.0346 C   0  0  1  0  0  0
  -20.5848  -28.3668   23.1337 C   0  0  2  0  0  0
  -20.6738  -26.9408   22.5434 C   0  0  0  0  0  0
  -19.5715  -26.6389   21.5237 C   0  0  0  0  0  0
  -18.1890  -26.7946   22.1639 C   0  0  0  0  0  0
  -19.1508  -28.8846   23.2927 C   0  0  0  0  0  0
  -18.9448  -30.1450   23.8951 C   0  0  0  0  0  0
  -17.6452  -30.6602   24.0579 C   0  0  0  0  0  0
  -25.9014  -34.9509   23.5146 C   0  0  0  0  0  0
  -16.5328  -29.9124   23.6326 C   0  0  0  0  0  0
  -16.7237  -28.6530   23.0356 C   0  0  0  0  0  0
  -26.4452  -31.6638   25.0756 C   0  0  0  0  0  0
  -25.3741  -31.3728   26.1523 C   0  0  0  0  0  0
  -27.0256  -30.3093   24.6080 C   0  0  0  0  0  0
  -27.6018  -32.4358   25.7526 C   0  0  0  0  0  0
  -27.5566  -37.1817   24.8477 C   0  0  0  0  0  0
  -21.4111  -29.3037   22.3748 N   0  0  0  0  0  0
  -26.4277  -37.3834   23.9433 N   0  0  0  0  0  0
  -24.6611  -31.0863   22.1037 N   0  0  0  0  0  0
  -23.4178  -28.8203   23.3029 O   0  0  0  0  0  0
  -28.3994  -26.7535   20.0867 O   0  0  0  0  0  0
  -26.5562  -34.8948   22.4705 O   0  0  0  0  0  0
  -23.5311  -32.1458   23.7574 O   0  0  0  0  0  0
  -27.9973  -16.7321   20.0032 C   0  0  0  0  0  0
  -27.4816  -17.4173   17.7201 C   0  0  0  0  0  0
  -29.2641  -16.2292   19.6217 C   0  0  0  0  0  0
  -27.1372  -17.3538   19.0789 C   0  0  0  0  0  0
  -28.7180  -16.8844   17.3047 C   0  0  0  0  0  0
  -29.6201  -16.3255   18.2405 C   0  0  0  0  0  0
  -32.7391  -18.4539   21.7628 C   0  0  0  0  0  0
  -30.5732  -18.9974   22.8156 C   0  0  0  0  0  0
  -32.1154  -17.3149   20.9395 C   0  0  0  0  0  0
  -29.8666  -17.8589   22.0639 C   0  0  0  0  0  0
  -31.7389  -19.5914   22.0014 C   0  0  2  0  0  0
  -30.8112  -16.7167   21.5591 C   0  0  1  0  0  0
  -26.5377  -18.0595   16.7172 C   0  0  0  0  0  0
  -31.3427  -20.2707   20.6625 C   0  0  0  0  0  0
  -30.4595  -21.5171   20.7988 C   0  0  0  0  0  0
  -30.0388  -22.0868   19.4310 C   0  0  0  0  0  0
  -28.9024  -23.1117   19.5549 C   0  0  0  0  0  0
  -29.3825  -24.5447   19.8390 C   0  0  0  0  0  0
  -28.2887  -25.3918   20.5024 C   0  0  0  0  0  0
  -30.1481  -15.7162   20.6502 N   0  0  0  0  0  0
  -25.9640  -17.8812   19.5036 F   0  0  0  0  0  0
  -29.0518  -16.9368   15.9918 F   0  0  0  0  0  0
  -31.1625  -15.8388   17.6285 Cl  0  0  0  0  0  0
  -31.4263  -12.3909   19.0890 H   0  0  0  0  0  0
  -30.2726  -11.3422   19.8765 H   0  0  0  0  0  0
  -29.6976  -11.6952   17.4445 H   0  0  0  0  0  0
  -29.6078  -13.4142   17.6937 H   0  0  0  0  0  0
  -27.8173  -11.2642   18.8607 H   0  0  0  0  0  0
  -27.3225  -12.5491   17.7890 H   0  0  0  0  0  0
  -27.6090  -14.2097   19.4681 H   0  0  0  0  0  0
  -28.6888  -12.1216   21.4242 H   0  0  0  0  0  0
  -28.4680  -13.8246   21.7590 H   0  0  0  0  0  0
  -25.2724   -9.5572   22.4767 H   0  0  0  0  0  0
  -23.9966   -7.4513   22.7423 H   0  0  0  0  0  0
  -21.0812   -8.8644   19.8936 H   0  0  0  0  0  0
  -22.3631  -10.9568   19.6170 H   0  0  0  0  0  0
  -21.1919   -7.6111   23.9688 H   0  0  0  0  0  0
  -21.1481   -6.0504   25.9071 H   0  0  0  0  0  0
  -22.0627   -2.7590   23.2849 H   0  0  0  0  0  0
  -22.4043  -11.9680   22.4800 H   0  0  0  0  0  0
  -21.1046  -13.1096   22.2770 H   0  0  0  0  0  0
  -24.6034  -15.7937   20.5737 H   0  0  0  0  0  0
  -26.2101  -15.6319   20.1052 H   0  0  0  0  0  0
  -26.7100  -32.5586   23.1214 H   0  0  0  0  0  0
  -25.0048  -33.9841   25.0505 H   0  0  0  0  0  0
  -22.6835  -31.3177   21.4233 H   0  0  0  0  0  0
  -23.3730  -35.9643   23.3329 H   0  0  0  0  0  0
  -24.3546  -36.8915   22.2057 H   0  0  0  0  0  0
  -23.7177  -37.6522   23.6635 H   0  0  0  0  0  0
  -26.0125  -31.6135   20.5829 H   0  0  0  0  0  0
  -26.8157  -30.9181   21.9643 H   0  0  0  0  0  0
  -28.0912  -29.1336   21.1602 H   0  0  0  0  0  0
  -26.0595  -26.0289   18.9462 H   0  0  0  0  0  0
  -23.9761  -27.3265   19.0052 H   0  0  0  0  0  0
  -23.7110  -30.6198   19.4129 H   0  0  0  0  0  0
  -22.7243  -29.2639   19.8651 H   0  0  0  0  0  0
  -25.1255  -36.2012   25.0834 H   0  0  0  0  0  0
  -20.9939  -28.3217   24.1459 H   0  0  0  0  0  0
  -20.5630  -26.2283   23.3623 H   0  0  0  0  0  0
  -21.6604  -26.7457   22.1213 H   0  0  0  0  0  0
  -19.6861  -25.6299   21.1262 H   0  0  0  0  0  0
  -19.6651  -27.3194   20.6766 H   0  0  0  0  0  0
  -17.4165  -26.6720   21.4026 H   0  0  0  0  0  0
  -18.0267  -26.0075   22.9014 H   0  0  0  0  0  0
  -19.7934  -30.7246   24.2349 H   0  0  0  0  0  0
  -17.5019  -31.6292   24.5170 H   0  0  0  0  0  0
  -15.5334  -30.3052   23.7639 H   0  0  0  0  0  0
  -15.8623  -28.0860   22.7075 H   0  0  0  0  0  0
  -24.5908  -30.7071   25.7886 H   0  0  0  0  0  0
  -24.8937  -32.2877   26.4999 H   0  0  0  0  0  0
  -25.8120  -30.8899   27.0270 H   0  0  0  0  0  0
  -26.2777  -29.6897   24.1128 H   0  0  0  0  0  0
  -27.4034  -29.7279   25.4493 H   0  0  0  0  0  0
  -27.8598  -30.4415   23.9196 H   0  0  0  0  0  0
  -27.2619  -33.3644   26.2124 H   0  0  0  0  0  0
  -28.3829  -32.6960   25.0372 H   0  0  0  0  0  0
  -28.0692  -31.8493   26.5446 H   0  0  0  0  0  0
  -28.2601  -38.0099   24.7531 H   0  0  0  0  0  0
  -28.1032  -36.2635   24.6272 H   0  0  0  0  0  0
  -27.2297  -37.1443   25.8885 H   0  0  0  0  0  0
  -20.9255  -29.8812   21.7024 H   0  0  0  0  0  0
  -26.0159  -38.2903   24.1478 H   0  0  0  0  0  0
  -27.6896  -16.6873   21.0392 H   0  0  0  0  0  0
  -33.6318  -18.8290   21.2623 H   0  0  0  0  0  0
  -33.0803  -18.0619   22.7221 H   0  0  0  0  0  0
  -30.9502  -18.6211   23.7675 H   0  0  0  0  0  0
  -29.8562  -19.7756   23.0793 H   0  0  0  0  0  0
  -32.8948  -16.5614   20.8508 H   0  0  0  0  0  0
  -31.9287  -17.6540   19.9218 H   0  0  0  0  0  0
  -29.3641  -18.3644   21.2441 H   0  0  0  0  0  0
  -29.0827  -17.4413   22.6994 H   0  0  0  0  0  0
  -32.2237  -20.3468   22.6215 H   0  0  0  0  0  0
  -31.1132  -16.1747   22.4573 H   0  0  0  0  0  0
  -25.9379  -18.8419   17.1847 H   0  0  0  0  0  0
  -25.8570  -17.3168   16.3007 H   0  0  0  0  0  0
  -27.0877  -18.5137   15.8933 H   0  0  0  0  0  0
  -30.8307  -19.5625   20.0133 H   0  0  0  0  0  0
  -32.2502  -20.5496   20.1254 H   0  0  0  0  0  0
  -30.9719  -22.2816   21.3813 H   0  0  0  0  0  0
  -29.5641  -21.2507   21.3595 H   0  0  0  0  0  0
  -29.6909  -21.2689   18.7988 H   0  0  0  0  0  0
  -30.8908  -22.5244   18.9076 H   0  0  0  0  0  0
  -28.2045  -22.7793   20.3248 H   0  0  0  0  0  0
  -28.3199  -23.1250   18.6318 H   0  0  0  0  0  0
  -29.6901  -25.0012   18.8976 H   0  0  0  0  0  0
  -30.2664  -24.5416   20.4763 H   0  0  0  0  0  0
  -28.3997  -25.3469   21.5867 H   0  0  0  0  0  0
  -27.3137  -24.9516   20.2980 H   0  0  0  0  0  0
  1 25  1  0  0  0
  1 30  2  0  0  0
  1 90  1  0  0  0
  2  3  1  0  0  0
  2 25  1  0  0  0
  2 94  1  0  0  0
  2 95  1  0  0  0
  3  4  1  0  0  0
  3 96  1  0  0  0
  3 97  1  0  0  0
  4  5  1  0  0  0
  4 98  1  0  0  0
  4 99  1  0  0  0
  5  6  1  0  0  0
  5 26  1  0  0  0
  5100  1  0  0  0
  6 25  1  0  0  0
  6101  1  0  0  0
  6102  1  0  0  0
  7  8  2  0  0  0
  7 26  1  0  0  0
  7 29  1  0  0  0
  8  9  1  0  0  0
  8 22  1  0  0  0
  9 10  1  0  0  0
  9 27  2  0  0  0
 10 11  2  0  0  0
 10 15  1  0  0  0
 11 12  1  0  0  0
 11103  1  0  0  0
 12 13  2  0  0  0
 12104  1  0  0  0
 13 14  1  0  0  0
 13 31  1  0  0  0
 14 15  2  0  0  0
 14105  1  0  0  0
 15106  1  0  0  0
 16 17  2  0  0  0
 16 21  1  0  0  0
 16 31  1  0  0  0
 17 18  1  0  0  0
 17107  1  0  0  0
 18 19  2  0  0  0
 18108  1  0  0  0
 19 20  1  0  0  0
 19 24  1  0  0  0
 20 21  2  0  0  0
 20109  1  0  0  0
 21 23  1  0  0  0
 22 28  1  0  0  0
 22 32  2  0  0  0
 26 27  1  0  0  0
 28110  1  0  0  0
 28111  1  0  0  0
 29112  1  0  0  0
 29113  1  0  0  0
 33 34  1  0  0  0
 33 66  1  0  0  0
 33 70  2  0  0  0
 34 36  1  0  0  0
 34 59  1  0  0  0
 34114  1  0  0  0
 35 44  2  0  0  0
 35 45  1  0  0  0
 35 68  1  0  0  0
 36 56  1  0  0  0
 36115  1  0  0  0
 37 39  1  0  0  0
 37 47  1  0  0  0
 37 66  1  0  0  0
 37116  1  0  0  0
 38 43  2  0  0  0
 38 46  1  0  0  0
 38 47  1  0  0  0
 39 64  1  0  0  0
 39 67  2  0  0  0
 40 52  1  0  0  0
 40 53  2  0  0  0
 40 58  1  0  0  0
 41117  1  0  0  0
 41118  1  0  0  0
 41119  1  0  0  0
 41 48  1  0  0  0
 42 43  1  0  0  0
 42 66  1  0  0  0
 42120  1  0  0  0
 42121  1  0  0  0
 43 44  1  0  0  0
 44122  1  0  0  0
 45 46  2  0  0  0
 45123  1  0  0  0
 46124  1  0  0  0
 47125  1  0  0  0
 47126  1  0  0  0
 48 56  1  0  0  0
 48 65  1  0  0  0
 48127  1  0  0  0
 49 50  1  0  0  0
 49 53  1  0  0  0
 49 64  1  0  0  0
 49128  1  0  0  0
 50 51  1  0  0  0
 50129  1  0  0  0
 50130  1  0  0  0
 51 52  1  0  0  0
 51131  1  0  0  0
 51132  1  0  0  0
 52133  1  0  0  0
 52134  1  0  0  0
 53 54  1  0  0  0
 54 55  2  0  0  0
 54135  1  0  0  0
 55 57  1  0  0  0
 55136  1  0  0  0
 56 69  2  0  0  0
 57 58  2  0  0  0
 57137  1  0  0  0
 58138  1  0  0  0
 59 60  1  0  0  0
 59 61  1  0  0  0
 59 62  1  0  0  0
 60139  1  0  0  0
 60140  1  0  0  0
 60141  1  0  0  0
 61142  1  0  0  0
 61143  1  0  0  0
 61144  1  0  0  0
 62145  1  0  0  0
 62146  1  0  0  0
 62147  1  0  0  0
 63 65  1  0  0  0
 63148  1  0  0  0
 63149  1  0  0  0
 63150  1  0  0  0
 64151  1  0  0  0
 65152  1  0  0  0
 68 89  1  0  0  0
 71 73  2  0  0  0
 71 74  1  0  0  0
 71153  1  0  0  0
 72 74  2  0  0  0
 72 75  1  0  0  0
 72 83  1  0  0  0
 73 76  1  0  0  0
 73 90  1  0  0  0
 74 91  1  0  0  0
 75 76  2  0  0  0
 75 92  1  0  0  0
 76 93  1  0  0  0
 77 79  1  0  0  0
 77 81  1  0  0  0
 77154  1  0  0  0
 77155  1  0  0  0
 78 80  1  0  0  0
 78 81  1  0  0  0
 78156  1  0  0  0
 78157  1  0  0  0
 79 82  1  0  0  0
 79158  1  0  0  0
 79159  1  0  0  0
 80 82  1  0  0  0
 80160  1  0  0  0
 80161  1  0  0  0
 81 84  1  0  0  0
 81162  1  0  0  0
 82 90  1  0  0  0
 82163  1  0  0  0
 83164  1  0  0  0
 83165  1  0  0  0
 83166  1  0  0  0
 84 85  1  0  0  0
 84167  1  0  0  0
 84168  1  0  0  0
 85 86  1  0  0  0
 85169  1  0  0  0
 85170  1  0  0  0
 86 87  1  0  0  0
 86171  1  0  0  0
 86172  1  0  0  0
 87 88  1  0  0  0
 87173  1  0  0  0
 87174  1  0  0  0
 88 89  1  0  0  0
 88175  1  0  0  0
 88176  1  0  0  0
 89177  1  0  0  0
 89178  1  0  0  0
M  ISO  4   1 100  68 101  89 101  90 100
M  END
> <chiral flag>
0

> <version>
0

> <s_m_source_file>
/data/baiqing/PycharmProjects/Reinvent-master-3.2/result/LINK_invent/BTK/process_docking_weight1_custom_sum_contain_oxygen_bond_distance_aromatic_linkinvent_7_9_3/rearranged_h_0027.sdf

> <i_m_source_file_index>
82

> <r_mmod_Potential_Energy-OPLS-2005>
263.643646240234

> <r_mmod_Stretch_Energy-OPLS-2005>
45.2963562011719

> <r_mmod_Bend_Energy-OPLS-2005>
115.664268493652

> <r_mmod_Torsional_Energy-OPLS-2005>
348.6396484375

> <r_mmod_Improper_Torsional_Energy-OPLS-2005>
7.62379026412964

> <r_mmod_Van_der_Waal_Energy-OPLS-2005>
171.791564941406

> <r_mmod_Electrostatic_Energy-OPLS-2005>
-287.354827880859

> <r_mmod_Solvation_Energy-OPLS-2005>
-171.720260620117

> <b_mmod_Minimization_Converged-OPLS-2005>
0

> <r_mmod_RMS_Derivative-OPLS-2005>
3.11654257774353

$$$$
82
                    3D
 Structure written by MMmdl.
162170  0  0  1  0            999 V2000
  -30.7389  -14.4535   20.6580 C   0  0  0  0  0  0
  -30.4145  -12.3304   19.4249 C   0  0  0  0  0  0
  -29.4875  -12.5117   18.2072 C   0  0  0  0  0  0
  -28.0165  -12.3464   18.6294 C   0  0  0  0  0  0
  -27.6602  -13.2011   19.8769 C   0  0  2  0  0  0
  -28.6937  -13.0073   21.0073 C   0  0  0  0  0  0
  -25.2620  -13.8133   20.5673 C   0  0  0  0  0  0
  -24.1857  -13.0455   20.9158 C   0  0  0  0  0  0
  -24.6381  -11.6906   20.8722 C   0  0  0  0  0  0
  -23.9047  -10.4298   21.0405 C   0  0  0  0  0  0
  -24.3598   -9.4221   21.9196 C   0  0  0  0  0  0
  -23.6281   -8.2252   22.0774 C   0  0  0  0  0  0
  -22.4270   -8.0285   21.3561 C   0  0  0  0  0  0
  -21.9891   -9.0250   20.4658 C   0  0  0  0  0  0
  -22.7213  -10.2133   20.3074 C   0  0  0  0  0  0
  -21.6842   -6.0722   22.5277 C   0  0  0  0  0  0
  -21.4006   -6.5637   23.8210 C   0  0  0  0  0  0
  -21.3669   -5.6791   24.9173 C   0  0  0  0  0  0
  -21.6053   -4.3060   24.7226 C   0  0  0  0  0  0
  -21.8822   -3.8145   23.4357 C   0  0  0  0  0  0
  -21.9197   -4.6949   22.3407 C   0  0  0  0  0  0
  -22.7892  -13.5276   21.1819 C   0  0  0  0  0  0
  -22.1670   -4.2147   21.0983 F   0  0  0  0  0  0
  -21.5630   -3.4550   25.7737 F   0  0  0  0  0  0
  -30.0277  -13.3064   20.4618 N   0  0  0  0  0  0
  -26.3026  -12.9284   20.3376 N   0  0  0  0  0  0
  -25.9307  -11.6462   20.5755 N   0  0  0  0  0  0
  -22.0518  -12.8287   22.0362 N   0  0  0  0  0  0
  -25.4403  -15.1853   20.4052 N   0  0  0  0  0  0
  -31.7840  -14.6993   20.0558 O   0  0  0  0  0  0
  -21.6662   -6.8876   21.4246 O   0  0  0  0  0  0
  -22.3623  -14.5614   20.6674 O   0  0  0  0  0  0
  -24.6108  -31.8707   23.2159 C   0  0  0  0  0  0
  -25.9022  -32.4826   23.8414 C   0  0  1  0  0  0
  -27.2141  -27.4393   20.1142 C   0  0  0  0  0  0
  -25.5927  -33.8627   24.2344 N   0  0  0  0  0  0
  -23.4001  -30.4959   21.5490 C   0  0  2  0  0  0
  -24.8425  -28.9624   20.1118 C   0  0  0  0  0  0
  -22.7329  -29.4733   22.4971 C   0  0  0  0  0  0
  -18.0258  -28.1407   22.8407 C   0  0  0  0  0  0
  -24.1494  -36.7318   23.2645 C   0  0  0  0  0  0
  -25.9240  -30.8351   21.3686 C   0  0  0  0  0  0
  -26.0002  -29.4731   20.7150 C   0  0  0  0  0  0
  -27.1924  -28.7159   20.7142 C   0  0  0  0  0  0
  -26.0541  -26.9457   19.4877 C   0  0  0  0  0  0
  -24.8661  -27.7019   19.4894 C   0  0  0  0  0  0
  -23.6066  -29.8303   20.1644 C   0  0  0  0  0  0
  -25.4124  -36.3124   24.0351 C   0  0  1  0  0  0
  -20.5824  -28.3714   23.1326 C   0  0  2  0  0  0
  -20.6817  -26.9450   22.5380 C   0  0  0  0  0  0
  -19.5778  -26.6288   21.5212 C   0  0  0  0  0  0
  -18.1933  -26.7964   22.1506 C   0  0  0  0  0  0
  -19.1473  -28.8865   23.2926 C   0  0  0  0  0  0
  -18.9293  -30.1431   23.9036 C   0  0  0  0  0  0
  -17.6273  -30.6550   24.0620 C   0  0  0  0  0  0
  -25.9041  -34.9487   23.5145 C   0  0  0  0  0  0
  -16.5219  -29.9031   23.6247 C   0  0  0  0  0  0
  -16.7222  -28.6511   23.0204 C   0  0  0  0  0  0
  -26.4474  -31.6599   25.0732 C   0  0  0  0  0  0
  -25.3763  -31.3710   26.1495 C   0  0  0  0  0  0
  -27.0285  -30.3034   24.6119 C   0  0  0  0  0  0
  -27.6063  -32.4326   25.7471 C   0  0  0  0  0  0
  -27.5584  -37.1825   24.8466 C   0  0  0  0  0  0
  -21.4063  -29.3077   22.3688 N   0  0  0  0  0  0
  -26.4299  -37.3809   23.9418 N   0  0  0  0  0  0
  -24.6624  -31.0806   22.1048 N   0  0  0  0  0  0
  -23.4047  -28.8357   23.3112 O   0  0  0  0  0  0
  -28.3418  -26.6605   20.1566 O   0  0  0  0  0  0
  -26.5580  -34.8932   22.4680 O   0  0  0  0  0  0
  -23.5308  -32.1457   23.7541 O   0  0  0  0  0  0
  -29.3667  -19.1083   23.3441 C   0  0  0  0  0  0
  -28.5657  -19.9152   21.1978 C   0  0  0  0  0  0
  -29.2584  -18.9305   21.9554 C   0  0  0  0  0  0
  -28.7484  -20.2020   23.9782 C   0  0  0  0  0  0
  -27.9179  -21.0257   21.8122 C   0  0  0  0  0  0
  -27.9858  -21.1374   23.2287 C   0  0  0  0  0  0
  -28.8999  -20.3203   25.4846 C   0  0  0  0  0  0
  -29.9628  -17.7254   21.3142 C   0  0  0  0  0  0
  -27.0424  -21.9378   20.9120 C   0  0  0  0  0  0
  -27.0139  -23.4875   21.0801 C   0  0  0  0  0  0
  -28.3241  -24.2437   20.7786 C   0  0  0  0  0  0
  -29.3562  -16.3234   21.6453 C   0  0  0  0  0  0
  -28.3398  -25.7229   21.2457 C   0  0  0  0  0  0
  -30.3683  -15.2459   21.6801 N   0  0  0  0  0  0
  -27.0877  -22.3387   24.0924 Cl  0  0  0  0  0  0
  -31.4579  -12.4375   19.1229 H   0  0  0  0  0  0
  -30.3303  -11.3149   19.8184 H   0  0  0  0  0  0
  -29.7330  -11.7752   17.4419 H   0  0  0  0  0  0
  -29.6438  -13.4929   17.7534 H   0  0  0  0  0  0
  -27.8501  -11.2863   18.8466 H   0  0  0  0  0  0
  -27.3541  -12.5957   17.8009 H   0  0  0  0  0  0
  -27.7075  -14.2455   19.5714 H   0  0  0  0  0  0
  -28.6730  -11.9821   21.3739 H   0  0  0  0  0  0
  -28.4318  -13.6174   21.8727 H   0  0  0  0  0  0
  -25.2736   -9.5728   22.4784 H   0  0  0  0  0  0
  -23.9995   -7.4666   22.7512 H   0  0  0  0  0  0
  -21.0820   -8.8774   19.8964 H   0  0  0  0  0  0
  -22.3665  -10.9681   19.6207 H   0  0  0  0  0  0
  -21.1989   -7.6150   23.9711 H   0  0  0  0  0  0
  -21.1483   -6.0526   25.9078 H   0  0  0  0  0  0
  -22.0588   -2.7614   23.2855 H   0  0  0  0  0  0
  -22.4060  -11.9914   22.4740 H   0  0  0  0  0  0
  -21.1166  -13.1374   22.2569 H   0  0  0  0  0  0
  -24.6767  -15.8435   20.5143 H   0  0  0  0  0  0
  -26.2986  -15.6188   20.0897 H   0  0  0  0  0  0
  -26.7060  -32.5504   23.1138 H   0  0  0  0  0  0
  -25.0114  -33.9808   25.0514 H   0  0  0  0  0  0
  -22.6935  -31.3158   21.4114 H   0  0  0  0  0  0
  -23.3761  -35.9628   23.3288 H   0  0  0  0  0  0
  -24.3582  -36.8933   22.2052 H   0  0  0  0  0  0
  -23.7227  -37.6531   23.6640 H   0  0  0  0  0  0
  -26.0436  -31.5949   20.5981 H   0  0  0  0  0  0
  -26.8087  -30.8792   21.9885 H   0  0  0  0  0  0
  -28.0830  -29.0910   21.1967 H   0  0  0  0  0  0
  -26.0670  -25.9766   19.0141 H   0  0  0  0  0  0
  -23.9785  -27.3109   19.0127 H   0  0  0  0  0  0
  -23.7109  -30.6069   19.4047 H   0  0  0  0  0  0
  -22.7302  -29.2505   19.8778 H   0  0  0  0  0  0
  -25.1282  -36.1998   25.0839 H   0  0  0  0  0  0
  -20.9981  -28.3288   24.1418 H   0  0  0  0  0  0
  -20.5931  -26.2301   23.3565 H   0  0  0  0  0  0
  -21.6702  -26.7719   22.1080 H   0  0  0  0  0  0
  -19.6878  -25.6125   21.1470 H   0  0  0  0  0  0
  -19.6722  -27.2896   20.6584 H   0  0  0  0  0  0
  -17.4225  -26.6745   21.3848 H   0  0  0  0  0  0
  -18.0240  -26.0080   22.8844 H   0  0  0  0  0  0
  -19.7718  -30.7284   24.2498 H   0  0  0  0  0  0
  -17.4691  -31.6163   24.5295 H   0  0  0  0  0  0
  -15.5203  -30.2917   23.7487 H   0  0  0  0  0  0
  -15.8665  -28.0789   22.6858 H   0  0  0  0  0  0
  -24.5935  -30.7074   25.7811 H   0  0  0  0  0  0
  -24.8953  -32.2865   26.4963 H   0  0  0  0  0  0
  -25.8104  -30.8846   27.0237 H   0  0  0  0  0  0
  -26.2791  -29.6814   24.1207 H   0  0  0  0  0  0
  -27.4076  -29.7279   25.4572 H   0  0  0  0  0  0
  -27.8641  -30.4344   23.9244 H   0  0  0  0  0  0
  -27.2709  -33.3626   26.2081 H   0  0  0  0  0  0
  -28.3835  -32.6900   25.0260 H   0  0  0  0  0  0
  -28.0784  -31.8429   26.5342 H   0  0  0  0  0  0
  -28.2619  -38.0104   24.7527 H   0  0  0  0  0  0
  -28.1068  -36.2657   24.6263 H   0  0  0  0  0  0
  -27.2318  -37.1445   25.8870 H   0  0  0  0  0  0
  -20.9219  -29.8636   21.6782 H   0  0  0  0  0  0
  -26.0194  -38.2891   24.1374 H   0  0  0  0  0  0
  -29.9205  -18.3839   23.9314 H   0  0  0  0  0  0
  -28.4803  -19.7831   20.1323 H   0  0  0  0  0  0
  -29.7971  -19.8075   25.8344 H   0  0  0  0  0  0
  -28.0483  -19.8789   25.9989 H   0  0  0  0  0  0
  -28.9936  -21.3620   25.7938 H   0  0  0  0  0  0
  -31.0007  -17.7695   21.6509 H   0  0  0  0  0  0
  -29.9985  -17.8636   20.2337 H   0  0  0  0  0  0
  -26.0195  -21.5799   21.0163 H   0  0  0  0  0  0
  -27.3043  -21.7393   19.8722 H   0  0  0  0  0  0
  -26.2557  -23.8711   20.3953 H   0  0  0  0  0  0
  -26.6374  -23.7700   22.0580 H   0  0  0  0  0  0
  -28.5405  -24.2025   19.7117 H   0  0  0  0  0  0
  -29.1367  -23.7145   21.2774 H   0  0  0  0  0  0
  -28.5421  -16.0866   20.9610 H   0  0  0  0  0  0
  -28.9035  -16.3436   22.6374 H   0  0  0  0  0  0
  -29.2483  -25.8892   21.8259 H   0  0  0  0  0  0
  -27.5328  -25.9207   21.9571 H   0  0  0  0  0  0
  -31.1992  -15.5842   22.1407 H   0  0  0  0  0  0
  1 25  1  0  0  0
  1 30  2  0  0  0
  1 84  1  0  0  0
  2  3  1  0  0  0
  2 25  1  0  0  0
  2 86  1  0  0  0
  2 87  1  0  0  0
  3  4  1  0  0  0
  3 88  1  0  0  0
  3 89  1  0  0  0
  4  5  1  0  0  0
  4 90  1  0  0  0
  4 91  1  0  0  0
  5  6  1  0  0  0
  5 26  1  0  0  0
  5 92  1  0  0  0
  6 25  1  0  0  0
  6 93  1  0  0  0
  6 94  1  0  0  0
  7  8  2  0  0  0
  7 26  1  0  0  0
  7 29  1  0  0  0
  8  9  1  0  0  0
  8 22  1  0  0  0
  9 10  1  0  0  0
  9 27  2  0  0  0
 10 11  2  0  0  0
 10 15  1  0  0  0
 11 12  1  0  0  0
 11 95  1  0  0  0
 12 13  2  0  0  0
 12 96  1  0  0  0
 13 14  1  0  0  0
 13 31  1  0  0  0
 14 15  2  0  0  0
 14 97  1  0  0  0
 15 98  1  0  0  0
 16 17  2  0  0  0
 16 21  1  0  0  0
 16 31  1  0  0  0
 17 18  1  0  0  0
 17 99  1  0  0  0
 18 19  2  0  0  0
 18100  1  0  0  0
 19 20  1  0  0  0
 19 24  1  0  0  0
 20 21  2  0  0  0
 20101  1  0  0  0
 21 23  1  0  0  0
 22 28  1  0  0  0
 22 32  2  0  0  0
 26 27  1  0  0  0
 28102  1  0  0  0
 28103  1  0  0  0
 29104  1  0  0  0
 29105  1  0  0  0
 33 34  1  0  0  0
 33 66  1  0  0  0
 33 70  2  0  0  0
 34 36  1  0  0  0
 34 59  1  0  0  0
 34106  1  0  0  0
 35 44  2  0  0  0
 35 45  1  0  0  0
 35 68  1  0  0  0
 36 56  1  0  0  0
 36107  1  0  0  0
 37 39  1  0  0  0
 37 47  1  0  0  0
 37 66  1  0  0  0
 37108  1  0  0  0
 38 43  2  0  0  0
 38 46  1  0  0  0
 38 47  1  0  0  0
 39 64  1  0  0  0
 39 67  2  0  0  0
 40 52  1  0  0  0
 40 53  2  0  0  0
 40 58  1  0  0  0
 41109  1  0  0  0
 41110  1  0  0  0
 41111  1  0  0  0
 41 48  1  0  0  0
 42 43  1  0  0  0
 42 66  1  0  0  0
 42112  1  0  0  0
 42113  1  0  0  0
 43 44  1  0  0  0
 44114  1  0  0  0
 45 46  2  0  0  0
 45115  1  0  0  0
 46116  1  0  0  0
 47117  1  0  0  0
 47118  1  0  0  0
 48 56  1  0  0  0
 48 65  1  0  0  0
 48119  1  0  0  0
 49 50  1  0  0  0
 49 53  1  0  0  0
 49 64  1  0  0  0
 49120  1  0  0  0
 50 51  1  0  0  0
 50121  1  0  0  0
 50122  1  0  0  0
 51 52  1  0  0  0
 51123  1  0  0  0
 51124  1  0  0  0
 52125  1  0  0  0
 52126  1  0  0  0
 53 54  1  0  0  0
 54 55  2  0  0  0
 54127  1  0  0  0
 55 57  1  0  0  0
 55128  1  0  0  0
 56 69  2  0  0  0
 57 58  2  0  0  0
 57129  1  0  0  0
 58130  1  0  0  0
 59 60  1  0  0  0
 59 61  1  0  0  0
 59 62  1  0  0  0
 60131  1  0  0  0
 60132  1  0  0  0
 60133  1  0  0  0
 61134  1  0  0  0
 61135  1  0  0  0
 61136  1  0  0  0
 62137  1  0  0  0
 62138  1  0  0  0
 62139  1  0  0  0
 63 65  1  0  0  0
 63140  1  0  0  0
 63141  1  0  0  0
 63142  1  0  0  0
 64143  1  0  0  0
 65144  1  0  0  0
 68 83  1  0  0  0
 71 73  2  0  0  0
 71 74  1  0  0  0
 71145  1  0  0  0
 72 73  1  0  0  0
 72 75  2  0  0  0
 72146  1  0  0  0
 73 78  1  0  0  0
 74 76  2  0  0  0
 74 77  1  0  0  0
 75 76  1  0  0  0
 75 79  1  0  0  0
 76 85  1  0  0  0
 77147  1  0  0  0
 77148  1  0  0  0
 77149  1  0  0  0
 78 82  1  0  0  0
 78150  1  0  0  0
 78151  1  0  0  0
 79 80  1  0  0  0
 79152  1  0  0  0
 79153  1  0  0  0
 80 81  1  0  0  0
 80154  1  0  0  0
 80155  1  0  0  0
 81 83  1  0  0  0
 81156  1  0  0  0
 81157  1  0  0  0
 82 84  1  0  0  0
 82158  1  0  0  0
 82159  1  0  0  0
 83160  1  0  0  0
 83161  1  0  0  0
 84162  1  0  0  0
M  ISO  4   1 100  68 101  83 101  84 100
M  END
> <chiral flag>
0

> <version>
0

> <s_m_source_file>
/data/baiqing/PycharmProjects/Reinvent-master-3.2/result/LINK_invent/BTK/process_docking_weight1_custom_sum_contain_oxygen_bond_distance_aromatic_linkinvent_7_9_3/rearranged_h_0027.sdf

> <i_m_source_file_index>
83

> <r_mmod_Potential_Energy-OPLS-2005>
45.6359672546387

> <r_mmod_Stretch_Energy-OPLS-2005>
42.2209548950195

> <r_mmod_Bend_Energy-OPLS-2005>
117.627479553223

> <r_mmod_Torsional_Energy-OPLS-2005>
302.878814697266

> <r_mmod_Improper_Torsional_Energy-OPLS-2005>
9.05584907531738

> <r_mmod_Van_der_Waal_Energy-OPLS-2005>
142.715209960938

> <r_mmod_Electrostatic_Energy-OPLS-2005>
-384.878601074219

> <r_mmod_Solvation_Energy-OPLS-2005>
-197.673233032227

> <b_mmod_Minimization_Converged-OPLS-2005>
0

> <r_mmod_RMS_Derivative-OPLS-2005>
7.01723051071167

$$$$
83
                    3D
 Structure written by MMmdl.
151159  0  0  1  0            999 V2000
  -30.5303  -15.1030   20.3862 C   0  0  0  0  0  0
  -30.4264  -12.6906   19.5267 C   0  0  0  0  0  0
  -29.5263  -12.5460   18.2770 C   0  0  0  0  0  0
  -28.0659  -12.3039   18.6951 C   0  0  0  0  0  0
  -27.6120  -13.2710   19.8179 C   0  0  2  0  0  0
  -28.6437  -13.4068   20.9543 C   0  0  0  0  0  0
  -25.2405  -13.8261   20.5738 C   0  0  0  0  0  0
  -24.1746  -13.0453   20.9235 C   0  0  0  0  0  0
  -24.6390  -11.6945   20.8746 C   0  0  0  0  0  0
  -23.9085  -10.4302   21.0401 C   0  0  0  0  0  0
  -24.3634   -9.4216   21.9179 C   0  0  0  0  0  0
  -23.6306   -8.2252   22.0752 C   0  0  0  0  0  0
  -22.4288   -8.0287   21.3544 C   0  0  0  0  0  0
  -21.9924   -9.0259   20.4645 C   0  0  0  0  0  0
  -22.7255  -10.2137   20.3051 C   0  0  0  0  0  0
  -21.6857   -6.0741   22.5279 C   0  0  0  0  0  0
  -21.4019   -6.5644   23.8214 C   0  0  0  0  0  0
  -21.3660   -5.6795   24.9174 C   0  0  0  0  0  0
  -21.6042   -4.3058   24.7223 C   0  0  0  0  0  0
  -21.8817   -3.8150   23.4346 C   0  0  0  0  0  0
  -21.9196   -4.6968   22.3403 C   0  0  0  0  0  0
  -22.7765  -13.5204   21.1899 C   0  0  0  0  0  0
  -22.1663   -4.2153   21.0980 F   0  0  0  0  0  0
  -21.5624   -3.4541   25.7737 F   0  0  0  0  0  0
  -29.9082  -13.8379   20.3473 N   0  0  0  0  0  0
  -26.2813  -12.9526   20.3182 N   0  0  0  0  0  0
  -25.9322  -11.6633   20.5700 N   0  0  0  0  0  0
  -22.0430  -12.8179   22.0454 N   0  0  0  0  0  0
  -25.4084  -15.1996   20.4231 N   0  0  0  0  0  0
  -31.7488  -15.0503   20.1736 O   0  0  0  0  0  0
  -21.6646   -6.8887   21.4243 O   0  0  0  0  0  0
  -22.3439  -14.5507   20.6749 O   0  0  0  0  0  0
  -24.6539  -31.8341   23.1796 C   0  0  0  0  0  0
  -25.9264  -32.4642   23.8220 C   0  0  1  0  0  0
  -27.2094  -27.0248   20.1697 C   0  0  0  0  0  0
  -25.5971  -33.8452   24.2130 N   0  0  0  0  0  0
  -23.4625  -30.4507   21.5278 C   0  0  2  0  0  0
  -24.9119  -28.8580   20.1124 C   0  0  0  0  0  0
  -22.7620  -29.4498   22.4824 C   0  0  0  0  0  0
  -18.0317  -28.1399   22.8471 C   0  0  0  0  0  0
  -24.1493  -36.7231   23.2645 C   0  0  0  0  0  0
  -26.0265  -30.6729   21.3942 C   0  0  0  0  0  0
  -26.0948  -29.2730   20.7374 C   0  0  0  0  0  0
  -27.2432  -28.3762   20.7426 C   0  0  0  0  0  0
  -25.9980  -26.7400   19.5010 C   0  0  0  0  0  0
  -24.8834  -27.6091   19.4756 C   0  0  0  0  0  0
  -23.6951  -29.7749   20.1502 C   0  0  0  0  0  0
  -25.4131  -36.3001   24.0306 C   0  0  1  0  0  0
  -20.5937  -28.3735   23.1210 C   0  0  2  0  0  0
  -20.6799  -26.9431   22.5395 C   0  0  0  0  0  0
  -19.5770  -26.6382   21.5208 C   0  0  0  0  0  0
  -18.1952  -26.7936   22.1619 C   0  0  0  0  0  0
  -19.1575  -28.8886   23.2832 C   0  0  0  0  0  0
  -18.9489  -30.1479   23.8863 C   0  0  0  0  0  0
  -17.6483  -30.6590   24.0556 C   0  0  0  0  0  0
  -25.9089  -34.9380   23.5033 C   0  0  0  0  0  0
  -16.5375  -29.9080   23.6339 C   0  0  0  0  0  0
  -16.7300  -28.6500   23.0359 C   0  0  0  0  0  0
  -26.4547  -31.6549   25.0705 C   0  0  0  0  0  0
  -25.3696  -31.3770   26.1374 C   0  0  0  0  0  0
  -27.0431  -30.2931   24.6365 C   0  0  0  0  0  0
  -27.6057  -32.4336   25.7501 C   0  0  0  0  0  0
  -27.5572  -37.1774   24.8467 C   0  0  0  0  0  0
  -21.4301  -29.3046   22.3573 N   0  0  0  0  0  0
  -26.4285  -37.3725   23.9406 N   0  0  0  0  0  0
  -24.7353  -31.0099   22.0883 N   0  0  0  0  0  0
  -23.4215  -28.8055   23.3020 O   0  0  0  0  0  0
  -28.2284  -25.9686   20.2341 O   0  0  0  0  0  0
  -26.5687  -34.8898   22.4621 O   0  0  0  0  0  0
  -23.5631  -32.1267   23.6947 O   0  0  0  0  0  0
  -28.9883  -17.2235   19.5026 C   0  0  0  0  0  0
  -28.5944  -18.6412   19.4502 C   0  0  0  0  0  0
  -29.8846  -16.6201   20.4610 C   0  0  0  0  0  0
  -29.0144  -19.7189   20.3354 C   0  0  0  0  0  0
  -30.3417  -17.6918   21.3352 C   0  0  0  0  0  0
  -29.9246  -19.1149   21.2925 C   0  0  0  0  0  0
  -27.0349  -21.2360   19.4884 C   0  0  0  0  0  0
  -28.8682  -22.9252   20.2612 C   0  0  0  0  0  0
  -27.9066  -24.3935   20.1907 C   0  0  0  0  0  0
  -28.2900  -21.2809   20.3784 C   0  0  2  0  0  0
  -31.2373  -17.3517   22.2955 F   0  0  0  0  0  0
  -30.5617  -20.1597   22.5127 Cl  0  0  0  0  0  0
  -31.4598  -12.8385   19.2115 H   0  0  0  0  0  0
  -30.4290  -11.7689   20.1106 H   0  0  0  0  0  0
  -29.8772  -11.7271   17.6476 H   0  0  0  0  0  0
  -29.5915  -13.4513   17.6717 H   0  0  0  0  0  0
  -27.9940  -11.2740   19.0474 H   0  0  0  0  0  0
  -27.4025  -12.3779   17.8328 H   0  0  0  0  0  0
  -27.5420  -14.2480   19.3390 H   0  0  0  0  0  0
  -28.7613  -12.4691   21.4993 H   0  0  0  0  0  0
  -28.3113  -14.1513   21.6793 H   0  0  0  0  0  0
  -25.2775   -9.5693   22.4758 H   0  0  0  0  0  0
  -24.0012   -7.4644   22.7474 H   0  0  0  0  0  0
  -21.0854   -8.8777   19.8953 H   0  0  0  0  0  0
  -22.3708  -10.9674   19.6162 H   0  0  0  0  0  0
  -21.2013   -7.6152   23.9717 H   0  0  0  0  0  0
  -21.1482   -6.0526   25.9077 H   0  0  0  0  0  0
  -22.0595   -2.7613   23.2844 H   0  0  0  0  0  0
  -22.4070  -11.9848   22.4834 H   0  0  0  0  0  0
  -21.1043  -13.1181   22.2668 H   0  0  0  0  0  0
  -24.6467  -15.8559   20.5563 H   0  0  0  0  0  0
  -26.2704  -15.6466   20.1378 H   0  0  0  0  0  0
  -26.7328  -32.5211   23.0937 H   0  0  0  0  0  0
  -25.0082  -33.9550   25.0254 H   0  0  0  0  0  0
  -22.7705  -31.2797   21.3659 H   0  0  0  0  0  0
  -23.3764  -35.9551   23.3284 H   0  0  0  0  0  0
  -24.3576  -36.8892   22.2064 H   0  0  0  0  0  0
  -23.7239  -37.6413   23.6705 H   0  0  0  0  0  0
  -26.1952  -31.4206   20.6178 H   0  0  0  0  0  0
  -26.8916  -30.7258   22.0435 H   0  0  0  0  0  0
  -28.1417  -28.6912   21.2546 H   0  0  0  0  0  0
  -25.8724  -25.7898   19.0061 H   0  0  0  0  0  0
  -23.9832  -27.2868   18.9704 H   0  0  0  0  0  0
  -23.8430  -30.5467   19.3939 H   0  0  0  0  0  0
  -22.8066  -29.2249   19.8355 H   0  0  0  0  0  0
  -25.1324  -36.1813   25.0797 H   0  0  0  0  0  0
  -21.0027  -28.3331   24.1333 H   0  0  0  0  0  0
  -20.5692  -26.2351   23.3622 H   0  0  0  0  0  0
  -21.6664  -26.7426   22.1192 H   0  0  0  0  0  0
  -19.6934  -25.6286   21.1255 H   0  0  0  0  0  0
  -19.6707  -27.3176   20.6724 H   0  0  0  0  0  0
  -17.4223  -26.6682   21.4020 H   0  0  0  0  0  0
  -18.0352  -26.0083   22.9019 H   0  0  0  0  0  0
  -19.7964  -30.7304   24.2221 H   0  0  0  0  0  0
  -17.5035  -31.6267   24.5165 H   0  0  0  0  0  0
  -15.5374  -30.2968   23.7682 H   0  0  0  0  0  0
  -15.8702  -28.0802   22.7095 H   0  0  0  0  0  0
  -24.5892  -30.7105   25.7686 H   0  0  0  0  0  0
  -24.8868  -32.2962   26.4702 H   0  0  0  0  0  0
  -25.7947  -30.9005   27.0215 H   0  0  0  0  0  0
  -26.3077  -29.6626   24.1356 H   0  0  0  0  0  0
  -27.3988  -29.7268   25.4982 H   0  0  0  0  0  0
  -27.9006  -30.4142   23.9743 H   0  0  0  0  0  0
  -27.2640  -33.3670   26.1986 H   0  0  0  0  0  0
  -28.3918  -32.6842   25.0366 H   0  0  0  0  0  0
  -28.0666  -31.8521   26.5496 H   0  0  0  0  0  0
  -28.2579  -38.0080   24.7512 H   0  0  0  0  0  0
  -28.1081  -36.2609   24.6297 H   0  0  0  0  0  0
  -27.2290  -37.1419   25.8870 H   0  0  0  0  0  0
  -20.9536  -29.8747   21.6725 H   0  0  0  0  0  0
  -26.0142  -38.2788   24.1409 H   0  0  0  0  0  0
  -28.5938  -16.5753   18.7324 H   0  0  0  0  0  0
  -27.8916  -18.8896   18.6681 H   0  0  0  0  0  0
  -26.4039  -20.3805   19.7311 H   0  0  0  0  0  0
  -27.3000  -21.1761   18.4328 H   0  0  0  0  0  0
  -26.4116  -22.1195   19.6207 H   0  0  0  0  0  0
  -29.5581  -23.0553   21.0953 H   0  0  0  0  0  0
  -29.5066  -22.9554   19.3783 H   0  0  0  0  0  0
  -27.1566  -24.2706   20.9727 H   0  0  0  0  0  0
  -27.3537  -24.2704   19.2613 H   0  0  0  0  0  0
  -27.8934  -21.2699   21.3946 H   0  0  0  0  0  0
  1 25  1  0  0  0
  1 30  2  0  0  0
  1 73  1  0  0  0
  2  3  1  0  0  0
  2 25  1  0  0  0
  2 83  1  0  0  0
  2 84  1  0  0  0
  3  4  1  0  0  0
  3 85  1  0  0  0
  3 86  1  0  0  0
  4  5  1  0  0  0
  4 87  1  0  0  0
  4 88  1  0  0  0
  5  6  1  0  0  0
  5 26  1  0  0  0
  5 89  1  0  0  0
  6 25  1  0  0  0
  6 90  1  0  0  0
  6 91  1  0  0  0
  7  8  2  0  0  0
  7 26  1  0  0  0
  7 29  1  0  0  0
  8  9  1  0  0  0
  8 22  1  0  0  0
  9 10  1  0  0  0
  9 27  2  0  0  0
 10 11  2  0  0  0
 10 15  1  0  0  0
 11 12  1  0  0  0
 11 92  1  0  0  0
 12 13  2  0  0  0
 12 93  1  0  0  0
 13 14  1  0  0  0
 13 31  1  0  0  0
 14 15  2  0  0  0
 14 94  1  0  0  0
 15 95  1  0  0  0
 16 17  2  0  0  0
 16 21  1  0  0  0
 16 31  1  0  0  0
 17 18  1  0  0  0
 17 96  1  0  0  0
 18 19  2  0  0  0
 18 97  1  0  0  0
 19 20  1  0  0  0
 19 24  1  0  0  0
 20 21  2  0  0  0
 20 98  1  0  0  0
 21 23  1  0  0  0
 22 28  1  0  0  0
 22 32  2  0  0  0
 26 27  1  0  0  0
 28 99  1  0  0  0
 28100  1  0  0  0
 29101  1  0  0  0
 29102  1  0  0  0
 33 34  1  0  0  0
 33 66  1  0  0  0
 33 70  2  0  0  0
 34 36  1  0  0  0
 34 59  1  0  0  0
 34103  1  0  0  0
 35 44  2  0  0  0
 35 45  1  0  0  0
 35 68  1  0  0  0
 36 56  1  0  0  0
 36104  1  0  0  0
 37 39  1  0  0  0
 37 47  1  0  0  0
 37 66  1  0  0  0
 37105  1  0  0  0
 38 43  2  0  0  0
 38 46  1  0  0  0
 38 47  1  0  0  0
 39 64  1  0  0  0
 39 67  2  0  0  0
 40 52  1  0  0  0
 40 53  2  0  0  0
 40 58  1  0  0  0
 41106  1  0  0  0
 41107  1  0  0  0
 41108  1  0  0  0
 41 48  1  0  0  0
 42 43  1  0  0  0
 42 66  1  0  0  0
 42109  1  0  0  0
 42110  1  0  0  0
 43 44  1  0  0  0
 44111  1  0  0  0
 45 46  2  0  0  0
 45112  1  0  0  0
 46113  1  0  0  0
 47114  1  0  0  0
 47115  1  0  0  0
 48 56  1  0  0  0
 48 65  1  0  0  0
 48116  1  0  0  0
 49 50  1  0  0  0
 49 53  1  0  0  0
 49 64  1  0  0  0
 49117  1  0  0  0
 50 51  1  0  0  0
 50118  1  0  0  0
 50119  1  0  0  0
 51 52  1  0  0  0
 51120  1  0  0  0
 51121  1  0  0  0
 52122  1  0  0  0
 52123  1  0  0  0
 53 54  1  0  0  0
 54 55  2  0  0  0
 54124  1  0  0  0
 55 57  1  0  0  0
 55125  1  0  0  0
 56 69  2  0  0  0
 57 58  2  0  0  0
 57126  1  0  0  0
 58127  1  0  0  0
 59 60  1  0  0  0
 59 61  1  0  0  0
 59 62  1  0  0  0
 60128  1  0  0  0
 60129  1  0  0  0
 60130  1  0  0  0
 61131  1  0  0  0
 61132  1  0  0  0
 61133  1  0  0  0
 62134  1  0  0  0
 62135  1  0  0  0
 62136  1  0  0  0
 63 65  1  0  0  0
 63137  1  0  0  0
 63138  1  0  0  0
 63139  1  0  0  0
 64140  1  0  0  0
 65141  1  0  0  0
 68 79  1  0  0  0
 71 72  2  0  0  0
 71 73  1  0  0  0
 71142  1  0  0  0
 72 74  1  0  0  0
 72143  1  0  0  0
 73 75  2  0  0  0
 74 76  2  0  0  0
 74 80  1  0  0  0
 75 76  1  0  0  0
 75 81  1  0  0  0
 76 82  1  0  0  0
 77144  1  0  0  0
 77145  1  0  0  0
 77146  1  0  0  0
 77 80  1  0  0  0
 78 79  1  0  0  0
 78 80  1  0  0  0
 78147  1  0  0  0
 78148  1  0  0  0
 79149  1  0  0  0
 79150  1  0  0  0
 80151  1  0  0  0
M  ISO  4   1 100  68 101  73 100  79 101
M  END
> <chiral flag>
0

> <version>
0

> <s_m_source_file>
/data/baiqing/PycharmProjects/Reinvent-master-3.2/result/LINK_invent/BTK/process_docking_weight1_custom_sum_contain_oxygen_bond_distance_aromatic_linkinvent_7_9_3/rearranged_h_0027.sdf

> <i_m_source_file_index>
84

> <r_mmod_Potential_Energy-OPLS-2005>
967.064086914062

> <r_mmod_Stretch_Energy-OPLS-2005>
397.535430908203

> <r_mmod_Bend_Energy-OPLS-2005>
364.074462890625

> <r_mmod_Torsional_Energy-OPLS-2005>
220.673782348633

> <r_mmod_Improper_Torsional_Energy-OPLS-2005>
7.10705041885376

> <r_mmod_Van_der_Waal_Energy-OPLS-2005>
129.58708190918

> <r_mmod_Electrostatic_Energy-OPLS-2005>
-272.081909179688

> <r_mmod_Solvation_Energy-OPLS-2005>
-191.206329345703

> <b_mmod_Minimization_Converged-OPLS-2005>
0

> <r_mmod_RMS_Derivative-OPLS-2005>
0.522702991962433

$$$$
84
                    3D
 Structure written by MMmdl.
153161  0  0  1  0            999 V2000
  -30.7761  -14.5811   20.5078 C   0  0  0  0  0  0
  -30.4082  -12.3694   19.4481 C   0  0  0  0  0  0
  -29.4986  -12.5248   18.2167 C   0  0  0  0  0  0
  -28.0250  -12.3627   18.6324 C   0  0  0  0  0  0
  -27.6533  -13.2440   19.8601 C   0  0  2  0  0  0
  -28.7092  -13.1471   20.9870 C   0  0  0  0  0  0
  -25.2570  -13.8224   20.5752 C   0  0  0  0  0  0
  -24.1846  -13.0443   20.9223 C   0  0  0  0  0  0
  -24.6478  -11.6929   20.8789 C   0  0  0  0  0  0
  -23.9155  -10.4298   21.0416 C   0  0  0  0  0  0
  -24.3671   -9.4206   21.9208 C   0  0  0  0  0  0
  -23.6322   -8.2248   22.0769 C   0  0  0  0  0  0
  -22.4311   -8.0307   21.3551 C   0  0  0  0  0  0
  -21.9970   -9.0296   20.4663 C   0  0  0  0  0  0
  -22.7321  -10.2163   20.3074 C   0  0  0  0  0  0
  -21.6841   -6.0776   22.5313 C   0  0  0  0  0  0
  -21.4002   -6.5662   23.8260 C   0  0  0  0  0  0
  -21.3665   -5.6804   24.9213 C   0  0  0  0  0  0
  -21.6030   -4.3066   24.7241 C   0  0  0  0  0  0
  -21.8803   -3.8175   23.4353 C   0  0  0  0  0  0
  -21.9180   -4.7004   22.3425 C   0  0  0  0  0  0
  -22.7871  -13.5220   21.1842 C   0  0  0  0  0  0
  -22.1648   -4.2205   21.0994 F   0  0  0  0  0  0
  -21.5629   -3.4546   25.7737 F   0  0  0  0  0  0
  -30.0268  -13.4359   20.4015 N   0  0  0  0  0  0
  -26.3027  -12.9475   20.3377 N   0  0  0  0  0  0
  -25.9423  -11.6596   20.5794 N   0  0  0  0  0  0
  -22.0483  -12.8241   22.0395 N   0  0  0  0  0  0
  -25.4164  -15.1943   20.4180 N   0  0  0  0  0  0
  -31.9452  -14.6002   20.1340 O   0  0  0  0  0  0
  -21.6650   -6.8915   21.4264 O   0  0  0  0  0  0
  -22.3566  -14.5525   20.6690 O   0  0  0  0  0  0
  -24.6289  -31.8631   23.2025 C   0  0  0  0  0  0
  -25.9134  -32.4800   23.8362 C   0  0  1  0  0  0
  -27.2119  -27.3280   20.0974 C   0  0  0  0  0  0
  -25.5935  -33.8605   24.2282 N   0  0  0  0  0  0
  -23.4199  -30.4899   21.5473 C   0  0  2  0  0  0
  -24.8596  -28.9598   20.1052 C   0  0  0  0  0  0
  -22.7515  -29.4613   22.4919 C   0  0  0  0  0  0
  -18.0276  -28.1426   22.8510 C   0  0  0  0  0  0
  -24.1476  -36.7260   23.2639 C   0  0  0  0  0  0
  -25.9644  -30.7945   21.3791 C   0  0  0  0  0  0
  -26.0314  -29.4257   20.7156 C   0  0  0  0  0  0
  -27.2086  -28.6190   20.7068 C   0  0  0  0  0  0
  -26.0146  -26.9263   19.4514 C   0  0  0  0  0  0
  -24.8565  -27.7183   19.4569 C   0  0  0  0  0  0
  -23.6319  -29.8413   20.1555 C   0  0  0  0  0  0
  -25.4117  -36.3104   24.0341 C   0  0  1  0  0  0
  -20.5906  -28.3715   23.1310 C   0  0  2  0  0  0
  -20.6767  -26.9441   22.5422 C   0  0  0  0  0  0
  -19.5734  -26.6413   21.5238 C   0  0  0  0  0  0
  -18.1907  -26.7951   22.1655 C   0  0  0  0  0  0
  -19.1546  -28.8901   23.2883 C   0  0  0  0  0  0
  -18.9475  -30.1502   23.8890 C   0  0  0  0  0  0
  -17.6485  -30.6618   24.0604 C   0  0  0  0  0  0
  -25.9092  -34.9468   23.5130 C   0  0  0  0  0  0
  -16.5369  -29.9145   23.6338 C   0  0  0  0  0  0
  -16.7271  -28.6569   23.0349 C   0  0  0  0  0  0
  -26.4454  -31.6613   25.0773 C   0  0  0  0  0  0
  -25.3607  -31.3826   26.1462 C   0  0  0  0  0  0
  -27.0265  -30.3009   24.6246 C   0  0  0  0  0  0
  -27.6031  -32.4332   25.7510 C   0  0  0  0  0  0
  -27.5582  -37.1787   24.8483 C   0  0  0  0  0  0
  -21.4223  -29.3046   22.3736 N   0  0  0  0  0  0
  -26.4286  -37.3806   23.9445 N   0  0  0  0  0  0
  -24.6894  -31.0667   22.0971 N   0  0  0  0  0  0
  -23.4239  -28.8132   23.2983 O   0  0  0  0  0  0
  -28.3151  -26.4594   20.1427 O   0  0  0  0  0  0
  -26.5681  -34.8933   22.4714 O   0  0  0  0  0  0
  -23.5452  -32.1416   23.7348 O   0  0  0  0  0  0
  -28.3435  -19.9754   20.9361 C   0  0  0  0  0  0
  -28.9346  -18.6953   21.0979 C   0  0  0  0  0  0
  -30.4033  -20.8525   20.0534 C   0  0  0  0  0  0
  -29.0580  -21.0897   20.4229 C   0  0  0  0  0  0
  -30.2759  -18.4495   20.7339 C   0  0  0  0  0  0
  -31.0043  -19.5692   20.2171 C   0  0  0  0  0  0
  -28.3080  -22.4445   20.2186 C   0  0  0  0  0  0
  -30.9476  -17.0571   20.9948 C   0  0  0  0  0  0
  -29.0208  -23.8606   20.2827 C   0  0  0  0  0  0
  -28.0209  -25.0297   19.9229 C   0  0  0  0  0  0
  -30.1876  -15.7651   20.8592 N   0  0  0  0  0  0
  -32.6693  -19.4212   19.7835 Cl  0  0  0  0  0  0
  -31.4560  -12.4055   19.1461 H   0  0  0  0  0  0
  -30.2605  -11.3850   19.8931 H   0  0  0  0  0  0
  -29.7585  -11.7952   17.4499 H   0  0  0  0  0  0
  -29.6532  -13.5084   17.7672 H   0  0  0  0  0  0
  -27.8651  -11.3070   18.8610 H   0  0  0  0  0  0
  -27.3666  -12.5890   17.7909 H   0  0  0  0  0  0
  -27.6544  -14.2814   19.5177 H   0  0  0  0  0  0
  -28.7095  -12.1463   21.4162 H   0  0  0  0  0  0
  -28.4783  -13.8283   21.8067 H   0  0  0  0  0  0
  -25.2796   -9.5667   22.4818 H   0  0  0  0  0  0
  -24.0022   -7.4632   22.7479 H   0  0  0  0  0  0
  -21.0901   -8.8801   19.8993 H   0  0  0  0  0  0
  -22.3747  -10.9705   19.6200 H   0  0  0  0  0  0
  -21.1981   -7.6183   23.9763 H   0  0  0  0  0  0
  -21.1507   -6.0551   25.9116 H   0  0  0  0  0  0
  -22.0573   -2.7643   23.2843 H   0  0  0  0  0  0
  -22.4032  -11.9892   22.4818 H   0  0  0  0  0  0
  -21.1114  -13.1313   22.2576 H   0  0  0  0  0  0
  -24.6404  -15.8365   20.5347 H   0  0  0  0  0  0
  -26.2588  -15.6493   20.0890 H   0  0  0  0  0  0
  -26.7234  -32.5441   23.1137 H   0  0  0  0  0  0
  -25.0035  -33.9735   25.0393 H   0  0  0  0  0  0
  -22.7109  -31.3100   21.4161 H   0  0  0  0  0  0
  -23.3764  -35.9573   23.3340 H   0  0  0  0  0  0
  -24.3569  -36.8821   22.2042 H   0  0  0  0  0  0
  -23.7144  -37.6442   23.6625 H   0  0  0  0  0  0
  -26.1195  -31.5619   20.6195 H   0  0  0  0  0  0
  -26.8356  -30.8218   22.0213 H   0  0  0  0  0  0
  -28.1040  -28.9693   21.1995 H   0  0  0  0  0  0
  -25.9313  -25.9856   18.9263 H   0  0  0  0  0  0
  -23.9681  -27.3679   18.9495 H   0  0  0  0  0  0
  -23.7596  -30.6285   19.4122 H   0  0  0  0  0  0
  -22.7479  -29.2860   19.8355 H   0  0  0  0  0  0
  -25.1259  -36.1967   25.0826 H   0  0  0  0  0  0
  -20.9984  -28.3266   24.1449 H   0  0  0  0  0  0
  -20.5691  -26.2322   23.3621 H   0  0  0  0  0  0
  -21.6619  -26.7445   22.1215 H   0  0  0  0  0  0
  -19.6869  -25.6319   21.1270 H   0  0  0  0  0  0
  -19.6661  -27.3242   20.6788 H   0  0  0  0  0  0
  -17.4165  -26.6742   21.4052 H   0  0  0  0  0  0
  -18.0272  -26.0094   22.9060 H   0  0  0  0  0  0
  -19.7963  -30.7325   24.2235 H   0  0  0  0  0  0
  -17.5044  -31.6278   24.5246 H   0  0  0  0  0  0
  -15.5377  -30.3076   23.7649 H   0  0  0  0  0  0
  -15.8659  -28.0907   22.7064 H   0  0  0  0  0  0
  -24.5871  -30.7059   25.7796 H   0  0  0  0  0  0
  -24.8688  -32.3025   26.4650 H   0  0  0  0  0  0
  -25.7873  -30.9184   27.0362 H   0  0  0  0  0  0
  -26.2852  -29.6819   24.1176 H   0  0  0  0  0  0
  -27.3833  -29.7228   25.4770 H   0  0  0  0  0  0
  -27.8778  -30.4266   23.9550 H   0  0  0  0  0  0
  -27.2679  -33.3702   26.1962 H   0  0  0  0  0  0
  -28.3861  -32.6757   25.0315 H   0  0  0  0  0  0
  -28.0645  -31.8505   26.5477 H   0  0  0  0  0  0
  -28.2612  -38.0075   24.7579 H   0  0  0  0  0  0
  -28.1056  -36.2621   24.6244 H   0  0  0  0  0  0
  -27.2339  -37.1345   25.8893 H   0  0  0  0  0  0
  -20.9435  -29.8852   21.7026 H   0  0  0  0  0  0
  -26.0175  -38.2890   24.1464 H   0  0  0  0  0  0
  -27.3039  -20.0798   21.2090 H   0  0  0  0  0  0
  -28.3465  -17.8954   21.5281 H   0  0  0  0  0  0
  -30.9983  -21.6554   19.6431 H   0  0  0  0  0  0
  -27.5280  -22.4641   20.9794 H   0  0  0  0  0  0
  -27.7813  -22.3543   19.2648 H   0  0  0  0  0  0
  -31.3245  -17.0765   22.0206 H   0  0  0  0  0  0
  -31.8477  -17.0084   20.3821 H   0  0  0  0  0  0
  -29.8595  -23.9007   19.5874 H   0  0  0  0  0  0
  -29.4257  -24.0051   21.2826 H   0  0  0  0  0  0
  -27.1019  -24.7896   20.4627 H   0  0  0  0  0  0
  -27.7959  -24.9099   18.8610 H   0  0  0  0  0  0
  -29.1971  -15.7744   21.0345 H   0  0  0  0  0  0
  1 25  1  0  0  0
  1 30  2  0  0  0
  1 81  1  0  0  0
  2  3  1  0  0  0
  2 25  1  0  0  0
  2 83  1  0  0  0
  2 84  1  0  0  0
  3  4  1  0  0  0
  3 85  1  0  0  0
  3 86  1  0  0  0
  4  5  1  0  0  0
  4 87  1  0  0  0
  4 88  1  0  0  0
  5  6  1  0  0  0
  5 26  1  0  0  0
  5 89  1  0  0  0
  6 25  1  0  0  0
  6 90  1  0  0  0
  6 91  1  0  0  0
  7  8  2  0  0  0
  7 26  1  0  0  0
  7 29  1  0  0  0
  8  9  1  0  0  0
  8 22  1  0  0  0
  9 10  1  0  0  0
  9 27  2  0  0  0
 10 11  2  0  0  0
 10 15  1  0  0  0
 11 12  1  0  0  0
 11 92  1  0  0  0
 12 13  2  0  0  0
 12 93  1  0  0  0
 13 14  1  0  0  0
 13 31  1  0  0  0
 14 15  2  0  0  0
 14 94  1  0  0  0
 15 95  1  0  0  0
 16 17  2  0  0  0
 16 21  1  0  0  0
 16 31  1  0  0  0
 17 18  1  0  0  0
 17 96  1  0  0  0
 18 19  2  0  0  0
 18 97  1  0  0  0
 19 20  1  0  0  0
 19 24  1  0  0  0
 20 21  2  0  0  0
 20 98  1  0  0  0
 21 23  1  0  0  0
 22 28  1  0  0  0
 22 32  2  0  0  0
 26 27  1  0  0  0
 28 99  1  0  0  0
 28100  1  0  0  0
 29101  1  0  0  0
 29102  1  0  0  0
 33 34  1  0  0  0
 33 66  1  0  0  0
 33 70  2  0  0  0
 34 36  1  0  0  0
 34 59  1  0  0  0
 34103  1  0  0  0
 35 44  2  0  0  0
 35 45  1  0  0  0
 35 68  1  0  0  0
 36 56  1  0  0  0
 36104  1  0  0  0
 37 39  1  0  0  0
 37 47  1  0  0  0
 37 66  1  0  0  0
 37105  1  0  0  0
 38 43  2  0  0  0
 38 46  1  0  0  0
 38 47  1  0  0  0
 39 64  1  0  0  0
 39 67  2  0  0  0
 40 52  1  0  0  0
 40 53  2  0  0  0
 40 58  1  0  0  0
 41106  1  0  0  0
 41107  1  0  0  0
 41108  1  0  0  0
 41 48  1  0  0  0
 42 43  1  0  0  0
 42 66  1  0  0  0
 42109  1  0  0  0
 42110  1  0  0  0
 43 44  1  0  0  0
 44111  1  0  0  0
 45 46  2  0  0  0
 45112  1  0  0  0
 46113  1  0  0  0
 47114  1  0  0  0
 47115  1  0  0  0
 48 56  1  0  0  0
 48 65  1  0  0  0
 48116  1  0  0  0
 49 50  1  0  0  0
 49 53  1  0  0  0
 49 64  1  0  0  0
 49117  1  0  0  0
 50 51  1  0  0  0
 50118  1  0  0  0
 50119  1  0  0  0
 51 52  1  0  0  0
 51120  1  0  0  0
 51121  1  0  0  0
 52122  1  0  0  0
 52123  1  0  0  0
 53 54  1  0  0  0
 54 55  2  0  0  0
 54124  1  0  0  0
 55 57  1  0  0  0
 55125  1  0  0  0
 56 69  2  0  0  0
 57 58  2  0  0  0
 57126  1  0  0  0
 58127  1  0  0  0
 59 60  1  0  0  0
 59 61  1  0  0  0
 59 62  1  0  0  0
 60128  1  0  0  0
 60129  1  0  0  0
 60130  1  0  0  0
 61131  1  0  0  0
 61132  1  0  0  0
 61133  1  0  0  0
 62134  1  0  0  0
 62135  1  0  0  0
 62136  1  0  0  0
 63 65  1  0  0  0
 63137  1  0  0  0
 63138  1  0  0  0
 63139  1  0  0  0
 64140  1  0  0  0
 65141  1  0  0  0
 68 80  1  0  0  0
 71 72  2  0  0  0
 71 74  1  0  0  0
 71142  1  0  0  0
 72 75  1  0  0  0
 72143  1  0  0  0
 73 74  2  0  0  0
 73 76  1  0  0  0
 73144  1  0  0  0
 74 77  1  0  0  0
 75 76  2  0  0  0
 75 78  1  0  0  0
 76 82  1  0  0  0
 77 79  1  0  0  0
 77145  1  0  0  0
 77146  1  0  0  0
 78 81  1  0  0  0
 78147  1  0  0  0
 78148  1  0  0  0
 79 80  1  0  0  0
 79149  1  0  0  0
 79150  1  0  0  0
 80151  1  0  0  0
 80152  1  0  0  0
 81153  1  0  0  0
M  ISO  4   1 100  68 101  80 101  81 100
M  END
> <chiral flag>
0

> <version>
0

> <s_m_source_file>
/data/baiqing/PycharmProjects/Reinvent-master-3.2/result/LINK_invent/BTK/process_docking_weight1_custom_sum_contain_oxygen_bond_distance_aromatic_linkinvent_7_9_3/rearranged_h_0027.sdf

> <i_m_source_file_index>
85

> <r_mmod_Potential_Energy-OPLS-2005>
24.9444370269775

> <r_mmod_Stretch_Energy-OPLS-2005>
71.1998901367188

> <r_mmod_Bend_Energy-OPLS-2005>
145.390655517578

> <r_mmod_Torsional_Energy-OPLS-2005>
196.074768066406

> <r_mmod_Improper_Torsional_Energy-OPLS-2005>
3.97757863998413

> <r_mmod_Van_der_Waal_Energy-OPLS-2005>
155.782791137695

> <r_mmod_Electrostatic_Energy-OPLS-2005>
-387.659301757812

> <r_mmod_Solvation_Energy-OPLS-2005>
-208.590042114258

> <b_mmod_Minimization_Converged-OPLS-2005>
0

> <r_mmod_RMS_Derivative-OPLS-2005>
6.3945689201355

$$$$
85
                    3D
 Structure written by MMmdl.
153161  0  0  1  0            999 V2000
  -30.5190  -14.9755   20.3853 C   0  0  0  0  0  0
  -30.4450  -12.5977   19.4979 C   0  0  0  0  0  0
  -29.5299  -12.5230   18.2536 C   0  0  0  0  0  0
  -28.0567  -12.3172   18.6583 C   0  0  0  0  0  0
  -27.6283  -13.2443   19.8264 C   0  0  2  0  0  0
  -28.6716  -13.2818   20.9633 C   0  0  0  0  0  0
  -25.2477  -13.8199   20.5654 C   0  0  0  0  0  0
  -24.1795  -13.0417   20.9233 C   0  0  0  0  0  0
  -24.6395  -11.6915   20.8713 C   0  0  0  0  0  0
  -23.9061  -10.4288   21.0361 C   0  0  0  0  0  0
  -24.3628   -9.4233   21.9149 C   0  0  0  0  0  0
  -23.6304   -8.2260   22.0729 C   0  0  0  0  0  0
  -22.4269   -8.0281   21.3555 C   0  0  0  0  0  0
  -21.9916   -9.0247   20.4648 C   0  0  0  0  0  0
  -22.7227  -10.2125   20.3035 C   0  0  0  0  0  0
  -21.6861   -6.0734   22.5281 C   0  0  0  0  0  0
  -21.4030   -6.5620   23.8216 C   0  0  0  0  0  0
  -21.3683   -5.6776   24.9164 C   0  0  0  0  0  0
  -21.6032   -4.3046   24.7217 C   0  0  0  0  0  0
  -21.8831   -3.8147   23.4351 C   0  0  0  0  0  0
  -21.9191   -4.6964   22.3406 C   0  0  0  0  0  0
  -22.7829  -13.5198   21.1881 C   0  0  0  0  0  0
  -22.1643   -4.2138   21.0991 F   0  0  0  0  0  0
  -21.5653   -3.4533   25.7737 F   0  0  0  0  0  0
  -29.9443  -13.7021   20.3652 N   0  0  0  0  0  0
  -26.2887  -12.9415   20.3150 N   0  0  0  0  0  0
  -25.9317  -11.6551   20.5707 N   0  0  0  0  0  0
  -22.0486  -12.8200   22.0480 N   0  0  0  0  0  0
  -25.4125  -15.1910   20.4028 N   0  0  0  0  0  0
  -31.7269  -15.0388   20.1316 O   0  0  0  0  0  0
  -21.6659   -6.8866   21.4240 O   0  0  0  0  0  0
  -22.3503  -14.5463   20.6657 O   0  0  0  0  0  0
  -24.6482  -31.8398   23.1850 C   0  0  0  0  0  0
  -25.9262  -32.4656   23.8255 C   0  0  1  0  0  0
  -27.2097  -27.0879   20.1414 C   0  0  0  0  0  0
  -25.6012  -33.8465   24.2182 N   0  0  0  0  0  0
  -23.4516  -30.4583   21.5315 C   0  0  2  0  0  0
  -24.8979  -28.8756   20.1132 C   0  0  0  0  0  0
  -22.7583  -29.4533   22.4856 C   0  0  0  0  0  0
  -18.0305  -28.1373   22.8453 C   0  0  0  0  0  0
  -24.1494  -36.7228   23.2641 C   0  0  0  0  0  0
  -26.0116  -30.6955   21.3909 C   0  0  0  0  0  0
  -26.0804  -29.3022   20.7304 C   0  0  0  0  0  0
  -27.2358  -28.4249   20.7274 C   0  0  0  0  0  0
  -25.9954  -26.7725   19.4928 C   0  0  0  0  0  0
  -24.8707  -27.6263   19.4779 C   0  0  0  0  0  0
  -23.6798  -29.7880   20.1511 C   0  0  0  0  0  0
  -25.4116  -36.2995   24.0314 C   0  0  1  0  0  0
  -20.5923  -28.3719   23.1218 C   0  0  2  0  0  0
  -20.6790  -26.9416   22.5404 C   0  0  0  0  0  0
  -19.5778  -26.6354   21.5208 C   0  0  0  0  0  0
  -18.1950  -26.7904   22.1601 C   0  0  0  0  0  0
  -19.1561  -28.8858   23.2828 C   0  0  0  0  0  0
  -18.9482  -30.1451   23.8854 C   0  0  0  0  0  0
  -17.6482  -30.6575   24.0532 C   0  0  0  0  0  0
  -25.9077  -34.9385   23.5052 C   0  0  0  0  0  0
  -16.5367  -29.9059   23.6344 C   0  0  0  0  0  0
  -16.7288  -28.6484   23.0348 C   0  0  0  0  0  0
  -26.4571  -31.6520   25.0712 C   0  0  0  0  0  0
  -25.3756  -31.3720   26.1414 C   0  0  0  0  0  0
  -27.0451  -30.2897   24.6345 C   0  0  0  0  0  0
  -27.6072  -32.4289   25.7509 C   0  0  0  0  0  0
  -27.5576  -37.1763   24.8462 C   0  0  0  0  0  0
  -21.4276  -29.3039   22.3593 N   0  0  0  0  0  0
  -26.4268  -37.3725   23.9421 N   0  0  0  0  0  0
  -24.7235  -31.0199   22.0909 N   0  0  0  0  0  0
  -23.4204  -28.8082   23.3025 O   0  0  0  0  0  0
  -28.2522  -26.0744   20.1876 O   0  0  0  0  0  0
  -26.5666  -34.8900   22.4637 O   0  0  0  0  0  0
  -23.5595  -32.1313   23.7046 O   0  0  0  0  0  0
  -29.4192  -20.1067   20.1155 C   0  0  0  0  0  0
  -28.9541  -18.6845   20.3836 C   0  0  0  0  0  0
  -30.7586  -19.9831   19.7813 C   0  0  0  0  0  0
  -29.8678  -17.5727   20.3056 C   0  0  0  0  0  0
  -27.5070  -18.4414   20.6899 C   0  0  0  0  0  0
  -31.6991  -21.0479   19.3205 C   0  0  0  0  0  0
  -28.5238  -21.5201   20.0871 C   0  0  0  0  0  0
  -28.9916  -23.1636   20.1838 C   0  0  0  0  0  0
  -27.9584  -24.5268   20.0526 C   0  0  0  0  0  0
  -29.7026  -16.1433   20.4970 N   0  0  0  0  0  0
  -31.3882  -18.3177   19.8654 S   0  0  0  0  0  0
  -31.4746  -12.7608   19.1797 H   0  0  0  0  0  0
  -30.4473  -11.6475   20.0363 H   0  0  0  0  0  0
  -29.8563  -11.7150   17.5972 H   0  0  0  0  0  0
  -29.6259  -13.4449   17.6775 H   0  0  0  0  0  0
  -27.9374  -11.2747   18.9533 H   0  0  0  0  0  0
  -27.4062  -12.4639   17.7948 H   0  0  0  0  0  0
  -27.5870  -14.2456   19.3996 H   0  0  0  0  0  0
  -28.7651  -12.3072   21.4408 H   0  0  0  0  0  0
  -28.3625  -13.9769   21.7445 H   0  0  0  0  0  0
  -25.2772   -9.5703   22.4721 H   0  0  0  0  0  0
  -24.0030   -7.4646   22.7423 H   0  0  0  0  0  0
  -21.0866   -8.8732   19.8947 H   0  0  0  0  0  0
  -22.3652  -10.9656   19.6154 H   0  0  0  0  0  0
  -21.2003   -7.6127   23.9705 H   0  0  0  0  0  0
  -21.1501   -6.0515   25.9068 H   0  0  0  0  0  0
  -22.0584   -2.7610   23.2848 H   0  0  0  0  0  0
  -22.4078  -11.9908   22.4957 H   0  0  0  0  0  0
  -21.1063  -13.1199   22.2575 H   0  0  0  0  0  0
  -24.6406  -15.8411   20.5043 H   0  0  0  0  0  0
  -26.2187  -15.6145   19.9631 H   0  0  0  0  0  0
  -26.7328  -32.5243   23.0972 H   0  0  0  0  0  0
  -25.0162  -33.9564   25.0332 H   0  0  0  0  0  0
  -22.7570  -31.2864   21.3756 H   0  0  0  0  0  0
  -23.3768  -35.9549   23.3260 H   0  0  0  0  0  0
  -24.3583  -36.8900   22.2066 H   0  0  0  0  0  0
  -23.7240  -37.6405   23.6700 H   0  0  0  0  0  0
  -26.1805  -31.4472   20.6186 H   0  0  0  0  0  0
  -26.8771  -30.7395   22.0402 H   0  0  0  0  0  0
  -28.1346  -28.7431   21.2368 H   0  0  0  0  0  0
  -25.8763  -25.8191   19.0029 H   0  0  0  0  0  0
  -23.9679  -27.2948   18.9821 H   0  0  0  0  0  0
  -23.8271  -30.5644   19.3979 H   0  0  0  0  0  0
  -22.7903  -29.2398   19.8332 H   0  0  0  0  0  0
  -25.1305  -36.1801   25.0800 H   0  0  0  0  0  0
  -21.0005  -28.3308   24.1344 H   0  0  0  0  0  0
  -20.5641  -26.2352   23.3633 H   0  0  0  0  0  0
  -21.6654  -26.7389   22.1237 H   0  0  0  0  0  0
  -19.6939  -25.6252   21.1267 H   0  0  0  0  0  0
  -19.6706  -27.3132   20.6710 H   0  0  0  0  0  0
  -17.4224  -26.6651   21.3993 H   0  0  0  0  0  0
  -18.0337  -26.0030   22.8988 H   0  0  0  0  0  0
  -19.7957  -30.7268   24.2197 H   0  0  0  0  0  0
  -17.5031  -31.6246   24.5152 H   0  0  0  0  0  0
  -15.5361  -30.2943   23.7668 H   0  0  0  0  0  0
  -15.8693  -28.0770   22.7089 H   0  0  0  0  0  0
  -24.5918  -30.7088   25.7752 H   0  0  0  0  0  0
  -24.8997  -32.2915   26.4818 H   0  0  0  0  0  0
  -25.8053  -30.8904   27.0209 H   0  0  0  0  0  0
  -26.3102  -29.6573   24.1362 H   0  0  0  0  0  0
  -27.4047  -29.7223   25.4944 H   0  0  0  0  0  0
  -27.9009  -30.4090   23.9698 H   0  0  0  0  0  0
  -27.2637  -33.3573   26.2071 H   0  0  0  0  0  0
  -28.3910  -32.6876   25.0381 H   0  0  0  0  0  0
  -28.0732  -31.8453   26.5455 H   0  0  0  0  0  0
  -28.2564  -38.0094   24.7536 H   0  0  0  0  0  0
  -28.1107  -36.2628   24.6227 H   0  0  0  0  0  0
  -27.2323  -37.1334   25.8876 H   0  0  0  0  0  0
  -20.9498  -29.8764   21.6779 H   0  0  0  0  0  0
  -26.0127  -38.2781   24.1445 H   0  0  0  0  0  0
  -27.1617  -19.0850   21.4964 H   0  0  0  0  0  0
  -27.3113  -17.4145   20.9982 H   0  0  0  0  0  0
  -26.8920  -18.6498   19.8150 H   0  0  0  0  0  0
  -31.9208  -21.7610   20.1136 H   0  0  0  0  0  0
  -31.2964  -21.5865   18.4637 H   0  0  0  0  0  0
  -32.6454  -20.6054   19.0042 H   0  0  0  0  0  0
  -27.7652  -21.4089   20.8625 H   0  0  0  0  0  0
  -27.9350  -21.4607   19.1707 H   0  0  0  0  0  0
  -29.7561  -23.3052   19.4197 H   0  0  0  0  0  0
  -29.5241  -23.2696   21.1293 H   0  0  0  0  0  0
  -27.1484  -24.3383   20.7614 H   0  0  0  0  0  0
  -27.4984  -24.4131   19.0712 H   0  0  0  0  0  0
  -28.7540  -15.8855   20.7195 H   0  0  0  0  0  0
  1 25  1  0  0  0
  1 30  2  0  0  0
  1 80  1  0  0  0
  2  3  1  0  0  0
  2 25  1  0  0  0
  2 82  1  0  0  0
  2 83  1  0  0  0
  3  4  1  0  0  0
  3 84  1  0  0  0
  3 85  1  0  0  0
  4  5  1  0  0  0
  4 86  1  0  0  0
  4 87  1  0  0  0
  5  6  1  0  0  0
  5 26  1  0  0  0
  5 88  1  0  0  0
  6 25  1  0  0  0
  6 89  1  0  0  0
  6 90  1  0  0  0
  7  8  2  0  0  0
  7 26  1  0  0  0
  7 29  1  0  0  0
  8  9  1  0  0  0
  8 22  1  0  0  0
  9 10  1  0  0  0
  9 27  2  0  0  0
 10 11  2  0  0  0
 10 15  1  0  0  0
 11 12  1  0  0  0
 11 91  1  0  0  0
 12 13  2  0  0  0
 12 92  1  0  0  0
 13 14  1  0  0  0
 13 31  1  0  0  0
 14 15  2  0  0  0
 14 93  1  0  0  0
 15 94  1  0  0  0
 16 17  2  0  0  0
 16 21  1  0  0  0
 16 31  1  0  0  0
 17 18  1  0  0  0
 17 95  1  0  0  0
 18 19  2  0  0  0
 18 96  1  0  0  0
 19 20  1  0  0  0
 19 24  1  0  0  0
 20 21  2  0  0  0
 20 97  1  0  0  0
 21 23  1  0  0  0
 22 28  1  0  0  0
 22 32  2  0  0  0
 26 27  1  0  0  0
 28 98  1  0  0  0
 28 99  1  0  0  0
 29100  1  0  0  0
 29101  1  0  0  0
 33 34  1  0  0  0
 33 66  1  0  0  0
 33 70  2  0  0  0
 34 36  1  0  0  0
 34 59  1  0  0  0
 34102  1  0  0  0
 35 44  2  0  0  0
 35 45  1  0  0  0
 35 68  1  0  0  0
 36 56  1  0  0  0
 36103  1  0  0  0
 37 39  1  0  0  0
 37 47  1  0  0  0
 37 66  1  0  0  0
 37104  1  0  0  0
 38 43  2  0  0  0
 38 46  1  0  0  0
 38 47  1  0  0  0
 39 64  1  0  0  0
 39 67  2  0  0  0
 40 52  1  0  0  0
 40 53  2  0  0  0
 40 58  1  0  0  0
 41105  1  0  0  0
 41106  1  0  0  0
 41107  1  0  0  0
 41 48  1  0  0  0
 42 43  1  0  0  0
 42 66  1  0  0  0
 42108  1  0  0  0
 42109  1  0  0  0
 43 44  1  0  0  0
 44110  1  0  0  0
 45 46  2  0  0  0
 45111  1  0  0  0
 46112  1  0  0  0
 47113  1  0  0  0
 47114  1  0  0  0
 48 56  1  0  0  0
 48 65  1  0  0  0
 48115  1  0  0  0
 49 50  1  0  0  0
 49 53  1  0  0  0
 49 64  1  0  0  0
 49116  1  0  0  0
 50 51  1  0  0  0
 50117  1  0  0  0
 50118  1  0  0  0
 51 52  1  0  0  0
 51119  1  0  0  0
 51120  1  0  0  0
 52121  1  0  0  0
 52122  1  0  0  0
 53 54  1  0  0  0
 54 55  2  0  0  0
 54123  1  0  0  0
 55 57  1  0  0  0
 55124  1  0  0  0
 56 69  2  0  0  0
 57 58  2  0  0  0
 57125  1  0  0  0
 58126  1  0  0  0
 59 60  1  0  0  0
 59 61  1  0  0  0
 59 62  1  0  0  0
 60127  1  0  0  0
 60128  1  0  0  0
 60129  1  0  0  0
 61130  1  0  0  0
 61131  1  0  0  0
 61132  1  0  0  0
 62133  1  0  0  0
 62134  1  0  0  0
 62135  1  0  0  0
 63 65  1  0  0  0
 63136  1  0  0  0
 63137  1  0  0  0
 63138  1  0  0  0
 64139  1  0  0  0
 65140  1  0  0  0
 68 79  1  0  0  0
 71 72  1  0  0  0
 71 73  2  0  0  0
 71 77  1  0  0  0
 72 74  2  0  0  0
 72 75  1  0  0  0
 73 76  1  0  0  0
 73 81  1  0  0  0
 74 80  1  0  0  0
 74 81  1  0  0  0
 75141  1  0  0  0
 75142  1  0  0  0
 75143  1  0  0  0
 76144  1  0  0  0
 76145  1  0  0  0
 76146  1  0  0  0
 77 78  1  0  0  0
 77147  1  0  0  0
 77148  1  0  0  0
 78 79  1  0  0  0
 78149  1  0  0  0
 78150  1  0  0  0
 79151  1  0  0  0
 79152  1  0  0  0
 80153  1  0  0  0
M  ISO  4   1 100  68 101  79 101  80 100
M  END
> <chiral flag>
0

> <version>
0

> <s_m_source_file>
/data/baiqing/PycharmProjects/Reinvent-master-3.2/result/LINK_invent/BTK/process_docking_weight1_custom_sum_contain_oxygen_bond_distance_aromatic_linkinvent_7_9_3/rearranged_h_0027.sdf

> <i_m_source_file_index>
86

> <r_mmod_Potential_Energy-OPLS-2005>
514.198181152344

> <r_mmod_Stretch_Energy-OPLS-2005>
294.124450683594

> <r_mmod_Bend_Energy-OPLS-2005>
279.946533203125

> <r_mmod_Torsional_Energy-OPLS-2005>
203.901840209961

> <r_mmod_Improper_Torsional_Energy-OPLS-2005>
5.04001331329346

> <r_mmod_Van_der_Waal_Energy-OPLS-2005>
105.557762145996

> <r_mmod_Electrostatic_Energy-OPLS-2005>
-386.461486816406

> <r_mmod_Solvation_Energy-OPLS-2005>
-211.186782836914

> <b_mmod_Minimization_Converged-OPLS-2005>
0

> <r_mmod_RMS_Derivative-OPLS-2005>
4.95730304718018

$$$$
86
                    3D
 Structure written by MMmdl.
179187  0  0  1  0            999 V2000
  -30.8641  -14.2342   20.7884 C   0  0  0  0  0  0
  -30.4053  -12.2906   19.3543 C   0  0  0  0  0  0
  -29.4632  -12.5455   18.1709 C   0  0  0  0  0  0
  -28.0002  -12.3705   18.6080 C   0  0  0  0  0  0
  -27.6654  -13.2022   19.8720 C   0  0  2  0  0  0
  -28.7058  -12.9690   20.9894 C   0  0  0  0  0  0
  -25.2627  -13.8168   20.5683 C   0  0  0  0  0  0
  -24.1854  -13.0434   20.9170 C   0  0  0  0  0  0
  -24.6411  -11.6914   20.8738 C   0  0  0  0  0  0
  -23.9076  -10.4294   21.0416 C   0  0  0  0  0  0
  -24.3632   -9.4211   21.9193 C   0  0  0  0  0  0
  -23.6303   -8.2249   22.0767 C   0  0  0  0  0  0
  -22.4283   -8.0284   21.3552 C   0  0  0  0  0  0
  -21.9926   -9.0263   20.4649 C   0  0  0  0  0  0
  -22.7255  -10.2148   20.3066 C   0  0  0  0  0  0
  -21.6854   -6.0736   22.5283 C   0  0  0  0  0  0
  -21.4023   -6.5643   23.8218 C   0  0  0  0  0  0
  -21.3654   -5.6795   24.9177 C   0  0  0  0  0  0
  -21.6047   -4.3056   24.7233 C   0  0  0  0  0  0
  -21.8819   -3.8153   23.4346 C   0  0  0  0  0  0
  -21.9198   -4.6970   22.3405 C   0  0  0  0  0  0
  -22.7885  -13.5251   21.1817 C   0  0  0  0  0  0
  -22.1659   -4.2151   21.0985 F   0  0  0  0  0  0
  -21.5630   -3.4540   25.7740 F   0  0  0  0  0  0
  -30.0557  -13.2064   20.4470 N   0  0  0  0  0  0
  -26.3052  -12.9328   20.3363 N   0  0  0  0  0  0
  -25.9331  -11.6489   20.5755 N   0  0  0  0  0  0
  -22.0521  -12.8232   22.0374 N   0  0  0  0  0  0
  -25.4343  -15.1879   20.4090 N   0  0  0  0  0  0
  -31.7568  -14.6843   20.0618 O   0  0  0  0  0  0
  -21.6641   -6.8890   21.4241 O   0  0  0  0  0  0
  -22.3574  -14.5545   20.6660 O   0  0  0  0  0  0
  -24.6080  -31.8704   23.2176 C   0  0  0  0  0  0
  -25.8974  -32.4881   23.8442 C   0  0  1  0  0  0
  -27.2279  -27.4752   20.0708 C   0  0  0  0  0  0
  -25.5842  -33.8688   24.2377 N   0  0  0  0  0  0
  -23.3968  -30.4938   21.5589 C   0  0  2  0  0  0
  -24.8432  -28.9802   20.1028 C   0  0  0  0  0  0
  -22.7336  -29.4644   22.5006 C   0  0  0  0  0  0
  -18.0245  -28.1387   22.8502 C   0  0  0  0  0  0
  -24.1458  -36.7325   23.2636 C   0  0  0  0  0  0
  -25.9213  -30.8433   21.3688 C   0  0  0  0  0  0
  -26.0001  -29.4877   20.7068 C   0  0  0  0  0  0
  -27.1966  -28.7385   20.6975 C   0  0  0  0  0  0
  -26.0598  -26.9906   19.4377 C   0  0  0  0  0  0
  -24.8648  -27.7271   19.4696 C   0  0  0  0  0  0
  -23.5998  -29.8348   20.1707 C   0  0  0  0  0  0
  -25.4108  -36.3166   24.0338 C   0  0  1  0  0  0
  -20.5816  -28.3648   23.1329 C   0  0  2  0  0  0
  -20.6732  -26.9359   22.5537 C   0  0  0  0  0  0
  -19.5818  -26.6397   21.5229 C   0  0  0  0  0  0
  -18.1917  -26.8000   22.1478 C   0  0  0  0  0  0
  -19.1490  -28.8823   23.2933 C   0  0  0  0  0  0
  -18.9439  -30.1412   23.8986 C   0  0  0  0  0  0
  -17.6469  -30.6613   24.0596 C   0  0  0  0  0  0
  -25.9020  -34.9515   23.5162 C   0  0  0  0  0  0
  -16.5343  -29.9140   23.6369 C   0  0  0  0  0  0
  -16.7236  -28.6530   23.0420 C   0  0  0  0  0  0
  -26.4426  -31.6648   25.0744 C   0  0  0  0  0  0
  -25.3703  -31.3764   26.1497 C   0  0  0  0  0  0
  -27.0250  -30.3094   24.6097 C   0  0  0  0  0  0
  -27.6033  -32.4337   25.7480 C   0  0  0  0  0  0
  -27.5593  -37.1829   24.8487 C   0  0  0  0  0  0
  -21.4068  -29.2963   22.3663 N   0  0  0  0  0  0
  -26.4330  -37.3838   23.9402 N   0  0  0  0  0  0
  -24.6614  -31.0792   22.1096 N   0  0  0  0  0  0
  -23.4100  -28.8264   23.3113 O   0  0  0  0  0  0
  -28.3729  -26.7138   20.1378 O   0  0  0  0  0  0
  -26.5612  -34.8966   22.4745 O   0  0  0  0  0  0
  -23.5265  -32.1428   23.7568 O   0  0  0  0  0  0
  -27.5860  -23.0931   24.1949 C   0  0  0  0  0  0
  -27.4344  -22.9351   25.5866 C   0  0  0  0  0  0
  -25.2165  -23.9553   25.4649 C   0  0  0  0  0  0
  -26.5708  -23.6920   23.4287 C   0  0  0  0  0  0
  -26.2539  -23.3689   26.2183 C   0  0  0  0  0  0
  -25.3760  -24.1383   24.0683 C   0  0  0  0  0  0
  -23.9473  -24.3962   26.1814 C   0  0  0  0  0  0
  -25.8645  -23.3096   21.1355 C   0  0  0  0  0  0
  -28.5371  -22.2796   26.3913 C   0  0  0  0  0  0
  -30.6473  -16.8271   24.0434 C   0  0  0  0  0  0
  -30.8525  -18.1598   24.7798 C   0  0  0  0  0  0
  -31.9164  -16.4174   23.2783 C   0  0  0  0  0  0
  -29.5606  -18.7399   25.3699 C   0  0  0  0  0  0
  -31.9721  -14.9330   22.8946 C   0  0  0  0  0  0
  -27.3782  -25.1978   21.8043 C   0  0  0  0  0  0
  -29.7613  -20.1649   25.9193 C   0  0  0  0  0  0
  -28.1555  -25.3347   20.4654 C   0  0  0  0  0  0
  -30.8279  -14.4904   22.1011 N   0  0  0  0  0  0
  -26.8526  -23.8594   22.0615 N   0  0  0  0  0  0
  -28.4714  -20.8189   26.2077 N   0  3  0  0  0  0
  -26.1195  -23.2155   27.5579 F   0  0  0  0  0  0
  -24.1264  -24.9496   23.1778 Cl  0  0  0  0  0  0
  -31.4449  -12.3980   19.0384 H   0  0  0  0  0  0
  -30.3095  -11.2608   19.7023 H   0  0  0  0  0  0
  -29.6950  -11.8658   17.3498 H   0  0  0  0  0  0
  -29.6152  -13.5564   17.7885 H   0  0  0  0  0  0
  -27.8296  -11.3097   18.8009 H   0  0  0  0  0  0
  -27.3307  -12.6420   17.7909 H   0  0  0  0  0  0
  -27.7195  -14.2524   19.5840 H   0  0  0  0  0  0
  -28.6476  -11.9459   21.3627 H   0  0  0  0  0  0
  -28.4677  -13.6167   21.8344 H   0  0  0  0  0  0
  -25.2779   -9.5672   22.4767 H   0  0  0  0  0  0
  -24.0002   -7.4645   22.7492 H   0  0  0  0  0  0
  -21.0862   -8.8785   19.8950 H   0  0  0  0  0  0
  -22.3712  -10.9695   19.6186 H   0  0  0  0  0  0
  -21.2017   -7.6154   23.9726 H   0  0  0  0  0  0
  -21.1472   -6.0523   25.9083 H   0  0  0  0  0  0
  -22.0605   -2.7615   23.2853 H   0  0  0  0  0  0
  -22.4135  -11.9890   22.4745 H   0  0  0  0  0  0
  -21.1162  -13.1292   22.2596 H   0  0  0  0  0  0
  -24.6695  -15.8460   20.5171 H   0  0  0  0  0  0
  -26.2976  -15.6291   20.1132 H   0  0  0  0  0  0
  -26.7026  -32.5589   23.1205 H   0  0  0  0  0  0
  -25.0022  -33.9928   25.0532 H   0  0  0  0  0  0
  -22.6829  -31.3096   21.4281 H   0  0  0  0  0  0
  -23.3762  -35.9614   23.3330 H   0  0  0  0  0  0
  -24.3498  -36.8905   22.2032 H   0  0  0  0  0  0
  -23.7155  -37.6512   23.6639 H   0  0  0  0  0  0
  -26.0209  -31.6169   20.6044 H   0  0  0  0  0  0
  -26.8122  -30.8956   21.9817 H   0  0  0  0  0  0
  -28.0808  -29.1086   21.1978 H   0  0  0  0  0  0
  -26.0560  -26.0450   18.9181 H   0  0  0  0  0  0
  -23.9788  -27.3276   18.9974 H   0  0  0  0  0  0
  -23.6882  -30.6168   19.4151 H   0  0  0  0  0  0
  -22.7300  -29.2419   19.8894 H   0  0  0  0  0  0
  -25.1286  -36.2071   25.0837 H   0  0  0  0  0  0
  -20.9928  -28.3279   24.1442 H   0  0  0  0  0  0
  -20.5500  -26.2303   23.3767 H   0  0  0  0  0  0
  -21.6670  -26.7342   22.1495 H   0  0  0  0  0  0
  -19.7008  -25.6311   21.1281 H   0  0  0  0  0  0
  -19.6954  -27.3194   20.6761 H   0  0  0  0  0  0
  -17.4325  -26.6947   21.3720 H   0  0  0  0  0  0
  -18.0112  -26.0033   22.8689 H   0  0  0  0  0  0
  -19.7916  -30.7162   24.2447 H   0  0  0  0  0  0
  -17.5046  -31.6322   24.5134 H   0  0  0  0  0  0
  -15.5351  -30.3115   23.7679 H   0  0  0  0  0  0
  -15.8589  -28.0914   22.7160 H   0  0  0  0  0  0
  -24.5970  -30.6993   25.7882 H   0  0  0  0  0  0
  -24.8761  -32.2904   26.4790 H   0  0  0  0  0  0
  -25.8048  -30.9093   27.0345 H   0  0  0  0  0  0
  -26.2818  -29.6885   24.1092 H   0  0  0  0  0  0
  -27.3942  -29.7298   25.4563 H   0  0  0  0  0  0
  -27.8659  -30.4417   23.9289 H   0  0  0  0  0  0
  -27.2725  -33.3668   26.2056 H   0  0  0  0  0  0
  -28.3828  -32.6829   25.0277 H   0  0  0  0  0  0
  -28.0707  -31.8434   26.5372 H   0  0  0  0  0  0
  -28.2697  -38.0044   24.7493 H   0  0  0  0  0  0
  -28.0979  -36.2581   24.6377 H   0  0  0  0  0  0
  -27.2295  -37.1590   25.8885 H   0  0  0  0  0  0
  -20.9148  -29.8632   21.6894 H   0  0  0  0  0  0
  -26.0220  -38.2924   24.1383 H   0  0  0  0  0  0
  -28.4939  -22.7639   23.7048 H   0  0  0  0  0  0
  -23.8805  -23.9574   27.1778 H   0  0  0  0  0  0
  -23.0604  -24.0777   25.6329 H   0  0  0  0  0  0
  -23.9217  -25.4812   26.2934 H   0  0  0  0  0  0
  -25.0667  -22.7715   21.6477 H   0  0  0  0  0  0
  -26.3345  -22.6024   20.4532 H   0  0  0  0  0  0
  -25.4002  -24.0945   20.5368 H   0  0  0  0  0  0
  -28.4405  -22.5204   27.4505 H   0  0  0  0  0  0
  -29.4931  -22.6986   26.0679 H   0  0  0  0  0  0
  -29.8194  -16.9081   23.3359 H   0  0  0  0  0  0
  -30.3653  -16.0562   24.7634 H   0  0  0  0  0  0
  -31.2802  -18.8824   24.0828 H   0  0  0  0  0  0
  -31.5864  -18.0278   25.5771 H   0  0  0  0  0  0
  -32.7923  -16.6325   23.8935 H   0  0  0  0  0  0
  -32.0215  -17.0346   22.3839 H   0  0  0  0  0  0
  -29.1803  -18.0838   26.1544 H   0  0  0  0  0  0
  -28.8007  -18.7631   24.5880 H   0  0  0  0  0  0
  -32.0041  -14.3203   23.7970 H   0  0  0  0  0  0
  -32.9092  -14.7260   22.3725 H   0  0  0  0  0  0
  -26.5242  -25.8736   21.8354 H   0  0  0  0  0  0
  -28.0296  -25.5128   22.6215 H   0  0  0  0  0  0
  -30.2966  -20.7568   25.1743 H   0  0  0  0  0  0
  -30.3819  -20.1578   26.8172 H   0  0  0  0  0  0
  -29.1238  -24.8411   20.5559 H   0  0  0  0  0  0
  -27.6449  -24.8308   19.6442 H   0  0  0  0  0  0
  -30.0730  -14.0476   22.6058 H   0  0  0  0  0  0
  -27.8599  -20.6506   25.4269 H   0  0  0  0  0  0
  -28.0428  -20.4059   27.0199 H   0  0  0  0  0  0
  1 25  1  0  0  0
  1 30  2  0  0  0
  1 88  1  0  0  0
  2  3  1  0  0  0
  2 25  1  0  0  0
  2 93  1  0  0  0
  2 94  1  0  0  0
  3  4  1  0  0  0
  3 95  1  0  0  0
  3 96  1  0  0  0
  4  5  1  0  0  0
  4 97  1  0  0  0
  4 98  1  0  0  0
  5  6  1  0  0  0
  5 26  1  0  0  0
  5 99  1  0  0  0
  6 25  1  0  0  0
  6100  1  0  0  0
  6101  1  0  0  0
  7  8  2  0  0  0
  7 26  1  0  0  0
  7 29  1  0  0  0
  8  9  1  0  0  0
  8 22  1  0  0  0
  9 10  1  0  0  0
  9 27  2  0  0  0
 10 11  2  0  0  0
 10 15  1  0  0  0
 11 12  1  0  0  0
 11102  1  0  0  0
 12 13  2  0  0  0
 12103  1  0  0  0
 13 14  1  0  0  0
 13 31  1  0  0  0
 14 15  2  0  0  0
 14104  1  0  0  0
 15105  1  0  0  0
 16 17  2  0  0  0
 16 21  1  0  0  0
 16 31  1  0  0  0
 17 18  1  0  0  0
 17106  1  0  0  0
 18 19  2  0  0  0
 18107  1  0  0  0
 19 20  1  0  0  0
 19 24  1  0  0  0
 20 21  2  0  0  0
 20108  1  0  0  0
 21 23  1  0  0  0
 22 28  1  0  0  0
 22 32  2  0  0  0
 26 27  1  0  0  0
 28109  1  0  0  0
 28110  1  0  0  0
 29111  1  0  0  0
 29112  1  0  0  0
 33 34  1  0  0  0
 33 66  1  0  0  0
 33 70  2  0  0  0
 34 36  1  0  0  0
 34 59  1  0  0  0
 34113  1  0  0  0
 35 44  2  0  0  0
 35 45  1  0  0  0
 35 68  1  0  0  0
 36 56  1  0  0  0
 36114  1  0  0  0
 37 39  1  0  0  0
 37 47  1  0  0  0
 37 66  1  0  0  0
 37115  1  0  0  0
 38 43  2  0  0  0
 38 46  1  0  0  0
 38 47  1  0  0  0
 39 64  1  0  0  0
 39 67  2  0  0  0
 40 52  1  0  0  0
 40 53  2  0  0  0
 40 58  1  0  0  0
 41116  1  0  0  0
 41117  1  0  0  0
 41118  1  0  0  0
 41 48  1  0  0  0
 42 43  1  0  0  0
 42 66  1  0  0  0
 42119  1  0  0  0
 42120  1  0  0  0
 43 44  1  0  0  0
 44121  1  0  0  0
 45 46  2  0  0  0
 45122  1  0  0  0
 46123  1  0  0  0
 47124  1  0  0  0
 47125  1  0  0  0
 48 56  1  0  0  0
 48 65  1  0  0  0
 48126  1  0  0  0
 49 50  1  0  0  0
 49 53  1  0  0  0
 49 64  1  0  0  0
 49127  1  0  0  0
 50 51  1  0  0  0
 50128  1  0  0  0
 50129  1  0  0  0
 51 52  1  0  0  0
 51130  1  0  0  0
 51131  1  0  0  0
 52132  1  0  0  0
 52133  1  0  0  0
 53 54  1  0  0  0
 54 55  2  0  0  0
 54134  1  0  0  0
 55 57  1  0  0  0
 55135  1  0  0  0
 56 69  2  0  0  0
 57 58  2  0  0  0
 57136  1  0  0  0
 58137  1  0  0  0
 59 60  1  0  0  0
 59 61  1  0  0  0
 59 62  1  0  0  0
 60138  1  0  0  0
 60139  1  0  0  0
 60140  1  0  0  0
 61141  1  0  0  0
 61142  1  0  0  0
 61143  1  0  0  0
 62144  1  0  0  0
 62145  1  0  0  0
 62146  1  0  0  0
 63 65  1  0  0  0
 63147  1  0  0  0
 63148  1  0  0  0
 63149  1  0  0  0
 64150  1  0  0  0
 65151  1  0  0  0
 68 87  1  0  0  0
 71 72  2  0  0  0
 71 74  1  0  0  0
 71152  1  0  0  0
 72 75  1  0  0  0
 72 79  1  0  0  0
 73 75  2  0  0  0
 73 76  1  0  0  0
 73 77  1  0  0  0
 74 76  2  0  0  0
 74 89  1  0  0  0
 75 91  1  0  0  0
 76 92  1  0  0  0
 77153  1  0  0  0
 77154  1  0  0  0
 77155  1  0  0  0
 78 89  1  0  0  0
 78156  1  0  0  0
 78157  1  0  0  0
 78158  1  0  0  0
 79 90  1  0  0  0
 79159  1  0  0  0
 79160  1  0  0  0
 80 81  1  0  0  0
 80 82  1  0  0  0
 80161  1  0  0  0
 80162  1  0  0  0
 81 83  1  0  0  0
 81163  1  0  0  0
 81164  1  0  0  0
 82 84  1  0  0  0
 82165  1  0  0  0
 82166  1  0  0  0
 83 86  1  0  0  0
 83167  1  0  0  0
 83168  1  0  0  0
 84 88  1  0  0  0
 84169  1  0  0  0
 84170  1  0  0  0
 85 87  1  0  0  0
 85 89  1  0  0  0
 85171  1  0  0  0
 85172  1  0  0  0
 86 90  1  0  0  0
 86173  1  0  0  0
 86174  1  0  0  0
 87175  1  0  0  0
 87176  1  0  0  0
 88177  1  0  0  0
 90178  1  0  0  0
 90179  1  0  0  0
M  CHG  1  90   1
M  ISO  4   1 100  68 101  87 101  88 100
M  END
> <chiral flag>
0

> <version>
0

> <s_m_source_file>
/data/baiqing/PycharmProjects/Reinvent-master-3.2/result/LINK_invent/BTK/process_docking_weight1_custom_sum_contain_oxygen_bond_distance_aromatic_linkinvent_7_9_3/rearranged_h_0027.sdf

> <i_m_source_file_index>
87

> <r_mmod_Potential_Energy-OPLS-2005>
-216.30339050293

> <r_mmod_Stretch_Energy-OPLS-2005>
33.3041801452637

> <r_mmod_Bend_Energy-OPLS-2005>
91.0000839233398

> <r_mmod_Torsional_Energy-OPLS-2005>
246.389633178711

> <r_mmod_Improper_Torsional_Energy-OPLS-2005>
12.4808187484741

> <r_mmod_Van_der_Waal_Energy-OPLS-2005>
157.610275268555

> <r_mmod_Electrostatic_Energy-OPLS-2005>
-293.207489013672

> <r_mmod_Solvation_Energy-OPLS-2005>
-477.578491210938

> <b_mmod_Minimization_Converged-OPLS-2005>
0

> <r_mmod_RMS_Derivative-OPLS-2005>
3.77414488792419

$$$$
87
                    3D
 Structure written by MMmdl.
153161  0  0  1  0            999 V2000
  -30.6345  -14.5940   20.5240 C   0  0  0  0  0  0
  -30.4420  -12.3698   19.4350 C   0  0  0  0  0  0
  -29.5011  -12.5006   18.2148 C   0  0  0  0  0  0
  -28.0249  -12.3461   18.6342 C   0  0  0  0  0  0
  -27.6598  -13.2072   19.8724 C   0  0  2  0  0  0
  -28.7091  -13.0228   20.9932 C   0  0  0  0  0  0
  -25.2588  -13.8155   20.5694 C   0  0  0  0  0  0
  -24.1842  -13.0435   20.9200 C   0  0  0  0  0  0
  -24.6398  -11.6894   20.8757 C   0  0  0  0  0  0
  -23.9064  -10.4283   21.0418 C   0  0  0  0  0  0
  -24.3610   -9.4197   21.9193 C   0  0  0  0  0  0
  -23.6287   -8.2229   22.0755 C   0  0  0  0  0  0
  -22.4267   -8.0273   21.3540 C   0  0  0  0  0  0
  -21.9907   -9.0251   20.4644 C   0  0  0  0  0  0
  -22.7235  -10.2132   20.3063 C   0  0  0  0  0  0
  -21.6849   -6.0740   22.5275 C   0  0  0  0  0  0
  -21.4005   -6.5642   23.8214 C   0  0  0  0  0  0
  -21.3656   -5.6788   24.9172 C   0  0  0  0  0  0
  -21.6048   -4.3057   24.7218 C   0  0  0  0  0  0
  -21.8821   -3.8152   23.4343 C   0  0  0  0  0  0
  -21.9192   -4.6968   22.3397 C   0  0  0  0  0  0
  -22.7864  -13.5234   21.1861 C   0  0  0  0  0  0
  -22.1659   -4.2156   21.0974 F   0  0  0  0  0  0
  -21.5634   -3.4537   25.7739 F   0  0  0  0  0  0
  -30.0260  -13.3712   20.4346 N   0  0  0  0  0  0
  -26.3027  -12.9319   20.3378 N   0  0  0  0  0  0
  -25.9329  -11.6482   20.5796 N   0  0  0  0  0  0
  -22.0502  -12.8222   22.0411 N   0  0  0  0  0  0
  -25.4308  -15.1876   20.4065 N   0  0  0  0  0  0
  -31.7779  -14.7810   20.0994 O   0  0  0  0  0  0
  -21.6628   -6.8872   21.4236 O   0  0  0  0  0  0
  -22.3553  -14.5553   20.6719 O   0  0  0  0  0  0
  -24.6234  -31.8621   23.2059 C   0  0  0  0  0  0
  -25.9090  -32.4795   23.8368 C   0  0  1  0  0  0
  -27.2224  -27.3501   20.0947 C   0  0  0  0  0  0
  -25.5915  -33.8595   24.2278 N   0  0  0  0  0  0
  -23.4140  -30.4891   21.5502 C   0  0  2  0  0  0
  -24.8580  -28.9538   20.1084 C   0  0  0  0  0  0
  -22.7470  -29.4618   22.4958 C   0  0  0  0  0  0
  -18.0280  -28.1363   22.8489 C   0  0  0  0  0  0
  -24.1479  -36.7275   23.2648 C   0  0  0  0  0  0
  -25.9546  -30.7999   21.3758 C   0  0  0  0  0  0
  -26.0273  -29.4329   20.7130 C   0  0  0  0  0  0
  -27.2121  -28.6421   20.6987 C   0  0  0  0  0  0
  -26.0279  -26.9209   19.4674 C   0  0  0  0  0  0
  -24.8600  -27.7022   19.4783 C   0  0  0  0  0  0
  -23.6249  -29.8308   20.1624 C   0  0  0  0  0  0
  -25.4105  -36.3082   24.0335 C   0  0  1  0  0  0
  -20.5889  -28.3639   23.1308 C   0  0  2  0  0  0
  -20.6764  -26.9367   22.5417 C   0  0  0  0  0  0
  -19.5735  -26.6364   21.5225 C   0  0  0  0  0  0
  -18.1909  -26.7903   22.1632 C   0  0  0  0  0  0
  -19.1539  -28.8816   23.2895 C   0  0  0  0  0  0
  -18.9475  -30.1432   23.8891 C   0  0  0  0  0  0
  -17.6474  -30.6565   24.0562 C   0  0  0  0  0  0
  -25.9051  -34.9459   23.5104 C   0  0  0  0  0  0
  -16.5357  -29.9061   23.6357 C   0  0  0  0  0  0
  -16.7267  -28.6493   23.0341 C   0  0  0  0  0  0
  -26.4477  -31.6613   25.0739 C   0  0  0  0  0  0
  -25.3737  -31.3725   26.1501 C   0  0  0  0  0  0
  -27.0318  -30.3053   24.6150 C   0  0  0  0  0  0
  -27.6040  -32.4359   25.7480 C   0  0  0  0  0  0
  -27.5582  -37.1773   24.8456 C   0  0  0  0  0  0
  -21.4175  -29.3011   22.3717 N   0  0  0  0  0  0
  -26.4252  -37.3803   23.9450 N   0  0  0  0  0  0
  -24.6828  -31.0660   22.1004 N   0  0  0  0  0  0
  -23.4218  -28.8156   23.3014 O   0  0  0  0  0  0
  -28.3479  -26.5160   20.1324 O   0  0  0  0  0  0
  -26.5634  -34.8929   22.4674 O   0  0  0  0  0  0
  -23.5407  -32.1390   23.7406 O   0  0  0  0  0  0
  -28.7928  -17.8125   21.3488 C   0  0  0  0  0  0
  -30.9577  -17.8082   20.3028 C   0  0  0  0  0  0
  -29.8425  -19.9912   20.7891 C   0  0  0  0  0  0
  -29.8931  -17.0588   20.8667 C   0  0  0  0  0  0
  -28.7623  -19.2347   21.3217 C   0  0  0  0  0  0
  -30.9344  -19.2344   20.2622 C   0  0  0  0  0  0
  -29.9121  -21.5549   20.9498 C   0  0  0  0  0  0
  -28.9551  -22.5208   20.1480 C   0  0  0  0  0  0
  -29.2770  -24.0697   20.2886 C   0  0  0  0  0  0
  -28.1292  -25.0779   19.9132 C   0  0  0  0  0  0
  -29.8363  -15.6037   20.9793 N   0  0  0  0  0  0
  -27.3883  -20.0267   22.0096 Cl  0  0  0  0  0  0
  -32.3119  -20.0289   19.5807 Cl  0  0  0  0  0  0
  -31.4805  -12.5031   19.1248 H   0  0  0  0  0  0
  -30.3860  -11.3666   19.8595 H   0  0  0  0  0  0
  -29.7514  -11.7456   17.4683 H   0  0  0  0  0  0
  -29.6472  -13.4684   17.7325 H   0  0  0  0  0  0
  -27.8589  -11.2916   18.8585 H   0  0  0  0  0  0
  -27.3660  -12.5862   17.7981 H   0  0  0  0  0  0
  -27.6898  -14.2478   19.5496 H   0  0  0  0  0  0
  -28.7186  -11.9878   21.3380 H   0  0  0  0  0  0
  -28.4621  -13.6208   21.8716 H   0  0  0  0  0  0
  -25.2757   -9.5687   22.4758 H   0  0  0  0  0  0
  -24.0008   -7.4629   22.7479 H   0  0  0  0  0  0
  -21.0839   -8.8772   19.8949 H   0  0  0  0  0  0
  -22.3701  -10.9672   19.6173 H   0  0  0  0  0  0
  -21.1982   -7.6146   23.9724 H   0  0  0  0  0  0
  -21.1475   -6.0513   25.9079 H   0  0  0  0  0  0
  -22.0602   -2.7611   23.2840 H   0  0  0  0  0  0
  -22.4101  -11.9872   22.4792 H   0  0  0  0  0  0
  -21.1129  -13.1263   22.2625 H   0  0  0  0  0  0
  -24.6596  -15.8393   20.5013 H   0  0  0  0  0  0
  -26.2697  -15.6220   20.0444 H   0  0  0  0  0  0
  -26.7153  -32.5465   23.1108 H   0  0  0  0  0  0
  -25.0071  -33.9766   25.0425 H   0  0  0  0  0  0
  -22.7047  -31.3068   21.4121 H   0  0  0  0  0  0
  -23.3784  -35.9565   23.3255 H   0  0  0  0  0  0
  -24.3582  -36.8948   22.2078 H   0  0  0  0  0  0
  -23.7177  -37.6432   23.6700 H   0  0  0  0  0  0
  -26.0885  -31.5691   20.6132 H   0  0  0  0  0  0
  -26.8350  -30.8403   22.0054 H   0  0  0  0  0  0
  -28.1094  -29.0078   21.1774 H   0  0  0  0  0  0
  -25.9646  -25.9729   18.9568 H   0  0  0  0  0  0
  -23.9699  -27.3264   18.9937 H   0  0  0  0  0  0
  -23.7381  -30.6126   19.4103 H   0  0  0  0  0  0
  -22.7446  -29.2614   19.8601 H   0  0  0  0  0  0
  -25.1274  -36.1915   25.0818 H   0  0  0  0  0  0
  -20.9971  -28.3197   24.1432 H   0  0  0  0  0  0
  -20.5675  -26.2236   23.3605 H   0  0  0  0  0  0
  -21.6628  -26.7392   22.1203 H   0  0  0  0  0  0
  -19.6898  -25.6289   21.1220 H   0  0  0  0  0  0
  -19.6681  -27.3213   20.6786 H   0  0  0  0  0  0
  -17.4185  -26.6679   21.4020 H   0  0  0  0  0  0
  -18.0279  -26.0024   22.9000 H   0  0  0  0  0  0
  -19.7956  -30.7260   24.2228 H   0  0  0  0  0  0
  -17.5026  -31.6252   24.5149 H   0  0  0  0  0  0
  -15.5362  -30.2951   23.7692 H   0  0  0  0  0  0
  -15.8666  -28.0832   22.7023 H   0  0  0  0  0  0
  -24.5863  -30.7124   25.7839 H   0  0  0  0  0  0
  -24.9000  -32.2894   26.5039 H   0  0  0  0  0  0
  -25.8101  -30.8827   27.0216 H   0  0  0  0  0  0
  -26.2865  -29.6815   24.1211 H   0  0  0  0  0  0
  -27.4091  -29.7300   25.4608 H   0  0  0  0  0  0
  -27.8690  -30.4376   23.9292 H   0  0  0  0  0  0
  -27.2651  -33.3673   26.2030 H   0  0  0  0  0  0
  -28.3847  -32.6912   25.0299 H   0  0  0  0  0  0
  -28.0696  -31.8507   26.5423 H   0  0  0  0  0  0
  -28.2534  -38.0138   24.7631 H   0  0  0  0  0  0
  -28.1136  -36.2686   24.6097 H   0  0  0  0  0  0
  -27.2326  -37.1197   25.8856 H   0  0  0  0  0  0
  -20.9322  -29.8764   21.6981 H   0  0  0  0  0  0
  -26.0131  -38.2840   24.1579 H   0  0  0  0  0  0
  -27.9431  -17.2975   21.7749 H   0  0  0  0  0  0
  -31.8243  -17.3018   19.9056 H   0  0  0  0  0  0
  -30.9332  -21.8900   20.7791 H   0  0  0  0  0  0
  -29.7514  -21.7541   22.0102 H   0  0  0  0  0  0
  -27.9301  -22.3462   20.4746 H   0  0  0  0  0  0
  -28.9794  -22.2574   19.0904 H   0  0  0  0  0  0
  -30.1466  -24.2923   19.6686 H   0  0  0  0  0  0
  -29.5829  -24.2742   21.3137 H   0  0  0  0  0  0
  -27.2515  -24.7715   20.4866 H   0  0  0  0  0  0
  -27.8873  -24.9228   18.8612 H   0  0  0  0  0  0
  -28.9742  -15.2518   21.3657 H   0  0  0  0  0  0
  1 25  1  0  0  0
  1 30  2  0  0  0
  1 81  1  0  0  0
  2  3  1  0  0  0
  2 25  1  0  0  0
  2 84  1  0  0  0
  2 85  1  0  0  0
  3  4  1  0  0  0
  3 86  1  0  0  0
  3 87  1  0  0  0
  4  5  1  0  0  0
  4 88  1  0  0  0
  4 89  1  0  0  0
  5  6  1  0  0  0
  5 26  1  0  0  0
  5 90  1  0  0  0
  6 25  1  0  0  0
  6 91  1  0  0  0
  6 92  1  0  0  0
  7  8  2  0  0  0
  7 26  1  0  0  0
  7 29  1  0  0  0
  8  9  1  0  0  0
  8 22  1  0  0  0
  9 10  1  0  0  0
  9 27  2  0  0  0
 10 11  2  0  0  0
 10 15  1  0  0  0
 11 12  1  0  0  0
 11 93  1  0  0  0
 12 13  2  0  0  0
 12 94  1  0  0  0
 13 14  1  0  0  0
 13 31  1  0  0  0
 14 15  2  0  0  0
 14 95  1  0  0  0
 15 96  1  0  0  0
 16 17  2  0  0  0
 16 21  1  0  0  0
 16 31  1  0  0  0
 17 18  1  0  0  0
 17 97  1  0  0  0
 18 19  2  0  0  0
 18 98  1  0  0  0
 19 20  1  0  0  0
 19 24  1  0  0  0
 20 21  2  0  0  0
 20 99  1  0  0  0
 21 23  1  0  0  0
 22 28  1  0  0  0
 22 32  2  0  0  0
 26 27  1  0  0  0
 28100  1  0  0  0
 28101  1  0  0  0
 29102  1  0  0  0
 29103  1  0  0  0
 33 34  1  0  0  0
 33 66  1  0  0  0
 33 70  2  0  0  0
 34 36  1  0  0  0
 34 59  1  0  0  0
 34104  1  0  0  0
 35 44  2  0  0  0
 35 45  1  0  0  0
 35 68  1  0  0  0
 36 56  1  0  0  0
 36105  1  0  0  0
 37 39  1  0  0  0
 37 47  1  0  0  0
 37 66  1  0  0  0
 37106  1  0  0  0
 38 43  2  0  0  0
 38 46  1  0  0  0
 38 47  1  0  0  0
 39 64  1  0  0  0
 39 67  2  0  0  0
 40 52  1  0  0  0
 40 53  2  0  0  0
 40 58  1  0  0  0
 41107  1  0  0  0
 41108  1  0  0  0
 41109  1  0  0  0
 41 48  1  0  0  0
 42 43  1  0  0  0
 42 66  1  0  0  0
 42110  1  0  0  0
 42111  1  0  0  0
 43 44  1  0  0  0
 44112  1  0  0  0
 45 46  2  0  0  0
 45113  1  0  0  0
 46114  1  0  0  0
 47115  1  0  0  0
 47116  1  0  0  0
 48 56  1  0  0  0
 48 65  1  0  0  0
 48117  1  0  0  0
 49 50  1  0  0  0
 49 53  1  0  0  0
 49 64  1  0  0  0
 49118  1  0  0  0
 50 51  1  0  0  0
 50119  1  0  0  0
 50120  1  0  0  0
 51 52  1  0  0  0
 51121  1  0  0  0
 51122  1  0  0  0
 52123  1  0  0  0
 52124  1  0  0  0
 53 54  1  0  0  0
 54 55  2  0  0  0
 54125  1  0  0  0
 55 57  1  0  0  0
 55126  1  0  0  0
 56 69  2  0  0  0
 57 58  2  0  0  0
 57127  1  0  0  0
 58128  1  0  0  0
 59 60  1  0  0  0
 59 61  1  0  0  0
 59 62  1  0  0  0
 60129  1  0  0  0
 60130  1  0  0  0
 60131  1  0  0  0
 61132  1  0  0  0
 61133  1  0  0  0
 61134  1  0  0  0
 62135  1  0  0  0
 62136  1  0  0  0
 62137  1  0  0  0
 63 65  1  0  0  0
 63138  1  0  0  0
 63139  1  0  0  0
 63140  1  0  0  0
 64141  1  0  0  0
 65142  1  0  0  0
 68 80  1  0  0  0
 71 74  2  0  0  0
 71 75  1  0  0  0
 71143  1  0  0  0
 72 74  1  0  0  0
 72 76  2  0  0  0
 72144  1  0  0  0
 73 75  2  0  0  0
 73 76  1  0  0  0
 73 77  1  0  0  0
 74 81  1  0  0  0
 75 82  1  0  0  0
 76 83  1  0  0  0
 77 78  1  0  0  0
 77145  1  0  0  0
 77146  1  0  0  0
 78 79  1  0  0  0
 78147  1  0  0  0
 78148  1  0  0  0
 79 80  1  0  0  0
 79149  1  0  0  0
 79150  1  0  0  0
 80151  1  0  0  0
 80152  1  0  0  0
 81153  1  0  0  0
M  ISO  4   1 100  68 101  80 101  81 100
M  END
> <chiral flag>
0

> <version>
0

> <s_m_source_file>
/data/baiqing/PycharmProjects/Reinvent-master-3.2/result/LINK_invent/BTK/process_docking_weight1_custom_sum_contain_oxygen_bond_distance_aromatic_linkinvent_7_9_3/rearranged_h_0027.sdf

> <i_m_source_file_index>
88

> <r_mmod_Potential_Energy-OPLS-2005>
51.1452751159668

> <r_mmod_Stretch_Energy-OPLS-2005>
68.0669250488281

> <r_mmod_Bend_Energy-OPLS-2005>
129.59635925293

> <r_mmod_Torsional_Energy-OPLS-2005>
210.469085693359

> <r_mmod_Improper_Torsional_Energy-OPLS-2005>
4.41509294509888

> <r_mmod_Van_der_Waal_Energy-OPLS-2005>
148.305236816406

> <r_mmod_Electrostatic_Energy-OPLS-2005>
-340.650177001953

> <r_mmod_Solvation_Energy-OPLS-2005>
-204.658874511719

> <b_mmod_Minimization_Converged-OPLS-2005>
0

> <r_mmod_RMS_Derivative-OPLS-2005>
2.62926363945007

$$$$
88
                    3D
 Structure written by MMmdl.
177185  0  0  1  0            999 V2000
  -30.6939  -14.3821   20.6037 C   0  0  0  0  0  0
  -30.4070  -12.2559   19.4083 C   0  0  0  0  0  0
  -29.4905  -12.5437   18.2037 C   0  0  0  0  0  0
  -28.0057  -12.4105   18.6017 C   0  0  0  0  0  0
  -27.6664  -13.1966   19.8972 C   0  0  2  0  0  0
  -28.6991  -12.8988   21.0088 C   0  0  0  0  0  0
  -25.2577  -13.8158   20.5674 C   0  0  0  0  0  0
  -24.1833  -13.0421   20.9138 C   0  0  0  0  0  0
  -24.6380  -11.6873   20.8725 C   0  0  0  0  0  0
  -23.9041  -10.4263   21.0418 C   0  0  0  0  0  0
  -24.3600   -9.4173   21.9199 C   0  0  0  0  0  0
  -23.6263   -8.2211   22.0769 C   0  0  0  0  0  0
  -22.4245   -8.0258   21.3552 C   0  0  0  0  0  0
  -21.9868   -9.0217   20.4646 C   0  0  0  0  0  0
  -22.7201  -10.2101   20.3059 C   0  0  0  0  0  0
  -21.6841   -6.0704   22.5261 C   0  0  0  0  0  0
  -21.4004   -6.5608   23.8182 C   0  0  0  0  0  0
  -21.3673   -5.6778   24.9159 C   0  0  0  0  0  0
  -21.6050   -4.3036   24.7240 C   0  0  0  0  0  0
  -21.8807   -3.8116   23.4351 C   0  0  0  0  0  0
  -21.9186   -4.6926   22.3399 C   0  0  0  0  0  0
  -22.7869  -13.5206   21.1836 C   0  0  0  0  0  0
  -22.1657   -4.2109   21.0985 F   0  0  0  0  0  0
  -21.5632   -3.4543   25.7768 F   0  0  0  0  0  0
  -30.0434  -13.1975   20.4748 N   0  0  0  0  0  0
  -26.3036  -12.9301   20.3463 N   0  0  0  0  0  0
  -25.9308  -11.6462   20.5784 N   0  0  0  0  0  0
  -22.0581  -12.8187   22.0430 N   0  0  0  0  0  0
  -25.4271  -15.1900   20.4072 N   0  0  0  0  0  0
  -31.7593  -14.6370   20.0392 O   0  0  0  0  0  0
  -21.6634   -6.8852   21.4224 O   0  0  0  0  0  0
  -22.3512  -14.5523   20.6693 O   0  0  0  0  0  0
  -24.6086  -31.8711   23.2138 C   0  0  0  0  0  0
  -25.9005  -32.4843   23.8412 C   0  0  1  0  0  0
  -27.2478  -27.4867   20.0919 C   0  0  0  0  0  0
  -25.5878  -33.8643   24.2349 N   0  0  0  0  0  0
  -23.3931  -30.4918   21.5539 C   0  0  2  0  0  0
  -24.8410  -28.9628   20.1158 C   0  0  0  0  0  0
  -22.7382  -29.4661   22.5050 C   0  0  0  0  0  0
  -18.0265  -28.1355   22.8498 C   0  0  0  0  0  0
  -24.1477  -36.7324   23.2638 C   0  0  0  0  0  0
  -25.9125  -30.8561   21.3539 C   0  0  0  0  0  0
  -25.9932  -29.4918   20.7078 C   0  0  0  0  0  0
  -27.1986  -28.7652   20.6945 C   0  0  0  0  0  0
  -26.0827  -26.9668   19.4928 C   0  0  0  0  0  0
  -24.8780  -27.6971   19.5038 C   0  0  0  0  0  0
  -23.5960  -29.8180   20.1687 C   0  0  0  0  0  0
  -25.4095  -36.3129   24.0346 C   0  0  1  0  0  0
  -20.5847  -28.3626   23.1347 C   0  0  2  0  0  0
  -20.6755  -26.9370   22.5424 C   0  0  0  0  0  0
  -19.5734  -26.6374   21.5213 C   0  0  0  0  0  0
  -18.1908  -26.7907   22.1614 C   0  0  0  0  0  0
  -19.1511  -28.8808   23.2914 C   0  0  0  0  0  0
  -18.9441  -30.1426   23.8914 C   0  0  0  0  0  0
  -17.6445  -30.6565   24.0560 C   0  0  0  0  0  0
  -25.9014  -34.9486   23.5148 C   0  0  0  0  0  0
  -16.5337  -29.9064   23.6328 C   0  0  0  0  0  0
  -16.7258  -28.6477   23.0352 C   0  0  0  0  0  0
  -26.4459  -31.6604   25.0714 C   0  0  0  0  0  0
  -25.3759  -31.3678   26.1487 C   0  0  0  0  0  0
  -27.0271  -30.3064   24.6016 C   0  0  0  0  0  0
  -27.6038  -32.4318   25.7478 C   0  0  0  0  0  0
  -27.5583  -37.1805   24.8461 C   0  0  0  0  0  0
  -21.4116  -29.3007   22.3782 N   0  0  0  0  0  0
  -26.4283  -37.3810   23.9423 N   0  0  0  0  0  0
  -24.6564  -31.0859   22.1005 N   0  0  0  0  0  0
  -23.4182  -28.8219   23.3076 O   0  0  0  0  0  0
  -28.3824  -26.7134   20.0350 O   0  0  0  0  0  0
  -26.5579  -34.8931   22.4703 O   0  0  0  0  0  0
  -23.5297  -32.1429   23.7570 O   0  0  0  0  0  0
  -31.7655  -21.2902   21.7642 C   0  0  0  0  0  0
  -33.7992  -20.9931   23.0236 C   0  0  0  0  0  0
  -32.8582  -20.2605   22.0558 C   0  0  2  0  0  0
  -31.5378  -21.9454   23.1297 C   0  0  1  0  0  0
  -32.9610  -22.1016   23.6846 C   0  0  2  0  0  0
  -28.4716  -22.3431   22.9376 C   0  0  0  0  0  0
  -33.5783  -19.6971   20.8179 C   0  0  0  0  0  0
  -32.6666  -19.0440   19.7636 C   0  0  0  0  0  0
  -32.1402  -17.6422   20.1227 C   0  0  0  0  0  0
  -31.0687  -17.5995   21.2316 C   0  0  0  0  0  0
  -30.0248  -25.5954   21.3499 C   0  0  0  0  0  0
  -29.0355  -24.6818   22.1040 C   0  0  0  0  0  0
  -29.8563  -16.7125   20.9157 C   0  0  0  0  0  0
  -29.3987  -26.9467   21.0036 C   0  0  0  0  0  0
  -29.5483  -23.2452   22.3015 C   0  0  1  0  0  0
  -29.9926  -15.3044   21.2735 N   0  0  0  0  0  0
  -30.8144  -23.2344   23.0767 N   0  3  0  0  0  0
  -33.4533  -23.2847   23.2987 F   0  0  0  0  0  0
  -31.4558  -12.3449   19.1197 H   0  0  0  0  0  0
  -30.2721  -11.2279   19.7507 H   0  0  0  0  0  0
  -29.7179  -11.8741   17.3734 H   0  0  0  0  0  0
  -29.6814  -13.5563   17.8409 H   0  0  0  0  0  0
  -27.7841  -11.3514   18.7362 H   0  0  0  0  0  0
  -27.3730  -12.7568   17.7826 H   0  0  0  0  0  0
  -27.7301  -14.2585   19.6585 H   0  0  0  0  0  0
  -28.6465  -11.8494   21.3100 H   0  0  0  0  0  0
  -28.4610  -13.4569   21.9138 H   0  0  0  0  0  0
  -25.2766   -9.5626   22.4745 H   0  0  0  0  0  0
  -23.9957   -7.4594   22.7484 H   0  0  0  0  0  0
  -21.0797   -8.8714   19.8932 H   0  0  0  0  0  0
  -22.3681  -10.9616   19.6138 H   0  0  0  0  0  0
  -21.1987   -7.6117   23.9669 H   0  0  0  0  0  0
  -21.1534   -6.0533   25.9056 H   0  0  0  0  0  0
  -22.0586   -2.7576   23.2885 H   0  0  0  0  0  0
  -22.4218  -11.9806   22.4732 H   0  0  0  0  0  0
  -21.1207  -13.1157   22.2711 H   0  0  0  0  0  0
  -24.6564  -15.8433   20.5097 H   0  0  0  0  0  0
  -26.2839  -15.6419   20.1114 H   0  0  0  0  0  0
  -26.7081  -32.5582   23.1187 H   0  0  0  0  0  0
  -25.0067  -33.9807   25.0525 H   0  0  0  0  0  0
  -22.6790  -31.3058   21.4161 H   0  0  0  0  0  0
  -23.3739  -35.9657   23.3304 H   0  0  0  0  0  0
  -24.3577  -36.8932   22.2053 H   0  0  0  0  0  0
  -23.7218  -37.6529   23.6641 H   0  0  0  0  0  0
  -26.0065  -31.6207   20.5816 H   0  0  0  0  0  0
  -26.8069  -30.9206   21.9610 H   0  0  0  0  0  0
  -28.0805  -29.2069   21.1343 H   0  0  0  0  0  0
  -26.1078  -25.9940   19.0213 H   0  0  0  0  0  0
  -23.9926  -27.2854   19.0392 H   0  0  0  0  0  0
  -23.6868  -30.5884   19.4023 H   0  0  0  0  0  0
  -22.7244  -29.2249   19.8852 H   0  0  0  0  0  0
  -25.1267  -36.2003   25.0841 H   0  0  0  0  0  0
  -20.9922  -28.3163   24.1472 H   0  0  0  0  0  0
  -20.5656  -26.2226   23.3596 H   0  0  0  0  0  0
  -21.6627  -26.7410   22.1215 H   0  0  0  0  0  0
  -19.6895  -25.6291   21.1229 H   0  0  0  0  0  0
  -19.6682  -27.3208   20.6762 H   0  0  0  0  0  0
  -17.4186  -26.6674   21.4005 H   0  0  0  0  0  0
  -18.0287  -26.0025   22.8985 H   0  0  0  0  0  0
  -19.7912  -30.7242   24.2280 H   0  0  0  0  0  0
  -17.4992  -31.6253   24.5143 H   0  0  0  0  0  0
  -15.5343  -30.2967   23.7635 H   0  0  0  0  0  0
  -15.8654  -28.0808   22.7060 H   0  0  0  0  0  0
  -24.5923  -30.7029   25.7839 H   0  0  0  0  0  0
  -24.8966  -32.2822   26.4995 H   0  0  0  0  0  0
  -25.8152  -30.8816   27.0207 H   0  0  0  0  0  0
  -26.2773  -29.6846   24.1108 H   0  0  0  0  0  0
  -27.4116  -29.7273   25.4423 H   0  0  0  0  0  0
  -27.8578  -30.4415   23.9085 H   0  0  0  0  0  0
  -27.2648  -33.3591   26.2109 H   0  0  0  0  0  0
  -28.3824  -32.6923   25.0297 H   0  0  0  0  0  0
  -28.0730  -31.8415   26.5358 H   0  0  0  0  0  0
  -28.2584  -38.0120   24.7544 H   0  0  0  0  0  0
  -28.1094  -36.2657   24.6231 H   0  0  0  0  0  0
  -27.2310  -37.1392   25.8865 H   0  0  0  0  0  0
  -20.9284  -29.8710   21.6985 H   0  0  0  0  0  0
  -26.0181  -38.2888   24.1449 H   0  0  0  0  0  0
  -30.8566  -20.8411   21.3635 H   0  0  0  0  0  0
  -32.1278  -22.0222   21.0396 H   0  0  0  0  0  0
  -34.6360  -21.4430   22.4856 H   0  0  0  0  0  0
  -34.2231  -20.3026   23.7518 H   0  0  0  0  0  0
  -32.4087  -19.4413   22.6178 H   0  0  0  0  0  0
  -30.9812  -21.2491   23.7613 H   0  0  0  0  0  0
  -32.9952  -22.0644   24.7748 H   0  0  0  0  0  0
  -27.5163  -22.4515   22.4239 H   0  0  0  0  0  0
  -28.3071  -22.5782   23.9897 H   0  0  0  0  0  0
  -28.7412  -21.2884   22.8713 H   0  0  0  0  0  0
  -34.3301  -18.9750   21.1382 H   0  0  0  0  0  0
  -34.1305  -20.5016   20.3309 H   0  0  0  0  0  0
  -33.2603  -18.9444   18.8519 H   0  0  0  0  0  0
  -31.8444  -19.7053   19.4906 H   0  0  0  0  0  0
  -32.9703  -16.9899   20.3957 H   0  0  0  0  0  0
  -31.7276  -17.2125   19.2083 H   0  0  0  0  0  0
  -30.6691  -18.5989   21.3893 H   0  0  0  0  0  0
  -31.5259  -17.3023   22.1757 H   0  0  0  0  0  0
  -30.3734  -25.1180   20.4328 H   0  0  0  0  0  0
  -30.9079  -25.7741   21.9641 H   0  0  0  0  0  0
  -28.1082  -24.6264   21.5311 H   0  0  0  0  0  0
  -28.7668  -25.1296   23.0610 H   0  0  0  0  0  0
  -29.5707  -16.7979   19.8654 H   0  0  0  0  0  0
  -29.0011  -17.0873   21.4802 H   0  0  0  0  0  0
  -30.1427  -27.6287   20.5907 H   0  0  0  0  0  0
  -29.0215  -27.3840   21.9284 H   0  0  0  0  0  0
  -29.7427  -22.8623   21.3001 H   0  0  0  0  0  0
  -29.2056  -14.9258   21.7789 H   0  0  0  0  0  0
  -31.4634  -23.8870   22.6648 H   0  0  0  0  0  0
  -30.6468  -23.5521   24.0194 H   0  0  0  0  0  0
  1 25  1  0  0  0
  1 30  2  0  0  0
  1 86  1  0  0  0
  2  3  1  0  0  0
  2 25  1  0  0  0
  2 89  1  0  0  0
  2 90  1  0  0  0
  3  4  1  0  0  0
  3 91  1  0  0  0
  3 92  1  0  0  0
  4  5  1  0  0  0
  4 93  1  0  0  0
  4 94  1  0  0  0
  5  6  1  0  0  0
  5 26  1  0  0  0
  5 95  1  0  0  0
  6 25  1  0  0  0
  6 96  1  0  0  0
  6 97  1  0  0  0
  7  8  2  0  0  0
  7 26  1  0  0  0
  7 29  1  0  0  0
  8  9  1  0  0  0
  8 22  1  0  0  0
  9 10  1  0  0  0
  9 27  2  0  0  0
 10 11  2  0  0  0
 10 15  1  0  0  0
 11 12  1  0  0  0
 11 98  1  0  0  0
 12 13  2  0  0  0
 12 99  1  0  0  0
 13 14  1  0  0  0
 13 31  1  0  0  0
 14 15  2  0  0  0
 14100  1  0  0  0
 15101  1  0  0  0
 16 17  2  0  0  0
 16 21  1  0  0  0
 16 31  1  0  0  0
 17 18  1  0  0  0
 17102  1  0  0  0
 18 19  2  0  0  0
 18103  1  0  0  0
 19 20  1  0  0  0
 19 24  1  0  0  0
 20 21  2  0  0  0
 20104  1  0  0  0
 21 23  1  0  0  0
 22 28  1  0  0  0
 22 32  2  0  0  0
 26 27  1  0  0  0
 28105  1  0  0  0
 28106  1  0  0  0
 29107  1  0  0  0
 29108  1  0  0  0
 33 34  1  0  0  0
 33 66  1  0  0  0
 33 70  2  0  0  0
 34 36  1  0  0  0
 34 59  1  0  0  0
 34109  1  0  0  0
 35 44  2  0  0  0
 35 45  1  0  0  0
 35 68  1  0  0  0
 36 56  1  0  0  0
 36110  1  0  0  0
 37 39  1  0  0  0
 37 47  1  0  0  0
 37 66  1  0  0  0
 37111  1  0  0  0
 38 43  2  0  0  0
 38 46  1  0  0  0
 38 47  1  0  0  0
 39 64  1  0  0  0
 39 67  2  0  0  0
 40 52  1  0  0  0
 40 53  2  0  0  0
 40 58  1  0  0  0
 41112  1  0  0  0
 41113  1  0  0  0
 41114  1  0  0  0
 41 48  1  0  0  0
 42 43  1  0  0  0
 42 66  1  0  0  0
 42115  1  0  0  0
 42116  1  0  0  0
 43 44  1  0  0  0
 44117  1  0  0  0
 45 46  2  0  0  0
 45118  1  0  0  0
 46119  1  0  0  0
 47120  1  0  0  0
 47121  1  0  0  0
 48 56  1  0  0  0
 48 65  1  0  0  0
 48122  1  0  0  0
 49 50  1  0  0  0
 49 53  1  0  0  0
 49 64  1  0  0  0
 49123  1  0  0  0
 50 51  1  0  0  0
 50124  1  0  0  0
 50125  1  0  0  0
 51 52  1  0  0  0
 51126  1  0  0  0
 51127  1  0  0  0
 52128  1  0  0  0
 52129  1  0  0  0
 53 54  1  0  0  0
 54 55  2  0  0  0
 54130  1  0  0  0
 55 57  1  0  0  0
 55131  1  0  0  0
 56 69  2  0  0  0
 57 58  2  0  0  0
 57132  1  0  0  0
 58133  1  0  0  0
 59 60  1  0  0  0
 59 61  1  0  0  0
 59 62  1  0  0  0
 60134  1  0  0  0
 60135  1  0  0  0
 60136  1  0  0  0
 61137  1  0  0  0
 61138  1  0  0  0
 61139  1  0  0  0
 62140  1  0  0  0
 62141  1  0  0  0
 62142  1  0  0  0
 63 65  1  0  0  0
 63143  1  0  0  0
 63144  1  0  0  0
 63145  1  0  0  0
 64146  1  0  0  0
 65147  1  0  0  0
 68 84  1  0  0  0
 71 73  1  0  0  0
 71 74  1  0  0  0
 71148  1  0  0  0
 71149  1  0  0  0
 72 73  1  0  0  0
 72 75  1  0  0  0
 72150  1  0  0  0
 72151  1  0  0  0
 73 77  1  0  0  0
 73152  1  0  0  0
 74 75  1  0  0  0
 74 87  1  0  0  0
 74153  1  0  0  0
 75 88  1  0  0  0
 75154  1  0  0  0
 76155  1  0  0  0
 76156  1  0  0  0
 76157  1  0  0  0
 76 85  1  0  0  0
 77 78  1  0  0  0
 77158  1  0  0  0
 77159  1  0  0  0
 78 79  1  0  0  0
 78160  1  0  0  0
 78161  1  0  0  0
 79 80  1  0  0  0
 79162  1  0  0  0
 79163  1  0  0  0
 80 83  1  0  0  0
 80164  1  0  0  0
 80165  1  0  0  0
 81 82  1  0  0  0
 81 84  1  0  0  0
 81166  1  0  0  0
 81167  1  0  0  0
 82 85  1  0  0  0
 82168  1  0  0  0
 82169  1  0  0  0
 83 86  1  0  0  0
 83170  1  0  0  0
 83171  1  0  0  0
 84172  1  0  0  0
 84173  1  0  0  0
 85 87  1  0  0  0
 85174  1  0  0  0
 86175  1  0  0  0
 87176  1  0  0  0
 87177  1  0  0  0
M  CHG  1  87   1
M  ISO  4   1 100  68 101  84 101  86 100
M  END
> <chiral flag>
0

> <version>
0

> <s_m_source_file>
/data/baiqing/PycharmProjects/Reinvent-master-3.2/result/LINK_invent/BTK/process_docking_weight1_custom_sum_contain_oxygen_bond_distance_aromatic_linkinvent_7_9_3/rearranged_h_0027.sdf

> <i_m_source_file_index>
89

> <r_mmod_Potential_Energy-OPLS-2005>
-122.022109985352

> <r_mmod_Stretch_Energy-OPLS-2005>
30.8406047821045

> <r_mmod_Bend_Energy-OPLS-2005>
133.308731079102

> <r_mmod_Torsional_Energy-OPLS-2005>
310.573394775391

> <r_mmod_Improper_Torsional_Energy-OPLS-2005>
5.61932468414307

> <r_mmod_Van_der_Waal_Energy-OPLS-2005>
141.253570556641

> <r_mmod_Electrostatic_Energy-OPLS-2005>
-312.686706542969

> <r_mmod_Solvation_Energy-OPLS-2005>
-437.961730957031

> <b_mmod_Minimization_Converged-OPLS-2005>
0

> <r_mmod_RMS_Derivative-OPLS-2005>
3.80226159095764

$$$$
89
                    3D
 Structure written by MMmdl.
162170  0  0  1  0            999 V2000
  -30.7195  -14.5049   20.5730 C   0  0  0  0  0  0
  -30.4159  -12.3271   19.4457 C   0  0  0  0  0  0
  -29.4925  -12.4885   18.2191 C   0  0  0  0  0  0
  -28.0181  -12.3468   18.6373 C   0  0  0  0  0  0
  -27.6567  -13.2146   19.8734 C   0  0  2  0  0  0
  -28.6982  -13.0504   21.0048 C   0  0  0  0  0  0
  -25.2559  -13.8174   20.5673 C   0  0  0  0  0  0
  -24.1810  -13.0423   20.9160 C   0  0  0  0  0  0
  -24.6379  -11.6905   20.8730 C   0  0  0  0  0  0
  -23.9033  -10.4288   21.0385 C   0  0  0  0  0  0
  -24.3591   -9.4230   21.9183 C   0  0  0  0  0  0
  -23.6275   -8.2253   22.0768 C   0  0  0  0  0  0
  -22.4273   -8.0270   21.3540 C   0  0  0  0  0  0
  -21.9895   -9.0234   20.4646 C   0  0  0  0  0  0
  -22.7200  -10.2119   20.3050 C   0  0  0  0  0  0
  -21.6859   -6.0713   22.5264 C   0  0  0  0  0  0
  -21.4018   -6.5624   23.8202 C   0  0  0  0  0  0
  -21.3667   -5.6776   24.9173 C   0  0  0  0  0  0
  -21.6045   -4.3037   24.7231 C   0  0  0  0  0  0
  -21.8820   -3.8125   23.4350 C   0  0  0  0  0  0
  -21.9196   -4.6932   22.3392 C   0  0  0  0  0  0
  -22.7848  -13.5229   21.1840 C   0  0  0  0  0  0
  -22.1665   -4.2114   21.0970 F   0  0  0  0  0  0
  -21.5636   -3.4532   25.7751 F   0  0  0  0  0  0
  -30.0247  -13.3408   20.4413 N   0  0  0  0  0  0
  -26.3002  -12.9359   20.3391 N   0  0  0  0  0  0
  -25.9325  -11.6509   20.5787 N   0  0  0  0  0  0
  -22.0495  -12.8185   22.0391 N   0  0  0  0  0  0
  -25.4248  -15.1888   20.4089 N   0  0  0  0  0  0
  -31.8500  -14.6490   20.1011 O   0  0  0  0  0  0
  -21.6651   -6.8860   21.4225 O   0  0  0  0  0  0
  -22.3527  -14.5534   20.6708 O   0  0  0  0  0  0
  -24.6157  -31.8681   23.2047 C   0  0  0  0  0  0
  -25.9013  -32.4831   23.8387 C   0  0  1  0  0  0
  -27.2412  -27.3978   20.0851 C   0  0  0  0  0  0
  -25.5799  -33.8629   24.2283 N   0  0  0  0  0  0
  -23.4071  -30.4871   21.5497 C   0  0  2  0  0  0
  -24.8527  -28.9467   20.1143 C   0  0  0  0  0  0
  -22.7424  -29.4649   22.5006 C   0  0  0  0  0  0
  -18.0266  -28.1381   22.8471 C   0  0  0  0  0  0
  -24.1492  -36.7401   23.2644 C   0  0  0  0  0  0
  -25.9406  -30.8101   21.3710 C   0  0  0  0  0  0
  -26.0125  -29.4389   20.7233 C   0  0  0  0  0  0
  -27.2039  -28.6702   20.7128 C   0  0  0  0  0  0
  -26.0596  -26.9447   19.4423 C   0  0  0  0  0  0
  -24.8720  -27.6976   19.4753 C   0  0  0  0  0  0
  -23.6143  -29.8147   20.1686 C   0  0  0  0  0  0
  -25.4102  -36.3136   24.0315 C   0  0  1  0  0  0
  -20.5855  -28.3684   23.1289 C   0  0  2  0  0  0
  -20.6767  -26.9419   22.5419 C   0  0  0  0  0  0
  -19.5756  -26.6370   21.5205 C   0  0  0  0  0  0
  -18.1921  -26.7919   22.1602 C   0  0  0  0  0  0
  -19.1529  -28.8836   23.2853 C   0  0  0  0  0  0
  -18.9486  -30.1435   23.8883 C   0  0  0  0  0  0
  -17.6496  -30.6589   24.0563 C   0  0  0  0  0  0
  -25.9008  -34.9488   23.5130 C   0  0  0  0  0  0
  -16.5368  -29.9106   23.6317 C   0  0  0  0  0  0
  -16.7264  -28.6525   23.0329 C   0  0  0  0  0  0
  -26.4388  -31.6663   25.0769 C   0  0  0  0  0  0
  -25.3641  -31.3847   26.1531 C   0  0  0  0  0  0
  -27.0280  -30.3117   24.6175 C   0  0  0  0  0  0
  -27.5907  -32.4445   25.7595 C   0  0  0  0  0  0
  -27.5585  -37.1824   24.8418 C   0  0  0  0  0  0
  -21.4156  -29.3056   22.3742 N   0  0  0  0  0  0
  -26.4313  -37.3787   23.9358 N   0  0  0  0  0  0
  -24.6737  -31.0724   22.0989 N   0  0  0  0  0  0
  -23.4197  -28.8150   23.3006 O   0  0  0  0  0  0
  -28.4112  -26.6469   20.1208 O   0  0  0  0  0  0
  -26.5644  -34.8953   22.4725 O   0  0  0  0  0  0
  -23.5320  -32.1479   23.7385 O   0  0  0  0  0  0
  -28.3770  -20.4554   22.4075 C   0  0  0  0  0  0
  -30.1581  -19.3624   21.1591 C   0  0  0  0  0  0
  -29.4813  -20.5552   21.5295 C   0  0  0  0  0  0
  -27.9880  -19.2036   22.9382 C   0  0  0  0  0  0
  -29.7859  -18.0904   21.6745 C   0  0  0  0  0  0
  -28.6911  -18.0248   22.5800 C   0  0  0  0  0  0
  -26.8394  -19.1429   23.9400 C   0  0  0  0  0  0
  -28.9482  -24.6854   22.2239 C   0  0  0  0  0  0
  -30.6900  -16.8773   21.3381 C   0  0  0  0  0  0
  -30.0466  -21.9354   21.1276 C   0  0  0  0  0  0
  -28.3673  -25.2281   19.8117 C   0  0  0  0  0  0
  -29.2643  -24.3443   20.7470 C   0  0  2  0  0  0
  -30.0781  -15.5480   21.1395 N   0  0  0  0  0  0
  -29.0911  -22.8699   20.4626 N   0  3  0  0  0  0
  -28.2325  -16.5264   23.3236 Cl  0  0  0  0  0  0
  -31.4647  -12.4087   19.1502 H   0  0  0  0  0  0
  -30.3128  -11.3280   19.8755 H   0  0  0  0  0  0
  -29.7371  -11.7377   17.4658 H   0  0  0  0  0  0
  -29.6553  -13.4593   17.7487 H   0  0  0  0  0  0
  -27.8438  -11.2954   18.8655 H   0  0  0  0  0  0
  -27.3628  -12.5888   17.7993 H   0  0  0  0  0  0
  -27.6843  -14.2523   19.5428 H   0  0  0  0  0  0
  -28.6865  -12.0372   21.4073 H   0  0  0  0  0  0
  -28.4570  -13.6990   21.8487 H   0  0  0  0  0  0
  -25.2725   -9.5726   22.4776 H   0  0  0  0  0  0
  -23.9978   -7.4666   22.7524 H   0  0  0  0  0  0
  -21.0827   -8.8731   19.8968 H   0  0  0  0  0  0
  -22.3629  -10.9652   19.6173 H   0  0  0  0  0  0
  -21.2005   -7.6138   23.9691 H   0  0  0  0  0  0
  -21.1493   -6.0520   25.9074 H   0  0  0  0  0  0
  -22.0588   -2.7583   23.2865 H   0  0  0  0  0  0
  -22.4122  -11.9811   22.4693 H   0  0  0  0  0  0
  -21.1134  -13.1211   22.2647 H   0  0  0  0  0  0
  -24.6553  -15.8396   20.5269 H   0  0  0  0  0  0
  -26.2850  -15.6403   20.1199 H   0  0  0  0  0  0
  -26.7101  -32.5554   23.1178 H   0  0  0  0  0  0
  -24.9721  -33.9743   25.0272 H   0  0  0  0  0  0
  -22.6948  -31.3036   21.4081 H   0  0  0  0  0  0
  -23.3712  -35.9777   23.3278 H   0  0  0  0  0  0
  -24.3537  -36.9056   22.2051 H   0  0  0  0  0  0
  -23.7309  -37.6607   23.6716 H   0  0  0  0  0  0
  -26.0535  -31.5670   20.5926 H   0  0  0  0  0  0
  -26.8286  -30.8689   21.9913 H   0  0  0  0  0  0
  -28.0935  -29.0378   21.2050 H   0  0  0  0  0  0
  -26.0226  -26.0180   18.8912 H   0  0  0  0  0  0
  -23.9871  -27.3117   18.9861 H   0  0  0  0  0  0
  -23.7119  -30.5835   19.4024 H   0  0  0  0  0  0
  -22.7406  -29.2250   19.8859 H   0  0  0  0  0  0
  -25.1274  -36.2021   25.0805 H   0  0  0  0  0  0
  -20.9922  -28.3312   24.1428 H   0  0  0  0  0  0
  -20.5715  -26.2308   23.3616 H   0  0  0  0  0  0
  -21.6629  -26.7525   22.1164 H   0  0  0  0  0  0
  -19.6958  -25.6293   21.1235 H   0  0  0  0  0  0
  -19.6696  -27.3199   20.6748 H   0  0  0  0  0  0
  -17.4185  -26.6628   21.4007 H   0  0  0  0  0  0
  -18.0319  -26.0095   22.9035 H   0  0  0  0  0  0
  -19.8000  -30.7179   24.2299 H   0  0  0  0  0  0
  -17.5108  -31.6286   24.5166 H   0  0  0  0  0  0
  -15.5378  -30.3004   23.7712 H   0  0  0  0  0  0
  -15.8649  -28.0861   22.7041 H   0  0  0  0  0  0
  -24.5696  -30.7311   25.7895 H   0  0  0  0  0  0
  -24.8980  -32.3063   26.5038 H   0  0  0  0  0  0
  -25.7952  -30.8965   27.0289 H   0  0  0  0  0  0
  -26.2919  -29.6877   24.1098 H   0  0  0  0  0  0
  -27.3907  -29.7290   25.4643 H   0  0  0  0  0  0
  -27.8769  -30.4417   23.9469 H   0  0  0  0  0  0
  -27.2417  -33.3718   26.2169 H   0  0  0  0  0  0
  -28.3752  -32.7086   25.0496 H   0  0  0  0  0  0
  -28.0553  -31.8630   26.5548 H   0  0  0  0  0  0
  -28.2537  -38.0186   24.7467 H   0  0  0  0  0  0
  -28.1154  -36.2684   24.6266 H   0  0  0  0  0  0
  -27.2258  -37.1448   25.8809 H   0  0  0  0  0  0
  -20.9351  -29.8922   21.7061 H   0  0  0  0  0  0
  -26.0222  -38.2886   24.1321 H   0  0  0  0  0  0
  -27.8564  -21.3469   22.7291 H   0  0  0  0  0  0
  -31.0321  -19.4342   20.5269 H   0  0  0  0  0  0
  -26.3887  -20.1182   24.1217 H   0  0  0  0  0  0
  -27.1829  -18.7618   24.9033 H   0  0  0  0  0  0
  -26.0556  -18.4801   23.5746 H   0  0  0  0  0  0
  -29.2850  -25.6979   22.4561 H   0  0  0  0  0  0
  -29.4374  -24.0345   22.9476 H   0  0  0  0  0  0
  -27.8768  -24.6516   22.4212 H   0  0  0  0  0  0
  -31.4212  -16.7878   22.1459 H   0  0  0  0  0  0
  -31.2677  -17.1300   20.4453 H   0  0  0  0  0  0
  -30.9115  -21.8017   20.4745 H   0  0  0  0  0  0
  -30.4470  -22.3733   22.0413 H   0  0  0  0  0  0
  -27.3636  -24.8151   19.8992 H   0  0  0  0  0  0
  -28.6641  -25.1116   18.7667 H   0  0  0  0  0  0
  -30.3094  -24.5952   20.5597 H   0  0  0  0  0  0
  -29.1376  -15.4113   21.4830 H   0  0  0  0  0  0
  -28.1535  -22.5757   20.6832 H   0  0  0  0  0  0
  -29.2113  -22.7205   19.4726 H   0  0  0  0  0  0
  1 25  1  0  0  0
  1 30  2  0  0  0
  1 83  1  0  0  0
  2  3  1  0  0  0
  2 25  1  0  0  0
  2 86  1  0  0  0
  2 87  1  0  0  0
  3  4  1  0  0  0
  3 88  1  0  0  0
  3 89  1  0  0  0
  4  5  1  0  0  0
  4 90  1  0  0  0
  4 91  1  0  0  0
  5  6  1  0  0  0
  5 26  1  0  0  0
  5 92  1  0  0  0
  6 25  1  0  0  0
  6 93  1  0  0  0
  6 94  1  0  0  0
  7  8  2  0  0  0
  7 26  1  0  0  0
  7 29  1  0  0  0
  8  9  1  0  0  0
  8 22  1  0  0  0
  9 10  1  0  0  0
  9 27  2  0  0  0
 10 11  2  0  0  0
 10 15  1  0  0  0
 11 12  1  0  0  0
 11 95  1  0  0  0
 12 13  2  0  0  0
 12 96  1  0  0  0
 13 14  1  0  0  0
 13 31  1  0  0  0
 14 15  2  0  0  0
 14 97  1  0  0  0
 15 98  1  0  0  0
 16 17  2  0  0  0
 16 21  1  0  0  0
 16 31  1  0  0  0
 17 18  1  0  0  0
 17 99  1  0  0  0
 18 19  2  0  0  0
 18100  1  0  0  0
 19 20  1  0  0  0
 19 24  1  0  0  0
 20 21  2  0  0  0
 20101  1  0  0  0
 21 23  1  0  0  0
 22 28  1  0  0  0
 22 32  2  0  0  0
 26 27  1  0  0  0
 28102  1  0  0  0
 28103  1  0  0  0
 29104  1  0  0  0
 29105  1  0  0  0
 33 34  1  0  0  0
 33 66  1  0  0  0
 33 70  2  0  0  0
 34 36  1  0  0  0
 34 59  1  0  0  0
 34106  1  0  0  0
 35 44  2  0  0  0
 35 45  1  0  0  0
 35 68  1  0  0  0
 36 56  1  0  0  0
 36107  1  0  0  0
 37 39  1  0  0  0
 37 47  1  0  0  0
 37 66  1  0  0  0
 37108  1  0  0  0
 38 43  2  0  0  0
 38 46  1  0  0  0
 38 47  1  0  0  0
 39 64  1  0  0  0
 39 67  2  0  0  0
 40 52  1  0  0  0
 40 53  2  0  0  0
 40 58  1  0  0  0
 41109  1  0  0  0
 41110  1  0  0  0
 41111  1  0  0  0
 41 48  1  0  0  0
 42 43  1  0  0  0
 42 66  1  0  0  0
 42112  1  0  0  0
 42113  1  0  0  0
 43 44  1  0  0  0
 44114  1  0  0  0
 45 46  2  0  0  0
 45115  1  0  0  0
 46116  1  0  0  0
 47117  1  0  0  0
 47118  1  0  0  0
 48 56  1  0  0  0
 48 65  1  0  0  0
 48119  1  0  0  0
 49 50  1  0  0  0
 49 53  1  0  0  0
 49 64  1  0  0  0
 49120  1  0  0  0
 50 51  1  0  0  0
 50121  1  0  0  0
 50122  1  0  0  0
 51 52  1  0  0  0
 51123  1  0  0  0
 51124  1  0  0  0
 52125  1  0  0  0
 52126  1  0  0  0
 53 54  1  0  0  0
 54 55  2  0  0  0
 54127  1  0  0  0
 55 57  1  0  0  0
 55128  1  0  0  0
 56 69  2  0  0  0
 57 58  2  0  0  0
 57129  1  0  0  0
 58130  1  0  0  0
 59 60  1  0  0  0
 59 61  1  0  0  0
 59 62  1  0  0  0
 60131  1  0  0  0
 60132  1  0  0  0
 60133  1  0  0  0
 61134  1  0  0  0
 61135  1  0  0  0
 61136  1  0  0  0
 62137  1  0  0  0
 62138  1  0  0  0
 62139  1  0  0  0
 63 65  1  0  0  0
 63140  1  0  0  0
 63141  1  0  0  0
 63142  1  0  0  0
 64143  1  0  0  0
 65144  1  0  0  0
 68 81  1  0  0  0
 71 73  2  0  0  0
 71 74  1  0  0  0
 71145  1  0  0  0
 72 73  1  0  0  0
 72 75  2  0  0  0
 72146  1  0  0  0
 73 80  1  0  0  0
 74 76  2  0  0  0
 74 77  1  0  0  0
 75 76  1  0  0  0
 75 79  1  0  0  0
 76 85  1  0  0  0
 77147  1  0  0  0
 77148  1  0  0  0
 77149  1  0  0  0
 78150  1  0  0  0
 78151  1  0  0  0
 78152  1  0  0  0
 78 82  1  0  0  0
 79 83  1  0  0  0
 79153  1  0  0  0
 79154  1  0  0  0
 80 84  1  0  0  0
 80155  1  0  0  0
 80156  1  0  0  0
 81 82  1  0  0  0
 81157  1  0  0  0
 81158  1  0  0  0
 82 84  1  0  0  0
 82159  1  0  0  0
 83160  1  0  0  0
 84161  1  0  0  0
 84162  1  0  0  0
M  CHG  1  84   1
M  ISO  4   1 100  68 101  81 101  83 100
M  END
> <chiral flag>
0

> <version>
0

> <s_m_source_file>
/data/baiqing/PycharmProjects/Reinvent-master-3.2/result/LINK_invent/BTK/process_docking_weight1_custom_sum_contain_oxygen_bond_distance_aromatic_linkinvent_7_9_3/rearranged_h_0027.sdf

> <i_m_source_file_index>
90

> <r_mmod_Potential_Energy-OPLS-2005>
-195.753112792969

> <r_mmod_Stretch_Energy-OPLS-2005>
49.502986907959

> <r_mmod_Bend_Energy-OPLS-2005>
110.504585266113

> <r_mmod_Torsional_Energy-OPLS-2005>
203.058212280273

> <r_mmod_Improper_Torsional_Energy-OPLS-2005>
3.84323906898499

> <r_mmod_Van_der_Waal_Energy-OPLS-2005>
154.789993286133

> <r_mmod_Electrostatic_Energy-OPLS-2005>
-286.304443359375

> <r_mmod_Solvation_Energy-OPLS-2005>
-451.259216308594

> <b_mmod_Minimization_Converged-OPLS-2005>
0

> <r_mmod_RMS_Derivative-OPLS-2005>
5.38123750686646

$$$$
90
                    3D
 Structure written by MMmdl.
164172  0  0  1  0            999 V2000
  -30.6793  -14.4125   20.6009 C   0  0  0  0  0  0
  -30.4252  -12.2786   19.4059 C   0  0  0  0  0  0
  -29.4917  -12.5139   18.1986 C   0  0  0  0  0  0
  -28.0151  -12.3690   18.6196 C   0  0  0  0  0  0
  -27.6655  -13.1956   19.8853 C   0  0  2  0  0  0
  -28.7039  -12.9127   20.9922 C   0  0  0  0  0  0
  -25.2627  -13.8128   20.5784 C   0  0  0  0  0  0
  -24.1829  -13.0422   20.9211 C   0  0  0  0  0  0
  -24.6376  -11.6871   20.8723 C   0  0  0  0  0  0
  -23.9026  -10.4267   21.0387 C   0  0  0  0  0  0
  -24.3605   -9.4165   21.9151 C   0  0  0  0  0  0
  -23.6280   -8.2215   22.0717 C   0  0  0  0  0  0
  -22.4241   -8.0273   21.3535 C   0  0  0  0  0  0
  -21.9899   -9.0224   20.4617 C   0  0  0  0  0  0
  -22.7228  -10.2096   20.3015 C   0  0  0  0  0  0
  -21.6837   -6.0745   22.5273 C   0  0  0  0  0  0
  -21.4017   -6.5648   23.8214 C   0  0  0  0  0  0
  -21.3654   -5.6783   24.9170 C   0  0  0  0  0  0
  -21.6029   -4.3046   24.7225 C   0  0  0  0  0  0
  -21.8803   -3.8141   23.4343 C   0  0  0  0  0  0
  -21.9214   -4.6981   22.3410 C   0  0  0  0  0  0
  -22.7862  -13.5201   21.1878 C   0  0  0  0  0  0
  -22.1656   -4.2170   21.0988 F   0  0  0  0  0  0
  -21.5633   -3.4514   25.7733 F   0  0  0  0  0  0
  -30.0374  -13.2291   20.4555 N   0  0  0  0  0  0
  -26.3020  -12.9280   20.3390 N   0  0  0  0  0  0
  -25.9287  -11.6450   20.5760 N   0  0  0  0  0  0
  -22.0483  -12.8172   22.0422 N   0  0  0  0  0  0
  -25.4397  -15.1867   20.4428 N   0  0  0  0  0  0
  -31.7782  -14.6609   20.0909 O   0  0  0  0  0  0
  -21.6616   -6.8870   21.4222 O   0  0  0  0  0  0
  -22.3550  -14.5536   20.6751 O   0  0  0  0  0  0
  -24.6073  -31.8733   23.2105 C   0  0  0  0  0  0
  -25.8955  -32.4868   23.8390 C   0  0  1  0  0  0
  -27.2391  -27.4599   20.0790 C   0  0  0  0  0  0
  -25.5839  -33.8654   24.2321 N   0  0  0  0  0  0
  -23.3971  -30.4940   21.5506 C   0  0  2  0  0  0
  -24.8442  -28.9640   20.1206 C   0  0  0  0  0  0
  -22.7375  -29.4637   22.4953 C   0  0  0  0  0  0
  -18.0227  -28.1301   22.8459 C   0  0  0  0  0  0
  -24.1468  -36.7323   23.2639 C   0  0  0  0  0  0
  -25.9243  -30.8449   21.3611 C   0  0  0  0  0  0
  -26.0024  -29.4791   20.7136 C   0  0  0  0  0  0
  -27.1984  -28.7302   20.6972 C   0  0  0  0  0  0
  -26.0518  -26.9507   19.4939 C   0  0  0  0  0  0
  -24.8595  -27.6944   19.5185 C   0  0  0  0  0  0
  -23.6127  -29.8364   20.1644 C   0  0  0  0  0  0
  -25.4097  -36.3132   24.0332 C   0  0  1  0  0  0
  -20.5812  -28.3593   23.1236 C   0  0  2  0  0  0
  -20.6774  -26.9294   22.5369 C   0  0  0  0  0  0
  -19.5649  -26.6052   21.5322 C   0  0  0  0  0  0
  -18.1832  -26.7781   22.1678 C   0  0  0  0  0  0
  -19.1465  -28.8772   23.2830 C   0  0  0  0  0  0
  -18.9396  -30.1377   23.8877 C   0  0  0  0  0  0
  -17.6402  -30.6554   24.0518 C   0  0  0  0  0  0
  -25.9019  -34.9501   23.5123 C   0  0  0  0  0  0
  -16.5287  -29.9043   23.6269 C   0  0  0  0  0  0
  -16.7231  -28.6436   23.0296 C   0  0  0  0  0  0
  -26.4425  -31.6633   25.0689 C   0  0  0  0  0  0
  -25.3699  -31.3726   26.1420 C   0  0  0  0  0  0
  -27.0265  -30.3086   24.6055 C   0  0  0  0  0  0
  -27.6019  -32.4327   25.7477 C   0  0  0  0  0  0
  -27.5573  -37.1834   24.8472 C   0  0  0  0  0  0
  -21.4093  -29.3030   22.3729 N   0  0  0  0  0  0
  -26.4286  -37.3811   23.9422 N   0  0  0  0  0  0
  -24.6616  -31.0835   22.1023 N   0  0  0  0  0  0
  -23.4193  -28.8097   23.2901 O   0  0  0  0  0  0
  -28.4424  -26.7840   20.0678 O   0  0  0  0  0  0
  -26.5600  -34.8955   22.4700 O   0  0  0  0  0  0
  -23.5257  -32.1460   23.7496 O   0  0  0  0  0  0
  -27.0297  -18.2530   22.7396 C   0  0  0  0  0  0
  -29.1200  -17.7347   21.5557 C   0  0  0  0  0  0
  -28.1125  -19.9920   21.3867 C   0  0  0  0  0  0
  -28.0465  -17.3398   22.3872 C   0  0  0  0  0  0
  -27.0641  -19.5815   22.2535 C   0  0  0  0  0  0
  -29.1448  -19.0681   21.0724 C   0  0  0  0  0  0
  -25.9170  -17.8125   23.6775 C   0  0  0  0  0  0
  -26.3297  -20.9710   19.2278 C   0  0  0  0  0  0
  -30.2809  -16.7800   21.2366 C   0  0  0  0  0  0
  -28.0059  -24.3726   20.2085 C   0  0  0  0  0  0
  -27.6076  -23.1593   19.3411 C   0  0  0  0  0  0
  -28.5405  -25.5453   19.3660 C   0  0  0  0  0  0
  -27.0996  -21.9424   20.1464 C   0  0  2  0  0  0
  -28.2175  -21.2930   20.8395 N   0  0  0  0  0  0
  -29.9637  -15.3540   21.2316 N   0  0  0  0  0  0
  -27.9938  -16.0791   22.8827 F   0  0  0  0  0  0
  -25.8458  -20.6932   22.7903 Cl  0  0  0  0  0  0
  -30.4691  -19.6118   20.0863 Cl  0  0  0  0  0  0
  -31.4676  -12.3857   19.1040 H   0  0  0  0  0  0
  -30.3280  -11.2557   19.7696 H   0  0  0  0  0  0
  -29.7234  -11.8128   17.3959 H   0  0  0  0  0  0
  -29.6602  -13.5098   17.7918 H   0  0  0  0  0  0
  -27.8265  -11.3131   18.8181 H   0  0  0  0  0  0
  -27.3594  -12.6441   17.7938 H   0  0  0  0  0  0
  -27.7238  -14.2512   19.6173 H   0  0  0  0  0  0
  -28.6720  -11.8560   21.2652 H   0  0  0  0  0  0
  -28.4622  -13.4447   21.9145 H   0  0  0  0  0  0
  -25.2745   -9.5674   22.4733 H   0  0  0  0  0  0
  -23.9993   -7.4602   22.7412 H   0  0  0  0  0  0
  -21.0842   -8.8749   19.8917 H   0  0  0  0  0  0
  -22.3682  -10.9642   19.6129 H   0  0  0  0  0  0
  -21.1978   -7.6150   23.9748 H   0  0  0  0  0  0
  -21.1498   -6.0493   25.9080 H   0  0  0  0  0  0
  -22.0604   -2.7615   23.2818 H   0  0  0  0  0  0
  -22.4101  -11.9819   22.4780 H   0  0  0  0  0  0
  -21.1094  -13.1119   22.2613 H   0  0  0  0  0  0
  -24.6887  -15.8376   20.6408 H   0  0  0  0  0  0
  -26.3143  -15.6402   20.2015 H   0  0  0  0  0  0
  -26.7043  -32.5596   23.1191 H   0  0  0  0  0  0
  -24.9978  -33.9856   25.0446 H   0  0  0  0  0  0
  -22.6810  -31.3050   21.4151 H   0  0  0  0  0  0
  -23.3732  -35.9665   23.3343 H   0  0  0  0  0  0
  -24.3546  -36.8894   22.2050 H   0  0  0  0  0  0
  -23.7219  -37.6540   23.6623 H   0  0  0  0  0  0
  -26.0240  -31.6065   20.5869 H   0  0  0  0  0  0
  -26.8170  -30.9078   21.9704 H   0  0  0  0  0  0
  -28.0951  -29.1385   21.1447 H   0  0  0  0  0  0
  -26.0144  -25.9853   19.0179 H   0  0  0  0  0  0
  -23.9609  -27.2889   19.0725 H   0  0  0  0  0  0
  -23.7473  -30.6195   19.4178 H   0  0  0  0  0  0
  -22.7350  -29.2742   19.8442 H   0  0  0  0  0  0
  -25.1269  -36.2030   25.0827 H   0  0  0  0  0  0
  -20.9943  -28.3066   24.1310 H   0  0  0  0  0  0
  -20.5855  -26.2138   23.3553 H   0  0  0  0  0  0
  -21.6594  -26.7443   22.1024 H   0  0  0  0  0  0
  -19.6680  -25.5811   21.1713 H   0  0  0  0  0  0
  -19.6610  -27.2529   20.6618 H   0  0  0  0  0  0
  -17.4123  -26.6621   21.4050 H   0  0  0  0  0  0
  -18.0086  -25.9905   22.9041 H   0  0  0  0  0  0
  -19.7882  -30.7148   24.2276 H   0  0  0  0  0  0
  -17.4926  -31.6241   24.5129 H   0  0  0  0  0  0
  -15.5260  -30.2872   23.7588 H   0  0  0  0  0  0
  -15.8660  -28.0649   22.7160 H   0  0  0  0  0  0
  -24.5879  -30.7096   25.7699 H   0  0  0  0  0  0
  -24.8886  -32.2890   26.4866 H   0  0  0  0  0  0
  -25.8014  -30.8865   27.0174 H   0  0  0  0  0  0
  -26.2810  -29.6893   24.1062 H   0  0  0  0  0  0
  -27.3997  -29.7279   25.4496 H   0  0  0  0  0  0
  -27.8645  -30.4416   23.9209 H   0  0  0  0  0  0
  -27.2661  -33.3614   26.2120 H   0  0  0  0  0  0
  -28.3828  -32.6923   25.0305 H   0  0  0  0  0  0
  -28.0717  -31.8411   26.5368 H   0  0  0  0  0  0
  -28.2600  -38.0116   24.7463 H   0  0  0  0  0  0
  -28.1047  -36.2635   24.6347 H   0  0  0  0  0  0
  -27.2277  -37.1527   25.8870 H   0  0  0  0  0  0
  -20.9197  -29.8802   21.7036 H   0  0  0  0  0  0
  -26.0181  -38.2885   24.1461 H   0  0  0  0  0  0
  -25.9405  -16.7439   23.8958 H   0  0  0  0  0  0
  -24.9370  -18.0378   23.2519 H   0  0  0  0  0  0
  -26.0107  -18.3468   24.6206 H   0  0  0  0  0  0
  -25.5610  -21.4946   18.6578 H   0  0  0  0  0  0
  -25.8135  -20.1998   19.7943 H   0  0  0  0  0  0
  -26.9858  -20.4755   18.5110 H   0  0  0  0  0  0
  -31.0827  -16.9554   21.9556 H   0  0  0  0  0  0
  -30.6845  -17.0093   20.2489 H   0  0  0  0  0  0
  -28.7604  -24.0903   20.9427 H   0  0  0  0  0  0
  -27.1337  -24.6836   20.7850 H   0  0  0  0  0  0
  -28.4299  -22.8678   18.6860 H   0  0  0  0  0  0
  -26.8082  -23.4892   18.6759 H   0  0  0  0  0  0
  -28.0522  -25.6025   18.3923 H   0  0  0  0  0  0
  -29.5958  -25.3723   19.1415 H   0  0  0  0  0  0
  -26.3971  -22.3374   20.8782 H   0  0  0  0  0  0
  -29.1146  -21.4507   20.3890 H   0  0  0  0  0  0
  -29.0824  -15.0807   21.6487 H   0  0  0  0  0  0
  1 25  1  0  0  0
  1 30  2  0  0  0
  1 85  1  0  0  0
  2  3  1  0  0  0
  2 25  1  0  0  0
  2 89  1  0  0  0
  2 90  1  0  0  0
  3  4  1  0  0  0
  3 91  1  0  0  0
  3 92  1  0  0  0
  4  5  1  0  0  0
  4 93  1  0  0  0
  4 94  1  0  0  0
  5  6  1  0  0  0
  5 26  1  0  0  0
  5 95  1  0  0  0
  6 25  1  0  0  0
  6 96  1  0  0  0
  6 97  1  0  0  0
  7  8  2  0  0  0
  7 26  1  0  0  0
  7 29  1  0  0  0
  8  9  1  0  0  0
  8 22  1  0  0  0
  9 10  1  0  0  0
  9 27  2  0  0  0
 10 11  2  0  0  0
 10 15  1  0  0  0
 11 12  1  0  0  0
 11 98  1  0  0  0
 12 13  2  0  0  0
 12 99  1  0  0  0
 13 14  1  0  0  0
 13 31  1  0  0  0
 14 15  2  0  0  0
 14100  1  0  0  0
 15101  1  0  0  0
 16 17  2  0  0  0
 16 21  1  0  0  0
 16 31  1  0  0  0
 17 18  1  0  0  0
 17102  1  0  0  0
 18 19  2  0  0  0
 18103  1  0  0  0
 19 20  1  0  0  0
 19 24  1  0  0  0
 20 21  2  0  0  0
 20104  1  0  0  0
 21 23  1  0  0  0
 22 28  1  0  0  0
 22 32  2  0  0  0
 26 27  1  0  0  0
 28105  1  0  0  0
 28106  1  0  0  0
 29107  1  0  0  0
 29108  1  0  0  0
 33 34  1  0  0  0
 33 66  1  0  0  0
 33 70  2  0  0  0
 34 36  1  0  0  0
 34 59  1  0  0  0
 34109  1  0  0  0
 35 44  2  0  0  0
 35 45  1  0  0  0
 35 68  1  0  0  0
 36 56  1  0  0  0
 36110  1  0  0  0
 37 39  1  0  0  0
 37 47  1  0  0  0
 37 66  1  0  0  0
 37111  1  0  0  0
 38 43  2  0  0  0
 38 46  1  0  0  0
 38 47  1  0  0  0
 39 64  1  0  0  0
 39 67  2  0  0  0
 40 52  1  0  0  0
 40 53  2  0  0  0
 40 58  1  0  0  0
 41112  1  0  0  0
 41113  1  0  0  0
 41114  1  0  0  0
 41 48  1  0  0  0
 42 43  1  0  0  0
 42 66  1  0  0  0
 42115  1  0  0  0
 42116  1  0  0  0
 43 44  1  0  0  0
 44117  1  0  0  0
 45 46  2  0  0  0
 45118  1  0  0  0
 46119  1  0  0  0
 47120  1  0  0  0
 47121  1  0  0  0
 48 56  1  0  0  0
 48 65  1  0  0  0
 48122  1  0  0  0
 49 50  1  0  0  0
 49 53  1  0  0  0
 49 64  1  0  0  0
 49123  1  0  0  0
 50 51  1  0  0  0
 50124  1  0  0  0
 50125  1  0  0  0
 51 52  1  0  0  0
 51126  1  0  0  0
 51127  1  0  0  0
 52128  1  0  0  0
 52129  1  0  0  0
 53 54  1  0  0  0
 54 55  2  0  0  0
 54130  1  0  0  0
 55 57  1  0  0  0
 55131  1  0  0  0
 56 69  2  0  0  0
 57 58  2  0  0  0
 57132  1  0  0  0
 58133  1  0  0  0
 59 60  1  0  0  0
 59 61  1  0  0  0
 59 62  1  0  0  0
 60134  1  0  0  0
 60135  1  0  0  0
 60136  1  0  0  0
 61137  1  0  0  0
 61138  1  0  0  0
 61139  1  0  0  0
 62140  1  0  0  0
 62141  1  0  0  0
 62142  1  0  0  0
 63 65  1  0  0  0
 63143  1  0  0  0
 63144  1  0  0  0
 63145  1  0  0  0
 64146  1  0  0  0
 65147  1  0  0  0
 68 82  1  0  0  0
 71 74  2  0  0  0
 71 75  1  0  0  0
 71 77  1  0  0  0
 72 74  1  0  0  0
 72 76  2  0  0  0
 72 79  1  0  0  0
 73 75  2  0  0  0
 73 76  1  0  0  0
 73 84  1  0  0  0
 74 86  1  0  0  0
 75 87  1  0  0  0
 76 88  1  0  0  0
 77148  1  0  0  0
 77149  1  0  0  0
 77150  1  0  0  0
 78151  1  0  0  0
 78152  1  0  0  0
 78153  1  0  0  0
 78 83  1  0  0  0
 79 85  1  0  0  0
 79154  1  0  0  0
 79155  1  0  0  0
 80 81  1  0  0  0
 80 82  1  0  0  0
 80156  1  0  0  0
 80157  1  0  0  0
 81 83  1  0  0  0
 81158  1  0  0  0
 81159  1  0  0  0
 82160  1  0  0  0
 82161  1  0  0  0
 83 84  1  0  0  0
 83162  1  0  0  0
 84163  1  0  0  0
 85164  1  0  0  0
M  ISO  4   1 100  68 101  82 101  85 100
M  END
> <chiral flag>
0

> <version>
0

> <s_m_source_file>
/data/baiqing/PycharmProjects/Reinvent-master-3.2/result/LINK_invent/BTK/process_docking_weight1_custom_sum_contain_oxygen_bond_distance_aromatic_linkinvent_7_9_3/rearranged_h_0027.sdf

> <i_m_source_file_index>
91

> <r_mmod_Potential_Energy-OPLS-2005>
-89.2805786132812

> <r_mmod_Stretch_Energy-OPLS-2005>
36.8380851745605

> <r_mmod_Bend_Energy-OPLS-2005>
107.565986633301

> <r_mmod_Torsional_Energy-OPLS-2005>
199.678939819336

> <r_mmod_Improper_Torsional_Energy-OPLS-2005>
7.05334711074829

> <r_mmod_Van_der_Waal_Energy-OPLS-2005>
168.946304321289

> <r_mmod_Electrostatic_Energy-OPLS-2005>
-420.80908203125

> <r_mmod_Solvation_Energy-OPLS-2005>
-198.08837890625

> <b_mmod_Minimization_Converged-OPLS-2005>
0

> <r_mmod_RMS_Derivative-OPLS-2005>
6.37484216690063

$$$$
91
                    3D
 Structure written by MMmdl.
181190  0  0  1  0            999 V2000
  -30.7194  -14.4027   20.6241 C   0  0  0  0  0  0
  -30.4217  -12.2670   19.4026 C   0  0  0  0  0  0
  -29.4939  -12.5308   18.1958 C   0  0  0  0  0  0
  -28.0144  -12.4103   18.6088 C   0  0  0  0  0  0
  -27.6738  -13.2005   19.9018 C   0  0  2  0  0  0
  -28.7126  -12.9099   21.0064 C   0  0  0  0  0  0
  -25.2597  -13.8046   20.5762 C   0  0  0  0  0  0
  -24.1838  -13.0404   20.9123 C   0  0  0  0  0  0
  -24.6392  -11.6821   20.8666 C   0  0  0  0  0  0
  -23.8992  -10.4296   21.0397 C   0  0  0  0  0  0
  -24.3497   -9.4189   21.9213 C   0  0  0  0  0  0
  -23.6201   -8.2233   22.0745 C   0  0  0  0  0  0
  -22.4188   -8.0266   21.3510 C   0  0  0  0  0  0
  -21.9825   -9.0277   20.4605 C   0  0  0  0  0  0
  -22.7127  -10.2171   20.3090 C   0  0  0  0  0  0
  -21.6896   -6.0698   22.5273 C   0  0  0  0  0  0
  -21.4042   -6.5608   23.8163 C   0  0  0  0  0  0
  -21.3668   -5.6752   24.9131 C   0  0  0  0  0  0
  -21.6045   -4.3025   24.7201 C   0  0  0  0  0  0
  -21.8787   -3.8083   23.4334 C   0  0  0  0  0  0
  -21.9164   -4.6925   22.3354 C   0  0  0  0  0  0
  -22.7874  -13.5242   21.1764 C   0  0  0  0  0  0
  -22.1641   -4.2053   21.0975 F   0  0  0  0  0  0
  -21.5603   -3.4529   25.7743 F   0  0  0  0  0  0
  -30.0446  -13.2304   20.4573 N   0  0  0  0  0  0
  -26.3092  -12.9301   20.3484 N   0  0  0  0  0  0
  -25.9326  -11.6416   20.5740 N   0  0  0  0  0  0
  -22.0460  -12.8419   22.0334 N   0  0  0  0  0  0
  -25.4263  -15.1846   20.4233 N   0  0  0  0  0  0
  -31.8087  -14.6312   20.0909 O   0  0  0  0  0  0
  -21.6615   -6.8865   21.4222 O   0  0  0  0  0  0
  -22.3603  -14.5566   20.6516 O   0  0  0  0  0  0
  -24.6475  -31.8526   23.1735 C   0  0  0  0  0  0
  -25.9277  -32.4753   23.8084 C   0  0  1  0  0  0
  -27.1651  -27.2775   20.0744 C   0  0  0  0  0  0
  -25.6057  -33.8555   24.2059 N   0  0  0  0  0  0
  -23.4279  -30.4940   21.5216 C   0  0  2  0  0  0
  -24.8229  -28.9244   20.1072 C   0  0  0  0  0  0
  -22.7661  -29.4636   22.4818 C   0  0  0  0  0  0
  -18.0350  -28.1521   22.8381 C   0  0  0  0  0  0
  -24.1512  -36.7334   23.2598 C   0  0  0  0  0  0
  -25.9701  -30.7740   21.3161 C   0  0  0  0  0  0
  -26.0091  -29.3836   20.6937 C   0  0  0  0  0  0
  -27.1824  -28.5715   20.6681 C   0  0  0  0  0  0
  -25.9226  -26.8422   19.5449 C   0  0  0  0  0  0
  -24.7797  -27.6531   19.5173 C   0  0  0  0  0  0
  -23.6228  -29.8414   20.1249 C   0  0  0  0  0  0
  -25.4133  -36.3099   24.0288 C   0  0  1  0  0  0
  -20.6009  -28.3645   23.1178 C   0  0  2  0  0  0
  -20.6891  -26.9481   22.5053 C   0  0  0  0  0  0
  -19.5774  -26.6560   21.4939 C   0  0  0  0  0  0
  -18.1986  -26.8198   22.1387 C   0  0  0  0  0  0
  -19.1663  -28.8838   23.2865 C   0  0  0  0  0  0
  -18.9723  -30.1376   23.8984 C   0  0  0  0  0  0
  -17.6786  -30.6658   24.0625 C   0  0  0  0  0  0
  -25.9133  -34.9469   23.4986 C   0  0  0  0  0  0
  -16.5587  -29.9386   23.6255 C   0  0  0  0  0  0
  -16.7365  -28.6759   23.0241 C   0  0  0  0  0  0
  -26.4578  -31.6608   25.0499 C   0  0  0  0  0  0
  -25.3691  -31.3875   26.1125 C   0  0  0  0  0  0
  -27.0365  -30.3094   24.5792 C   0  0  0  0  0  0
  -27.6313  -32.4001   25.7366 C   0  0  0  0  0  0
  -27.5615  -37.1816   24.8473 C   0  0  0  0  0  0
  -21.4377  -29.3080   22.3684 N   0  0  0  0  0  0
  -26.4346  -37.3774   23.9403 N   0  0  0  0  0  0
  -24.7082  -31.0613   22.0626 N   0  0  0  0  0  0
  -23.4388  -28.8186   23.2863 O   0  0  0  0  0  0
  -28.3068  -26.4680   20.0211 O   0  0  0  0  0  0
  -26.5755  -34.9032   22.4585 O   0  0  0  0  0  0
  -23.5646  -32.1267   23.7103 O   0  0  0  0  0  0
  -31.3524  -19.3038   23.1901 C   0  0  0  0  0  0
  -30.9277  -20.5785   23.6265 C   0  0  0  0  0  0
  -29.4972  -18.2872   24.3746 C   0  0  0  0  0  0
  -30.6299  -18.1392   23.5351 C   0  0  0  0  0  0
  -29.7813  -20.7396   24.4369 C   0  0  0  0  0  0
  -29.0768  -19.5652   24.8312 C   0  0  0  0  0  0
  -25.5673  -22.9673   20.5331 C   0  0  0  0  0  0
  -25.9849  -23.9992   21.5966 C   0  0  0  0  0  0
  -26.7266  -23.0127   19.5231 C   0  0  0  0  0  0
  -27.5650  -24.0135   21.7114 C   0  0  2  0  0  0
  -27.8912  -23.8595   20.1716 C   0  0  2  0  0  0
  -27.7341  -21.5359   22.2317 C   0  0  0  0  0  0
  -29.5751  -24.8502   18.5598 C   0  0  0  0  0  0
  -27.0940  -23.0454   24.7597 C   0  0  0  0  0  0
  -31.1146  -16.7759   22.9720 C   0  0  0  0  0  0
  -29.3779  -22.1546   24.9205 C   0  0  0  0  0  0
  -30.0265  -15.7269   22.6018 C   0  0  0  0  0  0
  -28.3391  -22.8836   22.5975 C   0  0  2  0  0  0
  -28.2615  -25.1590   19.3311 C   0  0  2  0  0  0
  -30.0305  -15.4192   21.1662 N   0  0  0  0  0  0
  -28.4222  -23.0268   24.1076 N   0  3  1  0  0  0
  -27.6805  -19.6544   25.8518 Cl  0  0  0  0  0  0
  -31.4645  -12.3509   19.0899 H   0  0  0  0  0  0
  -30.3073  -11.2393   19.7600 H   0  0  0  0  0  0
  -29.7124  -11.8480   17.3710 H   0  0  0  0  0  0
  -29.6711  -13.5300   17.7923 H   0  0  0  0  0  0
  -27.7837  -11.3537   18.7613 H   0  0  0  0  0  0
  -27.3743  -12.7394   17.7871 H   0  0  0  0  0  0
  -27.7420  -14.2625   19.6610 H   0  0  0  0  0  0
  -28.6877  -11.8502   21.2818 H   0  0  0  0  0  0
  -28.4890  -13.4586   21.9152 H   0  0  0  0  0  0
  -25.2683   -9.5665   22.4724 H   0  0  0  0  0  0
  -23.9856   -7.4692   22.7569 H   0  0  0  0  0  0
  -21.0679   -8.8816   19.9038 H   0  0  0  0  0  0
  -22.3573  -10.9688   19.6152 H   0  0  0  0  0  0
  -21.2104   -7.6123   23.9626 H   0  0  0  0  0  0
  -21.1522   -6.0518   25.9015 H   0  0  0  0  0  0
  -22.0558   -2.7547   23.2843 H   0  0  0  0  0  0
  -22.4055  -12.0141   22.4865 H   0  0  0  0  0  0
  -21.1132  -13.1564   22.2496 H   0  0  0  0  0  0
  -24.6530  -15.8300   20.5383 H   0  0  0  0  0  0
  -26.2828  -15.6386   20.1331 H   0  0  0  0  0  0
  -26.7399  -32.5221   23.0879 H   0  0  0  0  0  0
  -25.0266  -33.9658   25.0255 H   0  0  0  0  0  0
  -22.7244  -31.3225   21.3899 H   0  0  0  0  0  0
  -23.3768  -35.9680   23.3236 H   0  0  0  0  0  0
  -24.3654  -36.8950   22.2030 H   0  0  0  0  0  0
  -23.7265  -37.6557   23.6550 H   0  0  0  0  0  0
  -26.1038  -31.5073   20.5121 H   0  0  0  0  0  0
  -26.8698  -30.8075   21.9174 H   0  0  0  0  0  0
  -28.1127  -28.9384   21.0763 H   0  0  0  0  0  0
  -25.7606  -25.8356   19.1844 H   0  0  0  0  0  0
  -23.8694  -27.2709   19.0633 H   0  0  0  0  0  0
  -23.8152  -30.6069   19.3770 H   0  0  0  0  0  0
  -22.7155  -29.3372   19.7695 H   0  0  0  0  0  0
  -25.1284  -36.2012   25.0777 H   0  0  0  0  0  0
  -21.0163  -28.3018   24.1255 H   0  0  0  0  0  0
  -20.6110  -26.2241   23.3146 H   0  0  0  0  0  0
  -21.6803  -26.7744   22.0774 H   0  0  0  0  0  0
  -19.6671  -25.6454   21.0917 H   0  0  0  0  0  0
  -19.7027  -27.3358   20.6503 H   0  0  0  0  0  0
  -17.4232  -26.7179   21.3872 H   0  0  0  0  0  0
  -18.0566  -26.0221   22.8698 H   0  0  0  0  0  0
  -19.8296  -30.6906   24.2500 H   0  0  0  0  0  0
  -17.5485  -31.6347   24.5358 H   0  0  0  0  0  0
  -15.5681  -30.3461   23.7576 H   0  0  0  0  0  0
  -15.8627  -28.1418   22.6779 H   0  0  0  0  0  0
  -24.6048  -30.7044   25.7416 H   0  0  0  0  0  0
  -24.8696  -32.3077   26.4093 H   0  0  0  0  0  0
  -25.7868  -30.9416   27.0138 H   0  0  0  0  0  0
  -26.2881  -29.6843   24.0922 H   0  0  0  0  0  0
  -27.4440  -29.7362   25.4120 H   0  0  0  0  0  0
  -27.8512  -30.4631   23.8735 H   0  0  0  0  0  0
  -27.3327  -33.3389   26.2034 H   0  0  0  0  0  0
  -28.4264  -32.6208   25.0229 H   0  0  0  0  0  0
  -28.0690  -31.7820   26.5230 H   0  0  0  0  0  0
  -28.2653  -38.0098   24.7478 H   0  0  0  0  0  0
  -28.1117  -36.2644   24.6305 H   0  0  0  0  0  0
  -27.2360  -37.1454   25.8893 H   0  0  0  0  0  0
  -20.9684  -29.8980   21.6978 H   0  0  0  0  0  0
  -26.0262  -38.2894   24.1311 H   0  0  0  0  0  0
  -32.2432  -19.2402   22.5781 H   0  0  0  0  0  0
  -31.5157  -21.4431   23.3501 H   0  0  0  0  0  0
  -28.9146  -17.4227   24.6660 H   0  0  0  0  0  0
  -24.6085  -23.1763   20.0521 H   0  0  0  0  0  0
  -25.4514  -21.9642   20.9542 H   0  0  0  0  0  0
  -25.3632  -24.0449   22.4895 H   0  0  0  0  0  0
  -25.6840  -24.9435   21.1622 H   0  0  0  0  0  0
  -26.4225  -23.3311   18.5250 H   0  0  0  0  0  0
  -27.0193  -21.9736   19.3464 H   0  0  0  0  0  0
  -27.8900  -25.0033   22.0514 H   0  0  0  0  0  0
  -28.7730  -23.2174   20.1257 H   0  0  0  0  0  0
  -27.7715  -21.4267   21.1624 H   0  0  0  0  0  0
  -26.7074  -21.4857   22.5773 H   0  0  0  0  0  0
  -28.2304  -20.6519   22.5803 H   0  0  0  0  0  0
  -30.3182  -24.3220   19.1635 H   0  0  0  0  0  0
  -30.0590  -25.7622   18.2316 H   0  0  0  0  0  0
  -29.3679  -24.2257   17.6743 H   0  0  0  0  0  0
  -27.0546  -23.6526   25.6624 H   0  0  0  0  0  0
  -26.7940  -22.0246   24.9991 H   0  0  0  0  0  0
  -26.3265  -23.4039   24.1062 H   0  0  0  0  0  0
  -31.7982  -16.3278   23.6919 H   0  0  0  0  0  0
  -31.7487  -16.9653   22.1007 H   0  0  0  0  0  0
  -30.2948  -22.7105   25.1271 H   0  0  0  0  0  0
  -28.9752  -22.0406   25.9286 H   0  0  0  0  0  0
  -29.0364  -16.0882   22.8700 H   0  0  0  0  0  0
  -30.1579  -14.8124   23.1902 H   0  0  0  0  0  0
  -29.3893  -22.8994   22.2813 H   0  0  0  0  0  0
  -27.5669  -25.2648   18.5000 H   0  0  0  0  0  0
  -30.2182  -16.2833   20.6652 H   0  0  0  0  0  0
  -28.8202  -23.9438   24.2656 H   0  0  0  0  0  0
  1 25  1  0  0  0
  1 30  2  0  0  0
  1 90  1  0  0  0
  2  3  1  0  0  0
  2 25  1  0  0  0
  2 93  1  0  0  0
  2 94  1  0  0  0
  3  4  1  0  0  0
  3 95  1  0  0  0
  3 96  1  0  0  0
  4  5  1  0  0  0
  4 97  1  0  0  0
  4 98  1  0  0  0
  5  6  1  0  0  0
  5 26  1  0  0  0
  5 99  1  0  0  0
  6 25  1  0  0  0
  6100  1  0  0  0
  6101  1  0  0  0
  7  8  2  0  0  0
  7 26  1  0  0  0
  7 29  1  0  0  0
  8  9  1  0  0  0
  8 22  1  0  0  0
  9 10  1  0  0  0
  9 27  2  0  0  0
 10 11  2  0  0  0
 10 15  1  0  0  0
 11 12  1  0  0  0
 11102  1  0  0  0
 12 13  2  0  0  0
 12103  1  0  0  0
 13 14  1  0  0  0
 13 31  1  0  0  0
 14 15  2  0  0  0
 14104  1  0  0  0
 15105  1  0  0  0
 16 17  2  0  0  0
 16 21  1  0  0  0
 16 31  1  0  0  0
 17 18  1  0  0  0
 17106  1  0  0  0
 18 19  2  0  0  0
 18107  1  0  0  0
 19 20  1  0  0  0
 19 24  1  0  0  0
 20 21  2  0  0  0
 20108  1  0  0  0
 21 23  1  0  0  0
 22 28  1  0  0  0
 22 32  2  0  0  0
 26 27  1  0  0  0
 28109  1  0  0  0
 28110  1  0  0  0
 29111  1  0  0  0
 29112  1  0  0  0
 33 34  1  0  0  0
 33 66  1  0  0  0
 33 70  2  0  0  0
 34 36  1  0  0  0
 34 59  1  0  0  0
 34113  1  0  0  0
 35 44  2  0  0  0
 35 45  1  0  0  0
 35 68  1  0  0  0
 36 56  1  0  0  0
 36114  1  0  0  0
 37 39  1  0  0  0
 37 47  1  0  0  0
 37 66  1  0  0  0
 37115  1  0  0  0
 38 43  2  0  0  0
 38 46  1  0  0  0
 38 47  1  0  0  0
 39 64  1  0  0  0
 39 67  2  0  0  0
 40 52  1  0  0  0
 40 53  2  0  0  0
 40 58  1  0  0  0
 41116  1  0  0  0
 41117  1  0  0  0
 41118  1  0  0  0
 41 48  1  0  0  0
 42 43  1  0  0  0
 42 66  1  0  0  0
 42119  1  0  0  0
 42120  1  0  0  0
 43 44  1  0  0  0
 44121  1  0  0  0
 45 46  2  0  0  0
 45122  1  0  0  0
 46123  1  0  0  0
 47124  1  0  0  0
 47125  1  0  0  0
 48 56  1  0  0  0
 48 65  1  0  0  0
 48126  1  0  0  0
 49 50  1  0  0  0
 49 53  1  0  0  0
 49 64  1  0  0  0
 49127  1  0  0  0
 50 51  1  0  0  0
 50128  1  0  0  0
 50129  1  0  0  0
 51 52  1  0  0  0
 51130  1  0  0  0
 51131  1  0  0  0
 52132  1  0  0  0
 52133  1  0  0  0
 53 54  1  0  0  0
 54 55  2  0  0  0
 54134  1  0  0  0
 55 57  1  0  0  0
 55135  1  0  0  0
 56 69  2  0  0  0
 57 58  2  0  0  0
 57136  1  0  0  0
 58137  1  0  0  0
 59 60  1  0  0  0
 59 61  1  0  0  0
 59 62  1  0  0  0
 60138  1  0  0  0
 60139  1  0  0  0
 60140  1  0  0  0
 61141  1  0  0  0
 61142  1  0  0  0
 61143  1  0  0  0
 62144  1  0  0  0
 62145  1  0  0  0
 62146  1  0  0  0
 63 65  1  0  0  0
 63147  1  0  0  0
 63148  1  0  0  0
 63149  1  0  0  0
 64150  1  0  0  0
 65151  1  0  0  0
 68 89  1  0  0  0
 71 72  2  0  0  0
 71 74  1  0  0  0
 71152  1  0  0  0
 72 75  1  0  0  0
 72153  1  0  0  0
 73 74  2  0  0  0
 73 76  1  0  0  0
 73154  1  0  0  0
 74 85  1  0  0  0
 75 76  2  0  0  0
 75 86  1  0  0  0
 76 92  1  0  0  0
 77 78  1  0  0  0
 77 79  1  0  0  0
 77155  1  0  0  0
 77156  1  0  0  0
 78157  1  0  0  0
 78158  1  0  0  0
 78 80  1  0  0  0
 79159  1  0  0  0
 79160  1  0  0  0
 79 81  1  0  0  0
 80 81  1  0  0  0
 80 88  1  0  0  0
 80161  1  0  0  0
 81 89  1  0  0  0
 81162  1  0  0  0
 82163  1  0  0  0
 82164  1  0  0  0
 82165  1  0  0  0
 82 88  1  0  0  0
 83166  1  0  0  0
 83167  1  0  0  0
 83168  1  0  0  0
 83 89  1  0  0  0
 84169  1  0  0  0
 84170  1  0  0  0
 84171  1  0  0  0
 84 91  1  0  0  0
 85 87  1  0  0  0
 85172  1  0  0  0
 85173  1  0  0  0
 86 91  1  0  0  0
 86174  1  0  0  0
 86175  1  0  0  0
 87 90  1  0  0  0
 87176  1  0  0  0
 87177  1  0  0  0
 88 91  1  0  0  0
 88178  1  0  0  0
 89179  1  0  0  0
 90180  1  0  0  0
 91181  1  0  0  0
M  CHG  1  91   1
M  ISO  4   1 100  68 101  89 101  90 100
M  END
> <chiral flag>
0

> <version>
0

> <s_m_source_file>
/data/baiqing/PycharmProjects/Reinvent-master-3.2/result/LINK_invent/BTK/process_docking_weight1_custom_sum_contain_oxygen_bond_distance_aromatic_linkinvent_7_9_3/rearranged_h_0027.sdf

> <i_m_source_file_index>
92

> <r_mmod_Potential_Energy-OPLS-2005>
209.755355834961

> <r_mmod_Stretch_Energy-OPLS-2005>
92.4995803833008

> <r_mmod_Bend_Energy-OPLS-2005>
230.361129760742

> <r_mmod_Torsional_Energy-OPLS-2005>
379.221740722656

> <r_mmod_Improper_Torsional_Energy-OPLS-2005>
11.4110155105591

> <r_mmod_Van_der_Waal_Energy-OPLS-2005>
185.008483886719

> <r_mmod_Electrostatic_Energy-OPLS-2005>
-312.715850830078

> <r_mmod_Solvation_Energy-OPLS-2005>
-414.927459716797

> <b_mmod_Minimization_Converged-OPLS-2005>
0

> <r_mmod_RMS_Derivative-OPLS-2005>
18.4489212036133

$$$$
92
                    3D
 Structure written by MMmdl.
190198  0  0  1  0            999 V2000
  -30.7965  -14.3041   20.7566 C   0  0  0  0  0  0
  -30.4138  -12.2926   19.3771 C   0  0  0  0  0  0
  -29.4773  -12.5401   18.1826 C   0  0  0  0  0  0
  -28.0032  -12.3848   18.6008 C   0  0  0  0  0  0
  -27.6629  -13.2010   19.8752 C   0  0  2  0  0  0
  -28.6982  -12.9228   20.9855 C   0  0  0  0  0  0
  -25.2564  -13.8140   20.5684 C   0  0  0  0  0  0
  -24.1813  -13.0435   20.9172 C   0  0  0  0  0  0
  -24.6347  -11.6890   20.8716 C   0  0  0  0  0  0
  -23.9020  -10.4290   21.0384 C   0  0  0  0  0  0
  -24.3583   -9.4211   21.9169 C   0  0  0  0  0  0
  -23.6274   -8.2242   22.0739 C   0  0  0  0  0  0
  -22.4257   -8.0262   21.3529 C   0  0  0  0  0  0
  -21.9878   -9.0236   20.4637 C   0  0  0  0  0  0
  -22.7193  -10.2117   20.3040 C   0  0  0  0  0  0
  -21.6848   -6.0726   22.5272 C   0  0  0  0  0  0
  -21.4017   -6.5636   23.8209 C   0  0  0  0  0  0
  -21.3658   -5.6785   24.9172 C   0  0  0  0  0  0
  -21.6053   -4.3052   24.7224 C   0  0  0  0  0  0
  -21.8816   -3.8136   23.4344 C   0  0  0  0  0  0
  -21.9193   -4.6957   22.3397 C   0  0  0  0  0  0
  -22.7832  -13.5216   21.1873 C   0  0  0  0  0  0
  -22.1656   -4.2139   21.0975 F   0  0  0  0  0  0
  -21.5628   -3.4535   25.7740 F   0  0  0  0  0  0
  -30.0458  -13.2143   20.4593 N   0  0  0  0  0  0
  -26.3008  -12.9313   20.3345 N   0  0  0  0  0  0
  -25.9264  -11.6475   20.5713 N   0  0  0  0  0  0
  -22.0467  -12.8230   22.0433 N   0  0  0  0  0  0
  -25.4278  -15.1871   20.4109 N   0  0  0  0  0  0
  -31.7743  -14.6574   20.0898 O   0  0  0  0  0  0
  -21.6628   -6.8857   21.4224 O   0  0  0  0  0  0
  -22.3515  -14.5543   20.6728 O   0  0  0  0  0  0
  -24.6127  -31.8742   23.2230 C   0  0  0  0  0  0
  -25.9004  -32.4888   23.8555 C   0  0  1  0  0  0
  -27.2210  -27.4761   20.0661 C   0  0  0  0  0  0
  -25.5869  -33.8687   24.2502 N   0  0  0  0  0  0
  -23.4012  -30.5036   21.5590 C   0  0  2  0  0  0
  -24.8409  -28.9756   20.1282 C   0  0  0  0  0  0
  -22.7405  -29.4735   22.5033 C   0  0  0  0  0  0
  -18.0243  -28.1405   22.8503 C   0  0  0  0  0  0
  -24.1468  -36.7323   23.2663 C   0  0  0  0  0  0
  -25.9297  -30.8546   21.3670 C   0  0  0  0  0  0
  -26.0064  -29.4907   20.7132 C   0  0  0  0  0  0
  -27.2049  -28.7439   20.6866 C   0  0  0  0  0  0
  -26.0421  -26.9824   19.4781 C   0  0  0  0  0  0
  -24.8475  -27.7130   19.5160 C   0  0  0  0  0  0
  -23.6104  -29.8418   20.1726 C   0  0  0  0  0  0
  -25.4065  -36.3167   24.0421 C   0  0  1  0  0  0
  -20.5852  -28.3715   23.1314 C   0  0  2  0  0  0
  -20.6755  -26.9464   22.5393 C   0  0  0  0  0  0
  -19.5767  -26.6425   21.5172 C   0  0  0  0  0  0
  -18.1930  -26.7964   22.1580 C   0  0  0  0  0  0
  -19.1497  -28.8866   23.2920 C   0  0  0  0  0  0
  -18.9445  -30.1442   23.8993 C   0  0  0  0  0  0
  -17.6461  -30.6631   24.0561 C   0  0  0  0  0  0
  -25.8993  -34.9515   23.5257 C   0  0  0  0  0  0
  -16.5344  -29.9153   23.6298 C   0  0  0  0  0  0
  -16.7228  -28.6513   23.0419 C   0  0  0  0  0  0
  -26.4417  -31.6675   25.0889 C   0  0  0  0  0  0
  -25.3663  -31.3756   26.1640 C   0  0  0  0  0  0
  -27.0297  -30.3165   24.6235 C   0  0  0  0  0  0
  -27.6095  -32.4332   25.7585 C   0  0  0  0  0  0
  -27.5585  -37.1821   24.8481 C   0  0  0  0  0  0
  -21.4137  -29.3098   22.3748 N   0  0  0  0  0  0
  -26.4265  -37.3842   23.9468 N   0  0  0  0  0  0
  -24.6681  -31.0869   22.1118 N   0  0  0  0  0  0
  -23.4170  -28.8283   23.3091 O   0  0  0  0  0  0
  -28.3631  -26.7229   20.0170 O   0  0  0  0  0  0
  -26.5534  -34.8921   22.4810 O   0  0  0  0  0  0
  -23.5313  -32.1512   23.7590 O   0  0  0  0  0  0
  -24.7662  -22.7594   20.4508 C   0  0  0  0  0  0
  -26.8911  -23.7102   19.7525 C   0  0  0  0  0  0
  -26.3974  -23.6735   18.4085 C   0  0  0  0  0  0
  -26.0490  -23.2198   20.7818 C   0  0  0  0  0  0
  -25.0848  -23.1750   18.1934 C   0  0  0  0  0  0
  -23.1014  -20.0237   13.9127 C   0  0  0  0  0  0
  -28.2938  -24.2177   20.1283 C   0  0  0  0  0  0
  -27.2206  -24.2013   17.2161 C   0  0  0  0  0  0
  -23.4137  -20.7291   15.2382 C   0  0  0  0  0  0
  -30.4897  -19.0637   20.4468 C   0  0  0  0  0  0
  -29.2777  -19.5998   19.6788 C   0  0  0  0  0  0
  -30.1645  -17.8548   21.3299 C   0  0  0  0  0  0
  -29.7129  -20.6204   18.6209 C   0  0  0  0  0  0
  -22.9151  -22.1822   15.2813 C   0  0  0  0  0  0
  -31.4454  -17.2204   21.8978 C   0  0  0  0  0  0
  -28.5359  -21.2193   17.8492 C   0  0  0  0  0  0
  -23.1430  -22.8275   16.6569 C   0  0  0  0  0  0
  -31.2152  -15.9050   22.6638 C   0  0  0  0  0  0
  -28.9779  -22.4152   16.9814 C   0  0  0  0  0  0
  -28.3344  -25.5764   20.8705 C   0  0  0  0  0  0
  -24.2959  -22.7327   19.1897 N   0  0  0  0  0  0
  -24.5602  -23.0948   16.8952 N   0  0  0  0  0  0
  -30.4684  -14.8907   21.9168 N   0  0  0  0  0  0
  -27.8475  -23.1471   16.3779 N   0  3  0  0  0  0
  -26.5541  -23.1554   22.4349 Cl  0  0  0  0  0  0
  -31.4552  -12.4054   19.0714 H   0  0  0  0  0  0
  -30.3203  -11.2632   19.7257 H   0  0  0  0  0  0
  -29.7097  -11.8482   17.3724 H   0  0  0  0  0  0
  -29.6427  -13.5434   17.7863 H   0  0  0  0  0  0
  -27.8130  -11.3252   18.7780 H   0  0  0  0  0  0
  -27.3459  -12.6754   17.7799 H   0  0  0  0  0  0
  -27.7254  -14.2578   19.6124 H   0  0  0  0  0  0
  -28.6548  -11.8719   21.2757 H   0  0  0  0  0  0
  -28.4352  -13.4795   21.8848 H   0  0  0  0  0  0
  -25.2720   -9.5702   22.4754 H   0  0  0  0  0  0
  -23.9998   -7.4621   22.7440 H   0  0  0  0  0  0
  -21.0820   -8.8730   19.8935 H   0  0  0  0  0  0
  -22.3634  -10.9649   19.6152 H   0  0  0  0  0  0
  -21.2006   -7.6144   23.9707 H   0  0  0  0  0  0
  -21.1486   -6.0520   25.9077 H   0  0  0  0  0  0
  -22.0599   -2.7600   23.2845 H   0  0  0  0  0  0
  -22.4048  -11.9879   22.4845 H   0  0  0  0  0  0
  -21.1082  -13.1259   22.2633 H   0  0  0  0  0  0
  -24.6649  -15.8447   20.5349 H   0  0  0  0  0  0
  -26.2909  -15.6297   20.1204 H   0  0  0  0  0  0
  -26.7122  -32.5645   23.1375 H   0  0  0  0  0  0
  -25.0046  -33.9859   25.0668 H   0  0  0  0  0  0
  -22.6897  -31.3206   21.4157 H   0  0  0  0  0  0
  -23.3734  -35.9653   23.3308 H   0  0  0  0  0  0
  -24.3581  -36.8924   22.2082 H   0  0  0  0  0  0
  -23.7185  -37.6538   23.6606 H   0  0  0  0  0  0
  -26.0099  -31.6203   20.5949 H   0  0  0  0  0  0
  -26.8303  -30.9237   21.9652 H   0  0  0  0  0  0
  -28.1083  -29.1345   21.1383 H   0  0  0  0  0  0
  -26.0431  -26.0459   18.9594 H   0  0  0  0  0  0
  -23.9544  -27.3089   19.0572 H   0  0  0  0  0  0
  -23.7396  -30.6170   19.4170 H   0  0  0  0  0  0
  -22.7357  -29.2639   19.8681 H   0  0  0  0  0  0
  -25.1208  -36.2101   25.0919 H   0  0  0  0  0  0
  -20.9905  -28.3286   24.1449 H   0  0  0  0  0  0
  -20.5611  -26.2363   23.3582 H   0  0  0  0  0  0
  -21.6642  -26.7523   22.1218 H   0  0  0  0  0  0
  -19.6947  -25.6316   21.1274 H   0  0  0  0  0  0
  -19.6713  -27.3144   20.6626 H   0  0  0  0  0  0
  -17.4193  -26.6676   21.3992 H   0  0  0  0  0  0
  -18.0363  -26.0080   22.8950 H   0  0  0  0  0  0
  -19.7917  -30.7190   24.2480 H   0  0  0  0  0  0
  -17.5024  -31.6319   24.5151 H   0  0  0  0  0  0
  -15.5367  -30.3134   23.7541 H   0  0  0  0  0  0
  -15.8591  -28.0813   22.7258 H   0  0  0  0  0  0
  -24.5873  -30.7061   25.7965 H   0  0  0  0  0  0
  -24.8757  -32.2869   26.5098 H   0  0  0  0  0  0
  -25.8027  -30.8968   27.0415 H   0  0  0  0  0  0
  -26.2925  -29.6929   24.1179 H   0  0  0  0  0  0
  -27.4007  -29.7417   25.4727 H   0  0  0  0  0  0
  -27.8741  -30.4564   23.9480 H   0  0  0  0  0  0
  -27.2886  -33.3666   26.2215 H   0  0  0  0  0  0
  -28.3867  -32.6838   25.0345 H   0  0  0  0  0  0
  -28.0789  -31.8384   26.5436 H   0  0  0  0  0  0
  -28.2590  -38.0128   24.7534 H   0  0  0  0  0  0
  -28.1095  -36.2667   24.6249 H   0  0  0  0  0  0
  -27.2349  -37.1445   25.8901 H   0  0  0  0  0  0
  -20.9289  -29.8832   21.6980 H   0  0  0  0  0  0
  -26.0196  -38.2954   24.1449 H   0  0  0  0  0  0
  -24.0960  -22.3982   21.2176 H   0  0  0  0  0  0
  -23.4984  -19.0077   13.9038 H   0  0  0  0  0  0
  -23.5390  -20.5569   13.0686 H   0  0  0  0  0  0
  -22.0252  -19.9563   13.7486 H   0  0  0  0  0  0
  -28.9735  -24.2508   19.2868 H   0  0  0  0  0  0
  -28.7420  -23.4626   20.7753 H   0  0  0  0  0  0
  -27.9683  -24.9246   17.5359 H   0  0  0  0  0  0
  -26.5581  -24.7911   16.5791 H   0  0  0  0  0  0
  -24.4878  -20.6975   15.4270 H   0  0  0  0  0  0
  -22.9488  -20.1711   16.0527 H   0  0  0  0  0  0
  -30.9174  -19.8619   21.0574 H   0  0  0  0  0  0
  -31.2606  -18.7792   19.7295 H   0  0  0  0  0  0
  -28.5742  -20.0581   20.3752 H   0  0  0  0  0  0
  -28.7440  -18.7781   19.1998 H   0  0  0  0  0  0
  -29.6193  -17.1204   20.7354 H   0  0  0  0  0  0
  -29.4984  -18.1490   22.1418 H   0  0  0  0  0  0
  -30.4025  -20.1567   17.9143 H   0  0  0  0  0  0
  -30.2682  -21.4188   19.1142 H   0  0  0  0  0  0
  -21.8442  -22.1909   15.0698 H   0  0  0  0  0  0
  -23.3814  -22.7814   14.4963 H   0  0  0  0  0  0
  -31.9382  -17.9361   22.5584 H   0  0  0  0  0  0
  -32.1574  -17.0404   21.0909 H   0  0  0  0  0  0
  -27.7769  -21.5084   18.5698 H   0  0  0  0  0  0
  -28.0693  -20.4584   17.2227 H   0  0  0  0  0  0
  -22.7066  -22.1826   17.4199 H   0  0  0  0  0  0
  -22.6132  -23.7803   16.7085 H   0  0  0  0  0  0
  -30.6611  -16.1157   23.5803 H   0  0  0  0  0  0
  -32.1726  -15.4857   22.9807 H   0  0  0  0  0  0
  -29.6168  -22.0525   16.1764 H   0  0  0  0  0  0
  -29.6007  -23.1112   17.5389 H   0  0  0  0  0  0
  -29.2584  -25.6319   21.4435 H   0  0  0  0  0  0
  -27.5354  -25.6360   21.6107 H   0  0  0  0  0  0
  -25.0004  -23.6624   16.1860 H   0  0  0  0  0  0
  -29.6710  -14.4906   22.3899 H   0  0  0  0  0  0
  -28.2276  -23.6145   15.5687 H   0  0  0  0  0  0
  -27.1655  -22.4939   16.0265 H   0  0  0  0  0  0
  1 25  1  0  0  0
  1 30  2  0  0  0
  1 93  1  0  0  0
  2  3  1  0  0  0
  2 25  1  0  0  0
  2 96  1  0  0  0
  2 97  1  0  0  0
  3  4  1  0  0  0
  3 98  1  0  0  0
  3 99  1  0  0  0
  4  5  1  0  0  0
  4100  1  0  0  0
  4101  1  0  0  0
  5  6  1  0  0  0
  5 26  1  0  0  0
  5102  1  0  0  0
  6 25  1  0  0  0
  6103  1  0  0  0
  6104  1  0  0  0
  7  8  2  0  0  0
  7 26  1  0  0  0
  7 29  1  0  0  0
  8  9  1  0  0  0
  8 22  1  0  0  0
  9 10  1  0  0  0
  9 27  2  0  0  0
 10 11  2  0  0  0
 10 15  1  0  0  0
 11 12  1  0  0  0
 11105  1  0  0  0
 12 13  2  0  0  0
 12106  1  0  0  0
 13 14  1  0  0  0
 13 31  1  0  0  0
 14 15  2  0  0  0
 14107  1  0  0  0
 15108  1  0  0  0
 16 17  2  0  0  0
 16 21  1  0  0  0
 16 31  1  0  0  0
 17 18  1  0  0  0
 17109  1  0  0  0
 18 19  2  0  0  0
 18110  1  0  0  0
 19 20  1  0  0  0
 19 24  1  0  0  0
 20 21  2  0  0  0
 20111  1  0  0  0
 21 23  1  0  0  0
 22 28  1  0  0  0
 22 32  2  0  0  0
 26 27  1  0  0  0
 28112  1  0  0  0
 28113  1  0  0  0
 29114  1  0  0  0
 29115  1  0  0  0
 33 34  1  0  0  0
 33 66  1  0  0  0
 33 70  2  0  0  0
 34 36  1  0  0  0
 34 59  1  0  0  0
 34116  1  0  0  0
 35 44  2  0  0  0
 35 45  1  0  0  0
 35 68  1  0  0  0
 36 56  1  0  0  0
 36117  1  0  0  0
 37 39  1  0  0  0
 37 47  1  0  0  0
 37 66  1  0  0  0
 37118  1  0  0  0
 38 43  2  0  0  0
 38 46  1  0  0  0
 38 47  1  0  0  0
 39 64  1  0  0  0
 39 67  2  0  0  0
 40 52  1  0  0  0
 40 53  2  0  0  0
 40 58  1  0  0  0
 41119  1  0  0  0
 41120  1  0  0  0
 41121  1  0  0  0
 41 48  1  0  0  0
 42 43  1  0  0  0
 42 66  1  0  0  0
 42122  1  0  0  0
 42123  1  0  0  0
 43 44  1  0  0  0
 44124  1  0  0  0
 45 46  2  0  0  0
 45125  1  0  0  0
 46126  1  0  0  0
 47127  1  0  0  0
 47128  1  0  0  0
 48 56  1  0  0  0
 48 65  1  0  0  0
 48129  1  0  0  0
 49 50  1  0  0  0
 49 53  1  0  0  0
 49 64  1  0  0  0
 49130  1  0  0  0
 50 51  1  0  0  0
 50131  1  0  0  0
 50132  1  0  0  0
 51 52  1  0  0  0
 51133  1  0  0  0
 51134  1  0  0  0
 52135  1  0  0  0
 52136  1  0  0  0
 53 54  1  0  0  0
 54 55  2  0  0  0
 54137  1  0  0  0
 55 57  1  0  0  0
 55138  1  0  0  0
 56 69  2  0  0  0
 57 58  2  0  0  0
 57139  1  0  0  0
 58140  1  0  0  0
 59 60  1  0  0  0
 59 61  1  0  0  0
 59 62  1  0  0  0
 60141  1  0  0  0
 60142  1  0  0  0
 60143  1  0  0  0
 61144  1  0  0  0
 61145  1  0  0  0
 61146  1  0  0  0
 62147  1  0  0  0
 62148  1  0  0  0
 62149  1  0  0  0
 63 65  1  0  0  0
 63150  1  0  0  0
 63151  1  0  0  0
 63152  1  0  0  0
 64153  1  0  0  0
 65154  1  0  0  0
 68 90  1  0  0  0
 71 74  2  0  0  0
 71 91  1  0  0  0
 71155  1  0  0  0
 72 73  2  0  0  0
 72 74  1  0  0  0
 72 77  1  0  0  0
 73 75  1  0  0  0
 73 78  1  0  0  0
 74 95  1  0  0  0
 75 91  2  0  0  0
 75 92  1  0  0  0
 76 79  1  0  0  0
 76156  1  0  0  0
 76157  1  0  0  0
 76158  1  0  0  0
 77 90  1  0  0  0
 77159  1  0  0  0
 77160  1  0  0  0
 78 94  1  0  0  0
 78161  1  0  0  0
 78162  1  0  0  0
 79 84  1  0  0  0
 79163  1  0  0  0
 79164  1  0  0  0
 80 81  1  0  0  0
 80 82  1  0  0  0
 80165  1  0  0  0
 80166  1  0  0  0
 81 83  1  0  0  0
 81167  1  0  0  0
 81168  1  0  0  0
 82 85  1  0  0  0
 82169  1  0  0  0
 82170  1  0  0  0
 83 86  1  0  0  0
 83171  1  0  0  0
 83172  1  0  0  0
 84 87  1  0  0  0
 84173  1  0  0  0
 84174  1  0  0  0
 85 88  1  0  0  0
 85175  1  0  0  0
 85176  1  0  0  0
 86 89  1  0  0  0
 86177  1  0  0  0
 86178  1  0  0  0
 87 92  1  0  0  0
 87179  1  0  0  0
 87180  1  0  0  0
 88 93  1  0  0  0
 88181  1  0  0  0
 88182  1  0  0  0
 89 94  1  0  0  0
 89183  1  0  0  0
 89184  1  0  0  0
 90185  1  0  0  0
 90186  1  0  0  0
 92187  1  0  0  0
 93188  1  0  0  0
 94189  1  0  0  0
 94190  1  0  0  0
M  CHG  1  94   1
M  ISO  4   1 100  68 101  90 101  93 100
M  END
> <chiral flag>
0

> <version>
0

> <s_m_source_file>
/data/baiqing/PycharmProjects/Reinvent-master-3.2/result/LINK_invent/BTK/process_docking_weight1_custom_sum_contain_oxygen_bond_distance_aromatic_linkinvent_7_9_3/rearranged_h_0027.sdf

> <i_m_source_file_index>
93

> <r_mmod_Potential_Energy-OPLS-2005>
-328.787445068359

> <r_mmod_Stretch_Energy-OPLS-2005>
37.7563896179199

> <r_mmod_Bend_Energy-OPLS-2005>
113.814544677734

> <r_mmod_Torsional_Energy-OPLS-2005>
223.704574584961

> <r_mmod_Improper_Torsional_Energy-OPLS-2005>
5.03561544418335

> <r_mmod_Van_der_Waal_Energy-OPLS-2005>
152.376953125

> <r_mmod_Electrostatic_Energy-OPLS-2005>
-390.977691650391

> <r_mmod_Solvation_Energy-OPLS-2005>
-479.838958740234

> <b_mmod_Minimization_Converged-OPLS-2005>
0

> <r_mmod_RMS_Derivative-OPLS-2005>
4.62241554260254

$$$$
93
                    3D
 Structure written by MMmdl.
163171  0  0  1  0            999 V2000
  -30.7323  -14.4767   20.5674 C   0  0  0  0  0  0
  -30.4142  -12.3094   19.4339 C   0  0  0  0  0  0
  -29.4965  -12.4973   18.2081 C   0  0  0  0  0  0
  -28.0143  -12.3662   18.6131 C   0  0  0  0  0  0
  -27.6577  -13.2141   19.8632 C   0  0  2  0  0  0
  -28.6962  -13.0213   20.9889 C   0  0  0  0  0  0
  -25.2613  -13.8211   20.5669 C   0  0  0  0  0  0
  -24.1865  -13.0490   20.9166 C   0  0  0  0  0  0
  -24.6421  -11.6952   20.8728 C   0  0  0  0  0  0
  -23.9092  -10.4330   21.0388 C   0  0  0  0  0  0
  -24.3657   -9.4249   21.9167 C   0  0  0  0  0  0
  -23.6332   -8.2281   22.0741 C   0  0  0  0  0  0
  -22.4304   -8.0314   21.3531 C   0  0  0  0  0  0
  -21.9931   -9.0293   20.4636 C   0  0  0  0  0  0
  -22.7264  -10.2173   20.3038 C   0  0  0  0  0  0
  -21.6885   -6.0741   22.5264 C   0  0  0  0  0  0
  -21.4037   -6.5638   23.8201 C   0  0  0  0  0  0
  -21.3670   -5.6781   24.9162 C   0  0  0  0  0  0
  -21.6047   -4.3042   24.7199 C   0  0  0  0  0  0
  -21.8840   -3.8143   23.4321 C   0  0  0  0  0  0
  -21.9216   -4.6967   22.3384 C   0  0  0  0  0  0
  -22.7889  -13.5279   21.1815 C   0  0  0  0  0  0
  -22.1673   -4.2156   21.0955 F   0  0  0  0  0  0
  -21.5639   -3.4527   25.7711 F   0  0  0  0  0  0
  -30.0269  -13.3169   20.4365 N   0  0  0  0  0  0
  -26.3022  -12.9376   20.3300 N   0  0  0  0  0  0
  -25.9343  -11.6535   20.5738 N   0  0  0  0  0  0
  -22.0545  -12.8269   22.0385 N   0  0  0  0  0  0
  -25.4381  -15.1933   20.4130 N   0  0  0  0  0  0
  -31.8610  -14.6078   20.0840 O   0  0  0  0  0  0
  -21.6678   -6.8893   21.4226 O   0  0  0  0  0  0
  -22.3549  -14.5558   20.6638 O   0  0  0  0  0  0
  -24.6168  -31.8662   23.2056 C   0  0  0  0  0  0
  -25.9066  -32.4805   23.8346 C   0  0  1  0  0  0
  -27.2317  -27.4175   20.0876 C   0  0  0  0  0  0
  -25.5940  -33.8609   24.2291 N   0  0  0  0  0  0
  -23.4020  -30.4911   21.5468 C   0  0  2  0  0  0
  -24.8438  -28.9497   20.1146 C   0  0  0  0  0  0
  -22.7406  -29.4680   22.4976 C   0  0  0  0  0  0
  -18.0290  -28.1364   22.8507 C   0  0  0  0  0  0
  -24.1498  -36.7308   23.2635 C   0  0  0  0  0  0
  -25.9328  -30.8245   21.3593 C   0  0  0  0  0  0
  -26.0046  -29.4578   20.7086 C   0  0  0  0  0  0
  -27.1977  -28.6968   20.6924 C   0  0  0  0  0  0
  -26.0399  -26.9161   19.5135 C   0  0  0  0  0  0
  -24.8564  -27.6776   19.5191 C   0  0  0  0  0  0
  -23.6062  -29.8156   20.1641 C   0  0  0  0  0  0
  -25.4122  -36.3095   24.0324 C   0  0  1  0  0  0
  -20.5878  -28.3675   23.1299 C   0  0  2  0  0  0
  -20.6782  -26.9418   22.5393 C   0  0  0  0  0  0
  -19.5749  -26.6381   21.5209 C   0  0  0  0  0  0
  -18.1935  -26.7921   22.1630 C   0  0  0  0  0  0
  -19.1537  -28.8840   23.2902 C   0  0  0  0  0  0
  -18.9468  -30.1445   23.8911 C   0  0  0  0  0  0
  -17.6466  -30.6582   24.0566 C   0  0  0  0  0  0
  -25.9040  -34.9471   23.5097 C   0  0  0  0  0  0
  -16.5356  -29.9080   23.6324 C   0  0  0  0  0  0
  -16.7280  -28.6486   23.0374 C   0  0  0  0  0  0
  -26.4487  -31.6614   25.0696 C   0  0  0  0  0  0
  -25.3746  -31.3761   26.1444 C   0  0  0  0  0  0
  -27.0325  -30.3046   24.6110 C   0  0  0  0  0  0
  -27.6051  -32.4360   25.7470 C   0  0  0  0  0  0
  -27.5589  -37.1806   24.8463 C   0  0  0  0  0  0
  -21.4139  -29.3050   22.3707 N   0  0  0  0  0  0
  -26.4305  -37.3780   23.9411 N   0  0  0  0  0  0
  -24.6689  -31.0761   22.0953 N   0  0  0  0  0  0
  -23.4180  -28.8231   23.3023 O   0  0  0  0  0  0
  -28.4260  -26.7159   20.0961 O   0  0  0  0  0  0
  -26.5583  -34.8934   22.4639 O   0  0  0  0  0  0
  -23.5356  -32.1436   23.7444 O   0  0  0  0  0  0
  -28.5684  -20.4506   19.7550 C   0  0  0  0  0  0
  -28.7200  -16.7481   22.6832 C   0  0  0  0  0  0
  -29.9174  -15.8200   22.4226 C   0  0  0  0  0  0
  -30.2933  -16.8545   20.2627 C   0  0  0  0  0  0
  -29.2168  -17.9727   20.4862 C   0  0  1  0  0  0
  -28.9382  -18.1125   22.0044 C   0  0  1  0  0  0
  -30.1531  -19.1414   18.3714 C   0  0  0  0  0  0
  -28.4908  -24.2080   20.2321 C   0  0  0  0  0  0
  -28.3460  -22.9118   19.3885 C   0  0  0  0  0  0
  -28.5671  -25.4890   19.3584 C   0  0  0  0  0  0
  -29.6456  -19.3363   19.8191 C   0  0  1  0  0  0
  -30.0481  -15.5799   20.9815 N   0  0  0  0  0  0
  -28.9738  -21.7167   19.9780 N   0  0  0  0  0  0
  -27.4259  -20.1868   19.3757 O   0  0  0  0  0  0
  -27.8663  -18.8724   22.2310 F   0  0  0  0  0  0
  -31.4635  -12.3828   19.1378 H   0  0  0  0  0  0
  -30.2950  -11.3095   19.8523 H   0  0  0  0  0  0
  -29.7364  -11.7582   17.4437 H   0  0  0  0  0  0
  -29.6735  -13.4757   17.7589 H   0  0  0  0  0  0
  -27.8207  -11.3109   18.8156 H   0  0  0  0  0  0
  -27.3699  -12.6376   17.7762 H   0  0  0  0  0  0
  -27.6950  -14.2582   19.5557 H   0  0  0  0  0  0
  -28.6733  -11.9968   21.3626 H   0  0  0  0  0  0
  -28.4363  -13.6523   21.8358 H   0  0  0  0  0  0
  -25.2819   -9.5743   22.4720 H   0  0  0  0  0  0
  -24.0070   -7.4679   22.7460 H   0  0  0  0  0  0
  -21.0862   -8.8837   19.8943 H   0  0  0  0  0  0
  -22.3748  -10.9720   19.6141 H   0  0  0  0  0  0
  -21.2019   -7.6143   23.9701 H   0  0  0  0  0  0
  -21.1469   -6.0499   25.9061 H   0  0  0  0  0  0
  -22.0601   -2.7604   23.2815 H   0  0  0  0  0  0
  -22.4200  -11.9962   22.4774 H   0  0  0  0  0  0
  -21.1151  -13.1255   22.2563 H   0  0  0  0  0  0
  -24.6840  -15.8584   20.5429 H   0  0  0  0  0  0
  -26.3085  -15.6290   20.1370 H   0  0  0  0  0  0
  -26.7129  -32.5501   23.1099 H   0  0  0  0  0  0
  -25.0166  -33.9759   25.0489 H   0  0  0  0  0  0
  -22.6920  -31.3088   21.4024 H   0  0  0  0  0  0
  -23.3749  -35.9647   23.3297 H   0  0  0  0  0  0
  -24.3593  -36.8919   22.2045 H   0  0  0  0  0  0
  -23.7244  -37.6515   23.6652 H   0  0  0  0  0  0
  -26.0476  -31.5848   20.5852 H   0  0  0  0  0  0
  -26.8212  -30.8757   21.9783 H   0  0  0  0  0  0
  -28.0953  -29.0881   21.1511 H   0  0  0  0  0  0
  -25.9820  -25.9305   19.0754 H   0  0  0  0  0  0
  -23.9589  -27.2683   19.0755 H   0  0  0  0  0  0
  -23.7075  -30.5816   19.3947 H   0  0  0  0  0  0
  -22.7321  -29.2268   19.8792 H   0  0  0  0  0  0
  -25.1297  -36.1943   25.0810 H   0  0  0  0  0  0
  -20.9993  -28.3245   24.1410 H   0  0  0  0  0  0
  -20.5725  -26.2286   23.3585 H   0  0  0  0  0  0
  -21.6652  -26.7477   22.1164 H   0  0  0  0  0  0
  -19.6916  -25.6294   21.1242 H   0  0  0  0  0  0
  -19.6680  -27.3194   20.6745 H   0  0  0  0  0  0
  -17.4213  -26.6698   21.4025 H   0  0  0  0  0  0
  -18.0329  -26.0039   22.8998 H   0  0  0  0  0  0
  -19.7938  -30.7256   24.2294 H   0  0  0  0  0  0
  -17.5022  -31.6276   24.5154 H   0  0  0  0  0  0
  -15.5362  -30.2995   23.7633 H   0  0  0  0  0  0
  -15.8674  -28.0790   22.7118 H   0  0  0  0  0  0
  -24.5883  -30.7148   25.7782 H   0  0  0  0  0  0
  -24.8982  -32.2941   26.4897 H   0  0  0  0  0  0
  -25.8076  -30.8908   27.0190 H   0  0  0  0  0  0
  -26.2857  -29.6801   24.1189 H   0  0  0  0  0  0
  -27.4090  -29.7316   25.4588 H   0  0  0  0  0  0
  -27.8703  -30.4346   23.9256 H   0  0  0  0  0  0
  -27.2646  -33.3649   26.2055 H   0  0  0  0  0  0
  -28.3866  -32.6946   25.0317 H   0  0  0  0  0  0
  -28.0718  -31.8483   26.5382 H   0  0  0  0  0  0
  -28.2607  -38.0106   24.7513 H   0  0  0  0  0  0
  -28.1085  -36.2632   24.6286 H   0  0  0  0  0  0
  -27.2305  -37.1441   25.8865 H   0  0  0  0  0  0
  -20.9306  -29.8735   21.6893 H   0  0  0  0  0  0
  -26.0190  -38.2863   24.1381 H   0  0  0  0  0  0
  -28.5906  -16.8902   23.7569 H   0  0  0  0  0  0
  -27.8009  -16.2862   22.3187 H   0  0  0  0  0  0
  -29.8111  -14.8916   22.9849 H   0  0  0  0  0  0
  -30.8356  -16.2807   22.7969 H   0  0  0  0  0  0
  -31.2788  -17.2285   20.5479 H   0  0  0  0  0  0
  -30.3501  -16.6303   19.1945 H   0  0  0  0  0  0
  -28.2949  -17.6303   20.0135 H   0  0  0  0  0  0
  -29.7775  -18.6162   22.4870 H   0  0  0  0  0  0
  -29.4715  -18.5182   17.7921 H   0  0  0  0  0  0
  -31.1369  -18.6756   18.3505 H   0  0  0  0  0  0
  -30.2572  -20.0889   17.8393 H   0  0  0  0  0  0
  -29.3840  -24.1586   20.8554 H   0  0  0  0  0  0
  -27.6441  -24.2717   20.9168 H   0  0  0  0  0  0
  -28.8181  -23.0541   18.4150 H   0  0  0  0  0  0
  -27.2875  -22.7421   19.1809 H   0  0  0  0  0  0
  -27.9081  -25.4238   18.4929 H   0  0  0  0  0  0
  -29.5630  -25.5194   18.9149 H   0  0  0  0  0  0
  -30.4779  -19.7327   20.4018 H   0  0  0  0  0  0
  -29.9186  -21.8313   20.3234 H   0  0  0  0  0  0
  1 25  1  0  0  0
  1 30  2  0  0  0
  1 82  1  0  0  0
  2  3  1  0  0  0
  2 25  1  0  0  0
  2 86  1  0  0  0
  2 87  1  0  0  0
  3  4  1  0  0  0
  3 88  1  0  0  0
  3 89  1  0  0  0
  4  5  1  0  0  0
  4 90  1  0  0  0
  4 91  1  0  0  0
  5  6  1  0  0  0
  5 26  1  0  0  0
  5 92  1  0  0  0
  6 25  1  0  0  0
  6 93  1  0  0  0
  6 94  1  0  0  0
  7  8  2  0  0  0
  7 26  1  0  0  0
  7 29  1  0  0  0
  8  9  1  0  0  0
  8 22  1  0  0  0
  9 10  1  0  0  0
  9 27  2  0  0  0
 10 11  2  0  0  0
 10 15  1  0  0  0
 11 12  1  0  0  0
 11 95  1  0  0  0
 12 13  2  0  0  0
 12 96  1  0  0  0
 13 14  1  0  0  0
 13 31  1  0  0  0
 14 15  2  0  0  0
 14 97  1  0  0  0
 15 98  1  0  0  0
 16 17  2  0  0  0
 16 21  1  0  0  0
 16 31  1  0  0  0
 17 18  1  0  0  0
 17 99  1  0  0  0
 18 19  2  0  0  0
 18100  1  0  0  0
 19 20  1  0  0  0
 19 24  1  0  0  0
 20 21  2  0  0  0
 20101  1  0  0  0
 21 23  1  0  0  0
 22 28  1  0  0  0
 22 32  2  0  0  0
 26 27  1  0  0  0
 28102  1  0  0  0
 28103  1  0  0  0
 29104  1  0  0  0
 29105  1  0  0  0
 33 34  1  0  0  0
 33 66  1  0  0  0
 33 70  2  0  0  0
 34 36  1  0  0  0
 34 59  1  0  0  0
 34106  1  0  0  0
 35 44  2  0  0  0
 35 45  1  0  0  0
 35 68  1  0  0  0
 36 56  1  0  0  0
 36107  1  0  0  0
 37 39  1  0  0  0
 37 47  1  0  0  0
 37 66  1  0  0  0
 37108  1  0  0  0
 38 43  2  0  0  0
 38 46  1  0  0  0
 38 47  1  0  0  0
 39 64  1  0  0  0
 39 67  2  0  0  0
 40 52  1  0  0  0
 40 53  2  0  0  0
 40 58  1  0  0  0
 41109  1  0  0  0
 41110  1  0  0  0
 41111  1  0  0  0
 41 48  1  0  0  0
 42 43  1  0  0  0
 42 66  1  0  0  0
 42112  1  0  0  0
 42113  1  0  0  0
 43 44  1  0  0  0
 44114  1  0  0  0
 45 46  2  0  0  0
 45115  1  0  0  0
 46116  1  0  0  0
 47117  1  0  0  0
 47118  1  0  0  0
 48 56  1  0  0  0
 48 65  1  0  0  0
 48119  1  0  0  0
 49 50  1  0  0  0
 49 53  1  0  0  0
 49 64  1  0  0  0
 49120  1  0  0  0
 50 51  1  0  0  0
 50121  1  0  0  0
 50122  1  0  0  0
 51 52  1  0  0  0
 51123  1  0  0  0
 51124  1  0  0  0
 52125  1  0  0  0
 52126  1  0  0  0
 53 54  1  0  0  0
 54 55  2  0  0  0
 54127  1  0  0  0
 55 57  1  0  0  0
 55128  1  0  0  0
 56 69  2  0  0  0
 57 58  2  0  0  0
 57129  1  0  0  0
 58130  1  0  0  0
 59 60  1  0  0  0
 59 61  1  0  0  0
 59 62  1  0  0  0
 60131  1  0  0  0
 60132  1  0  0  0
 60133  1  0  0  0
 61134  1  0  0  0
 61135  1  0  0  0
 61136  1  0  0  0
 62137  1  0  0  0
 62138  1  0  0  0
 62139  1  0  0  0
 63 65  1  0  0  0
 63140  1  0  0  0
 63141  1  0  0  0
 63142  1  0  0  0
 64143  1  0  0  0
 65144  1  0  0  0
 68 80  1  0  0  0
 71 81  1  0  0  0
 71 83  1  0  0  0
 71 84  2  0  0  0
 72 73  1  0  0  0
 72 76  1  0  0  0
 72145  1  0  0  0
 72146  1  0  0  0
 73 82  1  0  0  0
 73147  1  0  0  0
 73148  1  0  0  0
 74 82  1  0  0  0
 74149  1  0  0  0
 74150  1  0  0  0
 74 75  1  0  0  0
 75 76  1  0  0  0
 75 81  1  0  0  0
 75151  1  0  0  0
 76 85  1  0  0  0
 76152  1  0  0  0
 77153  1  0  0  0
 77154  1  0  0  0
 77155  1  0  0  0
 77 81  1  0  0  0
 78 79  1  0  0  0
 78 80  1  0  0  0
 78156  1  0  0  0
 78157  1  0  0  0
 79 83  1  0  0  0
 79158  1  0  0  0
 79159  1  0  0  0
 80160  1  0  0  0
 80161  1  0  0  0
 81162  1  0  0  0
 83163  1  0  0  0
M  ISO  4   1 100  68 101  80 101  82 100
M  END
> <chiral flag>
0

> <version>
0

> <s_m_source_file>
/data/baiqing/PycharmProjects/Reinvent-master-3.2/result/LINK_invent/BTK/process_docking_weight1_custom_sum_contain_oxygen_bond_distance_aromatic_linkinvent_7_9_3/rearranged_h_0027.sdf

> <i_m_source_file_index>
94

> <r_mmod_Potential_Energy-OPLS-2005>
97.2057876586914

> <r_mmod_Stretch_Energy-OPLS-2005>
44.6713371276855

> <r_mmod_Bend_Energy-OPLS-2005>
118.31770324707

> <r_mmod_Torsional_Energy-OPLS-2005>
319.806518554688

> <r_mmod_Improper_Torsional_Energy-OPLS-2005>
13.1455411911011

> <r_mmod_Van_der_Waal_Energy-OPLS-2005>
142.9814453125

> <r_mmod_Electrostatic_Energy-OPLS-2005>
-338.202789306641

> <r_mmod_Solvation_Energy-OPLS-2005>
-218.795104980469

> <b_mmod_Minimization_Converged-OPLS-2005>
0

> <r_mmod_RMS_Derivative-OPLS-2005>
3.16780161857605

$$$$
94
                    3D
 Structure written by MMmdl.
177185  0  0  1  0            999 V2000
  -30.7714  -14.3542   20.6706 C   0  0  0  0  0  0
  -30.4167  -12.2694   19.3846 C   0  0  0  0  0  0
  -29.4819  -12.5180   18.1874 C   0  0  0  0  0  0
  -28.0067  -12.3812   18.6063 C   0  0  0  0  0  0
  -27.6726  -13.2013   19.8757 C   0  0  2  0  0  0
  -28.7162  -12.9342   20.9848 C   0  0  0  0  0  0
  -25.2615  -13.8177   20.5593 C   0  0  0  0  0  0
  -24.1865  -13.0450   20.9135 C   0  0  0  0  0  0
  -24.6460  -11.6929   20.8795 C   0  0  0  0  0  0
  -23.9145  -10.4303   21.0479 C   0  0  0  0  0  0
  -24.3652   -9.4183   21.9250 C   0  0  0  0  0  0
  -23.6338   -8.2199   22.0741 C   0  0  0  0  0  0
  -22.4338   -8.0252   21.3505 C   0  0  0  0  0  0
  -21.9994   -9.0264   20.4647 C   0  0  0  0  0  0
  -22.7309  -10.2161   20.3125 C   0  0  0  0  0  0
  -21.6851   -6.0793   22.5295 C   0  0  0  0  0  0
  -21.4027   -6.5696   23.8231 C   0  0  0  0  0  0
  -21.3639   -5.6824   24.9173 C   0  0  0  0  0  0
  -21.6028   -4.3094   24.7248 C   0  0  0  0  0  0
  -21.8812   -3.8209   23.4367 C   0  0  0  0  0  0
  -21.9167   -4.7025   22.3425 C   0  0  0  0  0  0
  -22.7834  -13.5252   21.1682 C   0  0  0  0  0  0
  -22.1690   -4.2209   21.1008 F   0  0  0  0  0  0
  -21.5562   -3.4571   25.7760 F   0  0  0  0  0  0
  -30.0685  -13.2103   20.4570 N   0  0  0  0  0  0
  -26.3088  -12.9342   20.3383 N   0  0  0  0  0  0
  -25.9384  -11.6512   20.5838 N   0  0  0  0  0  0
  -22.0270  -12.8204   22.0058 N   0  0  0  0  0  0
  -25.4292  -15.1889   20.3916 N   0  0  0  0  0  0
  -31.7526  -14.6954   20.0061 O   0  0  0  0  0  0
  -21.6630   -6.8902   21.4239 O   0  0  0  0  0  0
  -22.3597  -14.5596   20.6541 O   0  0  0  0  0  0
  -24.7262  -31.9681   23.1848 C   0  0  0  0  0  0
  -25.9970  -32.5175   23.8551 C   0  0  1  0  0  0
  -26.4464  -27.1342   20.6658 C   0  0  0  0  0  0
  -25.6737  -33.8884   24.2636 N   0  0  0  0  0  0
  -23.5672  -30.7662   21.4115 C   0  0  2  0  0  0
  -24.8864  -29.1521   19.9320 C   0  0  0  0  0  0
  -22.9153  -29.8490   22.3956 C   0  0  0  0  0  0
  -18.2459  -27.6960   23.3600 C   0  0  0  0  0  0
  -24.1538  -36.7333   23.2576 C   0  0  0  0  0  0
  -26.0633  -30.8494   21.3628 C   0  0  0  0  0  0
  -26.0009  -29.4747   20.7168 C   0  0  0  0  0  0
  -26.9050  -28.4370   21.0170 C   0  0  0  0  0  0
  -25.8472  -26.9889   19.4220 C   0  0  0  0  0  0
  -24.8573  -27.9519   19.1895 C   0  0  0  0  0  0
  -23.7177  -30.0900   20.0135 C   0  0  0  0  0  0
  -25.4158  -36.3213   24.0323 C   0  0  1  0  0  0
  -21.0128  -28.8153   22.6180 C   0  0  2  0  0  0
  -21.3311  -27.4862   20.9521 C   0  0  0  0  0  0
  -19.8804  -25.9573   20.9049 C   0  0  0  0  0  0
  -18.3943  -26.1646   22.2771 C   0  0  0  0  0  0
  -19.4136  -28.8087   23.5329 C   0  0  0  0  0  0
  -19.0323  -30.1024   23.9668 C   0  0  0  0  0  0
  -17.6922  -30.5114   24.0773 C   0  0  0  0  0  0
  -25.9236  -34.9647   23.5128 C   0  0  0  0  0  0
  -16.6554  -29.6230   23.7577 C   0  0  0  0  0  0
  -16.9271  -28.2722   23.4187 C   0  0  0  0  0  0
  -26.4747  -31.6620   25.0871 C   0  0  0  0  0  0
  -25.3712  -31.3796   26.1344 C   0  0  0  0  0  0
  -27.0399  -30.2990   24.6226 C   0  0  0  0  0  0
  -27.6301  -32.4068   25.7931 C   0  0  0  0  0  0
  -27.5601  -37.1929   24.8464 C   0  0  0  0  0  0
  -21.6105  -29.9764   22.3377 N   0  0  0  0  0  0
  -26.4303  -37.3924   23.9430 N   0  0  0  0  0  0
  -24.8094  -31.2303   22.0341 N   0  0  0  0  0  0
  -23.5571  -29.1291   23.1863 O   0  0  0  0  0  0
  -25.6400  -26.4392   21.6252 O   0  0  0  0  0  0
  -26.5474  -34.9064   22.4500 O   0  0  0  0  0  0
  -23.6379  -32.2591   23.7137 O   0  0  0  0  0  0
  -20.7170  -24.7580   24.6816 C   0  0  0  0  0  0
  -21.7666  -24.0872   24.0831 C   0  0  0  0  0  0
  -20.7135  -26.5820   22.9767 C   0  0  0  0  0  0
  -22.3729  -26.1071   22.7770 C   0  0  0  0  0  0
  -20.3533  -26.0465   24.2961 C   0  0  0  0  0  0
  -22.6694  -24.8142   23.2955 C   0  0  0  0  0  0
  -19.2208  -28.1178   21.2836 C   0  0  0  0  0  0
  -21.9624  -22.6134   24.3970 C   0  0  0  0  0  0
  -23.9025  -26.5691   21.7637 C   0  0  0  0  0  0
  -26.7499  -18.2743   22.4043 C   0  0  0  0  0  0
  -25.8990  -19.4287   21.8780 C   0  0  0  0  0  0
  -28.1939  -18.2282   21.8921 C   0  0  0  0  0  0
  -24.4765  -19.2741   22.4291 C   0  0  0  0  0  0
  -28.7390  -16.8216   22.1289 C   0  0  0  0  0  0
  -23.6188  -20.5188   22.2315 C   0  0  0  0  0  0
  -30.1794  -16.5520   21.6896 C   0  0  0  0  0  0
  -22.3842  -20.5121   23.1476 C   0  0  0  0  0  0
  -30.2991  -15.0989   21.6736 N   0  0  0  0  0  0
  -21.7575  -21.8391   23.1603 N   0  3  0  0  0  0
  -19.5939  -26.8238   25.6631 Cl  0  0  0  0  0  0
  -24.1483  -24.0109   22.8745 Cl  0  0  0  0  0  0
  -31.4572  -12.3701   19.0774 H   0  0  0  0  0  0
  -30.3098  -11.2415   19.7387 H   0  0  0  0  0  0
  -29.7107  -11.8178   17.3841 H   0  0  0  0  0  0
  -29.6622  -13.5147   17.7815 H   0  0  0  0  0  0
  -27.8085  -11.3261   18.7922 H   0  0  0  0  0  0
  -27.3440  -12.6692   17.7890 H   0  0  0  0  0  0
  -27.7353  -14.2568   19.6072 H   0  0  0  0  0  0
  -28.6731  -11.8900   21.2963 H   0  0  0  0  0  0
  -28.4587  -13.5046   21.8758 H   0  0  0  0  0  0
  -25.2711   -9.5635   22.4956 H   0  0  0  0  0  0
  -23.9992   -7.4597   22.7500 H   0  0  0  0  0  0
  -21.0899   -8.8838   19.9021 H   0  0  0  0  0  0
  -22.3747  -10.9776   19.6350 H   0  0  0  0  0  0
  -21.2099   -7.6213   23.9782 H   0  0  0  0  0  0
  -21.1443   -6.0553   25.9073 H   0  0  0  0  0  0
  -22.0634   -2.7702   23.2862 H   0  0  0  0  0  0
  -22.3582  -11.9634   22.4294 H   0  0  0  0  0  0
  -21.0845  -13.1314   22.2026 H   0  0  0  0  0  0
  -24.6508  -15.8322   20.4627 H   0  0  0  0  0  0
  -26.2755  -15.6312   20.0563 H   0  0  0  0  0  0
  -26.8257  -32.5782   23.1511 H   0  0  0  0  0  0
  -25.1113  -33.9976   25.0948 H   0  0  0  0  0  0
  -22.9348  -31.6476   21.2606 H   0  0  0  0  0  0
  -23.3836  -35.9635   23.3262 H   0  0  0  0  0  0
  -24.3605  -36.8965   22.1980 H   0  0  0  0  0  0
  -23.7235  -37.6509   23.6585 H   0  0  0  0  0  0
  -26.2737  -31.5880   20.5876 H   0  0  0  0  0  0
  -26.9295  -30.8491   22.0147 H   0  0  0  0  0  0
  -27.5737  -28.5764   21.8551 H   0  0  0  0  0  0
  -25.6384  -26.0070   19.0196 H   0  0  0  0  0  0
  -24.0423  -27.7380   18.5104 H   0  0  0  0  0  0
  -23.8773  -30.8561   19.2552 H   0  0  0  0  0  0
  -22.8026  -29.5820   19.7234 H   0  0  0  0  0  0
  -25.1327  -36.2043   25.0816 H   0  0  0  0  0  0
  -21.4736  -28.5646   23.5913 H   0  0  0  0  0  0
  -22.2255  -27.2714   20.4190 H   0  0  0  0  0  0
  -21.1851  -28.1300   20.0775 H   0  0  0  0  0  0
  -20.3573  -24.9850   21.0450 H   0  0  0  0  0  0
  -19.4568  -25.8576   19.9061 H   0  0  0  0  0  0
  -17.4479  -26.0642   21.7386 H   0  0  0  0  0  0
  -18.3588  -25.2834   22.9197 H   0  0  0  0  0  0
  -19.7975  -30.8604   24.0743 H   0  0  0  0  0  0
  -17.4647  -31.5381   24.3361 H   0  0  0  0  0  0
  -15.6333  -29.9756   23.7861 H   0  0  0  0  0  0
  -16.0898  -27.6500   23.1388 H   0  0  0  0  0  0
  -24.5871  -30.7335   25.7392 H   0  0  0  0  0  0
  -24.9007  -32.2992   26.4823 H   0  0  0  0  0  0
  -25.7794  -30.8749   27.0106 H   0  0  0  0  0  0
  -26.2946  -29.6996   24.0999 H   0  0  0  0  0  0
  -27.3749  -29.7032   25.4724 H   0  0  0  0  0  0
  -27.9030  -30.4169   23.9675 H   0  0  0  0  0  0
  -27.2983  -33.3379   26.2511 H   0  0  0  0  0  0
  -28.4287  -32.6565   25.0944 H   0  0  0  0  0  0
  -28.0673  -31.8034   26.5900 H   0  0  0  0  0  0
  -28.2612  -38.0239   24.7543 H   0  0  0  0  0  0
  -28.1122  -36.2778   24.6281 H   0  0  0  0  0  0
  -27.2294  -37.1532   25.8854 H   0  0  0  0  0  0
  -21.1631  -30.6502   21.7313 H   0  0  0  0  0  0
  -26.0175  -38.2989   24.1484 H   0  0  0  0  0  0
  -20.2271  -24.3122   25.5372 H   0  0  0  0  0  0
  -19.3338  -29.2052   21.1944 H   0  0  0  0  0  0
  -18.1280  -28.1141   21.1529 H   0  0  0  0  0  0
  -19.2192  -27.9830   20.1892 H   0  0  0  0  0  0
  -21.2423  -22.2676   25.1411 H   0  0  0  0  0  0
  -22.9492  -22.4538   24.8331 H   0  0  0  0  0  0
  -23.8146  -27.6005   21.5341 H   0  0  0  0  0  0
  -23.6880  -26.0018   20.8576 H   0  0  0  0  0  0
  -26.2340  -17.3528   22.1337 H   0  0  0  0  0  0
  -26.7717  -18.2953   23.4958 H   0  0  0  0  0  0
  -25.8729  -19.4238   20.7864 H   0  0  0  0  0  0
  -26.3411  -20.3801   22.1764 H   0  0  0  0  0  0
  -28.8100  -18.9749   22.3989 H   0  0  0  0  0  0
  -28.2297  -18.4598   20.8272 H   0  0  0  0  0  0
  -24.5503  -19.0645   23.4958 H   0  0  0  0  0  0
  -23.9849  -18.4063   21.9883 H   0  0  0  0  0  0
  -28.0803  -16.1363   21.5924 H   0  0  0  0  0  0
  -28.6407  -16.5708   23.1874 H   0  0  0  0  0  0
  -23.3173  -20.5988   21.1850 H   0  0  0  0  0  0
  -24.2368  -21.3858   22.4503 H   0  0  0  0  0  0
  -30.8862  -16.9943   22.3943 H   0  0  0  0  0  0
  -30.3707  -16.9854   20.7066 H   0  0  0  0  0  0
  -22.6377  -20.2097   24.1672 H   0  0  0  0  0  0
  -21.6542  -19.7917   22.7784 H   0  0  0  0  0  0
  -29.6256  -14.6223   22.2506 H   0  0  0  0  0  0
  -22.1655  -22.3689   22.4069 H   0  0  0  0  0  0
  -20.7697  -21.7418   22.9780 H   0  0  0  0  0  0
  1 25  1  0  0  0
  1 30  2  0  0  0
  1 88  1  0  0  0
  2  3  1  0  0  0
  2 25  1  0  0  0
  2 92  1  0  0  0
  2 93  1  0  0  0
  3  4  1  0  0  0
  3 94  1  0  0  0
  3 95  1  0  0  0
  4  5  1  0  0  0
  4 96  1  0  0  0
  4 97  1  0  0  0
  5  6  1  0  0  0
  5 26  1  0  0  0
  5 98  1  0  0  0
  6 25  1  0  0  0
  6 99  1  0  0  0
  6100  1  0  0  0
  7  8  2  0  0  0
  7 26  1  0  0  0
  7 29  1  0  0  0
  8  9  1  0  0  0
  8 22  1  0  0  0
  9 10  1  0  0  0
  9 27  2  0  0  0
 10 11  2  0  0  0
 10 15  1  0  0  0
 11 12  1  0  0  0
 11101  1  0  0  0
 12 13  2  0  0  0
 12102  1  0  0  0
 13 14  1  0  0  0
 13 31  1  0  0  0
 14 15  2  0  0  0
 14103  1  0  0  0
 15104  1  0  0  0
 16 17  2  0  0  0
 16 21  1  0  0  0
 16 31  1  0  0  0
 17 18  1  0  0  0
 17105  1  0  0  0
 18 19  2  0  0  0
 18106  1  0  0  0
 19 20  1  0  0  0
 19 24  1  0  0  0
 20 21  2  0  0  0
 20107  1  0  0  0
 21 23  1  0  0  0
 22 28  1  0  0  0
 22 32  2  0  0  0
 26 27  1  0  0  0
 28108  1  0  0  0
 28109  1  0  0  0
 29110  1  0  0  0
 29111  1  0  0  0
 33 34  1  0  0  0
 33 66  1  0  0  0
 33 70  2  0  0  0
 34 36  1  0  0  0
 34 59  1  0  0  0
 34112  1  0  0  0
 35 44  2  0  0  0
 35 45  1  0  0  0
 35 68  1  0  0  0
 36 56  1  0  0  0
 36113  1  0  0  0
 37 39  1  0  0  0
 37 47  1  0  0  0
 37 66  1  0  0  0
 37114  1  0  0  0
 38 43  2  0  0  0
 38 46  1  0  0  0
 38 47  1  0  0  0
 39 64  1  0  0  0
 39 67  2  0  0  0
 40 52  1  0  0  0
 40 53  2  0  0  0
 40 58  1  0  0  0
 41115  1  0  0  0
 41116  1  0  0  0
 41117  1  0  0  0
 41 48  1  0  0  0
 42 43  1  0  0  0
 42 66  1  0  0  0
 42118  1  0  0  0
 42119  1  0  0  0
 43 44  1  0  0  0
 44120  1  0  0  0
 45 46  2  0  0  0
 45121  1  0  0  0
 46122  1  0  0  0
 47123  1  0  0  0
 47124  1  0  0  0
 48 56  1  0  0  0
 48 65  1  0  0  0
 48125  1  0  0  0
 49 50  1  0  0  0
 49 53  1  0  0  0
 49 64  1  0  0  0
 49126  1  0  0  0
 50 51  1  0  0  0
 50127  1  0  0  0
 50128  1  0  0  0
 51 52  1  0  0  0
 51129  1  0  0  0
 51130  1  0  0  0
 52131  1  0  0  0
 52132  1  0  0  0
 53 54  1  0  0  0
 54 55  2  0  0  0
 54133  1  0  0  0
 55 57  1  0  0  0
 55134  1  0  0  0
 56 69  2  0  0  0
 57 58  2  0  0  0
 57135  1  0  0  0
 58136  1  0  0  0
 59 60  1  0  0  0
 59 61  1  0  0  0
 59 62  1  0  0  0
 60137  1  0  0  0
 60138  1  0  0  0
 60139  1  0  0  0
 61140  1  0  0  0
 61141  1  0  0  0
 61142  1  0  0  0
 62143  1  0  0  0
 62144  1  0  0  0
 62145  1  0  0  0
 63 65  1  0  0  0
 63146  1  0  0  0
 63147  1  0  0  0
 63148  1  0  0  0
 64149  1  0  0  0
 65150  1  0  0  0
 68 79  1  0  0  0
 71 72  2  0  0  0
 71 75  1  0  0  0
 71151  1  0  0  0
 72 76  1  0  0  0
 72 78  1  0  0  0
 73 74  1  0  0  0
 73 75  2  0  0  0
 73 77  1  0  0  0
 74 76  2  0  0  0
 74 79  1  0  0  0
 75 90  1  0  0  0
 76 91  1  0  0  0
 77152  1  0  0  0
 77153  1  0  0  0
 77154  1  0  0  0
 78 89  1  0  0  0
 78155  1  0  0  0
 78156  1  0  0  0
 79157  1  0  0  0
 79158  1  0  0  0
 80 81  1  0  0  0
 80 82  1  0  0  0
 80159  1  0  0  0
 80160  1  0  0  0
 81 83  1  0  0  0
 81161  1  0  0  0
 81162  1  0  0  0
 82 84  1  0  0  0
 82163  1  0  0  0
 82164  1  0  0  0
 83 85  1  0  0  0
 83165  1  0  0  0
 83166  1  0  0  0
 84 86  1  0  0  0
 84167  1  0  0  0
 84168  1  0  0  0
 85 87  1  0  0  0
 85169  1  0  0  0
 85170  1  0  0  0
 86 88  1  0  0  0
 86171  1  0  0  0
 86172  1  0  0  0
 87 89  1  0  0  0
 87173  1  0  0  0
 87174  1  0  0  0
 88175  1  0  0  0
 89176  1  0  0  0
 89177  1  0  0  0
M  CHG  1  89   1
M  ISO  4   1 100  68 101  79 101  88 100
M  END
> <chiral flag>
0

> <version>
0

> <s_m_source_file>
/data/baiqing/PycharmProjects/Reinvent-master-3.2/result/LINK_invent/BTK/process_docking_weight1_custom_sum_contain_oxygen_bond_distance_aromatic_linkinvent_7_9_3/rearranged_h_0027.sdf

> <i_m_source_file_index>
95

> <r_mmod_Potential_Energy-OPLS-2005>
8710.443359375

> <r_mmod_Stretch_Energy-OPLS-2005>
4142.693359375

> <r_mmod_Bend_Energy-OPLS-2005>
618.935913085938

> <r_mmod_Torsional_Energy-OPLS-2005>
615.377685546875

> <r_mmod_Improper_Torsional_Energy-OPLS-2005>
48.3716049194336

> <r_mmod_Van_der_Waal_Energy-OPLS-2005>
2096.099609375

> <r_mmod_Electrostatic_Energy-OPLS-2005>
-299.808990478516

> <r_mmod_Solvation_Energy-OPLS-2005>
-468.202484130859

> <b_mmod_Minimization_Converged-OPLS-2005>
0

> <r_mmod_RMS_Derivative-OPLS-2005>
8.00614547729492

$$$$
