0
                    3D
 Structure written by MMmdl.
173181  0  0  1  0            999 V2000
  -30.8196  -14.5447   20.2894 C   0  0  0  0  0  0
  -30.4026  -12.3148   19.4184 C   0  0  0  0  0  0
  -29.4714  -12.3331   18.1964 C   0  0  0  0  0  0
  -27.9855  -12.2843   18.6244 C   0  0  0  0  0  0
  -27.6141  -13.1873   19.8407 C   0  0  2  0  0  0
  -28.7176  -13.2138   20.9256 C   0  0  0  0  0  0
  -25.2521  -13.8091   20.5918 C   0  0  0  0  0  0
  -24.1734  -13.0389   20.9316 C   0  0  0  0  0  0
  -24.6289  -11.6866   20.8867 C   0  0  0  0  0  0
  -23.9003  -10.4256   21.0449 C   0  0  0  0  0  0
  -24.3614   -9.4192   21.9205 C   0  0  0  0  0  0
  -23.6313   -8.2221   22.0753 C   0  0  0  0  0  0
  -22.4291   -8.0281   21.3540 C   0  0  0  0  0  0
  -21.9897   -9.0236   20.4640 C   0  0  0  0  0  0
  -22.7210  -10.2115   20.3067 C   0  0  0  0  0  0
  -21.6864   -6.0753   22.5271 C   0  0  0  0  0  0
  -21.3987   -6.5639   23.8200 C   0  0  0  0  0  0
  -21.3654   -5.6786   24.9159 C   0  0  0  0  0  0
  -21.6047   -4.3050   24.7203 C   0  0  0  0  0  0
  -21.8824   -3.8155   23.4320 C   0  0  0  0  0  0
  -21.9202   -4.6982   22.3387 C   0  0  0  0  0  0
  -22.7782  -13.5259   21.1850 C   0  0  0  0  0  0
  -22.1699   -4.2181   21.0969 F   0  0  0  0  0  0
  -21.5631   -3.4525   25.7705 F   0  0  0  0  0  0
  -30.0047  -13.4524   20.2471 N   0  0  0  0  0  0
  -26.2862  -12.9143   20.3579 N   0  0  0  0  0  0
  -25.9224  -11.6361   20.6032 N   0  0  0  0  0  0
  -22.0400  -12.8251   22.0390 N   0  0  0  0  0  0
  -25.4215  -15.1822   20.4345 N   0  0  0  0  0  0
  -32.0147  -14.3956   20.5033 O   0  0  0  0  0  0
  -21.6656   -6.8883   21.4234 O   0  0  0  0  0  0
  -22.3531  -14.5584   20.6701 O   0  0  0  0  0  0
  -24.6124  -31.8683   23.2090 C   0  0  0  0  0  0
  -25.9039  -32.4811   23.8377 C   0  0  1  0  0  0
  -27.2641  -27.4721   20.0596 C   0  0  0  0  0  0
  -25.5897  -33.8604   24.2313 N   0  0  0  0  0  0
  -23.4028  -30.4902   21.5436 C   0  0  2  0  0  0
  -24.8559  -28.9539   20.1152 C   0  0  0  0  0  0
  -22.7404  -29.4676   22.4944 C   0  0  0  0  0  0
  -18.0278  -28.1373   22.8497 C   0  0  0  0  0  0
  -24.1491  -36.7313   23.2638 C   0  0  0  0  0  0
  -25.9298  -30.8369   21.3656 C   0  0  0  0  0  0
  -26.0093  -29.4703   20.7180 C   0  0  0  0  0  0
  -27.2099  -28.7279   20.7045 C   0  0  0  0  0  0
  -26.0861  -26.9556   19.4757 C   0  0  0  0  0  0
  -24.8853  -27.6892   19.5028 C   0  0  0  0  0  0
  -23.6147  -29.8151   20.1604 C   0  0  0  0  0  0
  -25.4114  -36.3093   24.0333 C   0  0  1  0  0  0
  -20.5869  -28.3672   23.1291 C   0  0  2  0  0  0
  -20.6756  -26.9399   22.5402 C   0  0  0  0  0  0
  -19.5729  -26.6383   21.5196 C   0  0  0  0  0  0
  -18.1919  -26.7917   22.1634 C   0  0  0  0  0  0
  -19.1529  -28.8834   23.2899 C   0  0  0  0  0  0
  -18.9461  -30.1440   23.8906 C   0  0  0  0  0  0
  -17.6466  -30.6580   24.0569 C   0  0  0  0  0  0
  -25.9038  -34.9460   23.5119 C   0  0  0  0  0  0
  -16.5355  -29.9092   23.6316 C   0  0  0  0  0  0
  -16.7275  -28.6509   23.0339 C   0  0  0  0  0  0
  -26.4468  -31.6579   25.0699 C   0  0  0  0  0  0
  -25.3740  -31.3717   26.1453 C   0  0  0  0  0  0
  -27.0296  -30.3004   24.6103 C   0  0  0  0  0  0
  -27.6045  -32.4284   25.7472 C   0  0  0  0  0  0
  -27.5579  -37.1809   24.8468 C   0  0  0  0  0  0
  -21.4126  -29.3056   22.3691 N   0  0  0  0  0  0
  -26.4300  -37.3781   23.9403 N   0  0  0  0  0  0
  -24.6652  -31.0810   22.0977 N   0  0  0  0  0  0
  -23.4183  -28.8215   23.2983 O   0  0  0  0  0  0
  -28.4628  -26.7940   20.0114 O   0  0  0  0  0  0
  -26.5607  -34.8922   22.4683 O   0  0  0  0  0  0
  -23.5317  -32.1423   23.7484 O   0  0  0  0  0  0
  -32.5113  -20.9526   16.8178 C   0  0  0  0  0  0
  -32.9201  -18.9221   18.0533 C   0  0  0  0  0  0
  -33.2558  -19.7724   16.9860 C   0  0  0  0  0  0
  -31.4902  -21.2520   17.7406 C   0  0  0  0  0  0
  -31.8048  -19.2345   18.8627 C   0  0  0  0  0  0
  -34.3596  -19.3916   16.0180 C   0  0  0  0  0  0
  -29.9563  -16.0098   16.3717 C   0  0  0  0  0  0
  -30.6877  -22.5436   17.6365 C   0  0  0  0  0  0
  -31.1870  -18.2070   19.8192 C   0  0  0  0  0  0
  -29.2991  -16.7618   17.5453 C   0  0  0  0  0  0
  -31.5600  -23.8122   17.5154 C   0  0  0  0  0  0
  -30.7426  -25.1205   17.4421 C   0  0  0  0  0  0
  -30.2225  -25.6254   18.8091 C   0  0  0  0  0  0
  -31.5031  -16.7455   19.4056 C   0  0  0  0  0  0
  -29.2262  -15.9293   18.8556 C   0  0  0  0  0  0
  -28.7457  -26.0663   18.8118 C   0  0  0  0  0  0
  -31.1377  -20.4036   18.7342 N   0  0  0  0  0  0
  -30.4500  -15.7224   19.6726 N   0  0  0  0  0  0
  -31.4425  -12.3697   19.0866 H   0  0  0  0  0  0
  -30.3167  -11.3865   19.9829 H   0  0  0  0  0  0
  -29.6953  -11.4648   17.5766 H   0  0  0  0  0  0
  -29.6742  -13.1967   17.5646 H   0  0  0  0  0  0
  -27.7687  -11.2441   18.8662 H   0  0  0  0  0  0
  -27.3518  -12.5219   17.7704 H   0  0  0  0  0  0
  -27.4892  -14.1807   19.4553 H   0  0  0  0  0  0
  -28.7449  -12.2663   21.4701 H   0  0  0  0  0  0
  -28.5158  -13.9998   21.6538 H   0  0  0  0  0  0
  -25.2751   -9.5717   22.4788 H   0  0  0  0  0  0
  -24.0047   -7.4611   22.7463 H   0  0  0  0  0  0
  -21.0839   -8.8746   19.8944 H   0  0  0  0  0  0
  -22.3682  -10.9663   19.6184 H   0  0  0  0  0  0
  -21.1987   -7.6139   23.9701 H   0  0  0  0  0  0
  -21.1476   -6.0519   25.9056 H   0  0  0  0  0  0
  -22.0611   -2.7634   23.2795 H   0  0  0  0  0  0
  -22.4085  -11.9949   22.4780 H   0  0  0  0  0  0
  -21.0984  -13.1209   22.2584 H   0  0  0  0  0  0
  -24.6582  -15.8407   20.5539 H   0  0  0  0  0  0
  -26.2845  -15.6269   20.1506 H   0  0  0  0  0  0
  -26.7131  -32.5536   23.1159 H   0  0  0  0  0  0
  -25.0010  -33.9760   25.0431 H   0  0  0  0  0  0
  -22.6926  -31.3062   21.3961 H   0  0  0  0  0  0
  -23.3719  -35.9676   23.3320 H   0  0  0  0  0  0
  -24.3587  -36.8905   22.2048 H   0  0  0  0  0  0
  -23.7283  -37.6548   23.6637 H   0  0  0  0  0  0
  -26.0449  -31.6028   20.5967 H   0  0  0  0  0  0
  -26.8168  -30.8903   21.9860 H   0  0  0  0  0  0
  -28.1031  -29.1299   21.1611 H   0  0  0  0  0  0
  -26.0816  -25.9872   18.9998 H   0  0  0  0  0  0
  -23.9978  -27.2803   19.0413 H   0  0  0  0  0  0
  -23.7198  -30.5824   19.3922 H   0  0  0  0  0  0
  -22.7438  -29.2245   19.8692 H   0  0  0  0  0  0
  -25.1282  -36.1950   25.0826 H   0  0  0  0  0  0
  -20.9992  -28.3240   24.1399 H   0  0  0  0  0  0
  -20.5624  -26.2287   23.3602 H   0  0  0  0  0  0
  -21.6630  -26.7413   22.1210 H   0  0  0  0  0  0
  -19.6886  -25.6295   21.1216 H   0  0  0  0  0  0
  -19.6650  -27.3200   20.6726 H   0  0  0  0  0  0
  -17.4174  -26.6648   21.4054 H   0  0  0  0  0  0
  -18.0351  -26.0060   22.9039 H   0  0  0  0  0  0
  -19.7943  -30.7245   24.2279 H   0  0  0  0  0  0
  -17.5031  -31.6262   24.5170 H   0  0  0  0  0  0
  -15.5360  -30.3007   23.7621 H   0  0  0  0  0  0
  -15.8678  -28.0842   22.7031 H   0  0  0  0  0  0
  -24.5882  -30.7096   25.7793 H   0  0  0  0  0  0
  -24.8973  -32.2902   26.4891 H   0  0  0  0  0  0
  -25.8084  -30.8877   27.0210 H   0  0  0  0  0  0
  -26.2852  -29.6761   24.1147 H   0  0  0  0  0  0
  -27.4036  -29.7235   25.4576 H   0  0  0  0  0  0
  -27.8697  -30.4275   23.9268 H   0  0  0  0  0  0
  -27.2669  -33.3586   26.2046 H   0  0  0  0  0  0
  -28.3873  -32.6833   25.0318 H   0  0  0  0  0  0
  -28.0688  -31.8402   26.5397 H   0  0  0  0  0  0
  -28.2592  -38.0103   24.7489 H   0  0  0  0  0  0
  -28.1065  -36.2630   24.6302 H   0  0  0  0  0  0
  -27.2293  -37.1485   25.8870 H   0  0  0  0  0  0
  -20.9261  -29.8821   21.6956 H   0  0  0  0  0  0
  -26.0167  -38.2855   24.1380 H   0  0  0  0  0  0
  -32.7258  -21.6185   15.9926 H   0  0  0  0  0  0
  -33.4688  -18.0001   18.1812 H   0  0  0  0  0  0
  -34.7096  -20.2492   15.4454 H   0  0  0  0  0  0
  -34.0011  -18.6381   15.3148 H   0  0  0  0  0  0
  -35.2189  -18.9787   16.5463 H   0  0  0  0  0  0
  -30.1760  -16.6913   15.5490 H   0  0  0  0  0  0
  -30.8872  -15.5088   16.6439 H   0  0  0  0  0  0
  -29.2801  -15.2451   15.9922 H   0  0  0  0  0  0
  -30.0279  -22.6352   18.4998 H   0  0  0  0  0  0
  -30.0335  -22.4568   16.7678 H   0  0  0  0  0  0
  -30.1091  -18.3689   19.8636 H   0  0  0  0  0  0
  -31.5515  -18.3936   20.8280 H   0  0  0  0  0  0
  -29.7600  -17.7383   17.6670 H   0  0  0  0  0  0
  -28.2756  -17.0031   17.2512 H   0  0  0  0  0  0
  -32.1586  -23.7345   16.6073 H   0  0  0  0  0  0
  -32.2804  -23.8572   18.3354 H   0  0  0  0  0  0
  -29.9271  -25.0126   16.7245 H   0  0  0  0  0  0
  -31.3781  -25.8989   17.0148 H   0  0  0  0  0  0
  -30.8484  -26.4649   19.1168 H   0  0  0  0  0  0
  -30.3605  -24.8658   19.5793 H   0  0  0  0  0  0
  -32.4768  -16.5496   19.8586 H   0  0  0  0  0  0
  -31.7184  -16.6681   18.3431 H   0  0  0  0  0  0
  -28.4349  -16.3234   19.4979 H   0  0  0  0  0  0
  -28.9272  -14.9781   18.4567 H   0  0  0  0  0  0
  -28.1116  -25.1807   18.7357 H   0  0  0  0  0  0
  -28.5452  -26.6910   17.9397 H   0  0  0  0  0  0
  1 25  1  0  0  0
  1 30  2  0  0  0
  1 88  1  0  0  0
  2  3  1  0  0  0
  2 25  1  0  0  0
  2 89  1  0  0  0
  2 90  1  0  0  0
  3  4  1  0  0  0
  3 91  1  0  0  0
  3 92  1  0  0  0
  4  5  1  0  0  0
  4 93  1  0  0  0
  4 94  1  0  0  0
  5  6  1  0  0  0
  5 26  1  0  0  0
  5 95  1  0  0  0
  6 25  1  0  0  0
  6 96  1  0  0  0
  6 97  1  0  0  0
  7  8  2  0  0  0
  7 26  1  0  0  0
  7 29  1  0  0  0
  8  9  1  0  0  0
  8 22  1  0  0  0
  9 10  1  0  0  0
  9 27  2  0  0  0
 10 11  2  0  0  0
 10 15  1  0  0  0
 11 12  1  0  0  0
 11 98  1  0  0  0
 12 13  2  0  0  0
 12 99  1  0  0  0
 13 14  1  0  0  0
 13 31  1  0  0  0
 14 15  2  0  0  0
 14100  1  0  0  0
 15101  1  0  0  0
 16 17  2  0  0  0
 16 21  1  0  0  0
 16 31  1  0  0  0
 17 18  1  0  0  0
 17102  1  0  0  0
 18 19  2  0  0  0
 18103  1  0  0  0
 19 20  1  0  0  0
 19 24  1  0  0  0
 20 21  2  0  0  0
 20104  1  0  0  0
 21 23  1  0  0  0
 22 28  1  0  0  0
 22 32  2  0  0  0
 26 27  1  0  0  0
 28105  1  0  0  0
 28106  1  0  0  0
 29107  1  0  0  0
 29108  1  0  0  0
 33 34  1  0  0  0
 33 66  1  0  0  0
 33 70  2  0  0  0
 34 36  1  0  0  0
 34 59  1  0  0  0
 34109  1  0  0  0
 35 44  2  0  0  0
 35 45  1  0  0  0
 35 68  1  0  0  0
 36 56  1  0  0  0
 36110  1  0  0  0
 37 39  1  0  0  0
 37 47  1  0  0  0
 37 66  1  0  0  0
 37111  1  0  0  0
 38 43  2  0  0  0
 38 46  1  0  0  0
 38 47  1  0  0  0
 39 64  1  0  0  0
 39 67  2  0  0  0
 40 52  1  0  0  0
 40 53  2  0  0  0
 40 58  1  0  0  0
 41112  1  0  0  0
 41113  1  0  0  0
 41114  1  0  0  0
 41 48  1  0  0  0
 42 43  1  0  0  0
 42 66  1  0  0  0
 42115  1  0  0  0
 42116  1  0  0  0
 43 44  1  0  0  0
 44117  1  0  0  0
 45 46  2  0  0  0
 45118  1  0  0  0
 46119  1  0  0  0
 47120  1  0  0  0
 47121  1  0  0  0
 48 56  1  0  0  0
 48 65  1  0  0  0
 48122  1  0  0  0
 49 50  1  0  0  0
 49 53  1  0  0  0
 49 64  1  0  0  0
 49123  1  0  0  0
 50 51  1  0  0  0
 50124  1  0  0  0
 50125  1  0  0  0
 51 52  1  0  0  0
 51126  1  0  0  0
 51127  1  0  0  0
 52128  1  0  0  0
 52129  1  0  0  0
 53 54  1  0  0  0
 54 55  2  0  0  0
 54130  1  0  0  0
 55 57  1  0  0  0
 55131  1  0  0  0
 56 69  2  0  0  0
 57 58  2  0  0  0
 57132  1  0  0  0
 58133  1  0  0  0
 59 60  1  0  0  0
 59 61  1  0  0  0
 59 62  1  0  0  0
 60134  1  0  0  0
 60135  1  0  0  0
 60136  1  0  0  0
 61137  1  0  0  0
 61138  1  0  0  0
 61139  1  0  0  0
 62140  1  0  0  0
 62141  1  0  0  0
 62142  1  0  0  0
 63 65  1  0  0  0
 63143  1  0  0  0
 63144  1  0  0  0
 63145  1  0  0  0
 64146  1  0  0  0
 65147  1  0  0  0
 68 86  1  0  0  0
 71 73  2  0  0  0
 71 74  1  0  0  0
 71148  1  0  0  0
 72 73  1  0  0  0
 72 75  2  0  0  0
 72149  1  0  0  0
 73 76  1  0  0  0
 74 78  1  0  0  0
 74 87  2  0  0  0
 75 79  1  0  0  0
 75 87  1  0  0  0
 76150  1  0  0  0
 76151  1  0  0  0
 76152  1  0  0  0
 77 80  1  0  0  0
 77153  1  0  0  0
 77154  1  0  0  0
 77155  1  0  0  0
 78 81  1  0  0  0
 78156  1  0  0  0
 78157  1  0  0  0
 79 84  1  0  0  0
 79158  1  0  0  0
 79159  1  0  0  0
 80 85  1  0  0  0
 80160  1  0  0  0
 80161  1  0  0  0
 81 82  1  0  0  0
 81162  1  0  0  0
 81163  1  0  0  0
 82 83  1  0  0  0
 82164  1  0  0  0
 82165  1  0  0  0
 83 86  1  0  0  0
 83166  1  0  0  0
 83167  1  0  0  0
 84 88  1  0  0  0
 84168  1  0  0  0
 84169  1  0  0  0
 85 88  1  0  0  0
 85170  1  0  0  0
 85171  1  0  0  0
 86172  1  0  0  0
 86173  1  0  0  0
M  ISO  4   1 100  68 101  86 101  88 100
M  END
> <chiral flag>
0

> <version>
0

> <s_m_source_file>
/data/baiqing/PycharmProjects/Reinvent-master-3.2/result/LINK_invent/BTK/process_docking_weight1_custom_sum_contain_oxygen_bond_distance_aromatic_linkinvent_7_9_3/rearranged_h_0046.sdf

> <i_m_source_file_index>
1

> <r_mmod_Potential_Energy-OPLS-2005>
187.125839233398

> <r_mmod_Stretch_Energy-OPLS-2005>
44.1541213989258

> <r_mmod_Bend_Energy-OPLS-2005>
137.742065429688

> <r_mmod_Torsional_Energy-OPLS-2005>
348.558410644531

> <r_mmod_Improper_Torsional_Energy-OPLS-2005>
14.6594896316528

> <r_mmod_Van_der_Waal_Energy-OPLS-2005>
189.157958984375

> <r_mmod_Electrostatic_Energy-OPLS-2005>
-426.782409667969

> <r_mmod_Solvation_Energy-OPLS-2005>
-203.384841918945

> <b_mmod_Minimization_Converged-OPLS-2005>
0

> <r_mmod_RMS_Derivative-OPLS-2005>
4.92671680450439

$$$$
1
                    3D
 Structure written by MMmdl.
154162  0  0  1  0            999 V2000
  -30.6502  -14.6319   20.5199 C   0  0  0  0  0  0
  -30.4317  -12.4013   19.4486 C   0  0  0  0  0  0
  -29.5169  -12.5628   18.2187 C   0  0  0  0  0  0
  -28.0338  -12.4022   18.6086 C   0  0  0  0  0  0
  -27.6576  -13.2263   19.8714 C   0  0  2  0  0  0
  -28.7033  -13.0704   20.9995 C   0  0  0  0  0  0
  -25.2564  -13.8172   20.5625 C   0  0  0  0  0  0
  -24.1861  -13.0444   20.9154 C   0  0  0  0  0  0
  -24.6412  -11.6913   20.8716 C   0  0  0  0  0  0
  -23.9073  -10.4305   21.0377 C   0  0  0  0  0  0
  -24.3623   -9.4229   21.9153 C   0  0  0  0  0  0
  -23.6312   -8.2261   22.0749 C   0  0  0  0  0  0
  -22.4297   -8.0303   21.3543 C   0  0  0  0  0  0
  -21.9920   -9.0268   20.4638 C   0  0  0  0  0  0
  -22.7246  -10.2144   20.3037 C   0  0  0  0  0  0
  -21.6867   -6.0755   22.5279 C   0  0  0  0  0  0
  -21.4012   -6.5651   23.8220 C   0  0  0  0  0  0
  -21.3659   -5.6795   24.9165 C   0  0  0  0  0  0
  -21.6054   -4.3062   24.7213 C   0  0  0  0  0  0
  -21.8818   -3.8155   23.4329 C   0  0  0  0  0  0
  -21.9179   -4.6976   22.3397 C   0  0  0  0  0  0
  -22.7860  -13.5252   21.1821 C   0  0  0  0  0  0
  -22.1640   -4.2176   21.0955 F   0  0  0  0  0  0
  -21.5653   -3.4518   25.7704 F   0  0  0  0  0  0
  -30.0154  -13.4186   20.4374 N   0  0  0  0  0  0
  -26.3020  -12.9353   20.3311 N   0  0  0  0  0  0
  -25.9360  -11.6498   20.5740 N   0  0  0  0  0  0
  -22.0475  -12.8285   22.0380 N   0  0  0  0  0  0
  -25.4322  -15.1904   20.3975 N   0  0  0  0  0  0
  -31.8074  -14.7791   20.1274 O   0  0  0  0  0  0
  -21.6661   -6.8899   21.4247 O   0  0  0  0  0  0
  -22.3555  -14.5530   20.6650 O   0  0  0  0  0  0
  -24.6291  -31.8563   23.1999 C   0  0  0  0  0  0
  -25.9152  -32.4739   23.8309 C   0  0  1  0  0  0
  -27.2307  -27.3230   20.0978 C   0  0  0  0  0  0
  -25.5953  -33.8544   24.2233 N   0  0  0  0  0  0
  -23.4211  -30.4794   21.5446 C   0  0  2  0  0  0
  -24.8641  -28.9358   20.1036 C   0  0  0  0  0  0
  -22.7467  -29.4623   22.4948 C   0  0  0  0  0  0
  -18.0287  -28.1368   22.8492 C   0  0  0  0  0  0
  -24.1484  -36.7301   23.2648 C   0  0  0  0  0  0
  -25.9604  -30.7888   21.3644 C   0  0  0  0  0  0
  -26.0342  -29.4186   20.7031 C   0  0  0  0  0  0
  -27.2208  -28.6261   20.6860 C   0  0  0  0  0  0
  -26.0319  -26.8868   19.4899 C   0  0  0  0  0  0
  -24.8658  -27.6738   19.4870 C   0  0  0  0  0  0
  -23.6289  -29.8128   20.1585 C   0  0  0  0  0  0
  -25.4097  -36.3052   24.0321 C   0  0  1  0  0  0
  -20.5883  -28.3675   23.1285 C   0  0  2  0  0  0
  -20.6757  -26.9379   22.5425 C   0  0  0  0  0  0
  -19.5734  -26.6344   21.5227 C   0  0  0  0  0  0
  -18.1919  -26.7913   22.1627 C   0  0  0  0  0  0
  -19.1543  -28.8835   23.2883 C   0  0  0  0  0  0
  -18.9463  -30.1443   23.8891 C   0  0  0  0  0  0
  -17.6464  -30.6572   24.0550 C   0  0  0  0  0  0
  -25.9052  -34.9436   23.5066 C   0  0  0  0  0  0
  -16.5350  -29.9061   23.6324 C   0  0  0  0  0  0
  -16.7285  -28.6474   23.0352 C   0  0  0  0  0  0
  -26.4498  -31.6569   25.0708 C   0  0  0  0  0  0
  -25.3762  -31.3719   26.1463 C   0  0  0  0  0  0
  -27.0318  -30.2986   24.6154 C   0  0  0  0  0  0
  -27.6016  -32.4335   25.7514 C   0  0  0  0  0  0
  -27.5561  -37.1783   24.8440 C   0  0  0  0  0  0
  -21.4175  -29.3035   22.3685 N   0  0  0  0  0  0
  -26.4253  -37.3762   23.9427 N   0  0  0  0  0  0
  -24.6908  -31.0570   22.0944 N   0  0  0  0  0  0
  -23.4175  -28.8164   23.3045 O   0  0  0  0  0  0
  -28.3615  -26.4917   20.1302 O   0  0  0  0  0  0
  -26.5603  -34.8928   22.4627 O   0  0  0  0  0  0
  -23.5468  -32.1383   23.7317 O   0  0  0  0  0  0
  -30.0452  -21.6967   21.1271 C   0  0  0  0  0  0
  -29.2779  -22.5299   20.2580 C   0  0  0  0  0  0
  -28.4337  -20.5565   19.3094 C   0  0  0  0  0  0
  -29.2049  -19.7154   20.1844 C   0  0  0  0  0  0
  -27.4092  -19.9909   18.3437 C   0  0  0  0  0  0
  -29.4218  -24.0995   20.2729 C   0  0  0  0  0  0
  -29.0291  -18.1428   20.2565 C   0  0  0  0  0  0
  -30.2132  -17.1985   20.7812 C   0  0  0  0  0  0
  -28.1923  -25.0339   19.9126 C   0  0  0  0  0  0
  -30.0014  -20.3263   21.1048 N   0  0  0  0  0  0
  -28.4917  -21.9286   19.3276 N   0  0  0  0  0  0
  -29.8859  -15.7209   20.8526 N   0  0  0  0  0  0
  -31.4727  -12.5231   19.1537 H   0  0  0  0  0  0
  -30.3584  -11.3974   19.8634 H   0  0  0  0  0  0
  -29.7926  -11.8494   17.4407 H   0  0  0  0  0  0
  -29.6732  -13.5561   17.7905 H   0  0  0  0  0  0
  -27.8428  -11.3453   18.7833 H   0  0  0  0  0  0
  -27.4015  -12.7017   17.7704 H   0  0  0  0  0  0
  -27.6832  -14.2725   19.5709 H   0  0  0  0  0  0
  -28.7163  -12.0437   21.3693 H   0  0  0  0  0  0
  -28.4603  -13.6986   21.8574 H   0  0  0  0  0  0
  -25.2749   -9.5718   22.4733 H   0  0  0  0  0  0
  -24.0038   -7.4643   22.7452 H   0  0  0  0  0  0
  -21.0862   -8.8766   19.8923 H   0  0  0  0  0  0
  -22.3701  -10.9676   19.6156 H   0  0  0  0  0  0
  -21.2014   -7.6144   23.9732 H   0  0  0  0  0  0
  -21.1490   -6.0512   25.9083 H   0  0  0  0  0  0
  -22.0608   -2.7638   23.2807 H   0  0  0  0  0  0
  -22.4000  -11.9970   22.4839 H   0  0  0  0  0  0
  -21.1070  -13.1358   22.2445 H   0  0  0  0  0  0
  -24.6752  -15.8593   20.4855 H   0  0  0  0  0  0
  -26.2890  -15.6120   20.0613 H   0  0  0  0  0  0
  -26.7232  -32.5376   23.1065 H   0  0  0  0  0  0
  -25.0096  -33.9643   25.0369 H   0  0  0  0  0  0
  -22.7194  -31.3046   21.4027 H   0  0  0  0  0  0
  -23.3736  -35.9636   23.3245 H   0  0  0  0  0  0
  -24.3613  -36.8992   22.2078 H   0  0  0  0  0  0
  -23.7230  -37.6479   23.6724 H   0  0  0  0  0  0
  -26.0914  -31.5554   20.5986 H   0  0  0  0  0  0
  -26.8434  -30.8323   21.9912 H   0  0  0  0  0  0
  -28.1207  -29.0016   21.1531 H   0  0  0  0  0  0
  -25.9684  -25.9193   19.0152 H   0  0  0  0  0  0
  -23.9748  -27.2882   19.0131 H   0  0  0  0  0  0
  -23.7349  -30.5925   19.4025 H   0  0  0  0  0  0
  -22.7474  -29.2387   19.8631 H   0  0  0  0  0  0
  -25.1279  -36.1871   25.0808 H   0  0  0  0  0  0
  -21.0003  -28.3255   24.1394 H   0  0  0  0  0  0
  -20.5633  -26.2289   23.3641 H   0  0  0  0  0  0
  -21.6627  -26.7365   22.1241 H   0  0  0  0  0  0
  -19.6879  -25.6249   21.1271 H   0  0  0  0  0  0
  -19.6684  -27.3146   20.6755 H   0  0  0  0  0  0
  -17.4189  -26.6700   21.4015 H   0  0  0  0  0  0
  -18.0275  -26.0043   22.9007 H   0  0  0  0  0  0
  -19.7950  -30.7265   24.2238 H   0  0  0  0  0  0
  -17.5020  -31.6271   24.5120 H   0  0  0  0  0  0
  -15.5351  -30.2953   23.7653 H   0  0  0  0  0  0
  -15.8687  -28.0799   22.7049 H   0  0  0  0  0  0
  -24.5936  -30.7026   25.7869 H   0  0  0  0  0  0
  -24.8963  -32.2885   26.4911 H   0  0  0  0  0  0
  -25.8156  -30.8939   27.0230 H   0  0  0  0  0  0
  -26.2861  -29.6758   24.1187 H   0  0  0  0  0  0
  -27.4009  -29.7219   25.4647 H   0  0  0  0  0  0
  -27.8750  -30.4256   23.9359 H   0  0  0  0  0  0
  -27.2555  -33.3640   26.2036 H   0  0  0  0  0  0
  -28.3875  -32.6884   25.0395 H   0  0  0  0  0  0
  -28.0620  -31.8505   26.5494 H   0  0  0  0  0  0
  -28.2512  -38.0140   24.7540 H   0  0  0  0  0  0
  -28.1109  -36.2667   24.6170 H   0  0  0  0  0  0
  -27.2312  -37.1331   25.8848 H   0  0  0  0  0  0
  -20.9340  -29.8805   21.6942 H   0  0  0  0  0  0
  -26.0113  -38.2814   24.1486 H   0  0  0  0  0  0
  -30.7187  -22.1337   21.8500 H   0  0  0  0  0  0
  -26.5771  -19.5534   18.8940 H   0  0  0  0  0  0
  -27.8438  -19.2239   17.7035 H   0  0  0  0  0  0
  -27.0067  -20.7771   17.7013 H   0  0  0  0  0  0
  -30.2718  -24.3672   19.6416 H   0  0  0  0  0  0
  -29.7263  -24.3631   21.2852 H   0  0  0  0  0  0
  -28.7973  -17.7991   19.2438 H   0  0  0  0  0  0
  -28.1069  -17.9502   20.8184 H   0  0  0  0  0  0
  -30.5102  -17.5063   21.7894 H   0  0  0  0  0  0
  -31.1090  -17.3602   20.1746 H   0  0  0  0  0  0
  -27.3294  -24.6909   20.4842 H   0  0  0  0  0  0
  -27.9495  -24.8669   18.8605 H   0  0  0  0  0  0
  -28.9594  -15.5037   21.1828 H   0  0  0  0  0  0
  1 25  1  0  0  0
  1 30  2  0  0  0
  1 82  1  0  0  0
  2  3  1  0  0  0
  2 25  1  0  0  0
  2 83  1  0  0  0
  2 84  1  0  0  0
  3  4  1  0  0  0
  3 85  1  0  0  0
  3 86  1  0  0  0
  4  5  1  0  0  0
  4 87  1  0  0  0
  4 88  1  0  0  0
  5  6  1  0  0  0
  5 26  1  0  0  0
  5 89  1  0  0  0
  6 25  1  0  0  0
  6 90  1  0  0  0
  6 91  1  0  0  0
  7  8  2  0  0  0
  7 26  1  0  0  0
  7 29  1  0  0  0
  8  9  1  0  0  0
  8 22  1  0  0  0
  9 10  1  0  0  0
  9 27  2  0  0  0
 10 11  2  0  0  0
 10 15  1  0  0  0
 11 12  1  0  0  0
 11 92  1  0  0  0
 12 13  2  0  0  0
 12 93  1  0  0  0
 13 14  1  0  0  0
 13 31  1  0  0  0
 14 15  2  0  0  0
 14 94  1  0  0  0
 15 95  1  0  0  0
 16 17  2  0  0  0
 16 21  1  0  0  0
 16 31  1  0  0  0
 17 18  1  0  0  0
 17 96  1  0  0  0
 18 19  2  0  0  0
 18 97  1  0  0  0
 19 20  1  0  0  0
 19 24  1  0  0  0
 20 21  2  0  0  0
 20 98  1  0  0  0
 21 23  1  0  0  0
 22 28  1  0  0  0
 22 32  2  0  0  0
 26 27  1  0  0  0
 28 99  1  0  0  0
 28100  1  0  0  0
 29101  1  0  0  0
 29102  1  0  0  0
 33 34  1  0  0  0
 33 66  1  0  0  0
 33 70  2  0  0  0
 34 36  1  0  0  0
 34 59  1  0  0  0
 34103  1  0  0  0
 35 44  2  0  0  0
 35 45  1  0  0  0
 35 68  1  0  0  0
 36 56  1  0  0  0
 36104  1  0  0  0
 37 39  1  0  0  0
 37 47  1  0  0  0
 37 66  1  0  0  0
 37105  1  0  0  0
 38 43  2  0  0  0
 38 46  1  0  0  0
 38 47  1  0  0  0
 39 64  1  0  0  0
 39 67  2  0  0  0
 40 52  1  0  0  0
 40 53  2  0  0  0
 40 58  1  0  0  0
 41106  1  0  0  0
 41107  1  0  0  0
 41108  1  0  0  0
 41 48  1  0  0  0
 42 43  1  0  0  0
 42 66  1  0  0  0
 42109  1  0  0  0
 42110  1  0  0  0
 43 44  1  0  0  0
 44111  1  0  0  0
 45 46  2  0  0  0
 45112  1  0  0  0
 46113  1  0  0  0
 47114  1  0  0  0
 47115  1  0  0  0
 48 56  1  0  0  0
 48 65  1  0  0  0
 48116  1  0  0  0
 49 50  1  0  0  0
 49 53  1  0  0  0
 49 64  1  0  0  0
 49117  1  0  0  0
 50 51  1  0  0  0
 50118  1  0  0  0
 50119  1  0  0  0
 51 52  1  0  0  0
 51120  1  0  0  0
 51121  1  0  0  0
 52122  1  0  0  0
 52123  1  0  0  0
 53 54  1  0  0  0
 54 55  2  0  0  0
 54124  1  0  0  0
 55 57  1  0  0  0
 55125  1  0  0  0
 56 69  2  0  0  0
 57 58  2  0  0  0
 57126  1  0  0  0
 58127  1  0  0  0
 59 60  1  0  0  0
 59 61  1  0  0  0
 59 62  1  0  0  0
 60128  1  0  0  0
 60129  1  0  0  0
 60130  1  0  0  0
 61131  1  0  0  0
 61132  1  0  0  0
 61133  1  0  0  0
 62134  1  0  0  0
 62135  1  0  0  0
 62136  1  0  0  0
 63 65  1  0  0  0
 63137  1  0  0  0
 63138  1  0  0  0
 63139  1  0  0  0
 64140  1  0  0  0
 65141  1  0  0  0
 68 79  1  0  0  0
 71 72  2  0  0  0
 71 80  1  0  0  0
 71142  1  0  0  0
 72 76  1  0  0  0
 72 81  1  0  0  0
 73 74  1  0  0  0
 73 75  1  0  0  0
 73 81  2  0  0  0
 74 77  1  0  0  0
 74 80  2  0  0  0
 75143  1  0  0  0
 75144  1  0  0  0
 75145  1  0  0  0
 76 79  1  0  0  0
 76146  1  0  0  0
 76147  1  0  0  0
 77 78  1  0  0  0
 77148  1  0  0  0
 77149  1  0  0  0
 78 82  1  0  0  0
 78150  1  0  0  0
 78151  1  0  0  0
 79152  1  0  0  0
 79153  1  0  0  0
 82154  1  0  0  0
M  ISO  4   1 100  68 101  79 101  82 100
M  END
> <chiral flag>
0

> <version>
0

> <s_m_source_file>
/data/baiqing/PycharmProjects/Reinvent-master-3.2/result/LINK_invent/BTK/process_docking_weight1_custom_sum_contain_oxygen_bond_distance_aromatic_linkinvent_7_9_3/rearranged_h_0046.sdf

> <i_m_source_file_index>
2

> <r_mmod_Potential_Energy-OPLS-2005>
50.0325660705566

> <r_mmod_Stretch_Energy-OPLS-2005>
87.5935821533203

> <r_mmod_Bend_Energy-OPLS-2005>
133.554000854492

> <r_mmod_Torsional_Energy-OPLS-2005>
198.387741088867

> <r_mmod_Improper_Torsional_Energy-OPLS-2005>
5.79764556884766

> <r_mmod_Van_der_Waal_Energy-OPLS-2005>
145.184097290039

> <r_mmod_Electrostatic_Energy-OPLS-2005>
-333.828247070312

> <r_mmod_Solvation_Energy-OPLS-2005>
-231.177352905273

> <b_mmod_Minimization_Converged-OPLS-2005>
0

> <r_mmod_RMS_Derivative-OPLS-2005>
5.8782172203064

$$$$
2
                    3D
 Structure written by MMmdl.
168176  0  0  1  0            999 V2000
  -31.1528  -14.3645   20.3894 C   0  0  0  0  0  0
  -30.2641  -12.9579   18.6795 C   0  0  0  0  0  0
  -29.3222  -11.8950   18.2593 C   0  0  0  0  0  0
  -27.9926  -11.8430   18.9663 C   0  0  0  0  0  0
  -27.5944  -13.1342   19.6659 C   0  0  2  0  0  0
  -28.7624  -13.6116   20.5942 C   0  0  0  0  0  0
  -25.2764  -13.8792   20.5826 C   0  0  0  0  0  0
  -24.2016  -13.1165   20.9310 C   0  0  0  0  0  0
  -24.6120  -11.7393   20.8744 C   0  0  0  0  0  0
  -23.9175  -10.4635   21.0360 C   0  0  0  0  0  0
  -24.3803   -9.4513   21.9114 C   0  0  0  0  0  0
  -23.6454   -8.2530   22.0914 C   0  0  0  0  0  0
  -22.4405   -8.0526   21.3708 C   0  0  0  0  0  0
  -22.0147   -9.0454   20.4613 C   0  0  0  0  0  0
  -22.7529  -10.2253   20.2876 C   0  0  0  0  0  0
  -21.6951   -6.0803   22.5193 C   0  0  0  0  0  0
  -21.4079   -6.5667   23.8109 C   0  0  0  0  0  0
  -21.3583   -5.6845   24.9102 C   0  0  0  0  0  0
  -21.6086   -4.3168   24.7178 C   0  0  0  0  0  0
  -21.8931   -3.8171   23.4352 C   0  0  0  0  0  0
  -21.9349   -4.7022   22.3333 C   0  0  0  0  0  0
  -22.8000  -13.5556   21.2332 C   0  0  0  0  0  0
  -22.1876   -4.2196   21.0955 F   0  0  0  0  0  0
  -21.5556   -3.4566   25.7665 F   0  0  0  0  0  0
  -30.1330  -13.5480   19.9857 N   0  0  0  0  0  0
  -26.2868  -12.9652   20.2914 N   0  0  0  0  0  0
  -25.8740  -11.7010   20.5540 N   0  0  0  0  0  0
  -22.1042  -12.8358   22.0901 N   0  0  0  0  0  0
  -25.4679  -15.2718   20.4573 N   0  0  0  0  0  0
  -31.3052  -14.6047   21.5330 O   0  0  0  0  0  0
  -21.6994   -6.8992   21.4177 O   0  0  0  0  0  0
  -22.3125  -14.5515   20.6911 O   0  0  0  0  0  0
  -24.6036  -31.8670   23.2023 C   0  0  0  0  0  0
  -25.8955  -32.4802   23.8372 C   0  0  1  0  0  0
  -27.2534  -27.4402   20.0819 C   0  0  0  0  0  0
  -25.5818  -33.8613   24.2297 N   0  0  0  0  0  0
  -23.4047  -30.4812   21.5431 C   0  0  2  0  0  0
  -24.8518  -28.9557   20.1100 C   0  0  0  0  0  0
  -22.7440  -29.4590   22.4991 C   0  0  0  0  0  0
  -18.0270  -28.1356   22.8533 C   0  0  0  0  0  0
  -24.1509  -36.7332   23.2696 C   0  0  0  0  0  0
  -25.9265  -30.8352   21.3553 C   0  0  0  0  0  0
  -26.0059  -29.4604   20.7210 C   0  0  0  0  0  0
  -27.1904  -28.6906   20.7295 C   0  0  0  0  0  0
  -26.0830  -26.9493   19.4595 C   0  0  0  0  0  0
  -24.8819  -27.6957   19.4819 C   0  0  0  0  0  0
  -23.6155  -29.8179   20.1538 C   0  0  0  0  0  0
  -25.4139  -36.3098   24.0338 C   0  0  1  0  0  0
  -20.5866  -28.3587   23.1393 C   0  0  2  0  0  0
  -20.6724  -26.9319   22.5475 C   0  0  0  0  0  0
  -19.5706  -26.6352   21.5259 C   0  0  0  0  0  0
  -18.1896  -26.7902   22.1673 C   0  0  0  0  0  0
  -19.1524  -28.8806   23.2956 C   0  0  0  0  0  0
  -18.9425  -30.1423   23.8929 C   0  0  0  0  0  0
  -17.6418  -30.6548   24.0576 C   0  0  0  0  0  0
  -25.9001  -34.9473   23.5096 C   0  0  0  0  0  0
  -16.5326  -29.9041   23.6321 C   0  0  0  0  0  0
  -16.7262  -28.6480   23.0343 C   0  0  0  0  0  0
  -26.4442  -31.6587   25.0689 C   0  0  0  0  0  0
  -25.3772  -31.3562   26.1443 C   0  0  0  0  0  0
  -27.0328  -30.3112   24.5947 C   0  0  0  0  0  0
  -27.6013  -32.4318   25.7434 C   0  0  0  0  0  0
  -27.5557  -37.1855   24.8508 C   0  0  0  0  0  0
  -21.4162  -29.2942   22.3809 N   0  0  0  0  0  0
  -26.4338  -37.3719   23.9328 N   0  0  0  0  0  0
  -24.6673  -31.0738   22.0955 N   0  0  0  0  0  0
  -23.4256  -28.8199   23.3048 O   0  0  0  0  0  0
  -28.4456  -26.7334   20.1594 O   0  0  0  0  0  0
  -26.5599  -34.8904   22.4683 O   0  0  0  0  0  0
  -23.5217  -32.1432   23.7392 O   0  0  0  0  0  0
  -31.1487  -21.3280   19.1336 C   0  0  0  0  0  0
  -30.6826  -19.9717   19.1800 C   0  0  0  0  0  0
  -30.0206  -22.0758   18.9283 C   0  0  0  0  0  0
  -26.7125  -20.2798   18.3197 C   0  0  0  0  0  0
  -33.5862  -13.0452   18.6510 C   0  0  0  0  0  0
  -31.4881  -18.6952   19.0343 C   0  0  0  0  0  0
  -29.8671  -23.5284   18.5366 C   0  0  0  0  0  0
  -31.5461  -17.7508   20.2685 C   0  0  0  0  0  0
  -28.9699  -24.4039   19.4573 C   0  0  0  0  0  0
  -27.5440  -21.4868   18.7604 C   0  0  0  0  0  0
  -33.3213  -14.4405   19.2817 C   0  0  0  0  0  0
  -32.4361  -16.4690   20.0676 C   0  0  0  0  0  0
  -28.9010  -25.9119   19.0823 C   0  0  0  0  0  0
  -29.3672  -19.9131   19.1800 N   0  0  0  0  0  0
  -28.9542  -21.1935   18.9786 N   0  0  0  0  0  0
  -31.9864  -15.0762   19.5530 N   0  0  0  0  0  0
  -29.8629  -13.8318   18.1931 H   0  0  0  0  0  0
  -31.1682  -12.9449   18.0853 H   0  0  0  0  0  0
  -29.7490  -10.9333   18.5525 H   0  0  0  0  0  0
  -29.1767  -11.9227   17.1844 H   0  0  0  0  0  0
  -28.1018  -11.0600   19.7430 H   0  0  0  0  0  0
  -27.1995  -11.4168   18.3201 H   0  0  0  0  0  0
  -27.4175  -13.7411   18.7731 H   0  0  0  0  0  0
  -28.7228  -13.1399   21.5759 H   0  0  0  0  0  0
  -28.6454  -14.7009   20.7244 H   0  0  0  0  0  0
  -25.2841   -9.6237   22.4808 H   0  0  0  0  0  0
  -24.0229   -7.4955   22.7710 H   0  0  0  0  0  0
  -21.1327   -8.9158   19.8451 H   0  0  0  0  0  0
  -22.4226  -10.9992   19.6005 H   0  0  0  0  0  0
  -21.2066   -7.6155   23.9604 H   0  0  0  0  0  0
  -21.1168   -6.0579   25.8982 H   0  0  0  0  0  0
  -22.0758   -2.7598   23.2901 H   0  0  0  0  0  0
  -22.4669  -12.0155   22.5606 H   0  0  0  0  0  0
  -21.1703  -13.1352   22.2958 H   0  0  0  0  0  0
  -24.7222  -15.8618   20.8115 H   0  0  0  0  0  0
  -26.2942  -15.8002   20.1986 H   0  0  0  0  0  0
  -26.7077  -32.5547   23.1177 H   0  0  0  0  0  0
  -24.9861  -33.9792   25.0386 H   0  0  0  0  0  0
  -22.6847  -31.2868   21.3978 H   0  0  0  0  0  0
  -23.3649  -35.9767   23.3480 H   0  0  0  0  0  0
  -24.3598  -36.8828   22.2080 H   0  0  0  0  0  0
  -23.7380  -37.6641   23.6630 H   0  0  0  0  0  0
  -26.0056  -31.5906   20.5722 H   0  0  0  0  0  0
  -26.8262  -30.9183   21.9492 H   0  0  0  0  0  0
  -28.0749  -29.0557   21.2328 H   0  0  0  0  0  0
  -26.0826  -25.9968   18.9578 H   0  0  0  0  0  0
  -23.9906  -27.3035   19.0095 H   0  0  0  0  0  0
  -23.7167  -30.5867   19.3859 H   0  0  0  0  0  0
  -22.7395  -29.2292   19.8773 H   0  0  0  0  0  0
  -25.1320  -36.1977   25.0815 H   0  0  0  0  0  0
  -20.9945  -28.3055   24.1520 H   0  0  0  0  0  0
  -20.5595  -26.2137   23.3642 H   0  0  0  0  0  0
  -21.6585  -26.7295   22.1289 H   0  0  0  0  0  0
  -19.6804  -25.6273   21.1255 H   0  0  0  0  0  0
  -19.6657  -27.3192   20.6830 H   0  0  0  0  0  0
  -17.4173  -26.6724   21.4068 H   0  0  0  0  0  0
  -18.0216  -26.0042   22.9055 H   0  0  0  0  0  0
  -19.7897  -30.7276   24.2284 H   0  0  0  0  0  0
  -17.4945  -31.6236   24.5157 H   0  0  0  0  0  0
  -15.5317  -30.2933   23.7585 H   0  0  0  0  0  0
  -15.8700  -28.0810   22.6958 H   0  0  0  0  0  0
  -24.5759  -30.7186   25.7679 H   0  0  0  0  0  0
  -24.9206  -32.2691   26.5257 H   0  0  0  0  0  0
  -25.8134  -30.8357   26.9970 H   0  0  0  0  0  0
  -26.2834  -29.6750   24.1202 H   0  0  0  0  0  0
  -27.4485  -29.7382   25.4239 H   0  0  0  0  0  0
  -27.8449  -30.4553   23.8809 H   0  0  0  0  0  0
  -27.2564  -33.3457   26.2216 H   0  0  0  0  0  0
  -28.3648  -32.7129   25.0203 H   0  0  0  0  0  0
  -28.0863  -31.8380   26.5156 H   0  0  0  0  0  0
  -28.2689  -38.0027   24.7250 H   0  0  0  0  0  0
  -28.0930  -36.2529   24.6683 H   0  0  0  0  0  0
  -27.2259  -37.1922   25.8926 H   0  0  0  0  0  0
  -20.9266  -29.8762   21.7193 H   0  0  0  0  0  0
  -26.0238  -38.2823   24.1146 H   0  0  0  0  0  0
  -32.1649  -21.6843   19.1092 H   0  0  0  0  0  0
  -25.8212  -20.6206   17.7996 H   0  0  0  0  0  0
  -26.3878  -19.7253   19.1957 H   0  0  0  0  0  0
  -27.2556  -19.6110   17.6489 H   0  0  0  0  0  0
  -32.7982  -12.3347   18.8215 H   0  0  0  0  0  0
  -34.5192  -12.6071   19.0678 H   0  0  0  0  0  0
  -33.8333  -13.0792   17.5893 H   0  0  0  0  0  0
  -32.5022  -18.9784   18.7342 H   0  0  0  0  0  0
  -31.1271  -18.1416   18.1658 H   0  0  0  0  0  0
  -29.4331  -23.5432   17.5415 H   0  0  0  0  0  0
  -30.8621  -23.9547   18.4068 H   0  0  0  0  0  0
  -30.5701  -17.5357   20.7091 H   0  0  0  0  0  0
  -32.0697  -18.3625   21.0139 H   0  0  0  0  0  0
  -29.3232  -24.2987   20.4817 H   0  0  0  0  0  0
  -27.9481  -24.0282   19.4281 H   0  0  0  0  0  0
  -27.1122  -21.9339   19.6658 H   0  0  0  0  0  0
  -27.4943  -22.2459   17.9828 H   0  0  0  0  0  0
  -34.0197  -15.1513   18.8662 H   0  0  0  0  0  0
  -33.7776  -14.3010   20.2435 H   0  0  0  0  0  0
  -32.8944  -16.3015   21.0476 H   0  0  0  0  0  0
  -33.2623  -16.9051   19.5140 H   0  0  0  0  0  0
  -28.3180  -26.0680   18.1759 H   0  0  0  0  0  0
  -29.9055  -26.2810   18.8679 H   0  0  0  0  0  0
  1 25  1  0  0  0
  1 30  2  0  0  0
  1 86  1  0  0  0
  2  3  1  0  0  0
  2 25  1  0  0  0
  2 87  1  0  0  0
  2 88  1  0  0  0
  3  4  1  0  0  0
  3 89  1  0  0  0
  3 90  1  0  0  0
  4  5  1  0  0  0
  4 91  1  0  0  0
  4 92  1  0  0  0
  5  6  1  0  0  0
  5 26  1  0  0  0
  5 93  1  0  0  0
  6 25  1  0  0  0
  6 94  1  0  0  0
  6 95  1  0  0  0
  7  8  2  0  0  0
  7 26  1  0  0  0
  7 29  1  0  0  0
  8  9  1  0  0  0
  8 22  1  0  0  0
  9 10  1  0  0  0
  9 27  2  0  0  0
 10 11  2  0  0  0
 10 15  1  0  0  0
 11 12  1  0  0  0
 11 96  1  0  0  0
 12 13  2  0  0  0
 12 97  1  0  0  0
 13 14  1  0  0  0
 13 31  1  0  0  0
 14 15  2  0  0  0
 14 98  1  0  0  0
 15 99  1  0  0  0
 16 17  2  0  0  0
 16 21  1  0  0  0
 16 31  1  0  0  0
 17 18  1  0  0  0
 17100  1  0  0  0
 18 19  2  0  0  0
 18101  1  0  0  0
 19 20  1  0  0  0
 19 24  1  0  0  0
 20 21  2  0  0  0
 20102  1  0  0  0
 21 23  1  0  0  0
 22 28  1  0  0  0
 22 32  2  0  0  0
 26 27  1  0  0  0
 28103  1  0  0  0
 28104  1  0  0  0
 29105  1  0  0  0
 29106  1  0  0  0
 33 34  1  0  0  0
 33 66  1  0  0  0
 33 70  2  0  0  0
 34 36  1  0  0  0
 34 59  1  0  0  0
 34107  1  0  0  0
 35 44  2  0  0  0
 35 45  1  0  0  0
 35 68  1  0  0  0
 36 56  1  0  0  0
 36108  1  0  0  0
 37 39  1  0  0  0
 37 47  1  0  0  0
 37 66  1  0  0  0
 37109  1  0  0  0
 38 43  2  0  0  0
 38 46  1  0  0  0
 38 47  1  0  0  0
 39 64  1  0  0  0
 39 67  2  0  0  0
 40 52  1  0  0  0
 40 53  2  0  0  0
 40 58  1  0  0  0
 41110  1  0  0  0
 41111  1  0  0  0
 41112  1  0  0  0
 41 48  1  0  0  0
 42 43  1  0  0  0
 42 66  1  0  0  0
 42113  1  0  0  0
 42114  1  0  0  0
 43 44  1  0  0  0
 44115  1  0  0  0
 45 46  2  0  0  0
 45116  1  0  0  0
 46117  1  0  0  0
 47118  1  0  0  0
 47119  1  0  0  0
 48 56  1  0  0  0
 48 65  1  0  0  0
 48120  1  0  0  0
 49 50  1  0  0  0
 49 53  1  0  0  0
 49 64  1  0  0  0
 49121  1  0  0  0
 50 51  1  0  0  0
 50122  1  0  0  0
 50123  1  0  0  0
 51 52  1  0  0  0
 51124  1  0  0  0
 51125  1  0  0  0
 52126  1  0  0  0
 52127  1  0  0  0
 53 54  1  0  0  0
 54 55  2  0  0  0
 54128  1  0  0  0
 55 57  1  0  0  0
 55129  1  0  0  0
 56 69  2  0  0  0
 57 58  2  0  0  0
 57130  1  0  0  0
 58131  1  0  0  0
 59 60  1  0  0  0
 59 61  1  0  0  0
 59 62  1  0  0  0
 60132  1  0  0  0
 60133  1  0  0  0
 60134  1  0  0  0
 61135  1  0  0  0
 61136  1  0  0  0
 61137  1  0  0  0
 62138  1  0  0  0
 62139  1  0  0  0
 62140  1  0  0  0
 63 65  1  0  0  0
 63141  1  0  0  0
 63142  1  0  0  0
 63143  1  0  0  0
 64144  1  0  0  0
 65145  1  0  0  0
 68 83  1  0  0  0
 71 72  1  0  0  0
 71 73  2  0  0  0
 71146  1  0  0  0
 72 76  1  0  0  0
 72 84  2  0  0  0
 73 77  1  0  0  0
 73 85  1  0  0  0
 74 80  1  0  0  0
 74147  1  0  0  0
 74148  1  0  0  0
 74149  1  0  0  0
 75 81  1  0  0  0
 75150  1  0  0  0
 75151  1  0  0  0
 75152  1  0  0  0
 76 78  1  0  0  0
 76153  1  0  0  0
 76154  1  0  0  0
 77 79  1  0  0  0
 77155  1  0  0  0
 77156  1  0  0  0
 78 82  1  0  0  0
 78157  1  0  0  0
 78158  1  0  0  0
 79 83  1  0  0  0
 79159  1  0  0  0
 79160  1  0  0  0
 80 85  1  0  0  0
 80161  1  0  0  0
 80162  1  0  0  0
 81 86  1  0  0  0
 81163  1  0  0  0
 81164  1  0  0  0
 82 86  1  0  0  0
 82165  1  0  0  0
 82166  1  0  0  0
 83167  1  0  0  0
 83168  1  0  0  0
 84 85  1  0  0  0
M  ISO  4   1 100  68 101  83 101  86 100
M  END
> <chiral flag>
0

> <version>
0

> <s_m_source_file>
/data/baiqing/PycharmProjects/Reinvent-master-3.2/result/LINK_invent/BTK/process_docking_weight1_custom_sum_contain_oxygen_bond_distance_aromatic_linkinvent_7_9_3/rearranged_h_0046.sdf

> <i_m_source_file_index>
3

> <r_mmod_Potential_Energy-OPLS-2005>
962.9052734375

> <r_mmod_Stretch_Energy-OPLS-2005>
81.2924575805664

> <r_mmod_Bend_Energy-OPLS-2005>
313.319091796875

> <r_mmod_Torsional_Energy-OPLS-2005>
329.651184082031

> <r_mmod_Improper_Torsional_Energy-OPLS-2005>
12.271017074585

> <r_mmod_Van_der_Waal_Energy-OPLS-2005>
172.979248046875

> <r_mmod_Electrostatic_Energy-OPLS-2005>
-315.163818359375

> <r_mmod_Solvation_Energy-OPLS-2005>
-202.714599609375

> <b_mmod_Minimization_Converged-OPLS-2005>
0

> <r_mmod_RMS_Derivative-OPLS-2005>
36.1887893676758

$$$$
3
                    3D
 Structure written by MMmdl.
162170  0  0  1  0            999 V2000
  -30.6045  -14.7526   20.4103 C   0  0  0  0  0  0
  -30.4226  -12.4357   19.4937 C   0  0  0  0  0  0
  -29.5199  -12.4292   18.2422 C   0  0  0  0  0  0
  -28.0306  -12.3149   18.6332 C   0  0  0  0  0  0
  -27.6279  -13.2327   19.8234 C   0  0  2  0  0  0
  -28.6648  -13.2135   20.9619 C   0  0  0  0  0  0
  -25.2486  -13.8185   20.5673 C   0  0  0  0  0  0
  -24.1790  -13.0434   20.9202 C   0  0  0  0  0  0
  -24.6380  -11.6909   20.8728 C   0  0  0  0  0  0
  -23.9073  -10.4278   21.0389 C   0  0  0  0  0  0
  -24.3632   -9.4215   21.9176 C   0  0  0  0  0  0
  -23.6324   -8.2237   22.0742 C   0  0  0  0  0  0
  -22.4306   -8.0266   21.3535 C   0  0  0  0  0  0
  -21.9937   -9.0229   20.4629 C   0  0  0  0  0  0
  -22.7245  -10.2119   20.3042 C   0  0  0  0  0  0
  -21.6851   -6.0755   22.5301 C   0  0  0  0  0  0
  -21.4006   -6.5660   23.8240 C   0  0  0  0  0  0
  -21.3656   -5.6810   24.9196 C   0  0  0  0  0  0
  -21.6036   -4.3072   24.7233 C   0  0  0  0  0  0
  -21.8815   -3.8170   23.4356 C   0  0  0  0  0  0
  -21.9197   -4.6988   22.3414 C   0  0  0  0  0  0
  -22.7824  -13.5218   21.1888 C   0  0  0  0  0  0
  -22.1662   -4.2182   21.0988 F   0  0  0  0  0  0
  -21.5629   -3.4554   25.7743 F   0  0  0  0  0  0
  -29.9582  -13.5405   20.3604 N   0  0  0  0  0  0
  -26.2873  -12.9393   20.3148 N   0  0  0  0  0  0
  -25.9295  -11.6547   20.5680 N   0  0  0  0  0  0
  -22.0468  -12.8182   22.0425 N   0  0  0  0  0  0
  -25.4188  -15.1907   20.4126 N   0  0  0  0  0  0
  -31.8342  -14.7642   20.2790 O   0  0  0  0  0  0
  -21.6642   -6.8890   21.4259 O   0  0  0  0  0  0
  -22.3507  -14.5532   20.6754 O   0  0  0  0  0  0
  -24.6307  -31.8529   23.1956 C   0  0  0  0  0  0
  -25.9131  -32.4747   23.8301 C   0  0  1  0  0  0
  -27.2212  -27.2785   20.1354 C   0  0  0  0  0  0
  -25.5939  -33.8551   24.2237 N   0  0  0  0  0  0
  -23.4260  -30.4733   21.5387 C   0  0  2  0  0  0
  -24.8725  -28.9153   20.1122 C   0  0  0  0  0  0
  -22.7508  -29.4583   22.4916 C   0  0  0  0  0  0
  -18.0277  -28.1374   22.8471 C   0  0  0  0  0  0
  -24.1500  -36.7273   23.2644 C   0  0  0  0  0  0
  -25.9689  -30.7754   21.3668 C   0  0  0  0  0  0
  -26.0437  -29.3961   20.7154 C   0  0  0  0  0  0
  -27.2238  -28.5909   20.7105 C   0  0  0  0  0  0
  -26.0310  -26.8487   19.5189 C   0  0  0  0  0  0
  -24.8710  -27.6491   19.5041 C   0  0  0  0  0  0
  -23.6422  -29.7992   20.1569 C   0  0  0  0  0  0
  -25.4124  -36.3060   24.0324 C   0  0  1  0  0  0
  -20.5883  -28.3672   23.1275 C   0  0  2  0  0  0
  -20.6773  -26.9392   22.5402 C   0  0  0  0  0  0
  -19.5753  -26.6363   21.5201 C   0  0  0  0  0  0
  -18.1924  -26.7916   22.1602 C   0  0  0  0  0  0
  -19.1532  -28.8838   23.2874 C   0  0  0  0  0  0
  -18.9467  -30.1437   23.8898 C   0  0  0  0  0  0
  -17.6457  -30.6584   24.0555 C   0  0  0  0  0  0
  -25.9062  -34.9440   23.5081 C   0  0  0  0  0  0
  -16.5355  -29.9084   23.6333 C   0  0  0  0  0  0
  -16.7265  -28.6487   23.0358 C   0  0  0  0  0  0
  -26.4501  -31.6580   25.0693 C   0  0  0  0  0  0
  -25.3716  -31.3695   26.1402 C   0  0  0  0  0  0
  -27.0367  -30.3017   24.6142 C   0  0  0  0  0  0
  -27.6066  -32.4308   25.7463 C   0  0  0  0  0  0
  -27.5583  -37.1797   24.8470 C   0  0  0  0  0  0
  -21.4201  -29.3044   22.3694 N   0  0  0  0  0  0
  -26.4295  -37.3764   23.9411 N   0  0  0  0  0  0
  -24.6952  -31.0520   22.0917 N   0  0  0  0  0  0
  -23.4226  -28.8131   23.2996 O   0  0  0  0  0  0
  -28.3304  -26.4167   20.1197 O   0  0  0  0  0  0
  -26.5644  -34.8930   22.4652 O   0  0  0  0  0  0
  -23.5459  -32.1326   23.7268 O   0  0  0  0  0  0
  -30.9281  -20.1980   21.6981 C   0  0  0  0  0  0
  -29.8493  -19.7684   20.9644 C   0  0  0  0  0  0
  -29.9755  -18.2845   21.0864 C   0  0  0  0  0  0
  -29.0686  -16.2168   17.5905 C   0  0  0  0  0  0
  -32.7793  -19.1077   23.0431 C   0  0  0  0  0  0
  -28.9065  -20.8352   20.2569 C   0  0  0  0  0  0
  -29.1879  -16.9859   20.6867 C   0  0  0  0  0  0
  -28.9246  -22.3708   20.8123 C   0  0  0  0  0  0
  -28.4618  -23.6689   19.9572 C   0  0  0  0  0  0
  -30.2434  -16.3379   18.5805 C   0  0  0  0  0  0
  -28.2190  -25.0620   20.7439 C   0  0  0  0  0  0
  -31.0234  -17.9681   21.8378 N   0  0  0  0  0  0
  -31.5964  -19.1196   22.2058 N   0  0  0  0  0  0
  -29.8942  -15.8596   19.9361 N   0  0  0  0  0  0
  -31.4697  -12.5440   19.2057 H   0  0  0  0  0  0
  -30.3542  -11.4860   20.0261 H   0  0  0  0  0  0
  -29.7952  -11.5927   17.5987 H   0  0  0  0  0  0
  -29.6993  -13.3248   17.6514 H   0  0  0  0  0  0
  -27.8513  -11.2709   18.8925 H   0  0  0  0  0  0
  -27.4008  -12.5172   17.7657 H   0  0  0  0  0  0
  -27.6003  -14.2448   19.4210 H   0  0  0  0  0  0
  -28.6959  -12.2373   21.4457 H   0  0  0  0  0  0
  -28.3994  -13.9422   21.7299 H   0  0  0  0  0  0
  -25.2771   -9.5711   22.4766 H   0  0  0  0  0  0
  -24.0049   -7.4629   22.7457 H   0  0  0  0  0  0
  -21.0879   -8.8720   19.8919 H   0  0  0  0  0  0
  -22.3691  -10.9656   19.6151 H   0  0  0  0  0  0
  -21.1977   -7.6164   23.9762 H   0  0  0  0  0  0
  -21.1485   -6.0528   25.9109 H   0  0  0  0  0  0
  -22.0589   -2.7634   23.2841 H   0  0  0  0  0  0
  -22.4093  -11.9849   22.4815 H   0  0  0  0  0  0
  -21.1056  -13.1161   22.2593 H   0  0  0  0  0  0
  -24.6492  -15.8420   20.5222 H   0  0  0  0  0  0
  -26.2697  -15.6286   20.0827 H   0  0  0  0  0  0
  -26.7216  -32.5390   23.1060 H   0  0  0  0  0  0
  -25.0110  -33.9698   25.0395 H   0  0  0  0  0  0
  -22.7218  -31.2938   21.3873 H   0  0  0  0  0  0
  -23.3782  -35.9589   23.3279 H   0  0  0  0  0  0
  -24.3599  -36.8917   22.2069 H   0  0  0  0  0  0
  -23.7250  -37.6462   23.6685 H   0  0  0  0  0  0
  -26.0997  -31.5324   20.5924 H   0  0  0  0  0  0
  -26.8521  -30.8299   21.9923 H   0  0  0  0  0  0
  -28.1260  -28.9586   21.1781 H   0  0  0  0  0  0
  -25.9937  -25.8731   19.0532 H   0  0  0  0  0  0
  -23.9729  -27.2729   19.0351 H   0  0  0  0  0  0
  -23.7650  -30.5698   19.3954 H   0  0  0  0  0  0
  -22.7631  -29.2267   19.8545 H   0  0  0  0  0  0
  -25.1317  -36.1895   25.0818 H   0  0  0  0  0  0
  -20.9951  -28.3222   24.1404 H   0  0  0  0  0  0
  -20.5648  -26.2279   23.3601 H   0  0  0  0  0  0
  -21.6639  -26.7414   22.1203 H   0  0  0  0  0  0
  -19.6928  -25.6270   21.1237 H   0  0  0  0  0  0
  -19.6709  -27.3172   20.6739 H   0  0  0  0  0  0
  -17.4200  -26.6653   21.4002 H   0  0  0  0  0  0
  -18.0333  -26.0053   22.8992 H   0  0  0  0  0  0
  -19.7948  -30.7244   24.2269 H   0  0  0  0  0  0
  -17.5026  -31.6275   24.5149 H   0  0  0  0  0  0
  -15.5357  -30.2998   23.7659 H   0  0  0  0  0  0
  -15.8649  -28.0815   22.7104 H   0  0  0  0  0  0
  -24.5951  -30.6983   25.7714 H   0  0  0  0  0  0
  -24.8841  -32.2847   26.4774 H   0  0  0  0  0  0
  -25.8026  -30.8918   27.0209 H   0  0  0  0  0  0
  -26.2948  -29.6746   24.1188 H   0  0  0  0  0  0
  -27.4133  -29.7285   25.4626 H   0  0  0  0  0  0
  -27.8772  -30.4339   23.9321 H   0  0  0  0  0  0
  -27.2718  -33.3660   26.1955 H   0  0  0  0  0  0
  -28.3924  -32.6767   25.0305 H   0  0  0  0  0  0
  -28.0679  -31.8468   26.5439 H   0  0  0  0  0  0
  -28.2584  -38.0121   24.7538 H   0  0  0  0  0  0
  -28.1099  -36.2640   24.6258 H   0  0  0  0  0  0
  -27.2292  -37.1392   25.8877 H   0  0  0  0  0  0
  -20.9387  -29.8793   21.6922 H   0  0  0  0  0  0
  -26.0158  -38.2833   24.1416 H   0  0  0  0  0  0
  -31.2895  -21.1925   21.9166 H   0  0  0  0  0  0
  -29.4014  -16.4378   16.5755 H   0  0  0  0  0  0
  -28.2662  -16.9157   17.8235 H   0  0  0  0  0  0
  -28.6377  -15.2189   17.5759 H   0  0  0  0  0  0
  -32.5049  -19.3407   24.0728 H   0  0  0  0  0  0
  -33.4870  -19.8555   22.6860 H   0  0  0  0  0  0
  -33.2613  -18.1305   23.0108 H   0  0  0  0  0  0
  -27.8737  -20.4841   20.2765 H   0  0  0  0  0  0
  -29.1640  -20.8704   19.1978 H   0  0  0  0  0  0
  -28.3060  -17.2754   20.1175 H   0  0  0  0  0  0
  -28.7776  -16.5401   21.5945 H   0  0  0  0  0  0
  -29.9462  -22.6173   21.0906 H   0  0  0  0  0  0
  -28.3777  -22.3748   21.7560 H   0  0  0  0  0  0
  -27.5520  -23.4282   19.4065 H   0  0  0  0  0  0
  -29.2177  -23.8410   19.1886 H   0  0  0  0  0  0
  -30.5861  -17.3733   18.6129 H   0  0  0  0  0  0
  -31.0844  -15.7804   18.1629 H   0  0  0  0  0  0
  -28.9609  -25.0867   21.5434 H   0  0  0  0  0  0
  -27.2643  -24.9905   21.2682 H   0  0  0  0  0  0
  1 25  1  0  0  0
  1 30  2  0  0  0
  1 84  1  0  0  0
  2  3  1  0  0  0
  2 25  1  0  0  0
  2 85  1  0  0  0
  2 86  1  0  0  0
  3  4  1  0  0  0
  3 87  1  0  0  0
  3 88  1  0  0  0
  4  5  1  0  0  0
  4 89  1  0  0  0
  4 90  1  0  0  0
  5  6  1  0  0  0
  5 26  1  0  0  0
  5 91  1  0  0  0
  6 25  1  0  0  0
  6 92  1  0  0  0
  6 93  1  0  0  0
  7  8  2  0  0  0
  7 26  1  0  0  0
  7 29  1  0  0  0
  8  9  1  0  0  0
  8 22  1  0  0  0
  9 10  1  0  0  0
  9 27  2  0  0  0
 10 11  2  0  0  0
 10 15  1  0  0  0
 11 12  1  0  0  0
 11 94  1  0  0  0
 12 13  2  0  0  0
 12 95  1  0  0  0
 13 14  1  0  0  0
 13 31  1  0  0  0
 14 15  2  0  0  0
 14 96  1  0  0  0
 15 97  1  0  0  0
 16 17  2  0  0  0
 16 21  1  0  0  0
 16 31  1  0  0  0
 17 18  1  0  0  0
 17 98  1  0  0  0
 18 19  2  0  0  0
 18 99  1  0  0  0
 19 20  1  0  0  0
 19 24  1  0  0  0
 20 21  2  0  0  0
 20100  1  0  0  0
 21 23  1  0  0  0
 22 28  1  0  0  0
 22 32  2  0  0  0
 26 27  1  0  0  0
 28101  1  0  0  0
 28102  1  0  0  0
 29103  1  0  0  0
 29104  1  0  0  0
 33 34  1  0  0  0
 33 66  1  0  0  0
 33 70  2  0  0  0
 34 36  1  0  0  0
 34 59  1  0  0  0
 34105  1  0  0  0
 35 44  2  0  0  0
 35 45  1  0  0  0
 35 68  1  0  0  0
 36 56  1  0  0  0
 36106  1  0  0  0
 37 39  1  0  0  0
 37 47  1  0  0  0
 37 66  1  0  0  0
 37107  1  0  0  0
 38 43  2  0  0  0
 38 46  1  0  0  0
 38 47  1  0  0  0
 39 64  1  0  0  0
 39 67  2  0  0  0
 40 52  1  0  0  0
 40 53  2  0  0  0
 40 58  1  0  0  0
 41108  1  0  0  0
 41109  1  0  0  0
 41110  1  0  0  0
 41 48  1  0  0  0
 42 43  1  0  0  0
 42 66  1  0  0  0
 42111  1  0  0  0
 42112  1  0  0  0
 43 44  1  0  0  0
 44113  1  0  0  0
 45 46  2  0  0  0
 45114  1  0  0  0
 46115  1  0  0  0
 47116  1  0  0  0
 47117  1  0  0  0
 48 56  1  0  0  0
 48 65  1  0  0  0
 48118  1  0  0  0
 49 50  1  0  0  0
 49 53  1  0  0  0
 49 64  1  0  0  0
 49119  1  0  0  0
 50 51  1  0  0  0
 50120  1  0  0  0
 50121  1  0  0  0
 51 52  1  0  0  0
 51122  1  0  0  0
 51123  1  0  0  0
 52124  1  0  0  0
 52125  1  0  0  0
 53 54  1  0  0  0
 54 55  2  0  0  0
 54126  1  0  0  0
 55 57  1  0  0  0
 55127  1  0  0  0
 56 69  2  0  0  0
 57 58  2  0  0  0
 57128  1  0  0  0
 58129  1  0  0  0
 59 60  1  0  0  0
 59 61  1  0  0  0
 59 62  1  0  0  0
 60130  1  0  0  0
 60131  1  0  0  0
 60132  1  0  0  0
 61133  1  0  0  0
 61134  1  0  0  0
 61135  1  0  0  0
 62136  1  0  0  0
 62137  1  0  0  0
 62138  1  0  0  0
 63 65  1  0  0  0
 63139  1  0  0  0
 63140  1  0  0  0
 63141  1  0  0  0
 64142  1  0  0  0
 65143  1  0  0  0
 68 81  1  0  0  0
 71 72  2  0  0  0
 71 83  1  0  0  0
 71144  1  0  0  0
 72 73  1  0  0  0
 72 76  1  0  0  0
 73 77  1  0  0  0
 73 82  2  0  0  0
 74 80  1  0  0  0
 74145  1  0  0  0
 74146  1  0  0  0
 74147  1  0  0  0
 75 83  1  0  0  0
 75148  1  0  0  0
 75149  1  0  0  0
 75150  1  0  0  0
 76 78  1  0  0  0
 76151  1  0  0  0
 76152  1  0  0  0
 77 84  1  0  0  0
 77153  1  0  0  0
 77154  1  0  0  0
 78 79  1  0  0  0
 78155  1  0  0  0
 78156  1  0  0  0
 79 81  1  0  0  0
 79157  1  0  0  0
 79158  1  0  0  0
 80 84  1  0  0  0
 80159  1  0  0  0
 80160  1  0  0  0
 81161  1  0  0  0
 81162  1  0  0  0
 82 83  1  0  0  0
M  ISO  4   1 100  68 101  81 101  84 100
M  END
> <chiral flag>
0

> <version>
0

> <s_m_source_file>
/data/baiqing/PycharmProjects/Reinvent-master-3.2/result/LINK_invent/BTK/process_docking_weight1_custom_sum_contain_oxygen_bond_distance_aromatic_linkinvent_7_9_3/rearranged_h_0046.sdf

> <i_m_source_file_index>
4

> <r_mmod_Potential_Energy-OPLS-2005>
304.219757080078

> <r_mmod_Stretch_Energy-OPLS-2005>
125.465980529785

> <r_mmod_Bend_Energy-OPLS-2005>
193.436645507812

> <r_mmod_Torsional_Energy-OPLS-2005>
316.541839599609

> <r_mmod_Improper_Torsional_Energy-OPLS-2005>
26.8569679260254

> <r_mmod_Van_der_Waal_Energy-OPLS-2005>
108.540885925293

> <r_mmod_Electrostatic_Energy-OPLS-2005>
-344.973480224609

> <r_mmod_Solvation_Energy-OPLS-2005>
-211.560333251953

> <b_mmod_Minimization_Converged-OPLS-2005>
0

> <r_mmod_RMS_Derivative-OPLS-2005>
3.00864195823669

$$$$
4
                    3D
 Structure written by MMmdl.
164172  0  0  1  0            999 V2000
  -30.6621  -14.5934   20.5618 C   0  0  0  0  0  0
  -30.4340  -12.3882   19.4406 C   0  0  0  0  0  0
  -29.4955  -12.5135   18.2224 C   0  0  0  0  0  0
  -28.0222  -12.3521   18.6406 C   0  0  0  0  0  0
  -27.6539  -13.2141   19.8777 C   0  0  2  0  0  0
  -28.6973  -13.0674   21.0065 C   0  0  0  0  0  0
  -25.2529  -13.8125   20.5647 C   0  0  0  0  0  0
  -24.1824  -13.0411   20.9114 C   0  0  0  0  0  0
  -24.6389  -11.6874   20.8684 C   0  0  0  0  0  0
  -23.9045  -10.4273   21.0410 C   0  0  0  0  0  0
  -24.3612   -9.4179   21.9181 C   0  0  0  0  0  0
  -23.6294   -8.2217   22.0768 C   0  0  0  0  0  0
  -22.4280   -8.0249   21.3549 C   0  0  0  0  0  0
  -21.9905   -9.0211   20.4649 C   0  0  0  0  0  0
  -22.7216  -10.2094   20.3067 C   0  0  0  0  0  0
  -21.6852   -6.0724   22.5252 C   0  0  0  0  0  0
  -21.4039   -6.5649   23.8166 C   0  0  0  0  0  0
  -21.3655   -5.6812   24.9120 C   0  0  0  0  0  0
  -21.6044   -4.3077   24.7194 C   0  0  0  0  0  0
  -21.8823   -3.8154   23.4318 C   0  0  0  0  0  0
  -21.9212   -4.6962   22.3381 C   0  0  0  0  0  0
  -22.7835  -13.5186   21.1756 C   0  0  0  0  0  0
  -22.1680   -4.2153   21.0969 F   0  0  0  0  0  0
  -21.5619   -3.4569   25.7712 F   0  0  0  0  0  0
  -30.0108  -13.3970   20.4342 N   0  0  0  0  0  0
  -26.2996  -12.9316   20.3388 N   0  0  0  0  0  0
  -25.9335  -11.6456   20.5768 N   0  0  0  0  0  0
  -22.0555  -12.8228   22.0362 N   0  0  0  0  0  0
  -25.4189  -15.1869   20.4042 N   0  0  0  0  0  0
  -31.8230  -14.7355   20.1661 O   0  0  0  0  0  0
  -21.6659   -6.8845   21.4212 O   0  0  0  0  0  0
  -22.3510  -14.5470   20.6542 O   0  0  0  0  0  0
  -24.6283  -31.8598   23.2030 C   0  0  0  0  0  0
  -25.9127  -32.4767   23.8369 C   0  0  1  0  0  0
  -27.1930  -27.3225   20.0916 C   0  0  0  0  0  0
  -25.5951  -33.8585   24.2297 N   0  0  0  0  0  0
  -23.4223  -30.4915   21.5402 C   0  0  2  0  0  0
  -24.8547  -28.9439   20.1106 C   0  0  0  0  0  0
  -22.7511  -29.4643   22.4831 C   0  0  0  0  0  0
  -18.0322  -28.1339   22.8479 C   0  0  0  0  0  0
  -24.1505  -36.7311   23.2629 C   0  0  0  0  0  0
  -25.9677  -30.7825   21.3811 C   0  0  0  0  0  0
  -26.0265  -29.4151   20.7148 C   0  0  0  0  0  0
  -27.1985  -28.6064   20.7058 C   0  0  0  0  0  0
  -25.9896  -26.8892   19.4911 C   0  0  0  0  0  0
  -24.8311  -27.6808   19.5033 C   0  0  0  0  0  0
  -23.6390  -29.8396   20.1522 C   0  0  0  0  0  0
  -25.4122  -36.3104   24.0339 C   0  0  1  0  0  0
  -20.5930  -28.3689   23.1203 C   0  0  2  0  0  0
  -20.6796  -26.9397   22.5348 C   0  0  0  0  0  0
  -19.5761  -26.6367   21.5165 C   0  0  0  0  0  0
  -18.1952  -26.7885   22.1600 C   0  0  0  0  0  0
  -19.1576  -28.8826   23.2846 C   0  0  0  0  0  0
  -18.9483  -30.1408   23.8902 C   0  0  0  0  0  0
  -17.6486  -30.6548   24.0559 C   0  0  0  0  0  0
  -25.9069  -34.9464   23.5137 C   0  0  0  0  0  0
  -16.5383  -29.9062   23.6281 C   0  0  0  0  0  0
  -16.7307  -28.6453   23.0348 C   0  0  0  0  0  0
  -26.4519  -31.6564   25.0724 C   0  0  0  0  0  0
  -25.3753  -31.3719   26.1455 C   0  0  0  0  0  0
  -27.0384  -30.2992   24.6185 C   0  0  0  0  0  0
  -27.6103  -32.4297   25.7484 C   0  0  0  0  0  0
  -27.5603  -37.1800   24.8464 C   0  0  0  0  0  0
  -21.4222  -29.3075   22.3616 N   0  0  0  0  0  0
  -26.4317  -37.3774   23.9417 N   0  0  0  0  0  0
  -24.6909  -31.0630   22.0979 N   0  0  0  0  0  0
  -23.4231  -28.8145   23.2896 O   0  0  0  0  0  0
  -28.3234  -26.5047   20.1265 O   0  0  0  0  0  0
  -26.5597  -34.8923   22.4673 O   0  0  0  0  0  0
  -23.5439  -32.1411   23.7333 O   0  0  0  0  0  0
  -28.4820  -21.5535   20.3051 C   0  0  0  0  0  0
  -28.2236  -23.2731   21.9903 C   0  0  0  0  0  0
  -28.2415  -22.9270   20.6282 C   0  0  0  0  0  0
  -28.6275  -20.5820   21.3337 C   0  0  0  0  0  0
  -28.3628  -22.2581   22.9625 C   0  0  0  0  0  0
  -26.6463  -22.4748   24.8509 C   0  0  0  0  0  0
  -28.7676  -23.8473   24.9582 C   0  0  0  0  0  0
  -27.7221  -23.9382   19.5713 C   0  0  0  0  0  0
  -28.5798  -19.0373   21.0896 C   0  0  0  0  0  0
  -29.8312  -18.2874   20.5025 C   0  0  0  0  0  0
  -30.4296  -17.0519   21.2907 C   0  0  0  0  0  0
  -28.4214  -25.3219   19.2641 C   0  0  0  0  0  0
  -28.1365  -22.5352   24.4552 C   0  0  0  0  0  0
  -28.5733  -20.9567   22.6353 N   0  0  0  0  0  0
  -29.9364  -15.6624   21.0016 N   0  0  0  0  0  0
  -31.4664  -12.5349   19.1154 H   0  0  0  0  0  0
  -30.3926  -11.3823   19.8617 H   0  0  0  0  0  0
  -29.7455  -11.7678   17.4673 H   0  0  0  0  0  0
  -29.6401  -13.4840   17.7471 H   0  0  0  0  0  0
  -27.8501  -11.2936   18.8547 H   0  0  0  0  0  0
  -27.3676  -12.6083   17.8083 H   0  0  0  0  0  0
  -27.6773  -14.2533   19.5484 H   0  0  0  0  0  0
  -28.6949  -12.0518   21.4087 H   0  0  0  0  0  0
  -28.4460  -13.7200   21.8449 H   0  0  0  0  0  0
  -25.2765   -9.5683   22.4717 H   0  0  0  0  0  0
  -24.0030   -7.4628   22.7529 H   0  0  0  0  0  0
  -21.0814   -8.8664   19.8968 H   0  0  0  0  0  0
  -22.3629  -10.9601   19.6174 H   0  0  0  0  0  0
  -21.2032   -7.6160   23.9639 H   0  0  0  0  0  0
  -21.1487   -6.0572   25.9017 H   0  0  0  0  0  0
  -22.0618   -2.7627   23.2812 H   0  0  0  0  0  0
  -22.4306  -11.9985   22.4827 H   0  0  0  0  0  0
  -21.1120  -13.1143   22.2474 H   0  0  0  0  0  0
  -24.6206  -15.8107   20.4425 H   0  0  0  0  0  0
  -26.2540  -15.6296   20.0454 H   0  0  0  0  0  0
  -26.7201  -32.5404   23.1131 H   0  0  0  0  0  0
  -25.0220  -33.9725   25.0526 H   0  0  0  0  0  0
  -22.7194  -31.3144   21.3973 H   0  0  0  0  0  0
  -23.3779  -35.9630   23.3296 H   0  0  0  0  0  0
  -24.3638  -36.8919   22.2045 H   0  0  0  0  0  0
  -23.7251  -37.6518   23.6643 H   0  0  0  0  0  0
  -26.1194  -31.5449   20.6149 H   0  0  0  0  0  0
  -26.8467  -30.8154   22.0166 H   0  0  0  0  0  0
  -28.1073  -28.9455   21.1811 H   0  0  0  0  0  0
  -25.8931  -25.9230   19.0256 H   0  0  0  0  0  0
  -23.9185  -27.3078   19.0587 H   0  0  0  0  0  0
  -23.7908  -30.6216   19.4065 H   0  0  0  0  0  0
  -22.7519  -29.2919   19.8272 H   0  0  0  0  0  0
  -25.1288  -36.1996   25.0829 H   0  0  0  0  0  0
  -21.0034  -28.3267   24.1320 H   0  0  0  0  0  0
  -20.5653  -26.2322   23.3575 H   0  0  0  0  0  0
  -21.6660  -26.7379   22.1159 H   0  0  0  0  0  0
  -19.6934  -25.6281   21.1188 H   0  0  0  0  0  0
  -19.6674  -27.3182   20.6700 H   0  0  0  0  0  0
  -17.4208  -26.6635   21.4013 H   0  0  0  0  0  0
  -18.0364  -25.9994   22.8967 H   0  0  0  0  0  0
  -19.7969  -30.7193   24.2281 H   0  0  0  0  0  0
  -17.5060  -31.6216   24.5178 H   0  0  0  0  0  0
  -15.5386  -30.2991   23.7556 H   0  0  0  0  0  0
  -15.8706  -28.0773   22.7072 H   0  0  0  0  0  0
  -24.5898  -30.7110   25.7790 H   0  0  0  0  0  0
  -24.8958  -32.2869   26.4919 H   0  0  0  0  0  0
  -25.8022  -30.8859   27.0224 H   0  0  0  0  0  0
  -26.2942  -29.6712   24.1259 H   0  0  0  0  0  0
  -27.4184  -29.7291   25.4673 H   0  0  0  0  0  0
  -27.8785  -30.4350   23.9374 H   0  0  0  0  0  0
  -27.2756  -33.3608   26.2106 H   0  0  0  0  0  0
  -28.3876  -32.6848   25.0255 H   0  0  0  0  0  0
  -28.0844  -31.8392   26.5350 H   0  0  0  0  0  0
  -28.2589  -38.0120   24.7525 H   0  0  0  0  0  0
  -28.1127  -36.2648   24.6278 H   0  0  0  0  0  0
  -27.2325  -37.1432   25.8864 H   0  0  0  0  0  0
  -20.9392  -29.8956   21.6970 H   0  0  0  0  0  0
  -26.0227  -38.2873   24.1371 H   0  0  0  0  0  0
  -28.4566  -21.2137   19.2785 H   0  0  0  0  0  0
  -28.0140  -24.2942   22.2855 H   0  0  0  0  0  0
  -26.1375  -21.6217   24.4019 H   0  0  0  0  0  0
  -26.1070  -23.3750   24.5559 H   0  0  0  0  0  0
  -26.5474  -22.3849   25.9343 H   0  0  0  0  0  0
  -29.8404  -23.8784   24.7644 H   0  0  0  0  0  0
  -28.6334  -23.9452   26.0378 H   0  0  0  0  0  0
  -28.3200  -24.7232   24.4906 H   0  0  0  0  0  0
  -26.6732  -24.1053   19.8110 H   0  0  0  0  0  0
  -27.7004  -23.3945   18.6254 H   0  0  0  0  0  0
  -27.7250  -18.8482   20.4360 H   0  0  0  0  0  0
  -28.3131  -18.5563   22.0330 H   0  0  0  0  0  0
  -30.6275  -19.0306   20.4281 H   0  0  0  0  0  0
  -29.6384  -18.0089   19.4658 H   0  0  0  0  0  0
  -31.5038  -17.0646   21.0968 H   0  0  0  0  0  0
  -30.3365  -17.2486   22.3619 H   0  0  0  0  0  0
  -28.0443  -25.6378   18.2884 H   0  0  0  0  0  0
  -29.4727  -25.1166   19.0642 H   0  0  0  0  0  0
  -28.6335  -21.7266   24.9920 H   0  0  0  0  0  0
  -28.9809  -15.4530   21.2585 H   0  0  0  0  0  0
  1 25  1  0  0  0
  1 30  2  0  0  0
  1 85  1  0  0  0
  2  3  1  0  0  0
  2 25  1  0  0  0
  2 86  1  0  0  0
  2 87  1  0  0  0
  3  4  1  0  0  0
  3 88  1  0  0  0
  3 89  1  0  0  0
  4  5  1  0  0  0
  4 90  1  0  0  0
  4 91  1  0  0  0
  5  6  1  0  0  0
  5 26  1  0  0  0
  5 92  1  0  0  0
  6 25  1  0  0  0
  6 93  1  0  0  0
  6 94  1  0  0  0
  7  8  2  0  0  0
  7 26  1  0  0  0
  7 29  1  0  0  0
  8  9  1  0  0  0
  8 22  1  0  0  0
  9 10  1  0  0  0
  9 27  2  0  0  0
 10 11  2  0  0  0
 10 15  1  0  0  0
 11 12  1  0  0  0
 11 95  1  0  0  0
 12 13  2  0  0  0
 12 96  1  0  0  0
 13 14  1  0  0  0
 13 31  1  0  0  0
 14 15  2  0  0  0
 14 97  1  0  0  0
 15 98  1  0  0  0
 16 17  2  0  0  0
 16 21  1  0  0  0
 16 31  1  0  0  0
 17 18  1  0  0  0
 17 99  1  0  0  0
 18 19  2  0  0  0
 18100  1  0  0  0
 19 20  1  0  0  0
 19 24  1  0  0  0
 20 21  2  0  0  0
 20101  1  0  0  0
 21 23  1  0  0  0
 22 28  1  0  0  0
 22 32  2  0  0  0
 26 27  1  0  0  0
 28102  1  0  0  0
 28103  1  0  0  0
 29104  1  0  0  0
 29105  1  0  0  0
 33 34  1  0  0  0
 33 66  1  0  0  0
 33 70  2  0  0  0
 34 36  1  0  0  0
 34 59  1  0  0  0
 34106  1  0  0  0
 35 44  2  0  0  0
 35 45  1  0  0  0
 35 68  1  0  0  0
 36 56  1  0  0  0
 36107  1  0  0  0
 37 39  1  0  0  0
 37 47  1  0  0  0
 37 66  1  0  0  0
 37108  1  0  0  0
 38 43  2  0  0  0
 38 46  1  0  0  0
 38 47  1  0  0  0
 39 64  1  0  0  0
 39 67  2  0  0  0
 40 52  1  0  0  0
 40 53  2  0  0  0
 40 58  1  0  0  0
 41109  1  0  0  0
 41110  1  0  0  0
 41111  1  0  0  0
 41 48  1  0  0  0
 42 43  1  0  0  0
 42 66  1  0  0  0
 42112  1  0  0  0
 42113  1  0  0  0
 43 44  1  0  0  0
 44114  1  0  0  0
 45 46  2  0  0  0
 45115  1  0  0  0
 46116  1  0  0  0
 47117  1  0  0  0
 47118  1  0  0  0
 48 56  1  0  0  0
 48 65  1  0  0  0
 48119  1  0  0  0
 49 50  1  0  0  0
 49 53  1  0  0  0
 49 64  1  0  0  0
 49120  1  0  0  0
 50 51  1  0  0  0
 50121  1  0  0  0
 50122  1  0  0  0
 51 52  1  0  0  0
 51123  1  0  0  0
 51124  1  0  0  0
 52125  1  0  0  0
 52126  1  0  0  0
 53 54  1  0  0  0
 54 55  2  0  0  0
 54127  1  0  0  0
 55 57  1  0  0  0
 55128  1  0  0  0
 56 69  2  0  0  0
 57 58  2  0  0  0
 57129  1  0  0  0
 58130  1  0  0  0
 59 60  1  0  0  0
 59 61  1  0  0  0
 59 62  1  0  0  0
 60131  1  0  0  0
 60132  1  0  0  0
 60133  1  0  0  0
 61134  1  0  0  0
 61135  1  0  0  0
 61136  1  0  0  0
 62137  1  0  0  0
 62138  1  0  0  0
 62139  1  0  0  0
 63 65  1  0  0  0
 63140  1  0  0  0
 63141  1  0  0  0
 63142  1  0  0  0
 64143  1  0  0  0
 65144  1  0  0  0
 68 82  1  0  0  0
 71 73  2  0  0  0
 71 74  1  0  0  0
 71145  1  0  0  0
 72 73  1  0  0  0
 72 75  2  0  0  0
 72146  1  0  0  0
 73 78  1  0  0  0
 74 79  1  0  0  0
 74 84  2  0  0  0
 75 83  1  0  0  0
 75 84  1  0  0  0
 76147  1  0  0  0
 76148  1  0  0  0
 76149  1  0  0  0
 76 83  1  0  0  0
 77 83  1  0  0  0
 77150  1  0  0  0
 77151  1  0  0  0
 77152  1  0  0  0
 78 82  1  0  0  0
 78153  1  0  0  0
 78154  1  0  0  0
 79 80  1  0  0  0
 79155  1  0  0  0
 79156  1  0  0  0
 80 81  1  0  0  0
 80157  1  0  0  0
 80158  1  0  0  0
 81 85  1  0  0  0
 81159  1  0  0  0
 81160  1  0  0  0
 82161  1  0  0  0
 82162  1  0  0  0
 83163  1  0  0  0
 85164  1  0  0  0
M  ISO  4   1 100  68 101  82 101  85 100
M  END
> <chiral flag>
0

> <version>
0

> <s_m_source_file>
/data/baiqing/PycharmProjects/Reinvent-master-3.2/result/LINK_invent/BTK/process_docking_weight1_custom_sum_contain_oxygen_bond_distance_aromatic_linkinvent_7_9_3/rearranged_h_0046.sdf

> <i_m_source_file_index>
5

> <r_mmod_Potential_Energy-OPLS-2005>
-125.202011108398

> <r_mmod_Stretch_Energy-OPLS-2005>
65.4928970336914

> <r_mmod_Bend_Energy-OPLS-2005>
155.74494934082

> <r_mmod_Torsional_Energy-OPLS-2005>
214.571136474609

> <r_mmod_Improper_Torsional_Energy-OPLS-2005>
7.20679092407227

> <r_mmod_Van_der_Waal_Energy-OPLS-2005>
145.95573425293

> <r_mmod_Electrostatic_Energy-OPLS-2005>
-537.813659667969

> <r_mmod_Solvation_Energy-OPLS-2005>
-217.925094604492

> <b_mmod_Minimization_Converged-OPLS-2005>
0

> <r_mmod_RMS_Derivative-OPLS-2005>
6.71508550643921

$$$$
5
                    3D
 Structure written by MMmdl.
164172  0  0  1  0            999 V2000
  -30.6111  -14.6859   20.4800 C   0  0  0  0  0  0
  -30.4375  -12.4235   19.4507 C   0  0  0  0  0  0
  -29.5019  -12.4994   18.2234 C   0  0  0  0  0  0
  -28.0269  -12.3297   18.6389 C   0  0  0  0  0  0
  -27.6443  -13.2186   19.8517 C   0  0  2  0  0  0
  -28.6921  -13.1088   20.9803 C   0  0  0  0  0  0
  -25.2528  -13.8179   20.5687 C   0  0  0  0  0  0
  -24.1809  -13.0445   20.9199 C   0  0  0  0  0  0
  -24.6378  -11.6912   20.8748 C   0  0  0  0  0  0
  -23.9060  -10.4295   21.0415 C   0  0  0  0  0  0
  -24.3613   -9.4204   21.9191 C   0  0  0  0  0  0
  -23.6287   -8.2241   22.0750 C   0  0  0  0  0  0
  -22.4273   -8.0281   21.3541 C   0  0  0  0  0  0
  -21.9913   -9.0253   20.4642 C   0  0  0  0  0  0
  -22.7240  -10.2131   20.3053 C   0  0  0  0  0  0
  -21.6856   -6.0733   22.5284 C   0  0  0  0  0  0
  -21.4017   -6.5633   23.8217 C   0  0  0  0  0  0
  -21.3656   -5.6783   24.9179 C   0  0  0  0  0  0
  -21.6043   -4.3045   24.7228 C   0  0  0  0  0  0
  -21.8819   -3.8141   23.4346 C   0  0  0  0  0  0
  -21.9192   -4.6963   22.3404 C   0  0  0  0  0  0
  -22.7823  -13.5226   21.1857 C   0  0  0  0  0  0
  -22.1660   -4.2147   21.0983 F   0  0  0  0  0  0
  -21.5628   -3.4525   25.7740 F   0  0  0  0  0  0
  -29.9964  -13.4617   20.4026 N   0  0  0  0  0  0
  -26.2939  -12.9356   20.3284 N   0  0  0  0  0  0
  -25.9303  -11.6511   20.5761 N   0  0  0  0  0  0
  -22.0474  -12.8214   22.0412 N   0  0  0  0  0  0
  -25.4235  -15.1905   20.4105 N   0  0  0  0  0  0
  -31.7973  -14.8232   20.1699 O   0  0  0  0  0  0
  -21.6633   -6.8879   21.4247 O   0  0  0  0  0  0
  -22.3496  -14.5524   20.6694 O   0  0  0  0  0  0
  -24.6281  -31.8587   23.2016 C   0  0  0  0  0  0
  -25.9116  -32.4775   23.8349 C   0  0  1  0  0  0
  -27.2167  -27.2797   20.1234 C   0  0  0  0  0  0
  -25.5921  -33.8577   24.2276 N   0  0  0  0  0  0
  -23.4237  -30.4827   21.5464 C   0  0  2  0  0  0
  -24.8708  -28.9352   20.1154 C   0  0  0  0  0  0
  -22.7485  -29.4616   22.4932 C   0  0  0  0  0  0
  -18.0280  -28.1376   22.8486 C   0  0  0  0  0  0
  -24.1488  -36.7279   23.2642 C   0  0  0  0  0  0
  -25.9702  -30.7777   21.3799 C   0  0  0  0  0  0
  -26.0434  -29.4015   20.7221 C   0  0  0  0  0  0
  -27.2202  -28.5857   20.7165 C   0  0  0  0  0  0
  -26.0199  -26.8838   19.4824 C   0  0  0  0  0  0
  -24.8636  -27.6835   19.4852 C   0  0  0  0  0  0
  -23.6414  -29.8193   20.1633 C   0  0  0  0  0  0
  -25.4113  -36.3083   24.0337 C   0  0  1  0  0  0
  -20.5889  -28.3680   23.1283 C   0  0  2  0  0  0
  -20.6770  -26.9396   22.5415 C   0  0  0  0  0  0
  -19.5747  -26.6376   21.5211 C   0  0  0  0  0  0
  -18.1926  -26.7919   22.1620 C   0  0  0  0  0  0
  -19.1539  -28.8840   23.2879 C   0  0  0  0  0  0
  -18.9464  -30.1444   23.8895 C   0  0  0  0  0  0
  -17.6467  -30.6584   24.0552 C   0  0  0  0  0  0
  -25.9057  -34.9452   23.5112 C   0  0  0  0  0  0
  -16.5356  -29.9084   23.6328 C   0  0  0  0  0  0
  -16.7272  -28.6498   23.0360 C   0  0  0  0  0  0
  -26.4496  -31.6593   25.0724 C   0  0  0  0  0  0
  -25.3714  -31.3739   26.1440 C   0  0  0  0  0  0
  -27.0355  -30.3017   24.6200 C   0  0  0  0  0  0
  -27.6054  -32.4335   25.7481 C   0  0  0  0  0  0
  -27.5578  -37.1793   24.8470 C   0  0  0  0  0  0
  -21.4193  -29.3034   22.3674 N   0  0  0  0  0  0
  -26.4291  -37.3779   23.9414 N   0  0  0  0  0  0
  -24.6928  -31.0571   22.0985 N   0  0  0  0  0  0
  -23.4201  -28.8141   23.3005 O   0  0  0  0  0  0
  -28.3164  -26.3932   20.1603 O   0  0  0  0  0  0
  -26.5633  -34.8925   22.4685 O   0  0  0  0  0  0
  -23.5441  -32.1397   23.7331 O   0  0  0  0  0  0
  -29.3991  -21.1108   20.2003 C   0  0  0  0  0  0
  -28.0483  -22.1279   21.9159 C   0  0  0  0  0  0
  -28.8712  -22.3249   20.7894 C   0  0  0  0  0  0
  -29.0769  -19.8055   20.7356 C   0  0  0  0  0  0
  -27.7532  -20.8276   22.3870 C   0  0  0  0  0  0
  -25.4272  -20.0985   22.9772 C   0  0  0  0  0  0
  -26.5259  -21.8379   24.4045 C   0  0  0  0  0  0
  -27.3386  -19.5014   24.5132 C   0  0  0  0  0  0
  -29.1989  -23.8141   20.3367 C   0  0  0  0  0  0
  -29.4241  -18.3914   20.1009 C   0  0  0  0  0  0
  -30.1198  -17.2389   20.9881 C   0  0  0  0  0  0
  -28.0335  -24.9257   20.3057 C   0  0  0  0  0  0
  -26.7752  -20.5728   23.5529 C   0  0  0  0  0  0
  -28.2386  -19.7151   21.7867 N   0  0  0  0  0  0
  -29.8037  -15.7727   20.7252 N   0  0  0  0  0  0
  -31.4732  -12.5686   19.1399 H   0  0  0  0  0  0
  -30.3964  -11.4376   19.9168 H   0  0  0  0  0  0
  -29.7749  -11.7353   17.4944 H   0  0  0  0  0  0
  -29.6295  -13.4605   17.7236 H   0  0  0  0  0  0
  -27.8762  -11.2784   18.8879 H   0  0  0  0  0  0
  -27.3691  -12.5374   17.7942 H   0  0  0  0  0  0
  -27.6507  -14.2457   19.4861 H   0  0  0  0  0  0
  -28.7200  -12.0943   21.3809 H   0  0  0  0  0  0
  -28.4336  -13.7578   21.8184 H   0  0  0  0  0  0
  -25.2764   -9.5675   22.4759 H   0  0  0  0  0  0
  -23.9995   -7.4625   22.7455 H   0  0  0  0  0  0
  -21.0850   -8.8769   19.8942 H   0  0  0  0  0  0
  -22.3717  -10.9667   19.6147 H   0  0  0  0  0  0
  -21.2013   -7.6141   23.9729 H   0  0  0  0  0  0
  -21.1475   -6.0512   25.9083 H   0  0  0  0  0  0
  -22.0600   -2.7602   23.2848 H   0  0  0  0  0  0
  -22.4112  -11.9891   22.4816 H   0  0  0  0  0  0
  -21.1080  -13.1209   22.2619 H   0  0  0  0  0  0
  -24.6563  -15.8429   20.5280 H   0  0  0  0  0  0
  -26.2697  -15.6344   20.0786 H   0  0  0  0  0  0
  -26.7179  -32.5444   23.1091 H   0  0  0  0  0  0
  -25.0055  -33.9719   25.0416 H   0  0  0  0  0  0
  -22.7190  -31.3045   21.4026 H   0  0  0  0  0  0
  -23.3767  -35.9596   23.3305 H   0  0  0  0  0  0
  -24.3567  -36.8898   22.2054 H   0  0  0  0  0  0
  -23.7232  -37.6477   23.6664 H   0  0  0  0  0  0
  -26.1112  -31.5396   20.6118 H   0  0  0  0  0  0
  -26.8468  -30.8243   22.0144 H   0  0  0  0  0  0
  -28.1188  -28.9351   21.2061 H   0  0  0  0  0  0
  -25.9417  -25.9414   18.9653 H   0  0  0  0  0  0
  -23.9670  -27.3234   18.9992 H   0  0  0  0  0  0
  -23.7682  -30.5971   19.4099 H   0  0  0  0  0  0
  -22.7596  -29.2539   19.8573 H   0  0  0  0  0  0
  -25.1293  -36.1934   25.0831 H   0  0  0  0  0  0
  -20.9983  -28.3258   24.1402 H   0  0  0  0  0  0
  -20.5664  -26.2275   23.3611 H   0  0  0  0  0  0
  -21.6635  -26.7419   22.1201 H   0  0  0  0  0  0
  -19.6908  -25.6288   21.1235 H   0  0  0  0  0  0
  -19.6691  -27.3183   20.6741 H   0  0  0  0  0  0
  -17.4188  -26.6665   21.4030 H   0  0  0  0  0  0
  -18.0327  -26.0061   22.9017 H   0  0  0  0  0  0
  -19.7944  -30.7249   24.2266 H   0  0  0  0  0  0
  -17.5034  -31.6268   24.5142 H   0  0  0  0  0  0
  -15.5357  -30.2994   23.7657 H   0  0  0  0  0  0
  -15.8663  -28.0818   22.7093 H   0  0  0  0  0  0
  -24.5890  -30.7091   25.7756 H   0  0  0  0  0  0
  -24.8896  -32.2904   26.4859 H   0  0  0  0  0  0
  -25.8025  -30.8919   27.0221 H   0  0  0  0  0  0
  -26.2958  -29.6772   24.1183 H   0  0  0  0  0  0
  -27.4013  -29.7260   25.4711 H   0  0  0  0  0  0
  -27.8839  -30.4307   23.9474 H   0  0  0  0  0  0
  -27.2669  -33.3645   26.2037 H   0  0  0  0  0  0
  -28.3863  -32.6881   25.0298 H   0  0  0  0  0  0
  -28.0727  -31.8476   26.5403 H   0  0  0  0  0  0
  -28.2597  -38.0090   24.7517 H   0  0  0  0  0  0
  -28.1068  -36.2618   24.6292 H   0  0  0  0  0  0
  -27.2286  -37.1445   25.8871 H   0  0  0  0  0  0
  -20.9359  -29.8763   21.6897 H   0  0  0  0  0  0
  -26.0179  -38.2855   24.1424 H   0  0  0  0  0  0
  -30.0332  -21.1782   19.3264 H   0  0  0  0  0  0
  -27.6379  -22.9915   22.4133 H   0  0  0  0  0  0
  -25.0071  -20.8463   22.3036 H   0  0  0  0  0  0
  -24.6966  -19.9080   23.7627 H   0  0  0  0  0  0
  -25.5420  -19.1768   22.4064 H   0  0  0  0  0  0
  -26.0442  -22.6319   23.8349 H   0  0  0  0  0  0
  -27.4599  -22.2305   24.8092 H   0  0  0  0  0  0
  -25.8715  -21.6241   25.2501 H   0  0  0  0  0  0
  -27.4756  -18.5415   24.0155 H   0  0  0  0  0  0
  -26.6686  -19.3273   25.3552 H   0  0  0  0  0  0
  -28.3071  -19.8024   24.9144 H   0  0  0  0  0  0
  -29.6657  -23.7740   19.3523 H   0  0  0  0  0  0
  -29.9767  -24.1695   21.0114 H   0  0  0  0  0  0
  -30.0318  -18.5596   19.2113 H   0  0  0  0  0  0
  -28.4787  -18.0007   19.7231 H   0  0  0  0  0  0
  -29.7987  -17.3974   22.0178 H   0  0  0  0  0  0
  -31.1995  -17.3911   21.0001 H   0  0  0  0  0  0
  -27.4562  -24.8416   21.2259 H   0  0  0  0  0  0
  -27.3746  -24.5876   19.5099 H   0  0  0  0  0  0
  -28.8392  -15.5232   20.8815 H   0  0  0  0  0  0
  1 25  1  0  0  0
  1 30  2  0  0  0
  1 85  1  0  0  0
  2  3  1  0  0  0
  2 25  1  0  0  0
  2 86  1  0  0  0
  2 87  1  0  0  0
  3  4  1  0  0  0
  3 88  1  0  0  0
  3 89  1  0  0  0
  4  5  1  0  0  0
  4 90  1  0  0  0
  4 91  1  0  0  0
  5  6  1  0  0  0
  5 26  1  0  0  0
  5 92  1  0  0  0
  6 25  1  0  0  0
  6 93  1  0  0  0
  6 94  1  0  0  0
  7  8  2  0  0  0
  7 26  1  0  0  0
  7 29  1  0  0  0
  8  9  1  0  0  0
  8 22  1  0  0  0
  9 10  1  0  0  0
  9 27  2  0  0  0
 10 11  2  0  0  0
 10 15  1  0  0  0
 11 12  1  0  0  0
 11 95  1  0  0  0
 12 13  2  0  0  0
 12 96  1  0  0  0
 13 14  1  0  0  0
 13 31  1  0  0  0
 14 15  2  0  0  0
 14 97  1  0  0  0
 15 98  1  0  0  0
 16 17  2  0  0  0
 16 21  1  0  0  0
 16 31  1  0  0  0
 17 18  1  0  0  0
 17 99  1  0  0  0
 18 19  2  0  0  0
 18100  1  0  0  0
 19 20  1  0  0  0
 19 24  1  0  0  0
 20 21  2  0  0  0
 20101  1  0  0  0
 21 23  1  0  0  0
 22 28  1  0  0  0
 22 32  2  0  0  0
 26 27  1  0  0  0
 28102  1  0  0  0
 28103  1  0  0  0
 29104  1  0  0  0
 29105  1  0  0  0
 33 34  1  0  0  0
 33 66  1  0  0  0
 33 70  2  0  0  0
 34 36  1  0  0  0
 34 59  1  0  0  0
 34106  1  0  0  0
 35 44  2  0  0  0
 35 45  1  0  0  0
 35 68  1  0  0  0
 36 56  1  0  0  0
 36107  1  0  0  0
 37 39  1  0  0  0
 37 47  1  0  0  0
 37 66  1  0  0  0
 37108  1  0  0  0
 38 43  2  0  0  0
 38 46  1  0  0  0
 38 47  1  0  0  0
 39 64  1  0  0  0
 39 67  2  0  0  0
 40 52  1  0  0  0
 40 53  2  0  0  0
 40 58  1  0  0  0
 41109  1  0  0  0
 41110  1  0  0  0
 41111  1  0  0  0
 41 48  1  0  0  0
 42 43  1  0  0  0
 42 66  1  0  0  0
 42112  1  0  0  0
 42113  1  0  0  0
 43 44  1  0  0  0
 44114  1  0  0  0
 45 46  2  0  0  0
 45115  1  0  0  0
 46116  1  0  0  0
 47117  1  0  0  0
 47118  1  0  0  0
 48 56  1  0  0  0
 48 65  1  0  0  0
 48119  1  0  0  0
 49 50  1  0  0  0
 49 53  1  0  0  0
 49 64  1  0  0  0
 49120  1  0  0  0
 50 51  1  0  0  0
 50121  1  0  0  0
 50122  1  0  0  0
 51 52  1  0  0  0
 51123  1  0  0  0
 51124  1  0  0  0
 52125  1  0  0  0
 52126  1  0  0  0
 53 54  1  0  0  0
 54 55  2  0  0  0
 54127  1  0  0  0
 55 57  1  0  0  0
 55128  1  0  0  0
 56 69  2  0  0  0
 57 58  2  0  0  0
 57129  1  0  0  0
 58130  1  0  0  0
 59 60  1  0  0  0
 59 61  1  0  0  0
 59 62  1  0  0  0
 60131  1  0  0  0
 60132  1  0  0  0
 60133  1  0  0  0
 61134  1  0  0  0
 61135  1  0  0  0
 61136  1  0  0  0
 62137  1  0  0  0
 62138  1  0  0  0
 62139  1  0  0  0
 63 65  1  0  0  0
 63140  1  0  0  0
 63141  1  0  0  0
 63142  1  0  0  0
 64143  1  0  0  0
 65144  1  0  0  0
 68 82  1  0  0  0
 71 73  2  0  0  0
 71 74  1  0  0  0
 71145  1  0  0  0
 72 73  1  0  0  0
 72 75  2  0  0  0
 72146  1  0  0  0
 73 79  1  0  0  0
 74 80  1  0  0  0
 74 84  2  0  0  0
 75 83  1  0  0  0
 75 84  1  0  0  0
 76147  1  0  0  0
 76148  1  0  0  0
 76149  1  0  0  0
 76 83  1  0  0  0
 77 83  1  0  0  0
 77150  1  0  0  0
 77151  1  0  0  0
 77152  1  0  0  0
 78 83  1  0  0  0
 78153  1  0  0  0
 78154  1  0  0  0
 78155  1  0  0  0
 79 82  1  0  0  0
 79156  1  0  0  0
 79157  1  0  0  0
 80 81  1  0  0  0
 80158  1  0  0  0
 80159  1  0  0  0
 81 85  1  0  0  0
 81160  1  0  0  0
 81161  1  0  0  0
 82162  1  0  0  0
 82163  1  0  0  0
 85164  1  0  0  0
M  ISO  4   1 100  68 101  82 101  85 100
M  END
> <chiral flag>
0

> <version>
0

> <s_m_source_file>
/data/baiqing/PycharmProjects/Reinvent-master-3.2/result/LINK_invent/BTK/process_docking_weight1_custom_sum_contain_oxygen_bond_distance_aromatic_linkinvent_7_9_3/rearranged_h_0046.sdf

> <i_m_source_file_index>
6

> <r_mmod_Potential_Energy-OPLS-2005>
-51.1062927246094

> <r_mmod_Stretch_Energy-OPLS-2005>
107.182495117188

> <r_mmod_Bend_Energy-OPLS-2005>
160.266189575195

> <r_mmod_Torsional_Energy-OPLS-2005>
201.852600097656

> <r_mmod_Improper_Torsional_Energy-OPLS-2005>
5.3647289276123

> <r_mmod_Van_der_Waal_Energy-OPLS-2005>
149.469665527344

> <r_mmod_Electrostatic_Energy-OPLS-2005>
-534.977722167969

> <r_mmod_Solvation_Energy-OPLS-2005>
-208.241958618164

> <b_mmod_Minimization_Converged-OPLS-2005>
0

> <r_mmod_RMS_Derivative-OPLS-2005>
1.49885058403015

$$$$
6
                    3D
 Structure written by MMmdl.
164172  0  0  1  0            999 V2000
  -30.4825  -15.2435   20.3166 C   0  0  0  0  0  0
  -30.4306  -12.7807   19.5222 C   0  0  0  0  0  0
  -29.5302  -12.5537   18.2834 C   0  0  0  0  0  0
  -28.0800  -12.2699   18.7133 C   0  0  0  0  0  0
  -27.6005  -13.2558   19.8055 C   0  0  2  0  0  0
  -28.6360  -13.4772   20.9273 C   0  0  0  0  0  0
  -25.2346  -13.8170   20.5724 C   0  0  0  0  0  0
  -24.1710  -13.0385   20.9277 C   0  0  0  0  0  0
  -24.6358  -11.6883   20.8781 C   0  0  0  0  0  0
  -23.9060  -10.4261   21.0421 C   0  0  0  0  0  0
  -24.3618   -9.4183   21.9194 C   0  0  0  0  0  0
  -23.6291   -8.2224   22.0756 C   0  0  0  0  0  0
  -22.4269   -8.0266   21.3551 C   0  0  0  0  0  0
  -21.9900   -9.0236   20.4645 C   0  0  0  0  0  0
  -22.7235  -10.2116   20.3060 C   0  0  0  0  0  0
  -21.6841   -6.0724   22.5283 C   0  0  0  0  0  0
  -21.4001   -6.5629   23.8221 C   0  0  0  0  0  0
  -21.3658   -5.6783   24.9182 C   0  0  0  0  0  0
  -21.6046   -4.3048   24.7222 C   0  0  0  0  0  0
  -21.8821   -3.8140   23.4345 C   0  0  0  0  0  0
  -21.9191   -4.6956   22.3399 C   0  0  0  0  0  0
  -22.7739  -13.5158   21.1923 C   0  0  0  0  0  0
  -22.1662   -4.2143   21.0977 F   0  0  0  0  0  0
  -21.5640   -3.4530   25.7738 F   0  0  0  0  0  0
  -29.8798  -13.9515   20.2980 N   0  0  0  0  0  0
  -26.2761  -12.9413   20.3172 N   0  0  0  0  0  0
  -25.9286  -11.6543   20.5719 N   0  0  0  0  0  0
  -22.0382  -12.8157   22.0479 N   0  0  0  0  0  0
  -25.3893  -15.1903   20.4145 N   0  0  0  0  0  0
  -31.7181  -15.1242   20.2728 O   0  0  0  0  0  0
  -21.6625   -6.8865   21.4248 O   0  0  0  0  0  0
  -22.3425  -14.5453   20.6746 O   0  0  0  0  0  0
  -24.6595  -31.8270   23.1727 C   0  0  0  0  0  0
  -25.9291  -32.4603   23.8195 C   0  0  1  0  0  0
  -27.2206  -26.9700   20.1831 C   0  0  0  0  0  0
  -25.5983  -33.8421   24.2101 N   0  0  0  0  0  0
  -23.4726  -30.4394   21.5203 C   0  0  2  0  0  0
  -24.9251  -28.8309   20.1120 C   0  0  0  0  0  0
  -22.7645  -29.4457   22.4789 C   0  0  0  0  0  0
  -18.0322  -28.1401   22.8462 C   0  0  0  0  0  0
  -24.1487  -36.7223   23.2649 C   0  0  0  0  0  0
  -26.0381  -30.6478   21.3958 C   0  0  0  0  0  0
  -26.1068  -29.2406   20.7426 C   0  0  0  0  0  0
  -27.2505  -28.3297   20.7545 C   0  0  0  0  0  0
  -26.0122  -26.6997   19.5049 C   0  0  0  0  0  0
  -24.9003  -27.5802   19.4748 C   0  0  0  0  0  0
  -23.7090  -29.7535   20.1462 C   0  0  0  0  0  0
  -25.4127  -36.2979   24.0298 C   0  0  1  0  0  0
  -20.5939  -28.3747   23.1189 C   0  0  2  0  0  0
  -20.6793  -26.9431   22.5394 C   0  0  0  0  0  0
  -19.5773  -26.6372   21.5200 C   0  0  0  0  0  0
  -18.1957  -26.7932   22.1615 C   0  0  0  0  0  0
  -19.1581  -28.8894   23.2812 C   0  0  0  0  0  0
  -18.9497  -30.1485   23.8847 C   0  0  0  0  0  0
  -17.6491  -30.6594   24.0556 C   0  0  0  0  0  0
  -25.9091  -34.9362   23.5018 C   0  0  0  0  0  0
  -16.5379  -29.9082   23.6342 C   0  0  0  0  0  0
  -16.7302  -28.6499   23.0364 C   0  0  0  0  0  0
  -26.4550  -31.6535   25.0711 C   0  0  0  0  0  0
  -25.3684  -31.3797   26.1378 C   0  0  0  0  0  0
  -27.0441  -30.2904   24.6419 C   0  0  0  0  0  0
  -27.6047  -32.4341   25.7510 C   0  0  0  0  0  0
  -27.5566  -37.1772   24.8464 C   0  0  0  0  0  0
  -21.4319  -29.3050   22.3545 N   0  0  0  0  0  0
  -26.4278  -37.3712   23.9400 N   0  0  0  0  0  0
  -24.7445  -30.9976   22.0835 N   0  0  0  0  0  0
  -23.4202  -28.8015   23.3013 O   0  0  0  0  0  0
  -28.2349  -25.8936   20.2717 O   0  0  0  0  0  0
  -26.5698  -34.8891   22.4610 O   0  0  0  0  0  0
  -23.5679  -32.1219   23.6845 O   0  0  0  0  0  0
  -29.1333  -19.6967   21.1371 C   0  0  0  0  0  0
  -28.7604  -20.0193   22.4813 C   0  0  0  0  0  0
  -29.6142  -18.1837   21.0580 C   0  0  0  0  0  0
  -29.5503  -18.0829   23.3803 C   0  0  0  0  0  0
  -27.9167  -21.2198   22.8941 C   0  0  0  0  0  0
  -29.8087  -17.2473   24.6139 C   0  0  0  0  0  0
  -30.5752  -18.7362   18.2076 C   0  0  0  0  0  0
  -28.4503  -16.6688   19.3541 C   0  0  0  0  0  0
  -28.7797  -21.0702   20.1402 C   0  0  0  0  0  0
  -30.8027  -17.3568   18.8413 C   0  0  0  0  0  0
  -28.9635  -22.8368   20.4509 C   0  0  0  0  0  0
  -27.9930  -24.2882   20.0869 C   0  0  0  0  0  0
  -29.8373  -16.8758   19.9726 C   0  0  2  0  0  0
  -29.0049  -19.2560   23.5525 N   0  0  0  0  0  0
  -29.8241  -17.5416   22.2209 N   0  0  0  0  0  0
  -31.4565  -12.9550   19.1944 H   0  0  0  0  0  0
  -30.4718  -11.8831   20.1424 H   0  0  0  0  0  0
  -29.9114  -11.7293   17.6793 H   0  0  0  0  0  0
  -29.5593  -13.4406   17.6491 H   0  0  0  0  0  0
  -28.0466  -11.2510   19.1004 H   0  0  0  0  0  0
  -27.4116  -12.2944   17.8521 H   0  0  0  0  0  0
  -27.4835  -14.1912   19.2723 H   0  0  0  0  0  0
  -28.7989  -12.5629   21.5006 H   0  0  0  0  0  0
  -28.2778  -14.2285   21.6331 H   0  0  0  0  0  0
  -25.2772   -9.5665   22.4764 H   0  0  0  0  0  0
  -24.0004   -7.4602   22.7457 H   0  0  0  0  0  0
  -21.0840   -8.8758   19.8934 H   0  0  0  0  0  0
  -22.3703  -10.9662   19.6169 H   0  0  0  0  0  0
  -21.1981   -7.6136   23.9723 H   0  0  0  0  0  0
  -21.1484   -6.0509   25.9089 H   0  0  0  0  0  0
  -22.0599   -2.7594   23.2847 H   0  0  0  0  0  0
  -22.3993  -11.9834   22.4908 H   0  0  0  0  0  0
  -21.0995  -13.1190   22.2652 H   0  0  0  0  0  0
  -24.6133  -15.8327   20.5316 H   0  0  0  0  0  0
  -26.2233  -15.6390   20.0624 H   0  0  0  0  0  0
  -26.7363  -32.5144   23.0919 H   0  0  0  0  0  0
  -25.0088  -33.9508   25.0226 H   0  0  0  0  0  0
  -22.7847  -31.2703   21.3508 H   0  0  0  0  0  0
  -23.3752  -35.9551   23.3281 H   0  0  0  0  0  0
  -24.3565  -36.8896   22.2069 H   0  0  0  0  0  0
  -23.7240  -37.6407   23.6716 H   0  0  0  0  0  0
  -26.2129  -31.3887   20.6146 H   0  0  0  0  0  0
  -26.9022  -30.7057   22.0461 H   0  0  0  0  0  0
  -28.1463  -28.6385   21.2751 H   0  0  0  0  0  0
  -25.8934  -25.7413   19.0200 H   0  0  0  0  0  0
  -23.9998  -27.2593   18.9701 H   0  0  0  0  0  0
  -23.8613  -30.5219   19.3876 H   0  0  0  0  0  0
  -22.8200  -29.2045   19.8303 H   0  0  0  0  0  0
  -25.1319  -36.1791   25.0790 H   0  0  0  0  0  0
  -21.0041  -28.3350   24.1306 H   0  0  0  0  0  0
  -20.5669  -26.2362   23.3630 H   0  0  0  0  0  0
  -21.6659  -26.7397   22.1210 H   0  0  0  0  0  0
  -19.6937  -25.6267   21.1270 H   0  0  0  0  0  0
  -19.6721  -27.3147   20.6701 H   0  0  0  0  0  0
  -17.4222  -26.6672   21.4021 H   0  0  0  0  0  0
  -18.0366  -26.0079   22.9024 H   0  0  0  0  0  0
  -19.7977  -30.7315   24.2189 H   0  0  0  0  0  0
  -17.5048  -31.6269   24.5172 H   0  0  0  0  0  0
  -15.5383  -30.2980   23.7688 H   0  0  0  0  0  0
  -15.8698  -28.0805   22.7113 H   0  0  0  0  0  0
  -24.5855  -30.7149   25.7697 H   0  0  0  0  0  0
  -24.8888  -32.3013   26.4700 H   0  0  0  0  0  0
  -25.7925  -30.9037   27.0228 H   0  0  0  0  0  0
  -26.3105  -29.6591   24.1394 H   0  0  0  0  0  0
  -27.3948  -29.7259   25.5069 H   0  0  0  0  0  0
  -27.9048  -30.4084   23.9830 H   0  0  0  0  0  0
  -27.2605  -33.3672   26.1982 H   0  0  0  0  0  0
  -28.3917  -32.6862   25.0385 H   0  0  0  0  0  0
  -28.0645  -31.8545   26.5525 H   0  0  0  0  0  0
  -28.2571  -38.0079   24.7504 H   0  0  0  0  0  0
  -28.1078  -36.2613   24.6296 H   0  0  0  0  0  0
  -27.2291  -37.1413   25.8870 H   0  0  0  0  0  0
  -20.9567  -29.8750   21.6690 H   0  0  0  0  0  0
  -26.0131  -38.2771   24.1416 H   0  0  0  0  0  0
  -27.2770  -21.6107   22.1058 H   0  0  0  0  0  0
  -28.5470  -22.0119   23.2939 H   0  0  0  0  0  0
  -27.2319  -20.9397   23.6965 H   0  0  0  0  0  0
  -29.1074  -17.4994   25.4095 H   0  0  0  0  0  0
  -30.8196  -17.4206   24.9810 H   0  0  0  0  0  0
  -29.7012  -16.1837   24.3979 H   0  0  0  0  0  0
  -31.1784  -18.8445   17.3055 H   0  0  0  0  0  0
  -30.8987  -19.5240   18.8851 H   0  0  0  0  0  0
  -29.5367  -18.9029   17.9252 H   0  0  0  0  0  0
  -27.7612  -16.3283   20.1212 H   0  0  0  0  0  0
  -28.4744  -15.9516   18.5363 H   0  0  0  0  0  0
  -28.0435  -17.5976   18.9589 H   0  0  0  0  0  0
  -27.7253  -20.9338   19.8964 H   0  0  0  0  0  0
  -29.2662  -20.9023   19.1845 H   0  0  0  0  0  0
  -31.8193  -17.3796   19.2351 H   0  0  0  0  0  0
  -30.8135  -16.6139   18.0422 H   0  0  0  0  0  0
  -29.9220  -23.0587   19.9798 H   0  0  0  0  0  0
  -29.2194  -22.9538   21.4989 H   0  0  0  0  0  0
  -27.0434  -24.1108   20.5940 H   0  0  0  0  0  0
  -27.7493  -24.1902   19.0297 H   0  0  0  0  0  0
  1 25  1  0  0  0
  1 30  2  0  0  0
  1 83  1  0  0  0
  2  3  1  0  0  0
  2 25  1  0  0  0
  2 86  1  0  0  0
  2 87  1  0  0  0
  3  4  1  0  0  0
  3 88  1  0  0  0
  3 89  1  0  0  0
  4  5  1  0  0  0
  4 90  1  0  0  0
  4 91  1  0  0  0
  5  6  1  0  0  0
  5 26  1  0  0  0
  5 92  1  0  0  0
  6 25  1  0  0  0
  6 93  1  0  0  0
  6 94  1  0  0  0
  7  8  2  0  0  0
  7 26  1  0  0  0
  7 29  1  0  0  0
  8  9  1  0  0  0
  8 22  1  0  0  0
  9 10  1  0  0  0
  9 27  2  0  0  0
 10 11  2  0  0  0
 10 15  1  0  0  0
 11 12  1  0  0  0
 11 95  1  0  0  0
 12 13  2  0  0  0
 12 96  1  0  0  0
 13 14  1  0  0  0
 13 31  1  0  0  0
 14 15  2  0  0  0
 14 97  1  0  0  0
 15 98  1  0  0  0
 16 17  2  0  0  0
 16 21  1  0  0  0
 16 31  1  0  0  0
 17 18  1  0  0  0
 17 99  1  0  0  0
 18 19  2  0  0  0
 18100  1  0  0  0
 19 20  1  0  0  0
 19 24  1  0  0  0
 20 21  2  0  0  0
 20101  1  0  0  0
 21 23  1  0  0  0
 22 28  1  0  0  0
 22 32  2  0  0  0
 26 27  1  0  0  0
 28102  1  0  0  0
 28103  1  0  0  0
 29104  1  0  0  0
 29105  1  0  0  0
 33 34  1  0  0  0
 33 66  1  0  0  0
 33 70  2  0  0  0
 34 36  1  0  0  0
 34 59  1  0  0  0
 34106  1  0  0  0
 35 44  2  0  0  0
 35 45  1  0  0  0
 35 68  1  0  0  0
 36 56  1  0  0  0
 36107  1  0  0  0
 37 39  1  0  0  0
 37 47  1  0  0  0
 37 66  1  0  0  0
 37108  1  0  0  0
 38 43  2  0  0  0
 38 46  1  0  0  0
 38 47  1  0  0  0
 39 64  1  0  0  0
 39 67  2  0  0  0
 40 52  1  0  0  0
 40 53  2  0  0  0
 40 58  1  0  0  0
 41109  1  0  0  0
 41110  1  0  0  0
 41111  1  0  0  0
 41 48  1  0  0  0
 42 43  1  0  0  0
 42 66  1  0  0  0
 42112  1  0  0  0
 42113  1  0  0  0
 43 44  1  0  0  0
 44114  1  0  0  0
 45 46  2  0  0  0
 45115  1  0  0  0
 46116  1  0  0  0
 47117  1  0  0  0
 47118  1  0  0  0
 48 56  1  0  0  0
 48 65  1  0  0  0
 48119  1  0  0  0
 49 50  1  0  0  0
 49 53  1  0  0  0
 49 64  1  0  0  0
 49120  1  0  0  0
 50 51  1  0  0  0
 50121  1  0  0  0
 50122  1  0  0  0
 51 52  1  0  0  0
 51123  1  0  0  0
 51124  1  0  0  0
 52125  1  0  0  0
 52126  1  0  0  0
 53 54  1  0  0  0
 54 55  2  0  0  0
 54127  1  0  0  0
 55 57  1  0  0  0
 55128  1  0  0  0
 56 69  2  0  0  0
 57 58  2  0  0  0
 57129  1  0  0  0
 58130  1  0  0  0
 59 60  1  0  0  0
 59 61  1  0  0  0
 59 62  1  0  0  0
 60131  1  0  0  0
 60132  1  0  0  0
 60133  1  0  0  0
 61134  1  0  0  0
 61135  1  0  0  0
 61136  1  0  0  0
 62137  1  0  0  0
 62138  1  0  0  0
 62139  1  0  0  0
 63 65  1  0  0  0
 63140  1  0  0  0
 63141  1  0  0  0
 63142  1  0  0  0
 64143  1  0  0  0
 65144  1  0  0  0
 68 82  1  0  0  0
 71 72  2  0  0  0
 71 73  1  0  0  0
 71 79  1  0  0  0
 72 75  1  0  0  0
 72 84  1  0  0  0
 73 83  1  0  0  0
 73 85  2  0  0  0
 74 76  1  0  0  0
 74 84  2  0  0  0
 74 85  1  0  0  0
 75145  1  0  0  0
 75146  1  0  0  0
 75147  1  0  0  0
 76148  1  0  0  0
 76149  1  0  0  0
 76150  1  0  0  0
 77 80  1  0  0  0
 77151  1  0  0  0
 77152  1  0  0  0
 77153  1  0  0  0
 78154  1  0  0  0
 78155  1  0  0  0
 78156  1  0  0  0
 78 83  1  0  0  0
 79 81  1  0  0  0
 79157  1  0  0  0
 79158  1  0  0  0
 80 83  1  0  0  0
 80159  1  0  0  0
 80160  1  0  0  0
 81 82  1  0  0  0
 81161  1  0  0  0
 81162  1  0  0  0
 82163  1  0  0  0
 82164  1  0  0  0
M  ISO  4   1 100  68 101  82 101  83 100
M  END
> <chiral flag>
0

> <version>
0

> <s_m_source_file>
/data/baiqing/PycharmProjects/Reinvent-master-3.2/result/LINK_invent/BTK/process_docking_weight1_custom_sum_contain_oxygen_bond_distance_aromatic_linkinvent_7_9_3/rearranged_h_0046.sdf

> <i_m_source_file_index>
7

> <r_mmod_Potential_Energy-OPLS-2005>
1146.80627441406

> <r_mmod_Stretch_Energy-OPLS-2005>
617.200988769531

> <r_mmod_Bend_Energy-OPLS-2005>
516.137573242188

> <r_mmod_Torsional_Energy-OPLS-2005>
238.943740844727

> <r_mmod_Improper_Torsional_Energy-OPLS-2005>
12.1630601882935

> <r_mmod_Van_der_Waal_Energy-OPLS-2005>
148.729675292969

> <r_mmod_Electrostatic_Energy-OPLS-2005>
-594.617614746094

> <r_mmod_Solvation_Energy-OPLS-2005>
-209.830337524414

> <b_mmod_Minimization_Converged-OPLS-2005>
0

> <r_mmod_RMS_Derivative-OPLS-2005>
1.86897706985474

$$$$
7
                    3D
 Structure written by MMmdl.
156165  0  0  1  0            999 V2000
  -30.5852  -14.8317   20.3747 C   0  0  0  0  0  0
  -30.4384  -12.4969   19.4907 C   0  0  0  0  0  0
  -29.5241  -12.4725   18.2441 C   0  0  0  0  0  0
  -28.0431  -12.3063   18.6463 C   0  0  0  0  0  0
  -27.6233  -13.2269   19.8234 C   0  0  2  0  0  0
  -28.6695  -13.2538   20.9553 C   0  0  0  0  0  0
  -25.2475  -13.8183   20.5700 C   0  0  0  0  0  0
  -24.1765  -13.0434   20.9209 C   0  0  0  0  0  0
  -24.6358  -11.6920   20.8738 C   0  0  0  0  0  0
  -23.9043  -10.4308   21.0413 C   0  0  0  0  0  0
  -24.3618   -9.4229   21.9180 C   0  0  0  0  0  0
  -23.6299   -8.2264   22.0758 C   0  0  0  0  0  0
  -22.4276   -8.0302   21.3556 C   0  0  0  0  0  0
  -21.9907   -9.0269   20.4652 C   0  0  0  0  0  0
  -22.7226  -10.2147   20.3060 C   0  0  0  0  0  0
  -21.6880   -6.0749   22.5270 C   0  0  0  0  0  0
  -21.4029   -6.5641   23.8203 C   0  0  0  0  0  0
  -21.3650   -5.6782   24.9158 C   0  0  0  0  0  0
  -21.6051   -4.3049   24.7205 C   0  0  0  0  0  0
  -21.8825   -3.8153   23.4321 C   0  0  0  0  0  0
  -21.9204   -4.6977   22.3386 C   0  0  0  0  0  0
  -22.7794  -13.5233   21.1855 C   0  0  0  0  0  0
  -22.1676   -4.2161   21.0961 F   0  0  0  0  0  0
  -21.5622   -3.4528   25.7715 F   0  0  0  0  0  0
  -29.9686  -13.5940   20.3674 N   0  0  0  0  0  0
  -26.2852  -12.9350   20.3186 N   0  0  0  0  0  0
  -25.9271  -11.6507   20.5701 N   0  0  0  0  0  0
  -22.0438  -12.8231   22.0420 N   0  0  0  0  0  0
  -25.4143  -15.1911   20.4162 N   0  0  0  0  0  0
  -31.8148  -14.8745   20.2542 O   0  0  0  0  0  0
  -21.6655   -6.8894   21.4240 O   0  0  0  0  0  0
  -22.3490  -14.5530   20.6688 O   0  0  0  0  0  0
  -24.6372  -31.8512   23.1963 C   0  0  0  0  0  0
  -25.9187  -32.4727   23.8312 C   0  0  1  0  0  0
  -27.2086  -27.2259   20.1300 C   0  0  0  0  0  0
  -25.5957  -33.8524   24.2239 N   0  0  0  0  0  0
  -23.4341  -30.4797   21.5388 C   0  0  2  0  0  0
  -24.8789  -28.9288   20.1075 C   0  0  0  0  0  0
  -22.7512  -29.4612   22.4854 C   0  0  0  0  0  0
  -18.0309  -28.1406   22.8477 C   0  0  0  0  0  0
  -24.1487  -36.7302   23.2631 C   0  0  0  0  0  0
  -25.9842  -30.7573   21.3786 C   0  0  0  0  0  0
  -26.0557  -29.3776   20.7205 C   0  0  0  0  0  0
  -27.2246  -28.5415   20.7188 C   0  0  0  0  0  0
  -26.0064  -26.8710   19.4682 C   0  0  0  0  0  0
  -24.8623  -27.6862   19.4674 C   0  0  0  0  0  0
  -23.6541  -29.8187   20.1542 C   0  0  0  0  0  0
  -25.4101  -36.3042   24.0314 C   0  0  1  0  0  0
  -20.5909  -28.3733   23.1227 C   0  0  2  0  0  0
  -20.6783  -26.9445   22.5376 C   0  0  0  0  0  0
  -19.5757  -26.6403   21.5187 C   0  0  0  0  0  0
  -18.1949  -26.7940   22.1620 C   0  0  0  0  0  0
  -19.1562  -28.8876   23.2852 C   0  0  0  0  0  0
  -18.9480  -30.1472   23.8894 C   0  0  0  0  0  0
  -17.6492  -30.6591   24.0568 C   0  0  0  0  0  0
  -25.9052  -34.9418   23.5069 C   0  0  0  0  0  0
  -16.5375  -29.9097   23.6329 C   0  0  0  0  0  0
  -16.7301  -28.6517   23.0347 C   0  0  0  0  0  0
  -26.4529  -31.6565   25.0729 C   0  0  0  0  0  0
  -25.3765  -31.3743   26.1473 C   0  0  0  0  0  0
  -27.0362  -30.2958   24.6255 C   0  0  0  0  0  0
  -27.6049  -32.4326   25.7537 C   0  0  0  0  0  0
  -27.5567  -37.1803   24.8461 C   0  0  0  0  0  0
  -21.4211  -29.3086   22.3604 N   0  0  0  0  0  0
  -26.4270  -37.3753   23.9412 N   0  0  0  0  0  0
  -24.7050  -31.0464   22.0948 N   0  0  0  0  0  0
  -23.4183  -28.8125   23.2953 O   0  0  0  0  0  0
  -28.2675  -26.2721   20.2102 O   0  0  0  0  0  0
  -26.5622  -34.8901   22.4645 O   0  0  0  0  0  0
  -23.5520  -32.1356   23.7247 O   0  0  0  0  0  0
  -30.1988  -23.3448   19.9444 C   0  0  0  0  0  0
  -29.0856  -16.2375   18.8650 C   0  0  0  0  0  0
  -29.7963  -16.1753   20.0892 C   0  0  0  0  0  0
  -28.8362  -23.5432   20.3201 C   0  0  0  0  0  0
  -28.5623  -18.4925   19.0989 C   0  0  0  0  0  0
  -29.2915  -18.5710   20.3138 C   0  0  0  0  0  0
  -30.4881  -22.0051   20.1442 C   0  0  0  0  0  0
  -27.7930  -19.6693   18.5202 C   0  0  0  0  0  0
  -31.7719  -21.2762   19.9295 C   0  0  0  0  0  0
  -29.2346  -19.9152   21.1849 C   0  0  0  0  0  0
  -27.8718  -24.8050   20.1378 C   0  0  0  0  0  0
  -28.4745  -17.3474   18.3847 N   0  0  0  0  0  0
  -29.9045  -17.3922   20.7946 N   0  0  0  0  0  0
  -28.3682  -22.3225   20.7337 N   0  0  0  0  0  0
  -29.3638  -21.3487   20.6272 N   0  0  0  0  0  0
  -31.4801  -12.6335   19.1924 H   0  0  0  0  0  0
  -30.3981  -11.5459   20.0227 H   0  0  0  0  0  0
  -29.8186  -11.6554   17.5827 H   0  0  0  0  0  0
  -29.6563  -13.3828   17.6619 H   0  0  0  0  0  0
  -27.8976  -11.2615   18.9232 H   0  0  0  0  0  0
  -27.3989  -12.4812   17.7828 H   0  0  0  0  0  0
  -27.5637  -14.2227   19.3983 H   0  0  0  0  0  0
  -28.7237  -12.2906   21.4640 H   0  0  0  0  0  0
  -28.3867  -13.9938   21.7065 H   0  0  0  0  0  0
  -25.2793   -9.5709   22.4711 H   0  0  0  0  0  0
  -24.0033   -7.4658   22.7461 H   0  0  0  0  0  0
  -21.0859   -8.8795   19.8937 H   0  0  0  0  0  0
  -22.3719  -10.9687   19.6150 H   0  0  0  0  0  0
  -21.2036   -7.6146   23.9711 H   0  0  0  0  0  0
  -21.1457   -6.0507   25.9056 H   0  0  0  0  0  0
  -22.0611   -2.7618   23.2811 H   0  0  0  0  0  0
  -22.4088  -11.9910   22.4817 H   0  0  0  0  0  0
  -21.1038  -13.1223   22.2588 H   0  0  0  0  0  0
  -24.6441  -15.8387   20.5383 H   0  0  0  0  0  0
  -26.2622  -15.6448   20.1028 H   0  0  0  0  0  0
  -26.7254  -32.5366   23.1047 H   0  0  0  0  0  0
  -25.0084  -33.9637   25.0371 H   0  0  0  0  0  0
  -22.7358  -31.3056   21.3896 H   0  0  0  0  0  0
  -23.3719  -35.9667   23.3279 H   0  0  0  0  0  0
  -24.3577  -36.8949   22.2049 H   0  0  0  0  0  0
  -23.7283  -37.6514   23.6681 H   0  0  0  0  0  0
  -26.1228  -31.5162   20.6060 H   0  0  0  0  0  0
  -26.8625  -30.8096   22.0109 H   0  0  0  0  0  0
  -28.1192  -28.8817   21.2224 H   0  0  0  0  0  0
  -25.8924  -25.9354   18.9458 H   0  0  0  0  0  0
  -23.9628  -27.3444   18.9713 H   0  0  0  0  0  0
  -23.7861  -30.5963   19.4009 H   0  0  0  0  0  0
  -22.7735  -29.2537   19.8427 H   0  0  0  0  0  0
  -25.1280  -36.1866   25.0804 H   0  0  0  0  0  0
  -21.0024  -28.3335   24.1339 H   0  0  0  0  0  0
  -20.5659  -26.2362   23.3600 H   0  0  0  0  0  0
  -21.6650  -26.7446   22.1182 H   0  0  0  0  0  0
  -19.6909  -25.6307   21.1233 H   0  0  0  0  0  0
  -19.6671  -27.3195   20.6702 H   0  0  0  0  0  0
  -17.4195  -26.6678   21.4048 H   0  0  0  0  0  0
  -18.0379  -26.0084   22.9028 H   0  0  0  0  0  0
  -19.7960  -30.7275   24.2259 H   0  0  0  0  0  0
  -17.5051  -31.6267   24.5184 H   0  0  0  0  0  0
  -15.5378  -30.3009   23.7644 H   0  0  0  0  0  0
  -15.8704  -28.0832   22.7068 H   0  0  0  0  0  0
  -24.5951  -30.7044   25.7876 H   0  0  0  0  0  0
  -24.8946  -32.2914   26.4867 H   0  0  0  0  0  0
  -25.8121  -30.8995   27.0276 H   0  0  0  0  0  0
  -26.2944  -29.6715   24.1257 H   0  0  0  0  0  0
  -27.3977  -29.7221   25.4803 H   0  0  0  0  0  0
  -27.8858  -30.4187   23.9536 H   0  0  0  0  0  0
  -27.2608  -33.3631   26.2070 H   0  0  0  0  0  0
  -28.3910  -32.6881   25.0421 H   0  0  0  0  0  0
  -28.0664  -31.8487   26.5517 H   0  0  0  0  0  0
  -28.2565  -38.0115   24.7484 H   0  0  0  0  0  0
  -28.1071  -36.2638   24.6287 H   0  0  0  0  0  0
  -27.2290  -37.1463   25.8864 H   0  0  0  0  0  0
  -20.9403  -29.8847   21.6840 H   0  0  0  0  0  0
  -26.0133  -38.2820   24.1412 H   0  0  0  0  0  0
  -30.8755  -24.0918   19.5534 H   0  0  0  0  0  0
  -29.0336  -15.3840   18.2105 H   0  0  0  0  0  0
  -28.4757  -20.4611   18.2121 H   0  0  0  0  0  0
  -27.0936  -20.0797   19.2519 H   0  0  0  0  0  0
  -27.2177  -19.3781   17.6411 H   0  0  0  0  0  0
  -32.2042  -20.9577   20.8781 H   0  0  0  0  0  0
  -32.5003  -21.9102   19.4241 H   0  0  0  0  0  0
  -31.6128  -20.3895   19.3171 H   0  0  0  0  0  0
  -29.9933  -19.8128   21.9601 H   0  0  0  0  0  0
  -28.2846  -19.8797   21.7195 H   0  0  0  0  0  0
  -27.0388  -24.6784   20.8293 H   0  0  0  0  0  0
  -27.4521  -24.6498   19.1466 H   0  0  0  0  0  0
  1 25  1  0  0  0
  1 30  2  0  0  0
  1 73  1  0  0  0
  2  3  1  0  0  0
  2 25  1  0  0  0
  2 86  1  0  0  0
  2 87  1  0  0  0
  3  4  1  0  0  0
  3 88  1  0  0  0
  3 89  1  0  0  0
  4  5  1  0  0  0
  4 90  1  0  0  0
  4 91  1  0  0  0
  5  6  1  0  0  0
  5 26  1  0  0  0
  5 92  1  0  0  0
  6 25  1  0  0  0
  6 93  1  0  0  0
  6 94  1  0  0  0
  7  8  2  0  0  0
  7 26  1  0  0  0
  7 29  1  0  0  0
  8  9  1  0  0  0
  8 22  1  0  0  0
  9 10  1  0  0  0
  9 27  2  0  0  0
 10 11  2  0  0  0
 10 15  1  0  0  0
 11 12  1  0  0  0
 11 95  1  0  0  0
 12 13  2  0  0  0
 12 96  1  0  0  0
 13 14  1  0  0  0
 13 31  1  0  0  0
 14 15  2  0  0  0
 14 97  1  0  0  0
 15 98  1  0  0  0
 16 17  2  0  0  0
 16 21  1  0  0  0
 16 31  1  0  0  0
 17 18  1  0  0  0
 17 99  1  0  0  0
 18 19  2  0  0  0
 18100  1  0  0  0
 19 20  1  0  0  0
 19 24  1  0  0  0
 20 21  2  0  0  0
 20101  1  0  0  0
 21 23  1  0  0  0
 22 28  1  0  0  0
 22 32  2  0  0  0
 26 27  1  0  0  0
 28102  1  0  0  0
 28103  1  0  0  0
 29104  1  0  0  0
 29105  1  0  0  0
 33 34  1  0  0  0
 33 66  1  0  0  0
 33 70  2  0  0  0
 34 36  1  0  0  0
 34 59  1  0  0  0
 34106  1  0  0  0
 35 44  2  0  0  0
 35 45  1  0  0  0
 35 68  1  0  0  0
 36 56  1  0  0  0
 36107  1  0  0  0
 37 39  1  0  0  0
 37 47  1  0  0  0
 37 66  1  0  0  0
 37108  1  0  0  0
 38 43  2  0  0  0
 38 46  1  0  0  0
 38 47  1  0  0  0
 39 64  1  0  0  0
 39 67  2  0  0  0
 40 52  1  0  0  0
 40 53  2  0  0  0
 40 58  1  0  0  0
 41109  1  0  0  0
 41110  1  0  0  0
 41111  1  0  0  0
 41 48  1  0  0  0
 42 43  1  0  0  0
 42 66  1  0  0  0
 42112  1  0  0  0
 42113  1  0  0  0
 43 44  1  0  0  0
 44114  1  0  0  0
 45 46  2  0  0  0
 45115  1  0  0  0
 46116  1  0  0  0
 47117  1  0  0  0
 47118  1  0  0  0
 48 56  1  0  0  0
 48 65  1  0  0  0
 48119  1  0  0  0
 49 50  1  0  0  0
 49 53  1  0  0  0
 49 64  1  0  0  0
 49120  1  0  0  0
 50 51  1  0  0  0
 50121  1  0  0  0
 50122  1  0  0  0
 51 52  1  0  0  0
 51123  1  0  0  0
 51124  1  0  0  0
 52125  1  0  0  0
 52126  1  0  0  0
 53 54  1  0  0  0
 54 55  2  0  0  0
 54127  1  0  0  0
 55 57  1  0  0  0
 55128  1  0  0  0
 56 69  2  0  0  0
 57 58  2  0  0  0
 57129  1  0  0  0
 58130  1  0  0  0
 59 60  1  0  0  0
 59 61  1  0  0  0
 59 62  1  0  0  0
 60131  1  0  0  0
 60132  1  0  0  0
 60133  1  0  0  0
 61134  1  0  0  0
 61135  1  0  0  0
 61136  1  0  0  0
 62137  1  0  0  0
 62138  1  0  0  0
 62139  1  0  0  0
 63 65  1  0  0  0
 63140  1  0  0  0
 63141  1  0  0  0
 63142  1  0  0  0
 64143  1  0  0  0
 65144  1  0  0  0
 68 81  1  0  0  0
 71 74  1  0  0  0
 71 77  2  0  0  0
 71145  1  0  0  0
 72 73  2  0  0  0
 72 82  1  0  0  0
 72146  1  0  0  0
 73 83  1  0  0  0
 74 81  1  0  0  0
 74 84  2  0  0  0
 75 76  1  0  0  0
 75 78  1  0  0  0
 75 82  2  0  0  0
 76 80  1  0  0  0
 76 83  2  0  0  0
 77 79  1  0  0  0
 77 85  1  0  0  0
 78147  1  0  0  0
 78148  1  0  0  0
 78149  1  0  0  0
 79150  1  0  0  0
 79151  1  0  0  0
 79152  1  0  0  0
 80 85  1  0  0  0
 80153  1  0  0  0
 80154  1  0  0  0
 81155  1  0  0  0
 81156  1  0  0  0
 84 85  1  0  0  0
M  ISO  4   1 100  68 101  73 100  81 101
M  END
> <chiral flag>
0

> <version>
0

> <s_m_source_file>
/data/baiqing/PycharmProjects/Reinvent-master-3.2/result/LINK_invent/BTK/process_docking_weight1_custom_sum_contain_oxygen_bond_distance_aromatic_linkinvent_7_9_3/rearranged_h_0046.sdf

> <i_m_source_file_index>
8

> <r_mmod_Potential_Energy-OPLS-2005>
477.30224609375

> <r_mmod_Stretch_Energy-OPLS-2005>
149.849975585938

> <r_mmod_Bend_Energy-OPLS-2005>
193.961471557617

> <r_mmod_Torsional_Energy-OPLS-2005>
240.054733276367

> <r_mmod_Improper_Torsional_Energy-OPLS-2005>
14.5184841156006

> <r_mmod_Van_der_Waal_Energy-OPLS-2005>
133.991027832031

> <r_mmod_Electrostatic_Energy-OPLS-2005>
-174.803741455078

> <r_mmod_Solvation_Energy-OPLS-2005>
-212.14485168457

> <b_mmod_Minimization_Converged-OPLS-2005>
0

> <r_mmod_RMS_Derivative-OPLS-2005>
2.91130208969116

$$$$
8
                    3D
 Structure written by MMmdl.
178186  0  0  1  0            999 V2000
  -30.7433  -14.4625   20.4769 C   0  0  0  0  0  0
  -30.4038  -12.2778   19.4184 C   0  0  0  0  0  0
  -29.4835  -12.4802   18.1988 C   0  0  0  0  0  0
  -28.0041  -12.3700   18.6164 C   0  0  0  0  0  0
  -27.6551  -13.2107   19.8762 C   0  0  2  0  0  0
  -28.7131  -13.0468   20.9908 C   0  0  0  0  0  0
  -25.2552  -13.8155   20.5656 C   0  0  0  0  0  0
  -24.1831  -13.0428   20.9190 C   0  0  0  0  0  0
  -24.6411  -11.6899   20.8794 C   0  0  0  0  0  0
  -23.9084  -10.4275   21.0432 C   0  0  0  0  0  0
  -24.3637   -9.4189   21.9205 C   0  0  0  0  0  0
  -23.6304   -8.2228   22.0775 C   0  0  0  0  0  0
  -22.4288   -8.0283   21.3551 C   0  0  0  0  0  0
  -21.9930   -9.0268   20.4659 C   0  0  0  0  0  0
  -22.7268  -10.2142   20.3069 C   0  0  0  0  0  0
  -21.6842   -6.0748   22.5274 C   0  0  0  0  0  0
  -21.4011   -6.5648   23.8208 C   0  0  0  0  0  0
  -21.3654   -5.6805   24.9171 C   0  0  0  0  0  0
  -21.6042   -4.3070   24.7236 C   0  0  0  0  0  0
  -21.8808   -3.8162   23.4360 C   0  0  0  0  0  0
  -21.9188   -4.6975   22.3410 C   0  0  0  0  0  0
  -22.7848  -13.5226   21.1842 C   0  0  0  0  0  0
  -22.1659   -4.2155   21.0991 F   0  0  0  0  0  0
  -21.5632   -3.4559   25.7751 F   0  0  0  0  0  0
  -30.0313  -13.3066   20.3979 N   0  0  0  0  0  0
  -26.3018  -12.9342   20.3452 N   0  0  0  0  0  0
  -25.9355  -11.6504   20.5882 N   0  0  0  0  0  0
  -22.0504  -12.8222   22.0401 N   0  0  0  0  0  0
  -25.4192  -15.1856   20.3887 N   0  0  0  0  0  0
  -31.9482  -14.5213   20.2172 O   0  0  0  0  0  0
  -21.6636   -6.8893   21.4234 O   0  0  0  0  0  0
  -22.3526  -14.5534   20.6698 O   0  0  0  0  0  0
  -24.6137  -31.8692   23.2111 C   0  0  0  0  0  0
  -25.9025  -32.4833   23.8408 C   0  0  1  0  0  0
  -27.2422  -27.4691   20.0828 C   0  0  0  0  0  0
  -25.5889  -33.8631   24.2342 N   0  0  0  0  0  0
  -23.4026  -30.4930   21.5487 C   0  0  2  0  0  0
  -24.8532  -28.9667   20.1093 C   0  0  0  0  0  0
  -22.7415  -29.4674   22.4976 C   0  0  0  0  0  0
  -18.0276  -28.1386   22.8495 C   0  0  0  0  0  0
  -24.1487  -36.7330   23.2635 C   0  0  0  0  0  0
  -25.9288  -30.8483   21.3585 C   0  0  0  0  0  0
  -26.0125  -29.4872   20.6999 C   0  0  0  0  0  0
  -27.2161  -28.7470   20.6830 C   0  0  0  0  0  0
  -26.0646  -26.9480   19.5141 C   0  0  0  0  0  0
  -24.8726  -27.6947   19.5121 C   0  0  0  0  0  0
  -23.6109  -29.8261   20.1623 C   0  0  0  0  0  0
  -25.4101  -36.3123   24.0339 C   0  0  1  0  0  0
  -20.5867  -28.3675   23.1314 C   0  0  2  0  0  0
  -20.6771  -26.9408   22.5419 C   0  0  0  0  0  0
  -19.5747  -26.6391   21.5216 C   0  0  0  0  0  0
  -18.1924  -26.7941   22.1627 C   0  0  0  0  0  0
  -19.1527  -28.8846   23.2905 C   0  0  0  0  0  0
  -18.9456  -30.1455   23.8915 C   0  0  0  0  0  0
  -17.6457  -30.6591   24.0574 C   0  0  0  0  0  0
  -25.9028  -34.9480   23.5139 C   0  0  0  0  0  0
  -16.5346  -29.9096   23.6327 C   0  0  0  0  0  0
  -16.7264  -28.6515   23.0341 C   0  0  0  0  0  0
  -26.4463  -31.6600   25.0720 C   0  0  0  0  0  0
  -25.3745  -31.3688   26.1478 C   0  0  0  0  0  0
  -27.0290  -30.3050   24.6077 C   0  0  0  0  0  0
  -27.6049  -32.4307   25.7488 C   0  0  0  0  0  0
  -27.5583  -37.1815   24.8460 C   0  0  0  0  0  0
  -21.4140  -29.3046   22.3714 N   0  0  0  0  0  0
  -26.4290  -37.3802   23.9409 N   0  0  0  0  0  0
  -24.6664  -31.0819   22.0990 N   0  0  0  0  0  0
  -23.4186  -28.8200   23.3003 O   0  0  0  0  0  0
  -28.3450  -26.6524   20.1131 O   0  0  0  0  0  0
  -26.5587  -34.8926   22.4699 O   0  0  0  0  0  0
  -23.5331  -32.1412   23.7517 O   0  0  0  0  0  0
  -30.0327  -19.0248   20.9627 C   0  0  0  0  0  0
  -27.9354  -19.4997   21.5448 C   0  0  0  0  0  0
  -29.0535  -20.0592   20.9932 C   0  0  0  0  0  0
  -29.4804  -17.8633   21.4425 C   0  0  0  0  0  0
  -27.6272  -17.7255   16.4356 C   0  0  0  0  0  0
  -27.2132  -17.2736   22.4320 C   0  0  0  0  0  0
  -29.1896  -21.4869   20.5078 C   0  0  0  0  0  0
  -30.0780  -16.4786   21.5863 C   0  0  0  0  0  0
  -28.9538  -17.4712   17.1593 C   0  0  0  0  0  0
  -29.5515  -21.5750   19.0112 C   0  0  0  0  0  0
  -28.7856  -16.6067   18.4167 C   0  0  0  0  0  0
  -29.6704  -26.6104   18.0877 C   0  0  0  0  0  0
  -30.1390  -16.3083   19.0878 C   0  0  0  0  0  0
  -28.9696  -22.7964   18.2643 C   0  0  0  0  0  0
  -29.0629  -25.2165   17.7931 C   0  0  0  0  0  0
  -29.5563  -27.1149   19.5386 C   0  0  0  0  0  0
  -28.1812  -18.1685   21.8257 N   0  0  0  0  0  0
  -30.0177  -15.6043   20.3908 N   0  0  0  0  0  0
  -29.5897  -24.0981   18.6154 N   0  3  0  0  0  0
  -31.4519  -12.3348   19.1182 H   0  0  0  0  0  0
  -30.2658  -11.2807   19.8403 H   0  0  0  0  0  0
  -29.7071  -11.7440   17.4261 H   0  0  0  0  0  0
  -29.6690  -13.4578   17.7484 H   0  0  0  0  0  0
  -27.7946  -11.3163   18.8028 H   0  0  0  0  0  0
  -27.3607  -12.6641   17.7867 H   0  0  0  0  0  0
  -27.6733  -14.2519   19.5766 H   0  0  0  0  0  0
  -28.6838  -12.0379   21.4056 H   0  0  0  0  0  0
  -28.5141  -13.7283   21.8189 H   0  0  0  0  0  0
  -25.2779   -9.5672   22.4787 H   0  0  0  0  0  0
  -24.0002   -7.4621   22.7517 H   0  0  0  0  0  0
  -21.0856   -8.8828   19.8976 H   0  0  0  0  0  0
  -22.3751  -10.9709   19.6195 H   0  0  0  0  0  0
  -21.1998   -7.6155   23.9713 H   0  0  0  0  0  0
  -21.1487   -6.0549   25.9076 H   0  0  0  0  0  0
  -22.0592   -2.7628   23.2875 H   0  0  0  0  0  0
  -22.4123  -11.9879   22.4754 H   0  0  0  0  0  0
  -21.1129  -13.1264   22.2620 H   0  0  0  0  0  0
  -24.6420  -15.8328   20.4551 H   0  0  0  0  0  0
  -26.2609  -15.6157   20.0286 H   0  0  0  0  0  0
  -26.7109  -32.5569   23.1192 H   0  0  0  0  0  0
  -25.0050  -33.9796   25.0497 H   0  0  0  0  0  0
  -22.6909  -31.3087   21.4094 H   0  0  0  0  0  0
  -23.3741  -35.9673   23.3305 H   0  0  0  0  0  0
  -24.3587  -36.8935   22.2049 H   0  0  0  0  0  0
  -23.7246  -37.6540   23.6645 H   0  0  0  0  0  0
  -26.0363  -31.6182   20.5930 H   0  0  0  0  0  0
  -26.8184  -30.9025   21.9745 H   0  0  0  0  0  0
  -28.1082  -29.1399   21.1511 H   0  0  0  0  0  0
  -26.0657  -25.9589   19.0802 H   0  0  0  0  0  0
  -23.9792  -27.2834   19.0626 H   0  0  0  0  0  0
  -23.7138  -30.6011   19.4022 H   0  0  0  0  0  0
  -22.7384  -29.2402   19.8687 H   0  0  0  0  0  0
  -25.1278  -36.1997   25.0833 H   0  0  0  0  0  0
  -20.9971  -28.3250   24.1429 H   0  0  0  0  0  0
  -20.5685  -26.2280   23.3602 H   0  0  0  0  0  0
  -21.6639  -26.7455   22.1205 H   0  0  0  0  0  0
  -19.6908  -25.6307   21.1234 H   0  0  0  0  0  0
  -19.6690  -27.3211   20.6753 H   0  0  0  0  0  0
  -17.4195  -26.6690   21.4026 H   0  0  0  0  0  0
  -18.0322  -26.0077   22.9021 H   0  0  0  0  0  0
  -19.7926  -30.7271   24.2285 H   0  0  0  0  0  0
  -17.5008  -31.6269   24.5178 H   0  0  0  0  0  0
  -15.5351  -30.3002   23.7639 H   0  0  0  0  0  0
  -15.8668  -28.0845   22.7032 H   0  0  0  0  0  0
  -24.5924  -30.7027   25.7815 H   0  0  0  0  0  0
  -24.8929  -32.2835   26.4951 H   0  0  0  0  0  0
  -25.8116  -30.8846   27.0221 H   0  0  0  0  0  0
  -26.2824  -29.6819   24.1139 H   0  0  0  0  0  0
  -27.4077  -29.7278   25.4523 H   0  0  0  0  0  0
  -27.8655  -30.4378   23.9208 H   0  0  0  0  0  0
  -27.2680  -33.3597   26.2108 H   0  0  0  0  0  0
  -28.3848  -32.6880   25.0305 H   0  0  0  0  0  0
  -28.0734  -31.8398   26.5373 H   0  0  0  0  0  0
  -28.2595  -38.0116   24.7516 H   0  0  0  0  0  0
  -28.1083  -36.2649   24.6280 H   0  0  0  0  0  0
  -27.2302  -37.1460   25.8862 H   0  0  0  0  0  0
  -20.9286  -29.8777   21.6953 H   0  0  0  0  0  0
  -26.0187  -38.2882   24.1416 H   0  0  0  0  0  0
  -31.0458  -19.1163   20.5939 H   0  0  0  0  0  0
  -26.9679  -19.9355   21.7595 H   0  0  0  0  0  0
  -27.7799  -18.3360   15.5456 H   0  0  0  0  0  0
  -26.9198  -18.2494   17.0803 H   0  0  0  0  0  0
  -27.1629  -16.7913   16.1150 H   0  0  0  0  0  0
  -27.3364  -17.2835   23.5145 H   0  0  0  0  0  0
  -27.3393  -16.2564   22.0657 H   0  0  0  0  0  0
  -26.2024  -17.6018   22.1932 H   0  0  0  0  0  0
  -29.9427  -22.0008   21.1080 H   0  0  0  0  0  0
  -28.2424  -21.9948   20.6961 H   0  0  0  0  0  0
  -29.6152  -15.9546   22.4243 H   0  0  0  0  0  0
  -31.1235  -16.6009   21.8813 H   0  0  0  0  0  0
  -29.4088  -18.4245   17.4310 H   0  0  0  0  0  0
  -29.6444  -16.9848   16.4687 H   0  0  0  0  0  0
  -29.1296  -20.6984   18.5159 H   0  0  0  0  0  0
  -30.6293  -21.4897   18.8677 H   0  0  0  0  0  0
  -28.3106  -15.6733   18.1189 H   0  0  0  0  0  0
  -28.1124  -17.0988   19.1202 H   0  0  0  0  0  0
  -29.1591  -27.3275   17.4442 H   0  0  0  0  0  0
  -30.7152  -26.6363   17.7771 H   0  0  0  0  0  0
  -30.7268  -17.2175   19.2000 H   0  0  0  0  0  0
  -30.7163  -15.7233   18.3680 H   0  0  0  0  0  0
  -27.8904  -22.8438   18.4202 H   0  0  0  0  0  0
  -29.1098  -22.6337   17.1937 H   0  0  0  0  0  0
  -29.2367  -24.9846   16.7414 H   0  0  0  0  0  0
  -27.9804  -25.2616   17.9123 H   0  0  0  0  0  0
  -29.6677  -28.1996   19.5867 H   0  0  0  0  0  0
  -30.3739  -26.6983   20.1279 H   0  0  0  0  0  0
  -30.5864  -24.0317   18.4840 H   0  0  0  0  0  0
  -29.4087  -24.2923   19.5879 H   0  0  0  0  0  0
  1 25  1  0  0  0
  1 30  2  0  0  0
  1 88  1  0  0  0
  2  3  1  0  0  0
  2 25  1  0  0  0
  2 90  1  0  0  0
  2 91  1  0  0  0
  3  4  1  0  0  0
  3 92  1  0  0  0
  3 93  1  0  0  0
  4  5  1  0  0  0
  4 94  1  0  0  0
  4 95  1  0  0  0
  5  6  1  0  0  0
  5 26  1  0  0  0
  5 96  1  0  0  0
  6 25  1  0  0  0
  6 97  1  0  0  0
  6 98  1  0  0  0
  7  8  2  0  0  0
  7 26  1  0  0  0
  7 29  1  0  0  0
  8  9  1  0  0  0
  8 22  1  0  0  0
  9 10  1  0  0  0
  9 27  2  0  0  0
 10 11  2  0  0  0
 10 15  1  0  0  0
 11 12  1  0  0  0
 11 99  1  0  0  0
 12 13  2  0  0  0
 12100  1  0  0  0
 13 14  1  0  0  0
 13 31  1  0  0  0
 14 15  2  0  0  0
 14101  1  0  0  0
 15102  1  0  0  0
 16 17  2  0  0  0
 16 21  1  0  0  0
 16 31  1  0  0  0
 17 18  1  0  0  0
 17103  1  0  0  0
 18 19  2  0  0  0
 18104  1  0  0  0
 19 20  1  0  0  0
 19 24  1  0  0  0
 20 21  2  0  0  0
 20105  1  0  0  0
 21 23  1  0  0  0
 22 28  1  0  0  0
 22 32  2  0  0  0
 26 27  1  0  0  0
 28106  1  0  0  0
 28107  1  0  0  0
 29108  1  0  0  0
 29109  1  0  0  0
 33 34  1  0  0  0
 33 66  1  0  0  0
 33 70  2  0  0  0
 34 36  1  0  0  0
 34 59  1  0  0  0
 34110  1  0  0  0
 35 44  2  0  0  0
 35 45  1  0  0  0
 35 68  1  0  0  0
 36 56  1  0  0  0
 36111  1  0  0  0
 37 39  1  0  0  0
 37 47  1  0  0  0
 37 66  1  0  0  0
 37112  1  0  0  0
 38 43  2  0  0  0
 38 46  1  0  0  0
 38 47  1  0  0  0
 39 64  1  0  0  0
 39 67  2  0  0  0
 40 52  1  0  0  0
 40 53  2  0  0  0
 40 58  1  0  0  0
 41113  1  0  0  0
 41114  1  0  0  0
 41115  1  0  0  0
 41 48  1  0  0  0
 42 43  1  0  0  0
 42 66  1  0  0  0
 42116  1  0  0  0
 42117  1  0  0  0
 43 44  1  0  0  0
 44118  1  0  0  0
 45 46  2  0  0  0
 45119  1  0  0  0
 46120  1  0  0  0
 47121  1  0  0  0
 47122  1  0  0  0
 48 56  1  0  0  0
 48 65  1  0  0  0
 48123  1  0  0  0
 49 50  1  0  0  0
 49 53  1  0  0  0
 49 64  1  0  0  0
 49124  1  0  0  0
 50 51  1  0  0  0
 50125  1  0  0  0
 50126  1  0  0  0
 51 52  1  0  0  0
 51127  1  0  0  0
 51128  1  0  0  0
 52129  1  0  0  0
 52130  1  0  0  0
 53 54  1  0  0  0
 54 55  2  0  0  0
 54131  1  0  0  0
 55 57  1  0  0  0
 55132  1  0  0  0
 56 69  2  0  0  0
 57 58  2  0  0  0
 57133  1  0  0  0
 58134  1  0  0  0
 59 60  1  0  0  0
 59 61  1  0  0  0
 59 62  1  0  0  0
 60135  1  0  0  0
 60136  1  0  0  0
 60137  1  0  0  0
 61138  1  0  0  0
 61139  1  0  0  0
 61140  1  0  0  0
 62141  1  0  0  0
 62142  1  0  0  0
 62143  1  0  0  0
 63 65  1  0  0  0
 63144  1  0  0  0
 63145  1  0  0  0
 63146  1  0  0  0
 64147  1  0  0  0
 65148  1  0  0  0
 68 86  1  0  0  0
 71 73  1  0  0  0
 71 74  2  0  0  0
 71149  1  0  0  0
 72 73  2  0  0  0
 72 87  1  0  0  0
 72150  1  0  0  0
 73 77  1  0  0  0
 74 78  1  0  0  0
 74 87  1  0  0  0
 75 79  1  0  0  0
 75151  1  0  0  0
 75152  1  0  0  0
 75153  1  0  0  0
 76 87  1  0  0  0
 76154  1  0  0  0
 76155  1  0  0  0
 76156  1  0  0  0
 77 80  1  0  0  0
 77157  1  0  0  0
 77158  1  0  0  0
 78 88  1  0  0  0
 78159  1  0  0  0
 78160  1  0  0  0
 79 81  1  0  0  0
 79161  1  0  0  0
 79162  1  0  0  0
 80 84  1  0  0  0
 80163  1  0  0  0
 80164  1  0  0  0
 81 83  1  0  0  0
 81165  1  0  0  0
 81166  1  0  0  0
 82 85  1  0  0  0
 82 86  1  0  0  0
 82167  1  0  0  0
 82168  1  0  0  0
 83 88  1  0  0  0
 83169  1  0  0  0
 83170  1  0  0  0
 84 89  1  0  0  0
 84171  1  0  0  0
 84172  1  0  0  0
 85 89  1  0  0  0
 85173  1  0  0  0
 85174  1  0  0  0
 86175  1  0  0  0
 86176  1  0  0  0
 89177  1  0  0  0
 89178  1  0  0  0
M  CHG  1  89   1
M  ISO  4   1 100  68 101  86 101  88 100
M  END
> <chiral flag>
0

> <version>
0

> <s_m_source_file>
/data/baiqing/PycharmProjects/Reinvent-master-3.2/result/LINK_invent/BTK/process_docking_weight1_custom_sum_contain_oxygen_bond_distance_aromatic_linkinvent_7_9_3/rearranged_h_0046.sdf

> <i_m_source_file_index>
9

> <r_mmod_Potential_Energy-OPLS-2005>
-47.0640525817871

> <r_mmod_Stretch_Energy-OPLS-2005>
35.9024124145508

> <r_mmod_Bend_Energy-OPLS-2005>
116.325401306152

> <r_mmod_Torsional_Energy-OPLS-2005>
330.762268066406

> <r_mmod_Improper_Torsional_Energy-OPLS-2005>
17.7960109710693

> <r_mmod_Van_der_Waal_Energy-OPLS-2005>
110.107612609863

> <r_mmod_Electrostatic_Energy-OPLS-2005>
-258.583038330078

> <r_mmod_Solvation_Energy-OPLS-2005>
-422.534851074219

> <b_mmod_Minimization_Converged-OPLS-2005>
0

> <r_mmod_RMS_Derivative-OPLS-2005>
2.47949957847595

$$$$
9
                    3D
 Structure written by MMmdl.
163171  0  0  1  0            999 V2000
  -30.7439  -14.4117   20.5744 C   0  0  0  0  0  0
  -30.4087  -12.2640   19.4338 C   0  0  0  0  0  0
  -29.4977  -12.4995   18.2116 C   0  0  0  0  0  0
  -28.0133  -12.3798   18.6107 C   0  0  0  0  0  0
  -27.6622  -13.2118   19.8723 C   0  0  2  0  0  0
  -28.6985  -12.9837   20.9948 C   0  0  0  0  0  0
  -25.2593  -13.8144   20.5639 C   0  0  0  0  0  0
  -24.1853  -13.0429   20.9160 C   0  0  0  0  0  0
  -24.6403  -11.6896   20.8727 C   0  0  0  0  0  0
  -23.9067  -10.4299   21.0406 C   0  0  0  0  0  0
  -24.3612   -9.4225   21.9195 C   0  0  0  0  0  0
  -23.6297   -8.2249   22.0757 C   0  0  0  0  0  0
  -22.4283   -8.0278   21.3543 C   0  0  0  0  0  0
  -21.9925   -9.0241   20.4632 C   0  0  0  0  0  0
  -22.7240  -10.2125   20.3050 C   0  0  0  0  0  0
  -21.6846   -6.0745   22.5287 C   0  0  0  0  0  0
  -21.4007   -6.5644   23.8218 C   0  0  0  0  0  0
  -21.3644   -5.6792   24.9180 C   0  0  0  0  0  0
  -21.6041   -4.3057   24.7218 C   0  0  0  0  0  0
  -21.8818   -3.8151   23.4336 C   0  0  0  0  0  0
  -21.9179   -4.6977   22.3399 C   0  0  0  0  0  0
  -22.7865  -13.5218   21.1827 C   0  0  0  0  0  0
  -22.1638   -4.2162   21.0972 F   0  0  0  0  0  0
  -21.5628   -3.4537   25.7732 F   0  0  0  0  0  0
  -30.0400  -13.2531   20.4599 N   0  0  0  0  0  0
  -26.3033  -12.9330   20.3336 N   0  0  0  0  0  0
  -25.9336  -11.6483   20.5772 N   0  0  0  0  0  0
  -22.0512  -12.8203   22.0372 N   0  0  0  0  0  0
  -25.4296  -15.1847   20.3989 N   0  0  0  0  0  0
  -31.8757  -14.5399   20.0992 O   0  0  0  0  0  0
  -21.6642   -6.8882   21.4248 O   0  0  0  0  0  0
  -22.3556  -14.5539   20.6691 O   0  0  0  0  0  0
  -24.6134  -31.8710   23.2153 C   0  0  0  0  0  0
  -25.9040  -32.4836   23.8440 C   0  0  1  0  0  0
  -27.2176  -27.4483   20.1063 C   0  0  0  0  0  0
  -25.5910  -33.8640   24.2365 N   0  0  0  0  0  0
  -23.3997  -30.4976   21.5543 C   0  0  2  0  0  0
  -24.8460  -28.9730   20.1129 C   0  0  0  0  0  0
  -22.7413  -29.4658   22.4996 C   0  0  0  0  0  0
  -18.0283  -28.1378   22.8495 C   0  0  0  0  0  0
  -24.1486  -36.7319   23.2634 C   0  0  0  0  0  0
  -25.9282  -30.8415   21.3689 C   0  0  0  0  0  0
  -26.0045  -29.4765   20.7202 C   0  0  0  0  0  0
  -27.1967  -28.7190   20.7207 C   0  0  0  0  0  0
  -26.0561  -26.9739   19.4619 C   0  0  0  0  0  0
  -24.8653  -27.7192   19.4803 C   0  0  0  0  0  0
  -23.6082  -29.8380   20.1652 C   0  0  0  0  0  0
  -25.4109  -36.3130   24.0345 C   0  0  1  0  0  0
  -20.5872  -28.3657   23.1333 C   0  0  2  0  0  0
  -20.6779  -26.9399   22.5410 C   0  0  0  0  0  0
  -19.5752  -26.6390   21.5205 C   0  0  0  0  0  0
  -18.1936  -26.7932   22.1622 C   0  0  0  0  0  0
  -19.1530  -28.8830   23.2917 C   0  0  0  0  0  0
  -18.9454  -30.1432   23.8937 C   0  0  0  0  0  0
  -17.6456  -30.6576   24.0583 C   0  0  0  0  0  0
  -25.9035  -34.9489   23.5146 C   0  0  0  0  0  0
  -16.5349  -29.9088   23.6326 C   0  0  0  0  0  0
  -16.7270  -28.6508   23.0341 C   0  0  0  0  0  0
  -26.4480  -31.6602   25.0750 C   0  0  0  0  0  0
  -25.3743  -31.3683   26.1490 C   0  0  0  0  0  0
  -27.0306  -30.3054   24.6090 C   0  0  0  0  0  0
  -27.6087  -32.4305   25.7478 C   0  0  0  0  0  0
  -27.5580  -37.1815   24.8462 C   0  0  0  0  0  0
  -21.4141  -29.3035   22.3752 N   0  0  0  0  0  0
  -26.4301  -37.3810   23.9402 N   0  0  0  0  0  0
  -24.6648  -31.0844   22.1040 N   0  0  0  0  0  0
  -23.4199  -28.8178   23.3010 O   0  0  0  0  0  0
  -28.3538  -26.6767   20.0981 O   0  0  0  0  0  0
  -26.5575  -34.8932   22.4693 O   0  0  0  0  0  0
  -23.5335  -32.1449   23.7562 O   0  0  0  0  0  0
  -29.5717  -15.8855   22.3074 C   0  0  0  0  0  0
  -30.0923  -15.6554   21.0611 C   0  0  0  0  0  0
  -29.2081  -17.2651   22.2513 C   0  0  0  0  0  0
  -30.4626  -17.1475   18.9778 C   0  0  0  0  0  0
  -28.5833  -18.1418   23.3075 C   0  0  0  0  0  0
  -27.2822  -18.8168   22.8081 C   0  0  0  0  0  0
  -27.2643  -20.3521   22.9665 C   0  0  0  0  0  0
  -26.3137  -21.0178   21.9572 C   0  0  0  0  0  0
  -26.1678  -22.5430   22.0983 C   0  0  0  0  0  0
  -27.4724  -23.3467   21.8925 C   0  0  0  0  0  0
  -27.2394  -24.6484   21.1011 C   0  0  0  0  0  0
  -28.4154  -25.6559   21.1097 C   0  0  0  0  0  0
  -29.5342  -17.8243   21.0911 N   0  0  0  0  0  0
  -30.0588  -16.8366   20.3409 N   0  0  0  0  0  0
  -31.4582  -12.3222   19.1430 H   0  0  0  0  0  0
  -30.2691  -11.2542   19.8233 H   0  0  0  0  0  0
  -29.7289  -11.7825   17.4233 H   0  0  0  0  0  0
  -29.6919  -13.4876   17.7917 H   0  0  0  0  0  0
  -27.8040  -11.3253   18.7954 H   0  0  0  0  0  0
  -27.3725  -12.6734   17.7781 H   0  0  0  0  0  0
  -27.7124  -14.2636   19.5863 H   0  0  0  0  0  0
  -28.6553  -11.9505   21.3428 H   0  0  0  0  0  0
  -28.4573  -13.5829   21.8681 H   0  0  0  0  0  0
  -25.2744   -9.5723   22.4777 H   0  0  0  0  0  0
  -24.0011   -7.4649   22.7474 H   0  0  0  0  0  0
  -21.0858   -8.8740   19.8936 H   0  0  0  0  0  0
  -22.3694  -10.9663   19.6159 H   0  0  0  0  0  0
  -21.2011   -7.6157   23.9731 H   0  0  0  0  0  0
  -21.1448   -6.0509   25.9080 H   0  0  0  0  0  0
  -22.0607   -2.7611   23.2827 H   0  0  0  0  0  0
  -22.4113  -11.9824   22.4689 H   0  0  0  0  0  0
  -21.1132  -13.1218   22.2611 H   0  0  0  0  0  0
  -24.6636  -15.8390   20.5087 H   0  0  0  0  0  0
  -26.2837  -15.6220   20.0777 H   0  0  0  0  0  0
  -26.7108  -32.5554   23.1209 H   0  0  0  0  0  0
  -25.0112  -33.9816   25.0541 H   0  0  0  0  0  0
  -22.6852  -31.3129   21.4201 H   0  0  0  0  0  0
  -23.3754  -35.9644   23.3316 H   0  0  0  0  0  0
  -24.3578  -36.8913   22.2040 H   0  0  0  0  0  0
  -23.7229  -37.6533   23.6624 H   0  0  0  0  0  0
  -26.0409  -31.6066   20.6000 H   0  0  0  0  0  0
  -26.8185  -30.8969   21.9839 H   0  0  0  0  0  0
  -28.0912  -29.0982   21.1953 H   0  0  0  0  0  0
  -26.0649  -26.0242   18.9486 H   0  0  0  0  0  0
  -23.9794  -27.3336   18.9956 H   0  0  0  0  0  0
  -23.7170  -30.6158   19.4090 H   0  0  0  0  0  0
  -22.7317  -29.2604   19.8660 H   0  0  0  0  0  0
  -25.1282  -36.2010   25.0841 H   0  0  0  0  0  0
  -20.9964  -28.3181   24.1454 H   0  0  0  0  0  0
  -20.5704  -26.2254   23.3585 H   0  0  0  0  0  0
  -21.6650  -26.7456   22.1189 H   0  0  0  0  0  0
  -19.6919  -25.6301   21.1227 H   0  0  0  0  0  0
  -19.6684  -27.3229   20.6755 H   0  0  0  0  0  0
  -17.4220  -26.6713   21.4010 H   0  0  0  0  0  0
  -18.0314  -26.0064   22.9004 H   0  0  0  0  0  0
  -19.7933  -30.7231   24.2337 H   0  0  0  0  0  0
  -17.5016  -31.6255   24.5192 H   0  0  0  0  0  0
  -15.5354  -30.3002   23.7650 H   0  0  0  0  0  0
  -15.8664  -28.0859   22.7024 H   0  0  0  0  0  0
  -24.5921  -30.7038   25.7791 H   0  0  0  0  0  0
  -24.8924  -32.2830   26.4953 H   0  0  0  0  0  0
  -25.8100  -30.8811   27.0223 H   0  0  0  0  0  0
  -26.2837  -29.6809   24.1171 H   0  0  0  0  0  0
  -27.4126  -29.7296   25.4530 H   0  0  0  0  0  0
  -27.8653  -30.4394   23.9211 H   0  0  0  0  0  0
  -27.2744  -33.3601   26.2093 H   0  0  0  0  0  0
  -28.3858  -32.6867   25.0263 H   0  0  0  0  0  0
  -28.0795  -31.8393   26.5339 H   0  0  0  0  0  0
  -28.2619  -38.0094   24.7524 H   0  0  0  0  0  0
  -28.1070  -36.2638   24.6291 H   0  0  0  0  0  0
  -27.2301  -37.1473   25.8867 H   0  0  0  0  0  0
  -20.9294  -29.8788   21.7008 H   0  0  0  0  0  0
  -26.0200  -38.2894   24.1411 H   0  0  0  0  0  0
  -29.4856  -15.1920   23.1329 H   0  0  0  0  0  0
  -29.5782  -17.3537   18.3741 H   0  0  0  0  0  0
  -30.9997  -16.3198   18.5167 H   0  0  0  0  0  0
  -31.1099  -18.0255   18.9719 H   0  0  0  0  0  0
  -29.3102  -18.8904   23.6268 H   0  0  0  0  0  0
  -28.3670  -17.5533   24.2003 H   0  0  0  0  0  0
  -26.4155  -18.3706   23.2962 H   0  0  0  0  0  0
  -27.1432  -18.5863   21.7516 H   0  0  0  0  0  0
  -28.2666  -20.7509   22.8071 H   0  0  0  0  0  0
  -26.9845  -20.6125   23.9883 H   0  0  0  0  0  0
  -25.3261  -20.5634   22.0468 H   0  0  0  0  0  0
  -26.6500  -20.7937   20.9438 H   0  0  0  0  0  0
  -25.7265  -22.7894   23.0653 H   0  0  0  0  0  0
  -25.4287  -22.8574   21.3589 H   0  0  0  0  0  0
  -28.2041  -22.7432   21.3533 H   0  0  0  0  0  0
  -27.9137  -23.5626   22.8670 H   0  0  0  0  0  0
  -26.3523  -25.1471   21.4937 H   0  0  0  0  0  0
  -27.0143  -24.3622   20.0731 H   0  0  0  0  0  0
  -28.4936  -26.1212   22.0935 H   0  0  0  0  0  0
  -29.3470  -25.1097   20.9586 H   0  0  0  0  0  0
  1 25  1  0  0  0
  1 30  2  0  0  0
  1 72  1  0  0  0
  2  3  1  0  0  0
  2 25  1  0  0  0
  2 85  1  0  0  0
  2 86  1  0  0  0
  3  4  1  0  0  0
  3 87  1  0  0  0
  3 88  1  0  0  0
  4  5  1  0  0  0
  4 89  1  0  0  0
  4 90  1  0  0  0
  5  6  1  0  0  0
  5 26  1  0  0  0
  5 91  1  0  0  0
  6 25  1  0  0  0
  6 92  1  0  0  0
  6 93  1  0  0  0
  7  8  2  0  0  0
  7 26  1  0  0  0
  7 29  1  0  0  0
  8  9  1  0  0  0
  8 22  1  0  0  0
  9 10  1  0  0  0
  9 27  2  0  0  0
 10 11  2  0  0  0
 10 15  1  0  0  0
 11 12  1  0  0  0
 11 94  1  0  0  0
 12 13  2  0  0  0
 12 95  1  0  0  0
 13 14  1  0  0  0
 13 31  1  0  0  0
 14 15  2  0  0  0
 14 96  1  0  0  0
 15 97  1  0  0  0
 16 17  2  0  0  0
 16 21  1  0  0  0
 16 31  1  0  0  0
 17 18  1  0  0  0
 17 98  1  0  0  0
 18 19  2  0  0  0
 18 99  1  0  0  0
 19 20  1  0  0  0
 19 24  1  0  0  0
 20 21  2  0  0  0
 20100  1  0  0  0
 21 23  1  0  0  0
 22 28  1  0  0  0
 22 32  2  0  0  0
 26 27  1  0  0  0
 28101  1  0  0  0
 28102  1  0  0  0
 29103  1  0  0  0
 29104  1  0  0  0
 33 34  1  0  0  0
 33 66  1  0  0  0
 33 70  2  0  0  0
 34 36  1  0  0  0
 34 59  1  0  0  0
 34105  1  0  0  0
 35 44  2  0  0  0
 35 45  1  0  0  0
 35 68  1  0  0  0
 36 56  1  0  0  0
 36106  1  0  0  0
 37 39  1  0  0  0
 37 47  1  0  0  0
 37 66  1  0  0  0
 37107  1  0  0  0
 38 43  2  0  0  0
 38 46  1  0  0  0
 38 47  1  0  0  0
 39 64  1  0  0  0
 39 67  2  0  0  0
 40 52  1  0  0  0
 40 53  2  0  0  0
 40 58  1  0  0  0
 41108  1  0  0  0
 41109  1  0  0  0
 41110  1  0  0  0
 41 48  1  0  0  0
 42 43  1  0  0  0
 42 66  1  0  0  0
 42111  1  0  0  0
 42112  1  0  0  0
 43 44  1  0  0  0
 44113  1  0  0  0
 45 46  2  0  0  0
 45114  1  0  0  0
 46115  1  0  0  0
 47116  1  0  0  0
 47117  1  0  0  0
 48 56  1  0  0  0
 48 65  1  0  0  0
 48118  1  0  0  0
 49 50  1  0  0  0
 49 53  1  0  0  0
 49 64  1  0  0  0
 49119  1  0  0  0
 50 51  1  0  0  0
 50120  1  0  0  0
 50121  1  0  0  0
 51 52  1  0  0  0
 51122  1  0  0  0
 51123  1  0  0  0
 52124  1  0  0  0
 52125  1  0  0  0
 53 54  1  0  0  0
 54 55  2  0  0  0
 54126  1  0  0  0
 55 57  1  0  0  0
 55127  1  0  0  0
 56 69  2  0  0  0
 57 58  2  0  0  0
 57128  1  0  0  0
 58129  1  0  0  0
 59 60  1  0  0  0
 59 61  1  0  0  0
 59 62  1  0  0  0
 60130  1  0  0  0
 60131  1  0  0  0
 60132  1  0  0  0
 61133  1  0  0  0
 61134  1  0  0  0
 61135  1  0  0  0
 62136  1  0  0  0
 62137  1  0  0  0
 62138  1  0  0  0
 63 65  1  0  0  0
 63139  1  0  0  0
 63140  1  0  0  0
 63141  1  0  0  0
 64142  1  0  0  0
 65143  1  0  0  0
 68 82  1  0  0  0
 71 72  2  0  0  0
 71 73  1  0  0  0
 71144  1  0  0  0
 72 84  1  0  0  0
 73 75  1  0  0  0
 73 83  2  0  0  0
 74 84  1  0  0  0
 74145  1  0  0  0
 74146  1  0  0  0
 74147  1  0  0  0
 75 76  1  0  0  0
 75148  1  0  0  0
 75149  1  0  0  0
 76 77  1  0  0  0
 76150  1  0  0  0
 76151  1  0  0  0
 77 78  1  0  0  0
 77152  1  0  0  0
 77153  1  0  0  0
 78 79  1  0  0  0
 78154  1  0  0  0
 78155  1  0  0  0
 79 80  1  0  0  0
 79156  1  0  0  0
 79157  1  0  0  0
 80 81  1  0  0  0
 80158  1  0  0  0
 80159  1  0  0  0
 81 82  1  0  0  0
 81160  1  0  0  0
 81161  1  0  0  0
 82162  1  0  0  0
 82163  1  0  0  0
 83 84  1  0  0  0
M  ISO  4   1 100  68 101  72 100  82 101
M  END
> <chiral flag>
0

> <version>
0

> <s_m_source_file>
/data/baiqing/PycharmProjects/Reinvent-master-3.2/result/LINK_invent/BTK/process_docking_weight1_custom_sum_contain_oxygen_bond_distance_aromatic_linkinvent_7_9_3/rearranged_h_0046.sdf

> <i_m_source_file_index>
10

> <r_mmod_Potential_Energy-OPLS-2005>
58.4524383544922

> <r_mmod_Stretch_Energy-OPLS-2005>
32.4832420349121

> <r_mmod_Bend_Energy-OPLS-2005>
103.7314453125

> <r_mmod_Torsional_Energy-OPLS-2005>
240.846588134766

> <r_mmod_Improper_Torsional_Energy-OPLS-2005>
5.44520711898804

> <r_mmod_Van_der_Waal_Energy-OPLS-2005>
126.941856384277

> <r_mmod_Electrostatic_Energy-OPLS-2005>
-276.515258789062

> <r_mmod_Solvation_Energy-OPLS-2005>
-187.2861328125

> <b_mmod_Minimization_Converged-OPLS-2005>
0

> <r_mmod_RMS_Derivative-OPLS-2005>
2.45177102088928

$$$$
10
                    3D
 Structure written by MMmdl.
157165  0  0  1  0            999 V2000
  -30.6305  -14.7517   20.4653 C   0  0  0  0  0  0
  -30.4288  -12.4663   19.4703 C   0  0  0  0  0  0
  -29.5123  -12.5234   18.2322 C   0  0  0  0  0  0
  -28.0391  -12.3397   18.6445 C   0  0  0  0  0  0
  -27.6399  -13.2395   19.8461 C   0  0  2  0  0  0
  -28.6859  -13.1910   20.9805 C   0  0  0  0  0  0
  -25.2496  -13.8222   20.5708 C   0  0  0  0  0  0
  -24.1806  -13.0452   20.9239 C   0  0  0  0  0  0
  -24.6395  -11.6935   20.8733 C   0  0  0  0  0  0
  -23.9064  -10.4309   21.0377 C   0  0  0  0  0  0
  -24.3611   -9.4226   21.9151 C   0  0  0  0  0  0
  -23.6311   -8.2247   22.0726 C   0  0  0  0  0  0
  -22.4291   -8.0264   21.3529 C   0  0  0  0  0  0
  -21.9916   -9.0227   20.4628 C   0  0  0  0  0  0
  -22.7221  -10.2129   20.3037 C   0  0  0  0  0  0
  -21.6855   -6.0719   22.5263 C   0  0  0  0  0  0
  -21.4020   -6.5626   23.8204 C   0  0  0  0  0  0
  -21.3685   -5.6776   24.9162 C   0  0  0  0  0  0
  -21.6055   -4.3043   24.7220 C   0  0  0  0  0  0
  -21.8821   -3.8141   23.4325 C   0  0  0  0  0  0
  -21.9194   -4.6953   22.3391 C   0  0  0  0  0  0
  -22.7817  -13.5205   21.1870 C   0  0  0  0  0  0
  -22.1646   -4.2143   21.0962 F   0  0  0  0  0  0
  -21.5646   -3.4515   25.7724 F   0  0  0  0  0  0
  -29.9863  -13.5362   20.3913 N   0  0  0  0  0  0
  -26.2926  -12.9446   20.3269 N   0  0  0  0  0  0
  -25.9337  -11.6577   20.5763 N   0  0  0  0  0  0
  -22.0443  -12.8216   22.0437 N   0  0  0  0  0  0
  -25.4193  -15.1946   20.4118 N   0  0  0  0  0  0
  -31.8262  -14.8302   20.1745 O   0  0  0  0  0  0
  -21.6659   -6.8860   21.4232 O   0  0  0  0  0  0
  -22.3485  -14.5480   20.6662 O   0  0  0  0  0  0
  -24.6277  -31.8590   23.1981 C   0  0  0  0  0  0
  -25.9106  -32.4794   23.8330 C   0  0  1  0  0  0
  -27.2260  -27.2809   20.1402 C   0  0  0  0  0  0
  -25.5907  -33.8587   24.2266 N   0  0  0  0  0  0
  -23.4263  -30.4770   21.5438 C   0  0  2  0  0  0
  -24.8781  -28.9240   20.1134 C   0  0  0  0  0  0
  -22.7488  -29.4611   22.4941 C   0  0  0  0  0  0
  -18.0298  -28.1387   22.8499 C   0  0  0  0  0  0
  -24.1428  -36.7340   23.2644 C   0  0  0  0  0  0
  -25.9678  -30.7773   21.3770 C   0  0  0  0  0  0
  -26.0462  -29.3972   20.7270 C   0  0  0  0  0  0
  -27.2264  -28.5867   20.7320 C   0  0  0  0  0  0
  -26.0473  -26.8816   19.4787 C   0  0  0  0  0  0
  -24.8823  -27.6720   19.4756 C   0  0  0  0  0  0
  -23.6437  -29.8032   20.1624 C   0  0  0  0  0  0
  -25.4064  -36.3101   24.0321 C   0  0  1  0  0  0
  -20.5898  -28.3694   23.1296 C   0  0  2  0  0  0
  -20.6779  -26.9420   22.5422 C   0  0  0  0  0  0
  -19.5758  -26.6376   21.5219 C   0  0  0  0  0  0
  -18.1936  -26.7930   22.1622 C   0  0  0  0  0  0
  -19.1549  -28.8849   23.2892 C   0  0  0  0  0  0
  -18.9471  -30.1444   23.8917 C   0  0  0  0  0  0
  -17.6467  -30.6587   24.0564 C   0  0  0  0  0  0
  -25.9005  -34.9466   23.5085 C   0  0  0  0  0  0
  -16.5362  -29.9096   23.6328 C   0  0  0  0  0  0
  -16.7277  -28.6512   23.0361 C   0  0  0  0  0  0
  -26.4466  -31.6630   25.0726 C   0  0  0  0  0  0
  -25.3694  -31.3815   26.1478 C   0  0  0  0  0  0
  -27.0348  -30.3062   24.6231 C   0  0  0  0  0  0
  -27.6022  -32.4389   25.7499 C   0  0  0  0  0  0
  -27.5553  -37.1806   24.8424 C   0  0  0  0  0  0
  -21.4197  -29.3042   22.3682 N   0  0  0  0  0  0
  -26.4242  -37.3803   23.9407 N   0  0  0  0  0  0
  -24.6937  -31.0557   22.0968 N   0  0  0  0  0  0
  -23.4196  -28.8160   23.3040 O   0  0  0  0  0  0
  -28.3052  -26.3713   20.1601 O   0  0  0  0  0  0
  -26.5575  -34.8935   22.4645 O   0  0  0  0  0  0
  -23.5436  -32.1388   23.7277 O   0  0  0  0  0  0
  -29.1627  -23.3062   19.1517 C   0  0  0  0  0  0
  -28.9631  -22.5305   21.1963 C   0  0  0  0  0  0
  -28.7651  -23.7064   20.4661 C   0  0  0  0  0  0
  -29.6053  -21.9938   19.1457 C   0  0  0  0  0  0
  -30.2027  -21.2242   18.0100 C   0  0  0  0  0  0
  -26.8815  -24.9257   21.7320 C   0  0  0  0  0  0
  -29.5828  -18.6472   20.3257 C   0  0  0  0  0  0
  -29.9692  -20.0956   20.9506 C   0  0  0  0  0  0
  -30.3590  -17.3420   20.9193 C   0  0  0  0  0  0
  -28.2289  -25.1205   20.9997 C   0  0  2  0  0  0
  -29.4718  -21.4518   20.4240 N   0  0  0  0  0  0
  -29.8860  -15.9032   20.6762 N   0  0  0  0  0  0
  -31.4711  -12.5833   19.1691 H   0  0  0  0  0  0
  -30.3589  -11.4919   19.9566 H   0  0  0  0  0  0
  -29.8075  -11.7556   17.5158 H   0  0  0  0  0  0
  -29.6384  -13.4844   17.7279 H   0  0  0  0  0  0
  -27.9051  -11.2899   18.9105 H   0  0  0  0  0  0
  -27.3825  -12.5260   17.7925 H   0  0  0  0  0  0
  -27.6237  -14.2603   19.4602 H   0  0  0  0  0  0
  -28.7253  -12.2044   21.4452 H   0  0  0  0  0  0
  -28.4211  -13.8908   21.7749 H   0  0  0  0  0  0
  -25.2732   -9.5737   22.4752 H   0  0  0  0  0  0
  -24.0027   -7.4661   22.7454 H   0  0  0  0  0  0
  -21.0834   -8.8732   19.8950 H   0  0  0  0  0  0
  -22.3626  -10.9666   19.6173 H   0  0  0  0  0  0
  -21.1993   -7.6138   23.9699 H   0  0  0  0  0  0
  -21.1521   -6.0507   25.9071 H   0  0  0  0  0  0
  -22.0583   -2.7602   23.2816 H   0  0  0  0  0  0
  -22.4033  -11.9895   22.4881 H   0  0  0  0  0  0
  -21.1054  -13.1265   22.2586 H   0  0  0  0  0  0
  -24.6471  -15.8485   20.4980 H   0  0  0  0  0  0
  -26.2640  -15.6329   20.0666 H   0  0  0  0  0  0
  -26.7160  -32.5460   23.1073 H   0  0  0  0  0  0
  -25.0067  -33.9709   25.0420 H   0  0  0  0  0  0
  -22.7209  -31.2967   21.3940 H   0  0  0  0  0  0
  -23.3685  -35.9684   23.3282 H   0  0  0  0  0  0
  -24.3492  -36.8998   22.2056 H   0  0  0  0  0  0
  -23.7175  -37.6531   23.6690 H   0  0  0  0  0  0
  -26.0965  -31.5371   20.6048 H   0  0  0  0  0  0
  -26.8468  -30.8338   22.0058 H   0  0  0  0  0  0
  -28.1205  -28.9413   21.2258 H   0  0  0  0  0  0
  -26.0210  -25.9209   18.9853 H   0  0  0  0  0  0
  -23.9929  -27.3081   18.9815 H   0  0  0  0  0  0
  -23.7545  -30.5708   19.3940 H   0  0  0  0  0  0
  -22.7658  -29.2226   19.8725 H   0  0  0  0  0  0
  -25.1223  -36.1967   25.0815 H   0  0  0  0  0  0
  -20.9985  -28.3271   24.1418 H   0  0  0  0  0  0
  -20.5676  -26.2308   23.3619 H   0  0  0  0  0  0
  -21.6658  -26.7448   22.1230 H   0  0  0  0  0  0
  -19.6911  -25.6275   21.1278 H   0  0  0  0  0  0
  -19.6698  -27.3163   20.6729 H   0  0  0  0  0  0
  -17.4221  -26.6696   21.4006 H   0  0  0  0  0  0
  -18.0315  -26.0054   22.8998 H   0  0  0  0  0  0
  -19.7952  -30.7236   24.2318 H   0  0  0  0  0  0
  -17.5042  -31.6268   24.5164 H   0  0  0  0  0  0
  -15.5375  -30.3007   23.7619 H   0  0  0  0  0  0
  -15.8682  -28.0804   22.7099 H   0  0  0  0  0  0
  -24.5725  -30.7327   25.7800 H   0  0  0  0  0  0
  -24.9034  -32.3025   26.4984 H   0  0  0  0  0  0
  -25.7971  -30.8880   27.0222 H   0  0  0  0  0  0
  -26.2947  -29.6752   24.1319 H   0  0  0  0  0  0
  -27.4107  -29.7387   25.4746 H   0  0  0  0  0  0
  -27.8752  -30.4363   23.9442 H   0  0  0  0  0  0
  -27.2560  -33.3546   26.2300 H   0  0  0  0  0  0
  -28.3698  -32.7219   25.0295 H   0  0  0  0  0  0
  -28.0898  -31.8473   26.5247 H   0  0  0  0  0  0
  -28.2576  -38.0099   24.7498 H   0  0  0  0  0  0
  -28.1041  -36.2644   24.6192 H   0  0  0  0  0  0
  -27.2289  -37.1401   25.8829 H   0  0  0  0  0  0
  -20.9370  -29.8753   21.6881 H   0  0  0  0  0  0
  -26.0137  -38.2893   24.1408 H   0  0  0  0  0  0
  -29.1658  -23.9428   18.2755 H   0  0  0  0  0  0
  -28.8134  -22.3798   22.2581 H   0  0  0  0  0  0
  -30.7362  -21.8920   17.3335 H   0  0  0  0  0  0
  -29.4330  -20.7128   17.4309 H   0  0  0  0  0  0
  -30.9239  -20.4799   18.3486 H   0  0  0  0  0  0
  -26.5444  -25.8380   22.2266 H   0  0  0  0  0  0
  -26.9622  -24.1656   22.5090 H   0  0  0  0  0  0
  -26.0945  -24.5996   21.0517 H   0  0  0  0  0  0
  -29.7516  -18.6750   19.2495 H   0  0  0  0  0  0
  -28.5089  -18.5161   20.4482 H   0  0  0  0  0  0
  -31.0566  -20.1603   20.9389 H   0  0  0  0  0  0
  -29.7109  -20.0642   22.0090 H   0  0  0  0  0  0
  -31.4061  -17.4051   20.6181 H   0  0  0  0  0  0
  -30.3834  -17.4557   22.0030 H   0  0  0  0  0  0
  -28.9331  -25.3561   21.7984 H   0  0  0  0  0  0
  -28.8961  -15.7446   20.7994 H   0  0  0  0  0  0
  1 25  1  0  0  0
  1 30  2  0  0  0
  1 82  1  0  0  0
  2  3  1  0  0  0
  2 25  1  0  0  0
  2 83  1  0  0  0
  2 84  1  0  0  0
  3  4  1  0  0  0
  3 85  1  0  0  0
  3 86  1  0  0  0
  4  5  1  0  0  0
  4 87  1  0  0  0
  4 88  1  0  0  0
  5  6  1  0  0  0
  5 26  1  0  0  0
  5 89  1  0  0  0
  6 25  1  0  0  0
  6 90  1  0  0  0
  6 91  1  0  0  0
  7  8  2  0  0  0
  7 26  1  0  0  0
  7 29  1  0  0  0
  8  9  1  0  0  0
  8 22  1  0  0  0
  9 10  1  0  0  0
  9 27  2  0  0  0
 10 11  2  0  0  0
 10 15  1  0  0  0
 11 12  1  0  0  0
 11 92  1  0  0  0
 12 13  2  0  0  0
 12 93  1  0  0  0
 13 14  1  0  0  0
 13 31  1  0  0  0
 14 15  2  0  0  0
 14 94  1  0  0  0
 15 95  1  0  0  0
 16 17  2  0  0  0
 16 21  1  0  0  0
 16 31  1  0  0  0
 17 18  1  0  0  0
 17 96  1  0  0  0
 18 19  2  0  0  0
 18 97  1  0  0  0
 19 20  1  0  0  0
 19 24  1  0  0  0
 20 21  2  0  0  0
 20 98  1  0  0  0
 21 23  1  0  0  0
 22 28  1  0  0  0
 22 32  2  0  0  0
 26 27  1  0  0  0
 28 99  1  0  0  0
 28100  1  0  0  0
 29101  1  0  0  0
 29102  1  0  0  0
 33 34  1  0  0  0
 33 66  1  0  0  0
 33 70  2  0  0  0
 34 36  1  0  0  0
 34 59  1  0  0  0
 34103  1  0  0  0
 35 44  2  0  0  0
 35 45  1  0  0  0
 35 68  1  0  0  0
 36 56  1  0  0  0
 36104  1  0  0  0
 37 39  1  0  0  0
 37 47  1  0  0  0
 37 66  1  0  0  0
 37105  1  0  0  0
 38 43  2  0  0  0
 38 46  1  0  0  0
 38 47  1  0  0  0
 39 64  1  0  0  0
 39 67  2  0  0  0
 40 52  1  0  0  0
 40 53  2  0  0  0
 40 58  1  0  0  0
 41106  1  0  0  0
 41107  1  0  0  0
 41108  1  0  0  0
 41 48  1  0  0  0
 42 43  1  0  0  0
 42 66  1  0  0  0
 42109  1  0  0  0
 42110  1  0  0  0
 43 44  1  0  0  0
 44111  1  0  0  0
 45 46  2  0  0  0
 45112  1  0  0  0
 46113  1  0  0  0
 47114  1  0  0  0
 47115  1  0  0  0
 48 56  1  0  0  0
 48 65  1  0  0  0
 48116  1  0  0  0
 49 50  1  0  0  0
 49 53  1  0  0  0
 49 64  1  0  0  0
 49117  1  0  0  0
 50 51  1  0  0  0
 50118  1  0  0  0
 50119  1  0  0  0
 51 52  1  0  0  0
 51120  1  0  0  0
 51121  1  0  0  0
 52122  1  0  0  0
 52123  1  0  0  0
 53 54  1  0  0  0
 54 55  2  0  0  0
 54124  1  0  0  0
 55 57  1  0  0  0
 55125  1  0  0  0
 56 69  2  0  0  0
 57 58  2  0  0  0
 57126  1  0  0  0
 58127  1  0  0  0
 59 60  1  0  0  0
 59 61  1  0  0  0
 59 62  1  0  0  0
 60128  1  0  0  0
 60129  1  0  0  0
 60130  1  0  0  0
 61131  1  0  0  0
 61132  1  0  0  0
 61133  1  0  0  0
 62134  1  0  0  0
 62135  1  0  0  0
 62136  1  0  0  0
 63 65  1  0  0  0
 63137  1  0  0  0
 63138  1  0  0  0
 63139  1  0  0  0
 64140  1  0  0  0
 65141  1  0  0  0
 68 80  1  0  0  0
 71 73  1  0  0  0
 71 74  2  0  0  0
 71142  1  0  0  0
 72 73  2  0  0  0
 72 81  1  0  0  0
 72143  1  0  0  0
 73 80  1  0  0  0
 74 75  1  0  0  0
 74 81  1  0  0  0
 75144  1  0  0  0
 75145  1  0  0  0
 75146  1  0  0  0
 76147  1  0  0  0
 76148  1  0  0  0
 76149  1  0  0  0
 76 80  1  0  0  0
 77 78  1  0  0  0
 77 79  1  0  0  0
 77150  1  0  0  0
 77151  1  0  0  0
 78 81  1  0  0  0
 78152  1  0  0  0
 78153  1  0  0  0
 79 82  1  0  0  0
 79154  1  0  0  0
 79155  1  0  0  0
 80156  1  0  0  0
 82157  1  0  0  0
M  ISO  4   1 100  68 101  80 101  82 100
M  END
> <chiral flag>
0

> <version>
0

> <s_m_source_file>
/data/baiqing/PycharmProjects/Reinvent-master-3.2/result/LINK_invent/BTK/process_docking_weight1_custom_sum_contain_oxygen_bond_distance_aromatic_linkinvent_7_9_3/rearranged_h_0046.sdf

> <i_m_source_file_index>
11

> <r_mmod_Potential_Energy-OPLS-2005>
168.713165283203

> <r_mmod_Stretch_Energy-OPLS-2005>
122.404235839844

> <r_mmod_Bend_Energy-OPLS-2005>
180.151351928711

> <r_mmod_Torsional_Energy-OPLS-2005>
251.824691772461

> <r_mmod_Improper_Torsional_Energy-OPLS-2005>
5.62787008285522

> <r_mmod_Van_der_Waal_Energy-OPLS-2005>
115.03377532959

> <r_mmod_Electrostatic_Energy-OPLS-2005>
-377.173248291016

> <r_mmod_Solvation_Energy-OPLS-2005>
-214.298187255859

> <b_mmod_Minimization_Converged-OPLS-2005>
0

> <r_mmod_RMS_Derivative-OPLS-2005>
3.76645112037659

$$$$
11
                    3D
 Structure written by MMmdl.
158166  0  0  1  0            999 V2000
  -30.6305  -14.7262   20.4861 C   0  0  0  0  0  0
  -30.4362  -12.4521   19.4747 C   0  0  0  0  0  0
  -29.5120  -12.5161   18.2393 C   0  0  0  0  0  0
  -28.0361  -12.3405   18.6514 C   0  0  0  0  0  0
  -27.6433  -13.2348   19.8579 C   0  0  2  0  0  0
  -28.6905  -13.1606   20.9908 C   0  0  0  0  0  0
  -25.2514  -13.8200   20.5709 C   0  0  0  0  0  0
  -24.1799  -13.0433   20.9213 C   0  0  0  0  0  0
  -24.6381  -11.6913   20.8738 C   0  0  0  0  0  0
  -23.9046  -10.4289   21.0396 C   0  0  0  0  0  0
  -24.3613   -9.4202   21.9181 C   0  0  0  0  0  0
  -23.6311   -8.2222   22.0737 C   0  0  0  0  0  0
  -22.4286   -8.0264   21.3536 C   0  0  0  0  0  0
  -21.9912   -9.0239   20.4627 C   0  0  0  0  0  0
  -22.7213  -10.2133   20.3036 C   0  0  0  0  0  0
  -21.6840   -6.0737   22.5284 C   0  0  0  0  0  0
  -21.3998   -6.5644   23.8224 C   0  0  0  0  0  0
  -21.3679   -5.6791   24.9189 C   0  0  0  0  0  0
  -21.6056   -4.3055   24.7214 C   0  0  0  0  0  0
  -21.8825   -3.8149   23.4332 C   0  0  0  0  0  0
  -21.9182   -4.6971   22.3392 C   0  0  0  0  0  0
  -22.7823  -13.5214   21.1880 C   0  0  0  0  0  0
  -22.1641   -4.2167   21.0968 F   0  0  0  0  0  0
  -21.5665   -3.4532   25.7725 F   0  0  0  0  0  0
  -29.9922  -13.5108   20.4069 N   0  0  0  0  0  0
  -26.2948  -12.9401   20.3341 N   0  0  0  0  0  0
  -25.9319  -11.6535   20.5754 N   0  0  0  0  0  0
  -22.0469  -12.8198   22.0428 N   0  0  0  0  0  0
  -25.4187  -15.1922   20.4084 N   0  0  0  0  0  0
  -31.8223  -14.8243   20.1844 O   0  0  0  0  0  0
  -21.6642   -6.8873   21.4235 O   0  0  0  0  0  0
  -22.3498  -14.5517   20.6726 O   0  0  0  0  0  0
  -24.6337  -31.8602   23.2036 C   0  0  0  0  0  0
  -25.9171  -32.4802   23.8357 C   0  0  1  0  0  0
  -27.1992  -27.2756   20.1112 C   0  0  0  0  0  0
  -25.5981  -33.8602   24.2286 N   0  0  0  0  0  0
  -23.4245  -30.4941   21.5495 C   0  0  2  0  0  0
  -24.8613  -28.9557   20.1065 C   0  0  0  0  0  0
  -22.7509  -29.4661   22.4914 C   0  0  0  0  0  0
  -18.0297  -28.1417   22.8477 C   0  0  0  0  0  0
  -24.1492  -36.7334   23.2631 C   0  0  0  0  0  0
  -25.9719  -30.7851   21.3716 C   0  0  0  0  0  0
  -26.0402  -29.4078   20.7156 C   0  0  0  0  0  0
  -27.2125  -28.5832   20.7039 C   0  0  0  0  0  0
  -25.9907  -26.9037   19.4674 C   0  0  0  0  0  0
  -24.8458  -27.7127   19.4683 C   0  0  0  0  0  0
  -23.6357  -29.8455   20.1591 C   0  0  0  0  0  0
  -25.4111  -36.3119   24.0325 C   0  0  1  0  0  0
  -20.5908  -28.3728   23.1256 C   0  0  2  0  0  0
  -20.6800  -26.9446   22.5402 C   0  0  0  0  0  0
  -19.5771  -26.6386   21.5225 C   0  0  0  0  0  0
  -18.1949  -26.7961   22.1628 C   0  0  0  0  0  0
  -19.1553  -28.8873   23.2881 C   0  0  0  0  0  0
  -18.9473  -30.1476   23.8907 C   0  0  0  0  0  0
  -17.6464  -30.6598   24.0576 C   0  0  0  0  0  0
  -25.9055  -34.9476   23.5098 C   0  0  0  0  0  0
  -16.5359  -29.9106   23.6329 C   0  0  0  0  0  0
  -16.7280  -28.6537   23.0333 C   0  0  0  0  0  0
  -26.4509  -31.6612   25.0738 C   0  0  0  0  0  0
  -25.3726  -31.3726   26.1451 C   0  0  0  0  0  0
  -27.0324  -30.3058   24.6140 C   0  0  0  0  0  0
  -27.6087  -32.4315   25.7517 C   0  0  0  0  0  0
  -27.5593  -37.1811   24.8436 C   0  0  0  0  0  0
  -21.4204  -29.3100   22.3658 N   0  0  0  0  0  0
  -26.4283  -37.3829   23.9422 N   0  0  0  0  0  0
  -24.6991  -31.0601   22.1011 N   0  0  0  0  0  0
  -23.4228  -28.8163   23.2965 O   0  0  0  0  0  0
  -28.2790  -26.3552   20.1712 O   0  0  0  0  0  0
  -26.5602  -34.8934   22.4661 O   0  0  0  0  0  0
  -23.5485  -32.1361   23.7382 O   0  0  0  0  0  0
  -28.3990  -22.8940   17.6530 C   0  0  0  0  0  0
  -28.1531  -22.0191   16.5911 C   0  0  0  0  0  0
  -28.7889  -22.4410   18.9444 C   0  0  0  0  0  0
  -28.3563  -20.6629   16.8025 C   0  0  0  0  0  0
  -29.0165  -20.9849   19.0513 C   0  0  0  0  0  0
  -28.1624  -19.6481   15.6964 C   0  0  0  0  0  0
  -28.9848  -23.6346   19.9892 C   0  0  0  0  0  0
  -29.6469  -20.0670   20.1873 C   0  0  0  0  0  0
  -29.4674  -18.4403   20.0124 C   0  0  0  0  0  0
  -30.2601  -17.3274   20.8649 C   0  0  0  0  0  0
  -27.9612  -24.9072   19.9162 C   0  0  0  0  0  0
  -28.7848  -20.1903   17.9784 N   0  0  0  0  0  0
  -29.8651  -15.8562   20.7150 N   0  0  0  0  0  0
  -31.4795  -12.5751   19.1776 H   0  0  0  0  0  0
  -30.3766  -11.4750   19.9544 H   0  0  0  0  0  0
  -29.7975  -11.7493   17.5187 H   0  0  0  0  0  0
  -29.6458  -13.4750   17.7356 H   0  0  0  0  0  0
  -27.8884  -11.2897   18.9058 H   0  0  0  0  0  0
  -27.3780  -12.5411   17.8053 H   0  0  0  0  0  0
  -27.6344  -14.2593   19.4850 H   0  0  0  0  0  0
  -28.7223  -12.1583   21.4181 H   0  0  0  0  0  0
  -28.4305  -13.8337   21.8112 H   0  0  0  0  0  0
  -25.2738   -9.5724   22.4774 H   0  0  0  0  0  0
  -24.0046   -7.4608   22.7431 H   0  0  0  0  0  0
  -21.0873   -8.8713   19.8913 H   0  0  0  0  0  0
  -22.3634  -10.9681   19.6167 H   0  0  0  0  0  0
  -21.1946   -7.6143   23.9729 H   0  0  0  0  0  0
  -21.1531   -6.0517   25.9107 H   0  0  0  0  0  0
  -22.0586   -2.7599   23.2808 H   0  0  0  0  0  0
  -22.4062  -11.9865   22.4852 H   0  0  0  0  0  0
  -21.1082  -13.1230   22.2613 H   0  0  0  0  0  0
  -24.6517  -15.8475   20.5122 H   0  0  0  0  0  0
  -26.2721  -15.6309   20.0875 H   0  0  0  0  0  0
  -26.7252  -32.5445   23.1110 H   0  0  0  0  0  0
  -25.0190  -33.9745   25.0464 H   0  0  0  0  0  0
  -22.7220  -31.3199   21.4159 H   0  0  0  0  0  0
  -23.3773  -35.9645   23.3225 H   0  0  0  0  0  0
  -24.3617  -36.9032   22.2063 H   0  0  0  0  0  0
  -23.7186  -37.6497   23.6683 H   0  0  0  0  0  0
  -26.0909  -31.5425   20.5941 H   0  0  0  0  0  0
  -26.8632  -30.8463   21.9861 H   0  0  0  0  0  0
  -28.1126  -28.9337   21.1912 H   0  0  0  0  0  0
  -25.8593  -25.9656   18.9556 H   0  0  0  0  0  0
  -23.9539  -27.3679   18.9638 H   0  0  0  0  0  0
  -23.7612  -30.6328   19.4145 H   0  0  0  0  0  0
  -22.7496  -29.2906   19.8465 H   0  0  0  0  0  0
  -25.1274  -36.1974   25.0811 H   0  0  0  0  0  0
  -21.0020  -28.3331   24.1371 H   0  0  0  0  0  0
  -20.5727  -26.2358   23.3626 H   0  0  0  0  0  0
  -21.6660  -26.7486   22.1181 H   0  0  0  0  0  0
  -19.6938  -25.6285   21.1293 H   0  0  0  0  0  0
  -19.6710  -27.3165   20.6735 H   0  0  0  0  0  0
  -17.4220  -26.6707   21.4029 H   0  0  0  0  0  0
  -18.0338  -26.0109   22.9026 H   0  0  0  0  0  0
  -19.7942  -30.7302   24.2296 H   0  0  0  0  0  0
  -17.5011  -31.6284   24.5187 H   0  0  0  0  0  0
  -15.5363  -30.3011   23.7643 H   0  0  0  0  0  0
  -15.8692  -28.0866   22.7019 H   0  0  0  0  0  0
  -24.5935  -30.7047   25.7762 H   0  0  0  0  0  0
  -24.8859  -32.2859   26.4875 H   0  0  0  0  0  0
  -25.8034  -30.8903   27.0229 H   0  0  0  0  0  0
  -26.2850  -29.6861   24.1176 H   0  0  0  0  0  0
  -27.4067  -29.7283   25.4597 H   0  0  0  0  0  0
  -27.8703  -30.4406   23.9304 H   0  0  0  0  0  0
  -27.2756  -33.3649   26.2068 H   0  0  0  0  0  0
  -28.3921  -32.6817   25.0353 H   0  0  0  0  0  0
  -28.0717  -31.8431   26.5447 H   0  0  0  0  0  0
  -28.2534  -38.0193   24.7623 H   0  0  0  0  0  0
  -28.1168  -36.2730   24.6073 H   0  0  0  0  0  0
  -27.2340  -37.1241   25.8845 H   0  0  0  0  0  0
  -20.9381  -29.8892   21.6925 H   0  0  0  0  0  0
  -26.0160  -38.2888   24.1514 H   0  0  0  0  0  0
  -28.3019  -23.9340   17.4001 H   0  0  0  0  0  0
  -27.8362  -22.3962   15.6278 H   0  0  0  0  0  0
  -27.5652  -20.0564   14.8812 H   0  0  0  0  0  0
  -27.6553  -18.7577   16.0706 H   0  0  0  0  0  0
  -29.1297  -19.3445   15.2940 H   0  0  0  0  0  0
  -29.9960  -24.0098   19.8401 H   0  0  0  0  0  0
  -28.9713  -23.2167   20.9966 H   0  0  0  0  0  0
  -29.2517  -20.3883   21.1515 H   0  0  0  0  0  0
  -30.7128  -20.3008   20.2139 H   0  0  0  0  0  0
  -29.7392  -18.1819   18.9881 H   0  0  0  0  0  0
  -28.4021  -18.2294   20.0903 H   0  0  0  0  0  0
  -30.1391  -17.5746   21.9197 H   0  0  0  0  0  0
  -31.3281  -17.4239   20.6722 H   0  0  0  0  0  0
  -27.0900  -24.6385   20.5181 H   0  0  0  0  0  0
  -27.5903  -24.9501   18.9070 H   0  0  0  0  0  0
  -28.8897  -15.6601   20.8774 H   0  0  0  0  0  0
  1 25  1  0  0  0
  1 30  2  0  0  0
  1 83  1  0  0  0
  2  3  1  0  0  0
  2 25  1  0  0  0
  2 84  1  0  0  0
  2 85  1  0  0  0
  3  4  1  0  0  0
  3 86  1  0  0  0
  3 87  1  0  0  0
  4  5  1  0  0  0
  4 88  1  0  0  0
  4 89  1  0  0  0
  5  6  1  0  0  0
  5 26  1  0  0  0
  5 90  1  0  0  0
  6 25  1  0  0  0
  6 91  1  0  0  0
  6 92  1  0  0  0
  7  8  2  0  0  0
  7 26  1  0  0  0
  7 29  1  0  0  0
  8  9  1  0  0  0
  8 22  1  0  0  0
  9 10  1  0  0  0
  9 27  2  0  0  0
 10 11  2  0  0  0
 10 15  1  0  0  0
 11 12  1  0  0  0
 11 93  1  0  0  0
 12 13  2  0  0  0
 12 94  1  0  0  0
 13 14  1  0  0  0
 13 31  1  0  0  0
 14 15  2  0  0  0
 14 95  1  0  0  0
 15 96  1  0  0  0
 16 17  2  0  0  0
 16 21  1  0  0  0
 16 31  1  0  0  0
 17 18  1  0  0  0
 17 97  1  0  0  0
 18 19  2  0  0  0
 18 98  1  0  0  0
 19 20  1  0  0  0
 19 24  1  0  0  0
 20 21  2  0  0  0
 20 99  1  0  0  0
 21 23  1  0  0  0
 22 28  1  0  0  0
 22 32  2  0  0  0
 26 27  1  0  0  0
 28100  1  0  0  0
 28101  1  0  0  0
 29102  1  0  0  0
 29103  1  0  0  0
 33 34  1  0  0  0
 33 66  1  0  0  0
 33 70  2  0  0  0
 34 36  1  0  0  0
 34 59  1  0  0  0
 34104  1  0  0  0
 35 44  2  0  0  0
 35 45  1  0  0  0
 35 68  1  0  0  0
 36 56  1  0  0  0
 36105  1  0  0  0
 37 39  1  0  0  0
 37 47  1  0  0  0
 37 66  1  0  0  0
 37106  1  0  0  0
 38 43  2  0  0  0
 38 46  1  0  0  0
 38 47  1  0  0  0
 39 64  1  0  0  0
 39 67  2  0  0  0
 40 52  1  0  0  0
 40 53  2  0  0  0
 40 58  1  0  0  0
 41107  1  0  0  0
 41108  1  0  0  0
 41109  1  0  0  0
 41 48  1  0  0  0
 42 43  1  0  0  0
 42 66  1  0  0  0
 42110  1  0  0  0
 42111  1  0  0  0
 43 44  1  0  0  0
 44112  1  0  0  0
 45 46  2  0  0  0
 45113  1  0  0  0
 46114  1  0  0  0
 47115  1  0  0  0
 47116  1  0  0  0
 48 56  1  0  0  0
 48 65  1  0  0  0
 48117  1  0  0  0
 49 50  1  0  0  0
 49 53  1  0  0  0
 49 64  1  0  0  0
 49118  1  0  0  0
 50 51  1  0  0  0
 50119  1  0  0  0
 50120  1  0  0  0
 51 52  1  0  0  0
 51121  1  0  0  0
 51122  1  0  0  0
 52123  1  0  0  0
 52124  1  0  0  0
 53 54  1  0  0  0
 54 55  2  0  0  0
 54125  1  0  0  0
 55 57  1  0  0  0
 55126  1  0  0  0
 56 69  2  0  0  0
 57 58  2  0  0  0
 57127  1  0  0  0
 58128  1  0  0  0
 59 60  1  0  0  0
 59 61  1  0  0  0
 59 62  1  0  0  0
 60129  1  0  0  0
 60130  1  0  0  0
 60131  1  0  0  0
 61132  1  0  0  0
 61133  1  0  0  0
 61134  1  0  0  0
 62135  1  0  0  0
 62136  1  0  0  0
 62137  1  0  0  0
 63 65  1  0  0  0
 63138  1  0  0  0
 63139  1  0  0  0
 63140  1  0  0  0
 64141  1  0  0  0
 65142  1  0  0  0
 68 81  1  0  0  0
 71 72  2  0  0  0
 71 73  1  0  0  0
 71143  1  0  0  0
 72 74  1  0  0  0
 72144  1  0  0  0
 73 75  2  0  0  0
 73 77  1  0  0  0
 74 76  1  0  0  0
 74 82  2  0  0  0
 75 78  1  0  0  0
 75 82  1  0  0  0
 76145  1  0  0  0
 76146  1  0  0  0
 76147  1  0  0  0
 77 81  1  0  0  0
 77148  1  0  0  0
 77149  1  0  0  0
 78 79  1  0  0  0
 78150  1  0  0  0
 78151  1  0  0  0
 79 80  1  0  0  0
 79152  1  0  0  0
 79153  1  0  0  0
 80 83  1  0  0  0
 80154  1  0  0  0
 80155  1  0  0  0
 81156  1  0  0  0
 81157  1  0  0  0
 83158  1  0  0  0
M  ISO  4   1 100  68 101  81 101  83 100
M  END
> <chiral flag>
0

> <version>
0

> <s_m_source_file>
/data/baiqing/PycharmProjects/Reinvent-master-3.2/result/LINK_invent/BTK/process_docking_weight1_custom_sum_contain_oxygen_bond_distance_aromatic_linkinvent_7_9_3/rearranged_h_0046.sdf

> <i_m_source_file_index>
12

> <r_mmod_Potential_Energy-OPLS-2005>
39.3586578369141

> <r_mmod_Stretch_Energy-OPLS-2005>
138.135055541992

> <r_mmod_Bend_Energy-OPLS-2005>
207.658798217773

> <r_mmod_Torsional_Energy-OPLS-2005>
213.579055786133

> <r_mmod_Improper_Torsional_Energy-OPLS-2005>
4.64827394485474

> <r_mmod_Van_der_Waal_Energy-OPLS-2005>
166.351501464844

> <r_mmod_Electrostatic_Energy-OPLS-2005>
-549.719360351562

> <r_mmod_Solvation_Energy-OPLS-2005>
-222.741897583008

> <b_mmod_Minimization_Converged-OPLS-2005>
0

> <r_mmod_RMS_Derivative-OPLS-2005>
3.84229302406311

$$$$
12
                    3D
 Structure written by MMmdl.
163171  0  0  1  0            999 V2000
  -30.6525  -14.5851   20.4948 C   0  0  0  0  0  0
  -30.4200  -12.3646   19.4413 C   0  0  0  0  0  0
  -29.5027  -12.5400   18.2137 C   0  0  0  0  0  0
  -28.0193  -12.3898   18.6140 C   0  0  0  0  0  0
  -27.6538  -13.2233   19.8723 C   0  0  2  0  0  0
  -28.7016  -13.0435   20.9946 C   0  0  0  0  0  0
  -25.2533  -13.8157   20.5711 C   0  0  0  0  0  0
  -24.1800  -13.0431   20.9201 C   0  0  0  0  0  0
  -24.6362  -11.6901   20.8715 C   0  0  0  0  0  0
  -23.9005  -10.4306   21.0378 C   0  0  0  0  0  0
  -24.3587   -9.4223   21.9149 C   0  0  0  0  0  0
  -23.6314   -8.2228   22.0703 C   0  0  0  0  0  0
  -22.4285   -8.0245   21.3519 C   0  0  0  0  0  0
  -21.9881   -9.0207   20.4617 C   0  0  0  0  0  0
  -22.7167  -10.2120   20.3033 C   0  0  0  0  0  0
  -21.6857   -6.0719   22.5283 C   0  0  0  0  0  0
  -21.4007   -6.5621   23.8209 C   0  0  0  0  0  0
  -21.3664   -5.6784   24.9180 C   0  0  0  0  0  0
  -21.6062   -4.3042   24.7217 C   0  0  0  0  0  0
  -21.8810   -3.8134   23.4338 C   0  0  0  0  0  0
  -21.9184   -4.6939   22.3395 C   0  0  0  0  0  0
  -22.7815  -13.5205   21.1880 C   0  0  0  0  0  0
  -22.1658   -4.2132   21.0981 F   0  0  0  0  0  0
  -21.5642   -3.4531   25.7733 F   0  0  0  0  0  0
  -30.0194  -13.3776   20.4332 N   0  0  0  0  0  0
  -26.2989  -12.9348   20.3373 N   0  0  0  0  0  0
  -25.9308  -11.6492   20.5763 N   0  0  0  0  0  0
  -22.0460  -12.8232   22.0463 N   0  0  0  0  0  0
  -25.4224  -15.1892   20.4054 N   0  0  0  0  0  0
  -31.8145  -14.7334   20.1061 O   0  0  0  0  0  0
  -21.6624   -6.8855   21.4243 O   0  0  0  0  0  0
  -22.3503  -14.5512   20.6707 O   0  0  0  0  0  0
  -24.6185  -31.8627   23.2023 C   0  0  0  0  0  0
  -25.9062  -32.4789   23.8319 C   0  0  1  0  0  0
  -27.2640  -27.3788   20.0951 C   0  0  0  0  0  0
  -25.5878  -33.8585   24.2238 N   0  0  0  0  0  0
  -23.4105  -30.4837   21.5436 C   0  0  2  0  0  0
  -24.8627  -28.9345   20.1139 C   0  0  0  0  0  0
  -22.7429  -29.4639   22.4954 C   0  0  0  0  0  0
  -18.0275  -28.1394   22.8489 C   0  0  0  0  0  0
  -24.1499  -36.7310   23.2630 C   0  0  0  0  0  0
  -25.9450  -30.8114   21.3614 C   0  0  0  0  0  0
  -26.0244  -29.4407   20.7077 C   0  0  0  0  0  0
  -27.2189  -28.6725   20.6886 C   0  0  0  0  0  0
  -26.0698  -26.8963   19.5069 C   0  0  0  0  0  0
  -24.8838  -27.6626   19.5140 C   0  0  0  0  0  0
  -23.6246  -29.8087   20.1607 C   0  0  0  0  0  0
  -25.4121  -36.3083   24.0310 C   0  0  1  0  0  0
  -20.5864  -28.3684   23.1303 C   0  0  2  0  0  0
  -20.6768  -26.9415   22.5422 C   0  0  0  0  0  0
  -19.5751  -26.6394   21.5217 C   0  0  0  0  0  0
  -18.1924  -26.7945   22.1612 C   0  0  0  0  0  0
  -19.1528  -28.8859   23.2900 C   0  0  0  0  0  0
  -18.9445  -30.1453   23.8927 C   0  0  0  0  0  0
  -17.6448  -30.6599   24.0566 C   0  0  0  0  0  0
  -25.9053  -34.9459   23.5083 C   0  0  0  0  0  0
  -16.5337  -29.9099   23.6316 C   0  0  0  0  0  0
  -16.7270  -28.6515   23.0344 C   0  0  0  0  0  0
  -26.4458  -31.6605   25.0690 C   0  0  0  0  0  0
  -25.3684  -31.3729   26.1406 C   0  0  0  0  0  0
  -27.0279  -30.3035   24.6114 C   0  0  0  0  0  0
  -27.6031  -32.4329   25.7447 C   0  0  0  0  0  0
  -27.5589  -37.1797   24.8441 C   0  0  0  0  0  0
  -21.4156  -29.3040   22.3700 N   0  0  0  0  0  0
  -26.4292  -37.3779   23.9405 N   0  0  0  0  0  0
  -24.6771  -31.0672   22.0942 N   0  0  0  0  0  0
  -23.4182  -28.8173   23.3021 O   0  0  0  0  0  0
  -28.4569  -26.6496   20.1492 O   0  0  0  0  0  0
  -26.5644  -34.8931   22.4670 O   0  0  0  0  0  0
  -23.5366  -32.1391   23.7396 O   0  0  0  0  0  0
  -28.6183  -19.3483   18.3562 C   0  0  0  0  0  0
  -29.0726  -21.6073   18.0646 C   0  0  0  0  0  0
  -29.0515  -19.4145   19.7078 C   0  0  0  0  0  0
  -29.4901  -21.7275   19.4184 C   0  0  0  0  0  0
  -28.1243  -18.0729   17.6860 C   0  0  0  0  0  0
  -29.1281  -22.7421   17.0536 C   0  0  0  0  0  0
  -31.2517  -22.6794   20.9864 C   0  0  0  0  0  0
  -29.0562  -18.1429   20.6091 C   0  0  0  0  0  0
  -29.2413  -24.2337   20.4936 C   0  0  0  0  0  0
  -30.1785  -17.0746   20.3307 C   0  0  0  0  0  0
  -28.6803  -25.3447   19.5176 C   0  0  0  0  0  0
  -30.1515  -23.0395   19.9577 C   0  0  2  0  0  0
  -28.6217  -20.4377   17.5533 N   0  0  0  0  0  0
  -29.4466  -20.6189   20.2381 N   0  0  0  0  0  0
  -29.8763  -15.6711   20.7592 N   0  0  0  0  0  0
  -31.4701  -12.4530   19.1612 H   0  0  0  0  0  0
  -30.3039  -11.3639   19.8587 H   0  0  0  0  0  0
  -29.7655  -11.8213   17.4364 H   0  0  0  0  0  0
  -29.6616  -13.5296   17.7798 H   0  0  0  0  0  0
  -27.8299  -11.3343   18.8077 H   0  0  0  0  0  0
  -27.3753  -12.6662   17.7769 H   0  0  0  0  0  0
  -27.6766  -14.2686   19.5645 H   0  0  0  0  0  0
  -28.7052  -12.0042   21.3301 H   0  0  0  0  0  0
  -28.4664  -13.6466   21.8733 H   0  0  0  0  0  0
  -25.2730   -9.5714   22.4712 H   0  0  0  0  0  0
  -24.0030   -7.4599   22.7406 H   0  0  0  0  0  0
  -21.0793   -8.8681   19.8957 H   0  0  0  0  0  0
  -22.3567  -10.9631   19.6143 H   0  0  0  0  0  0
  -21.1988   -7.6133   23.9717 H   0  0  0  0  0  0
  -21.1525   -6.0513   25.9092 H   0  0  0  0  0  0
  -22.0593   -2.7591   23.2838 H   0  0  0  0  0  0
  -22.4064  -11.9925   22.4940 H   0  0  0  0  0  0
  -21.1051  -13.1221   22.2610 H   0  0  0  0  0  0
  -24.6449  -15.8358   20.4751 H   0  0  0  0  0  0
  -26.2535  -15.6149   20.0182 H   0  0  0  0  0  0
  -26.7141  -32.5473   23.1076 H   0  0  0  0  0  0
  -24.9920  -33.9721   25.0303 H   0  0  0  0  0  0
  -22.7021  -31.3033   21.4003 H   0  0  0  0  0  0
  -23.3759  -35.9642   23.3261 H   0  0  0  0  0  0
  -24.3585  -36.8964   22.2050 H   0  0  0  0  0  0
  -23.7259  -37.6502   23.6682 H   0  0  0  0  0  0
  -26.0680  -31.5781   20.5937 H   0  0  0  0  0  0
  -26.8272  -30.8595   21.9878 H   0  0  0  0  0  0
  -28.1157  -29.0735   21.1410 H   0  0  0  0  0  0
  -26.0140  -25.9211   19.0513 H   0  0  0  0  0  0
  -23.9890  -27.2562   19.0628 H   0  0  0  0  0  0
  -23.7393  -30.5848   19.4028 H   0  0  0  0  0  0
  -22.7448  -29.2363   19.8576 H   0  0  0  0  0  0
  -25.1318  -36.1913   25.0801 H   0  0  0  0  0  0
  -20.9976  -28.3268   24.1411 H   0  0  0  0  0  0
  -20.5660  -26.2305   23.3621 H   0  0  0  0  0  0
  -21.6642  -26.7451   22.1223 H   0  0  0  0  0  0
  -19.6906  -25.6305   21.1250 H   0  0  0  0  0  0
  -19.6702  -27.3204   20.6748 H   0  0  0  0  0  0
  -17.4208  -26.6715   21.3993 H   0  0  0  0  0  0
  -18.0303  -26.0081   22.8998 H   0  0  0  0  0  0
  -19.7924  -30.7261   24.2321 H   0  0  0  0  0  0
  -17.5001  -31.6286   24.5156 H   0  0  0  0  0  0
  -15.5338  -30.3007   23.7627 H   0  0  0  0  0  0
  -15.8669  -28.0841   22.7034 H   0  0  0  0  0  0
  -24.5838  -30.7122   25.7693 H   0  0  0  0  0  0
  -24.8902  -32.2898   26.4867 H   0  0  0  0  0  0
  -25.7969  -30.8845   27.0163 H   0  0  0  0  0  0
  -26.2830  -29.6805   24.1150 H   0  0  0  0  0  0
  -27.3988  -29.7266   25.4594 H   0  0  0  0  0  0
  -27.8698  -30.4321   23.9307 H   0  0  0  0  0  0
  -27.2638  -33.3588   26.2103 H   0  0  0  0  0  0
  -28.3786  -32.6958   25.0240 H   0  0  0  0  0  0
  -28.0778  -31.8420   26.5290 H   0  0  0  0  0  0
  -28.2586  -38.0113   24.7514 H   0  0  0  0  0  0
  -28.1097  -36.2644   24.6228 H   0  0  0  0  0  0
  -27.2310  -37.1409   25.8839 H   0  0  0  0  0  0
  -20.9323  -29.8769   21.6921 H   0  0  0  0  0  0
  -26.0168  -38.2841   24.1428 H   0  0  0  0  0  0
  -28.1667  -17.1892   18.3201 H   0  0  0  0  0  0
  -28.7189  -17.8657   16.7960 H   0  0  0  0  0  0
  -27.0887  -18.1950   17.3662 H   0  0  0  0  0  0
  -29.5056  -23.6801   17.4470 H   0  0  0  0  0  0
  -28.1303  -22.9456   16.6716 H   0  0  0  0  0  0
  -29.7669  -22.4705   16.2128 H   0  0  0  0  0  0
  -31.8661  -21.8456   20.6363 H   0  0  0  0  0  0
  -30.8223  -22.3824   21.9450 H   0  0  0  0  0  0
  -31.9276  -23.5167   21.1629 H   0  0  0  0  0  0
  -28.0789  -17.6697   20.5111 H   0  0  0  0  0  0
  -29.1182  -18.4611   21.6487 H   0  0  0  0  0  0
  -28.4525  -23.8520   21.1383 H   0  0  0  0  0  0
  -29.8906  -24.7999   21.1623 H   0  0  0  0  0  0
  -31.1206  -17.4137   20.7669 H   0  0  0  0  0  0
  -30.3535  -17.0392   19.2537 H   0  0  0  0  0  0
  -27.8309  -24.9519   18.9666 H   0  0  0  0  0  0
  -29.4426  -25.5484   18.7642 H   0  0  0  0  0  0
  -30.7399  -23.4352   19.1321 H   0  0  0  0  0  0
  -28.9435  -15.4822   21.0966 H   0  0  0  0  0  0
  1 25  1  0  0  0
  1 30  2  0  0  0
  1 85  1  0  0  0
  2  3  1  0  0  0
  2 25  1  0  0  0
  2 86  1  0  0  0
  2 87  1  0  0  0
  3  4  1  0  0  0
  3 88  1  0  0  0
  3 89  1  0  0  0
  4  5  1  0  0  0
  4 90  1  0  0  0
  4 91  1  0  0  0
  5  6  1  0  0  0
  5 26  1  0  0  0
  5 92  1  0  0  0
  6 25  1  0  0  0
  6 93  1  0  0  0
  6 94  1  0  0  0
  7  8  2  0  0  0
  7 26  1  0  0  0
  7 29  1  0  0  0
  8  9  1  0  0  0
  8 22  1  0  0  0
  9 10  1  0  0  0
  9 27  2  0  0  0
 10 11  2  0  0  0
 10 15  1  0  0  0
 11 12  1  0  0  0
 11 95  1  0  0  0
 12 13  2  0  0  0
 12 96  1  0  0  0
 13 14  1  0  0  0
 13 31  1  0  0  0
 14 15  2  0  0  0
 14 97  1  0  0  0
 15 98  1  0  0  0
 16 17  2  0  0  0
 16 21  1  0  0  0
 16 31  1  0  0  0
 17 18  1  0  0  0
 17 99  1  0  0  0
 18 19  2  0  0  0
 18100  1  0  0  0
 19 20  1  0  0  0
 19 24  1  0  0  0
 20 21  2  0  0  0
 20101  1  0  0  0
 21 23  1  0  0  0
 22 28  1  0  0  0
 22 32  2  0  0  0
 26 27  1  0  0  0
 28102  1  0  0  0
 28103  1  0  0  0
 29104  1  0  0  0
 29105  1  0  0  0
 33 34  1  0  0  0
 33 66  1  0  0  0
 33 70  2  0  0  0
 34 36  1  0  0  0
 34 59  1  0  0  0
 34106  1  0  0  0
 35 44  2  0  0  0
 35 45  1  0  0  0
 35 68  1  0  0  0
 36 56  1  0  0  0
 36107  1  0  0  0
 37 39  1  0  0  0
 37 47  1  0  0  0
 37 66  1  0  0  0
 37108  1  0  0  0
 38 43  2  0  0  0
 38 46  1  0  0  0
 38 47  1  0  0  0
 39 64  1  0  0  0
 39 67  2  0  0  0
 40 52  1  0  0  0
 40 53  2  0  0  0
 40 58  1  0  0  0
 41109  1  0  0  0
 41110  1  0  0  0
 41111  1  0  0  0
 41 48  1  0  0  0
 42 43  1  0  0  0
 42 66  1  0  0  0
 42112  1  0  0  0
 42113  1  0  0  0
 43 44  1  0  0  0
 44114  1  0  0  0
 45 46  2  0  0  0
 45115  1  0  0  0
 46116  1  0  0  0
 47117  1  0  0  0
 47118  1  0  0  0
 48 56  1  0  0  0
 48 65  1  0  0  0
 48119  1  0  0  0
 49 50  1  0  0  0
 49 53  1  0  0  0
 49 64  1  0  0  0
 49120  1  0  0  0
 50 51  1  0  0  0
 50121  1  0  0  0
 50122  1  0  0  0
 51 52  1  0  0  0
 51123  1  0  0  0
 51124  1  0  0  0
 52125  1  0  0  0
 52126  1  0  0  0
 53 54  1  0  0  0
 54 55  2  0  0  0
 54127  1  0  0  0
 55 57  1  0  0  0
 55128  1  0  0  0
 56 69  2  0  0  0
 57 58  2  0  0  0
 57129  1  0  0  0
 58130  1  0  0  0
 59 60  1  0  0  0
 59 61  1  0  0  0
 59 62  1  0  0  0
 60131  1  0  0  0
 60132  1  0  0  0
 60133  1  0  0  0
 61134  1  0  0  0
 61135  1  0  0  0
 61136  1  0  0  0
 62137  1  0  0  0
 62138  1  0  0  0
 62139  1  0  0  0
 63 65  1  0  0  0
 63140  1  0  0  0
 63141  1  0  0  0
 63142  1  0  0  0
 64143  1  0  0  0
 65144  1  0  0  0
 68 81  1  0  0  0
 71 73  2  0  0  0
 71 75  1  0  0  0
 71 83  1  0  0  0
 72 74  1  0  0  0
 72 76  1  0  0  0
 72 83  2  0  0  0
 73 78  1  0  0  0
 73 84  1  0  0  0
 74 82  1  0  0  0
 74 84  2  0  0  0
 75145  1  0  0  0
 75146  1  0  0  0
 75147  1  0  0  0
 76148  1  0  0  0
 76149  1  0  0  0
 76150  1  0  0  0
 77151  1  0  0  0
 77152  1  0  0  0
 77153  1  0  0  0
 77 82  1  0  0  0
 78 80  1  0  0  0
 78154  1  0  0  0
 78155  1  0  0  0
 79 81  1  0  0  0
 79 82  1  0  0  0
 79156  1  0  0  0
 79157  1  0  0  0
 80 85  1  0  0  0
 80158  1  0  0  0
 80159  1  0  0  0
 81160  1  0  0  0
 81161  1  0  0  0
 82162  1  0  0  0
 85163  1  0  0  0
M  ISO  4   1 100  68 101  81 101  85 100
M  END
> <chiral flag>
0

> <version>
0

> <s_m_source_file>
/data/baiqing/PycharmProjects/Reinvent-master-3.2/result/LINK_invent/BTK/process_docking_weight1_custom_sum_contain_oxygen_bond_distance_aromatic_linkinvent_7_9_3/rearranged_h_0046.sdf

> <i_m_source_file_index>
13

> <r_mmod_Potential_Energy-OPLS-2005>
25.5775260925293

> <r_mmod_Stretch_Energy-OPLS-2005>
70.528205871582

> <r_mmod_Bend_Energy-OPLS-2005>
149.969985961914

> <r_mmod_Torsional_Energy-OPLS-2005>
210.566390991211

> <r_mmod_Improper_Torsional_Energy-OPLS-2005>
7.32270526885986

> <r_mmod_Van_der_Waal_Energy-OPLS-2005>
150.835006713867

> <r_mmod_Electrostatic_Energy-OPLS-2005>
-365.048309326172

> <r_mmod_Solvation_Energy-OPLS-2005>
-227.68537902832

> <b_mmod_Minimization_Converged-OPLS-2005>
0

> <r_mmod_RMS_Derivative-OPLS-2005>
4.64469909667969

$$$$
13
                    3D
 Structure written by MMmdl.
162170  0  0  1  0            999 V2000
  -30.5902  -14.9866   20.3790 C   0  0  0  0  0  0
  -30.4233  -12.6235   19.4649 C   0  0  0  0  0  0
  -29.5014  -12.5140   18.2334 C   0  0  0  0  0  0
  -28.0405  -12.3003   18.6716 C   0  0  0  0  0  0
  -27.6142  -13.2492   19.8213 C   0  0  2  0  0  0
  -28.6717  -13.3544   20.9376 C   0  0  0  0  0  0
  -25.2392  -13.8142   20.5857 C   0  0  0  0  0  0
  -24.1715  -13.0368   20.9271 C   0  0  0  0  0  0
  -24.6368  -11.6876   20.8777 C   0  0  0  0  0  0
  -23.9069  -10.4253   21.0419 C   0  0  0  0  0  0
  -24.3626   -9.4173   21.9192 C   0  0  0  0  0  0
  -23.6294   -8.2223   22.0769 C   0  0  0  0  0  0
  -22.4272   -8.0278   21.3556 C   0  0  0  0  0  0
  -21.9915   -9.0239   20.4650 C   0  0  0  0  0  0
  -22.7252  -10.2099   20.3065 C   0  0  0  0  0  0
  -21.6841   -6.0735   22.5281 C   0  0  0  0  0  0
  -21.4007   -6.5638   23.8213 C   0  0  0  0  0  0
  -21.3662   -5.6795   24.9176 C   0  0  0  0  0  0
  -21.6049   -4.3062   24.7220 C   0  0  0  0  0  0
  -21.8822   -3.8146   23.4343 C   0  0  0  0  0  0
  -21.9186   -4.6962   22.3398 C   0  0  0  0  0  0
  -22.7740  -13.5138   21.1918 C   0  0  0  0  0  0
  -22.1659   -4.2146   21.0977 F   0  0  0  0  0  0
  -21.5630   -3.4556   25.7733 F   0  0  0  0  0  0
  -29.9190  -13.7649   20.2821 N   0  0  0  0  0  0
  -26.2827  -12.9425   20.3285 N   0  0  0  0  0  0
  -25.9304  -11.6543   20.5767 N   0  0  0  0  0  0
  -22.0412  -12.8101   22.0466 N   0  0  0  0  0  0
  -25.3972  -15.1875   20.4512 N   0  0  0  0  0  0
  -31.8231  -14.8971   20.3562 O   0  0  0  0  0  0
  -21.6637   -6.8878   21.4246 O   0  0  0  0  0  0
  -22.3424  -14.5451   20.6764 O   0  0  0  0  0  0
  -24.6417  -31.8447   23.1873 C   0  0  0  0  0  0
  -25.9208  -32.4686   23.8249 C   0  0  1  0  0  0
  -27.2133  -27.1344   20.1672 C   0  0  0  0  0  0
  -25.5980  -33.8495   24.2181 N   0  0  0  0  0  0
  -23.4431  -30.4620   21.5331 C   0  0  2  0  0  0
  -24.8932  -28.8810   20.1147 C   0  0  0  0  0  0
  -22.7549  -29.4549   22.4880 C   0  0  0  0  0  0
  -18.0293  -28.1378   22.8464 C   0  0  0  0  0  0
  -24.1500  -36.7258   23.2639 C   0  0  0  0  0  0
  -25.9973  -30.7182   21.3835 C   0  0  0  0  0  0
  -26.0698  -29.3258   20.7318 C   0  0  0  0  0  0
  -27.2341  -28.4707   20.7359 C   0  0  0  0  0  0
  -26.0118  -26.7815   19.5194 C   0  0  0  0  0  0
  -24.8765  -27.6225   19.4901 C   0  0  0  0  0  0
  -23.6710  -29.7862   20.1531 C   0  0  0  0  0  0
  -25.4131  -36.3033   24.0312 C   0  0  1  0  0  0
  -20.5903  -28.3719   23.1244 C   0  0  2  0  0  0
  -20.6790  -26.9431   22.5407 C   0  0  0  0  0  0
  -19.5774  -26.6375   21.5208 C   0  0  0  0  0  0
  -18.1947  -26.7914   22.1607 C   0  0  0  0  0  0
  -19.1552  -28.8868   23.2836 C   0  0  0  0  0  0
  -18.9476  -30.1463   23.8870 C   0  0  0  0  0  0
  -17.6475  -30.6591   24.0558 C   0  0  0  0  0  0
  -25.9083  -34.9406   23.5052 C   0  0  0  0  0  0
  -16.5364  -29.9088   23.6324 C   0  0  0  0  0  0
  -16.7279  -28.6495   23.0351 C   0  0  0  0  0  0
  -26.4538  -31.6541   25.0681 C   0  0  0  0  0  0
  -25.3726  -31.3732   26.1382 C   0  0  0  0  0  0
  -27.0387  -30.2926   24.6243 C   0  0  0  0  0  0
  -27.6049  -32.4307   25.7498 C   0  0  0  0  0  0
  -27.5579  -37.1797   24.8463 C   0  0  0  0  0  0
  -21.4247  -29.3047   22.3631 N   0  0  0  0  0  0
  -26.4294  -37.3747   23.9398 N   0  0  0  0  0  0
  -24.7136  -31.0300   22.0900 N   0  0  0  0  0  0
  -23.4190  -28.8110   23.3048 O   0  0  0  0  0  0
  -28.2849  -26.1742   20.1693 O   0  0  0  0  0  0
  -26.5658  -34.8912   22.4625 O   0  0  0  0  0  0
  -23.5548  -32.1327   23.7102 O   0  0  0  0  0  0
  -27.6877  -20.4696   18.6991 C   0  0  0  0  0  0
  -28.5731  -20.3034   19.8029 C   0  0  0  0  0  0
  -28.7797  -18.8424   19.8249 C   0  0  0  0  0  0
  -31.9595  -18.5007   17.5947 C   0  0  0  0  0  0
  -27.3125  -17.0696   18.6161 C   0  0  0  0  0  0
  -28.8886  -21.7341   20.5671 C   0  0  0  0  0  0
  -29.5524  -17.5908   20.5949 C   0  0  0  0  0  0
  -31.9067  -17.3782   18.6403 C   0  0  0  0  0  0
  -28.6559  -23.2802   19.8748 C   0  0  0  0  0  0
  -30.5698  -16.5976   18.5776 C   0  0  0  0  0  0
  -28.1113  -24.6935   20.6219 C   0  0  0  0  0  0
  -27.2368  -19.3642   18.1832 N   0  0  0  0  0  0
  -27.8165  -18.4002   18.9017 N   0  0  0  0  0  0
  -30.0084  -16.2196   19.8994 N   0  0  0  0  0  0
  -31.4519  -12.7752   19.1369 H   0  0  0  0  0  0
  -30.4219  -11.6969   20.0412 H   0  0  0  0  0  0
  -29.8236  -11.6967   17.5857 H   0  0  0  0  0  0
  -29.5754  -13.4248   17.6366 H   0  0  0  0  0  0
  -27.9435  -11.2638   18.9951 H   0  0  0  0  0  0
  -27.3681  -12.4170   17.8209 H   0  0  0  0  0  0
  -27.5469  -14.2276   19.3533 H   0  0  0  0  0  0
  -28.7895  -12.4105   21.4723 H   0  0  0  0  0  0
  -28.3749  -14.1028   21.6738 H   0  0  0  0  0  0
  -25.2777   -9.5634   22.4748 H   0  0  0  0  0  0
  -23.9995   -7.4606   22.7491 H   0  0  0  0  0  0
  -21.0852   -8.8760   19.8945 H   0  0  0  0  0  0
  -22.3742  -10.9639   19.6168 H   0  0  0  0  0  0
  -21.2011   -7.6146   23.9705 H   0  0  0  0  0  0
  -21.1484   -6.0535   25.9075 H   0  0  0  0  0  0
  -22.0601   -2.7612   23.2842 H   0  0  0  0  0  0
  -22.4071  -11.9757   22.4808 H   0  0  0  0  0  0
  -21.1030  -13.1092   22.2716 H   0  0  0  0  0  0
  -24.6328  -15.8363   20.6051 H   0  0  0  0  0  0
  -26.2594  -15.6414   20.1917 H   0  0  0  0  0  0
  -26.7264  -32.5304   23.0969 H   0  0  0  0  0  0
  -25.0134  -33.9601   25.0334 H   0  0  0  0  0  0
  -22.7441  -31.2865   21.3773 H   0  0  0  0  0  0
  -23.3769  -35.9584   23.3281 H   0  0  0  0  0  0
  -24.3582  -36.8898   22.2056 H   0  0  0  0  0  0
  -23.7248  -37.6443   23.6690 H   0  0  0  0  0  0
  -26.1455  -31.4691   20.6063 H   0  0  0  0  0  0
  -26.8705  -30.7736   22.0214 H   0  0  0  0  0  0
  -28.1355  -28.8109   21.2267 H   0  0  0  0  0  0
  -25.9375  -25.8151   19.0402 H   0  0  0  0  0  0
  -23.9780  -27.2770   18.9956 H   0  0  0  0  0  0
  -23.8081  -30.5584   19.3953 H   0  0  0  0  0  0
  -22.7847  -29.2291   19.8436 H   0  0  0  0  0  0
  -25.1316  -36.1855   25.0801 H   0  0  0  0  0  0
  -20.9966  -28.3319   24.1375 H   0  0  0  0  0  0
  -20.5697  -26.2340   23.3620 H   0  0  0  0  0  0
  -21.6661  -26.7455   22.1219 H   0  0  0  0  0  0
  -19.6957  -25.6279   21.1263 H   0  0  0  0  0  0
  -19.6720  -27.3163   20.6722 H   0  0  0  0  0  0
  -17.4222  -26.6641   21.4006 H   0  0  0  0  0  0
  -18.0358  -26.0060   22.9012 H   0  0  0  0  0  0
  -19.7963  -30.7269   24.2242 H   0  0  0  0  0  0
  -17.5044  -31.6271   24.5161 H   0  0  0  0  0  0
  -15.5370  -30.2995   23.7667 H   0  0  0  0  0  0
  -15.8666  -28.0819   22.7088 H   0  0  0  0  0  0
  -24.5917  -30.7061   25.7720 H   0  0  0  0  0  0
  -24.8924  -32.2918   26.4754 H   0  0  0  0  0  0
  -25.8033  -30.8950   27.0184 H   0  0  0  0  0  0
  -26.2981  -29.6665   24.1257 H   0  0  0  0  0  0
  -27.3987  -29.7212   25.4805 H   0  0  0  0  0  0
  -27.8899  -30.4132   23.9538 H   0  0  0  0  0  0
  -27.2597  -33.3603   26.2027 H   0  0  0  0  0  0
  -28.3914  -32.6858   25.0389 H   0  0  0  0  0  0
  -28.0652  -31.8459   26.5466 H   0  0  0  0  0  0
  -28.2590  -38.0107   24.7512 H   0  0  0  0  0  0
  -28.1079  -36.2631   24.6285 H   0  0  0  0  0  0
  -27.2293  -37.1428   25.8866 H   0  0  0  0  0  0
  -20.9468  -29.8737   21.6786 H   0  0  0  0  0  0
  -26.0157  -38.2807   24.1406 H   0  0  0  0  0  0
  -27.2716  -21.3779   18.2920 H   0  0  0  0  0  0
  -32.9112  -19.0317   17.6336 H   0  0  0  0  0  0
  -31.1693  -19.2340   17.7705 H   0  0  0  0  0  0
  -31.8318  -18.1121   16.5835 H   0  0  0  0  0  0
  -27.7688  -16.6633   17.7135 H   0  0  0  0  0  0
  -26.2329  -17.1046   18.4622 H   0  0  0  0  0  0
  -27.5018  -16.4119   19.4545 H   0  0  0  0  0  0
  -29.9148  -21.7140   20.9336 H   0  0  0  0  0  0
  -28.2992  -21.7439   21.4842 H   0  0  0  0  0  0
  -28.9051  -17.2879   21.4171 H   0  0  0  0  0  0
  -30.4272  -18.0001   21.0981 H   0  0  0  0  0  0
  -32.0772  -17.8207   19.6215 H   0  0  0  0  0  0
  -32.7418  -16.6917   18.4832 H   0  0  0  0  0  0
  -27.9835  -23.1814   19.0290 H   0  0  0  0  0  0
  -29.6051  -23.5301   19.4005 H   0  0  0  0  0  0
  -30.7088  -15.7081   17.9588 H   0  0  0  0  0  0
  -29.8618  -17.1826   18.0042 H   0  0  0  0  0  0
  -28.5650  -24.6848   21.6131 H   0  0  0  0  0  0
  -27.0510  -24.5451   20.8267 H   0  0  0  0  0  0
  1 25  1  0  0  0
  1 30  2  0  0  0
  1 84  1  0  0  0
  2  3  1  0  0  0
  2 25  1  0  0  0
  2 85  1  0  0  0
  2 86  1  0  0  0
  3  4  1  0  0  0
  3 87  1  0  0  0
  3 88  1  0  0  0
  4  5  1  0  0  0
  4 89  1  0  0  0
  4 90  1  0  0  0
  5  6  1  0  0  0
  5 26  1  0  0  0
  5 91  1  0  0  0
  6 25  1  0  0  0
  6 92  1  0  0  0
  6 93  1  0  0  0
  7  8  2  0  0  0
  7 26  1  0  0  0
  7 29  1  0  0  0
  8  9  1  0  0  0
  8 22  1  0  0  0
  9 10  1  0  0  0
  9 27  2  0  0  0
 10 11  2  0  0  0
 10 15  1  0  0  0
 11 12  1  0  0  0
 11 94  1  0  0  0
 12 13  2  0  0  0
 12 95  1  0  0  0
 13 14  1  0  0  0
 13 31  1  0  0  0
 14 15  2  0  0  0
 14 96  1  0  0  0
 15 97  1  0  0  0
 16 17  2  0  0  0
 16 21  1  0  0  0
 16 31  1  0  0  0
 17 18  1  0  0  0
 17 98  1  0  0  0
 18 19  2  0  0  0
 18 99  1  0  0  0
 19 20  1  0  0  0
 19 24  1  0  0  0
 20 21  2  0  0  0
 20100  1  0  0  0
 21 23  1  0  0  0
 22 28  1  0  0  0
 22 32  2  0  0  0
 26 27  1  0  0  0
 28101  1  0  0  0
 28102  1  0  0  0
 29103  1  0  0  0
 29104  1  0  0  0
 33 34  1  0  0  0
 33 66  1  0  0  0
 33 70  2  0  0  0
 34 36  1  0  0  0
 34 59  1  0  0  0
 34105  1  0  0  0
 35 44  2  0  0  0
 35 45  1  0  0  0
 35 68  1  0  0  0
 36 56  1  0  0  0
 36106  1  0  0  0
 37 39  1  0  0  0
 37 47  1  0  0  0
 37 66  1  0  0  0
 37107  1  0  0  0
 38 43  2  0  0  0
 38 46  1  0  0  0
 38 47  1  0  0  0
 39 64  1  0  0  0
 39 67  2  0  0  0
 40 52  1  0  0  0
 40 53  2  0  0  0
 40 58  1  0  0  0
 41108  1  0  0  0
 41109  1  0  0  0
 41110  1  0  0  0
 41 48  1  0  0  0
 42 43  1  0  0  0
 42 66  1  0  0  0
 42111  1  0  0  0
 42112  1  0  0  0
 43 44  1  0  0  0
 44113  1  0  0  0
 45 46  2  0  0  0
 45114  1  0  0  0
 46115  1  0  0  0
 47116  1  0  0  0
 47117  1  0  0  0
 48 56  1  0  0  0
 48 65  1  0  0  0
 48118  1  0  0  0
 49 50  1  0  0  0
 49 53  1  0  0  0
 49 64  1  0  0  0
 49119  1  0  0  0
 50 51  1  0  0  0
 50120  1  0  0  0
 50121  1  0  0  0
 51 52  1  0  0  0
 51122  1  0  0  0
 51123  1  0  0  0
 52124  1  0  0  0
 52125  1  0  0  0
 53 54  1  0  0  0
 54 55  2  0  0  0
 54126  1  0  0  0
 55 57  1  0  0  0
 55127  1  0  0  0
 56 69  2  0  0  0
 57 58  2  0  0  0
 57128  1  0  0  0
 58129  1  0  0  0
 59 60  1  0  0  0
 59 61  1  0  0  0
 59 62  1  0  0  0
 60130  1  0  0  0
 60131  1  0  0  0
 60132  1  0  0  0
 61133  1  0  0  0
 61134  1  0  0  0
 61135  1  0  0  0
 62136  1  0  0  0
 62137  1  0  0  0
 62138  1  0  0  0
 63 65  1  0  0  0
 63139  1  0  0  0
 63140  1  0  0  0
 63141  1  0  0  0
 64142  1  0  0  0
 65143  1  0  0  0
 68 81  1  0  0  0
 71 72  1  0  0  0
 71 82  2  0  0  0
 71144  1  0  0  0
 72 73  2  0  0  0
 72 76  1  0  0  0
 73 77  1  0  0  0
 73 83  1  0  0  0
 74 78  1  0  0  0
 74145  1  0  0  0
 74146  1  0  0  0
 74147  1  0  0  0
 75 83  1  0  0  0
 75148  1  0  0  0
 75149  1  0  0  0
 75150  1  0  0  0
 76 79  1  0  0  0
 76151  1  0  0  0
 76152  1  0  0  0
 77 84  1  0  0  0
 77153  1  0  0  0
 77154  1  0  0  0
 78 80  1  0  0  0
 78155  1  0  0  0
 78156  1  0  0  0
 79 81  1  0  0  0
 79157  1  0  0  0
 79158  1  0  0  0
 80 84  1  0  0  0
 80159  1  0  0  0
 80160  1  0  0  0
 81161  1  0  0  0
 81162  1  0  0  0
 82 83  1  0  0  0
M  ISO  4   1 100  68 101  81 101  84 100
M  END
> <chiral flag>
0

> <version>
0

> <s_m_source_file>
/data/baiqing/PycharmProjects/Reinvent-master-3.2/result/LINK_invent/BTK/process_docking_weight1_custom_sum_contain_oxygen_bond_distance_aromatic_linkinvent_7_9_3/rearranged_h_0046.sdf

> <i_m_source_file_index>
14

> <r_mmod_Potential_Energy-OPLS-2005>
823.490295410156

> <r_mmod_Stretch_Energy-OPLS-2005>
309.469116210938

> <r_mmod_Bend_Energy-OPLS-2005>
321.268096923828

> <r_mmod_Torsional_Energy-OPLS-2005>
338.464813232422

> <r_mmod_Improper_Torsional_Energy-OPLS-2005>
26.3020858764648

> <r_mmod_Van_der_Waal_Energy-OPLS-2005>
121.152114868164

> <r_mmod_Electrostatic_Energy-OPLS-2005>
-302.938415527344

> <r_mmod_Solvation_Energy-OPLS-2005>
-204.675369262695

> <b_mmod_Minimization_Converged-OPLS-2005>
0

> <r_mmod_RMS_Derivative-OPLS-2005>
2.00739479064941

$$$$
14
                    3D
 Structure written by MMmdl.
157165  0  0  1  0            999 V2000
  -30.6976  -14.5070   20.4922 C   0  0  0  0  0  0
  -30.4247  -12.3045   19.4308 C   0  0  0  0  0  0
  -29.4975  -12.4566   18.2086 C   0  0  0  0  0  0
  -28.0197  -12.3218   18.6284 C   0  0  0  0  0  0
  -27.6530  -13.1911   19.8605 C   0  0  2  0  0  0
  -28.7026  -13.0474   20.9858 C   0  0  0  0  0  0
  -25.2620  -13.8106   20.5687 C   0  0  0  0  0  0
  -24.1852  -13.0413   20.9173 C   0  0  0  0  0  0
  -24.6396  -11.6872   20.8752 C   0  0  0  0  0  0
  -23.9061  -10.4273   21.0416 C   0  0  0  0  0  0
  -24.3616   -9.4186   21.9189 C   0  0  0  0  0  0
  -23.6289   -8.2227   22.0758 C   0  0  0  0  0  0
  -22.4273   -8.0281   21.3551 C   0  0  0  0  0  0
  -21.9906   -9.0247   20.4651 C   0  0  0  0  0  0
  -22.7238  -10.2126   20.3056 C   0  0  0  0  0  0
  -21.6853   -6.0742   22.5281 C   0  0  0  0  0  0
  -21.4013   -6.5651   23.8213 C   0  0  0  0  0  0
  -21.3655   -5.6802   24.9173 C   0  0  0  0  0  0
  -21.6040   -4.3062   24.7216 C   0  0  0  0  0  0
  -21.8823   -3.8152   23.4333 C   0  0  0  0  0  0
  -21.9195   -4.6973   22.3397 C   0  0  0  0  0  0
  -22.7885  -13.5237   21.1831 C   0  0  0  0  0  0
  -22.1666   -4.2167   21.0973 F   0  0  0  0  0  0
  -21.5623   -3.4535   25.7724 F   0  0  0  0  0  0
  -30.0275  -13.3257   20.4091 N   0  0  0  0  0  0
  -26.3006  -12.9222   20.3334 N   0  0  0  0  0  0
  -25.9311  -11.6413   20.5792 N   0  0  0  0  0  0
  -22.0525  -12.8236   22.0388 N   0  0  0  0  0  0
  -25.4392  -15.1822   20.4122 N   0  0  0  0  0  0
  -31.8847  -14.6343   20.1808 O   0  0  0  0  0  0
  -21.6634   -6.8880   21.4239 O   0  0  0  0  0  0
  -22.3589  -14.5546   20.6677 O   0  0  0  0  0  0
  -24.6150  -31.8664   23.2094 C   0  0  0  0  0  0
  -25.9045  -32.4815   23.8383 C   0  0  1  0  0  0
  -27.2431  -27.4347   20.0928 C   0  0  0  0  0  0
  -25.5902  -33.8611   24.2313 N   0  0  0  0  0  0
  -23.4040  -30.4896   21.5488 C   0  0  2  0  0  0
  -24.8519  -28.9543   20.1158 C   0  0  0  0  0  0
  -22.7413  -29.4654   22.4982 C   0  0  0  0  0  0
  -18.0274  -28.1383   22.8494 C   0  0  0  0  0  0
  -24.1486  -36.7318   23.2635 C   0  0  0  0  0  0
  -25.9330  -30.8338   21.3606 C   0  0  0  0  0  0
  -26.0119  -29.4678   20.7083 C   0  0  0  0  0  0
  -27.2100  -28.7169   20.6889 C   0  0  0  0  0  0
  -26.0611  -26.9365   19.4954 C   0  0  0  0  0  0
  -24.8710  -27.6876   19.5083 C   0  0  0  0  0  0
  -23.6133  -29.8195   20.1647 C   0  0  0  0  0  0
  -25.4105  -36.3099   24.0328 C   0  0  1  0  0  0
  -20.5863  -28.3666   23.1320 C   0  0  2  0  0  0
  -20.6764  -26.9403   22.5420 C   0  0  0  0  0  0
  -19.5744  -26.6387   21.5218 C   0  0  0  0  0  0
  -18.1921  -26.7929   22.1628 C   0  0  0  0  0  0
  -19.1522  -28.8844   23.2906 C   0  0  0  0  0  0
  -18.9452  -30.1447   23.8914 C   0  0  0  0  0  0
  -17.6453  -30.6590   24.0566 C   0  0  0  0  0  0
  -25.9033  -34.9470   23.5114 C   0  0  0  0  0  0
  -16.5344  -29.9091   23.6328 C   0  0  0  0  0  0
  -16.7261  -28.6512   23.0344 C   0  0  0  0  0  0
  -26.4475  -31.6597   25.0714 C   0  0  0  0  0  0
  -25.3753  -31.3710   26.1475 C   0  0  0  0  0  0
  -27.0299  -30.3036   24.6090 C   0  0  0  0  0  0
  -27.6042  -32.4323   25.7487 C   0  0  0  0  0  0
  -27.5578  -37.1807   24.8458 C   0  0  0  0  0  0
  -21.4136  -29.3031   22.3726 N   0  0  0  0  0  0
  -26.4286  -37.3790   23.9408 N   0  0  0  0  0  0
  -24.6694  -31.0766   22.0985 N   0  0  0  0  0  0
  -23.4180  -28.8191   23.3028 O   0  0  0  0  0  0
  -28.4233  -26.7137   20.1052 O   0  0  0  0  0  0
  -26.5596  -34.8923   22.4677 O   0  0  0  0  0  0
  -23.5343  -32.1412   23.7487 O   0  0  0  0  0  0
  -29.5172  -22.5080   21.8769 C   0  0  0  0  0  0
  -29.5250  -22.2168   19.5166 C   0  0  0  0  0  0
  -29.5618  -23.1004   20.6064 C   0  0  0  0  0  0
  -29.3482  -20.4244   20.9401 C   0  0  0  0  0  0
  -29.3603  -16.1802   19.3925 C   0  0  0  0  0  0
  -29.6585  -24.6175   20.4347 C   0  0  0  0  0  0
  -29.1052  -18.9263   21.1334 C   0  0  0  0  0  0
  -30.3747  -18.0701   21.3872 C   0  0  0  0  0  0
  -30.1254  -16.5659   21.7480 C   0  0  0  0  0  0
  -28.3275  -25.2837   20.0300 C   0  0  0  0  0  0
  -29.4102  -21.1742   22.0354 N   0  0  0  0  0  0
  -29.4238  -20.8824   19.6925 N   0  0  0  0  0  0
  -29.9168  -15.6113   20.6302 N   0  0  0  0  0  0
  -31.4692  -12.4002   19.1280 H   0  0  0  0  0  0
  -30.3286  -11.3086   19.8670 H   0  0  0  0  0  0
  -29.7397  -11.6997   17.4614 H   0  0  0  0  0  0
  -29.6660  -13.4178   17.7239 H   0  0  0  0  0  0
  -27.8455  -11.2706   18.8600 H   0  0  0  0  0  0
  -27.3647  -12.5578   17.7884 H   0  0  0  0  0  0
  -27.6566  -14.2196   19.5176 H   0  0  0  0  0  0
  -28.6853  -12.0415   21.4093 H   0  0  0  0  0  0
  -28.4760  -13.7257   21.8098 H   0  0  0  0  0  0
  -25.2766   -9.5668   22.4758 H   0  0  0  0  0  0
  -24.0007   -7.4621   22.7478 H   0  0  0  0  0  0
  -21.0833   -8.8771   19.8957 H   0  0  0  0  0  0
  -22.3701  -10.9671   19.6165 H   0  0  0  0  0  0
  -21.2017   -7.6155   23.9718 H   0  0  0  0  0  0
  -21.1471   -6.0525   25.9071 H   0  0  0  0  0  0
  -22.0610   -2.7623   23.2822 H   0  0  0  0  0  0
  -22.4143  -11.9896   22.4756 H   0  0  0  0  0  0
  -21.1156  -13.1282   22.2600 H   0  0  0  0  0  0
  -24.6810  -15.8445   20.5325 H   0  0  0  0  0  0
  -26.3077  -15.6166   20.1289 H   0  0  0  0  0  0
  -26.7122  -32.5528   23.1154 H   0  0  0  0  0  0
  -25.0058  -33.9772   25.0460 H   0  0  0  0  0  0
  -22.6931  -31.3064   21.4069 H   0  0  0  0  0  0
  -23.3735  -35.9666   23.3300 H   0  0  0  0  0  0
  -24.3582  -36.8936   22.2051 H   0  0  0  0  0  0
  -23.7257  -37.6529   23.6655 H   0  0  0  0  0  0
  -26.0420  -31.6006   20.5919 H   0  0  0  0  0  0
  -26.8220  -30.8897   21.9773 H   0  0  0  0  0  0
  -28.1074  -29.1118   21.1445 H   0  0  0  0  0  0
  -26.0403  -25.9720   19.0096 H   0  0  0  0  0  0
  -23.9786  -27.2860   19.0473 H   0  0  0  0  0  0
  -23.7226  -30.5922   19.4028 H   0  0  0  0  0  0
  -22.7393  -29.2363   19.8694 H   0  0  0  0  0  0
  -25.1282  -36.1955   25.0820 H   0  0  0  0  0  0
  -20.9957  -28.3233   24.1439 H   0  0  0  0  0  0
  -20.5674  -26.2271   23.3603 H   0  0  0  0  0  0
  -21.6632  -26.7450   22.1206 H   0  0  0  0  0  0
  -19.6901  -25.6301   21.1237 H   0  0  0  0  0  0
  -19.6684  -27.3206   20.6754 H   0  0  0  0  0  0
  -17.4190  -26.6680   21.4027 H   0  0  0  0  0  0
  -18.0319  -26.0068   22.9022 H   0  0  0  0  0  0
  -19.7926  -30.7262   24.2284 H   0  0  0  0  0  0
  -17.5009  -31.6268   24.5165 H   0  0  0  0  0  0
  -15.5345  -30.3000   23.7641 H   0  0  0  0  0  0
  -15.8660  -28.0839   22.7039 H   0  0  0  0  0  0
  -24.5917  -30.7059   25.7828 H   0  0  0  0  0  0
  -24.8959  -32.2872   26.4932 H   0  0  0  0  0  0
  -25.8122  -30.8881   27.0224 H   0  0  0  0  0  0
  -26.2837  -29.6806   24.1143 H   0  0  0  0  0  0
  -27.4065  -29.7262   25.4544 H   0  0  0  0  0  0
  -27.8674  -30.4345   23.9234 H   0  0  0  0  0  0
  -27.2640  -33.3600   26.2101 H   0  0  0  0  0  0
  -28.3841  -32.6923   25.0318 H   0  0  0  0  0  0
  -28.0727  -31.8431   26.5382 H   0  0  0  0  0  0
  -28.2583  -38.0115   24.7511 H   0  0  0  0  0  0
  -28.1082  -36.2644   24.6265 H   0  0  0  0  0  0
  -27.2298  -37.1437   25.8861 H   0  0  0  0  0  0
  -20.9296  -29.8763   21.6957 H   0  0  0  0  0  0
  -26.0165  -38.2860   24.1433 H   0  0  0  0  0  0
  -29.5540  -23.1031   22.7772 H   0  0  0  0  0  0
  -29.5620  -22.5771   18.4985 H   0  0  0  0  0  0
  -28.3354  -16.5110   19.5536 H   0  0  0  0  0  0
  -29.3302  -15.4608   18.5749 H   0  0  0  0  0  0
  -29.9506  -17.0152   19.0195 H   0  0  0  0  0  0
  -30.4295  -24.8485   19.6977 H   0  0  0  0  0  0
  -30.0036  -25.0525   21.3739 H   0  0  0  0  0  0
  -28.5612  -18.5765   20.2596 H   0  0  0  0  0  0
  -28.4171  -18.8018   21.9712 H   0  0  0  0  0  0
  -30.8872  -18.5263   22.2353 H   0  0  0  0  0  0
  -31.0788  -18.1610   20.5594 H   0  0  0  0  0  0
  -29.2660  -16.4879   22.4144 H   0  0  0  0  0  0
  -30.9728  -16.2273   22.3491 H   0  0  0  0  0  0
  -27.5413  -24.9361   20.7032 H   0  0  0  0  0  0
  -28.0607  -24.9730   19.0184 H   0  0  0  0  0  0
  1 25  1  0  0  0
  1 30  2  0  0  0
  1 83  1  0  0  0
  2  3  1  0  0  0
  2 25  1  0  0  0
  2 84  1  0  0  0
  2 85  1  0  0  0
  3  4  1  0  0  0
  3 86  1  0  0  0
  3 87  1  0  0  0
  4  5  1  0  0  0
  4 88  1  0  0  0
  4 89  1  0  0  0
  5  6  1  0  0  0
  5 26  1  0  0  0
  5 90  1  0  0  0
  6 25  1  0  0  0
  6 91  1  0  0  0
  6 92  1  0  0  0
  7  8  2  0  0  0
  7 26  1  0  0  0
  7 29  1  0  0  0
  8  9  1  0  0  0
  8 22  1  0  0  0
  9 10  1  0  0  0
  9 27  2  0  0  0
 10 11  2  0  0  0
 10 15  1  0  0  0
 11 12  1  0  0  0
 11 93  1  0  0  0
 12 13  2  0  0  0
 12 94  1  0  0  0
 13 14  1  0  0  0
 13 31  1  0  0  0
 14 15  2  0  0  0
 14 95  1  0  0  0
 15 96  1  0  0  0
 16 17  2  0  0  0
 16 21  1  0  0  0
 16 31  1  0  0  0
 17 18  1  0  0  0
 17 97  1  0  0  0
 18 19  2  0  0  0
 18 98  1  0  0  0
 19 20  1  0  0  0
 19 24  1  0  0  0
 20 21  2  0  0  0
 20 99  1  0  0  0
 21 23  1  0  0  0
 22 28  1  0  0  0
 22 32  2  0  0  0
 26 27  1  0  0  0
 28100  1  0  0  0
 28101  1  0  0  0
 29102  1  0  0  0
 29103  1  0  0  0
 33 34  1  0  0  0
 33 66  1  0  0  0
 33 70  2  0  0  0
 34 36  1  0  0  0
 34 59  1  0  0  0
 34104  1  0  0  0
 35 44  2  0  0  0
 35 45  1  0  0  0
 35 68  1  0  0  0
 36 56  1  0  0  0
 36105  1  0  0  0
 37 39  1  0  0  0
 37 47  1  0  0  0
 37 66  1  0  0  0
 37106  1  0  0  0
 38 43  2  0  0  0
 38 46  1  0  0  0
 38 47  1  0  0  0
 39 64  1  0  0  0
 39 67  2  0  0  0
 40 52  1  0  0  0
 40 53  2  0  0  0
 40 58  1  0  0  0
 41107  1  0  0  0
 41108  1  0  0  0
 41109  1  0  0  0
 41 48  1  0  0  0
 42 43  1  0  0  0
 42 66  1  0  0  0
 42110  1  0  0  0
 42111  1  0  0  0
 43 44  1  0  0  0
 44112  1  0  0  0
 45 46  2  0  0  0
 45113  1  0  0  0
 46114  1  0  0  0
 47115  1  0  0  0
 47116  1  0  0  0
 48 56  1  0  0  0
 48 65  1  0  0  0
 48117  1  0  0  0
 49 50  1  0  0  0
 49 53  1  0  0  0
 49 64  1  0  0  0
 49118  1  0  0  0
 50 51  1  0  0  0
 50119  1  0  0  0
 50120  1  0  0  0
 51 52  1  0  0  0
 51121  1  0  0  0
 51122  1  0  0  0
 52123  1  0  0  0
 52124  1  0  0  0
 53 54  1  0  0  0
 54 55  2  0  0  0
 54125  1  0  0  0
 55 57  1  0  0  0
 55126  1  0  0  0
 56 69  2  0  0  0
 57 58  2  0  0  0
 57127  1  0  0  0
 58128  1  0  0  0
 59 60  1  0  0  0
 59 61  1  0  0  0
 59 62  1  0  0  0
 60129  1  0  0  0
 60130  1  0  0  0
 60131  1  0  0  0
 61132  1  0  0  0
 61133  1  0  0  0
 61134  1  0  0  0
 62135  1  0  0  0
 62136  1  0  0  0
 62137  1  0  0  0
 63 65  1  0  0  0
 63138  1  0  0  0
 63139  1  0  0  0
 63140  1  0  0  0
 64141  1  0  0  0
 65142  1  0  0  0
 68 80  1  0  0  0
 71 73  2  0  0  0
 71 81  1  0  0  0
 71143  1  0  0  0
 72 73  1  0  0  0
 72 82  2  0  0  0
 72144  1  0  0  0
 73 76  1  0  0  0
 74 77  1  0  0  0
 74 81  2  0  0  0
 74 82  1  0  0  0
 75 83  1  0  0  0
 75145  1  0  0  0
 75146  1  0  0  0
 75147  1  0  0  0
 76 80  1  0  0  0
 76148  1  0  0  0
 76149  1  0  0  0
 77 78  1  0  0  0
 77150  1  0  0  0
 77151  1  0  0  0
 78 79  1  0  0  0
 78152  1  0  0  0
 78153  1  0  0  0
 79 83  1  0  0  0
 79154  1  0  0  0
 79155  1  0  0  0
 80156  1  0  0  0
 80157  1  0  0  0
M  ISO  4   1 100  68 101  80 101  83 100
M  END
> <chiral flag>
0

> <version>
0

> <s_m_source_file>
/data/baiqing/PycharmProjects/Reinvent-master-3.2/result/LINK_invent/BTK/process_docking_weight1_custom_sum_contain_oxygen_bond_distance_aromatic_linkinvent_7_9_3/rearranged_h_0046.sdf

> <i_m_source_file_index>
15

> <r_mmod_Potential_Energy-OPLS-2005>
-296.135589599609

> <r_mmod_Stretch_Energy-OPLS-2005>
38.205322265625

> <r_mmod_Bend_Energy-OPLS-2005>
101.131614685059

> <r_mmod_Torsional_Energy-OPLS-2005>
295.702178955078

> <r_mmod_Improper_Torsional_Energy-OPLS-2005>
9.41726112365723

> <r_mmod_Van_der_Waal_Energy-OPLS-2005>
164.069931030273

> <r_mmod_Electrostatic_Energy-OPLS-2005>
-708.0732421875

> <r_mmod_Solvation_Energy-OPLS-2005>
-217.349395751953

> <b_mmod_Minimization_Converged-OPLS-2005>
0

> <r_mmod_RMS_Derivative-OPLS-2005>
2.17776441574097

$$$$
15
                    3D
 Structure written by MMmdl.
156164  0  0  1  0            999 V2000
  -30.4825  -14.9470   20.4556 C   0  0  0  0  0  0
  -30.4505  -12.5885   19.4837 C   0  0  0  0  0  0
  -29.5179  -12.5538   18.2439 C   0  0  0  0  0  0
  -28.0493  -12.3359   18.6600 C   0  0  0  0  0  0
  -27.6379  -13.2384   19.8507 C   0  0  2  0  0  0
  -28.6823  -13.2040   20.9855 C   0  0  0  0  0  0
  -25.2522  -13.8187   20.5718 C   0  0  0  0  0  0
  -24.1812  -13.0448   20.9223 C   0  0  0  0  0  0
  -24.6385  -11.6920   20.8753 C   0  0  0  0  0  0
  -23.9044  -10.4302   21.0430 C   0  0  0  0  0  0
  -24.3617   -9.4211   21.9196 C   0  0  0  0  0  0
  -23.6288   -8.2248   22.0741 C   0  0  0  0  0  0
  -22.4270   -8.0280   21.3547 C   0  0  0  0  0  0
  -21.9930   -9.0249   20.4647 C   0  0  0  0  0  0
  -22.7232  -10.2136   20.3059 C   0  0  0  0  0  0
  -21.6878   -6.0747   22.5283 C   0  0  0  0  0  0
  -21.4030   -6.5655   23.8218 C   0  0  0  0  0  0
  -21.3648   -5.6800   24.9176 C   0  0  0  0  0  0
  -21.6040   -4.3056   24.7232 C   0  0  0  0  0  0
  -21.8824   -3.8157   23.4355 C   0  0  0  0  0  0
  -21.9214   -4.6975   22.3412 C   0  0  0  0  0  0
  -22.7830  -13.5216   21.1910 C   0  0  0  0  0  0
  -22.1681   -4.2146   21.0993 F   0  0  0  0  0  0
  -21.5631   -3.4530   25.7758 F   0  0  0  0  0  0
  -29.9582  -13.6522   20.4090 N   0  0  0  0  0  0
  -26.2918  -12.9387   20.3262 N   0  0  0  0  0  0
  -25.9312  -11.6542   20.5728 N   0  0  0  0  0  0
  -22.0507  -12.8142   22.0433 N   0  0  0  0  0  0
  -25.4257  -15.1920   20.4151 N   0  0  0  0  0  0
  -31.6547  -15.0639   20.0677 O   0  0  0  0  0  0
  -21.6642   -6.8877   21.4237 O   0  0  0  0  0  0
  -22.3516  -14.5546   20.6804 O   0  0  0  0  0  0
  -24.6447  -31.8424   23.1831 C   0  0  0  0  0  0
  -25.9238  -32.4672   23.8233 C   0  0  1  0  0  0
  -27.2009  -27.1132   20.1468 C   0  0  0  0  0  0
  -25.5978  -33.8486   24.2161 N   0  0  0  0  0  0
  -23.4470  -30.4614   21.5314 C   0  0  2  0  0  0
  -24.8894  -28.8800   20.1045 C   0  0  0  0  0  0
  -22.7572  -29.4567   22.4857 C   0  0  0  0  0  0
  -18.0310  -28.1446   22.8475 C   0  0  0  0  0  0
  -24.1499  -36.7227   23.2639 C   0  0  0  0  0  0
  -26.0026  -30.7062   21.3835 C   0  0  0  0  0  0
  -26.0672  -29.3162   20.7225 C   0  0  0  0  0  0
  -27.2200  -28.4465   20.7301 C   0  0  0  0  0  0
  -26.0001  -26.7789   19.4850 C   0  0  0  0  0  0
  -24.8690  -27.6268   19.4717 C   0  0  0  0  0  0
  -23.6697  -29.7873   20.1514 C   0  0  0  0  0  0
  -25.4136  -36.3019   24.0314 C   0  0  1  0  0  0
  -20.5916  -28.3776   23.1244 C   0  0  2  0  0  0
  -20.6798  -26.9472   22.5419 C   0  0  0  0  0  0
  -19.5773  -26.6421   21.5229 C   0  0  0  0  0  0
  -18.1952  -26.7984   22.1632 C   0  0  0  0  0  0
  -19.1563  -28.8928   23.2851 C   0  0  0  0  0  0
  -18.9491  -30.1516   23.8877 C   0  0  0  0  0  0
  -17.6480  -30.6633   24.0584 C   0  0  0  0  0  0
  -25.9099  -34.9400   23.5045 C   0  0  0  0  0  0
  -16.5374  -29.9131   23.6355 C   0  0  0  0  0  0
  -16.7297  -28.6553   23.0355 C   0  0  0  0  0  0
  -26.4550  -31.6547   25.0688 C   0  0  0  0  0  0
  -25.3711  -31.3740   26.1357 C   0  0  0  0  0  0
  -27.0412  -30.2934   24.6272 C   0  0  0  0  0  0
  -27.6086  -32.4302   25.7473 C   0  0  0  0  0  0
  -27.5586  -37.1768   24.8468 C   0  0  0  0  0  0
  -21.4271  -29.3080   22.3598 N   0  0  0  0  0  0
  -26.4288  -37.3737   23.9413 N   0  0  0  0  0  0
  -24.7184  -31.0265   22.0872 N   0  0  0  0  0  0
  -23.4193  -28.8133   23.3042 O   0  0  0  0  0  0
  -28.2519  -26.1321   20.2788 O   0  0  0  0  0  0
  -26.5692  -34.8901   22.4629 O   0  0  0  0  0  0
  -23.5575  -32.1339   23.7054 O   0  0  0  0  0  0
  -29.5893  -19.1747   21.1487 C   0  0  0  0  0  0
  -29.5551  -17.8625   20.4518 C   0  0  0  0  0  0
  -29.2082  -20.2575   20.3132 C   0  0  0  0  0  0
  -24.9553  -22.1997   22.4768 C   0  0  0  0  0  0
  -29.6403  -16.2890   20.9858 C   0  0  0  0  0  0
  -29.2646  -21.9113   20.3567 C   0  0  0  0  0  0
  -25.8443  -22.2393   21.2266 C   0  0  0  0  0  0
  -27.1049  -23.1040   21.4293 C   0  0  0  0  0  0
  -28.3236  -24.6989   19.6566 C   0  0  0  0  0  0
  -28.0721  -23.1087   20.2230 C   0  0  1  0  0  0
  -29.1391  -18.1915   19.2238 N   0  0  0  0  0  0
  -28.9669  -19.6106   19.1243 O   0  0  0  0  0  0
  -31.4837  -12.7637   19.1743 H   0  0  0  0  0  0
  -30.4550  -11.6192   19.9858 H   0  0  0  0  0  0
  -29.8304  -11.7714   17.5527 H   0  0  0  0  0  0
  -29.6015  -13.4953   17.6958 H   0  0  0  0  0  0
  -27.9343  -11.2867   18.9358 H   0  0  0  0  0  0
  -27.3781  -12.5068   17.8153 H   0  0  0  0  0  0
  -27.6197  -14.2522   19.4564 H   0  0  0  0  0  0
  -28.7667  -12.1969   21.4002 H   0  0  0  0  0  0
  -28.3803  -13.8405   21.8196 H   0  0  0  0  0  0
  -25.2783   -9.5708   22.4727 H   0  0  0  0  0  0
  -24.0058   -7.4653   22.7442 H   0  0  0  0  0  0
  -21.0893   -8.8747   19.8921 H   0  0  0  0  0  0
  -22.3716  -10.9662   19.6155 H   0  0  0  0  0  0
  -21.1996   -7.6155   23.9711 H   0  0  0  0  0  0
  -21.1463   -6.0535   25.9089 H   0  0  0  0  0  0
  -22.0606   -2.7611   23.2851 H   0  0  0  0  0  0
  -22.4185  -11.9780   22.4755 H   0  0  0  0  0  0
  -21.1102  -13.1070   22.2687 H   0  0  0  0  0  0
  -24.6590  -15.8454   20.5233 H   0  0  0  0  0  0
  -26.2704  -15.6223   20.0598 H   0  0  0  0  0  0
  -26.7293  -32.5268   23.0952 H   0  0  0  0  0  0
  -25.0067  -33.9582   25.0269 H   0  0  0  0  0  0
  -22.7506  -31.2885   21.3779 H   0  0  0  0  0  0
  -23.3787  -35.9533   23.3281 H   0  0  0  0  0  0
  -24.3571  -36.8880   22.2058 H   0  0  0  0  0  0
  -23.7235  -37.6398   23.6700 H   0  0  0  0  0  0
  -26.1643  -31.4599   20.6122 H   0  0  0  0  0  0
  -26.8726  -30.7522   22.0273 H   0  0  0  0  0  0
  -28.1130  -28.7715   21.2454 H   0  0  0  0  0  0
  -25.8864  -25.8116   19.0182 H   0  0  0  0  0  0
  -23.9640  -27.2864   18.9858 H   0  0  0  0  0  0
  -23.8056  -30.5610   19.3951 H   0  0  0  0  0  0
  -22.7810  -29.2337   19.8429 H   0  0  0  0  0  0
  -25.1321  -36.1833   25.0805 H   0  0  0  0  0  0
  -21.0003  -28.3398   24.1373 H   0  0  0  0  0  0
  -20.5745  -26.2382   23.3643 H   0  0  0  0  0  0
  -21.6670  -26.7511   22.1194 H   0  0  0  0  0  0
  -19.6937  -25.6338   21.1268 H   0  0  0  0  0  0
  -19.6709  -27.3223   20.6757 H   0  0  0  0  0  0
  -17.4214  -26.6749   21.4038 H   0  0  0  0  0  0
  -18.0331  -26.0156   22.9053 H   0  0  0  0  0  0
  -19.7957  -30.7357   24.2234 H   0  0  0  0  0  0
  -17.5033  -31.6300   24.5221 H   0  0  0  0  0  0
  -15.5369  -30.3029   23.7700 H   0  0  0  0  0  0
  -15.8695  -28.0879   22.7066 H   0  0  0  0  0  0
  -24.5879  -30.7128   25.7642 H   0  0  0  0  0  0
  -24.8924  -32.2922   26.4749 H   0  0  0  0  0  0
  -25.7961  -30.8898   27.0146 H   0  0  0  0  0  0
  -26.3023  -29.6644   24.1285 H   0  0  0  0  0  0
  -27.4024  -29.7256   25.4855 H   0  0  0  0  0  0
  -27.8935  -30.4168   23.9585 H   0  0  0  0  0  0
  -27.2689  -33.3613   26.2011 H   0  0  0  0  0  0
  -28.3907  -32.6829   25.0310 H   0  0  0  0  0  0
  -28.0728  -31.8437   26.5402 H   0  0  0  0  0  0
  -28.2581  -38.0086   24.7534 H   0  0  0  0  0  0
  -28.1099  -36.2614   24.6277 H   0  0  0  0  0  0
  -27.2290  -37.1380   25.8861 H   0  0  0  0  0  0
  -20.9502  -29.8723   21.6704 H   0  0  0  0  0  0
  -26.0155  -38.2791   24.1436 H   0  0  0  0  0  0
  -29.8738  -19.3081   22.1844 H   0  0  0  0  0  0
  -24.0920  -21.5496   22.3285 H   0  0  0  0  0  0
  -24.5776  -23.1916   22.7308 H   0  0  0  0  0  0
  -25.5079  -21.8203   23.3377 H   0  0  0  0  0  0
  -28.6059  -15.9535   21.0164 H   0  0  0  0  0  0
  -29.9174  -16.3406   22.0372 H   0  0  0  0  0  0
  -29.9776  -22.1687   19.5737 H   0  0  0  0  0  0
  -29.7989  -22.1610   21.2735 H   0  0  0  0  0  0
  -25.2617  -22.6286   20.3886 H   0  0  0  0  0  0
  -26.1273  -21.2211   20.9576 H   0  0  0  0  0  0
  -27.6372  -22.7680   22.3184 H   0  0  0  0  0  0
  -26.7802  -24.1238   21.6415 H   0  0  0  0  0  0
  -27.7591  -24.7658   18.7279 H   0  0  0  0  0  0
  -29.3474  -24.6672   19.2888 H   0  0  0  0  0  0
  -27.4906  -22.7033   19.3924 H   0  0  0  0  0  0
  1 25  1  0  0  0
  1 30  2  0  0  0
  1 75  1  0  0  0
  2  3  1  0  0  0
  2 25  1  0  0  0
  2 83  1  0  0  0
  2 84  1  0  0  0
  3  4  1  0  0  0
  3 85  1  0  0  0
  3 86  1  0  0  0
  4  5  1  0  0  0
  4 87  1  0  0  0
  4 88  1  0  0  0
  5  6  1  0  0  0
  5 26  1  0  0  0
  5 89  1  0  0  0
  6 25  1  0  0  0
  6 90  1  0  0  0
  6 91  1  0  0  0
  7  8  2  0  0  0
  7 26  1  0  0  0
  7 29  1  0  0  0
  8  9  1  0  0  0
  8 22  1  0  0  0
  9 10  1  0  0  0
  9 27  2  0  0  0
 10 11  2  0  0  0
 10 15  1  0  0  0
 11 12  1  0  0  0
 11 92  1  0  0  0
 12 13  2  0  0  0
 12 93  1  0  0  0
 13 14  1  0  0  0
 13 31  1  0  0  0
 14 15  2  0  0  0
 14 94  1  0  0  0
 15 95  1  0  0  0
 16 17  2  0  0  0
 16 21  1  0  0  0
 16 31  1  0  0  0
 17 18  1  0  0  0
 17 96  1  0  0  0
 18 19  2  0  0  0
 18 97  1  0  0  0
 19 20  1  0  0  0
 19 24  1  0  0  0
 20 21  2  0  0  0
 20 98  1  0  0  0
 21 23  1  0  0  0
 22 28  1  0  0  0
 22 32  2  0  0  0
 26 27  1  0  0  0
 28 99  1  0  0  0
 28100  1  0  0  0
 29101  1  0  0  0
 29102  1  0  0  0
 33 34  1  0  0  0
 33 66  1  0  0  0
 33 70  2  0  0  0
 34 36  1  0  0  0
 34 59  1  0  0  0
 34103  1  0  0  0
 35 44  2  0  0  0
 35 45  1  0  0  0
 35 68  1  0  0  0
 36 56  1  0  0  0
 36104  1  0  0  0
 37 39  1  0  0  0
 37 47  1  0  0  0
 37 66  1  0  0  0
 37105  1  0  0  0
 38 43  2  0  0  0
 38 46  1  0  0  0
 38 47  1  0  0  0
 39 64  1  0  0  0
 39 67  2  0  0  0
 40 52  1  0  0  0
 40 53  2  0  0  0
 40 58  1  0  0  0
 41106  1  0  0  0
 41107  1  0  0  0
 41108  1  0  0  0
 41 48  1  0  0  0
 42 43  1  0  0  0
 42 66  1  0  0  0
 42109  1  0  0  0
 42110  1  0  0  0
 43 44  1  0  0  0
 44111  1  0  0  0
 45 46  2  0  0  0
 45112  1  0  0  0
 46113  1  0  0  0
 47114  1  0  0  0
 47115  1  0  0  0
 48 56  1  0  0  0
 48 65  1  0  0  0
 48116  1  0  0  0
 49 50  1  0  0  0
 49 53  1  0  0  0
 49 64  1  0  0  0
 49117  1  0  0  0
 50 51  1  0  0  0
 50118  1  0  0  0
 50119  1  0  0  0
 51 52  1  0  0  0
 51120  1  0  0  0
 51121  1  0  0  0
 52122  1  0  0  0
 52123  1  0  0  0
 53 54  1  0  0  0
 54 55  2  0  0  0
 54124  1  0  0  0
 55 57  1  0  0  0
 55125  1  0  0  0
 56 69  2  0  0  0
 57 58  2  0  0  0
 57126  1  0  0  0
 58127  1  0  0  0
 59 60  1  0  0  0
 59 61  1  0  0  0
 59 62  1  0  0  0
 60128  1  0  0  0
 60129  1  0  0  0
 60130  1  0  0  0
 61131  1  0  0  0
 61132  1  0  0  0
 61133  1  0  0  0
 62134  1  0  0  0
 62135  1  0  0  0
 62136  1  0  0  0
 63 65  1  0  0  0
 63137  1  0  0  0
 63138  1  0  0  0
 63139  1  0  0  0
 64140  1  0  0  0
 65141  1  0  0  0
 68 79  1  0  0  0
 71 72  1  0  0  0
 71 73  2  0  0  0
 71142  1  0  0  0
 72 75  1  0  0  0
 72 81  2  0  0  0
 73 76  1  0  0  0
 73 82  1  0  0  0
 74 77  1  0  0  0
 74143  1  0  0  0
 74144  1  0  0  0
 74145  1  0  0  0
 75146  1  0  0  0
 75147  1  0  0  0
 76148  1  0  0  0
 76149  1  0  0  0
 76 80  1  0  0  0
 77 78  1  0  0  0
 77150  1  0  0  0
 77151  1  0  0  0
 78 80  1  0  0  0
 78152  1  0  0  0
 78153  1  0  0  0
 79 80  1  0  0  0
 79154  1  0  0  0
 79155  1  0  0  0
 80156  1  0  0  0
 81 82  1  0  0  0
M  ISO  4   1 100  68 101  75 100  79 101
M  END
> <chiral flag>
0

> <version>
0

> <s_m_source_file>
/data/baiqing/PycharmProjects/Reinvent-master-3.2/result/LINK_invent/BTK/process_docking_weight1_custom_sum_contain_oxygen_bond_distance_aromatic_linkinvent_7_9_3/rearranged_h_0046.sdf

> <i_m_source_file_index>
16

> <r_mmod_Potential_Energy-OPLS-2005>
618.486877441406

> <r_mmod_Stretch_Energy-OPLS-2005>
277.928924560547

> <r_mmod_Bend_Energy-OPLS-2005>
339.549652099609

> <r_mmod_Torsional_Energy-OPLS-2005>
205.196731567383

> <r_mmod_Improper_Torsional_Energy-OPLS-2005>
4.59077787399292

> <r_mmod_Van_der_Waal_Energy-OPLS-2005>
104.812942504883

> <r_mmod_Electrostatic_Energy-OPLS-2005>
-299.719970703125

> <r_mmod_Solvation_Energy-OPLS-2005>
-213.993087768555

> <b_mmod_Minimization_Converged-OPLS-2005>
0

> <r_mmod_RMS_Derivative-OPLS-2005>
4.15418767929077

$$$$
16
                    3D
 Structure written by MMmdl.
170178  0  0  1  0            999 V2000
  -30.7187  -14.4666   20.6030 C   0  0  0  0  0  0
  -30.4191  -12.3183   19.4178 C   0  0  0  0  0  0
  -29.4880  -12.5077   18.2040 C   0  0  0  0  0  0
  -28.0124  -12.3612   18.6219 C   0  0  0  0  0  0
  -27.6595  -13.2075   19.8736 C   0  0  2  0  0  0
  -28.7006  -12.9982   20.9949 C   0  0  0  0  0  0
  -25.2582  -13.8169   20.5686 C   0  0  0  0  0  0
  -24.1836  -13.0445   20.9181 C   0  0  0  0  0  0
  -24.6392  -11.6912   20.8739 C   0  0  0  0  0  0
  -23.9061  -10.4298   21.0412 C   0  0  0  0  0  0
  -24.3611   -9.4214   21.9192 C   0  0  0  0  0  0
  -23.6290   -8.2246   22.0761 C   0  0  0  0  0  0
  -22.4275   -8.0281   21.3545 C   0  0  0  0  0  0
  -21.9908   -9.0256   20.4647 C   0  0  0  0  0  0
  -22.7236  -10.2139   20.3058 C   0  0  0  0  0  0
  -21.6852   -6.0737   22.5280 C   0  0  0  0  0  0
  -21.4013   -6.5642   23.8214 C   0  0  0  0  0  0
  -21.3658   -5.6794   24.9177 C   0  0  0  0  0  0
  -21.6042   -4.3056   24.7228 C   0  0  0  0  0  0
  -21.8819   -3.8150   23.4349 C   0  0  0  0  0  0
  -21.9194   -4.6967   22.3405 C   0  0  0  0  0  0
  -22.7860  -13.5245   21.1845 C   0  0  0  0  0  0
  -22.1661   -4.2153   21.0983 F   0  0  0  0  0  0
  -21.5632   -3.4541   25.7741 F   0  0  0  0  0  0
  -30.0296  -13.3039   20.4400 N   0  0  0  0  0  0
  -26.3015  -12.9339   20.3367 N   0  0  0  0  0  0
  -25.9318  -11.6500   20.5775 N   0  0  0  0  0  0
  -22.0496  -12.8230   22.0394 N   0  0  0  0  0  0
  -25.4326  -15.1883   20.4102 N   0  0  0  0  0  0
  -31.8279  -14.6555   20.0973 O   0  0  0  0  0  0
  -21.6636   -6.8880   21.4242 O   0  0  0  0  0  0
  -22.3545  -14.5555   20.6702 O   0  0  0  0  0  0
  -24.6156  -31.8671   23.2081 C   0  0  0  0  0  0
  -25.9045  -32.4819   23.8386 C   0  0  1  0  0  0
  -27.2412  -27.4248   20.0979 C   0  0  0  0  0  0
  -25.5898  -33.8616   24.2322 N   0  0  0  0  0  0
  -23.4037  -30.4885   21.5512 C   0  0  2  0  0  0
  -24.8495  -28.9481   20.1185 C   0  0  0  0  0  0
  -22.7412  -29.4653   22.5012 C   0  0  0  0  0  0
  -18.0267  -28.1359   22.8508 C   0  0  0  0  0  0
  -24.1485  -36.7313   23.2636 C   0  0  0  0  0  0
  -25.9310  -30.8306   21.3581 C   0  0  0  0  0  0
  -26.0088  -29.4610   20.7114 C   0  0  0  0  0  0
  -27.2045  -28.7079   20.6941 C   0  0  0  0  0  0
  -26.0591  -26.9225   19.5067 C   0  0  0  0  0  0
  -24.8700  -27.6796   19.5133 C   0  0  0  0  0  0
  -23.6110  -29.8157   20.1677 C   0  0  0  0  0  0
  -25.4108  -36.3108   24.0330 C   0  0  1  0  0  0
  -20.5862  -28.3652   23.1329 C   0  0  2  0  0  0
  -20.6762  -26.9392   22.5425 C   0  0  0  0  0  0
  -19.5735  -26.6382   21.5222 C   0  0  0  0  0  0
  -18.1911  -26.7913   22.1630 C   0  0  0  0  0  0
  -19.1518  -28.8822   23.2911 C   0  0  0  0  0  0
  -18.9445  -30.1438   23.8907 C   0  0  0  0  0  0
  -17.6448  -30.6572   24.0568 C   0  0  0  0  0  0
  -25.9033  -34.9473   23.5126 C   0  0  0  0  0  0
  -16.5338  -29.9079   23.6324 C   0  0  0  0  0  0
  -16.7258  -28.6496   23.0347 C   0  0  0  0  0  0
  -26.4467  -31.6589   25.0711 C   0  0  0  0  0  0
  -25.3733  -31.3665   26.1455 C   0  0  0  0  0  0
  -27.0318  -30.3051   24.6055 C   0  0  0  0  0  0
  -27.6045  -32.4310   25.7470 C   0  0  0  0  0  0
  -27.5574  -37.1803   24.8457 C   0  0  0  0  0  0
  -21.4140  -29.3029   22.3745 N   0  0  0  0  0  0
  -26.4287  -37.3800   23.9412 N   0  0  0  0  0  0
  -24.6692  -31.0763   22.0988 N   0  0  0  0  0  0
  -23.4185  -28.8195   23.3050 O   0  0  0  0  0  0
  -28.4405  -26.7355   20.1033 O   0  0  0  0  0  0
  -26.5598  -34.8919   22.4688 O   0  0  0  0  0  0
  -23.5350  -32.1429   23.7478 O   0  0  0  0  0  0
  -28.3628  -22.1904   19.9218 C   0  0  0  0  0  0
  -28.5919  -20.7980   20.0197 C   0  0  0  0  0  0
  -28.8200  -20.2177   21.2969 C   0  0  0  0  0  0
  -28.3535  -22.9813   21.0874 C   0  0  0  0  0  0
  -28.7812  -21.0977   22.4133 C   0  0  0  0  0  0
  -28.5607  -19.9587   18.7539 C   0  0  0  0  0  0
  -28.9005  -20.6173   23.8512 C   0  0  0  0  0  0
  -32.5569  -18.3816   19.7243 C   0  0  0  0  0  0
  -32.1991  -19.4046   22.0109 C   0  0  0  0  0  0
  -29.0086  -18.6851   21.4737 C   0  0  0  0  0  0
  -28.0273  -24.4857   21.0926 C   0  0  0  0  0  0
  -30.7112  -16.7116   21.7281 C   0  0  0  0  0  0
  -28.4885  -25.3136   19.8663 C   0  0  0  0  0  0
  -31.5178  -18.9551   20.7064 C   0  0  0  0  0  0
  -30.3054  -17.9919   20.9138 C   0  0  2  0  0  0
  -28.5639  -22.4291   22.3012 N   0  0  0  0  0  0
  -30.0960  -15.4404   21.2980 N   0  0  0  0  0  0
  -31.4621  -12.4196   19.1116 H   0  0  0  0  0  0
  -30.3265  -11.3081   19.8197 H   0  0  0  0  0  0
  -29.7291  -11.7822   17.4262 H   0  0  0  0  0  0
  -29.6496  -13.4936   17.7653 H   0  0  0  0  0  0
  -27.8310  -11.3056   18.8266 H   0  0  0  0  0  0
  -27.3568  -12.6255   17.7918 H   0  0  0  0  0  0
  -27.7031  -14.2538   19.5703 H   0  0  0  0  0  0
  -28.6817  -11.9645   21.3434 H   0  0  0  0  0  0
  -28.4562  -13.6032   21.8685 H   0  0  0  0  0  0
  -25.2759   -9.5692   22.4765 H   0  0  0  0  0  0
  -24.0004   -7.4639   22.7481 H   0  0  0  0  0  0
  -21.0843   -8.8774   19.8948 H   0  0  0  0  0  0
  -22.3698  -10.9678   19.6161 H   0  0  0  0  0  0
  -21.1998   -7.6150   23.9718 H   0  0  0  0  0  0
  -21.1479   -6.0526   25.9080 H   0  0  0  0  0  0
  -22.0598   -2.7613   23.2852 H   0  0  0  0  0  0
  -22.4103  -11.9870   22.4753 H   0  0  0  0  0  0
  -21.1120  -13.1263   22.2616 H   0  0  0  0  0  0
  -24.6707  -15.8483   20.5194 H   0  0  0  0  0  0
  -26.2912  -15.6235   20.0975 H   0  0  0  0  0  0
  -26.7126  -32.5522   23.1159 H   0  0  0  0  0  0
  -25.0072  -33.9778   25.0483 H   0  0  0  0  0  0
  -22.6929  -31.3050   21.4113 H   0  0  0  0  0  0
  -23.3741  -35.9648   23.3302 H   0  0  0  0  0  0
  -24.3572  -36.8940   22.2048 H   0  0  0  0  0  0
  -23.7259  -37.6524   23.6658 H   0  0  0  0  0  0
  -26.0336  -31.5902   20.5819 H   0  0  0  0  0  0
  -26.8244  -30.8960   21.9682 H   0  0  0  0  0  0
  -28.1030  -29.1068   21.1439 H   0  0  0  0  0  0
  -26.0345  -25.9555   19.0280 H   0  0  0  0  0  0
  -23.9781  -27.2807   19.0504 H   0  0  0  0  0  0
  -23.7152  -30.5870   19.4044 H   0  0  0  0  0  0
  -22.7357  -29.2322   19.8769 H   0  0  0  0  0  0
  -25.1291  -36.1963   25.0826 H   0  0  0  0  0  0
  -20.9947  -28.3218   24.1452 H   0  0  0  0  0  0
  -20.5684  -26.2255   23.3609 H   0  0  0  0  0  0
  -21.6625  -26.7445   22.1198 H   0  0  0  0  0  0
  -19.6891  -25.6302   21.1225 H   0  0  0  0  0  0
  -19.6654  -27.3210   20.6761 H   0  0  0  0  0  0
  -17.4185  -26.6680   21.4019 H   0  0  0  0  0  0
  -18.0292  -26.0031   22.9000 H   0  0  0  0  0  0
  -19.7915  -30.7264   24.2263 H   0  0  0  0  0  0
  -17.4997  -31.6245   24.5178 H   0  0  0  0  0  0
  -15.5340  -30.2987   23.7636 H   0  0  0  0  0  0
  -15.8656  -28.0831   22.7042 H   0  0  0  0  0  0
  -24.5913  -30.7007   25.7785 H   0  0  0  0  0  0
  -24.8890  -32.2796   26.4920 H   0  0  0  0  0  0
  -25.8084  -30.8825   27.0207 H   0  0  0  0  0  0
  -26.2863  -29.6793   24.1131 H   0  0  0  0  0  0
  -27.4168  -29.7290   25.4480 H   0  0  0  0  0  0
  -27.8645  -30.4418   23.9154 H   0  0  0  0  0  0
  -27.2686  -33.3631   26.2027 H   0  0  0  0  0  0
  -28.3852  -32.6842   25.0285 H   0  0  0  0  0  0
  -28.0705  -31.8443   26.5398 H   0  0  0  0  0  0
  -28.2583  -38.0111   24.7548 H   0  0  0  0  0  0
  -28.1092  -36.2651   24.6252 H   0  0  0  0  0  0
  -27.2284  -37.1412   25.8855 H   0  0  0  0  0  0
  -20.9301  -29.8785   21.6992 H   0  0  0  0  0  0
  -26.0166  -38.2874   24.1431 H   0  0  0  0  0  0
  -28.1702  -22.6421   18.9584 H   0  0  0  0  0  0
  -28.1261  -20.5133   17.9219 H   0  0  0  0  0  0
  -27.9597  -19.0600   18.8885 H   0  0  0  0  0  0
  -29.5683  -19.6635   18.4625 H   0  0  0  0  0  0
  -28.0018  -20.0720   24.1383 H   0  0  0  0  0  0
  -29.0136  -21.4521   24.5439 H   0  0  0  0  0  0
  -29.7555  -19.9619   23.9984 H   0  0  0  0  0  0
  -33.3284  -19.1195   19.5002 H   0  0  0  0  0  0
  -32.0955  -18.1043   18.7757 H   0  0  0  0  0  0
  -33.0595  -17.4985   20.1174 H   0  0  0  0  0  0
  -33.0000  -20.1155   21.8052 H   0  0  0  0  0  0
  -32.6370  -18.5719   22.5600 H   0  0  0  0  0  0
  -31.4983  -19.9086   22.6704 H   0  0  0  0  0  0
  -28.1380  -18.1909   21.0427 H   0  0  0  0  0  0
  -28.9254  -18.4433   22.5305 H   0  0  0  0  0  0
  -28.4810  -24.9245   21.9817 H   0  0  0  0  0  0
  -26.9509  -24.5978   21.2226 H   0  0  0  0  0  0
  -30.4841  -16.8516   22.7853 H   0  0  0  0  0  0
  -31.7931  -16.5831   21.7146 H   0  0  0  0  0  0
  -27.9616  -25.0272   18.9570 H   0  0  0  0  0  0
  -29.5354  -25.0802   19.6729 H   0  0  0  0  0  0
  -31.1574  -19.8596   20.2205 H   0  0  0  0  0  0
  -30.0449  -17.6625   19.9068 H   0  0  0  0  0  0
  -29.1729  -15.2263   21.6457 H   0  0  0  0  0  0
  1 25  1  0  0  0
  1 30  2  0  0  0
  1 87  1  0  0  0
  2  3  1  0  0  0
  2 25  1  0  0  0
  2 88  1  0  0  0
  2 89  1  0  0  0
  3  4  1  0  0  0
  3 90  1  0  0  0
  3 91  1  0  0  0
  4  5  1  0  0  0
  4 92  1  0  0  0
  4 93  1  0  0  0
  5  6  1  0  0  0
  5 26  1  0  0  0
  5 94  1  0  0  0
  6 25  1  0  0  0
  6 95  1  0  0  0
  6 96  1  0  0  0
  7  8  2  0  0  0
  7 26  1  0  0  0
  7 29  1  0  0  0
  8  9  1  0  0  0
  8 22  1  0  0  0
  9 10  1  0  0  0
  9 27  2  0  0  0
 10 11  2  0  0  0
 10 15  1  0  0  0
 11 12  1  0  0  0
 11 97  1  0  0  0
 12 13  2  0  0  0
 12 98  1  0  0  0
 13 14  1  0  0  0
 13 31  1  0  0  0
 14 15  2  0  0  0
 14 99  1  0  0  0
 15100  1  0  0  0
 16 17  2  0  0  0
 16 21  1  0  0  0
 16 31  1  0  0  0
 17 18  1  0  0  0
 17101  1  0  0  0
 18 19  2  0  0  0
 18102  1  0  0  0
 19 20  1  0  0  0
 19 24  1  0  0  0
 20 21  2  0  0  0
 20103  1  0  0  0
 21 23  1  0  0  0
 22 28  1  0  0  0
 22 32  2  0  0  0
 26 27  1  0  0  0
 28104  1  0  0  0
 28105  1  0  0  0
 29106  1  0  0  0
 29107  1  0  0  0
 33 34  1  0  0  0
 33 66  1  0  0  0
 33 70  2  0  0  0
 34 36  1  0  0  0
 34 59  1  0  0  0
 34108  1  0  0  0
 35 44  2  0  0  0
 35 45  1  0  0  0
 35 68  1  0  0  0
 36 56  1  0  0  0
 36109  1  0  0  0
 37 39  1  0  0  0
 37 47  1  0  0  0
 37 66  1  0  0  0
 37110  1  0  0  0
 38 43  2  0  0  0
 38 46  1  0  0  0
 38 47  1  0  0  0
 39 64  1  0  0  0
 39 67  2  0  0  0
 40 52  1  0  0  0
 40 53  2  0  0  0
 40 58  1  0  0  0
 41111  1  0  0  0
 41112  1  0  0  0
 41113  1  0  0  0
 41 48  1  0  0  0
 42 43  1  0  0  0
 42 66  1  0  0  0
 42114  1  0  0  0
 42115  1  0  0  0
 43 44  1  0  0  0
 44116  1  0  0  0
 45 46  2  0  0  0
 45117  1  0  0  0
 46118  1  0  0  0
 47119  1  0  0  0
 47120  1  0  0  0
 48 56  1  0  0  0
 48 65  1  0  0  0
 48121  1  0  0  0
 49 50  1  0  0  0
 49 53  1  0  0  0
 49 64  1  0  0  0
 49122  1  0  0  0
 50 51  1  0  0  0
 50123  1  0  0  0
 50124  1  0  0  0
 51 52  1  0  0  0
 51125  1  0  0  0
 51126  1  0  0  0
 52127  1  0  0  0
 52128  1  0  0  0
 53 54  1  0  0  0
 54 55  2  0  0  0
 54129  1  0  0  0
 55 57  1  0  0  0
 55130  1  0  0  0
 56 69  2  0  0  0
 57 58  2  0  0  0
 57131  1  0  0  0
 58132  1  0  0  0
 59 60  1  0  0  0
 59 61  1  0  0  0
 59 62  1  0  0  0
 60133  1  0  0  0
 60134  1  0  0  0
 60135  1  0  0  0
 61136  1  0  0  0
 61137  1  0  0  0
 61138  1  0  0  0
 62139  1  0  0  0
 62140  1  0  0  0
 62141  1  0  0  0
 63 65  1  0  0  0
 63142  1  0  0  0
 63143  1  0  0  0
 63144  1  0  0  0
 64145  1  0  0  0
 65146  1  0  0  0
 68 83  1  0  0  0
 71 72  2  0  0  0
 71 74  1  0  0  0
 71147  1  0  0  0
 72 73  1  0  0  0
 72 76  1  0  0  0
 73 75  2  0  0  0
 73 80  1  0  0  0
 74 81  1  0  0  0
 74 86  2  0  0  0
 75 77  1  0  0  0
 75 86  1  0  0  0
 76148  1  0  0  0
 76149  1  0  0  0
 76150  1  0  0  0
 77151  1  0  0  0
 77152  1  0  0  0
 77153  1  0  0  0
 78154  1  0  0  0
 78155  1  0  0  0
 78156  1  0  0  0
 78 84  1  0  0  0
 79 84  1  0  0  0
 79157  1  0  0  0
 79158  1  0  0  0
 79159  1  0  0  0
 80160  1  0  0  0
 80161  1  0  0  0
 80 85  1  0  0  0
 81 83  1  0  0  0
 81162  1  0  0  0
 81163  1  0  0  0
 82 85  1  0  0  0
 82 87  1  0  0  0
 82164  1  0  0  0
 82165  1  0  0  0
 83166  1  0  0  0
 83167  1  0  0  0
 84 85  1  0  0  0
 84168  1  0  0  0
 85169  1  0  0  0
 87170  1  0  0  0
M  ISO  4   1 100  68 101  83 101  87 100
M  END
> <chiral flag>
0

> <version>
0

> <s_m_source_file>
/data/baiqing/PycharmProjects/Reinvent-master-3.2/result/LINK_invent/BTK/process_docking_weight1_custom_sum_contain_oxygen_bond_distance_aromatic_linkinvent_7_9_3/rearranged_h_0046.sdf

> <i_m_source_file_index>
17

> <r_mmod_Potential_Energy-OPLS-2005>
-181.67155456543

> <r_mmod_Stretch_Energy-OPLS-2005>
46.1402969360352

> <r_mmod_Bend_Energy-OPLS-2005>
121.412338256836

> <r_mmod_Torsional_Energy-OPLS-2005>
212.292419433594

> <r_mmod_Improper_Torsional_Energy-OPLS-2005>
2.53152227401733

> <r_mmod_Van_der_Waal_Energy-OPLS-2005>
155.441497802734

> <r_mmod_Electrostatic_Energy-OPLS-2005>
-514.891845703125

> <r_mmod_Solvation_Energy-OPLS-2005>
-216.971893310547

> <b_mmod_Minimization_Converged-OPLS-2005>
0

> <r_mmod_RMS_Derivative-OPLS-2005>
1.35276103019714

$$$$
17
                    3D
 Structure written by MMmdl.
172180  0  0  1  0            999 V2000
  -30.6697  -14.4484   20.5703 C   0  0  0  0  0  0
  -30.4298  -12.2882   19.4207 C   0  0  0  0  0  0
  -29.5050  -12.5249   18.2069 C   0  0  0  0  0  0
  -28.0193  -12.3917   18.6055 C   0  0  0  0  0  0
  -27.6681  -13.2003   19.8843 C   0  0  2  0  0  0
  -28.7050  -12.9340   21.0017 C   0  0  0  0  0  0
  -25.2619  -13.8140   20.5671 C   0  0  0  0  0  0
  -24.1864  -13.0433   20.9163 C   0  0  0  0  0  0
  -24.6405  -11.6896   20.8732 C   0  0  0  0  0  0
  -23.9063  -10.4295   21.0403 C   0  0  0  0  0  0
  -24.3604   -9.4213   21.9188 C   0  0  0  0  0  0
  -23.6288   -8.2245   22.0752 C   0  0  0  0  0  0
  -22.4276   -8.0272   21.3535 C   0  0  0  0  0  0
  -21.9903   -9.0257   20.4648 C   0  0  0  0  0  0
  -22.7232  -10.2137   20.3056 C   0  0  0  0  0  0
  -21.6844   -6.0724   22.5278 C   0  0  0  0  0  0
  -21.4016   -6.5628   23.8212 C   0  0  0  0  0  0
  -21.3668   -5.6781   24.9176 C   0  0  0  0  0  0
  -21.6043   -4.3044   24.7228 C   0  0  0  0  0  0
  -21.8822   -3.8135   23.4351 C   0  0  0  0  0  0
  -21.9195   -4.6954   22.3407 C   0  0  0  0  0  0
  -22.7890  -13.5246   21.1824 C   0  0  0  0  0  0
  -22.1659   -4.2133   21.0986 F   0  0  0  0  0  0
  -21.5633   -3.4536   25.7745 F   0  0  0  0  0  0
  -30.0472  -13.2441   20.4687 N   0  0  0  0  0  0
  -26.3051  -12.9297   20.3375 N   0  0  0  0  0  0
  -25.9325  -11.6459   20.5747 N   0  0  0  0  0  0
  -22.0508  -12.8273   22.0372 N   0  0  0  0  0  0
  -25.4383  -15.1858   20.4063 N   0  0  0  0  0  0
  -31.7807  -14.6830   20.0833 O   0  0  0  0  0  0
  -21.6640   -6.8864   21.4234 O   0  0  0  0  0  0
  -22.3601  -14.5559   20.6665 O   0  0  0  0  0  0
  -24.6123  -31.8697   23.2122 C   0  0  0  0  0  0
  -25.9027  -32.4841   23.8425 C   0  0  1  0  0  0
  -27.2471  -27.4771   20.0649 C   0  0  0  0  0  0
  -25.5893  -33.8642   24.2346 N   0  0  0  0  0  0
  -23.3989  -30.4940   21.5488 C   0  0  2  0  0  0
  -24.8451  -28.9567   20.1200 C   0  0  0  0  0  0
  -22.7405  -29.4665   22.4958 C   0  0  0  0  0  0
  -18.0278  -28.1363   22.8494 C   0  0  0  0  0  0
  -24.1477  -36.7304   23.2635 C   0  0  0  0  0  0
  -25.9260  -30.8390   21.3648 C   0  0  0  0  0  0
  -26.0011  -29.4744   20.7182 C   0  0  0  0  0  0
  -27.1996  -28.7331   20.7044 C   0  0  0  0  0  0
  -26.0673  -26.9506   19.4898 C   0  0  0  0  0  0
  -24.8692  -27.6882   19.5123 C   0  0  0  0  0  0
  -23.6092  -29.8244   20.1643 C   0  0  0  0  0  0
  -25.4102  -36.3114   24.0335 C   0  0  1  0  0  0
  -20.5873  -28.3641   23.1319 C   0  0  2  0  0  0
  -20.6737  -26.9377   22.5414 C   0  0  0  0  0  0
  -19.5719  -26.6374   21.5205 C   0  0  0  0  0  0
  -18.1909  -26.7917   22.1627 C   0  0  0  0  0  0
  -19.1530  -28.8824   23.2905 C   0  0  0  0  0  0
  -18.9469  -30.1444   23.8900 C   0  0  0  0  0  0
  -17.6466  -30.6566   24.0590 C   0  0  0  0  0  0
  -25.9033  -34.9487   23.5134 C   0  0  0  0  0  0
  -16.5353  -29.9079   23.6331 C   0  0  0  0  0  0
  -16.7276  -28.6506   23.0327 C   0  0  0  0  0  0
  -26.4457  -31.6617   25.0747 C   0  0  0  0  0  0
  -25.3749  -31.3733   26.1522 C   0  0  0  0  0  0
  -27.0266  -30.3065   24.6092 C   0  0  0  0  0  0
  -27.6039  -32.4331   25.7511 C   0  0  0  0  0  0
  -27.5573  -37.1795   24.8474 C   0  0  0  0  0  0
  -21.4124  -29.3035   22.3734 N   0  0  0  0  0  0
  -26.4278  -37.3801   23.9428 N   0  0  0  0  0  0
  -24.6628  -31.0833   22.1004 N   0  0  0  0  0  0
  -23.4209  -28.8202   23.2977 O   0  0  0  0  0  0
  -28.4417  -26.7998   20.0210 O   0  0  0  0  0  0
  -26.5585  -34.8929   22.4686 O   0  0  0  0  0  0
  -23.5324  -32.1421   23.7524 O   0  0  0  0  0  0
  -32.0906  -21.0529   20.0000 C   0  0  0  0  0  0
  -31.8114  -21.7517   18.8069 C   0  0  0  0  0  0
  -31.0127  -20.7379   20.8574 C   0  0  0  0  0  0
  -30.4544  -22.0870   18.5586 C   0  0  0  0  0  0
  -32.9513  -22.0662   17.8478 C   0  0  0  0  0  0
  -32.4904  -20.2799   22.8809 C   0  0  0  0  0  0
  -30.1940  -17.0879   19.1388 C   0  0  0  0  0  0
  -29.9675  -22.8104   17.3054 C   0  0  0  0  0  0
  -31.1183  -18.3881   21.8647 C   0  0  0  0  0  0
  -29.6950  -17.8826   21.5508 C   0  0  0  0  0  0
  -28.9867  -24.7336   18.8817 C   0  0  0  0  0  0
  -28.8229  -26.2536   18.7574 C   0  0  0  0  0  0
  -31.1986  -19.9132   22.1349 C   0  0  2  0  0  0
  -29.5790  -16.7476   20.5143 C   0  0  1  0  0  0
  -29.7439  -21.1183   20.5676 N   0  0  0  0  0  0
  -29.4688  -21.7674   19.4331 N   0  0  0  0  0  0
  -29.8701  -15.4108   21.0579 N   0  0  0  0  0  0
  -29.2959  -24.1034   17.5747 N   0  3  0  0  0  0
  -31.4771  -12.3911   19.1313 H   0  0  0  0  0  0
  -30.3188  -11.2683   19.7902 H   0  0  0  0  0  0
  -29.7448  -11.8188   17.4104 H   0  0  0  0  0  0
  -29.6861  -13.5202   17.7954 H   0  0  0  0  0  0
  -27.8085  -11.3337   18.7635 H   0  0  0  0  0  0
  -27.3808  -12.7054   17.7782 H   0  0  0  0  0  0
  -27.7217  -14.2559   19.6170 H   0  0  0  0  0  0
  -28.6686  -11.8876   21.3073 H   0  0  0  0  0  0
  -28.4635  -13.5007   21.9022 H   0  0  0  0  0  0
  -25.2737   -9.5705   22.4776 H   0  0  0  0  0  0
  -23.9995   -7.4636   22.7471 H   0  0  0  0  0  0
  -21.0831   -8.8779   19.8961 H   0  0  0  0  0  0
  -22.3680  -10.9680   19.6175 H   0  0  0  0  0  0
  -21.2005   -7.6135   23.9718 H   0  0  0  0  0  0
  -21.1488   -6.0508   25.9079 H   0  0  0  0  0  0
  -22.0603   -2.7596   23.2861 H   0  0  0  0  0  0
  -22.4065  -11.9921   22.4779 H   0  0  0  0  0  0
  -21.1136  -13.1356   22.2539 H   0  0  0  0  0  0
  -24.6746  -15.8455   20.5058 H   0  0  0  0  0  0
  -26.2903  -15.6195   20.0744 H   0  0  0  0  0  0
  -26.7100  -32.5557   23.1201 H   0  0  0  0  0  0
  -25.0101  -33.9824   25.0533 H   0  0  0  0  0  0
  -22.6860  -31.3097   21.4091 H   0  0  0  0  0  0
  -23.3729  -35.9649   23.3323 H   0  0  0  0  0  0
  -24.3561  -36.8886   22.2043 H   0  0  0  0  0  0
  -23.7238  -37.6515   23.6641 H   0  0  0  0  0  0
  -26.0352  -31.6017   20.5919 H   0  0  0  0  0  0
  -26.8177  -30.8949   21.9796 H   0  0  0  0  0  0
  -28.0966  -29.1329   21.1576 H   0  0  0  0  0  0
  -26.0690  -25.9762   19.0215 H   0  0  0  0  0  0
  -23.9771  -27.2755   19.0607 H   0  0  0  0  0  0
  -23.7282  -30.6026   19.4085 H   0  0  0  0  0  0
  -22.7338  -29.2460   19.8610 H   0  0  0  0  0  0
  -25.1271  -36.1954   25.0821 H   0  0  0  0  0  0
  -20.9985  -28.3177   24.1429 H   0  0  0  0  0  0
  -20.5587  -26.2254   23.3591 H   0  0  0  0  0  0
  -21.6610  -26.7359   22.1245 H   0  0  0  0  0  0
  -19.6867  -25.6291   21.1207 H   0  0  0  0  0  0
  -19.6664  -27.3211   20.6756 H   0  0  0  0  0  0
  -17.4176  -26.6702   21.4029 H   0  0  0  0  0  0
  -18.0298  -26.0054   22.9019 H   0  0  0  0  0  0
  -19.7950  -30.7271   24.2235 H   0  0  0  0  0  0
  -17.5026  -31.6238   24.5195 H   0  0  0  0  0  0
  -15.5359  -30.2989   23.7619 H   0  0  0  0  0  0
  -15.8683  -28.0841   22.6983 H   0  0  0  0  0  0
  -24.5929  -30.7047   25.7900 H   0  0  0  0  0  0
  -24.8940  -32.2897   26.4964 H   0  0  0  0  0  0
  -25.8131  -30.8945   27.0288 H   0  0  0  0  0  0
  -26.2794  -29.6870   24.1117 H   0  0  0  0  0  0
  -27.4011  -29.7246   25.4519 H   0  0  0  0  0  0
  -27.8650  -30.4383   23.9249 H   0  0  0  0  0  0
  -27.2659  -33.3637   26.2084 H   0  0  0  0  0  0
  -28.3858  -32.6872   25.0346 H   0  0  0  0  0  0
  -28.0701  -31.8464   26.5436 H   0  0  0  0  0  0
  -28.2586  -38.0090   24.7496 H   0  0  0  0  0  0
  -28.1050  -36.2611   24.6305 H   0  0  0  0  0  0
  -27.2293  -37.1455   25.8875 H   0  0  0  0  0  0
  -20.9242  -29.8835   21.7058 H   0  0  0  0  0  0
  -26.0150  -38.2869   24.1442 H   0  0  0  0  0  0
  -33.1006  -20.7509   20.2349 H   0  0  0  0  0  0
  -32.8671  -23.0642   17.4192 H   0  0  0  0  0  0
  -32.9833  -21.3346   17.0395 H   0  0  0  0  0  0
  -33.9112  -22.0226   18.3643 H   0  0  0  0  0  0
  -32.5426  -21.3558   23.0536 H   0  0  0  0  0  0
  -33.3779  -19.9755   22.3259 H   0  0  0  0  0  0
  -32.5309  -19.7878   23.8520 H   0  0  0  0  0  0
  -31.2841  -17.1049   19.1511 H   0  0  0  0  0  0
  -29.8589  -18.0721   18.8060 H   0  0  0  0  0  0
  -29.8810  -16.3712   18.3800 H   0  0  0  0  0  0
  -29.2529  -22.1594   16.8037 H   0  0  0  0  0  0
  -30.7711  -22.9654   16.5874 H   0  0  0  0  0  0
  -31.8087  -18.1474   21.0588 H   0  0  0  0  0  0
  -31.4811  -17.8384   22.7332 H   0  0  0  0  0  0
  -29.0979  -18.7100   21.1707 H   0  0  0  0  0  0
  -29.1961  -17.5941   22.4769 H   0  0  0  0  0  0
  -28.0624  -24.2972   19.2627 H   0  0  0  0  0  0
  -29.7691  -24.5215   19.6109 H   0  0  0  0  0  0
  -29.7700  -26.7089   18.4641 H   0  0  0  0  0  0
  -28.1216  -26.4921   17.9560 H   0  0  0  0  0  0
  -30.3784  -20.1812   22.8032 H   0  0  0  0  0  0
  -28.5080  -16.6826   20.3139 H   0  0  0  0  0  0
  -29.0906  -15.0188   21.5655 H   0  0  0  0  0  0
  -30.2459  -24.3794   17.7685 H   0  0  0  0  0  0
  -28.7238  -23.3901   18.0076 H   0  0  0  0  0  0
  1 25  1  0  0  0
  1 30  2  0  0  0
  1 87  1  0  0  0
  2  3  1  0  0  0
  2 25  1  0  0  0
  2 89  1  0  0  0
  2 90  1  0  0  0
  3  4  1  0  0  0
  3 91  1  0  0  0
  3 92  1  0  0  0
  4  5  1  0  0  0
  4 93  1  0  0  0
  4 94  1  0  0  0
  5  6  1  0  0  0
  5 26  1  0  0  0
  5 95  1  0  0  0
  6 25  1  0  0  0
  6 96  1  0  0  0
  6 97  1  0  0  0
  7  8  2  0  0  0
  7 26  1  0  0  0
  7 29  1  0  0  0
  8  9  1  0  0  0
  8 22  1  0  0  0
  9 10  1  0  0  0
  9 27  2  0  0  0
 10 11  2  0  0  0
 10 15  1  0  0  0
 11 12  1  0  0  0
 11 98  1  0  0  0
 12 13  2  0  0  0
 12 99  1  0  0  0
 13 14  1  0  0  0
 13 31  1  0  0  0
 14 15  2  0  0  0
 14100  1  0  0  0
 15101  1  0  0  0
 16 17  2  0  0  0
 16 21  1  0  0  0
 16 31  1  0  0  0
 17 18  1  0  0  0
 17102  1  0  0  0
 18 19  2  0  0  0
 18103  1  0  0  0
 19 20  1  0  0  0
 19 24  1  0  0  0
 20 21  2  0  0  0
 20104  1  0  0  0
 21 23  1  0  0  0
 22 28  1  0  0  0
 22 32  2  0  0  0
 26 27  1  0  0  0
 28105  1  0  0  0
 28106  1  0  0  0
 29107  1  0  0  0
 29108  1  0  0  0
 33 34  1  0  0  0
 33 66  1  0  0  0
 33 70  2  0  0  0
 34 36  1  0  0  0
 34 59  1  0  0  0
 34109  1  0  0  0
 35 44  2  0  0  0
 35 45  1  0  0  0
 35 68  1  0  0  0
 36 56  1  0  0  0
 36110  1  0  0  0
 37 39  1  0  0  0
 37 47  1  0  0  0
 37 66  1  0  0  0
 37111  1  0  0  0
 38 43  2  0  0  0
 38 46  1  0  0  0
 38 47  1  0  0  0
 39 64  1  0  0  0
 39 67  2  0  0  0
 40 52  1  0  0  0
 40 53  2  0  0  0
 40 58  1  0  0  0
 41112  1  0  0  0
 41113  1  0  0  0
 41114  1  0  0  0
 41 48  1  0  0  0
 42 43  1  0  0  0
 42 66  1  0  0  0
 42115  1  0  0  0
 42116  1  0  0  0
 43 44  1  0  0  0
 44117  1  0  0  0
 45 46  2  0  0  0
 45118  1  0  0  0
 46119  1  0  0  0
 47120  1  0  0  0
 47121  1  0  0  0
 48 56  1  0  0  0
 48 65  1  0  0  0
 48122  1  0  0  0
 49 50  1  0  0  0
 49 53  1  0  0  0
 49 64  1  0  0  0
 49123  1  0  0  0
 50 51  1  0  0  0
 50124  1  0  0  0
 50125  1  0  0  0
 51 52  1  0  0  0
 51126  1  0  0  0
 51127  1  0  0  0
 52128  1  0  0  0
 52129  1  0  0  0
 53 54  1  0  0  0
 54 55  2  0  0  0
 54130  1  0  0  0
 55 57  1  0  0  0
 55131  1  0  0  0
 56 69  2  0  0  0
 57 58  2  0  0  0
 57132  1  0  0  0
 58133  1  0  0  0
 59 60  1  0  0  0
 59 61  1  0  0  0
 59 62  1  0  0  0
 60134  1  0  0  0
 60135  1  0  0  0
 60136  1  0  0  0
 61137  1  0  0  0
 61138  1  0  0  0
 61139  1  0  0  0
 62140  1  0  0  0
 62141  1  0  0  0
 62142  1  0  0  0
 63 65  1  0  0  0
 63143  1  0  0  0
 63144  1  0  0  0
 63145  1  0  0  0
 64146  1  0  0  0
 65147  1  0  0  0
 68 82  1  0  0  0
 71 72  2  0  0  0
 71 73  1  0  0  0
 71148  1  0  0  0
 72 74  1  0  0  0
 72 75  1  0  0  0
 73 83  1  0  0  0
 73 85  2  0  0  0
 74 78  1  0  0  0
 74 86  2  0  0  0
 75149  1  0  0  0
 75150  1  0  0  0
 75151  1  0  0  0
 76152  1  0  0  0
 76153  1  0  0  0
 76154  1  0  0  0
 76 83  1  0  0  0
 77155  1  0  0  0
 77156  1  0  0  0
 77157  1  0  0  0
 77 84  1  0  0  0
 78 88  1  0  0  0
 78158  1  0  0  0
 78159  1  0  0  0
 79 80  1  0  0  0
 79 83  1  0  0  0
 79160  1  0  0  0
 79161  1  0  0  0
 80 84  1  0  0  0
 80162  1  0  0  0
 80163  1  0  0  0
 81 82  1  0  0  0
 81 88  1  0  0  0
 81164  1  0  0  0
 81165  1  0  0  0
 82166  1  0  0  0
 82167  1  0  0  0
 83168  1  0  0  0
 84 87  1  0  0  0
 84169  1  0  0  0
 85 86  1  0  0  0
 87170  1  0  0  0
 88171  1  0  0  0
 88172  1  0  0  0
M  CHG  1  88   1
M  ISO  4   1 100  68 101  82 101  87 100
M  END
> <chiral flag>
0

> <version>
0

> <s_m_source_file>
/data/baiqing/PycharmProjects/Reinvent-master-3.2/result/LINK_invent/BTK/process_docking_weight1_custom_sum_contain_oxygen_bond_distance_aromatic_linkinvent_7_9_3/rearranged_h_0046.sdf

> <i_m_source_file_index>
18

> <r_mmod_Potential_Energy-OPLS-2005>
14.8034009933472

> <r_mmod_Stretch_Energy-OPLS-2005>
36.5748329162598

> <r_mmod_Bend_Energy-OPLS-2005>
320.119873046875

> <r_mmod_Torsional_Energy-OPLS-2005>
247.344711303711

> <r_mmod_Improper_Torsional_Energy-OPLS-2005>
7.43562650680542

> <r_mmod_Van_der_Waal_Energy-OPLS-2005>
157.260223388672

> <r_mmod_Electrostatic_Energy-OPLS-2005>
-303.602752685547

> <r_mmod_Solvation_Energy-OPLS-2005>
-460.464202880859

> <b_mmod_Minimization_Converged-OPLS-2005>
0

> <r_mmod_RMS_Derivative-OPLS-2005>
3.12296509742737

$$$$
18
                    3D
 Structure written by MMmdl.
159167  0  0  1  0            999 V2000
  -30.6923  -14.6052   20.3927 C   0  0  0  0  0  0
  -30.4186  -12.3329   19.4455 C   0  0  0  0  0  0
  -29.5082  -12.5070   18.2161 C   0  0  0  0  0  0
  -28.0197  -12.3642   18.5964 C   0  0  0  0  0  0
  -27.6393  -13.2143   19.8385 C   0  0  2  0  0  0
  -28.6945  -13.1182   20.9594 C   0  0  0  0  0  0
  -25.2519  -13.8160   20.5715 C   0  0  0  0  0  0
  -24.1772  -13.0395   20.9205 C   0  0  0  0  0  0
  -24.6356  -11.6877   20.8710 C   0  0  0  0  0  0
  -23.9040  -10.4256   21.0388 C   0  0  0  0  0  0
  -24.3582   -9.4200   21.9197 C   0  0  0  0  0  0
  -23.6252   -8.2241   22.0764 C   0  0  0  0  0  0
  -22.4265   -8.0266   21.3525 C   0  0  0  0  0  0
  -21.9863   -9.0245   20.4657 C   0  0  0  0  0  0
  -22.7192  -10.2124   20.3064 C   0  0  0  0  0  0
  -21.6853   -6.0742   22.5301 C   0  0  0  0  0  0
  -21.4004   -6.5645   23.8235 C   0  0  0  0  0  0
  -21.3660   -5.6800   24.9193 C   0  0  0  0  0  0
  -21.6043   -4.3064   24.7240 C   0  0  0  0  0  0
  -21.8816   -3.8154   23.4361 C   0  0  0  0  0  0
  -21.9179   -4.6966   22.3417 C   0  0  0  0  0  0
  -22.7824  -13.5204   21.1878 C   0  0  0  0  0  0
  -22.1661   -4.2153   21.0996 F   0  0  0  0  0  0
  -21.5616   -3.4545   25.7751 F   0  0  0  0  0  0
  -30.0229  -13.4040   20.3863 N   0  0  0  0  0  0
  -26.2931  -12.9311   20.3256 N   0  0  0  0  0  0
  -25.9272  -11.6470   20.5652 N   0  0  0  0  0  0
  -22.0417  -12.8218   22.0437 N   0  0  0  0  0  0
  -25.4153  -15.1872   20.4227 N   0  0  0  0  0  0
  -31.9082  -14.6325   20.1877 O   0  0  0  0  0  0
  -21.6627   -6.8871   21.4257 O   0  0  0  0  0  0
  -22.3488  -14.5487   20.6712 O   0  0  0  0  0  0
  -24.6273  -31.8588   23.1979 C   0  0  0  0  0  0
  -25.9150  -32.4766   23.8296 C   0  0  1  0  0  0
  -27.2439  -27.3364   20.1205 C   0  0  0  0  0  0
  -25.5948  -33.8576   24.2226 N   0  0  0  0  0  0
  -23.4216  -30.4793   21.5362 C   0  0  2  0  0  0
  -24.8733  -28.9308   20.1083 C   0  0  0  0  0  0
  -22.7471  -29.4685   22.4904 C   0  0  0  0  0  0
  -18.0316  -28.1431   22.8439 C   0  0  0  0  0  0
  -24.1500  -36.7297   23.2634 C   0  0  0  0  0  0
  -25.9579  -30.7956   21.3620 C   0  0  0  0  0  0
  -26.0355  -29.4179   20.7188 C   0  0  0  0  0  0
  -27.2175  -28.6266   20.7235 C   0  0  0  0  0  0
  -26.0539  -26.8801   19.5073 C   0  0  0  0  0  0
  -24.8841  -27.6676   19.4922 C   0  0  0  0  0  0
  -23.6336  -29.8018   20.1539 C   0  0  0  0  0  0
  -25.4117  -36.3071   24.0304 C   0  0  1  0  0  0
  -20.5913  -28.3764   23.1272 C   0  0  2  0  0  0
  -20.6863  -26.9491   22.5397 C   0  0  0  0  0  0
  -19.5822  -26.6417   21.5229 C   0  0  0  0  0  0
  -18.2000  -26.7957   22.1636 C   0  0  0  0  0  0
  -19.1554  -28.8895   23.2874 C   0  0  0  0  0  0
  -18.9466  -30.1499   23.8881 C   0  0  0  0  0  0
  -17.6453  -30.6615   24.0566 C   0  0  0  0  0  0
  -25.9053  -34.9440   23.5068 C   0  0  0  0  0  0
  -16.5365  -29.9107   23.6299 C   0  0  0  0  0  0
  -16.7312  -28.6525   23.0310 C   0  0  0  0  0  0
  -26.4520  -31.6567   25.0667 C   0  0  0  0  0  0
  -25.3714  -31.3736   26.1356 C   0  0  0  0  0  0
  -27.0351  -30.2975   24.6117 C   0  0  0  0  0  0
  -27.6073  -32.4280   25.7486 C   0  0  0  0  0  0
  -27.5577  -37.1812   24.8461 C   0  0  0  0  0  0
  -21.4167  -29.3146   22.3658 N   0  0  0  0  0  0
  -26.4297  -37.3748   23.9399 N   0  0  0  0  0  0
  -24.6889  -31.0620   22.0909 N   0  0  0  0  0  0
  -23.4192  -28.8223   23.2991 O   0  0  0  0  0  0
  -28.3884  -26.5407   20.2125 O   0  0  0  0  0  0
  -26.5623  -34.8943   22.4633 O   0  0  0  0  0  0
  -23.5439  -32.1417   23.7268 O   0  0  0  0  0  0
  -29.6467  -21.6309   19.3798 C   0  0  0  0  0  0
  -28.5387  -23.5166   21.1282 C   0  0  0  0  0  0
  -29.4647  -22.9842   18.9737 C   0  0  0  0  0  0
  -28.7703  -22.1663   21.5528 C   0  0  0  0  0  0
  -29.3137  -21.1746   20.6763 C   0  0  0  0  0  0
  -28.8866  -23.9685   19.8297 C   0  0  0  0  0  0
  -29.9118  -15.8713   20.2459 C   0  0  0  0  0  0
  -30.3625  -17.1452   20.5217 C   0  0  0  0  0  0
  -29.9215  -23.3611   17.5731 C   0  0  0  0  0  0
  -28.3887  -21.7947   22.9750 C   0  0  0  0  0  0
  -29.5426  -19.6815   21.1381 C   0  0  0  0  0  0
  -28.6432  -25.4313   19.2951 C   0  0  0  0  0  0
  -29.7380  -18.5218   20.0766 C   0  0  0  0  0  0
  -31.5099  -17.3881   21.1837 O   0  0  0  0  0  0
  -31.4645  -12.3910   19.1348 H   0  0  0  0  0  0
  -30.3094  -11.3372   19.8877 H   0  0  0  0  0  0
  -29.7773  -11.8073   17.4289 H   0  0  0  0  0  0
  -29.6809  -13.5024   17.8033 H   0  0  0  0  0  0
  -27.8012  -11.3109   18.7676 H   0  0  0  0  0  0
  -27.4007  -12.6564   17.7468 H   0  0  0  0  0  0
  -27.6202  -14.2363   19.4815 H   0  0  0  0  0  0
  -28.6761  -12.1168   21.3923 H   0  0  0  0  0  0
  -28.4634  -13.8034   21.7755 H   0  0  0  0  0  0
  -25.2717   -9.5718   22.4756 H   0  0  0  0  0  0
  -23.9993   -7.4643   22.7466 H   0  0  0  0  0  0
  -21.0798   -8.8724   19.8963 H   0  0  0  0  0  0
  -22.3611  -10.9643   19.6162 H   0  0  0  0  0  0
  -21.2015   -7.6156   23.9735 H   0  0  0  0  0  0
  -21.1477   -6.0535   25.9093 H   0  0  0  0  0  0
  -22.0586   -2.7612   23.2867 H   0  0  0  0  0  0
  -22.3963  -11.9866   22.4847 H   0  0  0  0  0  0
  -21.1045  -13.1279   22.2659 H   0  0  0  0  0  0
  -24.6504  -15.8391   20.5618 H   0  0  0  0  0  0
  -26.2756  -15.6346   20.1313 H   0  0  0  0  0  0
  -26.7250  -32.5462   23.1078 H   0  0  0  0  0  0
  -25.0113  -33.9693   25.0382 H   0  0  0  0  0  0
  -22.7245  -31.3031   21.3822 H   0  0  0  0  0  0
  -23.3745  -35.9649   23.3282 H   0  0  0  0  0  0
  -24.3594  -36.8940   22.2059 H   0  0  0  0  0  0
  -23.7292  -37.6510   23.6662 H   0  0  0  0  0  0
  -26.0725  -31.5432   20.5756 H   0  0  0  0  0  0
  -26.8479  -30.8586   21.9748 H   0  0  0  0  0  0
  -28.1060  -28.9947   21.2197 H   0  0  0  0  0  0
  -25.9921  -25.8963   19.0709 H   0  0  0  0  0  0
  -23.9950  -27.2775   19.0205 H   0  0  0  0  0  0
  -23.7396  -30.5649   19.3818 H   0  0  0  0  0  0
  -22.7589  -29.2119   19.8697 H   0  0  0  0  0  0
  -25.1309  -36.1900   25.0787 H   0  0  0  0  0  0
  -20.9990  -28.3397   24.1407 H   0  0  0  0  0  0
  -20.5837  -26.2375   23.3617 H   0  0  0  0  0  0
  -21.6736  -26.7552   22.1163 H   0  0  0  0  0  0
  -19.7035  -25.6345   21.1275 H   0  0  0  0  0  0
  -19.6765  -27.3284   20.6778 H   0  0  0  0  0  0
  -17.4290  -26.6660   21.4022 H   0  0  0  0  0  0
  -18.0394  -26.0149   22.9112 H   0  0  0  0  0  0
  -19.7937  -30.7320   24.2263 H   0  0  0  0  0  0
  -17.4987  -31.6302   24.5159 H   0  0  0  0  0  0
  -15.5365  -30.3009   23.7564 H   0  0  0  0  0  0
  -15.8734  -28.0846   22.7038 H   0  0  0  0  0  0
  -24.5958  -30.7003   25.7701 H   0  0  0  0  0  0
  -24.8812  -32.2901   26.4632 H   0  0  0  0  0  0
  -25.7995  -30.9058   27.0219 H   0  0  0  0  0  0
  -26.2921  -29.6742   24.1127 H   0  0  0  0  0  0
  -27.4048  -29.7221   25.4621 H   0  0  0  0  0  0
  -27.8781  -30.4267   23.9321 H   0  0  0  0  0  0
  -27.2699  -33.3615   26.1991 H   0  0  0  0  0  0
  -28.3948  -32.6760   25.0361 H   0  0  0  0  0  0
  -28.0637  -31.8420   26.5472 H   0  0  0  0  0  0
  -28.2580  -38.0123   24.7481 H   0  0  0  0  0  0
  -28.1085  -36.2648   24.6290 H   0  0  0  0  0  0
  -27.2287  -37.1456   25.8862 H   0  0  0  0  0  0
  -20.9361  -29.8862   21.6843 H   0  0  0  0  0  0
  -26.0170  -38.2827   24.1353 H   0  0  0  0  0  0
  -30.0613  -20.9365   18.6653 H   0  0  0  0  0  0
  -28.1084  -24.2331   21.8183 H   0  0  0  0  0  0
  -28.9539  -15.7773   19.7696 H   0  0  0  0  0  0
  -30.2173  -22.4834   16.9970 H   0  0  0  0  0  0
  -30.7894  -24.0187   17.6304 H   0  0  0  0  0  0
  -29.1365  -23.8773   17.0186 H   0  0  0  0  0  0
  -27.4840  -21.1874   22.9678 H   0  0  0  0  0  0
  -28.1915  -22.6747   23.5895 H   0  0  0  0  0  0
  -29.1851  -21.2227   23.4499 H   0  0  0  0  0  0
  -28.6711  -19.3748   21.7117 H   0  0  0  0  0  0
  -30.3622  -19.6884   21.8619 H   0  0  0  0  0  0
  -27.9239  -25.3880   18.4809 H   0  0  0  0  0  0
  -29.5733  -25.7295   18.8051 H   0  0  0  0  0  0
  -30.4252  -18.8801   19.3075 H   0  0  0  0  0  0
  -28.7893  -18.3433   19.5699 H   0  0  0  0  0  0
  -31.7271  -18.3099   21.1036 H   0  0  0  0  0  0
  1 25  1  0  0  0
  1 30  2  0  0  0
  1 77  1  0  0  0
  2  3  1  0  0  0
  2 25  1  0  0  0
  2 85  1  0  0  0
  2 86  1  0  0  0
  3  4  1  0  0  0
  3 87  1  0  0  0
  3 88  1  0  0  0
  4  5  1  0  0  0
  4 89  1  0  0  0
  4 90  1  0  0  0
  5  6  1  0  0  0
  5 26  1  0  0  0
  5 91  1  0  0  0
  6 25  1  0  0  0
  6 92  1  0  0  0
  6 93  1  0  0  0
  7  8  2  0  0  0
  7 26  1  0  0  0
  7 29  1  0  0  0
  8  9  1  0  0  0
  8 22  1  0  0  0
  9 10  1  0  0  0
  9 27  2  0  0  0
 10 11  2  0  0  0
 10 15  1  0  0  0
 11 12  1  0  0  0
 11 94  1  0  0  0
 12 13  2  0  0  0
 12 95  1  0  0  0
 13 14  1  0  0  0
 13 31  1  0  0  0
 14 15  2  0  0  0
 14 96  1  0  0  0
 15 97  1  0  0  0
 16 17  2  0  0  0
 16 21  1  0  0  0
 16 31  1  0  0  0
 17 18  1  0  0  0
 17 98  1  0  0  0
 18 19  2  0  0  0
 18 99  1  0  0  0
 19 20  1  0  0  0
 19 24  1  0  0  0
 20 21  2  0  0  0
 20100  1  0  0  0
 21 23  1  0  0  0
 22 28  1  0  0  0
 22 32  2  0  0  0
 26 27  1  0  0  0
 28101  1  0  0  0
 28102  1  0  0  0
 29103  1  0  0  0
 29104  1  0  0  0
 33 34  1  0  0  0
 33 66  1  0  0  0
 33 70  2  0  0  0
 34 36  1  0  0  0
 34 59  1  0  0  0
 34105  1  0  0  0
 35 44  2  0  0  0
 35 45  1  0  0  0
 35 68  1  0  0  0
 36 56  1  0  0  0
 36106  1  0  0  0
 37 39  1  0  0  0
 37 47  1  0  0  0
 37 66  1  0  0  0
 37107  1  0  0  0
 38 43  2  0  0  0
 38 46  1  0  0  0
 38 47  1  0  0  0
 39 64  1  0  0  0
 39 67  2  0  0  0
 40 52  1  0  0  0
 40 53  2  0  0  0
 40 58  1  0  0  0
 41108  1  0  0  0
 41109  1  0  0  0
 41110  1  0  0  0
 41 48  1  0  0  0
 42 43  1  0  0  0
 42 66  1  0  0  0
 42111  1  0  0  0
 42112  1  0  0  0
 43 44  1  0  0  0
 44113  1  0  0  0
 45 46  2  0  0  0
 45114  1  0  0  0
 46115  1  0  0  0
 47116  1  0  0  0
 47117  1  0  0  0
 48 56  1  0  0  0
 48 65  1  0  0  0
 48118  1  0  0  0
 49 50  1  0  0  0
 49 53  1  0  0  0
 49 64  1  0  0  0
 49119  1  0  0  0
 50 51  1  0  0  0
 50120  1  0  0  0
 50121  1  0  0  0
 51 52  1  0  0  0
 51122  1  0  0  0
 51123  1  0  0  0
 52124  1  0  0  0
 52125  1  0  0  0
 53 54  1  0  0  0
 54 55  2  0  0  0
 54126  1  0  0  0
 55 57  1  0  0  0
 55127  1  0  0  0
 56 69  2  0  0  0
 57 58  2  0  0  0
 57128  1  0  0  0
 58129  1  0  0  0
 59 60  1  0  0  0
 59 61  1  0  0  0
 59 62  1  0  0  0
 60130  1  0  0  0
 60131  1  0  0  0
 60132  1  0  0  0
 61133  1  0  0  0
 61134  1  0  0  0
 61135  1  0  0  0
 62136  1  0  0  0
 62137  1  0  0  0
 62138  1  0  0  0
 63 65  1  0  0  0
 63139  1  0  0  0
 63140  1  0  0  0
 63141  1  0  0  0
 64142  1  0  0  0
 65143  1  0  0  0
 68 82  1  0  0  0
 71 73  2  0  0  0
 71 75  1  0  0  0
 71144  1  0  0  0
 72 74  1  0  0  0
 72 76  2  0  0  0
 72145  1  0  0  0
 73 76  1  0  0  0
 73 79  1  0  0  0
 74 75  2  0  0  0
 74 80  1  0  0  0
 75 81  1  0  0  0
 76 82  1  0  0  0
 77 78  2  0  0  0
 77146  1  0  0  0
 78 83  1  0  0  0
 78 84  1  0  0  0
 79147  1  0  0  0
 79148  1  0  0  0
 79149  1  0  0  0
 80150  1  0  0  0
 80151  1  0  0  0
 80152  1  0  0  0
 81 83  1  0  0  0
 81153  1  0  0  0
 81154  1  0  0  0
 82155  1  0  0  0
 82156  1  0  0  0
 83157  1  0  0  0
 83158  1  0  0  0
 84159  1  0  0  0
M  ISO  4   1 100  68 101  77 100  82 101
M  END
> <chiral flag>
0

> <version>
0

> <s_m_source_file>
/data/baiqing/PycharmProjects/Reinvent-master-3.2/result/LINK_invent/BTK/process_docking_weight1_custom_sum_contain_oxygen_bond_distance_aromatic_linkinvent_7_9_3/rearranged_h_0046.sdf

> <i_m_source_file_index>
19

> <r_mmod_Potential_Energy-OPLS-2005>
165.020965576172

> <r_mmod_Stretch_Energy-OPLS-2005>
78.081169128418

> <r_mmod_Bend_Energy-OPLS-2005>
153.573684692383

> <r_mmod_Torsional_Energy-OPLS-2005>
210.513824462891

> <r_mmod_Improper_Torsional_Energy-OPLS-2005>
12.5048789978027

> <r_mmod_Van_der_Waal_Energy-OPLS-2005>
149.150726318359

> <r_mmod_Electrostatic_Energy-OPLS-2005>
-283.957397460938

> <r_mmod_Solvation_Energy-OPLS-2005>
-203.607772827148

> <b_mmod_Minimization_Converged-OPLS-2005>
0

> <r_mmod_RMS_Derivative-OPLS-2005>
10.6739873886108

$$$$
19
                    3D
 Structure written by MMmdl.
163171  0  0  1  0            999 V2000
  -30.6800  -14.4169   20.6268 C   0  0  0  0  0  0
  -30.4395  -12.2924   19.3856 C   0  0  0  0  0  0
  -29.4958  -12.5140   18.1846 C   0  0  0  0  0  0
  -28.0148  -12.3666   18.5978 C   0  0  0  0  0  0
  -27.6685  -13.1866   19.8699 C   0  0  2  0  0  0
  -28.7070  -12.8971   20.9748 C   0  0  0  0  0  0
  -25.2665  -13.8101   20.5638 C   0  0  0  0  0  0
  -24.1909  -13.0402   20.9126 C   0  0  0  0  0  0
  -24.6407  -11.6855   20.8684 C   0  0  0  0  0  0
  -23.9065  -10.4258   21.0371 C   0  0  0  0  0  0
  -24.3620   -9.4185   21.9169 C   0  0  0  0  0  0
  -23.6295   -8.2227   22.0761 C   0  0  0  0  0  0
  -22.4283   -8.0261   21.3538 C   0  0  0  0  0  0
  -21.9909   -9.0236   20.4652 C   0  0  0  0  0  0
  -22.7236  -10.2104   20.3038 C   0  0  0  0  0  0
  -21.6856   -6.0743   22.5294 C   0  0  0  0  0  0
  -21.4000   -6.5642   23.8222 C   0  0  0  0  0  0
  -21.3656   -5.6793   24.9168 C   0  0  0  0  0  0
  -21.6033   -4.3059   24.7212 C   0  0  0  0  0  0
  -21.8840   -3.8158   23.4335 C   0  0  0  0  0  0
  -21.9187   -4.6971   22.3391 C   0  0  0  0  0  0
  -22.7930  -13.5222   21.1811 C   0  0  0  0  0  0
  -22.1676   -4.2157   21.0973 F   0  0  0  0  0  0
  -21.5613   -3.4542   25.7723 F   0  0  0  0  0  0
  -30.0435  -13.2318   20.4418 N   0  0  0  0  0  0
  -26.3069  -12.9238   20.3306 N   0  0  0  0  0  0
  -25.9311  -11.6400   20.5700 N   0  0  0  0  0  0
  -22.0555  -12.8223   22.0360 N   0  0  0  0  0  0
  -25.4356  -15.1841   20.4123 N   0  0  0  0  0  0
  -31.7695  -14.7070   20.1189 O   0  0  0  0  0  0
  -21.6634   -6.8879   21.4252 O   0  0  0  0  0  0
  -22.3594  -14.5516   20.6636 O   0  0  0  0  0  0
  -24.6143  -31.8702   23.2108 C   0  0  0  0  0  0
  -25.9045  -32.4812   23.8421 C   0  0  1  0  0  0
  -27.2422  -27.4747   20.0792 C   0  0  0  0  0  0
  -25.5918  -33.8623   24.2358 N   0  0  0  0  0  0
  -23.3975  -30.4939   21.5542 C   0  0  2  0  0  0
  -24.8427  -28.9520   20.1242 C   0  0  0  0  0  0
  -22.7335  -29.4751   22.5036 C   0  0  0  0  0  0
  -18.0322  -28.1375   22.8294 C   0  0  0  0  0  0
  -24.1492  -36.7327   23.2618 C   0  0  0  0  0  0
  -25.9212  -30.8446   21.3570 C   0  0  0  0  0  0
  -26.0027  -29.4822   20.7028 C   0  0  0  0  0  0
  -27.2115  -28.7569   20.6613 C   0  0  0  0  0  0
  -26.0686  -26.9371   19.5085 C   0  0  0  0  0  0
  -24.8680  -27.6803   19.5217 C   0  0  0  0  0  0
  -23.6035  -29.8137   20.1749 C   0  0  0  0  0  0
  -25.4102  -36.3087   24.0327 C   0  0  1  0  0  0
  -20.5852  -28.3708   23.1357 C   0  0  2  0  0  0
  -20.6804  -26.9423   22.5593 C   0  0  0  0  0  0
  -19.5965  -26.6522   21.5134 C   0  0  0  0  0  0
  -18.2027  -26.7970   22.1336 C   0  0  0  0  0  0
  -19.1495  -28.8847   23.2871 C   0  0  0  0  0  0
  -18.9320  -30.1420   23.8966 C   0  0  0  0  0  0
  -17.6245  -30.6409   24.0672 C   0  0  0  0  0  0
  -25.9023  -34.9448   23.5136 C   0  0  0  0  0  0
  -16.5221  -29.8933   23.6156 C   0  0  0  0  0  0
  -16.7291  -28.6490   22.9921 C   0  0  0  0  0  0
  -26.4480  -31.6576   25.0745 C   0  0  0  0  0  0
  -25.3797  -31.3701   26.1550 C   0  0  0  0  0  0
  -27.0306  -30.3017   24.6079 C   0  0  0  0  0  0
  -27.6025  -32.4341   25.7527 C   0  0  0  0  0  0
  -27.5584  -37.1814   24.8462 C   0  0  0  0  0  0
  -21.4097  -29.3019   22.3691 N   0  0  0  0  0  0
  -26.4294  -37.3753   23.9405 N   0  0  0  0  0  0
  -24.6630  -31.0824   22.0998 N   0  0  0  0  0  0
  -23.4094  -28.8417   23.3193 O   0  0  0  0  0  0
  -28.4201  -26.7732   20.0402 O   0  0  0  0  0  0
  -26.5527  -34.8907   22.4659 O   0  0  0  0  0  0
  -23.5355  -32.1450   23.7538 O   0  0  0  0  0  0
  -28.1401  -20.6995   22.3162 C   0  0  0  0  0  0
  -27.6927  -19.5717   22.9611 C   0  0  0  0  0  0
  -26.1971  -21.2098   23.2678 C   0  0  0  0  0  0
  -24.9962  -21.9459   23.7699 C   0  0  0  0  0  0
  -28.3140  -18.2175   23.2096 C   0  0  0  0  0  0
  -28.8282  -17.4571   21.9371 C   0  0  0  0  0  0
  -27.3309  -23.3996   20.6801 C   0  0  0  0  0  0
  -28.4750  -24.3255   20.2369 C   0  0  0  0  0  0
  -27.3681  -23.1131   22.1939 C   0  0  0  0  0  0
  -30.1803  -16.7061   21.6436 C   0  0  0  0  0  0
  -28.5064  -25.6890   20.9590 C   0  0  0  0  0  0
  -27.2243  -21.6959   22.5520 N   0  0  0  0  0  0
  -26.4830  -19.9244   23.5063 N   0  3  0  0  0  0
  -29.9523  -15.2864   21.3410 N   0  0  0  0  0  0
  -30.3596  -11.2659   19.7470 H   0  0  0  0  0  0
  -31.4831  -12.4191   19.0875 H   0  0  0  0  0  0
  -29.7328  -11.8118   17.3865 H   0  0  0  0  0  0
  -29.6636  -13.5100   17.7710 H   0  0  0  0  0  0
  -27.8248  -11.3070   18.7769 H   0  0  0  0  0  0
  -27.3642  -12.6555   17.7719 H   0  0  0  0  0  0
  -27.7330  -14.2411   19.5988 H   0  0  0  0  0  0
  -28.6870  -11.8357   21.2290 H   0  0  0  0  0  0
  -28.4584  -13.4045   21.9082 H   0  0  0  0  0  0
  -25.2756   -9.5664   22.4730 H   0  0  0  0  0  0
  -23.9997   -7.4628   22.7480 H   0  0  0  0  0  0
  -21.0833   -8.8737   19.8980 H   0  0  0  0  0  0
  -22.3686  -10.9622   19.6140 H   0  0  0  0  0  0
  -21.2008   -7.6147   23.9720 H   0  0  0  0  0  0
  -21.1456   -6.0516   25.9072 H   0  0  0  0  0  0
  -22.0622   -2.7617   23.2827 H   0  0  0  0  0  0
  -22.4172  -11.9873   22.4752 H   0  0  0  0  0  0
  -21.1166  -13.1234   22.2502 H   0  0  0  0  0  0
  -24.6635  -15.8312   20.5229 H   0  0  0  0  0  0
  -26.2837  -15.6315   20.0897 H   0  0  0  0  0  0
  -26.7118  -32.5522   23.1200 H   0  0  0  0  0  0
  -25.0177  -33.9804   25.0583 H   0  0  0  0  0  0
  -22.6916  -31.3154   21.4137 H   0  0  0  0  0  0
  -23.3726  -35.9693   23.3284 H   0  0  0  0  0  0
  -24.3576  -36.8921   22.2021 H   0  0  0  0  0  0
  -23.7283  -37.6559   23.6643 H   0  0  0  0  0  0
  -26.0237  -31.6122   20.5880 H   0  0  0  0  0  0
  -26.8085  -30.8955   21.9768 H   0  0  0  0  0  0
  -28.1197  -29.1812   21.0633 H   0  0  0  0  0  0
  -26.0878  -25.9610   19.0430 H   0  0  0  0  0  0
  -23.9728  -27.2708   19.0732 H   0  0  0  0  0  0
  -23.6990  -30.5799   19.4044 H   0  0  0  0  0  0
  -22.7317  -29.2217   19.8913 H   0  0  0  0  0  0
  -25.1264  -36.1953   25.0816 H   0  0  0  0  0  0
  -20.9939  -28.3426   24.1463 H   0  0  0  0  0  0
  -20.5505  -26.2410   23.3859 H   0  0  0  0  0  0
  -21.6784  -26.7405   22.1661 H   0  0  0  0  0  0
  -19.7245  -25.6537   21.0920 H   0  0  0  0  0  0
  -19.7016  -27.3553   20.6879 H   0  0  0  0  0  0
  -17.4410  -26.6806   21.3587 H   0  0  0  0  0  0
  -18.0323  -25.9981   22.8573 H   0  0  0  0  0  0
  -19.7729  -30.7251   24.2454 H   0  0  0  0  0  0
  -17.4653  -31.5948   24.5554 H   0  0  0  0  0  0
  -15.5145  -30.2701   23.7342 H   0  0  0  0  0  0
  -15.8844  -28.0893   22.6146 H   0  0  0  0  0  0
  -24.5935  -30.7050   25.7965 H   0  0  0  0  0  0
  -24.9076  -32.2893   26.5040 H   0  0  0  0  0  0
  -25.8211  -30.8878   27.0284 H   0  0  0  0  0  0
  -26.2843  -29.6781   24.1144 H   0  0  0  0  0  0
  -27.4097  -29.7211   25.4494 H   0  0  0  0  0  0
  -27.8663  -30.4328   23.9201 H   0  0  0  0  0  0
  -27.2551  -33.3601   26.2147 H   0  0  0  0  0  0
  -28.3822  -32.6973   25.0364 H   0  0  0  0  0  0
  -28.0740  -31.8486   26.5437 H   0  0  0  0  0  0
  -28.2567  -38.0127   24.7470 H   0  0  0  0  0  0
  -28.1112  -36.2652   24.6345 H   0  0  0  0  0  0
  -27.2320  -37.1516   25.8866 H   0  0  0  0  0  0
  -20.9270  -29.8510   21.6720 H   0  0  0  0  0  0
  -26.0184  -38.2829   24.1425 H   0  0  0  0  0  0
  -29.0550  -20.8804   21.7687 H   0  0  0  0  0  0
  -24.3655  -21.2690   24.3485 H   0  0  0  0  0  0
  -24.4402  -22.3454   22.9224 H   0  0  0  0  0  0
  -25.3425  -22.7561   24.4092 H   0  0  0  0  0  0
  -27.5565  -17.6394   23.7531 H   0  0  0  0  0  0
  -29.1292  -18.3608   23.9245 H   0  0  0  0  0  0
  -29.4608  -18.3389   21.8185 H   0  0  0  0  0  0
  -28.7802  -16.6607   22.6795 H   0  0  0  0  0  0
  -27.3846  -22.4756   20.1049 H   0  0  0  0  0  0
  -26.3744  -23.8568   20.4244 H   0  0  0  0  0  0
  -28.3956  -24.4781   19.1603 H   0  0  0  0  0  0
  -29.4198  -23.8026   20.3965 H   0  0  0  0  0  0
  -26.5940  -23.7007   22.6859 H   0  0  0  0  0  0
  -28.3142  -23.4339   22.6314 H   0  0  0  0  0  0
  -30.8753  -16.7800   22.4825 H   0  0  0  0  0  0
  -30.7012  -17.1378   20.7822 H   0  0  0  0  0  0
  -29.4568  -25.7872   21.4862 H   0  0  0  0  0  0
  -27.7382  -25.7589   21.7333 H   0  0  0  0  0  0
  -25.8943  -19.3089   24.0569 H   0  0  0  0  0  0
  -29.0789  -14.9056   21.6715 H   0  0  0  0  0  0
  1 25  1  0  0  0
  1 30  2  0  0  0
  1 84  1  0  0  0
  2  3  1  0  0  0
  2 25  1  0  0  0
  2 85  1  0  0  0
  2 86  1  0  0  0
  3  4  1  0  0  0
  3 87  1  0  0  0
  3 88  1  0  0  0
  4  5  1  0  0  0
  4 89  1  0  0  0
  4 90  1  0  0  0
  5  6  1  0  0  0
  5 26  1  0  0  0
  5 91  1  0  0  0
  6 25  1  0  0  0
  6 92  1  0  0  0
  6 93  1  0  0  0
  7  8  2  0  0  0
  7 26  1  0  0  0
  7 29  1  0  0  0
  8  9  1  0  0  0
  8 22  1  0  0  0
  9 10  1  0  0  0
  9 27  2  0  0  0
 10 11  2  0  0  0
 10 15  1  0  0  0
 11 12  1  0  0  0
 11 94  1  0  0  0
 12 13  2  0  0  0
 12 95  1  0  0  0
 13 14  1  0  0  0
 13 31  1  0  0  0
 14 15  2  0  0  0
 14 96  1  0  0  0
 15 97  1  0  0  0
 16 17  2  0  0  0
 16 21  1  0  0  0
 16 31  1  0  0  0
 17 18  1  0  0  0
 17 98  1  0  0  0
 18 19  2  0  0  0
 18 99  1  0  0  0
 19 20  1  0  0  0
 19 24  1  0  0  0
 20 21  2  0  0  0
 20100  1  0  0  0
 21 23  1  0  0  0
 22 28  1  0  0  0
 22 32  2  0  0  0
 26 27  1  0  0  0
 28101  1  0  0  0
 28102  1  0  0  0
 29103  1  0  0  0
 29104  1  0  0  0
 33 34  1  0  0  0
 33 66  1  0  0  0
 33 70  2  0  0  0
 34 36  1  0  0  0
 34 59  1  0  0  0
 34105  1  0  0  0
 35 44  2  0  0  0
 35 45  1  0  0  0
 35 68  1  0  0  0
 36 56  1  0  0  0
 36106  1  0  0  0
 37 39  1  0  0  0
 37 47  1  0  0  0
 37 66  1  0  0  0
 37107  1  0  0  0
 38 43  2  0  0  0
 38 46  1  0  0  0
 38 47  1  0  0  0
 39 64  1  0  0  0
 39 67  2  0  0  0
 40 52  1  0  0  0
 40 53  2  0  0  0
 40 58  1  0  0  0
 41108  1  0  0  0
 41109  1  0  0  0
 41110  1  0  0  0
 41 48  1  0  0  0
 42 43  1  0  0  0
 42 66  1  0  0  0
 42111  1  0  0  0
 42112  1  0  0  0
 43 44  1  0  0  0
 44113  1  0  0  0
 45 46  2  0  0  0
 45114  1  0  0  0
 46115  1  0  0  0
 47116  1  0  0  0
 47117  1  0  0  0
 48 56  1  0  0  0
 48 65  1  0  0  0
 48118  1  0  0  0
 49 50  1  0  0  0
 49 53  1  0  0  0
 49 64  1  0  0  0
 49119  1  0  0  0
 50 51  1  0  0  0
 50120  1  0  0  0
 50121  1  0  0  0
 51 52  1  0  0  0
 51122  1  0  0  0
 51123  1  0  0  0
 52124  1  0  0  0
 52125  1  0  0  0
 53 54  1  0  0  0
 54 55  2  0  0  0
 54126  1  0  0  0
 55 57  1  0  0  0
 55127  1  0  0  0
 56 69  2  0  0  0
 57 58  2  0  0  0
 57128  1  0  0  0
 58129  1  0  0  0
 59 60  1  0  0  0
 59 61  1  0  0  0
 59 62  1  0  0  0
 60130  1  0  0  0
 60131  1  0  0  0
 60132  1  0  0  0
 61133  1  0  0  0
 61134  1  0  0  0
 61135  1  0  0  0
 62136  1  0  0  0
 62137  1  0  0  0
 62138  1  0  0  0
 63 65  1  0  0  0
 63139  1  0  0  0
 63140  1  0  0  0
 63141  1  0  0  0
 64142  1  0  0  0
 65143  1  0  0  0
 68 81  1  0  0  0
 71 72  2  0  0  0
 71 82  1  0  0  0
 71144  1  0  0  0
 72 75  1  0  0  0
 72 83  1  0  0  0
 73 74  1  0  0  0
 73 82  1  0  0  0
 73 83  2  0  0  0
 74145  1  0  0  0
 74146  1  0  0  0
 74147  1  0  0  0
 75 76  1  0  0  0
 75148  1  0  0  0
 75149  1  0  0  0
 76 80  1  0  0  0
 76150  1  0  0  0
 76151  1  0  0  0
 77 78  1  0  0  0
 77 79  1  0  0  0
 77152  1  0  0  0
 77153  1  0  0  0
 78 81  1  0  0  0
 78154  1  0  0  0
 78155  1  0  0  0
 79 82  1  0  0  0
 79156  1  0  0  0
 79157  1  0  0  0
 80 84  1  0  0  0
 80158  1  0  0  0
 80159  1  0  0  0
 81160  1  0  0  0
 81161  1  0  0  0
 83162  1  0  0  0
 84163  1  0  0  0
M  CHG  1  83   1
M  ISO  4   1 100  68 101  81 101  84 100
M  END
> <chiral flag>
0

> <version>
0

> <s_m_source_file>
/data/baiqing/PycharmProjects/Reinvent-master-3.2/result/LINK_invent/BTK/process_docking_weight1_custom_sum_contain_oxygen_bond_distance_aromatic_linkinvent_7_9_3/rearranged_h_0046.sdf

> <i_m_source_file_index>
20

> <r_mmod_Potential_Energy-OPLS-2005>
164.462326049805

> <r_mmod_Stretch_Energy-OPLS-2005>
35.1226005554199

> <r_mmod_Bend_Energy-OPLS-2005>
323.333343505859

> <r_mmod_Torsional_Energy-OPLS-2005>
270.119873046875

> <r_mmod_Improper_Torsional_Energy-OPLS-2005>
3.23941111564636

> <r_mmod_Van_der_Waal_Energy-OPLS-2005>
147.748748779297

> <r_mmod_Electrostatic_Energy-OPLS-2005>
-198.360824584961

> <r_mmod_Solvation_Energy-OPLS-2005>
-427.16162109375

> <b_mmod_Minimization_Converged-OPLS-2005>
0

> <r_mmod_RMS_Derivative-OPLS-2005>
5.70227193832397

$$$$
20
                    3D
 Structure written by MMmdl.
162170  0  0  1  0            999 V2000
  -30.6395  -14.5462   20.5467 C   0  0  0  0  0  0
  -30.4254  -12.3538   19.4086 C   0  0  0  0  0  0
  -29.4872  -12.5084   18.1932 C   0  0  0  0  0  0
  -28.0091  -12.3585   18.6118 C   0  0  0  0  0  0
  -27.6444  -13.2100   19.8572 C   0  0  2  0  0  0
  -28.6900  -13.0171   20.9753 C   0  0  0  0  0  0
  -25.2491  -13.8168   20.5639 C   0  0  0  0  0  0
  -24.1769  -13.0423   20.9178 C   0  0  0  0  0  0
  -24.6335  -11.6889   20.8720 C   0  0  0  0  0  0
  -23.9013  -10.4279   21.0405 C   0  0  0  0  0  0
  -24.3572   -9.4198   21.9183 C   0  0  0  0  0  0
  -23.6253   -8.2234   22.0745 C   0  0  0  0  0  0
  -22.4243   -8.0259   21.3534 C   0  0  0  0  0  0
  -21.9870   -9.0237   20.4646 C   0  0  0  0  0  0
  -22.7191  -10.2115   20.3056 C   0  0  0  0  0  0
  -21.6848   -6.0697   22.5268 C   0  0  0  0  0  0
  -21.4005   -6.5611   23.8204 C   0  0  0  0  0  0
  -21.3669   -5.6774   24.9178 C   0  0  0  0  0  0
  -21.6067   -4.3045   24.7235 C   0  0  0  0  0  0
  -21.8818   -3.8116   23.4364 C   0  0  0  0  0  0
  -21.9179   -4.6918   22.3407 C   0  0  0  0  0  0
  -22.7804  -13.5234   21.1873 C   0  0  0  0  0  0
  -22.1628   -4.2092   21.0984 F   0  0  0  0  0  0
  -21.5658   -3.4533   25.7756 F   0  0  0  0  0  0
  -30.0051  -13.3499   20.4041 N   0  0  0  0  0  0
  -26.2909  -12.9333   20.3286 N   0  0  0  0  0  0
  -25.9247  -11.6501   20.5692 N   0  0  0  0  0  0
  -22.0431  -12.8220   22.0434 N   0  0  0  0  0  0
  -25.4261  -15.1871   20.4048 N   0  0  0  0  0  0
  -31.8185  -14.7225   20.2296 O   0  0  0  0  0  0
  -21.6636   -6.8826   21.4219 O   0  0  0  0  0  0
  -22.3504  -14.5557   20.6750 O   0  0  0  0  0  0
  -24.6196  -31.8645   23.2048 C   0  0  0  0  0  0
  -25.9078  -32.4797   23.8353 C   0  0  1  0  0  0
  -27.2186  -27.3729   20.1244 C   0  0  0  0  0  0
  -25.5940  -33.8605   24.2303 N   0  0  0  0  0  0
  -23.4083  -30.4849   21.5479 C   0  0  2  0  0  0
  -24.8573  -28.9443   20.1116 C   0  0  0  0  0  0
  -22.7366  -29.4664   22.4990 C   0  0  0  0  0  0
  -18.0227  -28.1355   22.8408 C   0  0  0  0  0  0
  -24.1487  -36.7293   23.2629 C   0  0  0  0  0  0
  -25.9422  -30.8104   21.3673 C   0  0  0  0  0  0
  -26.0201  -29.4418   20.7143 C   0  0  0  0  0  0
  -27.2089  -28.6648   20.7146 C   0  0  0  0  0  0
  -26.0423  -26.9031   19.5113 C   0  0  0  0  0  0
  -24.8655  -27.6763   19.5031 C   0  0  0  0  0  0
  -23.6201  -29.8130   20.1659 C   0  0  0  0  0  0
  -25.4117  -36.3106   24.0321 C   0  0  1  0  0  0
  -20.5797  -28.3719   23.1288 C   0  0  2  0  0  0
  -20.6771  -26.9507   22.5325 C   0  0  0  0  0  0
  -19.5767  -26.6511   21.5095 C   0  0  0  0  0  0
  -18.1938  -26.7928   22.1517 C   0  0  0  0  0  0
  -19.1452  -28.8844   23.2862 C   0  0  0  0  0  0
  -18.9353  -30.1398   23.8933 C   0  0  0  0  0  0
  -17.6360  -30.6509   24.0603 C   0  0  0  0  0  0
  -25.9044  -34.9464   23.5095 C   0  0  0  0  0  0
  -16.5254  -29.9007   23.6350 C   0  0  0  0  0  0
  -16.7210  -28.6459   23.0312 C   0  0  0  0  0  0
  -26.4493  -31.6595   25.0705 C   0  0  0  0  0  0
  -25.3756  -31.3705   26.1435 C   0  0  0  0  0  0
  -27.0314  -30.3020   24.6140 C   0  0  0  0  0  0
  -27.6048  -32.4328   25.7462 C   0  0  0  0  0  0
  -27.5581  -37.1816   24.8458 C   0  0  0  0  0  0
  -21.4084  -29.3090   22.3730 N   0  0  0  0  0  0
  -26.4301  -37.3791   23.9399 N   0  0  0  0  0  0
  -24.6752  -31.0683   22.0988 N   0  0  0  0  0  0
  -23.4110  -28.8200   23.3048 O   0  0  0  0  0  0
  -28.3489  -26.5705   20.1201 O   0  0  0  0  0  0
  -26.5603  -34.8899   22.4657 O   0  0  0  0  0  0
  -23.5404  -32.1452   23.7442 O   0  0  0  0  0  0
  -31.0118  -19.1044   21.9242 C   0  0  0  0  0  0
  -30.1781  -18.1378   21.4054 C   0  0  0  0  0  0
  -29.6314  -20.1715   20.6290 C   0  0  0  0  0  0
  -31.5907  -19.2935   24.3662 C   0  0  0  0  0  0
  -28.2290  -18.2403   19.7737 C   0  0  0  0  0  0
  -32.0925  -18.9739   22.9537 C   0  0  0  0  0  0
  -30.1488  -16.6648   21.8438 C   0  0  0  0  0  0
  -29.0081  -21.3499   19.8627 C   0  0  0  0  0  0
  -28.7601  -22.6650   20.6935 C   0  0  0  0  0  0
  -28.4553  -23.9948   19.8999 C   0  0  0  0  0  0
  -28.2422  -25.2744   20.7830 C   0  0  0  0  0  0
  -30.6842  -20.3562   21.4164 N   0  0  0  0  0  0
  -29.2980  -18.8420   20.5509 N   0  0  0  0  0  0
  -29.8288  -15.5664   20.9143 N   0  0  0  0  0  0
  -31.4610  -12.4975   19.1020 H   0  0  0  0  0  0
  -30.3678  -11.3476   19.8261 H   0  0  0  0  0  0
  -29.7330  -11.7692   17.4311 H   0  0  0  0  0  0
  -29.6436  -13.4839   17.7293 H   0  0  0  0  0  0
  -27.8409  -11.3046   18.8281 H   0  0  0  0  0  0
  -27.3480  -12.6110   17.7804 H   0  0  0  0  0  0
  -27.6735  -14.2516   19.5408 H   0  0  0  0  0  0
  -28.6915  -11.9858   21.3301 H   0  0  0  0  0  0
  -28.4475  -13.6260   21.8491 H   0  0  0  0  0  0
  -25.2702   -9.5660   22.4774 H   0  0  0  0  0  0
  -23.9978   -7.4613   22.7441 H   0  0  0  0  0  0
  -21.0826   -8.8769   19.8915 H   0  0  0  0  0  0
  -22.3674  -10.9673   19.6180 H   0  0  0  0  0  0
  -21.1972   -7.6109   23.9717 H   0  0  0  0  0  0
  -21.1511   -6.0486   25.9093 H   0  0  0  0  0  0
  -22.0587   -2.7565   23.2890 H   0  0  0  0  0  0
  -22.4049  -11.9854   22.4777 H   0  0  0  0  0  0
  -21.1056  -13.1273   22.2687 H   0  0  0  0  0  0
  -24.6777  -15.8579   20.5402 H   0  0  0  0  0  0
  -26.2792  -15.6121   20.0701 H   0  0  0  0  0  0
  -26.7161  -32.5437   23.1108 H   0  0  0  0  0  0
  -25.0139  -33.9751   25.0486 H   0  0  0  0  0  0
  -22.7048  -31.3040   21.4019 H   0  0  0  0  0  0
  -23.3753  -35.9618   23.3325 H   0  0  0  0  0  0
  -24.3575  -36.8905   22.2044 H   0  0  0  0  0  0
  -23.7241  -37.6503   23.6626 H   0  0  0  0  0  0
  -26.0686  -31.5709   20.5960 H   0  0  0  0  0  0
  -26.8249  -30.8582   21.9934 H   0  0  0  0  0  0
  -28.1060  -29.0357   21.1917 H   0  0  0  0  0  0
  -26.0336  -25.9262   19.0492 H   0  0  0  0  0  0
  -23.9703  -27.2804   19.0423 H   0  0  0  0  0  0
  -23.7203  -30.5803   19.3962 H   0  0  0  0  0  0
  -22.7466  -29.2269   19.8782 H   0  0  0  0  0  0
  -25.1325  -36.1969   25.0823 H   0  0  0  0  0  0
  -20.9825  -28.3316   24.1441 H   0  0  0  0  0  0
  -20.5676  -26.2311   23.3439 H   0  0  0  0  0  0
  -21.6665  -26.7647   22.1119 H   0  0  0  0  0  0
  -19.6986  -25.6466   21.1057 H   0  0  0  0  0  0
  -19.6652  -27.3388   20.6681 H   0  0  0  0  0  0
  -17.4169  -26.6661   21.3957 H   0  0  0  0  0  0
  -18.0432  -26.0024   22.8896 H   0  0  0  0  0  0
  -19.7854  -30.7196   24.2368 H   0  0  0  0  0  0
  -17.4892  -31.6174   24.5209 H   0  0  0  0  0  0
  -15.5240  -30.2906   23.7595 H   0  0  0  0  0  0
  -15.8598  -28.0793   22.6991 H   0  0  0  0  0  0
  -24.5891  -30.7104   25.7742 H   0  0  0  0  0  0
  -24.8972  -32.2848   26.4957 H   0  0  0  0  0  0
  -25.8101  -30.8829   27.0160 H   0  0  0  0  0  0
  -26.2851  -29.6793   24.1180 H   0  0  0  0  0  0
  -27.4043  -29.7285   25.4658 H   0  0  0  0  0  0
  -27.8719  -30.4307   23.9308 H   0  0  0  0  0  0
  -27.2672  -33.3631   26.2012 H   0  0  0  0  0  0
  -28.3855  -32.6915   25.0281 H   0  0  0  0  0  0
  -28.0691  -31.8470   26.5404 H   0  0  0  0  0  0
  -28.2635  -38.0090   24.7519 H   0  0  0  0  0  0
  -28.1068  -36.2639   24.6303 H   0  0  0  0  0  0
  -27.2272  -37.1474   25.8850 H   0  0  0  0  0  0
  -20.9192  -29.8749   21.6917 H   0  0  0  0  0  0
  -26.0211  -38.2871   24.1399 H   0  0  0  0  0  0
  -31.2126  -20.3166   24.4323 H   0  0  0  0  0  0
  -32.3989  -19.1862   25.0898 H   0  0  0  0  0  0
  -30.7905  -18.6184   24.6600 H   0  0  0  0  0  0
  -28.5980  -17.3523   19.2596 H   0  0  0  0  0  0
  -27.8622  -18.9215   19.0108 H   0  0  0  0  0  0
  -27.4048  -17.9554   20.4256 H   0  0  0  0  0  0
  -32.9089  -19.6563   22.7184 H   0  0  0  0  0  0
  -32.5260  -17.9720   22.9426 H   0  0  0  0  0  0
  -31.0861  -16.4125   22.3404 H   0  0  0  0  0  0
  -29.4040  -16.5869   22.6381 H   0  0  0  0  0  0
  -28.0657  -21.0469   19.4083 H   0  0  0  0  0  0
  -29.6782  -21.5725   19.0302 H   0  0  0  0  0  0
  -29.6485  -22.8526   21.2981 H   0  0  0  0  0  0
  -27.9591  -22.4726   21.4069 H   0  0  0  0  0  0
  -29.2824  -24.1948   19.2208 H   0  0  0  0  0  0
  -27.5794  -23.8487   19.2668 H   0  0  0  0  0  0
  -29.0245  -25.2798   21.5433 H   0  0  0  0  0  0
  -27.3123  -25.1857   21.3485 H   0  0  0  0  0  0
  -28.8527  -15.3204   20.8937 H   0  0  0  0  0  0
  1 25  1  0  0  0
  1 30  2  0  0  0
  1 84  1  0  0  0
  2  3  1  0  0  0
  2 25  1  0  0  0
  2 85  1  0  0  0
  2 86  1  0  0  0
  3  4  1  0  0  0
  3 87  1  0  0  0
  3 88  1  0  0  0
  4  5  1  0  0  0
  4 89  1  0  0  0
  4 90  1  0  0  0
  5  6  1  0  0  0
  5 26  1  0  0  0
  5 91  1  0  0  0
  6 25  1  0  0  0
  6 92  1  0  0  0
  6 93  1  0  0  0
  7  8  2  0  0  0
  7 26  1  0  0  0
  7 29  1  0  0  0
  8  9  1  0  0  0
  8 22  1  0  0  0
  9 10  1  0  0  0
  9 27  2  0  0  0
 10 11  2  0  0  0
 10 15  1  0  0  0
 11 12  1  0  0  0
 11 94  1  0  0  0
 12 13  2  0  0  0
 12 95  1  0  0  0
 13 14  1  0  0  0
 13 31  1  0  0  0
 14 15  2  0  0  0
 14 96  1  0  0  0
 15 97  1  0  0  0
 16 17  2  0  0  0
 16 21  1  0  0  0
 16 31  1  0  0  0
 17 18  1  0  0  0
 17 98  1  0  0  0
 18 19  2  0  0  0
 18 99  1  0  0  0
 19 20  1  0  0  0
 19 24  1  0  0  0
 20 21  2  0  0  0
 20100  1  0  0  0
 21 23  1  0  0  0
 22 28  1  0  0  0
 22 32  2  0  0  0
 26 27  1  0  0  0
 28101  1  0  0  0
 28102  1  0  0  0
 29103  1  0  0  0
 29104  1  0  0  0
 33 34  1  0  0  0
 33 66  1  0  0  0
 33 70  2  0  0  0
 34 36  1  0  0  0
 34 59  1  0  0  0
 34105  1  0  0  0
 35 44  2  0  0  0
 35 45  1  0  0  0
 35 68  1  0  0  0
 36 56  1  0  0  0
 36106  1  0  0  0
 37 39  1  0  0  0
 37 47  1  0  0  0
 37 66  1  0  0  0
 37107  1  0  0  0
 38 43  2  0  0  0
 38 46  1  0  0  0
 38 47  1  0  0  0
 39 64  1  0  0  0
 39 67  2  0  0  0
 40 52  1  0  0  0
 40 53  2  0  0  0
 40 58  1  0  0  0
 41108  1  0  0  0
 41109  1  0  0  0
 41110  1  0  0  0
 41 48  1  0  0  0
 42 43  1  0  0  0
 42 66  1  0  0  0
 42111  1  0  0  0
 42112  1  0  0  0
 43 44  1  0  0  0
 44113  1  0  0  0
 45 46  2  0  0  0
 45114  1  0  0  0
 46115  1  0  0  0
 47116  1  0  0  0
 47117  1  0  0  0
 48 56  1  0  0  0
 48 65  1  0  0  0
 48118  1  0  0  0
 49 50  1  0  0  0
 49 53  1  0  0  0
 49 64  1  0  0  0
 49119  1  0  0  0
 50 51  1  0  0  0
 50120  1  0  0  0
 50121  1  0  0  0
 51 52  1  0  0  0
 51122  1  0  0  0
 51123  1  0  0  0
 52124  1  0  0  0
 52125  1  0  0  0
 53 54  1  0  0  0
 54 55  2  0  0  0
 54126  1  0  0  0
 55 57  1  0  0  0
 55127  1  0  0  0
 56 69  2  0  0  0
 57 58  2  0  0  0
 57128  1  0  0  0
 58129  1  0  0  0
 59 60  1  0  0  0
 59 61  1  0  0  0
 59 62  1  0  0  0
 60130  1  0  0  0
 60131  1  0  0  0
 60132  1  0  0  0
 61133  1  0  0  0
 61134  1  0  0  0
 61135  1  0  0  0
 62136  1  0  0  0
 62137  1  0  0  0
 62138  1  0  0  0
 63 65  1  0  0  0
 63139  1  0  0  0
 63140  1  0  0  0
 63141  1  0  0  0
 64142  1  0  0  0
 65143  1  0  0  0
 68 81  1  0  0  0
 71 72  2  0  0  0
 71 76  1  0  0  0
 71 82  1  0  0  0
 72 77  1  0  0  0
 72 83  1  0  0  0
 73 78  1  0  0  0
 73 82  2  0  0  0
 73 83  1  0  0  0
 74 76  1  0  0  0
 74144  1  0  0  0
 74145  1  0  0  0
 74146  1  0  0  0
 75 83  1  0  0  0
 75147  1  0  0  0
 75148  1  0  0  0
 75149  1  0  0  0
 76150  1  0  0  0
 76151  1  0  0  0
 77 84  1  0  0  0
 77152  1  0  0  0
 77153  1  0  0  0
 78 79  1  0  0  0
 78154  1  0  0  0
 78155  1  0  0  0
 79 80  1  0  0  0
 79156  1  0  0  0
 79157  1  0  0  0
 80 81  1  0  0  0
 80158  1  0  0  0
 80159  1  0  0  0
 81160  1  0  0  0
 81161  1  0  0  0
 84162  1  0  0  0
M  ISO  4   1 100  68 101  81 101  84 100
M  END
> <chiral flag>
0

> <version>
0

> <s_m_source_file>
/data/baiqing/PycharmProjects/Reinvent-master-3.2/result/LINK_invent/BTK/process_docking_weight1_custom_sum_contain_oxygen_bond_distance_aromatic_linkinvent_7_9_3/rearranged_h_0046.sdf

> <i_m_source_file_index>
21

> <r_mmod_Potential_Energy-OPLS-2005>
-75.5754241943359

> <r_mmod_Stretch_Energy-OPLS-2005>
52.8335227966309

> <r_mmod_Bend_Energy-OPLS-2005>
132.866302490234

> <r_mmod_Torsional_Energy-OPLS-2005>
231.919738769531

> <r_mmod_Improper_Torsional_Energy-OPLS-2005>
6.10970401763916

> <r_mmod_Van_der_Waal_Energy-OPLS-2005>
115.690086364746

> <r_mmod_Electrostatic_Energy-OPLS-2005>
-417.995941162109

> <r_mmod_Solvation_Energy-OPLS-2005>
-225.989273071289

> <b_mmod_Minimization_Converged-OPLS-2005>
0

> <r_mmod_RMS_Derivative-OPLS-2005>
5.5467963218689

$$$$
21
                    3D
 Structure written by MMmdl.
161169  0  0  1  0            999 V2000
  -30.6657  -14.6267   20.6443 C   0  0  0  0  0  0
  -30.4401  -12.4329   19.4463 C   0  0  0  0  0  0
  -29.5072  -12.5507   18.2199 C   0  0  0  0  0  0
  -28.0250  -12.3807   18.6149 C   0  0  0  0  0  0
  -27.6575  -13.2100   19.8712 C   0  0  2  0  0  0
  -28.6993  -12.9705   20.9806 C   0  0  0  0  0  0
  -25.2587  -13.8155   20.5666 C   0  0  0  0  0  0
  -24.1846  -13.0433   20.9150 C   0  0  0  0  0  0
  -24.6393  -11.6896   20.8697 C   0  0  0  0  0  0
  -23.9054  -10.4290   21.0389 C   0  0  0  0  0  0
  -24.3606   -9.4205   21.9161 C   0  0  0  0  0  0
  -23.6288   -8.2239   22.0734 C   0  0  0  0  0  0
  -22.4268   -8.0277   21.3535 C   0  0  0  0  0  0
  -21.9897   -9.0242   20.4628 C   0  0  0  0  0  0
  -22.7221  -10.2128   20.3046 C   0  0  0  0  0  0
  -21.6846   -6.0745   22.5291 C   0  0  0  0  0  0
  -21.4008   -6.5652   23.8223 C   0  0  0  0  0  0
  -21.3660   -5.6802   24.9186 C   0  0  0  0  0  0
  -21.6043   -4.3061   24.7229 C   0  0  0  0  0  0
  -21.8815   -3.8155   23.4347 C   0  0  0  0  0  0
  -21.9184   -4.6975   22.3406 C   0  0  0  0  0  0
  -22.7881  -13.5233   21.1840 C   0  0  0  0  0  0
  -22.1653   -4.2160   21.0981 F   0  0  0  0  0  0
  -21.5619   -3.4541   25.7735 F   0  0  0  0  0  0
  -30.0063  -13.4210   20.4697 N   0  0  0  0  0  0
  -26.3004  -12.9308   20.3301 N   0  0  0  0  0  0
  -25.9311  -11.6471   20.5695 N   0  0  0  0  0  0
  -22.0526  -12.8221   22.0400 N   0  0  0  0  0  0
  -25.4341  -15.1879   20.4148 N   0  0  0  0  0  0
  -31.7389  -14.7812   20.0457 O   0  0  0  0  0  0
  -21.6628   -6.8885   21.4253 O   0  0  0  0  0  0
  -22.3558  -14.5533   20.6686 O   0  0  0  0  0  0
  -24.6260  -31.8594   23.2001 C   0  0  0  0  0  0
  -25.9115  -32.4774   23.8338 C   0  0  1  0  0  0
  -27.2353  -27.3311   20.1210 C   0  0  0  0  0  0
  -25.5927  -33.8574   24.2270 N   0  0  0  0  0  0
  -23.4188  -30.4801   21.5447 C   0  0  2  0  0  0
  -24.8672  -28.9272   20.1185 C   0  0  0  0  0  0
  -22.7469  -29.4628   22.4967 C   0  0  0  0  0  0
  -18.0301  -28.1373   22.8503 C   0  0  0  0  0  0
  -24.1485  -36.7293   23.2641 C   0  0  0  0  0  0
  -25.9571  -30.7941   21.3670 C   0  0  0  0  0  0
  -26.0350  -29.4189   20.7157 C   0  0  0  0  0  0
  -27.2235  -28.6334   20.7051 C   0  0  0  0  0  0
  -26.0480  -26.8809   19.5066 C   0  0  0  0  0  0
  -24.8744  -27.6617   19.5060 C   0  0  0  0  0  0
  -23.6336  -29.8072   20.1628 C   0  0  0  0  0  0
  -25.4109  -36.3081   24.0332 C   0  0  1  0  0  0
  -20.5888  -28.3686   23.1308 C   0  0  2  0  0  0
  -20.6792  -26.9419   22.5422 C   0  0  0  0  0  0
  -19.5752  -26.6372   21.5230 C   0  0  0  0  0  0
  -18.1944  -26.7906   22.1665 C   0  0  0  0  0  0
  -19.1546  -28.8841   23.2897 C   0  0  0  0  0  0
  -18.9473  -30.1445   23.8903 C   0  0  0  0  0  0
  -17.6478  -30.6584   24.0567 C   0  0  0  0  0  0
  -25.9046  -34.9452   23.5095 C   0  0  0  0  0  0
  -16.5367  -29.9082   23.6323 C   0  0  0  0  0  0
  -16.7290  -28.6501   23.0356 C   0  0  0  0  0  0
  -26.4498  -31.6584   25.0708 C   0  0  0  0  0  0
  -25.3737  -31.3727   26.1436 C   0  0  0  0  0  0
  -27.0338  -30.3012   24.6148 C   0  0  0  0  0  0
  -27.6051  -32.4320   25.7488 C   0  0  0  0  0  0
  -27.5575  -37.1805   24.8474 C   0  0  0  0  0  0
  -21.4177  -29.3053   22.3713 N   0  0  0  0  0  0
  -26.4290  -37.3776   23.9411 N   0  0  0  0  0  0
  -24.6864  -31.0612   22.0948 N   0  0  0  0  0  0
  -23.4183  -28.8168   23.3046 O   0  0  0  0  0  0
  -28.3688  -26.5111   20.1108 O   0  0  0  0  0  0
  -26.5624  -34.8923   22.4668 O   0  0  0  0  0  0
  -23.5427  -32.1396   23.7325 O   0  0  0  0  0  0
  -28.9858  -18.8274   19.5925 C   0  0  0  0  0  0
  -30.8630  -18.4347   21.4621 C   0  0  0  0  0  0
  -29.6675  -19.9533   20.1421 C   0  0  0  0  0  0
  -30.1643  -17.2979   20.9394 C   0  0  0  0  0  0
  -28.9271  -15.7128   22.3927 C   0  0  0  0  0  0
  -31.3494  -15.8420   22.7017 C   0  0  0  0  0  0
  -27.6999  -22.1198   21.1982 C   0  0  0  0  0  0
  -29.4562  -21.4169   19.5890 C   0  0  0  0  0  0
  -28.8008  -23.9028   19.7983 C   0  0  0  0  0  0
  -28.2535  -25.1373   20.6522 C   0  0  0  0  0  0
  -30.2484  -15.8549   21.6069 C   0  0  0  0  0  0
  -30.6266  -19.7302   21.0815 N   0  0  0  0  0  0
  -29.2179  -17.5312   19.9817 N   0  0  0  0  0  0
  -28.9323  -22.5321   20.4831 N   0  3  1  0  0  0
  -31.4769  -12.5681   19.1341 H   0  0  0  0  0  0
  -30.4034  -11.4216   19.8539 H   0  0  0  0  0  0
  -29.7837  -11.8138   17.4645 H   0  0  0  0  0  0
  -29.6502  -13.5280   17.7546 H   0  0  0  0  0  0
  -27.8498  -11.3211   18.8070 H   0  0  0  0  0  0
  -27.3758  -12.6500   17.7801 H   0  0  0  0  0  0
  -27.6993  -14.2624   19.5882 H   0  0  0  0  0  0
  -28.7434  -11.9033   21.2076 H   0  0  0  0  0  0
  -28.3804  -13.3854   21.9230 H   0  0  0  0  0  0
  -25.2748   -9.5690   22.4732 H   0  0  0  0  0  0
  -23.9988   -7.4652   22.7476 H   0  0  0  0  0  0
  -21.0814   -8.8791   19.8945 H   0  0  0  0  0  0
  -22.3677  -10.9680   19.6169 H   0  0  0  0  0  0
  -21.2005   -7.6161   23.9732 H   0  0  0  0  0  0
  -21.1480   -6.0528   25.9092 H   0  0  0  0  0  0
  -22.0583   -2.7614   23.2855 H   0  0  0  0  0  0
  -22.4128  -11.9847   22.4738 H   0  0  0  0  0  0
  -21.1169  -13.1288   22.2662 H   0  0  0  0  0  0
  -24.6807  -15.8529   20.5488 H   0  0  0  0  0  0
  -26.3027  -15.6260   20.1327 H   0  0  0  0  0  0
  -26.7185  -32.5454   23.1087 H   0  0  0  0  0  0
  -25.0084  -33.9716   25.0418 H   0  0  0  0  0  0
  -22.7138  -31.3008   21.3986 H   0  0  0  0  0  0
  -23.3738  -35.9637   23.3320 H   0  0  0  0  0  0
  -24.3576  -36.8894   22.2054 H   0  0  0  0  0  0
  -23.7241  -37.6502   23.6648 H   0  0  0  0  0  0
  -26.0813  -31.5532   20.5930 H   0  0  0  0  0  0
  -26.8396  -30.8483   21.9932 H   0  0  0  0  0  0
  -28.1238  -29.0125   21.1693 H   0  0  0  0  0  0
  -26.0252  -25.9147   19.0217 H   0  0  0  0  0  0
  -23.9787  -27.2779   19.0366 H   0  0  0  0  0  0
  -23.7536  -30.5801   19.4032 H   0  0  0  0  0  0
  -22.7539  -29.2366   19.8604 H   0  0  0  0  0  0
  -25.1281  -36.1937   25.0825 H   0  0  0  0  0  0
  -20.9975  -28.3251   24.1433 H   0  0  0  0  0  0
  -20.5701  -26.2312   23.3624 H   0  0  0  0  0  0
  -21.6663  -26.7463   22.1212 H   0  0  0  0  0  0
  -19.6917  -25.6274   21.1285 H   0  0  0  0  0  0
  -19.6653  -27.3169   20.6751 H   0  0  0  0  0  0
  -17.4192  -26.6600   21.4103 H   0  0  0  0  0  0
  -18.0391  -26.0073   22.9097 H   0  0  0  0  0  0
  -19.7945  -30.7268   24.2276 H   0  0  0  0  0  0
  -17.5016  -31.6251   24.5182 H   0  0  0  0  0  0
  -15.5358  -30.2974   23.7657 H   0  0  0  0  0  0
  -15.8684  -28.0816   22.7075 H   0  0  0  0  0  0
  -24.5902  -30.7082   25.7773 H   0  0  0  0  0  0
  -24.8941  -32.2900   26.4868 H   0  0  0  0  0  0
  -25.8070  -30.8907   27.0210 H   0  0  0  0  0  0
  -26.2910  -29.6761   24.1178 H   0  0  0  0  0  0
  -27.4051  -29.7264   25.4646 H   0  0  0  0  0  0
  -27.8770  -30.4302   23.9355 H   0  0  0  0  0  0
  -27.2650  -33.3612   26.2075 H   0  0  0  0  0  0
  -28.3864  -32.6900   25.0324 H   0  0  0  0  0  0
  -28.0716  -31.8444   26.5402 H   0  0  0  0  0  0
  -28.2606  -38.0088   24.7494 H   0  0  0  0  0  0
  -28.1055  -36.2619   24.6323 H   0  0  0  0  0  0
  -27.2306  -37.1487   25.8883 H   0  0  0  0  0  0
  -20.9365  -29.8774   21.6919 H   0  0  0  0  0  0
  -26.0174  -38.2858   24.1384 H   0  0  0  0  0  0
  -28.2516  -18.9624   18.8122 H   0  0  0  0  0  0
  -31.5894  -18.3382   22.2544 H   0  0  0  0  0  0
  -28.7210  -16.6202   22.9631 H   0  0  0  0  0  0
  -28.9715  -14.9177   23.1361 H   0  0  0  0  0  0
  -28.0696  -15.5738   21.7352 H   0  0  0  0  0  0
  -31.4655  -14.8500   23.1416 H   0  0  0  0  0  0
  -31.1146  -16.5194   23.5219 H   0  0  0  0  0  0
  -32.3251  -16.1270   22.3034 H   0  0  0  0  0  0
  -27.8388  -21.1727   21.7228 H   0  0  0  0  0  0
  -26.8652  -22.0029   20.5073 H   0  0  0  0  0  0
  -27.4190  -22.8486   21.9577 H   0  0  0  0  0  0
  -28.7887  -21.3397   18.7306 H   0  0  0  0  0  0
  -30.4123  -21.7388   19.1757 H   0  0  0  0  0  0
  -29.7833  -24.1707   19.4090 H   0  0  0  0  0  0
  -28.1603  -23.7901   18.9234 H   0  0  0  0  0  0
  -28.8004  -25.1536   21.5940 H   0  0  0  0  0  0
  -27.2201  -24.9382   20.9362 H   0  0  0  0  0  0
  -29.6401  -22.6326   21.1969 H   0  0  0  0  0  0
  1 25  1  0  0  0
  1 30  2  0  0  0
  1 81  1  0  0  0
  2  3  1  0  0  0
  2 25  1  0  0  0
  2 85  1  0  0  0
  2 86  1  0  0  0
  3  4  1  0  0  0
  3 87  1  0  0  0
  3 88  1  0  0  0
  4  5  1  0  0  0
  4 89  1  0  0  0
  4 90  1  0  0  0
  5  6  1  0  0  0
  5 26  1  0  0  0
  5 91  1  0  0  0
  6 25  1  0  0  0
  6 92  1  0  0  0
  6 93  1  0  0  0
  7  8  2  0  0  0
  7 26  1  0  0  0
  7 29  1  0  0  0
  8  9  1  0  0  0
  8 22  1  0  0  0
  9 10  1  0  0  0
  9 27  2  0  0  0
 10 11  2  0  0  0
 10 15  1  0  0  0
 11 12  1  0  0  0
 11 94  1  0  0  0
 12 13  2  0  0  0
 12 95  1  0  0  0
 13 14  1  0  0  0
 13 31  1  0  0  0
 14 15  2  0  0  0
 14 96  1  0  0  0
 15 97  1  0  0  0
 16 17  2  0  0  0
 16 21  1  0  0  0
 16 31  1  0  0  0
 17 18  1  0  0  0
 17 98  1  0  0  0
 18 19  2  0  0  0
 18 99  1  0  0  0
 19 20  1  0  0  0
 19 24  1  0  0  0
 20 21  2  0  0  0
 20100  1  0  0  0
 21 23  1  0  0  0
 22 28  1  0  0  0
 22 32  2  0  0  0
 26 27  1  0  0  0
 28101  1  0  0  0
 28102  1  0  0  0
 29103  1  0  0  0
 29104  1  0  0  0
 33 34  1  0  0  0
 33 66  1  0  0  0
 33 70  2  0  0  0
 34 36  1  0  0  0
 34 59  1  0  0  0
 34105  1  0  0  0
 35 44  2  0  0  0
 35 45  1  0  0  0
 35 68  1  0  0  0
 36 56  1  0  0  0
 36106  1  0  0  0
 37 39  1  0  0  0
 37 47  1  0  0  0
 37 66  1  0  0  0
 37107  1  0  0  0
 38 43  2  0  0  0
 38 46  1  0  0  0
 38 47  1  0  0  0
 39 64  1  0  0  0
 39 67  2  0  0  0
 40 52  1  0  0  0
 40 53  2  0  0  0
 40 58  1  0  0  0
 41108  1  0  0  0
 41109  1  0  0  0
 41110  1  0  0  0
 41 48  1  0  0  0
 42 43  1  0  0  0
 42 66  1  0  0  0
 42111  1  0  0  0
 42112  1  0  0  0
 43 44  1  0  0  0
 44113  1  0  0  0
 45 46  2  0  0  0
 45114  1  0  0  0
 46115  1  0  0  0
 47116  1  0  0  0
 47117  1  0  0  0
 48 56  1  0  0  0
 48 65  1  0  0  0
 48118  1  0  0  0
 49 50  1  0  0  0
 49 53  1  0  0  0
 49 64  1  0  0  0
 49119  1  0  0  0
 50 51  1  0  0  0
 50120  1  0  0  0
 50121  1  0  0  0
 51 52  1  0  0  0
 51122  1  0  0  0
 51123  1  0  0  0
 52124  1  0  0  0
 52125  1  0  0  0
 53 54  1  0  0  0
 54 55  2  0  0  0
 54126  1  0  0  0
 55 57  1  0  0  0
 55127  1  0  0  0
 56 69  2  0  0  0
 57 58  2  0  0  0
 57128  1  0  0  0
 58129  1  0  0  0
 59 60  1  0  0  0
 59 61  1  0  0  0
 59 62  1  0  0  0
 60130  1  0  0  0
 60131  1  0  0  0
 60132  1  0  0  0
 61133  1  0  0  0
 61134  1  0  0  0
 61135  1  0  0  0
 62136  1  0  0  0
 62137  1  0  0  0
 62138  1  0  0  0
 63 65  1  0  0  0
 63139  1  0  0  0
 63140  1  0  0  0
 63141  1  0  0  0
 64142  1  0  0  0
 65143  1  0  0  0
 68 80  1  0  0  0
 71 73  2  0  0  0
 71 83  1  0  0  0
 71144  1  0  0  0
 72 74  1  0  0  0
 72 82  2  0  0  0
 72145  1  0  0  0
 73 78  1  0  0  0
 73 82  1  0  0  0
 74 81  1  0  0  0
 74 83  2  0  0  0
 75146  1  0  0  0
 75147  1  0  0  0
 75148  1  0  0  0
 75 81  1  0  0  0
 76 81  1  0  0  0
 76149  1  0  0  0
 76150  1  0  0  0
 76151  1  0  0  0
 77152  1  0  0  0
 77153  1  0  0  0
 77154  1  0  0  0
 77 84  1  0  0  0
 78 84  1  0  0  0
 78155  1  0  0  0
 78156  1  0  0  0
 79 80  1  0  0  0
 79 84  1  0  0  0
 79157  1  0  0  0
 79158  1  0  0  0
 80159  1  0  0  0
 80160  1  0  0  0
 84161  1  0  0  0
M  CHG  1  84   1
M  ISO  4   1 100  68 101  80 101  81 100
M  END
> <chiral flag>
0

> <version>
0

> <s_m_source_file>
/data/baiqing/PycharmProjects/Reinvent-master-3.2/result/LINK_invent/BTK/process_docking_weight1_custom_sum_contain_oxygen_bond_distance_aromatic_linkinvent_7_9_3/rearranged_h_0046.sdf

> <i_m_source_file_index>
22

> <r_mmod_Potential_Energy-OPLS-2005>
120.457954406738

> <r_mmod_Stretch_Energy-OPLS-2005>
101.112907409668

> <r_mmod_Bend_Energy-OPLS-2005>
176.732376098633

> <r_mmod_Torsional_Energy-OPLS-2005>
197.752105712891

> <r_mmod_Improper_Torsional_Energy-OPLS-2005>
3.5522027015686

> <r_mmod_Van_der_Waal_Energy-OPLS-2005>
159.836441040039

> <r_mmod_Electrostatic_Energy-OPLS-2005>
-132.641479492188

> <r_mmod_Solvation_Energy-OPLS-2005>
-424.7333984375

> <b_mmod_Minimization_Converged-OPLS-2005>
0

> <r_mmod_RMS_Derivative-OPLS-2005>
2.47965598106384

$$$$
22
                    3D
 Structure written by MMmdl.
153161  0  0  1  0            999 V2000
  -30.5185  -14.9768   20.4268 C   0  0  0  0  0  0
  -30.4577  -12.6139   19.4839 C   0  0  0  0  0  0
  -29.5358  -12.5456   18.2447 C   0  0  0  0  0  0
  -28.0656  -12.3260   18.6577 C   0  0  0  0  0  0
  -27.6323  -13.2500   19.8294 C   0  0  2  0  0  0
  -28.6749  -13.2723   20.9663 C   0  0  0  0  0  0
  -25.2472  -13.8206   20.5615 C   0  0  0  0  0  0
  -24.1796  -13.0425   20.9191 C   0  0  0  0  0  0
  -24.6440  -11.6934   20.8703 C   0  0  0  0  0  0
  -23.9129  -10.4311   21.0396 C   0  0  0  0  0  0
  -24.3674   -9.4215   21.9179 C   0  0  0  0  0  0
  -23.6312   -8.2253   22.0773 C   0  0  0  0  0  0
  -22.4289   -8.0300   21.3558 C   0  0  0  0  0  0
  -21.9936   -9.0287   20.4662 C   0  0  0  0  0  0
  -22.7296  -10.2151   20.3048 C   0  0  0  0  0  0
  -21.6835   -6.0764   22.5280 C   0  0  0  0  0  0
  -21.4033   -6.5655   23.8228 C   0  0  0  0  0  0
  -21.3649   -5.6790   24.9184 C   0  0  0  0  0  0
  -21.6033   -4.3051   24.7210 C   0  0  0  0  0  0
  -21.8813   -3.8162   23.4325 C   0  0  0  0  0  0
  -21.9212   -4.7003   22.3402 C   0  0  0  0  0  0
  -22.7812  -13.5193   21.1860 C   0  0  0  0  0  0
  -22.1643   -4.2189   21.0978 F   0  0  0  0  0  0
  -21.5638   -3.4533   25.7721 F   0  0  0  0  0  0
  -29.9469  -13.7031   20.3658 N   0  0  0  0  0  0
  -26.2907  -12.9433   20.3157 N   0  0  0  0  0  0
  -25.9368  -11.6562   20.5649 N   0  0  0  0  0  0
  -22.0440  -12.8202   22.0407 N   0  0  0  0  0  0
  -25.4072  -15.1940   20.4058 N   0  0  0  0  0  0
  -31.7313  -15.0621   20.2121 O   0  0  0  0  0  0
  -21.6632   -6.8915   21.4239 O   0  0  0  0  0  0
  -22.3484  -14.5492   20.6733 O   0  0  0  0  0  0
  -24.6402  -31.8462   23.1831 C   0  0  0  0  0  0
  -25.9162  -32.4705   23.8278 C   0  0  1  0  0  0
  -27.2205  -27.1354   20.1794 C   0  0  0  0  0  0
  -25.5940  -33.8548   24.2206 N   0  0  0  0  0  0
  -23.4449  -30.4635   21.5288 C   0  0  2  0  0  0
  -24.8957  -28.8806   20.1134 C   0  0  0  0  0  0
  -22.7547  -29.4573   22.4850 C   0  0  0  0  0  0
  -18.0318  -28.1374   22.8492 C   0  0  0  0  0  0
  -24.1498  -36.7278   23.2645 C   0  0  0  0  0  0
  -26.0002  -30.7175   21.3808 C   0  0  0  0  0  0
  -26.0719  -29.3277   20.7306 C   0  0  0  0  0  0
  -27.2390  -28.4773   20.7334 C   0  0  0  0  0  0
  -26.0207  -26.7813   19.5301 C   0  0  0  0  0  0
  -24.8843  -27.6203   19.4955 C   0  0  0  0  0  0
  -23.6691  -29.7824   20.1514 C   0  0  0  0  0  0
  -25.4114  -36.3061   24.0340 C   0  0  1  0  0  0
  -20.5930  -28.3739   23.1202 C   0  0  2  0  0  0
  -20.6791  -26.9431   22.5386 C   0  0  0  0  0  0
  -19.5771  -26.6371   21.5198 C   0  0  0  0  0  0
  -18.1954  -26.7924   22.1624 C   0  0  0  0  0  0
  -19.1576  -28.8871   23.2843 C   0  0  0  0  0  0
  -18.9488  -30.1449   23.8881 C   0  0  0  0  0  0
  -17.6492  -30.6574   24.0557 C   0  0  0  0  0  0
  -25.9074  -34.9452   23.5078 C   0  0  0  0  0  0
  -16.5381  -29.9073   23.6319 C   0  0  0  0  0  0
  -16.7305  -28.6468   23.0396 C   0  0  0  0  0  0
  -26.4500  -31.6571   25.0717 C   0  0  0  0  0  0
  -25.3674  -31.3742   26.1396 C   0  0  0  0  0  0
  -27.0365  -30.2977   24.6293 C   0  0  0  0  0  0
  -27.6067  -32.4321   25.7478 C   0  0  0  0  0  0
  -27.5574  -37.1777   24.8467 C   0  0  0  0  0  0
  -21.4251  -29.3060   22.3573 N   0  0  0  0  0  0
  -26.4278  -37.3763   23.9431 N   0  0  0  0  0  0
  -24.7144  -31.0323   22.0834 N   0  0  0  0  0  0
  -23.4172  -28.8101   23.2980 O   0  0  0  0  0  0
  -28.2853  -26.1645   20.2076 O   0  0  0  0  0  0
  -26.5694  -34.8939   22.4670 O   0  0  0  0  0  0
  -23.5514  -32.1398   23.7005 O   0  0  0  0  0  0
  -29.2239  -20.6472   18.3158 C   0  0  0  0  0  0
  -29.1957  -20.3699   19.7119 C   0  0  0  0  0  0
  -29.5461  -18.9400   19.7505 C   0  0  0  0  0  0
  -30.1240  -17.3643   17.7715 C   0  0  0  0  0  0
  -28.7827  -21.6942   20.6106 C   0  0  0  0  0  0
  -29.8666  -17.6985   20.7803 C   0  0  0  0  0  0
  -28.8071  -23.2872   19.9936 C   0  0  0  0  0  0
  -28.0849  -24.6759   20.6318 C   0  0  0  0  0  0
  -29.5528  -19.6376   17.5574 N   0  0  0  0  0  0
  -29.7357  -18.6147   18.4006 N   0  0  0  0  0  0
  -29.6903  -16.1326   20.5245 N   0  0  0  0  0  0
  -31.4844  -12.8033   19.1670 H   0  0  0  0  0  0
  -30.4801  -11.6561   20.0102 H   0  0  0  0  0  0
  -29.8629  -11.7573   17.5665 H   0  0  0  0  0  0
  -29.6197  -13.4787   17.6849 H   0  0  0  0  0  0
  -27.9548  -11.2788   18.9412 H   0  0  0  0  0  0
  -27.4135  -12.4816   17.7969 H   0  0  0  0  0  0
  -27.5944  -14.2574   19.4104 H   0  0  0  0  0  0
  -28.7706  -12.2881   21.4258 H   0  0  0  0  0  0
  -28.3718  -13.9602   21.7613 H   0  0  0  0  0  0
  -25.2849   -9.5649   22.4736 H   0  0  0  0  0  0
  -24.0023   -7.4626   22.7490 H   0  0  0  0  0  0
  -21.0867   -8.8822   19.8941 H   0  0  0  0  0  0
  -22.3792  -10.9694   19.6129 H   0  0  0  0  0  0
  -21.2011   -7.6162   23.9743 H   0  0  0  0  0  0
  -21.1456   -6.0522   25.9095 H   0  0  0  0  0  0
  -22.0607   -2.7629   23.2812 H   0  0  0  0  0  0
  -22.4060  -11.9910   22.4849 H   0  0  0  0  0  0
  -21.1044  -13.1206   22.2579 H   0  0  0  0  0  0
  -24.6241  -15.8298   20.5316 H   0  0  0  0  0  0
  -26.2315  -15.6473   20.0308 H   0  0  0  0  0  0
  -26.7211  -32.5296   23.1005 H   0  0  0  0  0  0
  -25.0053  -33.9701   25.0335 H   0  0  0  0  0  0
  -22.7469  -31.2912   21.3658 H   0  0  0  0  0  0
  -23.3765  -35.9620   23.3315 H   0  0  0  0  0  0
  -24.3557  -36.8908   22.2049 H   0  0  0  0  0  0
  -23.7280  -37.6511   23.6678 H   0  0  0  0  0  0
  -26.1676  -31.4650   20.6033 H   0  0  0  0  0  0
  -26.8651  -30.7605   22.0300 H   0  0  0  0  0  0
  -28.1393  -28.8264   21.2243 H   0  0  0  0  0  0
  -25.9502  -25.8143   19.0572 H   0  0  0  0  0  0
  -23.9896  -27.2703   19.0009 H   0  0  0  0  0  0
  -23.7895  -30.5568   19.3899 H   0  0  0  0  0  0
  -22.7831  -29.2160   19.8564 H   0  0  0  0  0  0
  -25.1284  -36.1882   25.0833 H   0  0  0  0  0  0
  -21.0053  -28.3329   24.1317 H   0  0  0  0  0  0
  -20.5631  -26.2362   23.3630 H   0  0  0  0  0  0
  -21.6645  -26.7403   22.1184 H   0  0  0  0  0  0
  -19.6924  -25.6273   21.1264 H   0  0  0  0  0  0
  -19.6687  -27.3139   20.6694 H   0  0  0  0  0  0
  -17.4207  -26.6721   21.4029 H   0  0  0  0  0  0
  -18.0298  -26.0066   22.9002 H   0  0  0  0  0  0
  -19.7966  -30.7282   24.2224 H   0  0  0  0  0  0
  -17.5054  -31.6266   24.5177 H   0  0  0  0  0  0
  -15.5377  -30.2994   23.7631 H   0  0  0  0  0  0
  -15.8719  -28.0778   22.7150 H   0  0  0  0  0  0
  -24.5845  -30.7110   25.7691 H   0  0  0  0  0  0
  -24.8820  -32.2891   26.4779 H   0  0  0  0  0  0
  -25.7854  -30.8917   27.0218 H   0  0  0  0  0  0
  -26.2963  -29.6718   24.1299 H   0  0  0  0  0  0
  -27.4012  -29.7232   25.4830 H   0  0  0  0  0  0
  -27.8884  -30.4248   23.9609 H   0  0  0  0  0  0
  -27.2715  -33.3661   26.1992 H   0  0  0  0  0  0
  -28.3884  -32.6814   25.0278 H   0  0  0  0  0  0
  -28.0769  -31.8479   26.5405 H   0  0  0  0  0  0
  -28.2539  -38.0109   24.7478 H   0  0  0  0  0  0
  -28.1102  -36.2641   24.6294 H   0  0  0  0  0  0
  -27.2304  -37.1399   25.8869 H   0  0  0  0  0  0
  -20.9446  -29.8805   21.6810 H   0  0  0  0  0  0
  -26.0172  -38.2839   24.1427 H   0  0  0  0  0  0
  -29.0214  -21.5787   17.8067 H   0  0  0  0  0  0
  -31.0374  -16.9765   18.2224 H   0  0  0  0  0  0
  -30.3210  -17.5131   16.7056 H   0  0  0  0  0  0
  -29.3145  -16.6357   17.8548 H   0  0  0  0  0  0
  -29.3680  -21.6867   21.5317 H   0  0  0  0  0  0
  -27.7608  -21.5303   20.9615 H   0  0  0  0  0  0
  -29.2469  -17.8818   21.6591 H   0  0  0  0  0  0
  -30.8840  -17.8371   21.1449 H   0  0  0  0  0  0
  -28.3718  -23.2342   18.9960 H   0  0  0  0  0  0
  -29.8591  -23.5341   19.8316 H   0  0  0  0  0  0
  -28.3733  -24.6824   21.6828 H   0  0  0  0  0  0
  -27.0114  -24.4801   20.6646 H   0  0  0  0  0  0
  -28.7209  -15.8646   20.5806 H   0  0  0  0  0  0
  1 25  1  0  0  0
  1 30  2  0  0  0
  1 81  1  0  0  0
  2  3  1  0  0  0
  2 25  1  0  0  0
  2 82  1  0  0  0
  2 83  1  0  0  0
  3  4  1  0  0  0
  3 84  1  0  0  0
  3 85  1  0  0  0
  4  5  1  0  0  0
  4 86  1  0  0  0
  4 87  1  0  0  0
  5  6  1  0  0  0
  5 26  1  0  0  0
  5 88  1  0  0  0
  6 25  1  0  0  0
  6 89  1  0  0  0
  6 90  1  0  0  0
  7  8  2  0  0  0
  7 26  1  0  0  0
  7 29  1  0  0  0
  8  9  1  0  0  0
  8 22  1  0  0  0
  9 10  1  0  0  0
  9 27  2  0  0  0
 10 11  2  0  0  0
 10 15  1  0  0  0
 11 12  1  0  0  0
 11 91  1  0  0  0
 12 13  2  0  0  0
 12 92  1  0  0  0
 13 14  1  0  0  0
 13 31  1  0  0  0
 14 15  2  0  0  0
 14 93  1  0  0  0
 15 94  1  0  0  0
 16 17  2  0  0  0
 16 21  1  0  0  0
 16 31  1  0  0  0
 17 18  1  0  0  0
 17 95  1  0  0  0
 18 19  2  0  0  0
 18 96  1  0  0  0
 19 20  1  0  0  0
 19 24  1  0  0  0
 20 21  2  0  0  0
 20 97  1  0  0  0
 21 23  1  0  0  0
 22 28  1  0  0  0
 22 32  2  0  0  0
 26 27  1  0  0  0
 28 98  1  0  0  0
 28 99  1  0  0  0
 29100  1  0  0  0
 29101  1  0  0  0
 33 34  1  0  0  0
 33 66  1  0  0  0
 33 70  2  0  0  0
 34 36  1  0  0  0
 34 59  1  0  0  0
 34102  1  0  0  0
 35 44  2  0  0  0
 35 45  1  0  0  0
 35 68  1  0  0  0
 36 56  1  0  0  0
 36103  1  0  0  0
 37 39  1  0  0  0
 37 47  1  0  0  0
 37 66  1  0  0  0
 37104  1  0  0  0
 38 43  2  0  0  0
 38 46  1  0  0  0
 38 47  1  0  0  0
 39 64  1  0  0  0
 39 67  2  0  0  0
 40 52  1  0  0  0
 40 53  2  0  0  0
 40 58  1  0  0  0
 41105  1  0  0  0
 41106  1  0  0  0
 41107  1  0  0  0
 41 48  1  0  0  0
 42 43  1  0  0  0
 42 66  1  0  0  0
 42108  1  0  0  0
 42109  1  0  0  0
 43 44  1  0  0  0
 44110  1  0  0  0
 45 46  2  0  0  0
 45111  1  0  0  0
 46112  1  0  0  0
 47113  1  0  0  0
 47114  1  0  0  0
 48 56  1  0  0  0
 48 65  1  0  0  0
 48115  1  0  0  0
 49 50  1  0  0  0
 49 53  1  0  0  0
 49 64  1  0  0  0
 49116  1  0  0  0
 50 51  1  0  0  0
 50117  1  0  0  0
 50118  1  0  0  0
 51 52  1  0  0  0
 51119  1  0  0  0
 51120  1  0  0  0
 52121  1  0  0  0
 52122  1  0  0  0
 53 54  1  0  0  0
 54 55  2  0  0  0
 54123  1  0  0  0
 55 57  1  0  0  0
 55124  1  0  0  0
 56 69  2  0  0  0
 57 58  2  0  0  0
 57125  1  0  0  0
 58126  1  0  0  0
 59 60  1  0  0  0
 59 61  1  0  0  0
 59 62  1  0  0  0
 60127  1  0  0  0
 60128  1  0  0  0
 60129  1  0  0  0
 61130  1  0  0  0
 61131  1  0  0  0
 61132  1  0  0  0
 62133  1  0  0  0
 62134  1  0  0  0
 62135  1  0  0  0
 63 65  1  0  0  0
 63136  1  0  0  0
 63137  1  0  0  0
 63138  1  0  0  0
 64139  1  0  0  0
 65140  1  0  0  0
 68 78  1  0  0  0
 71 72  1  0  0  0
 71 79  2  0  0  0
 71141  1  0  0  0
 72 73  2  0  0  0
 72 75  1  0  0  0
 73 76  1  0  0  0
 73 80  1  0  0  0
 74 80  1  0  0  0
 74142  1  0  0  0
 74143  1  0  0  0
 74144  1  0  0  0
 75 77  1  0  0  0
 75145  1  0  0  0
 75146  1  0  0  0
 76 81  1  0  0  0
 76147  1  0  0  0
 76148  1  0  0  0
 77 78  1  0  0  0
 77149  1  0  0  0
 77150  1  0  0  0
 78151  1  0  0  0
 78152  1  0  0  0
 79 80  1  0  0  0
 81153  1  0  0  0
M  ISO  4   1 100  68 101  78 101  81 100
M  END
> <chiral flag>
0

> <version>
0

> <s_m_source_file>
/data/baiqing/PycharmProjects/Reinvent-master-3.2/result/LINK_invent/BTK/process_docking_weight1_custom_sum_contain_oxygen_bond_distance_aromatic_linkinvent_7_9_3/rearranged_h_0046.sdf

> <i_m_source_file_index>
23

> <r_mmod_Potential_Energy-OPLS-2005>
496.749725341797

> <r_mmod_Stretch_Energy-OPLS-2005>
290.165283203125

> <r_mmod_Bend_Energy-OPLS-2005>
298.992645263672

> <r_mmod_Torsional_Energy-OPLS-2005>
219.108062744141

> <r_mmod_Improper_Torsional_Energy-OPLS-2005>
4.82720756530762

> <r_mmod_Van_der_Waal_Energy-OPLS-2005>
109.597984313965

> <r_mmod_Electrostatic_Energy-OPLS-2005>
-399.132202148438

> <r_mmod_Solvation_Energy-OPLS-2005>
-230.007202148438

> <b_mmod_Minimization_Converged-OPLS-2005>
0

> <r_mmod_RMS_Derivative-OPLS-2005>
6.34550905227661

$$$$
23
                    3D
 Structure written by MMmdl.
159167  0  0  1  0            999 V2000
  -30.6763  -14.5098   20.5181 C   0  0  0  0  0  0
  -30.4231  -12.3114   19.4269 C   0  0  0  0  0  0
  -29.4954  -12.4875   18.2062 C   0  0  0  0  0  0
  -28.0153  -12.3513   18.6185 C   0  0  0  0  0  0
  -27.6565  -13.2069   19.8644 C   0  0  2  0  0  0
  -28.7023  -13.0121   20.9860 C   0  0  0  0  0  0
  -25.2568  -13.8166   20.5689 C   0  0  0  0  0  0
  -24.1827  -13.0454   20.9210 C   0  0  0  0  0  0
  -24.6373  -11.6917   20.8763 C   0  0  0  0  0  0
  -23.9039  -10.4310   21.0410 C   0  0  0  0  0  0
  -24.3599   -9.4216   21.9189 C   0  0  0  0  0  0
  -23.6294   -8.2236   22.0742 C   0  0  0  0  0  0
  -22.4273   -8.0277   21.3529 C   0  0  0  0  0  0
  -21.9898   -9.0250   20.4635 C   0  0  0  0  0  0
  -22.7214  -10.2141   20.3051 C   0  0  0  0  0  0
  -21.6845   -6.0739   22.5286 C   0  0  0  0  0  0
  -21.4010   -6.5635   23.8225 C   0  0  0  0  0  0
  -21.3660   -5.6775   24.9186 C   0  0  0  0  0  0
  -21.6043   -4.3048   24.7230 C   0  0  0  0  0  0
  -21.8820   -3.8143   23.4347 C   0  0  0  0  0  0
  -21.9186   -4.6958   22.3405 C   0  0  0  0  0  0
  -22.7842  -13.5250   21.1872 C   0  0  0  0  0  0
  -22.1651   -4.2147   21.0983 F   0  0  0  0  0  0
  -21.5622   -3.4532   25.7740 F   0  0  0  0  0  0
  -30.0268  -13.3175   20.4235 N   0  0  0  0  0  0
  -26.3004  -12.9334   20.3330 N   0  0  0  0  0  0
  -25.9302  -11.6505   20.5765 N   0  0  0  0  0  0
  -22.0470  -12.8259   22.0426 N   0  0  0  0  0  0
  -25.4280  -15.1888   20.4045 N   0  0  0  0  0  0
  -31.8380  -14.6733   20.1321 O   0  0  0  0  0  0
  -21.6624   -6.8884   21.4243 O   0  0  0  0  0  0
  -22.3528  -14.5565   20.6719 O   0  0  0  0  0  0
  -24.6223  -31.8590   23.2053 C   0  0  0  0  0  0
  -25.9084  -32.4771   23.8346 C   0  0  1  0  0  0
  -27.1996  -27.3555   20.1195 C   0  0  0  0  0  0
  -25.5924  -33.8581   24.2276 N   0  0  0  0  0  0
  -23.4112  -30.4885   21.5449 C   0  0  2  0  0  0
  -24.8472  -28.9460   20.1104 C   0  0  0  0  0  0
  -22.7433  -29.4631   22.4927 C   0  0  0  0  0  0
  -18.0281  -28.1344   22.8501 C   0  0  0  0  0  0
  -24.1491  -36.7312   23.2626 C   0  0  0  0  0  0
  -25.9471  -30.8081   21.3608 C   0  0  0  0  0  0
  -26.0156  -29.4375   20.7072 C   0  0  0  0  0  0
  -27.1981  -28.6528   20.7002 C   0  0  0  0  0  0
  -26.0154  -26.9000   19.4984 C   0  0  0  0  0  0
  -24.8464  -27.6815   19.4971 C   0  0  0  0  0  0
  -23.6176  -29.8249   20.1586 C   0  0  0  0  0  0
  -25.4110  -36.3090   24.0320 C   0  0  1  0  0  0
  -20.5880  -28.3646   23.1295 C   0  0  2  0  0  0
  -20.6765  -26.9369   22.5408 C   0  0  0  0  0  0
  -19.5740  -26.6358   21.5203 C   0  0  0  0  0  0
  -18.1924  -26.7893   22.1629 C   0  0  0  0  0  0
  -19.1533  -28.8810   23.2897 C   0  0  0  0  0  0
  -18.9459  -30.1420   23.8898 C   0  0  0  0  0  0
  -17.6461  -30.6555   24.0559 C   0  0  0  0  0  0
  -25.9049  -34.9455   23.5100 C   0  0  0  0  0  0
  -16.5350  -29.9054   23.6322 C   0  0  0  0  0  0
  -16.7270  -28.6465   23.0352 C   0  0  0  0  0  0
  -26.4502  -31.6572   25.0700 C   0  0  0  0  0  0
  -25.3786  -31.3720   26.1466 C   0  0  0  0  0  0
  -27.0305  -30.2996   24.6099 C   0  0  0  0  0  0
  -27.6049  -32.4309   25.7477 C   0  0  0  0  0  0
  -27.5585  -37.1787   24.8441 C   0  0  0  0  0  0
  -21.4144  -29.3030   22.3693 N   0  0  0  0  0  0
  -26.4270  -37.3801   23.9435 N   0  0  0  0  0  0
  -24.6797  -31.0683   22.0943 N   0  0  0  0  0  0
  -23.4192  -28.8142   23.2951 O   0  0  0  0  0  0
  -28.3220  -26.5410   20.1528 O   0  0  0  0  0  0
  -26.5610  -34.8924   22.4660 O   0  0  0  0  0  0
  -23.5413  -32.1305   23.7467 O   0  0  0  0  0  0
  -26.5311  -21.9031   20.6074 C   0  0  0  0  0  0
  -27.9275  -21.6604   20.4628 C   0  0  0  0  0  0
  -28.0888  -20.3599   20.9257 C   0  0  0  0  0  0
  -26.4812  -18.8160   22.2155 C   0  0  0  0  0  0
  -28.9711  -22.6448   19.9374 C   0  0  0  0  0  0
  -29.3038  -19.4381   21.0374 C   0  0  0  0  0  0
  -28.5159  -24.0822   19.4781 C   0  0  0  0  0  0
  -29.1519  -17.9717   20.4973 C   0  0  0  0  0  0
  -30.2908  -16.9900   20.9180 C   0  0  0  0  0  0
  -28.1289  -25.1456   20.5561 C   0  0  0  0  0  0
  -25.9023  -20.9156   21.2151 N   0  0  0  0  0  0
  -26.8557  -19.9931   21.4530 N   0  0  0  0  0  0
  -29.9058  -15.5589   20.8723 N   0  0  0  0  0  0
  -31.4681  -12.4071   19.1290 H   0  0  0  0  0  0
  -30.3203  -11.3101   19.8491 H   0  0  0  0  0  0
  -29.7409  -11.7508   17.4399 H   0  0  0  0  0  0
  -29.6608  -13.4659   17.7522 H   0  0  0  0  0  0
  -27.8341  -11.2977   18.8318 H   0  0  0  0  0  0
  -27.3636  -12.6043   17.7817 H   0  0  0  0  0  0
  -27.6907  -14.2513   19.5515 H   0  0  0  0  0  0
  -28.6841  -11.9804   21.3435 H   0  0  0  0  0  0
  -28.4714  -13.6293   21.8563 H   0  0  0  0  0  0
  -25.2736   -9.5695   22.4765 H   0  0  0  0  0  0
  -24.0010   -7.4606   22.7447 H   0  0  0  0  0  0
  -21.0826   -8.8771   19.8929 H   0  0  0  0  0  0
  -22.3681  -10.9678   19.6156 H   0  0  0  0  0  0
  -21.2005   -7.6140   23.9743 H   0  0  0  0  0  0
  -21.1484   -6.0500   25.9093 H   0  0  0  0  0  0
  -22.0602   -2.7603   23.2844 H   0  0  0  0  0  0
  -22.4076  -11.9918   22.4812 H   0  0  0  0  0  0
  -21.1077  -13.1275   22.2627 H   0  0  0  0  0  0
  -24.6540  -15.8370   20.4973 H   0  0  0  0  0  0
  -26.2652  -15.6184   20.0315 H   0  0  0  0  0  0
  -26.7150  -32.5447   23.1093 H   0  0  0  0  0  0
  -25.0137  -33.9732   25.0465 H   0  0  0  0  0  0
  -22.7045  -31.3098   21.4082 H   0  0  0  0  0  0
  -23.3746  -35.9650   23.3257 H   0  0  0  0  0  0
  -24.3605  -36.8960   22.2049 H   0  0  0  0  0  0
  -23.7238  -37.6505   23.6663 H   0  0  0  0  0  0
  -26.0690  -31.5711   20.5909 H   0  0  0  0  0  0
  -26.8352  -30.8584   21.9809 H   0  0  0  0  0  0
  -28.0988  -29.0208   21.1719 H   0  0  0  0  0  0
  -25.9811  -25.9315   19.0206 H   0  0  0  0  0  0
  -23.9492  -27.3013   19.0267 H   0  0  0  0  0  0
  -23.7344  -30.5990   19.3982 H   0  0  0  0  0  0
  -22.7378  -29.2508   19.8616 H   0  0  0  0  0  0
  -25.1293  -36.1926   25.0810 H   0  0  0  0  0  0
  -21.0007  -28.3195   24.1398 H   0  0  0  0  0  0
  -20.5650  -26.2244   23.3595 H   0  0  0  0  0  0
  -21.6632  -26.7364   22.1211 H   0  0  0  0  0  0
  -19.6887  -25.6270   21.1214 H   0  0  0  0  0  0
  -19.6674  -27.3188   20.6745 H   0  0  0  0  0  0
  -17.4192  -26.6639   21.4032 H   0  0  0  0  0  0
  -18.0314  -26.0023   22.9013 H   0  0  0  0  0  0
  -19.7940  -30.7244   24.2248 H   0  0  0  0  0  0
  -17.5014  -31.6248   24.5142 H   0  0  0  0  0  0
  -15.5347  -30.2966   23.7633 H   0  0  0  0  0  0
  -15.8667  -28.0799   22.7050 H   0  0  0  0  0  0
  -24.5921  -30.7095   25.7840 H   0  0  0  0  0  0
  -24.9044  -32.2907   26.4920 H   0  0  0  0  0  0
  -25.8160  -30.8884   27.0208 H   0  0  0  0  0  0
  -26.2822  -29.6781   24.1157 H   0  0  0  0  0  0
  -27.4047  -29.7225   25.4564 H   0  0  0  0  0  0
  -27.8693  -30.4282   23.9255 H   0  0  0  0  0  0
  -27.2595  -33.3571   26.2082 H   0  0  0  0  0  0
  -28.3839  -32.6919   25.0303 H   0  0  0  0  0  0
  -28.0731  -31.8420   26.5372 H   0  0  0  0  0  0
  -28.2536  -38.0152   24.7597 H   0  0  0  0  0  0
  -28.1136  -36.2688   24.6107 H   0  0  0  0  0  0
  -27.2327  -37.1257   25.8843 H   0  0  0  0  0  0
  -20.9253  -29.8809   21.7001 H   0  0  0  0  0  0
  -26.0134  -38.2849   24.1524 H   0  0  0  0  0  0
  -25.9608  -22.7821   20.3378 H   0  0  0  0  0  0
  -27.3271  -18.4607   22.8060 H   0  0  0  0  0  0
  -26.1512  -18.0288   21.5381 H   0  0  0  0  0  0
  -25.6689  -19.0498   22.9044 H   0  0  0  0  0  0
  -29.4662  -22.1898   19.0786 H   0  0  0  0  0  0
  -29.7583  -22.7527   20.6825 H   0  0  0  0  0  0
  -29.5884  -19.3827   22.0889 H   0  0  0  0  0  0
  -30.1577  -19.9018   20.5431 H   0  0  0  0  0  0
  -27.7257  -24.0095   18.7320 H   0  0  0  0  0  0
  -29.3684  -24.4965   18.9380 H   0  0  0  0  0  0
  -29.0652  -17.9954   19.4105 H   0  0  0  0  0  0
  -28.2175  -17.5413   20.8400 H   0  0  0  0  0  0
  -30.5920  -17.1969   21.9446 H   0  0  0  0  0  0
  -31.1693  -17.1766   20.2966 H   0  0  0  0  0  0
  -28.7263  -24.9766   21.4533 H   0  0  0  0  0  0
  -27.1032  -24.9531   20.8719 H   0  0  0  0  0  0
  -28.9625  -15.3258   21.1404 H   0  0  0  0  0  0
  1 25  1  0  0  0
  1 30  2  0  0  0
  1 83  1  0  0  0
  2  3  1  0  0  0
  2 25  1  0  0  0
  2 84  1  0  0  0
  2 85  1  0  0  0
  3  4  1  0  0  0
  3 86  1  0  0  0
  3 87  1  0  0  0
  4  5  1  0  0  0
  4 88  1  0  0  0
  4 89  1  0  0  0
  5  6  1  0  0  0
  5 26  1  0  0  0
  5 90  1  0  0  0
  6 25  1  0  0  0
  6 91  1  0  0  0
  6 92  1  0  0  0
  7  8  2  0  0  0
  7 26  1  0  0  0
  7 29  1  0  0  0
  8  9  1  0  0  0
  8 22  1  0  0  0
  9 10  1  0  0  0
  9 27  2  0  0  0
 10 11  2  0  0  0
 10 15  1  0  0  0
 11 12  1  0  0  0
 11 93  1  0  0  0
 12 13  2  0  0  0
 12 94  1  0  0  0
 13 14  1  0  0  0
 13 31  1  0  0  0
 14 15  2  0  0  0
 14 95  1  0  0  0
 15 96  1  0  0  0
 16 17  2  0  0  0
 16 21  1  0  0  0
 16 31  1  0  0  0
 17 18  1  0  0  0
 17 97  1  0  0  0
 18 19  2  0  0  0
 18 98  1  0  0  0
 19 20  1  0  0  0
 19 24  1  0  0  0
 20 21  2  0  0  0
 20 99  1  0  0  0
 21 23  1  0  0  0
 22 28  1  0  0  0
 22 32  2  0  0  0
 26 27  1  0  0  0
 28100  1  0  0  0
 28101  1  0  0  0
 29102  1  0  0  0
 29103  1  0  0  0
 33 34  1  0  0  0
 33 66  1  0  0  0
 33 70  2  0  0  0
 34 36  1  0  0  0
 34 59  1  0  0  0
 34104  1  0  0  0
 35 44  2  0  0  0
 35 45  1  0  0  0
 35 68  1  0  0  0
 36 56  1  0  0  0
 36105  1  0  0  0
 37 39  1  0  0  0
 37 47  1  0  0  0
 37 66  1  0  0  0
 37106  1  0  0  0
 38 43  2  0  0  0
 38 46  1  0  0  0
 38 47  1  0  0  0
 39 64  1  0  0  0
 39 67  2  0  0  0
 40 52  1  0  0  0
 40 53  2  0  0  0
 40 58  1  0  0  0
 41107  1  0  0  0
 41108  1  0  0  0
 41109  1  0  0  0
 41 48  1  0  0  0
 42 43  1  0  0  0
 42 66  1  0  0  0
 42110  1  0  0  0
 42111  1  0  0  0
 43 44  1  0  0  0
 44112  1  0  0  0
 45 46  2  0  0  0
 45113  1  0  0  0
 46114  1  0  0  0
 47115  1  0  0  0
 47116  1  0  0  0
 48 56  1  0  0  0
 48 65  1  0  0  0
 48117  1  0  0  0
 49 50  1  0  0  0
 49 53  1  0  0  0
 49 64  1  0  0  0
 49118  1  0  0  0
 50 51  1  0  0  0
 50119  1  0  0  0
 50120  1  0  0  0
 51 52  1  0  0  0
 51121  1  0  0  0
 51122  1  0  0  0
 52123  1  0  0  0
 52124  1  0  0  0
 53 54  1  0  0  0
 54 55  2  0  0  0
 54125  1  0  0  0
 55 57  1  0  0  0
 55126  1  0  0  0
 56 69  2  0  0  0
 57 58  2  0  0  0
 57127  1  0  0  0
 58128  1  0  0  0
 59 60  1  0  0  0
 59 61  1  0  0  0
 59 62  1  0  0  0
 60129  1  0  0  0
 60130  1  0  0  0
 60131  1  0  0  0
 61132  1  0  0  0
 61133  1  0  0  0
 61134  1  0  0  0
 62135  1  0  0  0
 62136  1  0  0  0
 62137  1  0  0  0
 63 65  1  0  0  0
 63138  1  0  0  0
 63139  1  0  0  0
 63140  1  0  0  0
 64141  1  0  0  0
 65142  1  0  0  0
 68 80  1  0  0  0
 71 72  1  0  0  0
 71 81  2  0  0  0
 71143  1  0  0  0
 72 73  2  0  0  0
 72 75  1  0  0  0
 73 76  1  0  0  0
 73 82  1  0  0  0
 74 82  1  0  0  0
 74144  1  0  0  0
 74145  1  0  0  0
 74146  1  0  0  0
 75 77  1  0  0  0
 75147  1  0  0  0
 75148  1  0  0  0
 76 78  1  0  0  0
 76149  1  0  0  0
 76150  1  0  0  0
 77 80  1  0  0  0
 77151  1  0  0  0
 77152  1  0  0  0
 78 79  1  0  0  0
 78153  1  0  0  0
 78154  1  0  0  0
 79 83  1  0  0  0
 79155  1  0  0  0
 79156  1  0  0  0
 80157  1  0  0  0
 80158  1  0  0  0
 81 82  1  0  0  0
 83159  1  0  0  0
M  ISO  4   1 100  68 101  80 101  83 100
M  END
> <chiral flag>
0

> <version>
0

> <s_m_source_file>
/data/baiqing/PycharmProjects/Reinvent-master-3.2/result/LINK_invent/BTK/process_docking_weight1_custom_sum_contain_oxygen_bond_distance_aromatic_linkinvent_7_9_3/rearranged_h_0046.sdf

> <i_m_source_file_index>
24

> <r_mmod_Potential_Energy-OPLS-2005>
-62.4932518005371

> <r_mmod_Stretch_Energy-OPLS-2005>
49.4552268981934

> <r_mmod_Bend_Energy-OPLS-2005>
109.812957763672

> <r_mmod_Torsional_Energy-OPLS-2005>
225.806137084961

> <r_mmod_Improper_Torsional_Energy-OPLS-2005>
4.89488840103149

> <r_mmod_Van_der_Waal_Energy-OPLS-2005>
120.313957214355

> <r_mmod_Electrostatic_Energy-OPLS-2005>
-374.103149414062

> <r_mmod_Solvation_Energy-OPLS-2005>
-226.067108154297

> <b_mmod_Minimization_Converged-OPLS-2005>
0

> <r_mmod_RMS_Derivative-OPLS-2005>
3.73860549926758

$$$$
24
                    3D
 Structure written by MMmdl.
165173  0  0  1  0            999 V2000
  -30.8113  -14.3263   20.6875 C   0  0  0  0  0  0
  -30.4063  -12.2714   19.3962 C   0  0  0  0  0  0
  -29.4836  -12.5310   18.1910 C   0  0  0  0  0  0
  -28.0073  -12.3968   18.6016 C   0  0  0  0  0  0
  -27.6699  -13.2070   19.8820 C   0  0  2  0  0  0
  -28.7077  -12.9526   21.0004 C   0  0  0  0  0  0
  -25.2607  -13.8168   20.5682 C   0  0  0  0  0  0
  -24.1857  -13.0440   20.9187 C   0  0  0  0  0  0
  -24.6413  -11.6911   20.8727 C   0  0  0  0  0  0
  -23.9075  -10.4300   21.0378 C   0  0  0  0  0  0
  -24.3619   -9.4234   21.9162 C   0  0  0  0  0  0
  -23.6316   -8.2259   22.0735 C   0  0  0  0  0  0
  -22.4299   -8.0281   21.3528 C   0  0  0  0  0  0
  -21.9923   -9.0258   20.4623 C   0  0  0  0  0  0
  -22.7238  -10.2147   20.3041 C   0  0  0  0  0  0
  -21.6870   -6.0745   22.5276 C   0  0  0  0  0  0
  -21.4012   -6.5652   23.8218 C   0  0  0  0  0  0
  -21.3663   -5.6800   24.9172 C   0  0  0  0  0  0
  -21.6055   -4.3066   24.7226 C   0  0  0  0  0  0
  -21.8819   -3.8163   23.4352 C   0  0  0  0  0  0
  -21.9190   -4.6972   22.3399 C   0  0  0  0  0  0
  -22.7878  -13.5225   21.1862 C   0  0  0  0  0  0
  -22.1648   -4.2158   21.0978 F   0  0  0  0  0  0
  -21.5641   -3.4560   25.7737 F   0  0  0  0  0  0
  -30.0586  -13.2121   20.4714 N   0  0  0  0  0  0
  -26.3063  -12.9333   20.3407 N   0  0  0  0  0  0
  -25.9340  -11.6485   20.5771 N   0  0  0  0  0  0
  -22.0535  -12.8207   22.0415 N   0  0  0  0  0  0
  -25.4375  -15.1889   20.4119 N   0  0  0  0  0  0
  -31.7686  -14.6218   19.9662 O   0  0  0  0  0  0
  -21.6646   -6.8887   21.4236 O   0  0  0  0  0  0
  -22.3555  -14.5537   20.6728 O   0  0  0  0  0  0
  -24.6087  -31.8706   23.2195 C   0  0  0  0  0  0
  -25.9016  -32.4851   23.8455 C   0  0  1  0  0  0
  -27.2406  -27.4941   20.0874 C   0  0  0  0  0  0
  -25.5907  -33.8650   24.2373 N   0  0  0  0  0  0
  -23.3935  -30.4965   21.5561 C   0  0  2  0  0  0
  -24.8401  -28.9674   20.1159 C   0  0  0  0  0  0
  -22.7358  -29.4672   22.5024 C   0  0  0  0  0  0
  -18.0251  -28.1366   22.8527 C   0  0  0  0  0  0
  -24.1473  -36.7303   23.2646 C   0  0  0  0  0  0
  -25.9135  -30.8522   21.3644 C   0  0  0  0  0  0
  -25.9894  -29.4891   20.7167 C   0  0  0  0  0  0
  -27.1882  -28.7517   20.7140 C   0  0  0  0  0  0
  -26.0741  -26.9651   19.4897 C   0  0  0  0  0  0
  -24.8709  -27.6991   19.5065 C   0  0  0  0  0  0
  -23.5998  -29.8297   20.1685 C   0  0  0  0  0  0
  -25.4104  -36.3121   24.0346 C   0  0  1  0  0  0
  -20.5842  -28.3633   23.1340 C   0  0  2  0  0  0
  -20.6743  -26.9383   22.5412 C   0  0  0  0  0  0
  -19.5722  -26.6381   21.5209 C   0  0  0  0  0  0
  -18.1903  -26.7931   22.1626 C   0  0  0  0  0  0
  -19.1510  -28.8817   23.2937 C   0  0  0  0  0  0
  -18.9444  -30.1438   23.8931 C   0  0  0  0  0  0
  -17.6451  -30.6582   24.0586 C   0  0  0  0  0  0
  -25.9024  -34.9475   23.5129 C   0  0  0  0  0  0
  -16.5339  -29.9094   23.6336 C   0  0  0  0  0  0
  -16.7255  -28.6495   23.0381 C   0  0  0  0  0  0
  -26.4488  -31.6627   25.0751 C   0  0  0  0  0  0
  -25.3788  -31.3681   26.1524 C   0  0  0  0  0  0
  -27.0350  -30.3112   24.6057 C   0  0  0  0  0  0
  -27.6070  -32.4368   25.7472 C   0  0  0  0  0  0
  -27.5584  -37.1786   24.8467 C   0  0  0  0  0  0
  -21.4095  -29.3027   22.3748 N   0  0  0  0  0  0
  -26.4287  -37.3819   23.9425 N   0  0  0  0  0  0
  -24.6564  -31.0866   22.1074 N   0  0  0  0  0  0
  -23.4140  -28.8211   23.3059 O   0  0  0  0  0  0
  -28.4479  -26.8454   20.1006 O   0  0  0  0  0  0
  -26.5568  -34.8905   22.4692 O   0  0  0  0  0  0
  -23.5285  -32.1447   23.7606 O   0  0  0  0  0  0
  -29.9037  -22.9508   20.1402 C   0  0  0  0  0  0
  -29.9322  -21.6945   20.7542 C   0  0  0  0  0  0
  -30.6712  -23.1647   18.9733 C   0  0  0  0  0  0
  -31.4015  -22.0704   18.4556 C   0  0  0  0  0  0
  -30.7357  -20.6892   20.2078 C   0  0  0  0  0  0
  -32.1807  -22.1847   17.1547 C   0  0  0  0  0  0
  -30.6009  -14.7577   23.0918 C   0  0  0  0  0  0
  -30.7301  -24.5309   18.2841 C   0  0  0  0  0  0
  -30.2484  -25.7143   19.1349 C   0  0  0  0  0  0
  -31.7053  -17.3240   21.4181 C   0  0  0  0  0  0
  -30.3372  -16.5951   21.4510 C   0  0  0  0  0  0
  -28.7326  -25.9359   19.0604 C   0  0  0  0  0  0
  -31.7345  -18.5105   20.4396 C   0  0  0  0  0  0
  -31.4499  -20.8660   19.0714 N   0  0  0  0  0  0
  -30.4250  -15.1476   21.6891 N   0  0  0  0  0  0
  -30.7936  -19.4840   20.8710 O   0  0  0  0  0  0
  -31.4523  -12.3496   19.0899 H   0  0  0  0  0  0
  -30.2816  -11.2475   19.7522 H   0  0  0  0  0  0
  -29.7124  -11.8300   17.3861 H   0  0  0  0  0  0
  -29.6692  -13.5298   17.7907 H   0  0  0  0  0  0
  -27.7943  -11.3399   18.7557 H   0  0  0  0  0  0
  -27.3616  -12.7131   17.7809 H   0  0  0  0  0  0
  -27.7279  -14.2632   19.6187 H   0  0  0  0  0  0
  -28.6561  -11.9189   21.3371 H   0  0  0  0  0  0
  -28.4625  -13.5546   21.8760 H   0  0  0  0  0  0
  -25.2758   -9.5745   22.4722 H   0  0  0  0  0  0
  -24.0056   -7.4653   22.7441 H   0  0  0  0  0  0
  -21.0863   -8.8767   19.8908 H   0  0  0  0  0  0
  -22.3678  -10.9692   19.6162 H   0  0  0  0  0  0
  -21.1992   -7.6154   23.9734 H   0  0  0  0  0  0
  -21.1482   -6.0515   25.9076 H   0  0  0  0  0  0
  -22.0589   -2.7625   23.2847 H   0  0  0  0  0  0
  -22.4162  -11.9896   22.4845 H   0  0  0  0  0  0
  -21.1133  -13.1204   22.2561 H   0  0  0  0  0  0
  -24.6895  -15.8590   20.5531 H   0  0  0  0  0  0
  -26.3049  -15.6268   20.1237 H   0  0  0  0  0  0
  -26.7076  -32.5560   23.1202 H   0  0  0  0  0  0
  -25.0123  -33.9873   25.0558 H   0  0  0  0  0  0
  -22.6815  -31.3129   21.4204 H   0  0  0  0  0  0
  -23.3742  -35.9630   23.3300 H   0  0  0  0  0  0
  -24.3578  -36.8929   22.2066 H   0  0  0  0  0  0
  -23.7186  -37.6489   23.6665 H   0  0  0  0  0  0
  -26.0137  -31.6163   20.5932 H   0  0  0  0  0  0
  -26.8055  -30.9136   21.9732 H   0  0  0  0  0  0
  -28.0774  -29.1558   21.1768 H   0  0  0  0  0  0
  -26.0810  -25.9937   19.0164 H   0  0  0  0  0  0
  -23.9838  -27.2900   19.0422 H   0  0  0  0  0  0
  -23.7082  -30.6066   19.4119 H   0  0  0  0  0  0
  -22.7226  -29.2524   19.8714 H   0  0  0  0  0  0
  -25.1266  -36.2001   25.0844 H   0  0  0  0  0  0
  -20.9959  -28.3185   24.1455 H   0  0  0  0  0  0
  -20.5634  -26.2248   23.3594 H   0  0  0  0  0  0
  -21.6618  -26.7439   22.1211 H   0  0  0  0  0  0
  -19.6886  -25.6291   21.1234 H   0  0  0  0  0  0
  -19.6658  -27.3199   20.6745 H   0  0  0  0  0  0
  -17.4182  -26.6711   21.4016 H   0  0  0  0  0  0
  -18.0302  -26.0038   22.8976 H   0  0  0  0  0  0
  -19.7916  -30.7261   24.2292 H   0  0  0  0  0  0
  -17.5003  -31.6275   24.5176 H   0  0  0  0  0  0
  -15.5347  -30.3023   23.7623 H   0  0  0  0  0  0
  -15.8648  -28.0823   22.7108 H   0  0  0  0  0  0
  -24.5966  -30.7025   25.7858 H   0  0  0  0  0  0
  -24.8971  -32.2811   26.5031 H   0  0  0  0  0  0
  -25.8193  -30.8816   27.0235 H   0  0  0  0  0  0
  -26.2870  -29.6801   24.1246 H   0  0  0  0  0  0
  -27.4344  -29.7421   25.4451 H   0  0  0  0  0  0
  -27.8587  -30.4494   23.9052 H   0  0  0  0  0  0
  -27.2731  -33.3688   26.2031 H   0  0  0  0  0  0
  -28.3874  -32.6901   25.0290 H   0  0  0  0  0  0
  -28.0749  -31.8515   26.5386 H   0  0  0  0  0  0
  -28.2580  -38.0097   24.7589 H   0  0  0  0  0  0
  -28.1096  -36.2639   24.6213 H   0  0  0  0  0  0
  -27.2319  -37.1367   25.8871 H   0  0  0  0  0  0
  -20.9222  -29.8750   21.6986 H   0  0  0  0  0  0
  -26.0156  -38.2889   24.1477 H   0  0  0  0  0  0
  -29.3054  -23.7247   20.5919 H   0  0  0  0  0  0
  -29.3618  -21.5097   21.6531 H   0  0  0  0  0  0
  -31.6127  -22.7553   16.4183 H   0  0  0  0  0  0
  -32.3786  -21.2089   16.7141 H   0  0  0  0  0  0
  -33.1320  -22.6915   17.3172 H   0  0  0  0  0  0
  -29.6472  -14.7495   23.6219 H   0  0  0  0  0  0
  -31.2596  -15.4556   23.6085 H   0  0  0  0  0  0
  -31.0520  -13.7675   23.1908 H   0  0  0  0  0  0
  -30.1795  -24.4951   17.3428 H   0  0  0  0  0  0
  -31.7713  -24.7280   18.0211 H   0  0  0  0  0  0
  -30.7330  -26.6274   18.7836 H   0  0  0  0  0  0
  -30.5818  -25.6017   20.1682 H   0  0  0  0  0  0
  -32.5137  -16.6490   21.1384 H   0  0  0  0  0  0
  -31.9621  -17.6681   22.4210 H   0  0  0  0  0  0
  -29.8190  -16.7438   20.5026 H   0  0  0  0  0  0
  -29.6923  -17.0486   22.2018 H   0  0  0  0  0  0
  -28.1759  -25.0110   19.2066 H   0  0  0  0  0  0
  -28.4603  -26.3400   18.0829 H   0  0  0  0  0  0
  -31.4982  -18.1810   19.4253 H   0  0  0  0  0  0
  -32.7392  -18.9377   20.4199 H   0  0  0  0  0  0
  1 25  1  0  0  0
  1 30  2  0  0  0
  1 85  1  0  0  0
  2  3  1  0  0  0
  2 25  1  0  0  0
  2 87  1  0  0  0
  2 88  1  0  0  0
  3  4  1  0  0  0
  3 89  1  0  0  0
  3 90  1  0  0  0
  4  5  1  0  0  0
  4 91  1  0  0  0
  4 92  1  0  0  0
  5  6  1  0  0  0
  5 26  1  0  0  0
  5 93  1  0  0  0
  6 25  1  0  0  0
  6 94  1  0  0  0
  6 95  1  0  0  0
  7  8  2  0  0  0
  7 26  1  0  0  0
  7 29  1  0  0  0
  8  9  1  0  0  0
  8 22  1  0  0  0
  9 10  1  0  0  0
  9 27  2  0  0  0
 10 11  2  0  0  0
 10 15  1  0  0  0
 11 12  1  0  0  0
 11 96  1  0  0  0
 12 13  2  0  0  0
 12 97  1  0  0  0
 13 14  1  0  0  0
 13 31  1  0  0  0
 14 15  2  0  0  0
 14 98  1  0  0  0
 15 99  1  0  0  0
 16 17  2  0  0  0
 16 21  1  0  0  0
 16 31  1  0  0  0
 17 18  1  0  0  0
 17100  1  0  0  0
 18 19  2  0  0  0
 18101  1  0  0  0
 19 20  1  0  0  0
 19 24  1  0  0  0
 20 21  2  0  0  0
 20102  1  0  0  0
 21 23  1  0  0  0
 22 28  1  0  0  0
 22 32  2  0  0  0
 26 27  1  0  0  0
 28103  1  0  0  0
 28104  1  0  0  0
 29105  1  0  0  0
 29106  1  0  0  0
 33 34  1  0  0  0
 33 66  1  0  0  0
 33 70  2  0  0  0
 34 36  1  0  0  0
 34 59  1  0  0  0
 34107  1  0  0  0
 35 44  2  0  0  0
 35 45  1  0  0  0
 35 68  1  0  0  0
 36 56  1  0  0  0
 36108  1  0  0  0
 37 39  1  0  0  0
 37 47  1  0  0  0
 37 66  1  0  0  0
 37109  1  0  0  0
 38 43  2  0  0  0
 38 46  1  0  0  0
 38 47  1  0  0  0
 39 64  1  0  0  0
 39 67  2  0  0  0
 40 52  1  0  0  0
 40 53  2  0  0  0
 40 58  1  0  0  0
 41110  1  0  0  0
 41111  1  0  0  0
 41112  1  0  0  0
 41 48  1  0  0  0
 42 43  1  0  0  0
 42 66  1  0  0  0
 42113  1  0  0  0
 42114  1  0  0  0
 43 44  1  0  0  0
 44115  1  0  0  0
 45 46  2  0  0  0
 45116  1  0  0  0
 46117  1  0  0  0
 47118  1  0  0  0
 47119  1  0  0  0
 48 56  1  0  0  0
 48 65  1  0  0  0
 48120  1  0  0  0
 49 50  1  0  0  0
 49 53  1  0  0  0
 49 64  1  0  0  0
 49121  1  0  0  0
 50 51  1  0  0  0
 50122  1  0  0  0
 50123  1  0  0  0
 51 52  1  0  0  0
 51124  1  0  0  0
 51125  1  0  0  0
 52126  1  0  0  0
 52127  1  0  0  0
 53 54  1  0  0  0
 54 55  2  0  0  0
 54128  1  0  0  0
 55 57  1  0  0  0
 55129  1  0  0  0
 56 69  2  0  0  0
 57 58  2  0  0  0
 57130  1  0  0  0
 58131  1  0  0  0
 59 60  1  0  0  0
 59 61  1  0  0  0
 59 62  1  0  0  0
 60132  1  0  0  0
 60133  1  0  0  0
 60134  1  0  0  0
 61135  1  0  0  0
 61136  1  0  0  0
 61137  1  0  0  0
 62138  1  0  0  0
 62139  1  0  0  0
 62140  1  0  0  0
 63 65  1  0  0  0
 63141  1  0  0  0
 63142  1  0  0  0
 63143  1  0  0  0
 64144  1  0  0  0
 65145  1  0  0  0
 68 82  1  0  0  0
 71 72  2  0  0  0
 71 73  1  0  0  0
 71146  1  0  0  0
 72 75  1  0  0  0
 72147  1  0  0  0
 73 74  2  0  0  0
 73 78  1  0  0  0
 74 76  1  0  0  0
 74 84  1  0  0  0
 75 84  2  0  0  0
 75 86  1  0  0  0
 76148  1  0  0  0
 76149  1  0  0  0
 76150  1  0  0  0
 77 85  1  0  0  0
 77151  1  0  0  0
 77152  1  0  0  0
 77153  1  0  0  0
 78 79  1  0  0  0
 78154  1  0  0  0
 78155  1  0  0  0
 79 82  1  0  0  0
 79156  1  0  0  0
 79157  1  0  0  0
 80 81  1  0  0  0
 80 83  1  0  0  0
 80158  1  0  0  0
 80159  1  0  0  0
 81 85  1  0  0  0
 81160  1  0  0  0
 81161  1  0  0  0
 82162  1  0  0  0
 82163  1  0  0  0
 83 86  1  0  0  0
 83164  1  0  0  0
 83165  1  0  0  0
M  ISO  4   1 100  68 101  82 101  85 100
M  END
> <chiral flag>
0

> <version>
0

> <s_m_source_file>
/data/baiqing/PycharmProjects/Reinvent-master-3.2/result/LINK_invent/BTK/process_docking_weight1_custom_sum_contain_oxygen_bond_distance_aromatic_linkinvent_7_9_3/rearranged_h_0046.sdf

> <i_m_source_file_index>
25

> <r_mmod_Potential_Energy-OPLS-2005>
-66.5892333984375

> <r_mmod_Stretch_Energy-OPLS-2005>
33.7605018615723

> <r_mmod_Bend_Energy-OPLS-2005>
105.016014099121

> <r_mmod_Torsional_Energy-OPLS-2005>
276.46435546875

> <r_mmod_Improper_Torsional_Energy-OPLS-2005>
3.46982979774475

> <r_mmod_Van_der_Waal_Energy-OPLS-2005>
174.290023803711

> <r_mmod_Electrostatic_Energy-OPLS-2005>
-469.108428955078

> <r_mmod_Solvation_Energy-OPLS-2005>
-199.811813354492

> <b_mmod_Minimization_Converged-OPLS-2005>
0

> <r_mmod_RMS_Derivative-OPLS-2005>
4.11682462692261

$$$$
25
                    3D
 Structure written by MMmdl.
181189  0  0  1  0            999 V2000
  -30.7723  -14.5966   20.2982 C   0  0  0  0  0  0
  -30.4181  -12.3409   19.4143 C   0  0  0  0  0  0
  -29.4552  -12.2245   18.2131 C   0  0  0  0  0  0
  -27.9830  -12.2153   18.6577 C   0  0  0  0  0  0
  -27.6261  -13.2053   19.7975 C   0  0  2  0  0  0
  -28.7006  -13.2319   20.8980 C   0  0  0  0  0  0
  -25.2395  -13.7999   20.5366 C   0  0  0  0  0  0
  -24.1759  -13.0377   20.9258 C   0  0  0  0  0  0
  -24.6336  -11.6844   20.8890 C   0  0  0  0  0  0
  -23.8992  -10.4235   21.0488 C   0  0  0  0  0  0
  -24.3522   -9.4130   21.9259 C   0  0  0  0  0  0
  -23.6268   -8.2107   22.0717 C   0  0  0  0  0  0
  -22.4288   -8.0176   21.3487 C   0  0  0  0  0  0
  -21.9908   -9.0160   20.4613 C   0  0  0  0  0  0
  -22.7158  -10.2085   20.3099 C   0  0  0  0  0  0
  -21.6809   -6.0705   22.5260 C   0  0  0  0  0  0
  -21.3991   -6.5607   23.8202 C   0  0  0  0  0  0
  -21.3675   -5.6770   24.9167 C   0  0  0  0  0  0
  -21.6062   -4.3016   24.7216 C   0  0  0  0  0  0
  -21.8797   -3.8102   23.4331 C   0  0  0  0  0  0
  -21.9170   -4.6923   22.3399 C   0  0  0  0  0  0
  -22.7764  -13.5168   21.1928 C   0  0  0  0  0  0
  -22.1644   -4.2122   21.0984 F   0  0  0  0  0  0
  -21.5677   -3.4496   25.7716 F   0  0  0  0  0  0
  -29.9889  -13.4789   20.2335 N   0  0  0  0  0  0
  -26.2906  -12.9282   20.3211 N   0  0  0  0  0  0
  -25.9282  -11.6479   20.6016 N   0  0  0  0  0  0
  -22.0388  -12.8242   22.0512 N   0  0  0  0  0  0
  -25.3910  -15.1523   20.2813 N   0  0  0  0  0  0
  -31.9281  -14.4480   20.6687 O   0  0  0  0  0  0
  -21.6611   -6.8810   21.4215 O   0  0  0  0  0  0
  -22.3453  -14.5485   20.6738 O   0  0  0  0  0  0
  -24.6132  -31.8682   23.2141 C   0  0  0  0  0  0
  -25.9047  -32.4823   23.8410 C   0  0  1  0  0  0
  -27.2340  -27.4450   20.1005 C   0  0  0  0  0  0
  -25.5930  -33.8624   24.2364 N   0  0  0  0  0  0
  -23.3998  -30.4938   21.5540 C   0  0  2  0  0  0
  -24.8408  -28.9565   20.1204 C   0  0  0  0  0  0
  -22.7419  -29.4662   22.5032 C   0  0  0  0  0  0
  -18.0294  -28.1338   22.8483 C   0  0  0  0  0  0
  -24.1488  -36.7295   23.2644 C   0  0  0  0  0  0
  -25.9278  -30.8355   21.3655 C   0  0  0  0  0  0
  -25.9992  -29.4718   20.7115 C   0  0  0  0  0  0
  -27.1959  -28.7273   20.6888 C   0  0  0  0  0  0
  -26.0494  -26.9325   19.5176 C   0  0  0  0  0  0
  -24.8603  -27.6861   19.5209 C   0  0  0  0  0  0
  -23.6053  -29.8240   20.1675 C   0  0  0  0  0  0
  -25.4117  -36.3128   24.0356 C   0  0  1  0  0  0
  -20.5871  -28.3662   23.1343 C   0  0  2  0  0  0
  -20.6788  -26.9396   22.5449 C   0  0  0  0  0  0
  -19.5793  -26.6334   21.5271 C   0  0  0  0  0  0
  -18.1981  -26.7872   22.1657 C   0  0  0  0  0  0
  -19.1534  -28.8843   23.2877 C   0  0  0  0  0  0
  -18.9400  -30.1451   23.8870 C   0  0  0  0  0  0
  -17.6374  -30.6545   24.0533 C   0  0  0  0  0  0
  -25.9052  -34.9486   23.5156 C   0  0  0  0  0  0
  -16.5306  -29.9024   23.6260 C   0  0  0  0  0  0
  -16.7266  -28.6446   23.0280 C   0  0  0  0  0  0
  -26.4493  -31.6598   25.0709 C   0  0  0  0  0  0
  -25.3765  -31.3667   26.1446 C   0  0  0  0  0  0
  -27.0337  -30.3050   24.6085 C   0  0  0  0  0  0
  -27.6084  -32.4310   25.7448 C   0  0  0  0  0  0
  -27.5608  -37.1805   24.8483 C   0  0  0  0  0  0
  -21.4154  -29.3023   22.3760 N   0  0  0  0  0  0
  -26.4316  -37.3800   23.9431 N   0  0  0  0  0  0
  -24.6652  -31.0803   22.1035 N   0  0  0  0  0  0
  -23.4197  -28.8193   23.3084 O   0  0  0  0  0  0
  -28.4394  -26.7767   20.0903 O   0  0  0  0  0  0
  -26.5578  -34.8923   22.4703 O   0  0  0  0  0  0
  -23.5321  -32.1454   23.7534 O   0  0  0  0  0  0
  -28.1987  -21.8728   20.3618 C   0  0  0  0  0  0
  -29.3172  -21.1893   22.4161 C   0  0  0  0  0  0
  -27.7616  -20.5535   20.1608 C   0  0  0  0  0  0
  -28.9122  -19.8553   22.1954 C   0  0  0  0  0  0
  -28.9310  -22.2103   21.5183 C   0  0  0  0  0  0
  -28.0984  -19.5364   21.0845 C   0  0  0  0  0  0
  -28.1890  -17.7294   17.6100 C   0  0  0  0  0  0
  -25.5005  -19.2135   22.2628 C   0  0  0  0  0  0
  -26.6246  -17.1111   23.1592 C   0  0  0  0  0  0
  -32.0353  -16.4766   19.1377 C   0  0  0  0  0  0
  -30.2646  -15.3539   17.9126 C   0  0  0  0  0  0
  -29.2679  -23.6622   21.8381 C   0  0  0  0  0  0
  -29.3978  -18.0578   18.5134 C   0  0  0  0  0  0
  -28.2031  -24.6956   21.3900 C   0  0  0  0  0  0
  -28.4612  -16.9342   20.6960 C   0  0  0  0  0  0
  -28.4765  -25.3489   20.0131 C   0  0  0  0  0  0
  -27.4754  -18.1497   20.9163 C   0  0  1  0  0  0
  -26.2814  -17.9295   21.9023 C   0  0  0  0  0  0
  -29.6929  -17.1230   19.7432 C   0  0  1  0  0  0
  -30.5970  -15.8651   19.3298 C   0  0  0  0  0  0
  -31.4490  -12.4438   19.0609 H   0  0  0  0  0  0
  -30.3828  -11.4369   20.0245 H   0  0  0  0  0  0
  -29.6721  -11.2908   17.6949 H   0  0  0  0  0  0
  -29.6079  -12.9602   17.4380 H   0  0  0  0  0  0
  -27.8002  -11.1990   19.0059 H   0  0  0  0  0  0
  -27.3188  -12.3605   17.8083 H   0  0  0  0  0  0
  -27.6062  -14.1921   19.3378 H   0  0  0  0  0  0
  -28.4720  -14.0061   21.6331 H   0  0  0  0  0  0
  -28.7264  -12.2817   21.4313 H   0  0  0  0  0  0
  -25.2592   -9.5632   22.4944 H   0  0  0  0  0  0
  -23.9946   -7.4469   22.7435 H   0  0  0  0  0  0
  -21.0827   -8.8644   19.8955 H   0  0  0  0  0  0
  -22.3535  -10.9641   19.6249 H   0  0  0  0  0  0
  -21.1987   -7.6122   23.9711 H   0  0  0  0  0  0
  -21.1556   -6.0498   25.9099 H   0  0  0  0  0  0
  -22.0567   -2.7554   23.2830 H   0  0  0  0  0  0
  -22.3908  -11.9867   22.4957 H   0  0  0  0  0  0
  -21.0970  -13.1266   22.2636 H   0  0  0  0  0  0
  -24.5778  -15.7521   20.2215 H   0  0  0  0  0  0
  -26.1960  -15.5207   19.7941 H   0  0  0  0  0  0
  -26.7108  -32.5530   23.1156 H   0  0  0  0  0  0
  -25.0151  -33.9793   25.0563 H   0  0  0  0  0  0
  -22.6854  -31.3089   21.4177 H   0  0  0  0  0  0
  -23.3774  -35.9612   23.3323 H   0  0  0  0  0  0
  -24.3590  -36.8860   22.2057 H   0  0  0  0  0  0
  -23.7196  -37.6497   23.6618 H   0  0  0  0  0  0
  -26.0506  -31.6062   20.6049 H   0  0  0  0  0  0
  -26.8115  -30.8788   21.9890 H   0  0  0  0  0  0
  -28.0916  -29.1336   21.1312 H   0  0  0  0  0  0
  -26.0152  -25.9624   19.0449 H   0  0  0  0  0  0
  -23.9657  -27.2892   19.0563 H   0  0  0  0  0  0
  -23.7100  -30.5966   19.4045 H   0  0  0  0  0  0
  -22.7288  -29.2411   19.8790 H   0  0  0  0  0  0
  -25.1285  -36.2015   25.0846 H   0  0  0  0  0  0
  -20.9920  -28.3259   24.1493 H   0  0  0  0  0  0
  -20.5687  -26.2308   23.3666 H   0  0  0  0  0  0
  -21.6675  -26.7461   22.1292 H   0  0  0  0  0  0
  -19.6981  -25.6265   21.1326 H   0  0  0  0  0  0
  -19.6750  -27.3105   20.6784 H   0  0  0  0  0  0
  -17.4268  -26.6675   21.4025 H   0  0  0  0  0  0
  -18.0355  -26.0026   22.9056 H   0  0  0  0  0  0
  -19.7834  -30.7308   24.2292 H   0  0  0  0  0  0
  -17.4847  -31.6229   24.5085 H   0  0  0  0  0  0
  -15.5286  -30.2865   23.7570 H   0  0  0  0  0  0
  -15.8659  -28.0775   22.6958 H   0  0  0  0  0  0
  -24.5954  -30.6993   25.7765 H   0  0  0  0  0  0
  -24.8927  -32.2796   26.4939 H   0  0  0  0  0  0
  -25.8105  -30.8801   27.0182 H   0  0  0  0  0  0
  -26.2859  -29.6746   24.1232 H   0  0  0  0  0  0
  -27.4234  -29.7332   25.4525 H   0  0  0  0  0  0
  -27.8651  -30.4401   23.9150 H   0  0  0  0  0  0
  -27.2761  -33.3614   26.2067 H   0  0  0  0  0  0
  -28.3870  -32.6841   25.0240 H   0  0  0  0  0  0
  -28.0797  -31.8398   26.5316 H   0  0  0  0  0  0
  -28.2634  -38.0085   24.7548 H   0  0  0  0  0  0
  -28.1073  -36.2624   24.6294 H   0  0  0  0  0  0
  -27.2318  -37.1460   25.8873 H   0  0  0  0  0  0
  -20.9317  -29.8725   21.6967 H   0  0  0  0  0  0
  -26.0208  -38.2883   24.1399 H   0  0  0  0  0  0
  -27.9304  -22.6255   19.6394 H   0  0  0  0  0  0
  -29.8812  -21.4348   23.3073 H   0  0  0  0  0  0
  -27.1604  -20.3278   19.2893 H   0  0  0  0  0  0
  -29.1698  -19.0877   22.9125 H   0  0  0  0  0  0
  -28.4948  -17.1140   16.7670 H   0  0  0  0  0  0
  -27.7494  -18.6432   17.1947 H   0  0  0  0  0  0
  -27.3964  -17.1913   18.1207 H   0  0  0  0  0  0
  -24.6447  -18.9803   22.8969 H   0  0  0  0  0  0
  -25.1132  -19.7082   21.3684 H   0  0  0  0  0  0
  -26.1101  -19.9293   22.8126 H   0  0  0  0  0  0
  -25.7547  -17.0119   23.8078 H   0  0  0  0  0  0
  -27.4139  -17.5865   23.7407 H   0  0  0  0  0  0
  -26.9339  -16.0973   22.8995 H   0  0  0  0  0  0
  -32.7712  -15.7384   18.8075 H   0  0  0  0  0  0
  -32.0958  -17.2678   18.3965 H   0  0  0  0  0  0
  -32.4163  -16.9012   20.0684 H   0  0  0  0  0  0
  -30.4290  -16.0947   17.1318 H   0  0  0  0  0  0
  -29.2310  -15.0218   17.8319 H   0  0  0  0  0  0
  -30.9336  -14.5332   17.6451 H   0  0  0  0  0  0
  -30.2547  -23.8998   21.4387 H   0  0  0  0  0  0
  -29.3634  -23.7326   22.9222 H   0  0  0  0  0  0
  -29.3160  -19.0735   18.8690 H   0  0  0  0  0  0
  -30.2638  -18.1528   17.8647 H   0  0  0  0  0  0
  -28.1878  -25.4845   22.1427 H   0  0  0  0  0  0
  -27.2031  -24.2628   21.4256 H   0  0  0  0  0  0
  -28.8581  -16.6356   21.6649 H   0  0  0  0  0  0
  -27.8821  -16.0831   20.3598 H   0  0  0  0  0  0
  -27.8311  -24.9452   19.2359 H   0  0  0  0  0  0
  -29.4832  -25.1037   19.6796 H   0  0  0  0  0  0
  -26.9444  -18.2309   19.9717 H   0  0  0  0  0  0
  -25.5494  -17.3417   21.3663 H   0  0  0  0  0  0
  -30.3418  -17.7364   20.3737 H   0  0  0  0  0  0
  1 25  1  0  0  0
  1 30  2  0  0  0
  1 90  1  0  0  0
  2  3  1  0  0  0
  2 25  1  0  0  0
  2 91  1  0  0  0
  2 92  1  0  0  0
  3  4  1  0  0  0
  3 93  1  0  0  0
  3 94  1  0  0  0
  4  5  1  0  0  0
  4 95  1  0  0  0
  4 96  1  0  0  0
  5  6  1  0  0  0
  5 26  1  0  0  0
  5 97  1  0  0  0
  6 25  1  0  0  0
  6 98  1  0  0  0
  6 99  1  0  0  0
  7  8  2  0  0  0
  7 26  1  0  0  0
  7 29  1  0  0  0
  8  9  1  0  0  0
  8 22  1  0  0  0
  9 10  1  0  0  0
  9 27  2  0  0  0
 10 11  2  0  0  0
 10 15  1  0  0  0
 11 12  1  0  0  0
 11100  1  0  0  0
 12 13  2  0  0  0
 12101  1  0  0  0
 13 14  1  0  0  0
 13 31  1  0  0  0
 14 15  2  0  0  0
 14102  1  0  0  0
 15103  1  0  0  0
 16 17  2  0  0  0
 16 21  1  0  0  0
 16 31  1  0  0  0
 17 18  1  0  0  0
 17104  1  0  0  0
 18 19  2  0  0  0
 18105  1  0  0  0
 19 20  1  0  0  0
 19 24  1  0  0  0
 20 21  2  0  0  0
 20106  1  0  0  0
 21 23  1  0  0  0
 22 28  1  0  0  0
 22 32  2  0  0  0
 26 27  1  0  0  0
 28107  1  0  0  0
 28108  1  0  0  0
 29109  1  0  0  0
 29110  1  0  0  0
 33 34  1  0  0  0
 33 66  1  0  0  0
 33 70  2  0  0  0
 34 36  1  0  0  0
 34 59  1  0  0  0
 34111  1  0  0  0
 35 44  2  0  0  0
 35 45  1  0  0  0
 35 68  1  0  0  0
 36 56  1  0  0  0
 36112  1  0  0  0
 37 39  1  0  0  0
 37 47  1  0  0  0
 37 66  1  0  0  0
 37113  1  0  0  0
 38 43  2  0  0  0
 38 46  1  0  0  0
 38 47  1  0  0  0
 39 64  1  0  0  0
 39 67  2  0  0  0
 40 52  1  0  0  0
 40 53  2  0  0  0
 40 58  1  0  0  0
 41114  1  0  0  0
 41115  1  0  0  0
 41116  1  0  0  0
 41 48  1  0  0  0
 42 43  1  0  0  0
 42 66  1  0  0  0
 42117  1  0  0  0
 42118  1  0  0  0
 43 44  1  0  0  0
 44119  1  0  0  0
 45 46  2  0  0  0
 45120  1  0  0  0
 46121  1  0  0  0
 47122  1  0  0  0
 47123  1  0  0  0
 48 56  1  0  0  0
 48 65  1  0  0  0
 48124  1  0  0  0
 49 50  1  0  0  0
 49 53  1  0  0  0
 49 64  1  0  0  0
 49125  1  0  0  0
 50 51  1  0  0  0
 50126  1  0  0  0
 50127  1  0  0  0
 51 52  1  0  0  0
 51128  1  0  0  0
 51129  1  0  0  0
 52130  1  0  0  0
 52131  1  0  0  0
 53 54  1  0  0  0
 54 55  2  0  0  0
 54132  1  0  0  0
 55 57  1  0  0  0
 55133  1  0  0  0
 56 69  2  0  0  0
 57 58  2  0  0  0
 57134  1  0  0  0
 58135  1  0  0  0
 59 60  1  0  0  0
 59 61  1  0  0  0
 59 62  1  0  0  0
 60136  1  0  0  0
 60137  1  0  0  0
 60138  1  0  0  0
 61139  1  0  0  0
 61140  1  0  0  0
 61141  1  0  0  0
 62142  1  0  0  0
 62143  1  0  0  0
 62144  1  0  0  0
 63 65  1  0  0  0
 63145  1  0  0  0
 63146  1  0  0  0
 63147  1  0  0  0
 64148  1  0  0  0
 65149  1  0  0  0
 68 86  1  0  0  0
 71 73  2  0  0  0
 71 75  1  0  0  0
 71150  1  0  0  0
 72 74  1  0  0  0
 72 75  2  0  0  0
 72151  1  0  0  0
 73 76  1  0  0  0
 73152  1  0  0  0
 74 76  2  0  0  0
 74153  1  0  0  0
 75 82  1  0  0  0
 76 87  1  0  0  0
 77 83  1  0  0  0
 77154  1  0  0  0
 77155  1  0  0  0
 77156  1  0  0  0
 78157  1  0  0  0
 78158  1  0  0  0
 78159  1  0  0  0
 78 88  1  0  0  0
 79 88  1  0  0  0
 79160  1  0  0  0
 79161  1  0  0  0
 79162  1  0  0  0
 80163  1  0  0  0
 80164  1  0  0  0
 80165  1  0  0  0
 80 90  1  0  0  0
 81 90  1  0  0  0
 81166  1  0  0  0
 81167  1  0  0  0
 81168  1  0  0  0
 82 84  1  0  0  0
 82169  1  0  0  0
 82170  1  0  0  0
 83171  1  0  0  0
 83172  1  0  0  0
 83 89  1  0  0  0
 84 86  1  0  0  0
 84173  1  0  0  0
 84174  1  0  0  0
 85 89  1  0  0  0
 85175  1  0  0  0
 85176  1  0  0  0
 85 87  1  0  0  0
 86177  1  0  0  0
 86178  1  0  0  0
 87 88  1  0  0  0
 87179  1  0  0  0
 88180  1  0  0  0
 89 90  1  0  0  0
 89181  1  0  0  0
M  ISO  4   1 100  68 101  86 101  90 100
M  END
> <chiral flag>
0

> <version>
0

> <s_m_source_file>
/data/baiqing/PycharmProjects/Reinvent-master-3.2/result/LINK_invent/BTK/process_docking_weight1_custom_sum_contain_oxygen_bond_distance_aromatic_linkinvent_7_9_3/rearranged_h_0046.sdf

> <i_m_source_file_index>
26

> <r_mmod_Potential_Energy-OPLS-2005>
392.326416015625

> <r_mmod_Stretch_Energy-OPLS-2005>
61.0061149597168

> <r_mmod_Bend_Energy-OPLS-2005>
180.550445556641

> <r_mmod_Torsional_Energy-OPLS-2005>
303.625946044922

> <r_mmod_Improper_Torsional_Energy-OPLS-2005>
24.8790473937988

> <r_mmod_Van_der_Waal_Energy-OPLS-2005>
186.704498291016

> <r_mmod_Electrostatic_Energy-OPLS-2005>
-315.569915771484

> <r_mmod_Solvation_Energy-OPLS-2005>
-159.854141235352

> <b_mmod_Minimization_Converged-OPLS-2005>
0

> <r_mmod_RMS_Derivative-OPLS-2005>
6.97228240966797

$$$$
26
                    3D
 Structure written by MMmdl.
155162  0  0  1  0            999 V2000
  -30.4750  -15.5549   20.3488 C   0  0  0  0  0  0
  -30.3857  -13.0385   19.5219 C   0  0  0  0  0  0
  -29.5178  -12.6376   18.3062 C   0  0  0  0  0  0
  -28.0990  -12.2972   18.7659 C   0  0  0  0  0  0
  -27.5880  -13.3166   19.8110 C   0  0  2  0  0  0
  -28.6113  -13.6838   20.9175 C   0  0  0  0  0  0
  -25.2299  -13.8332   20.5854 C   0  0  0  0  0  0
  -24.1689  -13.0457   20.9308 C   0  0  0  0  0  0
  -24.6408  -11.6969   20.8792 C   0  0  0  0  0  0
  -23.9120  -10.4303   21.0407 C   0  0  0  0  0  0
  -24.3657   -9.4209   21.9183 C   0  0  0  0  0  0
  -23.6317   -8.2251   22.0753 C   0  0  0  0  0  0
  -22.4297   -8.0297   21.3543 C   0  0  0  0  0  0
  -21.9941   -9.0279   20.4650 C   0  0  0  0  0  0
  -22.7287  -10.2148   20.3055 C   0  0  0  0  0  0
  -21.6859   -6.0742   22.5274 C   0  0  0  0  0  0
  -21.4027   -6.5642   23.8211 C   0  0  0  0  0  0
  -21.3660   -5.6792   24.9173 C   0  0  0  0  0  0
  -21.6041   -4.3052   24.7221 C   0  0  0  0  0  0
  -21.8824   -3.8148   23.4342 C   0  0  0  0  0  0
  -21.9192   -4.6968   22.3400 C   0  0  0  0  0  0
  -22.7693  -13.5177   21.1910 C   0  0  0  0  0  0
  -22.1654   -4.2157   21.0975 F   0  0  0  0  0  0
  -21.5622   -3.4531   25.7734 F   0  0  0  0  0  0
  -29.7877  -14.2713   20.2329 N   0  0  0  0  0  0
  -26.2755  -12.9679   20.3317 N   0  0  0  0  0  0
  -25.9360  -11.6737   20.5758 N   0  0  0  0  0  0
  -22.0344  -12.8170   22.0464 N   0  0  0  0  0  0
  -25.3909  -15.2076   20.4308 N   0  0  0  0  0  0
  -31.6786  -15.2492   20.2224 O   0  0  0  0  0  0
  -21.6649   -6.8897   21.4240 O   0  0  0  0  0  0
  -22.3370  -14.5468   20.6731 O   0  0  0  0  0  0
  -24.6791  -31.8023   23.1550 C   0  0  0  0  0  0
  -25.9389  -32.4480   23.8081 C   0  0  1  0  0  0
  -27.2163  -26.7420   20.2070 C   0  0  0  0  0  0
  -25.5977  -33.8303   24.1969 N   0  0  0  0  0  0
  -23.5041  -30.4060   21.5062 C   0  0  2  0  0  0
  -24.9596  -28.7557   20.1095 C   0  0  0  0  0  0
  -22.7745  -29.4325   22.4714 C   0  0  0  0  0  0
  -18.0331  -28.1418   22.8453 C   0  0  0  0  0  0
  -24.1497  -36.7167   23.2654 C   0  0  0  0  0  0
  -26.0805  -30.5468   21.4144 C   0  0  0  0  0  0
  -26.1429  -29.1168   20.7627 C   0  0  0  0  0  0
  -27.2548  -28.1324   20.7861 C   0  0  0  0  0  0
  -26.0102  -26.5816   19.4842 C   0  0  0  0  0  0
  -24.9296  -27.5143   19.4482 C   0  0  0  0  0  0
  -23.7546  -29.7064   20.1384 C   0  0  0  0  0  0
  -25.4143  -36.2910   24.0287 C   0  0  1  0  0  0
  -20.5968  -28.3771   23.1146 C   0  0  2  0  0  0
  -20.6796  -26.9432   22.5402 C   0  0  0  0  0  0
  -19.5776  -26.6369   21.5210 C   0  0  0  0  0  0
  -18.1959  -26.7945   22.1614 C   0  0  0  0  0  0
  -19.1598  -28.8917   23.2784 C   0  0  0  0  0  0
  -18.9501  -30.1499   23.8830 C   0  0  0  0  0  0
  -17.6493  -30.6603   24.0546 C   0  0  0  0  0  0
  -25.9113  -34.9294   23.4968 C   0  0  0  0  0  0
  -16.5382  -29.9086   23.6346 C   0  0  0  0  0  0
  -16.7311  -28.6508   23.0363 C   0  0  0  0  0  0
  -26.4578  -31.6511   25.0697 C   0  0  0  0  0  0
  -25.3656  -31.3807   26.1326 C   0  0  0  0  0  0
  -27.0504  -30.2856   24.6576 C   0  0  0  0  0  0
  -27.6040  -32.4360   25.7507 C   0  0  0  0  0  0
  -27.5566  -37.1745   24.8464 C   0  0  0  0  0  0
  -21.4395  -29.3032   22.3474 N   0  0  0  0  0  0
  -26.4276  -37.3663   23.9397 N   0  0  0  0  0  0
  -24.7775  -30.9510   22.0781 N   0  0  0  0  0  0
  -23.4208  -28.7918   23.3040 O   0  0  0  0  0  0
  -28.1770  -25.5479   20.3574 O   0  0  0  0  0  0
  -26.5756  -34.8863   22.4586 O   0  0  0  0  0  0
  -23.5819  -32.1075   23.6530 O   0  0  0  0  0  0
  -32.6882  -19.4179   19.3203 C   0  0  0  0  0  0
  -31.9271  -17.4104   22.2869 C   0  0  0  0  0  0
  -32.4482  -17.9821   19.8026 C   0  0  0  0  0  0
  -29.2056  -20.3804   20.0893 C   0  0  0  0  0  0
  -28.4437  -22.0771   20.5622 C   0  0  0  0  0  0
  -29.0478  -18.4804   20.4152 C   0  0  0  0  0  0
  -28.2376  -23.8672   19.9011 C   0  0  0  0  0  0
  -31.3655  -17.8552   20.9137 C   0  0  1  0  0  0
  -30.1396  -17.0985   20.4859 N   0  0  0  0  0  0
  -31.3911  -13.2164   19.1406 H   0  0  0  0  0  0
  -30.5007  -12.1990   20.2096 H   0  0  0  0  0  0
  -29.9597  -11.7905   17.7802 H   0  0  0  0  0  0
  -29.4888  -13.4625   17.5929 H   0  0  0  0  0  0
  -28.1269  -11.3011   19.2099 H   0  0  0  0  0  0
  -27.4208  -12.2368   17.9134 H   0  0  0  0  0  0
  -27.4409  -14.2295   19.2318 H   0  0  0  0  0  0
  -28.8633  -12.8254   21.5424 H   0  0  0  0  0  0
  -28.1869  -14.4330   21.5865 H   0  0  0  0  0  0
  -25.2799   -9.5680   22.4769 H   0  0  0  0  0  0
  -24.0016   -7.4641   22.7479 H   0  0  0  0  0  0
  -21.0861   -8.8825   19.8963 H   0  0  0  0  0  0
  -22.3750  -10.9702   19.6175 H   0  0  0  0  0  0
  -21.2034   -7.6153   23.9724 H   0  0  0  0  0  0
  -21.1468   -6.0513   25.9074 H   0  0  0  0  0  0
  -22.0598   -2.7613   23.2833 H   0  0  0  0  0  0
  -22.3966  -11.9858   22.4902 H   0  0  0  0  0  0
  -21.0951  -13.1184   22.2630 H   0  0  0  0  0  0
  -24.6247  -15.8604   20.5558 H   0  0  0  0  0  0
  -26.2464  -15.6549   20.1277 H   0  0  0  0  0  0
  -26.7470  -32.4959   23.0789 H   0  0  0  0  0  0
  -25.0031  -33.9343   25.0062 H   0  0  0  0  0  0
  -22.8274  -31.2426   21.3206 H   0  0  0  0  0  0
  -23.3771  -35.9487   23.3280 H   0  0  0  0  0  0
  -24.3568  -36.8859   22.2076 H   0  0  0  0  0  0
  -23.7251  -37.6337   23.6748 H   0  0  0  0  0  0
  -26.2809  -31.2736   20.6262 H   0  0  0  0  0  0
  -26.9326  -30.6108   22.0788 H   0  0  0  0  0  0
  -28.1405  -28.4045   21.3428 H   0  0  0  0  0  0
  -25.8533  -25.6376   18.9832 H   0  0  0  0  0  0
  -24.0349  -27.2314   18.9114 H   0  0  0  0  0  0
  -23.9272  -30.4676   19.3766 H   0  0  0  0  0  0
  -22.8602  -29.1706   19.8172 H   0  0  0  0  0  0
  -25.1356  -36.1684   25.0778 H   0  0  0  0  0  0
  -21.0043  -28.3396   24.1275 H   0  0  0  0  0  0
  -20.5654  -26.2392   23.3662 H   0  0  0  0  0  0
  -21.6661  -26.7378   22.1230 H   0  0  0  0  0  0
  -19.6932  -25.6263   21.1287 H   0  0  0  0  0  0
  -19.6724  -27.3139   20.6709 H   0  0  0  0  0  0
  -17.4226  -26.6678   21.4019 H   0  0  0  0  0  0
  -18.0353  -26.0109   22.9032 H   0  0  0  0  0  0
  -19.7973  -30.7330   24.2179 H   0  0  0  0  0  0
  -17.5041  -31.6276   24.5161 H   0  0  0  0  0  0
  -15.5380  -30.2963   23.7713 H   0  0  0  0  0  0
  -15.8710  -28.0804   22.7119 H   0  0  0  0  0  0
  -24.5866  -30.7128   25.7629 H   0  0  0  0  0  0
  -24.8815  -32.3017   26.4583 H   0  0  0  0  0  0
  -25.7851  -30.9083   27.0221 H   0  0  0  0  0  0
  -26.3211  -29.6478   24.1573 H   0  0  0  0  0  0
  -27.3944  -29.7296   25.5309 H   0  0  0  0  0  0
  -27.9189  -30.3989   24.0085 H   0  0  0  0  0  0
  -27.2595  -33.3724   26.1904 H   0  0  0  0  0  0
  -28.3943  -32.6817   25.0401 H   0  0  0  0  0  0
  -28.0611  -31.8610   26.5570 H   0  0  0  0  0  0
  -28.2565  -38.0058   24.7501 H   0  0  0  0  0  0
  -28.1083  -36.2582   24.6308 H   0  0  0  0  0  0
  -27.2277  -37.1403   25.8866 H   0  0  0  0  0  0
  -20.9688  -29.8696   21.6555 H   0  0  0  0  0  0
  -26.0113  -38.2717   24.1395 H   0  0  0  0  0  0
  -33.5190  -19.4537   18.6150 H   0  0  0  0  0  0
  -32.9276  -20.0891   20.1456 H   0  0  0  0  0  0
  -31.8111  -19.8090   18.8047 H   0  0  0  0  0  0
  -32.6934  -18.1068   22.6300 H   0  0  0  0  0  0
  -32.3911  -16.4253   22.2797 H   0  0  0  0  0  0
  -31.1427  -17.4019   23.0450 H   0  0  0  0  0  0
  -33.3938  -17.5746   20.1657 H   0  0  0  0  0  0
  -32.1881  -17.3843   18.9277 H   0  0  0  0  0  0
  -30.2527  -20.5940   20.2878 H   0  0  0  0  0  0
  -29.1647  -20.4143   18.9997 H   0  0  0  0  0  0
  -28.8806  -22.2490   21.5464 H   0  0  0  0  0  0
  -27.4150  -21.8098   20.8058 H   0  0  0  0  0  0
  -28.2622  -18.1442   19.7383 H   0  0  0  0  0  0
  -28.5705  -18.4295   21.3944 H   0  0  0  0  0  0
  -27.3914  -23.7825   19.2197 H   0  0  0  0  0  0
  -29.0873  -23.9218   19.2204 H   0  0  0  0  0  0
  -31.1158  -18.8786   21.1749 H   0  0  0  0  0  0
  1 25  1  0  0  0
  1 30  2  0  0  0
  1 79  1  0  0  0
  2  3  1  0  0  0
  2 25  1  0  0  0
  2 80  1  0  0  0
  2 81  1  0  0  0
  3  4  1  0  0  0
  3 82  1  0  0  0
  3 83  1  0  0  0
  4  5  1  0  0  0
  4 84  1  0  0  0
  4 85  1  0  0  0
  5  6  1  0  0  0
  5 26  1  0  0  0
  5 86  1  0  0  0
  6 25  1  0  0  0
  6 87  1  0  0  0
  6 88  1  0  0  0
  7  8  2  0  0  0
  7 26  1  0  0  0
  7 29  1  0  0  0
  8  9  1  0  0  0
  8 22  1  0  0  0
  9 10  1  0  0  0
  9 27  2  0  0  0
 10 11  2  0  0  0
 10 15  1  0  0  0
 11 12  1  0  0  0
 11 89  1  0  0  0
 12 13  2  0  0  0
 12 90  1  0  0  0
 13 14  1  0  0  0
 13 31  1  0  0  0
 14 15  2  0  0  0
 14 91  1  0  0  0
 15 92  1  0  0  0
 16 17  2  0  0  0
 16 21  1  0  0  0
 16 31  1  0  0  0
 17 18  1  0  0  0
 17 93  1  0  0  0
 18 19  2  0  0  0
 18 94  1  0  0  0
 19 20  1  0  0  0
 19 24  1  0  0  0
 20 21  2  0  0  0
 20 95  1  0  0  0
 21 23  1  0  0  0
 22 28  1  0  0  0
 22 32  2  0  0  0
 26 27  1  0  0  0
 28 96  1  0  0  0
 28 97  1  0  0  0
 29 98  1  0  0  0
 29 99  1  0  0  0
 33 34  1  0  0  0
 33 66  1  0  0  0
 33 70  2  0  0  0
 34 36  1  0  0  0
 34 59  1  0  0  0
 34100  1  0  0  0
 35 44  2  0  0  0
 35 45  1  0  0  0
 35 68  1  0  0  0
 36 56  1  0  0  0
 36101  1  0  0  0
 37 39  1  0  0  0
 37 47  1  0  0  0
 37 66  1  0  0  0
 37102  1  0  0  0
 38 43  2  0  0  0
 38 46  1  0  0  0
 38 47  1  0  0  0
 39 64  1  0  0  0
 39 67  2  0  0  0
 40 52  1  0  0  0
 40 53  2  0  0  0
 40 58  1  0  0  0
 41103  1  0  0  0
 41104  1  0  0  0
 41105  1  0  0  0
 41 48  1  0  0  0
 42 43  1  0  0  0
 42 66  1  0  0  0
 42106  1  0  0  0
 42107  1  0  0  0
 43 44  1  0  0  0
 44108  1  0  0  0
 45 46  2  0  0  0
 45109  1  0  0  0
 46110  1  0  0  0
 47111  1  0  0  0
 47112  1  0  0  0
 48 56  1  0  0  0
 48 65  1  0  0  0
 48113  1  0  0  0
 49 50  1  0  0  0
 49 53  1  0  0  0
 49 64  1  0  0  0
 49114  1  0  0  0
 50 51  1  0  0  0
 50115  1  0  0  0
 50116  1  0  0  0
 51 52  1  0  0  0
 51117  1  0  0  0
 51118  1  0  0  0
 52119  1  0  0  0
 52120  1  0  0  0
 53 54  1  0  0  0
 54 55  2  0  0  0
 54121  1  0  0  0
 55 57  1  0  0  0
 55122  1  0  0  0
 56 69  2  0  0  0
 57 58  2  0  0  0
 57123  1  0  0  0
 58124  1  0  0  0
 59 60  1  0  0  0
 59 61  1  0  0  0
 59 62  1  0  0  0
 60125  1  0  0  0
 60126  1  0  0  0
 60127  1  0  0  0
 61128  1  0  0  0
 61129  1  0  0  0
 61130  1  0  0  0
 62131  1  0  0  0
 62132  1  0  0  0
 62133  1  0  0  0
 63 65  1  0  0  0
 63134  1  0  0  0
 63135  1  0  0  0
 63136  1  0  0  0
 64137  1  0  0  0
 65138  1  0  0  0
 68 77  1  0  0  0
 71 73  1  0  0  0
 71139  1  0  0  0
 71140  1  0  0  0
 71141  1  0  0  0
 72142  1  0  0  0
 72143  1  0  0  0
 72144  1  0  0  0
 72 78  1  0  0  0
 73 78  1  0  0  0
 73145  1  0  0  0
 73146  1  0  0  0
 74 75  1  0  0  0
 74 76  1  0  0  0
 74147  1  0  0  0
 74148  1  0  0  0
 75 77  1  0  0  0
 75149  1  0  0  0
 75150  1  0  0  0
 76 79  1  0  0  0
 76151  1  0  0  0
 76152  1  0  0  0
 77153  1  0  0  0
 77154  1  0  0  0
 78 79  1  0  0  0
 78155  1  0  0  0
M  ISO  4   1 100  68 101  77 101  79 100
M  END
> <chiral flag>
0

> <version>
0

> <s_m_source_file>
/data/baiqing/PycharmProjects/Reinvent-master-3.2/result/LINK_invent/BTK/process_docking_weight1_custom_sum_contain_oxygen_bond_distance_aromatic_linkinvent_7_9_3/rearranged_h_0046.sdf

> <i_m_source_file_index>
27

> <r_mmod_Potential_Energy-OPLS-2005>
2722.54541015625

> <r_mmod_Stretch_Energy-OPLS-2005>
1130.95458984375

> <r_mmod_Bend_Energy-OPLS-2005>
782.595031738281

> <r_mmod_Torsional_Energy-OPLS-2005>
311.635681152344

> <r_mmod_Improper_Torsional_Energy-OPLS-2005>
2.89368867874146

> <r_mmod_Van_der_Waal_Energy-OPLS-2005>
142.994873046875

> <r_mmod_Electrostatic_Energy-OPLS-2005>
-247.559234619141

> <r_mmod_Solvation_Energy-OPLS-2005>
-188.802658081055

> <b_mmod_Minimization_Converged-OPLS-2005>
0

> <r_mmod_RMS_Derivative-OPLS-2005>
1.37483108043671

$$$$
27
                    3D
 Structure written by MMmdl.
163171  0  0  1  0            999 V2000
  -30.7166  -14.4160   20.5444 C   0  0  0  0  0  0
  -30.4164  -12.2619   19.4156 C   0  0  0  0  0  0
  -29.4905  -12.4984   18.2061 C   0  0  0  0  0  0
  -28.0116  -12.3701   18.6186 C   0  0  0  0  0  0
  -27.6673  -13.2001   19.8846 C   0  0  2  0  0  0
  -28.7115  -12.9617   21.0031 C   0  0  0  0  0  0
  -25.2616  -13.8141   20.5687 C   0  0  0  0  0  0
  -24.1855  -13.0425   20.9170 C   0  0  0  0  0  0
  -24.6397  -11.6888   20.8745 C   0  0  0  0  0  0
  -23.9055  -10.4284   21.0407 C   0  0  0  0  0  0
  -24.3608   -9.4201   21.9187 C   0  0  0  0  0  0
  -23.6275   -8.2245   22.0770 C   0  0  0  0  0  0
  -22.4262   -8.0281   21.3557 C   0  0  0  0  0  0
  -21.9895   -9.0254   20.4658 C   0  0  0  0  0  0
  -22.7228  -10.2126   20.3061 C   0  0  0  0  0  0
  -21.6848   -6.0730   22.5274 C   0  0  0  0  0  0
  -21.4013   -6.5633   23.8213 C   0  0  0  0  0  0
  -21.3654   -5.6790   24.9180 C   0  0  0  0  0  0
  -21.6044   -4.3059   24.7232 C   0  0  0  0  0  0
  -21.8811   -3.8146   23.4354 C   0  0  0  0  0  0
  -21.9193   -4.6958   22.3404 C   0  0  0  0  0  0
  -22.7879  -13.5238   21.1823 C   0  0  0  0  0  0
  -22.1651   -4.2148   21.0979 F   0  0  0  0  0  0
  -21.5636   -3.4540   25.7737 F   0  0  0  0  0  0
  -30.0480  -13.2396   20.4487 N   0  0  0  0  0  0
  -26.3057  -12.9297   20.3411 N   0  0  0  0  0  0
  -25.9333  -11.6473   20.5822 N   0  0  0  0  0  0
  -22.0507  -12.8238   22.0384 N   0  0  0  0  0  0
  -25.4329  -15.1861   20.4078 N   0  0  0  0  0  0
  -31.8472  -14.5951   20.0836 O   0  0  0  0  0  0
  -21.6633   -6.8875   21.4240 O   0  0  0  0  0  0
  -22.3576  -14.5553   20.6681 O   0  0  0  0  0  0
  -24.6100  -31.8713   23.2141 C   0  0  0  0  0  0
  -25.9003  -32.4845   23.8440 C   0  0  1  0  0  0
  -27.2377  -27.4778   20.0852 C   0  0  0  0  0  0
  -25.5873  -33.8650   24.2353 N   0  0  0  0  0  0
  -23.3975  -30.4943   21.5531 C   0  0  2  0  0  0
  -24.8457  -28.9652   20.1173 C   0  0  0  0  0  0
  -22.7385  -29.4671   22.5008 C   0  0  0  0  0  0
  -18.0254  -28.1353   22.8485 C   0  0  0  0  0  0
  -24.1476  -36.7328   23.2630 C   0  0  0  0  0  0
  -25.9219  -30.8496   21.3616 C   0  0  0  0  0  0
  -26.0043  -29.4867   20.7090 C   0  0  0  0  0  0
  -27.2075  -28.7484   20.6961 C   0  0  0  0  0  0
  -26.0701  -26.9592   19.4924 C   0  0  0  0  0  0
  -24.8700  -27.6961   19.5117 C   0  0  0  0  0  0
  -23.6032  -29.8252   20.1690 C   0  0  0  0  0  0
  -25.4103  -36.3130   24.0331 C   0  0  1  0  0  0
  -20.5844  -28.3648   23.1315 C   0  0  2  0  0  0
  -20.6746  -26.9382   22.5412 C   0  0  0  0  0  0
  -19.5730  -26.6366   21.5202 C   0  0  0  0  0  0
  -18.1903  -26.7889   22.1614 C   0  0  0  0  0  0
  -19.1508  -28.8815   23.2889 C   0  0  0  0  0  0
  -18.9449  -30.1415   23.8899 C   0  0  0  0  0  0
  -17.6463  -30.6565   24.0563 C   0  0  0  0  0  0
  -25.9042  -34.9499   23.5149 C   0  0  0  0  0  0
  -16.5350  -29.9071   23.6315 C   0  0  0  0  0  0
  -16.7249  -28.6486   23.0338 C   0  0  0  0  0  0
  -26.4454  -31.6620   25.0756 C   0  0  0  0  0  0
  -25.3719  -31.3695   26.1504 C   0  0  0  0  0  0
  -27.0305  -30.3083   24.6115 C   0  0  0  0  0  0
  -27.6055  -32.4334   25.7488 C   0  0  0  0  0  0
  -27.5584  -37.1794   24.8440 C   0  0  0  0  0  0
  -21.4122  -29.3028   22.3735 N   0  0  0  0  0  0
  -26.4276  -37.3826   23.9420 N   0  0  0  0  0  0
  -24.6606  -31.0853   22.1022 N   0  0  0  0  0  0
  -23.4179  -28.8197   23.3019 O   0  0  0  0  0  0
  -28.3837  -26.7314   20.0682 O   0  0  0  0  0  0
  -26.5617  -34.8928   22.4722 O   0  0  0  0  0  0
  -23.5307  -32.1447   23.7575 O   0  0  0  0  0  0
  -28.5214  -23.4981   20.1887 C   0  0  0  0  0  0
  -29.2683  -22.3539   19.8936 C   0  0  0  0  0  0
  -29.1957  -24.5559   20.8142 C   0  0  0  0  0  0
  -31.1361  -23.3384   20.7879 C   0  0  0  0  0  0
  -32.6099  -23.2478   21.1216 C   0  0  0  0  0  0
  -30.1753  -19.3938   18.4202 C   0  0  0  0  0  0
  -28.6471  -21.1350   19.2329 C   0  0  0  0  0  0
  -28.4742  -25.8430   21.1810 C   0  0  0  0  0  0
  -29.5580  -17.9285   21.2084 C   0  0  0  0  0  0
  -30.1291  -16.7873   20.3441 C   0  0  0  0  0  0
  -28.7125  -18.9735   20.4330 C   0  0  0  0  0  0
  -30.5774  -22.2713   20.2236 N   0  0  0  0  0  0
  -30.5120  -24.4683   21.0982 N   0  0  0  0  0  0
  -29.9620  -15.4542   20.9270 N   0  0  0  0  0  0
  -29.4619  -19.9535   19.5935 N   0  3  1  0  0  0
  -31.4641  -12.3375   19.1186 H   0  0  0  0  0  0
  -30.2905  -11.2478   19.7995 H   0  0  0  0  0  0
  -29.7196  -11.7895   17.4098 H   0  0  0  0  0  0
  -29.6690  -13.4923   17.7906 H   0  0  0  0  0  0
  -27.8133  -11.3136   18.8018 H   0  0  0  0  0  0
  -27.3635  -12.6609   17.7913 H   0  0  0  0  0  0
  -27.7175  -14.2512   19.5978 H   0  0  0  0  0  0
  -28.6731  -11.9258   21.3445 H   0  0  0  0  0  0
  -28.4939  -13.5649   21.8856 H   0  0  0  0  0  0
  -25.2749   -9.5673   22.4769 H   0  0  0  0  0  0
  -23.9974   -7.4638   22.7492 H   0  0  0  0  0  0
  -21.0830   -8.8758   19.8963 H   0  0  0  0  0  0
  -22.3676  -10.9663   19.6171 H   0  0  0  0  0  0
  -21.1992   -7.6141   23.9714 H   0  0  0  0  0  0
  -21.1486   -6.0527   25.9077 H   0  0  0  0  0  0
  -22.0594   -2.7604   23.2855 H   0  0  0  0  0  0
  -22.4096  -11.9873   22.4741 H   0  0  0  0  0  0
  -21.1146  -13.1297   22.2603 H   0  0  0  0  0  0
  -24.6626  -15.8369   20.5206 H   0  0  0  0  0  0
  -26.2817  -15.6277   20.0791 H   0  0  0  0  0  0
  -26.7079  -32.5576   23.1214 H   0  0  0  0  0  0
  -24.9999  -33.9831   25.0481 H   0  0  0  0  0  0
  -22.6845  -31.3090   21.4136 H   0  0  0  0  0  0
  -23.3755  -35.9636   23.3269 H   0  0  0  0  0  0
  -24.3575  -36.8994   22.2049 H   0  0  0  0  0  0
  -23.7211  -37.6512   23.6681 H   0  0  0  0  0  0
  -26.0281  -31.6172   20.5935 H   0  0  0  0  0  0
  -26.8123  -30.9069   21.9751 H   0  0  0  0  0  0
  -28.1033  -29.1491   21.1503 H   0  0  0  0  0  0
  -26.0879  -25.9857   19.0227 H   0  0  0  0  0  0
  -23.9760  -27.2854   19.0624 H   0  0  0  0  0  0
  -23.7025  -30.5993   19.4078 H   0  0  0  0  0  0
  -22.7280  -29.2390   19.8810 H   0  0  0  0  0  0
  -25.1266  -36.2006   25.0821 H   0  0  0  0  0  0
  -20.9937  -28.3207   24.1430 H   0  0  0  0  0  0
  -20.5637  -26.2256   23.3601 H   0  0  0  0  0  0
  -21.6616  -26.7404   22.1216 H   0  0  0  0  0  0
  -19.6910  -25.6289   21.1205 H   0  0  0  0  0  0
  -19.6671  -27.3191   20.6744 H   0  0  0  0  0  0
  -17.4175  -26.6638   21.4002 H   0  0  0  0  0  0
  -18.0303  -26.0007   22.8988 H   0  0  0  0  0  0
  -19.7941  -30.7205   24.2277 H   0  0  0  0  0  0
  -17.5032  -31.6249   24.5161 H   0  0  0  0  0  0
  -15.5356  -30.2995   23.7641 H   0  0  0  0  0  0
  -15.8639  -28.0830   22.7054 H   0  0  0  0  0  0
  -24.5885  -30.7058   25.7825 H   0  0  0  0  0  0
  -24.8896  -32.2818   26.5014 H   0  0  0  0  0  0
  -25.8059  -30.8813   27.0243 H   0  0  0  0  0  0
  -26.2860  -29.6817   24.1184 H   0  0  0  0  0  0
  -27.4113  -29.7345   25.4578 H   0  0  0  0  0  0
  -27.8658  -30.4426   23.9240 H   0  0  0  0  0  0
  -27.2724  -33.3648   26.2085 H   0  0  0  0  0  0
  -28.3833  -32.6897   25.0279 H   0  0  0  0  0  0
  -28.0748  -31.8444   26.5374 H   0  0  0  0  0  0
  -28.2553  -38.0142   24.7610 H   0  0  0  0  0  0
  -28.1142  -36.2695   24.6129 H   0  0  0  0  0  0
  -27.2307  -37.1279   25.8835 H   0  0  0  0  0  0
  -20.9273  -29.8809   21.7013 H   0  0  0  0  0  0
  -26.0169  -38.2885   24.1523 H   0  0  0  0  0  0
  -27.4690  -23.5690   19.9453 H   0  0  0  0  0  0
  -33.1662  -22.8095   20.2938 H   0  0  0  0  0  0
  -32.7618  -22.6232   22.0010 H   0  0  0  0  0  0
  -33.0343  -24.2323   21.3261 H   0  0  0  0  0  0
  -30.6614  -20.1867   17.8487 H   0  0  0  0  0  0
  -29.4927  -18.8676   17.7516 H   0  0  0  0  0  0
  -30.9693  -18.7123   18.7159 H   0  0  0  0  0  0
  -28.6106  -21.2929   18.1550 H   0  0  0  0  0  0
  -27.6087  -21.0334   19.5549 H   0  0  0  0  0  0
  -28.9960  -26.3448   21.9982 H   0  0  0  0  0  0
  -27.4892  -25.5737   21.5685 H   0  0  0  0  0  0
  -30.3604  -18.4174   21.7648 H   0  0  0  0  0  0
  -28.9083  -17.4982   21.9726 H   0  0  0  0  0  0
  -31.1810  -16.9932   20.1389 H   0  0  0  0  0  0
  -29.6276  -16.7580   19.3753 H   0  0  0  0  0  0
  -28.1594  -19.5376   21.1861 H   0  0  0  0  0  0
  -27.9566  -18.4707   19.8278 H   0  0  0  0  0  0
  -29.0552  -15.2171   21.2995 H   0  0  0  0  0  0
  -30.1607  -20.4362   20.1560 H   0  0  0  0  0  0
  1 25  1  0  0  0
  1 30  2  0  0  0
  1 84  1  0  0  0
  2  3  1  0  0  0
  2 25  1  0  0  0
  2 86  1  0  0  0
  2 87  1  0  0  0
  3  4  1  0  0  0
  3 88  1  0  0  0
  3 89  1  0  0  0
  4  5  1  0  0  0
  4 90  1  0  0  0
  4 91  1  0  0  0
  5  6  1  0  0  0
  5 26  1  0  0  0
  5 92  1  0  0  0
  6 25  1  0  0  0
  6 93  1  0  0  0
  6 94  1  0  0  0
  7  8  2  0  0  0
  7 26  1  0  0  0
  7 29  1  0  0  0
  8  9  1  0  0  0
  8 22  1  0  0  0
  9 10  1  0  0  0
  9 27  2  0  0  0
 10 11  2  0  0  0
 10 15  1  0  0  0
 11 12  1  0  0  0
 11 95  1  0  0  0
 12 13  2  0  0  0
 12 96  1  0  0  0
 13 14  1  0  0  0
 13 31  1  0  0  0
 14 15  2  0  0  0
 14 97  1  0  0  0
 15 98  1  0  0  0
 16 17  2  0  0  0
 16 21  1  0  0  0
 16 31  1  0  0  0
 17 18  1  0  0  0
 17 99  1  0  0  0
 18 19  2  0  0  0
 18100  1  0  0  0
 19 20  1  0  0  0
 19 24  1  0  0  0
 20 21  2  0  0  0
 20101  1  0  0  0
 21 23  1  0  0  0
 22 28  1  0  0  0
 22 32  2  0  0  0
 26 27  1  0  0  0
 28102  1  0  0  0
 28103  1  0  0  0
 29104  1  0  0  0
 29105  1  0  0  0
 33 34  1  0  0  0
 33 66  1  0  0  0
 33 70  2  0  0  0
 34 36  1  0  0  0
 34 59  1  0  0  0
 34106  1  0  0  0
 35 44  2  0  0  0
 35 45  1  0  0  0
 35 68  1  0  0  0
 36 56  1  0  0  0
 36107  1  0  0  0
 37 39  1  0  0  0
 37 47  1  0  0  0
 37 66  1  0  0  0
 37108  1  0  0  0
 38 43  2  0  0  0
 38 46  1  0  0  0
 38 47  1  0  0  0
 39 64  1  0  0  0
 39 67  2  0  0  0
 40 52  1  0  0  0
 40 53  2  0  0  0
 40 58  1  0  0  0
 41109  1  0  0  0
 41110  1  0  0  0
 41111  1  0  0  0
 41 48  1  0  0  0
 42 43  1  0  0  0
 42 66  1  0  0  0
 42112  1  0  0  0
 42113  1  0  0  0
 43 44  1  0  0  0
 44114  1  0  0  0
 45 46  2  0  0  0
 45115  1  0  0  0
 46116  1  0  0  0
 47117  1  0  0  0
 47118  1  0  0  0
 48 56  1  0  0  0
 48 65  1  0  0  0
 48119  1  0  0  0
 49 50  1  0  0  0
 49 53  1  0  0  0
 49 64  1  0  0  0
 49120  1  0  0  0
 50 51  1  0  0  0
 50121  1  0  0  0
 50122  1  0  0  0
 51 52  1  0  0  0
 51123  1  0  0  0
 51124  1  0  0  0
 52125  1  0  0  0
 52126  1  0  0  0
 53 54  1  0  0  0
 54 55  2  0  0  0
 54127  1  0  0  0
 55 57  1  0  0  0
 55128  1  0  0  0
 56 69  2  0  0  0
 57 58  2  0  0  0
 57129  1  0  0  0
 58130  1  0  0  0
 59 60  1  0  0  0
 59 61  1  0  0  0
 59 62  1  0  0  0
 60131  1  0  0  0
 60132  1  0  0  0
 60133  1  0  0  0
 61134  1  0  0  0
 61135  1  0  0  0
 61136  1  0  0  0
 62137  1  0  0  0
 62138  1  0  0  0
 62139  1  0  0  0
 63 65  1  0  0  0
 63140  1  0  0  0
 63141  1  0  0  0
 63142  1  0  0  0
 64143  1  0  0  0
 65144  1  0  0  0
 68 78  1  0  0  0
 71 72  2  0  0  0
 71 73  1  0  0  0
 71145  1  0  0  0
 72 77  1  0  0  0
 72 82  1  0  0  0
 73 78  1  0  0  0
 73 83  2  0  0  0
 74 75  1  0  0  0
 74 82  2  0  0  0
 74 83  1  0  0  0
 75146  1  0  0  0
 75147  1  0  0  0
 75148  1  0  0  0
 76149  1  0  0  0
 76150  1  0  0  0
 76151  1  0  0  0
 76 85  1  0  0  0
 77 85  1  0  0  0
 77152  1  0  0  0
 77153  1  0  0  0
 78154  1  0  0  0
 78155  1  0  0  0
 79 80  1  0  0  0
 79 81  1  0  0  0
 79156  1  0  0  0
 79157  1  0  0  0
 80 84  1  0  0  0
 80158  1  0  0  0
 80159  1  0  0  0
 81 85  1  0  0  0
 81160  1  0  0  0
 81161  1  0  0  0
 84162  1  0  0  0
 85163  1  0  0  0
M  CHG  1  85   1
M  ISO  4   1 100  68 101  78 101  84 100
M  END
> <chiral flag>
0

> <version>
0

> <s_m_source_file>
/data/baiqing/PycharmProjects/Reinvent-master-3.2/result/LINK_invent/BTK/process_docking_weight1_custom_sum_contain_oxygen_bond_distance_aromatic_linkinvent_7_9_3/rearranged_h_0046.sdf

> <i_m_source_file_index>
28

> <r_mmod_Potential_Energy-OPLS-2005>
-647.301574707031

> <r_mmod_Stretch_Energy-OPLS-2005>
31.6283702850342

> <r_mmod_Bend_Energy-OPLS-2005>
100.567138671875

> <r_mmod_Torsional_Energy-OPLS-2005>
272.447052001953

> <r_mmod_Improper_Torsional_Energy-OPLS-2005>
8.16370487213135

> <r_mmod_Van_der_Waal_Energy-OPLS-2005>
171.125457763672

> <r_mmod_Electrostatic_Energy-OPLS-2005>
-775.777893066406

> <r_mmod_Solvation_Energy-OPLS-2005>
-464.993682861328

> <b_mmod_Minimization_Converged-OPLS-2005>
0

> <r_mmod_RMS_Derivative-OPLS-2005>
2.78746032714844

$$$$
28
                    3D
 Structure written by MMmdl.
158166  0  0  1  0            999 V2000
  -30.5881  -14.7457   20.4384 C   0  0  0  0  0  0
  -30.4338  -12.4532   19.4604 C   0  0  0  0  0  0
  -29.5057  -12.5013   18.2267 C   0  0  0  0  0  0
  -28.0335  -12.3253   18.6474 C   0  0  0  0  0  0
  -27.6422  -13.2251   19.8482 C   0  0  2  0  0  0
  -28.6883  -13.1519   20.9806 C   0  0  0  0  0  0
  -25.2519  -13.8171   20.5673 C   0  0  0  0  0  0
  -24.1822  -13.0433   20.9215 C   0  0  0  0  0  0
  -24.6407  -11.6899   20.8783 C   0  0  0  0  0  0
  -23.9089  -10.4287   21.0444 C   0  0  0  0  0  0
  -24.3645   -9.4199   21.9216 C   0  0  0  0  0  0
  -23.6305   -8.2245   22.0781 C   0  0  0  0  0  0
  -22.4291   -8.0296   21.3560 C   0  0  0  0  0  0
  -21.9940   -9.0272   20.4657 C   0  0  0  0  0  0
  -22.7275  -10.2140   20.3068 C   0  0  0  0  0  0
  -21.6846   -6.0748   22.5283 C   0  0  0  0  0  0
  -21.4009   -6.5654   23.8220 C   0  0  0  0  0  0
  -21.3642   -5.6804   24.9181 C   0  0  0  0  0  0
  -21.6034   -4.3068   24.7221 C   0  0  0  0  0  0
  -21.8823   -3.8163   23.4346 C   0  0  0  0  0  0
  -21.9204   -4.6982   22.3409 C   0  0  0  0  0  0
  -22.7842  -13.5210   21.1872 C   0  0  0  0  0  0
  -22.1675   -4.2165   21.0988 F   0  0  0  0  0  0
  -21.5629   -3.4553   25.7742 F   0  0  0  0  0  0
  -29.9823  -13.5122   20.3914 N   0  0  0  0  0  0
  -26.2946  -12.9372   20.3272 N   0  0  0  0  0  0
  -25.9332  -11.6520   20.5781 N   0  0  0  0  0  0
  -22.0503  -12.8176   22.0401 N   0  0  0  0  0  0
  -25.4199  -15.1900   20.4043 N   0  0  0  0  0  0
  -31.7808  -14.8529   20.1456 O   0  0  0  0  0  0
  -21.6642   -6.8900   21.4253 O   0  0  0  0  0  0
  -22.3532  -14.5537   20.6736 O   0  0  0  0  0  0
  -24.6311  -31.8575   23.2034 C   0  0  0  0  0  0
  -25.9155  -32.4758   23.8388 C   0  0  1  0  0  0
  -27.2257  -27.2882   20.1228 C   0  0  0  0  0  0
  -25.5996  -33.8568   24.2317 N   0  0  0  0  0  0
  -23.4270  -30.4820   21.5455 C   0  0  2  0  0  0
  -24.8738  -28.9256   20.1165 C   0  0  0  0  0  0
  -22.7493  -29.4629   22.4923 C   0  0  0  0  0  0
  -18.0301  -28.1380   22.8481 C   0  0  0  0  0  0
  -24.1497  -36.7252   23.2643 C   0  0  0  0  0  0
  -25.9732  -30.7750   21.3846 C   0  0  0  0  0  0
  -26.0455  -29.4024   20.7186 C   0  0  0  0  0  0
  -27.2284  -28.5993   20.7012 C   0  0  0  0  0  0
  -26.0294  -26.8617   19.5103 C   0  0  0  0  0  0
  -24.8680  -27.6616   19.5042 C   0  0  0  0  0  0
  -23.6453  -29.8155   20.1619 C   0  0  0  0  0  0
  -25.4129  -36.3060   24.0331 C   0  0  1  0  0  0
  -20.5899  -28.3710   23.1254 C   0  0  2  0  0  0
  -20.6795  -26.9428   22.5388 C   0  0  0  0  0  0
  -19.5770  -26.6384   21.5200 C   0  0  0  0  0  0
  -18.1950  -26.7932   22.1602 C   0  0  0  0  0  0
  -19.1548  -28.8864   23.2865 C   0  0  0  0  0  0
  -18.9463  -30.1466   23.8887 C   0  0  0  0  0  0
  -17.6458  -30.6579   24.0574 C   0  0  0  0  0  0
  -25.9064  -34.9433   23.5107 C   0  0  0  0  0  0
  -16.5352  -29.9070   23.6346 C   0  0  0  0  0  0
  -16.7284  -28.6486   23.0368 C   0  0  0  0  0  0
  -26.4556  -31.6578   25.0774 C   0  0  0  0  0  0
  -25.3783  -31.3671   26.1485 C   0  0  0  0  0  0
  -27.0472  -30.3006   24.6283 C   0  0  0  0  0  0
  -27.6109  -32.4342   25.7532 C   0  0  0  0  0  0
  -27.5592  -37.1769   24.8473 C   0  0  0  0  0  0
  -21.4201  -29.3055   22.3639 N   0  0  0  0  0  0
  -26.4303  -37.3757   23.9414 N   0  0  0  0  0  0
  -24.6957  -31.0559   22.1000 N   0  0  0  0  0  0
  -23.4197  -28.8174   23.3029 O   0  0  0  0  0  0
  -28.3394  -26.4291   20.1064 O   0  0  0  0  0  0
  -26.5581  -34.8901   22.4639 O   0  0  0  0  0  0
  -23.5457  -32.1417   23.7316 O   0  0  0  0  0  0
  -28.1010  -23.8015   18.4619 C   0  0  0  0  0  0
  -28.1838  -22.6475   17.6664 C   0  0  0  0  0  0
  -28.6812  -21.4376   18.2277 C   0  0  0  0  0  0
  -28.4460  -23.7516   19.8166 C   0  0  0  0  0  0
  -29.0111  -21.3805   19.6130 C   0  0  0  0  0  0
  -27.7283  -22.7557   16.2173 C   0  0  0  0  0  0
  -28.9009  -20.2322   17.3185 C   0  0  0  0  0  0
  -29.7159  -20.0858   20.2576 C   0  0  0  0  0  0
  -28.2109  -25.0562   20.6916 C   0  0  0  0  0  0
  -29.1787  -18.5449   20.1647 C   0  0  0  0  0  0
  -30.1900  -17.3546   20.6285 C   0  0  0  0  0  0
  -28.8789  -22.5447   20.3688 N   0  0  0  0  0  0
  -29.7921  -15.8730   20.6101 N   0  0  0  0  0  0
  -31.4726  -12.5838   19.1528 H   0  0  0  0  0  0
  -30.3888  -11.4770   19.9454 H   0  0  0  0  0  0
  -29.7838  -11.7217   17.5154 H   0  0  0  0  0  0
  -29.6290  -13.4536   17.7066 H   0  0  0  0  0  0
  -27.8933  -11.2778   18.9150 H   0  0  0  0  0  0
  -27.3714  -12.5162   17.8014 H   0  0  0  0  0  0
  -27.6376  -14.2448   19.4638 H   0  0  0  0  0  0
  -28.7329  -12.1508   21.4129 H   0  0  0  0  0  0
  -28.4294  -13.8285   21.7968 H   0  0  0  0  0  0
  -25.2804   -9.5663   22.4780 H   0  0  0  0  0  0
  -24.0011   -7.4630   22.7495 H   0  0  0  0  0  0
  -21.0882   -8.8807   19.8939 H   0  0  0  0  0  0
  -22.3784  -10.9689   19.6171 H   0  0  0  0  0  0
  -21.1999   -7.6163   23.9722 H   0  0  0  0  0  0
  -21.1441   -6.0539   25.9079 H   0  0  0  0  0  0
  -22.0613   -2.7621   23.2847 H   0  0  0  0  0  0
  -22.4139  -11.9810   22.4721 H   0  0  0  0  0  0
  -21.1131  -13.1174   22.2651 H   0  0  0  0  0  0
  -24.6447  -15.8364   20.5091 H   0  0  0  0  0  0
  -26.2464  -15.6258   20.0162 H   0  0  0  0  0  0
  -26.7220  -32.5409   23.1131 H   0  0  0  0  0  0
  -25.0325  -33.9753   25.0586 H   0  0  0  0  0  0
  -22.7231  -31.3050   21.4001 H   0  0  0  0  0  0
  -23.3802  -35.9546   23.3290 H   0  0  0  0  0  0
  -24.3586  -36.8894   22.2061 H   0  0  0  0  0  0
  -23.7217  -37.6425   23.6693 H   0  0  0  0  0  0
  -26.1270  -31.5451   20.6285 H   0  0  0  0  0  0
  -26.8413  -30.8052   22.0322 H   0  0  0  0  0  0
  -28.1351  -28.9662   21.1618 H   0  0  0  0  0  0
  -25.9856  -25.8920   19.0367 H   0  0  0  0  0  0
  -23.9684  -27.2885   19.0350 H   0  0  0  0  0  0
  -23.7751  -30.5953   19.4098 H   0  0  0  0  0  0
  -22.7619  -29.2545   19.8514 H   0  0  0  0  0  0
  -25.1307  -36.1912   25.0827 H   0  0  0  0  0  0
  -20.9998  -28.3296   24.1377 H   0  0  0  0  0  0
  -20.5727  -26.2324   23.3600 H   0  0  0  0  0  0
  -21.6667  -26.7488   22.1167 H   0  0  0  0  0  0
  -19.6946  -25.6297   21.1242 H   0  0  0  0  0  0
  -19.6708  -27.3192   20.6726 H   0  0  0  0  0  0
  -17.4233  -26.6715   21.3987 H   0  0  0  0  0  0
  -18.0321  -26.0061   22.8970 H   0  0  0  0  0  0
  -19.7938  -30.7283   24.2253 H   0  0  0  0  0  0
  -17.5012  -31.6256   24.5178 H   0  0  0  0  0  0
  -15.5352  -30.2958   23.7688 H   0  0  0  0  0  0
  -15.8686  -28.0794   22.7098 H   0  0  0  0  0  0
  -24.5991  -30.6997   25.7788 H   0  0  0  0  0  0
  -24.8942  -32.2801   26.4940 H   0  0  0  0  0  0
  -25.8105  -30.8828   27.0248 H   0  0  0  0  0  0
  -26.3059  -29.6623   24.1451 H   0  0  0  0  0  0
  -27.4326  -29.7405   25.4816 H   0  0  0  0  0  0
  -27.8865  -30.4320   23.9450 H   0  0  0  0  0  0
  -27.2743  -33.3673   26.2060 H   0  0  0  0  0  0
  -28.3928  -32.6830   25.0348 H   0  0  0  0  0  0
  -28.0778  -31.8507   26.5479 H   0  0  0  0  0  0
  -28.2568  -38.0103   24.7573 H   0  0  0  0  0  0
  -28.1130  -36.2631   24.6253 H   0  0  0  0  0  0
  -27.2301  -37.1338   25.8871 H   0  0  0  0  0  0
  -20.9400  -29.8745   21.6809 H   0  0  0  0  0  0
  -26.0182  -38.2828   24.1447 H   0  0  0  0  0  0
  -27.7524  -24.7350   18.0404 H   0  0  0  0  0  0
  -27.1637  -23.6755   16.0559 H   0  0  0  0  0  0
  -27.0709  -21.9266   15.9542 H   0  0  0  0  0  0
  -28.5768  -22.7689   15.5331 H   0  0  0  0  0  0
  -29.0421  -20.5194   16.2770 H   0  0  0  0  0  0
  -28.0473  -19.5557   17.3625 H   0  0  0  0  0  0
  -29.8024  -19.6851   17.5943 H   0  0  0  0  0  0
  -29.8832  -20.3050   21.3121 H   0  0  0  0  0  0
  -30.7143  -20.0767   19.8186 H   0  0  0  0  0  0
  -28.9148  -25.0192   21.5224 H   0  0  0  0  0  0
  -27.2283  -24.9539   21.1528 H   0  0  0  0  0  0
  -28.8786  -18.3239   19.1433 H   0  0  0  0  0  0
  -28.2571  -18.4755   20.7428 H   0  0  0  0  0  0
  -30.4732  -17.5713   21.6588 H   0  0  0  0  0  0
  -31.1124  -17.4582   20.0564 H   0  0  0  0  0  0
  -28.8239  -15.6790   20.8170 H   0  0  0  0  0  0
  1 25  1  0  0  0
  1 30  2  0  0  0
  1 83  1  0  0  0
  2  3  1  0  0  0
  2 25  1  0  0  0
  2 84  1  0  0  0
  2 85  1  0  0  0
  3  4  1  0  0  0
  3 86  1  0  0  0
  3 87  1  0  0  0
  4  5  1  0  0  0
  4 88  1  0  0  0
  4 89  1  0  0  0
  5  6  1  0  0  0
  5 26  1  0  0  0
  5 90  1  0  0  0
  6 25  1  0  0  0
  6 91  1  0  0  0
  6 92  1  0  0  0
  7  8  2  0  0  0
  7 26  1  0  0  0
  7 29  1  0  0  0
  8  9  1  0  0  0
  8 22  1  0  0  0
  9 10  1  0  0  0
  9 27  2  0  0  0
 10 11  2  0  0  0
 10 15  1  0  0  0
 11 12  1  0  0  0
 11 93  1  0  0  0
 12 13  2  0  0  0
 12 94  1  0  0  0
 13 14  1  0  0  0
 13 31  1  0  0  0
 14 15  2  0  0  0
 14 95  1  0  0  0
 15 96  1  0  0  0
 16 17  2  0  0  0
 16 21  1  0  0  0
 16 31  1  0  0  0
 17 18  1  0  0  0
 17 97  1  0  0  0
 18 19  2  0  0  0
 18 98  1  0  0  0
 19 20  1  0  0  0
 19 24  1  0  0  0
 20 21  2  0  0  0
 20 99  1  0  0  0
 21 23  1  0  0  0
 22 28  1  0  0  0
 22 32  2  0  0  0
 26 27  1  0  0  0
 28100  1  0  0  0
 28101  1  0  0  0
 29102  1  0  0  0
 29103  1  0  0  0
 33 34  1  0  0  0
 33 66  1  0  0  0
 33 70  2  0  0  0
 34 36  1  0  0  0
 34 59  1  0  0  0
 34104  1  0  0  0
 35 44  2  0  0  0
 35 45  1  0  0  0
 35 68  1  0  0  0
 36 56  1  0  0  0
 36105  1  0  0  0
 37 39  1  0  0  0
 37 47  1  0  0  0
 37 66  1  0  0  0
 37106  1  0  0  0
 38 43  2  0  0  0
 38 46  1  0  0  0
 38 47  1  0  0  0
 39 64  1  0  0  0
 39 67  2  0  0  0
 40 52  1  0  0  0
 40 53  2  0  0  0
 40 58  1  0  0  0
 41107  1  0  0  0
 41108  1  0  0  0
 41109  1  0  0  0
 41 48  1  0  0  0
 42 43  1  0  0  0
 42 66  1  0  0  0
 42110  1  0  0  0
 42111  1  0  0  0
 43 44  1  0  0  0
 44112  1  0  0  0
 45 46  2  0  0  0
 45113  1  0  0  0
 46114  1  0  0  0
 47115  1  0  0  0
 47116  1  0  0  0
 48 56  1  0  0  0
 48 65  1  0  0  0
 48117  1  0  0  0
 49 50  1  0  0  0
 49 53  1  0  0  0
 49 64  1  0  0  0
 49118  1  0  0  0
 50 51  1  0  0  0
 50119  1  0  0  0
 50120  1  0  0  0
 51 52  1  0  0  0
 51121  1  0  0  0
 51122  1  0  0  0
 52123  1  0  0  0
 52124  1  0  0  0
 53 54  1  0  0  0
 54 55  2  0  0  0
 54125  1  0  0  0
 55 57  1  0  0  0
 55126  1  0  0  0
 56 69  2  0  0  0
 57 58  2  0  0  0
 57127  1  0  0  0
 58128  1  0  0  0
 59 60  1  0  0  0
 59 61  1  0  0  0
 59 62  1  0  0  0
 60129  1  0  0  0
 60130  1  0  0  0
 60131  1  0  0  0
 61132  1  0  0  0
 61133  1  0  0  0
 61134  1  0  0  0
 62135  1  0  0  0
 62136  1  0  0  0
 62137  1  0  0  0
 63 65  1  0  0  0
 63138  1  0  0  0
 63139  1  0  0  0
 63140  1  0  0  0
 64141  1  0  0  0
 65142  1  0  0  0
 68 79  1  0  0  0
 71 72  2  0  0  0
 71 74  1  0  0  0
 71143  1  0  0  0
 72 73  1  0  0  0
 72 76  1  0  0  0
 73 75  2  0  0  0
 73 77  1  0  0  0
 74 79  1  0  0  0
 74 82  2  0  0  0
 75 78  1  0  0  0
 75 82  1  0  0  0
 76144  1  0  0  0
 76145  1  0  0  0
 76146  1  0  0  0
 77147  1  0  0  0
 77148  1  0  0  0
 77149  1  0  0  0
 78 80  1  0  0  0
 78150  1  0  0  0
 78151  1  0  0  0
 79152  1  0  0  0
 79153  1  0  0  0
 80 81  1  0  0  0
 80154  1  0  0  0
 80155  1  0  0  0
 81 83  1  0  0  0
 81156  1  0  0  0
 81157  1  0  0  0
 83158  1  0  0  0
M  ISO  4   1 100  68 101  79 101  83 100
M  END
> <chiral flag>
0

> <version>
0

> <s_m_source_file>
/data/baiqing/PycharmProjects/Reinvent-master-3.2/result/LINK_invent/BTK/process_docking_weight1_custom_sum_contain_oxygen_bond_distance_aromatic_linkinvent_7_9_3/rearranged_h_0046.sdf

> <i_m_source_file_index>
29

> <r_mmod_Potential_Energy-OPLS-2005>
10.6450862884521

> <r_mmod_Stretch_Energy-OPLS-2005>
127.351165771484

> <r_mmod_Bend_Energy-OPLS-2005>
166.366027832031

> <r_mmod_Torsional_Energy-OPLS-2005>
230.028289794922

> <r_mmod_Improper_Torsional_Energy-OPLS-2005>
5.8134560585022

> <r_mmod_Van_der_Waal_Energy-OPLS-2005>
139.215560913086

> <r_mmod_Electrostatic_Energy-OPLS-2005>
-508.505004882812

> <r_mmod_Solvation_Energy-OPLS-2005>
-226.759216308594

> <b_mmod_Minimization_Converged-OPLS-2005>
0

> <r_mmod_RMS_Derivative-OPLS-2005>
2.86173963546753

$$$$
29
                    3D
 Structure written by MMmdl.
166174  0  0  1  0            999 V2000
  -30.6830  -14.6299   20.4586 C   0  0  0  0  0  0
  -30.4146  -12.3846   19.4597 C   0  0  0  0  0  0
  -29.4993  -12.4924   18.2236 C   0  0  0  0  0  0
  -28.0247  -12.3358   18.6394 C   0  0  0  0  0  0
  -27.6432  -13.2305   19.8498 C   0  0  2  0  0  0
  -28.6888  -13.1507   20.9837 C   0  0  0  0  0  0
  -25.2518  -13.8207   20.5695 C   0  0  0  0  0  0
  -24.1806  -13.0446   20.9199 C   0  0  0  0  0  0
  -24.6399  -11.6923   20.8746 C   0  0  0  0  0  0
  -23.9075  -10.4296   21.0403 C   0  0  0  0  0  0
  -24.3622   -9.4211   21.9184 C   0  0  0  0  0  0
  -23.6293   -8.2249   22.0757 C   0  0  0  0  0  0
  -22.4274   -8.0288   21.3545 C   0  0  0  0  0  0
  -21.9911   -9.0264   20.4643 C   0  0  0  0  0  0
  -22.7245  -10.2141   20.3053 C   0  0  0  0  0  0
  -21.6859   -6.0733   22.5275 C   0  0  0  0  0  0
  -21.4019   -6.5635   23.8209 C   0  0  0  0  0  0
  -21.3657   -5.6791   24.9171 C   0  0  0  0  0  0
  -21.6047   -4.3055   24.7222 C   0  0  0  0  0  0
  -21.8819   -3.8144   23.4341 C   0  0  0  0  0  0
  -21.9192   -4.6960   22.3396 C   0  0  0  0  0  0
  -22.7827  -13.5228   21.1857 C   0  0  0  0  0  0
  -22.1662   -4.2144   21.0977 F   0  0  0  0  0  0
  -21.5624   -3.4536   25.7734 F   0  0  0  0  0  0
  -29.9987  -13.4475   20.3965 N   0  0  0  0  0  0
  -26.2949  -12.9415   20.3294 N   0  0  0  0  0  0
  -25.9330  -11.6552   20.5759 N   0  0  0  0  0  0
  -22.0471  -12.8222   22.0415 N   0  0  0  0  0  0
  -25.4201  -15.1930   20.4107 N   0  0  0  0  0  0
  -31.8887  -14.6637   20.2089 O   0  0  0  0  0  0
  -21.6643   -6.8878   21.4238 O   0  0  0  0  0  0
  -22.3508  -14.5529   20.6701 O   0  0  0  0  0  0
  -24.6247  -31.8614   23.2043 C   0  0  0  0  0  0
  -25.9109  -32.4791   23.8360 C   0  0  1  0  0  0
  -27.2156  -27.3368   20.1253 C   0  0  0  0  0  0
  -25.5930  -33.8592   24.2285 N   0  0  0  0  0  0
  -23.4179  -30.4848   21.5469 C   0  0  2  0  0  0
  -24.8644  -28.9442   20.1080 C   0  0  0  0  0  0
  -22.7473  -29.4623   22.4949 C   0  0  0  0  0  0
  -18.0283  -28.1376   22.8483 C   0  0  0  0  0  0
  -24.1496  -36.7308   23.2640 C   0  0  0  0  0  0
  -25.9561  -30.7991   21.3722 C   0  0  0  0  0  0
  -26.0316  -29.4278   20.7145 C   0  0  0  0  0  0
  -27.2155  -28.6353   20.7141 C   0  0  0  0  0  0
  -26.0362  -26.9047   19.4842 C   0  0  0  0  0  0
  -24.8675  -27.6882   19.4806 C   0  0  0  0  0  0
  -23.6318  -29.8236   20.1597 C   0  0  0  0  0  0
  -25.4118  -36.3093   24.0330 C   0  0  1  0  0  0
  -20.5877  -28.3684   23.1287 C   0  0  2  0  0  0
  -20.6781  -26.9412   22.5407 C   0  0  0  0  0  0
  -19.5760  -26.6375   21.5208 C   0  0  0  0  0  0
  -18.1933  -26.7916   22.1610 C   0  0  0  0  0  0
  -19.1530  -28.8843   23.2880 C   0  0  0  0  0  0
  -18.9463  -30.1441   23.8894 C   0  0  0  0  0  0
  -17.6466  -30.6580   24.0553 C   0  0  0  0  0  0
  -25.9055  -34.9460   23.5105 C   0  0  0  0  0  0
  -16.5358  -29.9077   23.6325 C   0  0  0  0  0  0
  -16.7271  -28.6497   23.0345 C   0  0  0  0  0  0
  -26.4500  -31.6591   25.0720 C   0  0  0  0  0  0
  -25.3730  -31.3727   26.1449 C   0  0  0  0  0  0
  -27.0343  -30.3020   24.6155 C   0  0  0  0  0  0
  -27.6059  -32.4326   25.7493 C   0  0  0  0  0  0
  -27.5587  -37.1805   24.8462 C   0  0  0  0  0  0
  -21.4187  -29.3033   22.3691 N   0  0  0  0  0  0
  -26.4301  -37.3783   23.9402 N   0  0  0  0  0  0
  -24.6849  -31.0645   22.0984 N   0  0  0  0  0  0
  -23.4208  -28.8169   23.3029 O   0  0  0  0  0  0
  -28.3064  -26.4675   20.1684 O   0  0  0  0  0  0
  -26.5623  -34.8922   22.4674 O   0  0  0  0  0  0
  -23.5416  -32.1396   23.7379 O   0  0  0  0  0  0
  -30.5561  -19.5491   21.1647 C   0  0  0  0  0  0
  -29.8434  -18.4924   20.5268 C   0  0  0  0  0  0
  -28.1334  -20.0409   20.1109 C   0  0  0  0  0  0
  -28.8606  -21.1029   20.7401 C   0  0  0  0  0  0
  -26.7572  -20.2672   19.5176 C   0  0  0  0  0  0
  -31.8864  -18.3843   16.6124 C   0  0  0  0  0  0
  -33.1638  -18.4377   18.7771 C   0  0  0  0  0  0
  -28.2601  -22.5199   21.0499 C   0  0  0  0  0  0
  -28.6943  -23.8205   20.2499 C   0  0  0  0  0  0
  -30.9241  -17.1857   18.6295 C   0  0  0  0  0  0
  -28.0487  -25.1611   20.8076 C   0  0  0  0  0  0
  -30.5654  -17.1495   20.1472 C   0  0  2  0  0  0
  -31.7620  -18.3961   18.1435 C   0  0  0  0  0  0
  -30.0792  -20.8258   21.2740 N   0  0  0  0  0  0
  -28.6125  -18.7586   20.0079 N   0  0  0  0  0  0
  -29.9759  -15.8060   20.5102 N   0  0  0  0  0  0
  -31.4605  -12.4728   19.1599 H   0  0  0  0  0  0
  -30.3186  -11.4046   19.9291 H   0  0  0  0  0  0
  -29.7651  -11.7311   17.4888 H   0  0  0  0  0  0
  -29.6477  -13.4564   17.7335 H   0  0  0  0  0  0
  -27.8690  -11.2868   18.8941 H   0  0  0  0  0  0
  -27.3687  -12.5440   17.7933 H   0  0  0  0  0  0
  -27.6437  -14.2554   19.4774 H   0  0  0  0  0  0
  -28.6948  -12.1618   21.4439 H   0  0  0  0  0  0
  -28.4494  -13.8595   21.7782 H   0  0  0  0  0  0
  -25.2761   -9.5689   22.4760 H   0  0  0  0  0  0
  -23.9994   -7.4644   22.7486 H   0  0  0  0  0  0
  -21.0839   -8.8788   19.8953 H   0  0  0  0  0  0
  -22.3702  -10.9682   19.6164 H   0  0  0  0  0  0
  -21.2022   -7.6147   23.9711 H   0  0  0  0  0  0
  -21.1478   -6.0520   25.9074 H   0  0  0  0  0  0
  -22.0601   -2.7604   23.2846 H   0  0  0  0  0  0
  -22.4086  -11.9879   22.4794 H   0  0  0  0  0  0
  -21.1093  -13.1258   22.2620 H   0  0  0  0  0  0
  -24.6509  -15.8447   20.5173 H   0  0  0  0  0  0
  -26.2698  -15.6375   20.0870 H   0  0  0  0  0  0
  -26.7182  -32.5473   23.1112 H   0  0  0  0  0  0
  -25.0065  -33.9731   25.0423 H   0  0  0  0  0  0
  -22.7100  -31.3048   21.4074 H   0  0  0  0  0  0
  -23.3753  -35.9647   23.3300 H   0  0  0  0  0  0
  -24.3586  -36.8931   22.2057 H   0  0  0  0  0  0
  -23.7249  -37.6510   23.6666 H   0  0  0  0  0  0
  -26.0830  -31.5654   20.6058 H   0  0  0  0  0  0
  -26.8378  -30.8475   21.9999 H   0  0  0  0  0  0
  -28.1102  -28.9959   21.2025 H   0  0  0  0  0  0
  -26.0104  -25.9370   19.0016 H   0  0  0  0  0  0
  -23.9752  -27.3133   18.9977 H   0  0  0  0  0  0
  -23.7505  -30.6041   19.4068 H   0  0  0  0  0  0
  -22.7512  -29.2551   19.8563 H   0  0  0  0  0  0
  -25.1290  -36.1959   25.0820 H   0  0  0  0  0  0
  -20.9954  -28.3264   24.1410 H   0  0  0  0  0  0
  -20.5696  -26.2291   23.3603 H   0  0  0  0  0  0
  -21.6653  -26.7457   22.1192 H   0  0  0  0  0  0
  -19.6931  -25.6287   21.1237 H   0  0  0  0  0  0
  -19.6701  -27.3192   20.6747 H   0  0  0  0  0  0
  -17.4204  -26.6662   21.4013 H   0  0  0  0  0  0
  -18.0331  -26.0057   22.9002 H   0  0  0  0  0  0
  -19.7948  -30.7245   24.2269 H   0  0  0  0  0  0
  -17.5031  -31.6265   24.5162 H   0  0  0  0  0  0
  -15.5359  -30.2980   23.7657 H   0  0  0  0  0  0
  -15.8669  -28.0823   22.7048 H   0  0  0  0  0  0
  -24.5899  -30.7083   25.7776 H   0  0  0  0  0  0
  -24.8928  -32.2896   26.4880 H   0  0  0  0  0  0
  -25.8044  -30.8900   27.0220 H   0  0  0  0  0  0
  -26.2913  -29.6768   24.1197 H   0  0  0  0  0  0
  -27.4072  -29.7282   25.4644 H   0  0  0  0  0  0
  -27.8760  -30.4316   23.9349 H   0  0  0  0  0  0
  -27.2669  -33.3628   26.2066 H   0  0  0  0  0  0
  -28.3872  -32.6880   25.0318 H   0  0  0  0  0  0
  -28.0722  -31.8450   26.5409 H   0  0  0  0  0  0
  -28.2591  -38.0118   24.7509 H   0  0  0  0  0  0
  -28.1086  -36.2637   24.6276 H   0  0  0  0  0  0
  -27.2296  -37.1443   25.8864 H   0  0  0  0  0  0
  -20.9364  -29.8776   21.6914 H   0  0  0  0  0  0
  -26.0188  -38.2856   24.1401 H   0  0  0  0  0  0
  -31.5571  -19.3892   21.5364 H   0  0  0  0  0  0
  -26.0158  -20.3762   20.3085 H   0  0  0  0  0  0
  -26.4563  -19.4337   18.8819 H   0  0  0  0  0  0
  -26.7477  -21.1696   18.9064 H   0  0  0  0  0  0
  -32.4293  -19.2603   16.2544 H   0  0  0  0  0  0
  -30.9066  -18.3904   16.1340 H   0  0  0  0  0  0
  -32.4212  -17.4997   16.2643 H   0  0  0  0  0  0
  -33.7428  -19.2767   18.3896 H   0  0  0  0  0  0
  -33.7256  -17.5272   18.5652 H   0  0  0  0  0  0
  -33.1243  -18.5558   19.8593 H   0  0  0  0  0  0
  -28.4715  -22.7038   22.1039 H   0  0  0  0  0  0
  -27.1741  -22.4459   21.0087 H   0  0  0  0  0  0
  -28.4232  -23.6985   19.2015 H   0  0  0  0  0  0
  -29.7802  -23.9122   20.2788 H   0  0  0  0  0  0
  -29.9883  -17.1668   18.0687 H   0  0  0  0  0  0
  -31.4519  -16.2816   18.3301 H   0  0  0  0  0  0
  -28.3804  -25.2742   21.8405 H   0  0  0  0  0  0
  -26.9772  -24.9787   20.8981 H   0  0  0  0  0  0
  -31.5040  -17.1813   20.7025 H   0  0  0  0  0  0
  -31.2448  -19.3203   18.4052 H   0  0  0  0  0  0
  -28.9795  -15.7645   20.6594 H   0  0  0  0  0  0
  1 25  1  0  0  0
  1 30  2  0  0  0
  1 86  1  0  0  0
  2  3  1  0  0  0
  2 25  1  0  0  0
  2 87  1  0  0  0
  2 88  1  0  0  0
  3  4  1  0  0  0
  3 89  1  0  0  0
  3 90  1  0  0  0
  4  5  1  0  0  0
  4 91  1  0  0  0
  4 92  1  0  0  0
  5  6  1  0  0  0
  5 26  1  0  0  0
  5 93  1  0  0  0
  6 25  1  0  0  0
  6 94  1  0  0  0
  6 95  1  0  0  0
  7  8  2  0  0  0
  7 26  1  0  0  0
  7 29  1  0  0  0
  8  9  1  0  0  0
  8 22  1  0  0  0
  9 10  1  0  0  0
  9 27  2  0  0  0
 10 11  2  0  0  0
 10 15  1  0  0  0
 11 12  1  0  0  0
 11 96  1  0  0  0
 12 13  2  0  0  0
 12 97  1  0  0  0
 13 14  1  0  0  0
 13 31  1  0  0  0
 14 15  2  0  0  0
 14 98  1  0  0  0
 15 99  1  0  0  0
 16 17  2  0  0  0
 16 21  1  0  0  0
 16 31  1  0  0  0
 17 18  1  0  0  0
 17100  1  0  0  0
 18 19  2  0  0  0
 18101  1  0  0  0
 19 20  1  0  0  0
 19 24  1  0  0  0
 20 21  2  0  0  0
 20102  1  0  0  0
 21 23  1  0  0  0
 22 28  1  0  0  0
 22 32  2  0  0  0
 26 27  1  0  0  0
 28103  1  0  0  0
 28104  1  0  0  0
 29105  1  0  0  0
 29106  1  0  0  0
 33 34  1  0  0  0
 33 66  1  0  0  0
 33 70  2  0  0  0
 34 36  1  0  0  0
 34 59  1  0  0  0
 34107  1  0  0  0
 35 44  2  0  0  0
 35 45  1  0  0  0
 35 68  1  0  0  0
 36 56  1  0  0  0
 36108  1  0  0  0
 37 39  1  0  0  0
 37 47  1  0  0  0
 37 66  1  0  0  0
 37109  1  0  0  0
 38 43  2  0  0  0
 38 46  1  0  0  0
 38 47  1  0  0  0
 39 64  1  0  0  0
 39 67  2  0  0  0
 40 52  1  0  0  0
 40 53  2  0  0  0
 40 58  1  0  0  0
 41110  1  0  0  0
 41111  1  0  0  0
 41112  1  0  0  0
 41 48  1  0  0  0
 42 43  1  0  0  0
 42 66  1  0  0  0
 42113  1  0  0  0
 42114  1  0  0  0
 43 44  1  0  0  0
 44115  1  0  0  0
 45 46  2  0  0  0
 45116  1  0  0  0
 46117  1  0  0  0
 47118  1  0  0  0
 47119  1  0  0  0
 48 56  1  0  0  0
 48 65  1  0  0  0
 48120  1  0  0  0
 49 50  1  0  0  0
 49 53  1  0  0  0
 49 64  1  0  0  0
 49121  1  0  0  0
 50 51  1  0  0  0
 50122  1  0  0  0
 50123  1  0  0  0
 51 52  1  0  0  0
 51124  1  0  0  0
 51125  1  0  0  0
 52126  1  0  0  0
 52127  1  0  0  0
 53 54  1  0  0  0
 54 55  2  0  0  0
 54128  1  0  0  0
 55 57  1  0  0  0
 55129  1  0  0  0
 56 69  2  0  0  0
 57 58  2  0  0  0
 57130  1  0  0  0
 58131  1  0  0  0
 59 60  1  0  0  0
 59 61  1  0  0  0
 59 62  1  0  0  0
 60132  1  0  0  0
 60133  1  0  0  0
 60134  1  0  0  0
 61135  1  0  0  0
 61136  1  0  0  0
 61137  1  0  0  0
 62138  1  0  0  0
 62139  1  0  0  0
 62140  1  0  0  0
 63 65  1  0  0  0
 63141  1  0  0  0
 63142  1  0  0  0
 63143  1  0  0  0
 64144  1  0  0  0
 65145  1  0  0  0
 68 81  1  0  0  0
 71 72  2  0  0  0
 71 84  1  0  0  0
 71146  1  0  0  0
 72 82  1  0  0  0
 72 85  1  0  0  0
 73 74  1  0  0  0
 73 75  1  0  0  0
 73 85  2  0  0  0
 74 78  1  0  0  0
 74 84  2  0  0  0
 75147  1  0  0  0
 75148  1  0  0  0
 75149  1  0  0  0
 76150  1  0  0  0
 76151  1  0  0  0
 76152  1  0  0  0
 76 83  1  0  0  0
 77 83  1  0  0  0
 77153  1  0  0  0
 77154  1  0  0  0
 77155  1  0  0  0
 78 79  1  0  0  0
 78156  1  0  0  0
 78157  1  0  0  0
 79 81  1  0  0  0
 79158  1  0  0  0
 79159  1  0  0  0
 80 83  1  0  0  0
 80160  1  0  0  0
 80161  1  0  0  0
 80 82  1  0  0  0
 81162  1  0  0  0
 81163  1  0  0  0
 82 86  1  0  0  0
 82164  1  0  0  0
 83165  1  0  0  0
 86166  1  0  0  0
M  ISO  4   1 100  68 101  81 101  86 100
M  END
> <chiral flag>
0

> <version>
0

> <s_m_source_file>
/data/baiqing/PycharmProjects/Reinvent-master-3.2/result/LINK_invent/BTK/process_docking_weight1_custom_sum_contain_oxygen_bond_distance_aromatic_linkinvent_7_9_3/rearranged_h_0046.sdf

> <i_m_source_file_index>
30

> <r_mmod_Potential_Energy-OPLS-2005>
67.7830657958984

> <r_mmod_Stretch_Energy-OPLS-2005>
77.3088912963867

> <r_mmod_Bend_Energy-OPLS-2005>
139.256378173828

> <r_mmod_Torsional_Energy-OPLS-2005>
221.474853515625

> <r_mmod_Improper_Torsional_Energy-OPLS-2005>
9.58723068237305

> <r_mmod_Van_der_Waal_Energy-OPLS-2005>
145.654388427734

> <r_mmod_Electrostatic_Energy-OPLS-2005>
-372.088134765625

> <r_mmod_Solvation_Energy-OPLS-2005>
-206.676605224609

> <b_mmod_Minimization_Converged-OPLS-2005>
0

> <r_mmod_RMS_Derivative-OPLS-2005>
1.3223295211792

$$$$
30
                    3D
 Structure written by MMmdl.
173180  0  0  1  0            999 V2000
  -30.6136  -14.6499   20.5248 C   0  0  0  0  0  0
  -30.4335  -12.4128   19.4452 C   0  0  0  0  0  0
  -29.4976  -12.5092   18.2195 C   0  0  0  0  0  0
  -28.0189  -12.3573   18.6306 C   0  0  0  0  0  0
  -27.6438  -13.2215   19.8625 C   0  0  2  0  0  0
  -28.6873  -13.0776   20.9885 C   0  0  0  0  0  0
  -25.2502  -13.8178   20.5693 C   0  0  0  0  0  0
  -24.1792  -13.0443   20.9212 C   0  0  0  0  0  0
  -24.6365  -11.6904   20.8759 C   0  0  0  0  0  0
  -23.9058  -10.4282   21.0428 C   0  0  0  0  0  0
  -24.3607   -9.4192   21.9207 C   0  0  0  0  0  0
  -23.6289   -8.2236   22.0757 C   0  0  0  0  0  0
  -22.4288   -8.0264   21.3527 C   0  0  0  0  0  0
  -21.9919   -9.0250   20.4642 C   0  0  0  0  0  0
  -22.7246  -10.2126   20.3067 C   0  0  0  0  0  0
  -21.6839   -6.0735   22.5279 C   0  0  0  0  0  0
  -21.4008   -6.5637   23.8207 C   0  0  0  0  0  0
  -21.3667   -5.6793   24.9172 C   0  0  0  0  0  0
  -21.6035   -4.3055   24.7229 C   0  0  0  0  0  0
  -21.8825   -3.8146   23.4351 C   0  0  0  0  0  0
  -21.9193   -4.6971   22.3393 C   0  0  0  0  0  0
  -22.7819  -13.5206   21.1892 C   0  0  0  0  0  0
  -22.1660   -4.2142   21.0980 F   0  0  0  0  0  0
  -21.5638   -3.4549   25.7749 F   0  0  0  0  0  0
  -29.9950  -13.4306   20.4189 N   0  0  0  0  0  0
  -26.2923  -12.9361   20.3331 N   0  0  0  0  0  0
  -25.9281  -11.6512   20.5779 N   0  0  0  0  0  0
  -22.0467  -12.8171   22.0427 N   0  0  0  0  0  0
  -25.4238  -15.1910   20.4074 N   0  0  0  0  0  0
  -31.7911  -14.8053   20.1949 O   0  0  0  0  0  0
  -21.6634   -6.8879   21.4231 O   0  0  0  0  0  0
  -22.3487  -14.5525   20.6757 O   0  0  0  0  0  0
  -24.6291  -31.8569   23.1988 C   0  0  0  0  0  0
  -25.9125  -32.4766   23.8311 C   0  0  1  0  0  0
  -27.2300  -27.2829   20.1115 C   0  0  0  0  0  0
  -25.5894  -33.8564   24.2233 N   0  0  0  0  0  0
  -23.4261  -30.4746   21.5477 C   0  0  2  0  0  0
  -24.8721  -28.9231   20.1133 C   0  0  0  0  0  0
  -22.7501  -29.4579   22.4978 C   0  0  0  0  0  0
  -18.0257  -28.1418   22.8471 C   0  0  0  0  0  0
  -24.1473  -36.7295   23.2632 C   0  0  0  0  0  0
  -25.9676  -30.7663   21.3801 C   0  0  0  0  0  0
  -26.0421  -29.3884   20.7289 C   0  0  0  0  0  0
  -27.2201  -28.5765   20.7296 C   0  0  0  0  0  0
  -26.0336  -26.8847   19.4668 C   0  0  0  0  0  0
  -24.8693  -27.6745   19.4752 C   0  0  0  0  0  0
  -23.6438  -29.8094   20.1634 C   0  0  0  0  0  0
  -25.4093  -36.3064   24.0311 C   0  0  1  0  0  0
  -20.5870  -28.3707   23.1304 C   0  0  2  0  0  0
  -20.6776  -26.9438   22.5447 C   0  0  0  0  0  0
  -19.5739  -26.6416   21.5261 C   0  0  0  0  0  0
  -18.1905  -26.7944   22.1640 C   0  0  0  0  0  0
  -19.1519  -28.8881   23.2860 C   0  0  0  0  0  0
  -18.9452  -30.1499   23.8844 C   0  0  0  0  0  0
  -17.6460  -30.6623   24.0566 C   0  0  0  0  0  0
  -25.9052  -34.9443   23.5081 C   0  0  0  0  0  0
  -16.5329  -29.9132   23.6342 C   0  0  0  0  0  0
  -16.7241  -28.6569   23.0310 C   0  0  0  0  0  0
  -26.4479  -31.6573   25.0699 C   0  0  0  0  0  0
  -25.3702  -31.3691   26.1413 C   0  0  0  0  0  0
  -27.0382  -30.2993   24.6218 C   0  0  0  0  0  0
  -27.6005  -32.4352   25.7484 C   0  0  0  0  0  0
  -27.5565  -37.1794   24.8439 C   0  0  0  0  0  0
  -21.4215  -29.3026   22.3701 N   0  0  0  0  0  0
  -26.4243  -37.3796   23.9432 N   0  0  0  0  0  0
  -24.6936  -31.0515   22.0975 N   0  0  0  0  0  0
  -23.4184  -28.8117   23.3101 O   0  0  0  0  0  0
  -28.3424  -26.4124   20.1465 O   0  0  0  0  0  0
  -26.5681  -34.8915   22.4683 O   0  0  0  0  0  0
  -23.5450  -32.1428   23.7261 O   0  0  0  0  0  0
  -28.3061  -22.2337   21.9611 C   0  0  0  0  0  0
  -30.4197  -22.7044   15.2242 C   0  0  0  0  0  0
  -30.6664  -20.2598   15.6308 C   0  0  0  0  0  0
  -28.3797  -21.2955   15.5448 C   0  0  0  0  0  0
  -29.7689  -18.3285   20.1895 C   0  0  0  0  0  0
  -29.9017  -21.8186   17.5281 C   0  0  0  0  0  0
  -29.2032  -23.8149   20.2114 C   0  0  0  0  0  0
  -30.1329  -17.1451   21.2000 C   0  0  0  0  0  0
  -29.3379  -19.7683   20.7855 C   0  0  0  0  0  0
  -29.2441  -20.7989   18.4922 C   0  0  0  0  0  0
  -28.1065  -24.9542   19.9161 C   0  0  0  0  0  0
  -28.6595  -22.3073   20.4554 C   0  0  1  0  0  0
  -29.8355  -21.5044   16.0038 C   0  0  0  0  0  0
  -29.8090  -15.7138   20.8433 N   0  0  0  0  0  0
  -29.4661  -21.0701   19.9546 N   0  3  1  0  0  0
  -31.4694  -12.5625   19.1330 H   0  0  0  0  0  0
  -30.3891  -11.4169   19.8892 H   0  0  0  0  0  0
  -29.7561  -11.7448   17.4838 H   0  0  0  0  0  0
  -29.6414  -13.4712   17.7242 H   0  0  0  0  0  0
  -27.8393  -11.3047   18.8488 H   0  0  0  0  0  0
  -27.3685  -12.6065   17.7911 H   0  0  0  0  0  0
  -27.6601  -14.2586   19.5260 H   0  0  0  0  0  0
  -28.7005  -12.0545   21.3688 H   0  0  0  0  0  0
  -28.4303  -13.7091   21.8402 H   0  0  0  0  0  0
  -25.2748   -9.5662   22.4792 H   0  0  0  0  0  0
  -23.9993   -7.4610   22.7461 H   0  0  0  0  0  0
  -21.0866   -8.8769   19.8929 H   0  0  0  0  0  0
  -22.3718  -10.9672   19.6180 H   0  0  0  0  0  0
  -21.1990   -7.6149   23.9696 H   0  0  0  0  0  0
  -21.1487   -6.0540   25.9073 H   0  0  0  0  0  0
  -22.0602   -2.7613   23.2857 H   0  0  0  0  0  0
  -22.4095  -11.9812   22.4779 H   0  0  0  0  0  0
  -21.1085  -13.1161   22.2663 H   0  0  0  0  0  0
  -24.6557  -15.8488   20.4928 H   0  0  0  0  0  0
  -26.2686  -15.6162   20.0480 H   0  0  0  0  0  0
  -26.7168  -32.5436   23.1040 H   0  0  0  0  0  0
  -24.9967  -33.9696   25.0317 H   0  0  0  0  0  0
  -22.7181  -31.2922   21.4042 H   0  0  0  0  0  0
  -23.3740  -35.9620   23.3263 H   0  0  0  0  0  0
  -24.3563  -36.9004   22.2058 H   0  0  0  0  0  0
  -23.7237  -37.6470   23.6723 H   0  0  0  0  0  0
  -26.1019  -31.5108   20.5942 H   0  0  0  0  0  0
  -26.8438  -30.8242   22.0127 H   0  0  0  0  0  0
  -28.1081  -28.9144   21.2458 H   0  0  0  0  0  0
  -25.9635  -25.9372   18.9556 H   0  0  0  0  0  0
  -23.9744  -27.3112   18.9882 H   0  0  0  0  0  0
  -23.7651  -30.5842   19.4049 H   0  0  0  0  0  0
  -22.7606  -29.2434   19.8645 H   0  0  0  0  0  0
  -25.1285  -36.1886   25.0806 H   0  0  0  0  0  0
  -20.9878  -28.3302   24.1473 H   0  0  0  0  0  0
  -20.5806  -26.2303   23.3644 H   0  0  0  0  0  0
  -21.6638  -26.7577   22.1174 H   0  0  0  0  0  0
  -19.6917  -25.6340   21.1274 H   0  0  0  0  0  0
  -19.6670  -27.3232   20.6781 H   0  0  0  0  0  0
  -17.4206  -26.6655   21.4019 H   0  0  0  0  0  0
  -18.0265  -26.0128   22.9070 H   0  0  0  0  0  0
  -19.7940  -30.7332   24.2177 H   0  0  0  0  0  0
  -17.5028  -31.6292   24.5212 H   0  0  0  0  0  0
  -15.5339  -30.3015   23.7788 H   0  0  0  0  0  0
  -15.8616  -28.0950   22.6973 H   0  0  0  0  0  0
  -24.5885  -30.7041   25.7725 H   0  0  0  0  0  0
  -24.8849  -32.2835   26.4827 H   0  0  0  0  0  0
  -25.8003  -30.8871   27.0203 H   0  0  0  0  0  0
  -26.3002  -29.6701   24.1224 H   0  0  0  0  0  0
  -27.4042  -29.7295   25.4772 H   0  0  0  0  0  0
  -27.8855  -30.4262   23.9481 H   0  0  0  0  0  0
  -27.2576  -33.3684   26.1957 H   0  0  0  0  0  0
  -28.3829  -32.6889   25.0325 H   0  0  0  0  0  0
  -28.0627  -31.8555   26.5491 H   0  0  0  0  0  0
  -28.2520  -38.0161   24.7636 H   0  0  0  0  0  0
  -28.1152  -36.2726   24.6090 H   0  0  0  0  0  0
  -27.2318  -37.1204   25.8842 H   0  0  0  0  0  0
  -20.9441  -29.8709   21.6841 H   0  0  0  0  0  0
  -26.0114  -38.2851   24.1521 H   0  0  0  0  0  0
  -27.7339  -23.1141   22.2588 H   0  0  0  0  0  0
  -29.2024  -22.2140   22.5849 H   0  0  0  0  0  0
  -27.6768  -21.3841   22.2180 H   0  0  0  0  0  0
  -30.4034  -22.5261   14.1472 H   0  0  0  0  0  0
  -31.4565  -22.9032   15.4990 H   0  0  0  0  0  0
  -29.8556  -23.6211   15.4017 H   0  0  0  0  0  0
  -30.6473  -20.0927   14.5516 H   0  0  0  0  0  0
  -30.2784  -19.3525   16.0928 H   0  0  0  0  0  0
  -31.7122  -20.3678   15.9237 H   0  0  0  0  0  0
  -28.3079  -21.2726   14.4560 H   0  0  0  0  0  0
  -27.7273  -22.0977   15.8943 H   0  0  0  0  0  0
  -27.9734  -20.3520   15.9118 H   0  0  0  0  0  0
  -28.9620  -17.9851   19.5409 H   0  0  0  0  0  0
  -30.6429  -18.4452   19.5475 H   0  0  0  0  0  0
  -30.9481  -21.9398   17.8114 H   0  0  0  0  0  0
  -29.4252  -22.7840   17.6732 H   0  0  0  0  0  0
  -29.7505  -24.1104   21.1046 H   0  0  0  0  0  0
  -29.9670  -23.8473   19.4386 H   0  0  0  0  0  0
  -29.6170  -17.3318   22.1440 H   0  0  0  0  0  0
  -31.1944  -17.2117   21.4424 H   0  0  0  0  0  0
  -29.8705  -19.9182   21.7256 H   0  0  0  0  0  0
  -28.2900  -19.6459   21.0596 H   0  0  0  0  0  0
  -29.6663  -19.8409   18.2159 H   0  0  0  0  0  0
  -28.1770  -20.6967   18.2972 H   0  0  0  0  0  0
  -27.2053  -24.6799   20.4657 H   0  0  0  0  0  0
  -27.8516  -24.8415   18.8616 H   0  0  0  0  0  0
  -27.7062  -22.2500   19.9308 H   0  0  0  0  0  0
  -28.8480  -15.4497   21.0063 H   0  0  0  0  0  0
  -30.4443  -21.3065   20.0453 H   0  0  0  0  0  0
  1 25  1  0  0  0
  1 30  2  0  0  0
  1 84  1  0  0  0
  2  3  1  0  0  0
  2 25  1  0  0  0
  2 86  1  0  0  0
  2 87  1  0  0  0
  3  4  1  0  0  0
  3 88  1  0  0  0
  3 89  1  0  0  0
  4  5  1  0  0  0
  4 90  1  0  0  0
  4 91  1  0  0  0
  5  6  1  0  0  0
  5 26  1  0  0  0
  5 92  1  0  0  0
  6 25  1  0  0  0
  6 93  1  0  0  0
  6 94  1  0  0  0
  7  8  2  0  0  0
  7 26  1  0  0  0
  7 29  1  0  0  0
  8  9  1  0  0  0
  8 22  1  0  0  0
  9 10  1  0  0  0
  9 27  2  0  0  0
 10 11  2  0  0  0
 10 15  1  0  0  0
 11 12  1  0  0  0
 11 95  1  0  0  0
 12 13  2  0  0  0
 12 96  1  0  0  0
 13 14  1  0  0  0
 13 31  1  0  0  0
 14 15  2  0  0  0
 14 97  1  0  0  0
 15 98  1  0  0  0
 16 17  2  0  0  0
 16 21  1  0  0  0
 16 31  1  0  0  0
 17 18  1  0  0  0
 17 99  1  0  0  0
 18 19  2  0  0  0
 18100  1  0  0  0
 19 20  1  0  0  0
 19 24  1  0  0  0
 20 21  2  0  0  0
 20101  1  0  0  0
 21 23  1  0  0  0
 22 28  1  0  0  0
 22 32  2  0  0  0
 26 27  1  0  0  0
 28102  1  0  0  0
 28103  1  0  0  0
 29104  1  0  0  0
 29105  1  0  0  0
 33 34  1  0  0  0
 33 66  1  0  0  0
 33 70  2  0  0  0
 34 36  1  0  0  0
 34 59  1  0  0  0
 34106  1  0  0  0
 35 44  2  0  0  0
 35 45  1  0  0  0
 35 68  1  0  0  0
 36 56  1  0  0  0
 36107  1  0  0  0
 37 39  1  0  0  0
 37 47  1  0  0  0
 37 66  1  0  0  0
 37108  1  0  0  0
 38 43  2  0  0  0
 38 46  1  0  0  0
 38 47  1  0  0  0
 39 64  1  0  0  0
 39 67  2  0  0  0
 40 52  1  0  0  0
 40 53  2  0  0  0
 40 58  1  0  0  0
 41109  1  0  0  0
 41110  1  0  0  0
 41111  1  0  0  0
 41 48  1  0  0  0
 42 43  1  0  0  0
 42 66  1  0  0  0
 42112  1  0  0  0
 42113  1  0  0  0
 43 44  1  0  0  0
 44114  1  0  0  0
 45 46  2  0  0  0
 45115  1  0  0  0
 46116  1  0  0  0
 47117  1  0  0  0
 47118  1  0  0  0
 48 56  1  0  0  0
 48 65  1  0  0  0
 48119  1  0  0  0
 49 50  1  0  0  0
 49 53  1  0  0  0
 49 64  1  0  0  0
 49120  1  0  0  0
 50 51  1  0  0  0
 50121  1  0  0  0
 50122  1  0  0  0
 51 52  1  0  0  0
 51123  1  0  0  0
 51124  1  0  0  0
 52125  1  0  0  0
 52126  1  0  0  0
 53 54  1  0  0  0
 54 55  2  0  0  0
 54127  1  0  0  0
 55 57  1  0  0  0
 55128  1  0  0  0
 56 69  2  0  0  0
 57 58  2  0  0  0
 57129  1  0  0  0
 58130  1  0  0  0
 59 60  1  0  0  0
 59 61  1  0  0  0
 59 62  1  0  0  0
 60131  1  0  0  0
 60132  1  0  0  0
 60133  1  0  0  0
 61134  1  0  0  0
 61135  1  0  0  0
 61136  1  0  0  0
 62137  1  0  0  0
 62138  1  0  0  0
 62139  1  0  0  0
 63 65  1  0  0  0
 63140  1  0  0  0
 63141  1  0  0  0
 63142  1  0  0  0
 64143  1  0  0  0
 65144  1  0  0  0
 68 81  1  0  0  0
 71145  1  0  0  0
 71146  1  0  0  0
 71147  1  0  0  0
 71 82  1  0  0  0
 72148  1  0  0  0
 72149  1  0  0  0
 72150  1  0  0  0
 72 83  1  0  0  0
 73 83  1  0  0  0
 73151  1  0  0  0
 73152  1  0  0  0
 73153  1  0  0  0
 74 83  1  0  0  0
 74154  1  0  0  0
 74155  1  0  0  0
 74156  1  0  0  0
 75 78  1  0  0  0
 75 79  1  0  0  0
 75157  1  0  0  0
 75158  1  0  0  0
 76 80  1  0  0  0
 76 83  1  0  0  0
 76159  1  0  0  0
 76160  1  0  0  0
 77 81  1  0  0  0
 77 82  1  0  0  0
 77161  1  0  0  0
 77162  1  0  0  0
 78 84  1  0  0  0
 78163  1  0  0  0
 78164  1  0  0  0
 79165  1  0  0  0
 79166  1  0  0  0
 79 85  1  0  0  0
 80 85  1  0  0  0
 80167  1  0  0  0
 80168  1  0  0  0
 81169  1  0  0  0
 81170  1  0  0  0
 82 85  1  0  0  0
 82171  1  0  0  0
 84172  1  0  0  0
 85173  1  0  0  0
M  CHG  1  85   1
M  ISO  4   1 100  68 101  81 101  84 100
M  END
> <chiral flag>
0

> <version>
0

> <s_m_source_file>
/data/baiqing/PycharmProjects/Reinvent-master-3.2/result/LINK_invent/BTK/process_docking_weight1_custom_sum_contain_oxygen_bond_distance_aromatic_linkinvent_7_9_3/rearranged_h_0046.sdf

> <i_m_source_file_index>
31

> <r_mmod_Potential_Energy-OPLS-2005>
96.5270919799805

> <r_mmod_Stretch_Energy-OPLS-2005>
113.874687194824

> <r_mmod_Bend_Energy-OPLS-2005>
179.516021728516

> <r_mmod_Torsional_Energy-OPLS-2005>
249.789108276367

> <r_mmod_Improper_Torsional_Energy-OPLS-2005>
4.1174578666687

> <r_mmod_Van_der_Waal_Energy-OPLS-2005>
139.215835571289

> <r_mmod_Electrostatic_Energy-OPLS-2005>
-212.921051025391

> <r_mmod_Solvation_Energy-OPLS-2005>
-436.814331054688

> <b_mmod_Minimization_Converged-OPLS-2005>
0

> <r_mmod_RMS_Derivative-OPLS-2005>
4.18922758102417

$$$$
31
                    3D
 Structure written by MMmdl.
161169  0  0  1  0            999 V2000
  -30.7105  -14.4070   20.6077 C   0  0  0  0  0  0
  -30.4058  -12.2836   19.3743 C   0  0  0  0  0  0
  -29.4551  -12.4693   18.1738 C   0  0  0  0  0  0
  -27.9858  -12.3543   18.6117 C   0  0  0  0  0  0
  -27.6590  -13.1915   19.8755 C   0  0  2  0  0  0
  -28.6986  -12.9067   20.9764 C   0  0  0  0  0  0
  -25.2606  -13.8120   20.5616 C   0  0  0  0  0  0
  -24.1878  -13.0433   20.9115 C   0  0  0  0  0  0
  -24.6355  -11.6856   20.8641 C   0  0  0  0  0  0
  -23.8963  -10.4326   21.0305 C   0  0  0  0  0  0
  -24.3521   -9.4337   21.9161 C   0  0  0  0  0  0
  -23.6241   -8.2357   22.0763 C   0  0  0  0  0  0
  -22.4258   -8.0328   21.3500 C   0  0  0  0  0  0
  -21.9864   -9.0270   20.4553 C   0  0  0  0  0  0
  -22.7135  -10.2158   20.2924 C   0  0  0  0  0  0
  -21.6875   -6.0734   22.5261 C   0  0  0  0  0  0
  -21.4000   -6.5656   23.8204 C   0  0  0  0  0  0
  -21.3655   -5.6790   24.9162 C   0  0  0  0  0  0
  -21.6025   -4.3067   24.7206 C   0  0  0  0  0  0
  -21.8785   -3.8131   23.4336 C   0  0  0  0  0  0
  -21.9162   -4.6943   22.3374 C   0  0  0  0  0  0
  -22.7896  -13.5167   21.1913 C   0  0  0  0  0  0
  -22.1618   -4.2113   21.0953 F   0  0  0  0  0  0
  -21.5616   -3.4552   25.7736 F   0  0  0  0  0  0
  -30.0283  -13.2406   20.4285 N   0  0  0  0  0  0
  -26.3017  -12.9237   20.3308 N   0  0  0  0  0  0
  -25.9273  -11.6410   20.5683 N   0  0  0  0  0  0
  -22.0713  -12.8041   22.0519 N   0  0  0  0  0  0
  -25.4394  -15.1868   20.3987 N   0  0  0  0  0  0
  -31.7681  -14.6597   20.0299 O   0  0  0  0  0  0
  -21.6663   -6.8877   21.4240 O   0  0  0  0  0  0
  -22.3468  -14.5483   20.6838 O   0  0  0  0  0  0
  -24.5997  -31.8760   23.2271 C   0  0  0  0  0  0
  -25.8946  -32.4884   23.8467 C   0  0  1  0  0  0
  -27.2202  -27.4950   20.0721 C   0  0  0  0  0  0
  -25.5857  -33.8688   24.2384 N   0  0  0  0  0  0
  -23.3805  -30.5059   21.5643 C   0  0  2  0  0  0
  -24.8218  -28.9902   20.1103 C   0  0  0  0  0  0
  -22.7331  -29.4690   22.5067 C   0  0  0  0  0  0
  -18.0255  -28.1363   22.8518 C   0  0  0  0  0  0
  -24.1492  -36.7340   23.2642 C   0  0  0  0  0  0
  -25.9032  -30.8519   21.3768 C   0  0  0  0  0  0
  -25.9737  -29.4895   20.7265 C   0  0  0  0  0  0
  -27.1651  -28.7399   20.7269 C   0  0  0  0  0  0
  -26.0520  -27.0061   19.4345 C   0  0  0  0  0  0
  -24.8550  -27.7425   19.4626 C   0  0  0  0  0  0
  -23.5794  -29.8514   20.1693 C   0  0  0  0  0  0
  -25.4119  -36.3157   24.0338 C   0  0  1  0  0  0
  -20.5842  -28.3627   23.1390 C   0  0  2  0  0  0
  -20.6774  -26.9388   22.5447 C   0  0  0  0  0  0
  -19.5746  -26.6385   21.5244 C   0  0  0  0  0  0
  -18.1919  -26.7931   22.1647 C   0  0  0  0  0  0
  -19.1495  -28.8810   23.2960 C   0  0  0  0  0  0
  -18.9436  -30.1443   23.8928 C   0  0  0  0  0  0
  -17.6433  -30.6580   24.0576 C   0  0  0  0  0  0
  -25.9012  -34.9509   23.5143 C   0  0  0  0  0  0
  -16.5329  -29.9075   23.6334 C   0  0  0  0  0  0
  -16.7255  -28.6504   23.0350 C   0  0  0  0  0  0
  -26.4444  -31.6636   25.0738 C   0  0  0  0  0  0
  -25.3767  -31.3651   26.1520 C   0  0  0  0  0  0
  -27.0271  -30.3097   24.6045 C   0  0  0  0  0  0
  -27.6038  -32.4363   25.7473 C   0  0  0  0  0  0
  -27.5588  -37.1836   24.8472 C   0  0  0  0  0  0
  -21.4079  -29.3011   22.3787 N   0  0  0  0  0  0
  -26.4324  -37.3817   23.9386 N   0  0  0  0  0  0
  -24.6458  -31.0896   22.1144 N   0  0  0  0  0  0
  -23.4146  -28.8228   23.3076 O   0  0  0  0  0  0
  -28.4346  -26.8490   20.0782 O   0  0  0  0  0  0
  -26.5569  -34.8925   22.4706 O   0  0  0  0  0  0
  -23.5219  -32.1523   23.7690 O   0  0  0  0  0  0
  -26.2243  -20.7616   21.0831 C   0  0  0  0  0  0
  -26.6866  -21.8504   20.3392 C   0  0  0  0  0  0
  -27.1534  -19.8045   21.5332 C   0  0  0  0  0  0
  -28.0627  -21.9642   20.0852 C   0  0  0  0  0  0
  -28.5232  -19.9917   21.2113 C   0  0  0  0  0  0
  -26.6346  -18.6078   22.3181 C   0  0  0  0  0  0
  -28.6279  -23.1714   19.3772 C   0  0  0  0  0  0
  -29.6281  -19.0382   21.6578 C   0  0  0  0  0  0
  -28.0705  -24.4690   19.9666 C   0  0  0  0  0  0
  -29.7561  -17.7297   20.8504 C   0  0  0  0  0  0
  -30.6111  -16.6892   21.6092 C   0  0  0  0  0  0
  -28.6316  -25.7036   19.2698 C   0  0  0  0  0  0
  -28.9584  -21.0484   20.4979 N   0  0  0  0  0  0
  -30.1239  -15.3165   21.3991 N   0  0  0  0  0  0
  -31.4387  -12.4139   19.0431 H   0  0  0  0  0  0
  -30.3474  -11.2609   19.7511 H   0  0  0  0  0  0
  -29.6680  -11.7220   17.4015 H   0  0  0  0  0  0
  -29.6189  -13.4405   17.7104 H   0  0  0  0  0  0
  -27.7806  -11.2970   18.7926 H   0  0  0  0  0  0
  -27.3200  -12.6431   17.8011 H   0  0  0  0  0  0
  -27.7257  -14.2469   19.6170 H   0  0  0  0  0  0
  -28.6587  -11.8402   21.2093 H   0  0  0  0  0  0
  -28.4550  -13.4298   21.9010 H   0  0  0  0  0  0
  -25.2640   -9.6005   22.4744 H   0  0  0  0  0  0
  -23.9989   -7.4786   22.7507 H   0  0  0  0  0  0
  -21.0841   -8.8747   19.8798 H   0  0  0  0  0  0
  -22.3607  -10.9721   19.6021 H   0  0  0  0  0  0
  -21.1979   -7.6167   23.9686 H   0  0  0  0  0  0
  -21.1480   -6.0526   25.9059 H   0  0  0  0  0  0
  -22.0525   -2.7606   23.2841 H   0  0  0  0  0  0
  -22.4494  -11.9687   22.4764 H   0  0  0  0  0  0
  -21.1295  -13.0895   22.2871 H   0  0  0  0  0  0
  -26.2902  -15.6009   20.0499 H   0  0  0  0  0  0
  -24.6854  -15.8564   20.5131 H   0  0  0  0  0  0
  -26.6986  -32.5602   23.1197 H   0  0  0  0  0  0
  -25.0043  -33.9906   25.0544 H   0  0  0  0  0  0
  -22.6637  -31.3222   21.4467 H   0  0  0  0  0  0
  -23.3745  -35.9687   23.3358 H   0  0  0  0  0  0
  -24.3574  -36.8897   22.2050 H   0  0  0  0  0  0
  -23.7264  -37.6564   23.6624 H   0  0  0  0  0  0
  -25.9984  -31.6249   20.6138 H   0  0  0  0  0  0
  -26.7973  -30.9064   21.9859 H   0  0  0  0  0  0
  -28.0498  -29.1200   21.2176 H   0  0  0  0  0  0
  -26.0366  -26.0822   18.8794 H   0  0  0  0  0  0
  -23.9790  -27.3707   18.9510 H   0  0  0  0  0  0
  -23.6647  -30.6400   19.4199 H   0  0  0  0  0  0
  -22.7011  -29.2692   19.8815 H   0  0  0  0  0  0
  -25.1304  -36.2053   25.0836 H   0  0  0  0  0  0
  -20.9948  -28.3198   24.1504 H   0  0  0  0  0  0
  -20.5737  -26.2224   23.3608 H   0  0  0  0  0  0
  -21.6645  -26.7495   22.1187 H   0  0  0  0  0  0
  -19.6914  -25.6301   21.1250 H   0  0  0  0  0  0
  -19.6699  -27.3225   20.6793 H   0  0  0  0  0  0
  -17.4209  -26.6715   21.4034 H   0  0  0  0  0  0
  -18.0306  -26.0052   22.9014 H   0  0  0  0  0  0
  -19.7902  -30.7285   24.2298 H   0  0  0  0  0  0
  -17.4974  -31.6275   24.5165 H   0  0  0  0  0  0
  -15.5329  -30.2976   23.7645 H   0  0  0  0  0  0
  -15.8672  -28.0836   22.7012 H   0  0  0  0  0  0
  -24.5912  -30.7056   25.7810 H   0  0  0  0  0  0
  -24.8997  -32.2773   26.5121 H   0  0  0  0  0  0
  -25.8167  -30.8682   27.0179 H   0  0  0  0  0  0
  -26.2759  -29.6848   24.1210 H   0  0  0  0  0  0
  -27.4181  -29.7346   25.4446 H   0  0  0  0  0  0
  -27.8544  -30.4430   23.9073 H   0  0  0  0  0  0
  -27.2643  -33.3606   26.2172 H   0  0  0  0  0  0
  -28.3761  -32.7043   25.0243 H   0  0  0  0  0  0
  -28.0827  -31.8442   26.5286 H   0  0  0  0  0  0
  -28.2639  -38.0096   24.7463 H   0  0  0  0  0  0
  -28.1036  -36.2620   24.6380 H   0  0  0  0  0  0
  -27.2274  -37.1596   25.8864 H   0  0  0  0  0  0
  -20.9193  -29.8717   21.7031 H   0  0  0  0  0  0
  -26.0221  -38.2898   24.1375 H   0  0  0  0  0  0
  -25.1697  -20.6811   21.3006 H   0  0  0  0  0  0
  -25.9756  -22.5965   20.0119 H   0  0  0  0  0  0
  -26.6098  -17.7232   21.6786 H   0  0  0  0  0  0
  -25.6096  -18.7818   22.6568 H   0  0  0  0  0  0
  -27.2367  -18.4012   23.2034 H   0  0  0  0  0  0
  -28.4123  -23.0922   18.3107 H   0  0  0  0  0  0
  -29.7159  -23.1798   19.4858 H   0  0  0  0  0  0
  -29.4642  -18.8203   22.7100 H   0  0  0  0  0  0
  -30.5902  -19.5502   21.6238 H   0  0  0  0  0  0
  -28.2954  -24.5083   21.0319 H   0  0  0  0  0  0
  -26.9868  -24.4773   19.8936 H   0  0  0  0  0  0
  -30.2082  -17.9280   19.8758 H   0  0  0  0  0  0
  -28.7626  -17.3318   20.6483 H   0  0  0  0  0  0
  -30.6060  -16.8812   22.6835 H   0  0  0  0  0  0
  -31.6563  -16.8195   21.3110 H   0  0  0  0  0  0
  -28.2167  -25.8176   18.2670 H   0  0  0  0  0  0
  -29.7100  -25.5896   19.1515 H   0  0  0  0  0  0
  -29.2424  -15.0644   21.8292 H   0  0  0  0  0  0
  1 25  1  0  0  0
  1 30  2  0  0  0
  1 84  1  0  0  0
  2  3  1  0  0  0
  2 25  1  0  0  0
  2 85  1  0  0  0
  2 86  1  0  0  0
  3  4  1  0  0  0
  3 87  1  0  0  0
  3 88  1  0  0  0
  4  5  1  0  0  0
  4 89  1  0  0  0
  4 90  1  0  0  0
  5  6  1  0  0  0
  5 26  1  0  0  0
  5 91  1  0  0  0
  6 25  1  0  0  0
  6 92  1  0  0  0
  6 93  1  0  0  0
  7  8  2  0  0  0
  7 26  1  0  0  0
  7 29  1  0  0  0
  8  9  1  0  0  0
  8 22  1  0  0  0
  9 10  1  0  0  0
  9 27  2  0  0  0
 10 11  2  0  0  0
 10 15  1  0  0  0
 11 12  1  0  0  0
 11 94  1  0  0  0
 12 13  2  0  0  0
 12 95  1  0  0  0
 13 14  1  0  0  0
 13 31  1  0  0  0
 14 15  2  0  0  0
 14 96  1  0  0  0
 15 97  1  0  0  0
 16 17  2  0  0  0
 16 21  1  0  0  0
 16 31  1  0  0  0
 17 18  1  0  0  0
 17 98  1  0  0  0
 18 19  2  0  0  0
 18 99  1  0  0  0
 19 20  1  0  0  0
 19 24  1  0  0  0
 20 21  2  0  0  0
 20100  1  0  0  0
 21 23  1  0  0  0
 22 28  1  0  0  0
 22 32  2  0  0  0
 26 27  1  0  0  0
 28101  1  0  0  0
 28102  1  0  0  0
 29103  1  0  0  0
 29104  1  0  0  0
 33 34  1  0  0  0
 33 66  1  0  0  0
 33 70  2  0  0  0
 34 36  1  0  0  0
 34 59  1  0  0  0
 34105  1  0  0  0
 35 44  2  0  0  0
 35 45  1  0  0  0
 35 68  1  0  0  0
 36 56  1  0  0  0
 36106  1  0  0  0
 37 39  1  0  0  0
 37 47  1  0  0  0
 37 66  1  0  0  0
 37107  1  0  0  0
 38 43  2  0  0  0
 38 46  1  0  0  0
 38 47  1  0  0  0
 39 64  1  0  0  0
 39 67  2  0  0  0
 40 52  1  0  0  0
 40 53  2  0  0  0
 40 58  1  0  0  0
 41108  1  0  0  0
 41109  1  0  0  0
 41110  1  0  0  0
 41 48  1  0  0  0
 42 43  1  0  0  0
 42 66  1  0  0  0
 42111  1  0  0  0
 42112  1  0  0  0
 43 44  1  0  0  0
 44113  1  0  0  0
 45 46  2  0  0  0
 45114  1  0  0  0
 46115  1  0  0  0
 47116  1  0  0  0
 47117  1  0  0  0
 48 56  1  0  0  0
 48 65  1  0  0  0
 48118  1  0  0  0
 49 50  1  0  0  0
 49 53  1  0  0  0
 49 64  1  0  0  0
 49119  1  0  0  0
 50 51  1  0  0  0
 50120  1  0  0  0
 50121  1  0  0  0
 51 52  1  0  0  0
 51122  1  0  0  0
 51123  1  0  0  0
 52124  1  0  0  0
 52125  1  0  0  0
 53 54  1  0  0  0
 54 55  2  0  0  0
 54126  1  0  0  0
 55 57  1  0  0  0
 55127  1  0  0  0
 56 69  2  0  0  0
 57 58  2  0  0  0
 57128  1  0  0  0
 58129  1  0  0  0
 59 60  1  0  0  0
 59 61  1  0  0  0
 59 62  1  0  0  0
 60130  1  0  0  0
 60131  1  0  0  0
 60132  1  0  0  0
 61133  1  0  0  0
 61134  1  0  0  0
 61135  1  0  0  0
 62136  1  0  0  0
 62137  1  0  0  0
 62138  1  0  0  0
 63 65  1  0  0  0
 63139  1  0  0  0
 63140  1  0  0  0
 63141  1  0  0  0
 64142  1  0  0  0
 65143  1  0  0  0
 68 82  1  0  0  0
 71 72  2  0  0  0
 71 73  1  0  0  0
 71144  1  0  0  0
 72 74  1  0  0  0
 72145  1  0  0  0
 73 75  2  0  0  0
 73 76  1  0  0  0
 74 77  1  0  0  0
 74 83  2  0  0  0
 75 78  1  0  0  0
 75 83  1  0  0  0
 76146  1  0  0  0
 76147  1  0  0  0
 76148  1  0  0  0
 77 79  1  0  0  0
 77149  1  0  0  0
 77150  1  0  0  0
 78 80  1  0  0  0
 78151  1  0  0  0
 78152  1  0  0  0
 79 82  1  0  0  0
 79153  1  0  0  0
 79154  1  0  0  0
 80 81  1  0  0  0
 80155  1  0  0  0
 80156  1  0  0  0
 81 84  1  0  0  0
 81157  1  0  0  0
 81158  1  0  0  0
 82159  1  0  0  0
 82160  1  0  0  0
 84161  1  0  0  0
M  ISO  4   1 100  68 101  82 101  84 100
M  END
> <chiral flag>
0

> <version>
0

> <s_m_source_file>
/data/baiqing/PycharmProjects/Reinvent-master-3.2/result/LINK_invent/BTK/process_docking_weight1_custom_sum_contain_oxygen_bond_distance_aromatic_linkinvent_7_9_3/rearranged_h_0046.sdf

> <i_m_source_file_index>
32

> <r_mmod_Potential_Energy-OPLS-2005>
-284.584838867188

> <r_mmod_Stretch_Energy-OPLS-2005>
31.8098831176758

> <r_mmod_Bend_Energy-OPLS-2005>
100.17756652832

> <r_mmod_Torsional_Energy-OPLS-2005>
188.055587768555

> <r_mmod_Improper_Torsional_Energy-OPLS-2005>
2.41621661186218

> <r_mmod_Van_der_Waal_Energy-OPLS-2005>
165.757354736328

> <r_mmod_Electrostatic_Energy-OPLS-2005>
-562.743469238281

> <r_mmod_Solvation_Energy-OPLS-2005>
-222.602569580078

> <b_mmod_Minimization_Converged-OPLS-2005>
0

> <r_mmod_RMS_Derivative-OPLS-2005>
10.4916791915894

$$$$
32
                    3D
 Structure written by MMmdl.
163171  0  0  1  0            999 V2000
  -30.7187  -14.4106   20.5894 C   0  0  0  0  0  0
  -30.4201  -12.2747   19.4021 C   0  0  0  0  0  0
  -29.4942  -12.5124   18.1925 C   0  0  0  0  0  0
  -28.0130  -12.3790   18.6012 C   0  0  0  0  0  0
  -27.6660  -13.2016   19.8715 C   0  0  2  0  0  0
  -28.7052  -12.9476   20.9866 C   0  0  0  0  0  0
  -25.2611  -13.8147   20.5657 C   0  0  0  0  0  0
  -24.1865  -13.0424   20.9159 C   0  0  0  0  0  0
  -24.6424  -11.6892   20.8731 C   0  0  0  0  0  0
  -23.9097  -10.4284   21.0415 C   0  0  0  0  0  0
  -24.3647   -9.4198   21.9193 C   0  0  0  0  0  0
  -23.6312   -8.2241   22.0766 C   0  0  0  0  0  0
  -22.4291   -8.0293   21.3560 C   0  0  0  0  0  0
  -21.9931   -9.0267   20.4663 C   0  0  0  0  0  0
  -22.7275  -10.2135   20.3060 C   0  0  0  0  0  0
  -21.6856   -6.0751   22.5301 C   0  0  0  0  0  0
  -21.4024   -6.5656   23.8238 C   0  0  0  0  0  0
  -21.3647   -5.6802   24.9191 C   0  0  0  0  0  0
  -21.6031   -4.3069   24.7238 C   0  0  0  0  0  0
  -21.8818   -3.8165   23.4365 C   0  0  0  0  0  0
  -21.9198   -4.6980   22.3423 C   0  0  0  0  0  0
  -22.7888  -13.5234   21.1822 C   0  0  0  0  0  0
  -22.1660   -4.2165   21.0997 F   0  0  0  0  0  0
  -21.5610   -3.4549   25.7747 F   0  0  0  0  0  0
  -30.0441  -13.2411   20.4429 N   0  0  0  0  0  0
  -26.3049  -12.9322   20.3327 N   0  0  0  0  0  0
  -25.9346  -11.6486   20.5731 N   0  0  0  0  0  0
  -22.0516  -12.8234   22.0379 N   0  0  0  0  0  0
  -25.4295  -15.1867   20.4067 N   0  0  0  0  0  0
  -31.8225  -14.6328   20.0845 O   0  0  0  0  0  0
  -21.6649   -6.8897   21.4262 O   0  0  0  0  0  0
  -22.3577  -14.5544   20.6674 O   0  0  0  0  0  0
  -24.6118  -31.8695   23.2117 C   0  0  0  0  0  0
  -25.9027  -32.4830   23.8395 C   0  0  1  0  0  0
  -27.2331  -27.4667   20.0787 C   0  0  0  0  0  0
  -25.5896  -33.8630   24.2312 N   0  0  0  0  0  0
  -23.3963  -30.4960   21.5504 C   0  0  2  0  0  0
  -24.8392  -28.9640   20.1107 C   0  0  0  0  0  0
  -22.7371  -29.4692   22.4989 C   0  0  0  0  0  0
  -18.0279  -28.1380   22.8482 C   0  0  0  0  0  0
  -24.1487  -36.7309   23.2643 C   0  0  0  0  0  0
  -25.9229  -30.8422   21.3610 C   0  0  0  0  0  0
  -25.9971  -29.4822   20.7015 C   0  0  0  0  0  0
  -27.1970  -28.7419   20.6777 C   0  0  0  0  0  0
  -26.0589  -26.9524   19.4854 C   0  0  0  0  0  0
  -24.8623  -27.6966   19.5011 C   0  0  0  0  0  0
  -23.5996  -29.8268   20.1645 C   0  0  0  0  0  0
  -25.4113  -36.3119   24.0335 C   0  0  1  0  0  0
  -20.5864  -28.3657   23.1308 C   0  0  2  0  0  0
  -20.6770  -26.9391   22.5413 C   0  0  0  0  0  0
  -19.5767  -26.6389   21.5191 C   0  0  0  0  0  0
  -18.1937  -26.7943   22.1581 C   0  0  0  0  0  0
  -19.1530  -28.8826   23.2908 C   0  0  0  0  0  0
  -18.9466  -30.1443   23.8904 C   0  0  0  0  0  0
  -17.6474  -30.6583   24.0569 C   0  0  0  0  0  0
  -25.9036  -34.9486   23.5119 C   0  0  0  0  0  0
  -16.5367  -29.9082   23.6335 C   0  0  0  0  0  0
  -16.7274  -28.6506   23.0339 C   0  0  0  0  0  0
  -26.4472  -31.6628   25.0724 C   0  0  0  0  0  0
  -25.3735  -31.3752   26.1473 C   0  0  0  0  0  0
  -27.0321  -30.3075   24.6117 C   0  0  0  0  0  0
  -27.6046  -32.4368   25.7472 C   0  0  0  0  0  0
  -27.5595  -37.1801   24.8457 C   0  0  0  0  0  0
  -21.4110  -29.3051   22.3718 N   0  0  0  0  0  0
  -26.4296  -37.3808   23.9414 N   0  0  0  0  0  0
  -24.6612  -31.0834   22.0994 N   0  0  0  0  0  0
  -23.4160  -28.8233   23.3029 O   0  0  0  0  0  0
  -28.4237  -26.7752   20.0947 O   0  0  0  0  0  0
  -26.5612  -34.8940   22.4690 O   0  0  0  0  0  0
  -23.5323  -32.1436   23.7552 O   0  0  0  0  0  0
  -29.1528  -21.5413   23.5433 C   0  0  0  0  0  0
  -28.4412  -21.3877   22.3317 C   0  0  0  0  0  0
  -29.0153  -23.8315   23.3497 C   0  0  0  0  0  0
  -28.2389  -23.6855   22.1648 C   0  0  0  0  0  0
  -28.4140  -25.6171   25.0435 C   0  0  0  0  0  0
  -28.1675  -20.0005   21.7683 C   0  0  0  0  0  0
  -29.3937  -25.1772   23.9494 C   0  0  0  0  0  0
  -27.6136  -24.8807   21.4540 C   0  0  0  0  0  0
  -29.4468  -19.1485   21.6079 C   0  0  0  0  0  0
  -29.1465  -17.6679   21.3257 C   0  0  0  0  0  0
  -30.4082  -16.7848   21.2859 C   0  0  0  0  0  0
  -28.3882  -25.3496   20.2040 C   0  0  0  0  0  0
  -29.4559  -22.7571   24.0447 N   0  0  0  0  0  0
  -27.9764  -22.4602   21.6382 N   0  0  0  0  0  0
  -30.0351  -15.3746   21.2171 N   0  0  0  0  0  0
  -31.4671  -12.3613   19.1050 H   0  0  0  0  0  0
  -30.3009  -11.2571   19.7776 H   0  0  0  0  0  0
  -29.7264  -11.8057   17.3945 H   0  0  0  0  0  0
  -29.6738  -13.5067   17.7792 H   0  0  0  0  0  0
  -27.8112  -11.3222   18.7763 H   0  0  0  0  0  0
  -27.3693  -12.6762   17.7719 H   0  0  0  0  0  0
  -27.7189  -14.2543   19.5941 H   0  0  0  0  0  0
  -28.6681  -11.9046   21.3024 H   0  0  0  0  0  0
  -28.4694  -13.5248   21.8816 H   0  0  0  0  0  0
  -25.2795   -9.5667   22.4765 H   0  0  0  0  0  0
  -24.0022   -7.4634   22.7484 H   0  0  0  0  0  0
  -21.0860   -8.8804   19.8976 H   0  0  0  0  0  0
  -22.3759  -10.9675   19.6167 H   0  0  0  0  0  0
  -21.2033   -7.6167   23.9751 H   0  0  0  0  0  0
  -21.1448   -6.0530   25.9090 H   0  0  0  0  0  0
  -22.0605   -2.7628   23.2870 H   0  0  0  0  0  0
  -22.4121  -11.9892   22.4779 H   0  0  0  0  0  0
  -21.1129  -13.1259   22.2544 H   0  0  0  0  0  0
  -24.6575  -15.8361   20.5141 H   0  0  0  0  0  0
  -26.2799  -15.6326   20.0867 H   0  0  0  0  0  0
  -26.7071  -32.5519   23.1130 H   0  0  0  0  0  0
  -25.0066  -33.9808   25.0471 H   0  0  0  0  0  0
  -22.6867  -31.3142   21.4109 H   0  0  0  0  0  0
  -23.3773  -35.9618   23.3311 H   0  0  0  0  0  0
  -24.3577  -36.8927   22.2058 H   0  0  0  0  0  0
  -23.7221  -37.6503   23.6658 H   0  0  0  0  0  0
  -26.0467  -31.6142   20.6006 H   0  0  0  0  0  0
  -26.8061  -30.8824   21.9859 H   0  0  0  0  0  0
  -28.0929  -29.1431   21.1282 H   0  0  0  0  0  0
  -26.0565  -25.9887   18.9991 H   0  0  0  0  0  0
  -23.9694  -27.2904   19.0438 H   0  0  0  0  0  0
  -23.7008  -30.5983   19.4008 H   0  0  0  0  0  0
  -22.7238  -29.2442   19.8728 H   0  0  0  0  0  0
  -25.1303  -36.1977   25.0830 H   0  0  0  0  0  0
  -20.9976  -28.3217   24.1417 H   0  0  0  0  0  0
  -20.5620  -26.2267   23.3597 H   0  0  0  0  0  0
  -21.6651  -26.7418   22.1236 H   0  0  0  0  0  0
  -19.6924  -25.6298   21.1212 H   0  0  0  0  0  0
  -19.6727  -27.3200   20.6728 H   0  0  0  0  0  0
  -17.4219  -26.6705   21.3975 H   0  0  0  0  0  0
  -18.0329  -26.0075   22.8957 H   0  0  0  0  0  0
  -19.7950  -30.7264   24.2255 H   0  0  0  0  0  0
  -17.5038  -31.6261   24.5187 H   0  0  0  0  0  0
  -15.5364  -30.2992   23.7683 H   0  0  0  0  0  0
  -15.8673  -28.0844   22.7035 H   0  0  0  0  0  0
  -24.5895  -30.7113   25.7821 H   0  0  0  0  0  0
  -24.8945  -32.2922   26.4914 H   0  0  0  0  0  0
  -25.8084  -30.8923   27.0232 H   0  0  0  0  0  0
  -26.2868  -29.6801   24.1211 H   0  0  0  0  0  0
  -27.4154  -29.7359   25.4587 H   0  0  0  0  0  0
  -27.8671  -30.4432   23.9239 H   0  0  0  0  0  0
  -27.2658  -33.3661   26.2070 H   0  0  0  0  0  0
  -28.3826  -32.6944   25.0273 H   0  0  0  0  0  0
  -28.0739  -31.8480   26.5364 H   0  0  0  0  0  0
  -28.2614  -38.0104   24.7550 H   0  0  0  0  0  0
  -28.1092  -36.2645   24.6224 H   0  0  0  0  0  0
  -27.2322  -37.1393   25.8861 H   0  0  0  0  0  0
  -20.9240  -29.8774   21.6956 H   0  0  0  0  0  0
  -26.0189  -38.2886   24.1431 H   0  0  0  0  0  0
  -29.4951  -20.6868   24.1101 H   0  0  0  0  0  0
  -28.7022  -26.5832   25.4558 H   0  0  0  0  0  0
  -28.3998  -24.8964   25.8618 H   0  0  0  0  0  0
  -27.3987  -25.7096   24.6583 H   0  0  0  0  0  0
  -27.6524  -20.0798   20.8102 H   0  0  0  0  0  0
  -27.4724  -19.5023   22.4444 H   0  0  0  0  0  0
  -29.4813  -25.9385   23.1743 H   0  0  0  0  0  0
  -30.3925  -25.0981   24.3824 H   0  0  0  0  0  0
  -27.5064  -25.7021   22.1614 H   0  0  0  0  0  0
  -26.5888  -24.6349   21.1735 H   0  0  0  0  0  0
  -30.0323  -19.1887   22.5259 H   0  0  0  0  0  0
  -30.0804  -19.5722   20.8275 H   0  0  0  0  0  0
  -28.6073  -17.5834   20.3799 H   0  0  0  0  0  0
  -28.4751  -17.2936   22.1006 H   0  0  0  0  0  0
  -31.0235  -16.9394   22.1731 H   0  0  0  0  0  0
  -31.0184  -17.0646   20.4246 H   0  0  0  0  0  0
  -28.0098  -24.8739   19.2986 H   0  0  0  0  0  0
  -29.4302  -25.0375   20.2883 H   0  0  0  0  0  0
  -29.1357  -15.1116   21.5929 H   0  0  0  0  0  0
  1 25  1  0  0  0
  1 30  2  0  0  0
  1 85  1  0  0  0
  2  3  1  0  0  0
  2 25  1  0  0  0
  2 86  1  0  0  0
  2 87  1  0  0  0
  3  4  1  0  0  0
  3 88  1  0  0  0
  3 89  1  0  0  0
  4  5  1  0  0  0
  4 90  1  0  0  0
  4 91  1  0  0  0
  5  6  1  0  0  0
  5 26  1  0  0  0
  5 92  1  0  0  0
  6 25  1  0  0  0
  6 93  1  0  0  0
  6 94  1  0  0  0
  7  8  2  0  0  0
  7 26  1  0  0  0
  7 29  1  0  0  0
  8  9  1  0  0  0
  8 22  1  0  0  0
  9 10  1  0  0  0
  9 27  2  0  0  0
 10 11  2  0  0  0
 10 15  1  0  0  0
 11 12  1  0  0  0
 11 95  1  0  0  0
 12 13  2  0  0  0
 12 96  1  0  0  0
 13 14  1  0  0  0
 13 31  1  0  0  0
 14 15  2  0  0  0
 14 97  1  0  0  0
 15 98  1  0  0  0
 16 17  2  0  0  0
 16 21  1  0  0  0
 16 31  1  0  0  0
 17 18  1  0  0  0
 17 99  1  0  0  0
 18 19  2  0  0  0
 18100  1  0  0  0
 19 20  1  0  0  0
 19 24  1  0  0  0
 20 21  2  0  0  0
 20101  1  0  0  0
 21 23  1  0  0  0
 22 28  1  0  0  0
 22 32  2  0  0  0
 26 27  1  0  0  0
 28102  1  0  0  0
 28103  1  0  0  0
 29104  1  0  0  0
 29105  1  0  0  0
 33 34  1  0  0  0
 33 66  1  0  0  0
 33 70  2  0  0  0
 34 36  1  0  0  0
 34 59  1  0  0  0
 34106  1  0  0  0
 35 44  2  0  0  0
 35 45  1  0  0  0
 35 68  1  0  0  0
 36 56  1  0  0  0
 36107  1  0  0  0
 37 39  1  0  0  0
 37 47  1  0  0  0
 37 66  1  0  0  0
 37108  1  0  0  0
 38 43  2  0  0  0
 38 46  1  0  0  0
 38 47  1  0  0  0
 39 64  1  0  0  0
 39 67  2  0  0  0
 40 52  1  0  0  0
 40 53  2  0  0  0
 40 58  1  0  0  0
 41109  1  0  0  0
 41110  1  0  0  0
 41111  1  0  0  0
 41 48  1  0  0  0
 42 43  1  0  0  0
 42 66  1  0  0  0
 42112  1  0  0  0
 42113  1  0  0  0
 43 44  1  0  0  0
 44114  1  0  0  0
 45 46  2  0  0  0
 45115  1  0  0  0
 46116  1  0  0  0
 47117  1  0  0  0
 47118  1  0  0  0
 48 56  1  0  0  0
 48 65  1  0  0  0
 48119  1  0  0  0
 49 50  1  0  0  0
 49 53  1  0  0  0
 49 64  1  0  0  0
 49120  1  0  0  0
 50 51  1  0  0  0
 50121  1  0  0  0
 50122  1  0  0  0
 51 52  1  0  0  0
 51123  1  0  0  0
 51124  1  0  0  0
 52125  1  0  0  0
 52126  1  0  0  0
 53 54  1  0  0  0
 54 55  2  0  0  0
 54127  1  0  0  0
 55 57  1  0  0  0
 55128  1  0  0  0
 56 69  2  0  0  0
 57 58  2  0  0  0
 57129  1  0  0  0
 58130  1  0  0  0
 59 60  1  0  0  0
 59 61  1  0  0  0
 59 62  1  0  0  0
 60131  1  0  0  0
 60132  1  0  0  0
 60133  1  0  0  0
 61134  1  0  0  0
 61135  1  0  0  0
 61136  1  0  0  0
 62137  1  0  0  0
 62138  1  0  0  0
 62139  1  0  0  0
 63 65  1  0  0  0
 63140  1  0  0  0
 63141  1  0  0  0
 63142  1  0  0  0
 64143  1  0  0  0
 65144  1  0  0  0
 68 82  1  0  0  0
 71 72  2  0  0  0
 71 83  1  0  0  0
 71145  1  0  0  0
 72 76  1  0  0  0
 72 84  1  0  0  0
 73 74  1  0  0  0
 73 77  1  0  0  0
 73 83  2  0  0  0
 74 78  1  0  0  0
 74 84  2  0  0  0
 75 77  1  0  0  0
 75146  1  0  0  0
 75147  1  0  0  0
 75148  1  0  0  0
 76 79  1  0  0  0
 76149  1  0  0  0
 76150  1  0  0  0
 77151  1  0  0  0
 77152  1  0  0  0
 78 82  1  0  0  0
 78153  1  0  0  0
 78154  1  0  0  0
 79 80  1  0  0  0
 79155  1  0  0  0
 79156  1  0  0  0
 80 81  1  0  0  0
 80157  1  0  0  0
 80158  1  0  0  0
 81 85  1  0  0  0
 81159  1  0  0  0
 81160  1  0  0  0
 82161  1  0  0  0
 82162  1  0  0  0
 85163  1  0  0  0
M  ISO  4   1 100  68 101  82 101  85 100
M  END
> <chiral flag>
0

> <version>
0

> <s_m_source_file>
/data/baiqing/PycharmProjects/Reinvent-master-3.2/result/LINK_invent/BTK/process_docking_weight1_custom_sum_contain_oxygen_bond_distance_aromatic_linkinvent_7_9_3/rearranged_h_0046.sdf

> <i_m_source_file_index>
33

> <r_mmod_Potential_Energy-OPLS-2005>
-58.1302909851074

> <r_mmod_Stretch_Energy-OPLS-2005>
34.5346527099609

> <r_mmod_Bend_Energy-OPLS-2005>
93.6490631103516

> <r_mmod_Torsional_Energy-OPLS-2005>
189.834060668945

> <r_mmod_Improper_Torsional_Energy-OPLS-2005>
3.23237085342407

> <r_mmod_Van_der_Waal_Energy-OPLS-2005>
158.454132080078

> <r_mmod_Electrostatic_Energy-OPLS-2005>
-328.238922119141

> <r_mmod_Solvation_Energy-OPLS-2005>
-218.799621582031

> <b_mmod_Minimization_Converged-OPLS-2005>
0

> <r_mmod_RMS_Derivative-OPLS-2005>
2.52360653877258

$$$$
33
                    3D
 Structure written by MMmdl.
154162  0  0  1  0            999 V2000
  -30.6363  -14.6464   20.5073 C   0  0  0  0  0  0
  -30.4341  -12.4018   19.4489 C   0  0  0  0  0  0
  -29.5020  -12.4985   18.2213 C   0  0  0  0  0  0
  -28.0286  -12.3273   18.6412 C   0  0  0  0  0  0
  -27.6483  -13.2158   19.8556 C   0  0  2  0  0  0
  -28.6935  -13.0945   20.9855 C   0  0  0  0  0  0
  -25.2548  -13.8169   20.5681 C   0  0  0  0  0  0
  -24.1811  -13.0433   20.9182 C   0  0  0  0  0  0
  -24.6382  -11.6910   20.8745 C   0  0  0  0  0  0
  -23.9056  -10.4287   21.0414 C   0  0  0  0  0  0
  -24.3610   -9.4202   21.9193 C   0  0  0  0  0  0
  -23.6284   -8.2237   22.0768 C   0  0  0  0  0  0
  -22.4271   -8.0274   21.3556 C   0  0  0  0  0  0
  -21.9903   -9.0244   20.4661 C   0  0  0  0  0  0
  -22.7228  -10.2123   20.3067 C   0  0  0  0  0  0
  -21.6844   -6.0728   22.5283 C   0  0  0  0  0  0
  -21.4007   -6.5642   23.8215 C   0  0  0  0  0  0
  -21.3660   -5.6799   24.9182 C   0  0  0  0  0  0
  -21.6044   -4.3060   24.7237 C   0  0  0  0  0  0
  -21.8818   -3.8146   23.4360 C   0  0  0  0  0  0
  -21.9190   -4.6957   22.3409 C   0  0  0  0  0  0
  -22.7842  -13.5238   21.1843 C   0  0  0  0  0  0
  -22.1659   -4.2142   21.0986 F   0  0  0  0  0  0
  -21.5630   -3.4546   25.7750 F   0  0  0  0  0  0
  -30.0022  -13.4353   20.4111 N   0  0  0  0  0  0
  -26.2963  -12.9344   20.3298 N   0  0  0  0  0  0
  -25.9308  -11.6509   20.5759 N   0  0  0  0  0  0
  -22.0487  -12.8234   22.0405 N   0  0  0  0  0  0
  -25.4267  -15.1882   20.4087 N   0  0  0  0  0  0
  -31.8159  -14.7762   20.1700 O   0  0  0  0  0  0
  -21.6639   -6.8870   21.4247 O   0  0  0  0  0  0
  -22.3539  -14.5544   20.6685 O   0  0  0  0  0  0
  -24.6257  -31.8571   23.2024 C   0  0  0  0  0  0
  -25.9088  -32.4761   23.8353 C   0  0  1  0  0  0
  -27.2297  -27.3192   20.0962 C   0  0  0  0  0  0
  -25.5893  -33.8564   24.2279 N   0  0  0  0  0  0
  -23.4189  -30.4805   21.5465 C   0  0  2  0  0  0
  -24.8658  -28.9379   20.1094 C   0  0  0  0  0  0
  -22.7460  -29.4597   22.4946 C   0  0  0  0  0  0
  -18.0270  -28.1377   22.8497 C   0  0  0  0  0  0
  -24.1490  -36.7311   23.2643 C   0  0  0  0  0  0
  -25.9603  -30.7871   21.3727 C   0  0  0  0  0  0
  -26.0344  -29.4143   20.7154 C   0  0  0  0  0  0
  -27.2138  -28.6126   20.7064 C   0  0  0  0  0  0
  -26.0268  -26.8869   19.4900 C   0  0  0  0  0  0
  -24.8640  -27.6799   19.4912 C   0  0  0  0  0  0
  -23.6328  -29.8155   20.1623 C   0  0  0  0  0  0
  -25.4105  -36.3079   24.0333 C   0  0  1  0  0  0
  -20.5874  -28.3671   23.1305 C   0  0  2  0  0  0
  -20.6762  -26.9399   22.5421 C   0  0  0  0  0  0
  -19.5736  -26.6378   21.5221 C   0  0  0  0  0  0
  -18.1912  -26.7926   22.1624 C   0  0  0  0  0  0
  -19.1525  -28.8837   23.2896 C   0  0  0  0  0  0
  -18.9443  -30.1445   23.8905 C   0  0  0  0  0  0
  -17.6445  -30.6585   24.0561 C   0  0  0  0  0  0
  -25.9027  -34.9442   23.5107 C   0  0  0  0  0  0
  -16.5332  -29.9081   23.6341 C   0  0  0  0  0  0
  -16.7255  -28.6499   23.0368 C   0  0  0  0  0  0
  -26.4486  -31.6571   25.0712 C   0  0  0  0  0  0
  -25.3721  -31.3701   26.1442 C   0  0  0  0  0  0
  -27.0331  -30.2999   24.6144 C   0  0  0  0  0  0
  -27.6036  -32.4315   25.7475 C   0  0  0  0  0  0
  -27.5578  -37.1798   24.8457 C   0  0  0  0  0  0
  -21.4169  -29.3028   22.3696 N   0  0  0  0  0  0
  -26.4289  -37.3764   23.9403 N   0  0  0  0  0  0
  -24.6878  -31.0574   22.0986 N   0  0  0  0  0  0
  -23.4183  -28.8126   23.3016 O   0  0  0  0  0  0
  -28.3659  -26.4949   20.1617 O   0  0  0  0  0  0
  -26.5605  -34.8905   22.4678 O   0  0  0  0  0  0
  -23.5427  -32.1378   23.7357 O   0  0  0  0  0  0
  -30.1243  -23.2736   19.7336 C   0  0  0  0  0  0
  -28.8486  -23.8814   19.9083 C   0  0  0  0  0  0
  -28.1170  -21.8125   20.7723 C   0  0  0  0  0  0
  -29.4028  -21.2076   20.5978 C   0  0  0  0  0  0
  -26.9760  -21.0424   21.4044 C   0  0  0  0  0  0
  -29.8258  -19.8063   21.1931 C   0  0  0  0  0  0
  -28.5329  -25.3034   19.3005 C   0  0  0  0  0  0
  -29.5454  -18.4074   20.4778 C   0  0  0  0  0  0
  -30.2975  -17.1526   21.1341 C   0  0  0  0  0  0
  -30.3971  -21.9717   20.0641 N   0  0  0  0  0  0
  -27.8406  -23.1149   20.4221 N   0  0  0  0  0  0
  -29.8661  -15.7381   20.8247 N   0  0  0  0  0  0
  -31.4734  -12.5293   19.1409 H   0  0  0  0  0  0
  -30.3740  -11.4110   19.9036 H   0  0  0  0  0  0
  -29.7702  -11.7425   17.4821 H   0  0  0  0  0  0
  -29.6334  -13.4650   17.7324 H   0  0  0  0  0  0
  -27.8812  -11.2769   18.8972 H   0  0  0  0  0  0
  -27.3661  -12.5298   17.7990 H   0  0  0  0  0  0
  -27.6613  -14.2450   19.4978 H   0  0  0  0  0  0
  -28.7101  -12.0788   21.3844 H   0  0  0  0  0  0
  -28.4382  -13.7422   21.8252 H   0  0  0  0  0  0
  -25.2754   -9.5675   22.4771 H   0  0  0  0  0  0
  -23.9985   -7.4639   22.7500 H   0  0  0  0  0  0
  -21.0833   -8.8765   19.8979 H   0  0  0  0  0  0
  -22.3685  -10.9661   19.6180 H   0  0  0  0  0  0
  -21.1996   -7.6155   23.9708 H   0  0  0  0  0  0
  -21.1487   -6.0539   25.9080 H   0  0  0  0  0  0
  -22.0595   -2.7605   23.2868 H   0  0  0  0  0  0
  -22.4093  -11.9881   22.4779 H   0  0  0  0  0  0
  -21.1124  -13.1297   22.2653 H   0  0  0  0  0  0
  -24.6584  -15.8418   20.5132 H   0  0  0  0  0  0
  -26.2734  -15.6262   20.0681 H   0  0  0  0  0  0
  -26.7138  -32.5440   23.1098 H   0  0  0  0  0  0
  -25.0008  -33.9686   25.0400 H   0  0  0  0  0  0
  -22.7147  -31.3029   21.4048 H   0  0  0  0  0  0
  -23.3740  -35.9654   23.3279 H   0  0  0  0  0  0
  -24.3595  -36.8984   22.2066 H   0  0  0  0  0  0
  -23.7261  -37.6507   23.6690 H   0  0  0  0  0  0
  -26.0827  -31.5480   20.6006 H   0  0  0  0  0  0
  -26.8452  -30.8452   21.9944 H   0  0  0  0  0  0
  -28.1113  -28.9713   21.1916 H   0  0  0  0  0  0
  -25.9284  -25.9129   19.0402 H   0  0  0  0  0  0
  -23.9646  -27.3045   19.0238 H   0  0  0  0  0  0
  -23.7468  -30.5908   19.4047 H   0  0  0  0  0  0
  -22.7554  -29.2395   19.8616 H   0  0  0  0  0  0
  -25.1299  -36.1935   25.0833 H   0  0  0  0  0  0
  -20.9951  -28.3244   24.1434 H   0  0  0  0  0  0
  -20.5691  -26.2266   23.3606 H   0  0  0  0  0  0
  -21.6626  -26.7434   22.1204 H   0  0  0  0  0  0
  -19.6891  -25.6288   21.1254 H   0  0  0  0  0  0
  -19.6691  -27.3180   20.6746 H   0  0  0  0  0  0
  -17.4187  -26.6678   21.4017 H   0  0  0  0  0  0
  -18.0303  -26.0065   22.9016 H   0  0  0  0  0  0
  -19.7910  -30.7263   24.2284 H   0  0  0  0  0  0
  -17.4992  -31.6279   24.5144 H   0  0  0  0  0  0
  -15.5332  -30.2988   23.7656 H   0  0  0  0  0  0
  -15.8653  -28.0816   22.7095 H   0  0  0  0  0  0
  -24.5876  -30.7082   25.7776 H   0  0  0  0  0  0
  -24.8913  -32.2859   26.4878 H   0  0  0  0  0  0
  -25.8042  -30.8863   27.0209 H   0  0  0  0  0  0
  -26.2891  -29.6732   24.1201 H   0  0  0  0  0  0
  -27.4106  -29.7277   25.4629 H   0  0  0  0  0  0
  -27.8740  -30.4331   23.9328 H   0  0  0  0  0  0
  -27.2642  -33.3645   26.1997 H   0  0  0  0  0  0
  -28.3843  -32.6829   25.0277 H   0  0  0  0  0  0
  -28.0685  -31.8468   26.5425 H   0  0  0  0  0  0
  -28.2567  -38.0118   24.7520 H   0  0  0  0  0  0
  -28.1112  -36.2646   24.6280 H   0  0  0  0  0  0
  -27.2297  -37.1451   25.8861 H   0  0  0  0  0  0
  -20.9321  -29.8796   21.6961 H   0  0  0  0  0  0
  -26.0183  -38.2849   24.1400 H   0  0  0  0  0  0
  -30.9351  -23.8329   19.2898 H   0  0  0  0  0  0
  -27.1853  -20.8599   22.4588 H   0  0  0  0  0  0
  -26.8450  -20.0788   20.9106 H   0  0  0  0  0  0
  -26.0338  -21.5866   21.3335 H   0  0  0  0  0  0
  -29.4150  -19.7581   22.2018 H   0  0  0  0  0  0
  -30.9031  -19.8626   21.3496 H   0  0  0  0  0  0
  -27.7553  -25.1798   18.5523 H   0  0  0  0  0  0
  -29.3970  -25.5558   18.6849 H   0  0  0  0  0  0
  -29.8435  -18.4824   19.4323 H   0  0  0  0  0  0
  -28.4698  -18.2314   20.4723 H   0  0  0  0  0  0
  -30.1969  -17.2463   22.2163 H   0  0  0  0  0  0
  -31.3670  -17.2511   20.9423 H   0  0  0  0  0  0
  -28.8979  -15.5222   21.0128 H   0  0  0  0  0  0
  1 25  1  0  0  0
  1 30  2  0  0  0
  1 82  1  0  0  0
  2  3  1  0  0  0
  2 25  1  0  0  0
  2 83  1  0  0  0
  2 84  1  0  0  0
  3  4  1  0  0  0
  3 85  1  0  0  0
  3 86  1  0  0  0
  4  5  1  0  0  0
  4 87  1  0  0  0
  4 88  1  0  0  0
  5  6  1  0  0  0
  5 26  1  0  0  0
  5 89  1  0  0  0
  6 25  1  0  0  0
  6 90  1  0  0  0
  6 91  1  0  0  0
  7  8  2  0  0  0
  7 26  1  0  0  0
  7 29  1  0  0  0
  8  9  1  0  0  0
  8 22  1  0  0  0
  9 10  1  0  0  0
  9 27  2  0  0  0
 10 11  2  0  0  0
 10 15  1  0  0  0
 11 12  1  0  0  0
 11 92  1  0  0  0
 12 13  2  0  0  0
 12 93  1  0  0  0
 13 14  1  0  0  0
 13 31  1  0  0  0
 14 15  2  0  0  0
 14 94  1  0  0  0
 15 95  1  0  0  0
 16 17  2  0  0  0
 16 21  1  0  0  0
 16 31  1  0  0  0
 17 18  1  0  0  0
 17 96  1  0  0  0
 18 19  2  0  0  0
 18 97  1  0  0  0
 19 20  1  0  0  0
 19 24  1  0  0  0
 20 21  2  0  0  0
 20 98  1  0  0  0
 21 23  1  0  0  0
 22 28  1  0  0  0
 22 32  2  0  0  0
 26 27  1  0  0  0
 28 99  1  0  0  0
 28100  1  0  0  0
 29101  1  0  0  0
 29102  1  0  0  0
 33 34  1  0  0  0
 33 66  1  0  0  0
 33 70  2  0  0  0
 34 36  1  0  0  0
 34 59  1  0  0  0
 34103  1  0  0  0
 35 44  2  0  0  0
 35 45  1  0  0  0
 35 68  1  0  0  0
 36 56  1  0  0  0
 36104  1  0  0  0
 37 39  1  0  0  0
 37 47  1  0  0  0
 37 66  1  0  0  0
 37105  1  0  0  0
 38 43  2  0  0  0
 38 46  1  0  0  0
 38 47  1  0  0  0
 39 64  1  0  0  0
 39 67  2  0  0  0
 40 52  1  0  0  0
 40 53  2  0  0  0
 40 58  1  0  0  0
 41106  1  0  0  0
 41107  1  0  0  0
 41108  1  0  0  0
 41 48  1  0  0  0
 42 43  1  0  0  0
 42 66  1  0  0  0
 42109  1  0  0  0
 42110  1  0  0  0
 43 44  1  0  0  0
 44111  1  0  0  0
 45 46  2  0  0  0
 45112  1  0  0  0
 46113  1  0  0  0
 47114  1  0  0  0
 47115  1  0  0  0
 48 56  1  0  0  0
 48 65  1  0  0  0
 48116  1  0  0  0
 49 50  1  0  0  0
 49 53  1  0  0  0
 49 64  1  0  0  0
 49117  1  0  0  0
 50 51  1  0  0  0
 50118  1  0  0  0
 50119  1  0  0  0
 51 52  1  0  0  0
 51120  1  0  0  0
 51121  1  0  0  0
 52122  1  0  0  0
 52123  1  0  0  0
 53 54  1  0  0  0
 54 55  2  0  0  0
 54124  1  0  0  0
 55 57  1  0  0  0
 55125  1  0  0  0
 56 69  2  0  0  0
 57 58  2  0  0  0
 57126  1  0  0  0
 58127  1  0  0  0
 59 60  1  0  0  0
 59 61  1  0  0  0
 59 62  1  0  0  0
 60128  1  0  0  0
 60129  1  0  0  0
 60130  1  0  0  0
 61131  1  0  0  0
 61132  1  0  0  0
 61133  1  0  0  0
 62134  1  0  0  0
 62135  1  0  0  0
 62136  1  0  0  0
 63 65  1  0  0  0
 63137  1  0  0  0
 63138  1  0  0  0
 63139  1  0  0  0
 64140  1  0  0  0
 65141  1  0  0  0
 68 77  1  0  0  0
 71 72  2  0  0  0
 71 80  1  0  0  0
 71142  1  0  0  0
 72 77  1  0  0  0
 72 81  1  0  0  0
 73 74  1  0  0  0
 73 75  1  0  0  0
 73 81  2  0  0  0
 74 76  1  0  0  0
 74 80  2  0  0  0
 75143  1  0  0  0
 75144  1  0  0  0
 75145  1  0  0  0
 76 78  1  0  0  0
 76146  1  0  0  0
 76147  1  0  0  0
 77148  1  0  0  0
 77149  1  0  0  0
 78 79  1  0  0  0
 78150  1  0  0  0
 78151  1  0  0  0
 79 82  1  0  0  0
 79152  1  0  0  0
 79153  1  0  0  0
 82154  1  0  0  0
M  ISO  4   1 100  68 101  77 101  82 100
M  END
> <chiral flag>
0

> <version>
0

> <s_m_source_file>
/data/baiqing/PycharmProjects/Reinvent-master-3.2/result/LINK_invent/BTK/process_docking_weight1_custom_sum_contain_oxygen_bond_distance_aromatic_linkinvent_7_9_3/rearranged_h_0046.sdf

> <i_m_source_file_index>
34

> <r_mmod_Potential_Energy-OPLS-2005>
115.74626159668

> <r_mmod_Stretch_Energy-OPLS-2005>
86.7920150756836

> <r_mmod_Bend_Energy-OPLS-2005>
154.914474487305

> <r_mmod_Torsional_Energy-OPLS-2005>
207.060653686523

> <r_mmod_Improper_Torsional_Energy-OPLS-2005>
6.10212755203247

> <r_mmod_Van_der_Waal_Energy-OPLS-2005>
146.113616943359

> <r_mmod_Electrostatic_Energy-OPLS-2005>
-303.426574707031

> <r_mmod_Solvation_Energy-OPLS-2005>
-231.705520629883

> <b_mmod_Minimization_Converged-OPLS-2005>
0

> <r_mmod_RMS_Derivative-OPLS-2005>
1.94964790344238

$$$$
34
                    3D
 Structure written by MMmdl.
157165  0  0  1  0            999 V2000
  -30.6831  -14.4824   20.5820 C   0  0  0  0  0  0
  -30.4257  -12.3073   19.4395 C   0  0  0  0  0  0
  -29.5005  -12.4947   18.2180 C   0  0  0  0  0  0
  -28.0178  -12.3625   18.6210 C   0  0  0  0  0  0
  -27.6605  -13.2014   19.8760 C   0  0  2  0  0  0
  -28.6969  -12.9730   20.9975 C   0  0  0  0  0  0
  -25.2597  -13.8158   20.5699 C   0  0  0  0  0  0
  -24.1839  -13.0433   20.9175 C   0  0  0  0  0  0
  -24.6390  -11.6898   20.8748 C   0  0  0  0  0  0
  -23.9054  -10.4288   21.0425 C   0  0  0  0  0  0
  -24.3607   -9.4203   21.9200 C   0  0  0  0  0  0
  -23.6288   -8.2238   22.0756 C   0  0  0  0  0  0
  -22.4272   -8.0283   21.3548 C   0  0  0  0  0  0
  -21.9900   -9.0260   20.4655 C   0  0  0  0  0  0
  -22.7229  -10.2140   20.3071 C   0  0  0  0  0  0
  -21.6867   -6.0734   22.5268 C   0  0  0  0  0  0
  -21.4036   -6.5637   23.8201 C   0  0  0  0  0  0
  -21.3651   -5.6788   24.9157 C   0  0  0  0  0  0
  -21.6033   -4.3048   24.7208 C   0  0  0  0  0  0
  -21.8814   -3.8143   23.4325 C   0  0  0  0  0  0
  -21.9198   -4.6965   22.3387 C   0  0  0  0  0  0
  -22.7858  -13.5240   21.1819 C   0  0  0  0  0  0
  -22.1661   -4.2149   21.0967 F   0  0  0  0  0  0
  -21.5618   -3.4528   25.7718 F   0  0  0  0  0  0
  -30.0273  -13.2944   20.4541 N   0  0  0  0  0  0
  -26.3017  -12.9310   20.3358 N   0  0  0  0  0  0
  -25.9310  -11.6476   20.5775 N   0  0  0  0  0  0
  -22.0495  -12.8270   22.0395 N   0  0  0  0  0  0
  -25.4345  -15.1874   20.4150 N   0  0  0  0  0  0
  -31.7970  -14.6821   20.0854 O   0  0  0  0  0  0
  -21.6641   -6.8882   21.4234 O   0  0  0  0  0  0
  -22.3553  -14.5539   20.6636 O   0  0  0  0  0  0
  -24.6138  -31.8682   23.2090 C   0  0  0  0  0  0
  -25.9021  -32.4838   23.8396 C   0  0  1  0  0  0
  -27.2337  -27.4418   20.0991 C   0  0  0  0  0  0
  -25.5890  -33.8633   24.2344 N   0  0  0  0  0  0
  -23.4016  -30.4904   21.5505 C   0  0  2  0  0  0
  -24.8474  -28.9519   20.1195 C   0  0  0  0  0  0
  -22.7398  -29.4657   22.4993 C   0  0  0  0  0  0
  -18.0263  -28.1386   22.8510 C   0  0  0  0  0  0
  -24.1485  -36.7306   23.2633 C   0  0  0  0  0  0
  -25.9288  -30.8383   21.3572 C   0  0  0  0  0  0
  -26.0065  -29.4702   20.7100 C   0  0  0  0  0  0
  -27.2048  -28.7226   20.6929 C   0  0  0  0  0  0
  -26.0597  -26.9320   19.5054 C   0  0  0  0  0  0
  -24.8673  -27.6809   19.5154 C   0  0  0  0  0  0
  -23.6102  -29.8185   20.1670 C   0  0  0  0  0  0
  -25.4107  -36.3121   24.0349 C   0  0  1  0  0  0
  -20.5854  -28.3654   23.1344 C   0  0  2  0  0  0
  -20.6764  -26.9396   22.5431 C   0  0  0  0  0  0
  -19.5739  -26.6393   21.5230 C   0  0  0  0  0  0
  -18.1913  -26.7936   22.1634 C   0  0  0  0  0  0
  -19.1515  -28.8836   23.2930 C   0  0  0  0  0  0
  -18.9440  -30.1441   23.8932 C   0  0  0  0  0  0
  -17.6447  -30.6591   24.0572 C   0  0  0  0  0  0
  -25.9037  -34.9486   23.5148 C   0  0  0  0  0  0
  -16.5336  -29.9102   23.6327 C   0  0  0  0  0  0
  -16.7255  -28.6519   23.0358 C   0  0  0  0  0  0
  -26.4456  -31.6605   25.0707 C   0  0  0  0  0  0
  -25.3733  -31.3697   26.1459 C   0  0  0  0  0  0
  -27.0273  -30.3059   24.6044 C   0  0  0  0  0  0
  -27.6049  -32.4296   25.7461 C   0  0  0  0  0  0
  -27.5587  -37.1804   24.8470 C   0  0  0  0  0  0
  -21.4127  -29.3029   22.3747 N   0  0  0  0  0  0
  -26.4293  -37.3813   23.9420 N   0  0  0  0  0  0
  -24.6666  -31.0799   22.0979 N   0  0  0  0  0  0
  -23.4179  -28.8175   23.3012 O   0  0  0  0  0  0
  -28.4094  -26.7281   20.0763 O   0  0  0  0  0  0
  -26.5594  -34.8930   22.4704 O   0  0  0  0  0  0
  -23.5333  -32.1413   23.7497 O   0  0  0  0  0  0
  -28.9554  -21.7760   19.7573 C   0  0  0  0  0  0
  -30.5388  -23.1323   20.9611 C   0  0  0  0  0  0
  -29.4202  -23.0695   20.1055 C   0  0  0  0  0  0
  -29.6700  -20.6568   20.2531 C   0  0  0  0  0  0
  -29.8089  -15.7455   22.4717 C   0  0  0  0  0  0
  -28.8395  -24.3599   19.5228 C   0  0  0  0  0  0
  -29.3902  -19.2326   19.7597 C   0  0  0  0  0  0
  -29.6434  -18.0897   20.7823 C   0  0  0  0  0  0
  -29.6346  -16.6749   20.1362 C   0  0  0  0  0  0
  -28.3662  -25.3855   20.5792 C   0  0  0  0  0  0
  -31.1660  -22.0260   21.4259 N   0  0  0  0  0  0
  -30.7549  -20.8105   21.0551 N   0  0  0  0  0  0
  -29.9275  -15.5210   21.0274 N   0  0  0  0  0  0
  -31.4714  -12.4120   19.1468 H   0  0  0  0  0  0
  -30.3321  -11.2994   19.8489 H   0  0  0  0  0  0
  -29.7433  -11.7613   17.4480 H   0  0  0  0  0  0
  -29.6710  -13.4751   17.7701 H   0  0  0  0  0  0
  -27.8237  -11.3067   18.8160 H   0  0  0  0  0  0
  -27.3747  -12.6387   17.7854 H   0  0  0  0  0  0
  -27.7068  -14.2498   19.5828 H   0  0  0  0  0  0
  -28.6793  -11.9326   21.3280 H   0  0  0  0  0  0
  -28.4397  -13.5554   21.8802 H   0  0  0  0  0  0
  -25.2747   -9.5673   22.4778 H   0  0  0  0  0  0
  -23.9993   -7.4623   22.7462 H   0  0  0  0  0  0
  -21.0830   -8.8784   19.8961 H   0  0  0  0  0  0
  -22.3697  -10.9682   19.6182 H   0  0  0  0  0  0
  -21.2056   -7.6150   23.9708 H   0  0  0  0  0  0
  -21.1480   -6.0516   25.9062 H   0  0  0  0  0  0
  -22.0612   -2.7606   23.2814 H   0  0  0  0  0  0
  -22.4103  -11.9940   22.4809 H   0  0  0  0  0  0
  -21.1114  -13.1327   22.2567 H   0  0  0  0  0  0
  -24.6759  -15.8469   20.5506 H   0  0  0  0  0  0
  -26.2990  -15.6319   20.1333 H   0  0  0  0  0  0
  -26.7087  -32.5554   23.1163 H   0  0  0  0  0  0
  -25.0091  -33.9797   25.0525 H   0  0  0  0  0  0
  -22.6895  -31.3060   21.4108 H   0  0  0  0  0  0
  -23.3763  -35.9624   23.3310 H   0  0  0  0  0  0
  -24.3588  -36.8900   22.2043 H   0  0  0  0  0  0
  -23.7214  -37.6508   23.6634 H   0  0  0  0  0  0
  -26.0329  -31.5999   20.5822 H   0  0  0  0  0  0
  -26.8202  -30.9005   21.9705 H   0  0  0  0  0  0
  -28.1029  -29.1206   21.1441 H   0  0  0  0  0  0
  -26.0689  -25.9642   19.0252 H   0  0  0  0  0  0
  -23.9748  -27.2783   19.0553 H   0  0  0  0  0  0
  -23.7174  -30.5914   19.4055 H   0  0  0  0  0  0
  -22.7352  -29.2377   19.8719 H   0  0  0  0  0  0
  -25.1281  -36.2001   25.0849 H   0  0  0  0  0  0
  -20.9959  -28.3220   24.1458 H   0  0  0  0  0  0
  -20.5689  -26.2249   23.3610 H   0  0  0  0  0  0
  -21.6631  -26.7463   22.1194 H   0  0  0  0  0  0
  -19.6896  -25.6314   21.1231 H   0  0  0  0  0  0
  -19.6679  -27.3229   20.6784 H   0  0  0  0  0  0
  -17.4188  -26.6698   21.4030 H   0  0  0  0  0  0
  -18.0294  -26.0075   22.9022 H   0  0  0  0  0  0
  -19.7916  -30.7254   24.2317 H   0  0  0  0  0  0
  -17.5002  -31.6270   24.5168 H   0  0  0  0  0  0
  -15.5340  -30.3019   23.7631 H   0  0  0  0  0  0
  -15.8655  -28.0847   22.7068 H   0  0  0  0  0  0
  -24.5920  -30.7031   25.7796 H   0  0  0  0  0  0
  -24.8897  -32.2843   26.4900 H   0  0  0  0  0  0
  -25.8083  -30.8873   27.0222 H   0  0  0  0  0  0
  -26.2799  -29.6828   24.1118 H   0  0  0  0  0  0
  -27.4098  -29.7277   25.4463 H   0  0  0  0  0  0
  -27.8612  -30.4403   23.9148 H   0  0  0  0  0  0
  -27.2716  -33.3612   26.2048 H   0  0  0  0  0  0
  -28.3860  -32.6822   25.0277 H   0  0  0  0  0  0
  -28.0724  -31.8404   26.5364 H   0  0  0  0  0  0
  -28.2611  -38.0095   24.7538 H   0  0  0  0  0  0
  -28.1073  -36.2631   24.6282 H   0  0  0  0  0  0
  -27.2304  -37.1444   25.8870 H   0  0  0  0  0  0
  -20.9271  -29.8762   21.6991 H   0  0  0  0  0  0
  -26.0189  -38.2893   24.1436 H   0  0  0  0  0  0
  -28.1216  -21.6442   19.0806 H   0  0  0  0  0  0
  -30.9639  -24.0804   21.2570 H   0  0  0  0  0  0
  -28.8048  -16.0845   22.7229 H   0  0  0  0  0  0
  -30.5259  -16.4928   22.8112 H   0  0  0  0  0  0
  -29.9963  -14.8387   23.0513 H   0  0  0  0  0  0
  -28.0314  -24.1387   18.8237 H   0  0  0  0  0  0
  -29.6348  -24.8120   18.9294 H   0  0  0  0  0  0
  -30.0070  -19.0778   18.8740 H   0  0  0  0  0  0
  -28.3547  -19.1814   19.4204 H   0  0  0  0  0  0
  -28.9026  -18.1597   21.5789 H   0  0  0  0  0  0
  -30.6201  -18.2339   21.2427 H   0  0  0  0  0  0
  -30.3345  -16.6828   19.2980 H   0  0  0  0  0  0
  -28.6536  -16.5013   19.6918 H   0  0  0  0  0  0
  -29.0474  -25.3815   21.4291 H   0  0  0  0  0  0
  -27.3961  -25.0968   20.9858 H   0  0  0  0  0  0
  1 25  1  0  0  0
  1 30  2  0  0  0
  1 83  1  0  0  0
  2  3  1  0  0  0
  2 25  1  0  0  0
  2 84  1  0  0  0
  2 85  1  0  0  0
  3  4  1  0  0  0
  3 86  1  0  0  0
  3 87  1  0  0  0
  4  5  1  0  0  0
  4 88  1  0  0  0
  4 89  1  0  0  0
  5  6  1  0  0  0
  5 26  1  0  0  0
  5 90  1  0  0  0
  6 25  1  0  0  0
  6 91  1  0  0  0
  6 92  1  0  0  0
  7  8  2  0  0  0
  7 26  1  0  0  0
  7 29  1  0  0  0
  8  9  1  0  0  0
  8 22  1  0  0  0
  9 10  1  0  0  0
  9 27  2  0  0  0
 10 11  2  0  0  0
 10 15  1  0  0  0
 11 12  1  0  0  0
 11 93  1  0  0  0
 12 13  2  0  0  0
 12 94  1  0  0  0
 13 14  1  0  0  0
 13 31  1  0  0  0
 14 15  2  0  0  0
 14 95  1  0  0  0
 15 96  1  0  0  0
 16 17  2  0  0  0
 16 21  1  0  0  0
 16 31  1  0  0  0
 17 18  1  0  0  0
 17 97  1  0  0  0
 18 19  2  0  0  0
 18 98  1  0  0  0
 19 20  1  0  0  0
 19 24  1  0  0  0
 20 21  2  0  0  0
 20 99  1  0  0  0
 21 23  1  0  0  0
 22 28  1  0  0  0
 22 32  2  0  0  0
 26 27  1  0  0  0
 28100  1  0  0  0
 28101  1  0  0  0
 29102  1  0  0  0
 29103  1  0  0  0
 33 34  1  0  0  0
 33 66  1  0  0  0
 33 70  2  0  0  0
 34 36  1  0  0  0
 34 59  1  0  0  0
 34104  1  0  0  0
 35 44  2  0  0  0
 35 45  1  0  0  0
 35 68  1  0  0  0
 36 56  1  0  0  0
 36105  1  0  0  0
 37 39  1  0  0  0
 37 47  1  0  0  0
 37 66  1  0  0  0
 37106  1  0  0  0
 38 43  2  0  0  0
 38 46  1  0  0  0
 38 47  1  0  0  0
 39 64  1  0  0  0
 39 67  2  0  0  0
 40 52  1  0  0  0
 40 53  2  0  0  0
 40 58  1  0  0  0
 41107  1  0  0  0
 41108  1  0  0  0
 41109  1  0  0  0
 41 48  1  0  0  0
 42 43  1  0  0  0
 42 66  1  0  0  0
 42110  1  0  0  0
 42111  1  0  0  0
 43 44  1  0  0  0
 44112  1  0  0  0
 45 46  2  0  0  0
 45113  1  0  0  0
 46114  1  0  0  0
 47115  1  0  0  0
 47116  1  0  0  0
 48 56  1  0  0  0
 48 65  1  0  0  0
 48117  1  0  0  0
 49 50  1  0  0  0
 49 53  1  0  0  0
 49 64  1  0  0  0
 49118  1  0  0  0
 50 51  1  0  0  0
 50119  1  0  0  0
 50120  1  0  0  0
 51 52  1  0  0  0
 51121  1  0  0  0
 51122  1  0  0  0
 52123  1  0  0  0
 52124  1  0  0  0
 53 54  1  0  0  0
 54 55  2  0  0  0
 54125  1  0  0  0
 55 57  1  0  0  0
 55126  1  0  0  0
 56 69  2  0  0  0
 57 58  2  0  0  0
 57127  1  0  0  0
 58128  1  0  0  0
 59 60  1  0  0  0
 59 61  1  0  0  0
 59 62  1  0  0  0
 60129  1  0  0  0
 60130  1  0  0  0
 60131  1  0  0  0
 61132  1  0  0  0
 61133  1  0  0  0
 61134  1  0  0  0
 62135  1  0  0  0
 62136  1  0  0  0
 62137  1  0  0  0
 63 65  1  0  0  0
 63138  1  0  0  0
 63139  1  0  0  0
 63140  1  0  0  0
 64141  1  0  0  0
 65142  1  0  0  0
 68 80  1  0  0  0
 71 73  2  0  0  0
 71 74  1  0  0  0
 71143  1  0  0  0
 72 73  1  0  0  0
 72 81  2  0  0  0
 72144  1  0  0  0
 73 76  1  0  0  0
 74 77  1  0  0  0
 74 82  2  0  0  0
 75 83  1  0  0  0
 75145  1  0  0  0
 75146  1  0  0  0
 75147  1  0  0  0
 76 80  1  0  0  0
 76148  1  0  0  0
 76149  1  0  0  0
 77 78  1  0  0  0
 77150  1  0  0  0
 77151  1  0  0  0
 78 79  1  0  0  0
 78152  1  0  0  0
 78153  1  0  0  0
 79 83  1  0  0  0
 79154  1  0  0  0
 79155  1  0  0  0
 80156  1  0  0  0
 80157  1  0  0  0
 81 82  1  0  0  0
M  ISO  4   1 100  68 101  80 101  83 100
M  END
> <chiral flag>
0

> <version>
0

> <s_m_source_file>
/data/baiqing/PycharmProjects/Reinvent-master-3.2/result/LINK_invent/BTK/process_docking_weight1_custom_sum_contain_oxygen_bond_distance_aromatic_linkinvent_7_9_3/rearranged_h_0046.sdf

> <i_m_source_file_index>
35

> <r_mmod_Potential_Energy-OPLS-2005>
153.718994140625

> <r_mmod_Stretch_Energy-OPLS-2005>
39.914249420166

> <r_mmod_Bend_Energy-OPLS-2005>
99.1812896728516

> <r_mmod_Torsional_Energy-OPLS-2005>
307.978607177734

> <r_mmod_Improper_Torsional_Energy-OPLS-2005>
8.90098667144775

> <r_mmod_Van_der_Waal_Energy-OPLS-2005>
157.558029174805

> <r_mmod_Electrostatic_Energy-OPLS-2005>
-250.717559814453

> <r_mmod_Solvation_Energy-OPLS-2005>
-221.054046630859

> <b_mmod_Minimization_Converged-OPLS-2005>
0

> <r_mmod_RMS_Derivative-OPLS-2005>
2.6985878944397

$$$$
35
                    3D
 Structure written by MMmdl.
161169  0  0  1  0            999 V2000
  -30.7378  -14.3838   20.6424 C   0  0  0  0  0  0
  -30.4210  -12.2820   19.3961 C   0  0  0  0  0  0
  -29.4910  -12.5209   18.1917 C   0  0  0  0  0  0
  -28.0114  -12.3840   18.6042 C   0  0  0  0  0  0
  -27.6678  -13.2002   19.8796 C   0  0  2  0  0  0
  -28.7063  -12.9328   20.9919 C   0  0  0  0  0  0
  -25.2614  -13.8157   20.5667 C   0  0  0  0  0  0
  -24.1850  -13.0444   20.9154 C   0  0  0  0  0  0
  -24.6391  -11.6907   20.8711 C   0  0  0  0  0  0
  -23.9050  -10.4302   21.0394 C   0  0  0  0  0  0
  -24.3609   -9.4227   21.9173 C   0  0  0  0  0  0
  -23.6304   -8.2252   22.0750 C   0  0  0  0  0  0
  -22.4284   -8.0280   21.3540 C   0  0  0  0  0  0
  -21.9908   -9.0247   20.4645 C   0  0  0  0  0  0
  -22.7221  -10.2133   20.3050 C   0  0  0  0  0  0
  -21.6860   -6.0743   22.5284 C   0  0  0  0  0  0
  -21.4011   -6.5646   23.8215 C   0  0  0  0  0  0
  -21.3652   -5.6797   24.9175 C   0  0  0  0  0  0
  -21.6049   -4.3060   24.7221 C   0  0  0  0  0  0
  -21.8823   -3.8152   23.4341 C   0  0  0  0  0  0
  -21.9193   -4.6971   22.3400 C   0  0  0  0  0  0
  -22.7876  -13.5253   21.1823 C   0  0  0  0  0  0
  -22.1669   -4.2158   21.0981 F   0  0  0  0  0  0
  -21.5621   -3.4544   25.7730 F   0  0  0  0  0  0
  -30.0468  -13.2317   20.4527 N   0  0  0  0  0  0
  -26.3051  -12.9309   20.3371 N   0  0  0  0  0  0
  -25.9313  -11.6474   20.5738 N   0  0  0  0  0  0
  -22.0513  -12.8248   22.0377 N   0  0  0  0  0  0
  -25.4363  -15.1879   20.4090 N   0  0  0  0  0  0
  -31.7978  -14.6474   20.0657 O   0  0  0  0  0  0
  -21.6650   -6.8879   21.4243 O   0  0  0  0  0  0
  -22.3564  -14.5561   20.6677 O   0  0  0  0  0  0
  -24.6114  -31.8698   23.2116 C   0  0  0  0  0  0
  -25.9024  -32.4828   23.8394 C   0  0  1  0  0  0
  -27.2412  -27.4667   20.0768 C   0  0  0  0  0  0
  -25.5886  -33.8626   24.2325 N   0  0  0  0  0  0
  -23.3963  -30.4926   21.5531 C   0  0  2  0  0  0
  -24.8398  -28.9565   20.1175 C   0  0  0  0  0  0
  -22.7386  -29.4670   22.5026 C   0  0  0  0  0  0
  -18.0265  -28.1377   22.8502 C   0  0  0  0  0  0
  -24.1482  -36.7321   23.2639 C   0  0  0  0  0  0
  -25.9213  -30.8417   21.3594 C   0  0  0  0  0  0
  -25.9965  -29.4770   20.7087 C   0  0  0  0  0  0
  -27.1950  -28.7367   20.6881 C   0  0  0  0  0  0
  -26.0620  -26.9439   19.4949 C   0  0  0  0  0  0
  -24.8651  -27.6865   19.5138 C   0  0  0  0  0  0
  -23.6005  -29.8206   20.1680 C   0  0  0  0  0  0
  -25.4102  -36.3117   24.0339 C   0  0  1  0  0  0
  -20.5852  -28.3649   23.1343 C   0  0  2  0  0  0
  -20.6751  -26.9394   22.5425 C   0  0  0  0  0  0
  -19.5731  -26.6386   21.5222 C   0  0  0  0  0  0
  -18.1910  -26.7926   22.1632 C   0  0  0  0  0  0
  -19.1512  -28.8832   23.2918 C   0  0  0  0  0  0
  -18.9440  -30.1438   23.8920 C   0  0  0  0  0  0
  -17.6446  -30.6585   24.0568 C   0  0  0  0  0  0
  -25.9032  -34.9482   23.5134 C   0  0  0  0  0  0
  -16.5335  -29.9092   23.6323 C   0  0  0  0  0  0
  -16.7254  -28.6507   23.0345 C   0  0  0  0  0  0
  -26.4457  -31.6607   25.0720 C   0  0  0  0  0  0
  -25.3731  -31.3704   26.1476 C   0  0  0  0  0  0
  -27.0288  -30.3054   24.6081 C   0  0  0  0  0  0
  -27.6034  -32.4324   25.7480 C   0  0  0  0  0  0
  -27.5578  -37.1816   24.8464 C   0  0  0  0  0  0
  -21.4123  -29.3021   22.3761 N   0  0  0  0  0  0
  -26.4290  -37.3797   23.9408 N   0  0  0  0  0  0
  -24.6613  -31.0820   22.0999 N   0  0  0  0  0  0
  -23.4174  -28.8220   23.3061 O   0  0  0  0  0  0
  -28.4530  -26.8151   20.0767 O   0  0  0  0  0  0
  -26.5601  -34.8934   22.4699 O   0  0  0  0  0  0
  -23.5318  -32.1447   23.7528 O   0  0  0  0  0  0
  -30.5065  -23.7138   19.4407 C   0  0  0  0  0  0
  -30.0007  -25.0403   19.5732 C   0  0  0  0  0  0
  -33.4171  -25.5208   20.0995 C   0  0  0  0  0  0
  -29.7655  -22.4271   19.2083 C   0  0  0  0  0  0
  -28.5764  -25.5265   19.4816 C   0  0  0  0  0  0
  -29.9650  -17.6012   20.7105 C   0  0  0  0  0  0
  -30.4117  -19.0534   20.9351 C   0  0  0  0  0  0
  -30.5983  -16.6265   21.7196 C   0  0  0  0  0  0
  -29.7937  -20.0365   19.9228 C   0  0  0  0  0  0
  -31.8096  -23.7285   19.6084 N   0  0  0  0  0  0
  -31.0038  -25.8560   19.8103 N   0  0  0  0  0  0
  -32.0809  -25.0368   19.8320 N   0  0  0  0  0  0
  -30.1557  -15.2592   21.4702 N   0  0  0  0  0  0
  -30.2634  -21.4160   20.1577 N   0  3  0  0  0  0
  -31.4656  -12.3821   19.0940 H   0  0  0  0  0  0
  -30.3148  -11.2591   19.7609 H   0  0  0  0  0  0
  -29.7251  -11.8165   17.3922 H   0  0  0  0  0  0
  -29.6688  -13.5156   17.7800 H   0  0  0  0  0  0
  -27.8115  -11.3260   18.7762 H   0  0  0  0  0  0
  -27.3624  -12.6831   17.7797 H   0  0  0  0  0  0
  -27.7284  -14.2563   19.6153 H   0  0  0  0  0  0
  -28.6713  -11.8850   21.2938 H   0  0  0  0  0  0
  -28.4607  -13.4941   21.8934 H   0  0  0  0  0  0
  -25.2761   -9.5719   22.4730 H   0  0  0  0  0  0
  -24.0026   -7.4659   22.7473 H   0  0  0  0  0  0
  -21.0836   -8.8753   19.8963 H   0  0  0  0  0  0
  -22.3674  -10.9658   19.6151 H   0  0  0  0  0  0
  -21.2006   -7.6156   23.9718 H   0  0  0  0  0  0
  -21.1468   -6.0528   25.9078 H   0  0  0  0  0  0
  -22.0606   -2.7616   23.2841 H   0  0  0  0  0  0
  -22.4125  -11.9913   22.4779 H   0  0  0  0  0  0
  -21.1119  -13.1259   22.2554 H   0  0  0  0  0  0
  -24.6755  -15.8493   20.5235 H   0  0  0  0  0  0
  -26.2981  -15.6228   20.1034 H   0  0  0  0  0  0
  -26.7094  -32.5542   23.1157 H   0  0  0  0  0  0
  -25.0011  -33.9785   25.0452 H   0  0  0  0  0  0
  -22.6837  -31.3083   21.4153 H   0  0  0  0  0  0
  -23.3741  -35.9661   23.3315 H   0  0  0  0  0  0
  -24.3572  -36.8923   22.2051 H   0  0  0  0  0  0
  -23.7242  -37.6534   23.6643 H   0  0  0  0  0  0
  -26.0295  -31.6083   20.5904 H   0  0  0  0  0  0
  -26.8115  -30.8946   21.9746 H   0  0  0  0  0  0
  -28.0930  -29.1421   21.1335 H   0  0  0  0  0  0
  -26.0472  -25.9748   19.0193 H   0  0  0  0  0  0
  -23.9724  -27.2771   19.0601 H   0  0  0  0  0  0
  -23.7048  -30.5938   19.4060 H   0  0  0  0  0  0
  -22.7244  -29.2379   19.8765 H   0  0  0  0  0  0
  -25.1279  -36.1985   25.0833 H   0  0  0  0  0  0
  -20.9941  -28.3209   24.1466 H   0  0  0  0  0  0
  -20.5668  -26.2256   23.3605 H   0  0  0  0  0  0
  -21.6622  -26.7450   22.1214 H   0  0  0  0  0  0
  -19.6891  -25.6307   21.1228 H   0  0  0  0  0  0
  -19.6672  -27.3213   20.6768 H   0  0  0  0  0  0
  -17.4189  -26.6689   21.4029 H   0  0  0  0  0  0
  -18.0299  -26.0057   22.9016 H   0  0  0  0  0  0
  -19.7919  -30.7245   24.2303 H   0  0  0  0  0  0
  -17.5003  -31.6270   24.5164 H   0  0  0  0  0  0
  -15.5336  -30.2996   23.7633 H   0  0  0  0  0  0
  -15.8659  -28.0832   22.7040 H   0  0  0  0  0  0
  -24.5882  -30.7079   25.7809 H   0  0  0  0  0  0
  -24.8949  -32.2861   26.4961 H   0  0  0  0  0  0
  -25.8085  -30.8837   27.0212 H   0  0  0  0  0  0
  -26.2830  -29.6821   24.1133 H   0  0  0  0  0  0
  -27.4067  -29.7275   25.4524 H   0  0  0  0  0  0
  -27.8655  -30.4378   23.9217 H   0  0  0  0  0  0
  -27.2648  -33.3604   26.2095 H   0  0  0  0  0  0
  -28.3821  -32.6921   25.0299 H   0  0  0  0  0  0
  -28.0732  -31.8435   26.5366 H   0  0  0  0  0  0
  -28.2604  -38.0103   24.7505 H   0  0  0  0  0  0
  -28.1063  -36.2639   24.6293 H   0  0  0  0  0  0
  -27.2299  -37.1475   25.8867 H   0  0  0  0  0  0
  -20.9284  -29.8730   21.6975 H   0  0  0  0  0  0
  -26.0187  -38.2882   24.1394 H   0  0  0  0  0  0
  -34.1274  -24.6940   20.0974 H   0  0  0  0  0  0
  -33.4415  -26.0037   21.0761 H   0  0  0  0  0  0
  -33.7079  -26.2412   19.3355 H   0  0  0  0  0  0
  -29.9273  -22.0859   18.1846 H   0  0  0  0  0  0
  -28.6901  -22.5546   19.3344 H   0  0  0  0  0  0
  -27.9082  -24.8285   19.9876 H   0  0  0  0  0  0
  -28.2717  -25.5714   18.4353 H   0  0  0  0  0  0
  -30.2292  -17.2979   19.6950 H   0  0  0  0  0  0
  -28.8776  -17.5406   20.7762 H   0  0  0  0  0  0
  -31.4989  -19.1041   20.8689 H   0  0  0  0  0  0
  -30.1497  -19.3575   21.9500 H   0  0  0  0  0  0
  -30.3119  -16.9004   22.7361 H   0  0  0  0  0  0
  -31.6870  -16.6874   21.6786 H   0  0  0  0  0  0
  -28.7051  -20.0093   19.9906 H   0  0  0  0  0  0
  -30.0564  -19.7337   18.9076 H   0  0  0  0  0  0
  -29.2950  -14.9621   21.9069 H   0  0  0  0  0  0
  -30.0169  -21.7126   21.0872 H   0  0  0  0  0  0
  -31.2678  -21.4526   20.0862 H   0  0  0  0  0  0
  1 25  1  0  0  0
  1 30  2  0  0  0
  1 83  1  0  0  0
  2  3  1  0  0  0
  2 25  1  0  0  0
  2 85  1  0  0  0
  2 86  1  0  0  0
  3  4  1  0  0  0
  3 87  1  0  0  0
  3 88  1  0  0  0
  4  5  1  0  0  0
  4 89  1  0  0  0
  4 90  1  0  0  0
  5  6  1  0  0  0
  5 26  1  0  0  0
  5 91  1  0  0  0
  6 25  1  0  0  0
  6 92  1  0  0  0
  6 93  1  0  0  0
  7  8  2  0  0  0
  7 26  1  0  0  0
  7 29  1  0  0  0
  8  9  1  0  0  0
  8 22  1  0  0  0
  9 10  1  0  0  0
  9 27  2  0  0  0
 10 11  2  0  0  0
 10 15  1  0  0  0
 11 12  1  0  0  0
 11 94  1  0  0  0
 12 13  2  0  0  0
 12 95  1  0  0  0
 13 14  1  0  0  0
 13 31  1  0  0  0
 14 15  2  0  0  0
 14 96  1  0  0  0
 15 97  1  0  0  0
 16 17  2  0  0  0
 16 21  1  0  0  0
 16 31  1  0  0  0
 17 18  1  0  0  0
 17 98  1  0  0  0
 18 19  2  0  0  0
 18 99  1  0  0  0
 19 20  1  0  0  0
 19 24  1  0  0  0
 20 21  2  0  0  0
 20100  1  0  0  0
 21 23  1  0  0  0
 22 28  1  0  0  0
 22 32  2  0  0  0
 26 27  1  0  0  0
 28101  1  0  0  0
 28102  1  0  0  0
 29103  1  0  0  0
 29104  1  0  0  0
 33 34  1  0  0  0
 33 66  1  0  0  0
 33 70  2  0  0  0
 34 36  1  0  0  0
 34 59  1  0  0  0
 34105  1  0  0  0
 35 44  2  0  0  0
 35 45  1  0  0  0
 35 68  1  0  0  0
 36 56  1  0  0  0
 36106  1  0  0  0
 37 39  1  0  0  0
 37 47  1  0  0  0
 37 66  1  0  0  0
 37107  1  0  0  0
 38 43  2  0  0  0
 38 46  1  0  0  0
 38 47  1  0  0  0
 39 64  1  0  0  0
 39 67  2  0  0  0
 40 52  1  0  0  0
 40 53  2  0  0  0
 40 58  1  0  0  0
 41108  1  0  0  0
 41109  1  0  0  0
 41110  1  0  0  0
 41 48  1  0  0  0
 42 43  1  0  0  0
 42 66  1  0  0  0
 42111  1  0  0  0
 42112  1  0  0  0
 43 44  1  0  0  0
 44113  1  0  0  0
 45 46  2  0  0  0
 45114  1  0  0  0
 46115  1  0  0  0
 47116  1  0  0  0
 47117  1  0  0  0
 48 56  1  0  0  0
 48 65  1  0  0  0
 48118  1  0  0  0
 49 50  1  0  0  0
 49 53  1  0  0  0
 49 64  1  0  0  0
 49119  1  0  0  0
 50 51  1  0  0  0
 50120  1  0  0  0
 50121  1  0  0  0
 51 52  1  0  0  0
 51122  1  0  0  0
 51123  1  0  0  0
 52124  1  0  0  0
 52125  1  0  0  0
 53 54  1  0  0  0
 54 55  2  0  0  0
 54126  1  0  0  0
 55 57  1  0  0  0
 55127  1  0  0  0
 56 69  2  0  0  0
 57 58  2  0  0  0
 57128  1  0  0  0
 58129  1  0  0  0
 59 60  1  0  0  0
 59 61  1  0  0  0
 59 62  1  0  0  0
 60130  1  0  0  0
 60131  1  0  0  0
 60132  1  0  0  0
 61133  1  0  0  0
 61134  1  0  0  0
 61135  1  0  0  0
 62136  1  0  0  0
 62137  1  0  0  0
 62138  1  0  0  0
 63 65  1  0  0  0
 63139  1  0  0  0
 63140  1  0  0  0
 63141  1  0  0  0
 64142  1  0  0  0
 65143  1  0  0  0
 68 75  1  0  0  0
 71 72  1  0  0  0
 71 74  1  0  0  0
 71 80  2  0  0  0
 72 75  1  0  0  0
 72 81  2  0  0  0
 73 82  1  0  0  0
 73144  1  0  0  0
 73145  1  0  0  0
 73146  1  0  0  0
 74 84  1  0  0  0
 74147  1  0  0  0
 74148  1  0  0  0
 75149  1  0  0  0
 75150  1  0  0  0
 76 77  1  0  0  0
 76 78  1  0  0  0
 76151  1  0  0  0
 76152  1  0  0  0
 77 79  1  0  0  0
 77153  1  0  0  0
 77154  1  0  0  0
 78 83  1  0  0  0
 78155  1  0  0  0
 78156  1  0  0  0
 79 84  1  0  0  0
 79157  1  0  0  0
 79158  1  0  0  0
 80 82  1  0  0  0
 81 82  1  0  0  0
 83159  1  0  0  0
 84160  1  0  0  0
 84161  1  0  0  0
M  CHG  1  84   1
M  ISO  4   1 100  68 101  75 101  83 100
M  END
> <chiral flag>
0

> <version>
0

> <s_m_source_file>
/data/baiqing/PycharmProjects/Reinvent-master-3.2/result/LINK_invent/BTK/process_docking_weight1_custom_sum_contain_oxygen_bond_distance_aromatic_linkinvent_7_9_3/rearranged_h_0046.sdf

> <i_m_source_file_index>
36

> <r_mmod_Potential_Energy-OPLS-2005>
-387.508422851562

> <r_mmod_Stretch_Energy-OPLS-2005>
29.9312286376953

> <r_mmod_Bend_Energy-OPLS-2005>
102.017295837402

> <r_mmod_Torsional_Energy-OPLS-2005>
178.614761352539

> <r_mmod_Improper_Torsional_Energy-OPLS-2005>
2.09328770637512

> <r_mmod_Van_der_Waal_Energy-OPLS-2005>
133.454620361328

> <r_mmod_Electrostatic_Energy-OPLS-2005>
-354.517913818359

> <r_mmod_Solvation_Energy-OPLS-2005>
-487.220916748047

> <b_mmod_Minimization_Converged-OPLS-2005>
0

> <r_mmod_RMS_Derivative-OPLS-2005>
1.37223947048187

$$$$
37
                    3D
 Structure written by MMmdl.
176183  0  0  1  0            999 V2000
  -30.6899  -14.5059   20.4587 C   0  0  0  0  0  0
  -30.4318  -12.3074   19.4157 C   0  0  0  0  0  0
  -29.5165  -12.5124   18.1956 C   0  0  0  0  0  0
  -28.0292  -12.3781   18.5958 C   0  0  0  0  0  0
  -27.6653  -13.1996   19.8651 C   0  0  2  0  0  0
  -28.7169  -13.0019   20.9802 C   0  0  0  0  0  0
  -25.2710  -13.8123   20.5666 C   0  0  0  0  0  0
  -24.1920  -13.0409   20.9137 C   0  0  0  0  0  0
  -24.6439  -11.6882   20.8689 C   0  0  0  0  0  0
  -23.9055  -10.4288   21.0371 C   0  0  0  0  0  0
  -24.3601   -9.4214   21.9159 C   0  0  0  0  0  0
  -23.6258   -8.2264   22.0743 C   0  0  0  0  0  0
  -22.4238   -8.0284   21.3548 C   0  0  0  0  0  0
  -21.9873   -9.0260   20.4638 C   0  0  0  0  0  0
  -22.7220  -10.2128   20.3020 C   0  0  0  0  0  0
  -21.6839   -6.0725   22.5278 C   0  0  0  0  0  0
  -21.4017   -6.5640   23.8218 C   0  0  0  0  0  0
  -21.3628   -5.6798   24.9184 C   0  0  0  0  0  0
  -21.6030   -4.3055   24.7237 C   0  0  0  0  0  0
  -21.8826   -3.8145   23.4364 C   0  0  0  0  0  0
  -21.9206   -4.6963   22.3413 C   0  0  0  0  0  0
  -22.7986  -13.5283   21.1818 C   0  0  0  0  0  0
  -22.1673   -4.2163   21.0985 F   0  0  0  0  0  0
  -21.5601   -3.4526   25.7740 F   0  0  0  0  0  0
  -30.0324  -13.3146   20.4089 N   0  0  0  0  0  0
  -26.3093  -12.9241   20.3313 N   0  0  0  0  0  0
  -25.9373  -11.6419   20.5737 N   0  0  0  0  0  0
  -22.0624  -12.8257   22.0381 N   0  0  0  0  0  0
  -25.4479  -15.1806   20.4066 N   0  0  0  0  0  0
  -31.9073  -14.5773   20.2693 O   0  0  0  0  0  0
  -21.6603   -6.8871   21.4248 O   0  0  0  0  0  0
  -22.3699  -14.5613   20.6710 O   0  0  0  0  0  0
  -24.6125  -31.8718   23.2140 C   0  0  0  0  0  0
  -25.9066  -32.4812   23.8411 C   0  0  1  0  0  0
  -27.2585  -27.4788   20.0566 C   0  0  0  0  0  0
  -25.6010  -33.8611   24.2358 N   0  0  0  0  0  0
  -23.4005  -30.4931   21.5502 C   0  0  2  0  0  0
  -24.8530  -28.9548   20.1222 C   0  0  0  0  0  0
  -22.7374  -29.4671   22.4989 C   0  0  0  0  0  0
  -18.0266  -28.1367   22.8499 C   0  0  0  0  0  0
  -24.1514  -36.7273   23.2608 C   0  0  0  0  0  0
  -25.9297  -30.8317   21.3816 C   0  0  0  0  0  0
  -26.0080  -29.4701   20.7236 C   0  0  0  0  0  0
  -27.2074  -28.7305   20.7088 C   0  0  0  0  0  0
  -26.0836  -26.9528   19.4839 C   0  0  0  0  0  0
  -24.8810  -27.6853   19.5126 C   0  0  0  0  0  0
  -23.6164  -29.8236   20.1649 C   0  0  0  0  0  0
  -25.4129  -36.3060   24.0319 C   0  0  1  0  0  0
  -20.5847  -28.3614   23.1317 C   0  0  2  0  0  0
  -20.6758  -26.9348   22.5412 C   0  0  0  0  0  0
  -19.5733  -26.6326   21.5228 C   0  0  0  0  0  0
  -18.1903  -26.7926   22.1613 C   0  0  0  0  0  0
  -19.1515  -28.8823   23.2889 C   0  0  0  0  0  0
  -18.9465  -30.1462   23.8855 C   0  0  0  0  0  0
  -17.6457  -30.6582   24.0565 C   0  0  0  0  0  0
  -25.9075  -34.9447   23.5113 C   0  0  0  0  0  0
  -16.5348  -29.9078   23.6355 C   0  0  0  0  0  0
  -16.7257  -28.6499   23.0367 C   0  0  0  0  0  0
  -26.4432  -31.6538   25.0738 C   0  0  0  0  0  0
  -25.3657  -31.3703   26.1430 C   0  0  0  0  0  0
  -27.0144  -30.2909   24.6160 C   0  0  0  0  0  0
  -27.5972  -32.4142   25.7682 C   0  0  0  0  0  0
  -27.5585  -37.1808   24.8439 C   0  0  0  0  0  0
  -21.4115  -29.2982   22.3704 N   0  0  0  0  0  0
  -26.4277  -37.3772   23.9399 N   0  0  0  0  0  0
  -24.6632  -31.0803   22.1049 N   0  0  0  0  0  0
  -23.4132  -28.8219   23.3048 O   0  0  0  0  0  0
  -28.4300  -26.7757   19.9174 O   0  0  0  0  0  0
  -26.5546  -34.8913   22.4626 O   0  0  0  0  0  0
  -23.5334  -32.1475   23.7544 O   0  0  0  0  0  0
  -29.5444  -16.7867   16.3807 C   0  0  0  0  0  0
  -29.6418  -17.4274   23.1499 C   0  0  0  0  0  0
  -29.1042  -16.4435   17.8115 C   0  0  0  0  0  0
  -29.6606  -23.4172   18.7635 C   0  0  0  0  0  0
  -30.1026  -21.9556   18.9670 C   0  0  0  0  0  0
  -30.6076  -24.1606   17.8032 C   0  0  0  0  0  0
  -29.2122  -21.1347   19.9162 C   0  0  0  0  0  0
  -30.2357  -25.6352   17.5716 C   0  0  0  0  0  0
  -29.8207  -19.7471   20.1988 C   0  0  0  0  0  0
  -30.5812  -26.5690   18.7495 C   0  0  0  0  0  0
  -28.9756  -18.8799   21.1513 C   0  0  0  0  0  0
  -30.2924  -16.2577   18.7840 C   0  0  0  0  0  0
  -29.0297  -16.3183   20.9257 C   0  0  0  0  0  0
  -29.4288  -27.4916   19.1902 C   0  0  0  0  0  0
  -29.6685  -17.5614   21.6103 C   0  0  2  0  0  0
  -29.9347  -15.5621   20.0435 N   0  0  0  0  0  0
  -31.4808  -12.3986   19.1233 H   0  0  0  0  0  0
  -30.3145  -11.2983   19.8162 H   0  0  0  0  0  0
  -29.7742  -11.8034   17.4107 H   0  0  0  0  0  0
  -29.6960  -13.5023   17.7708 H   0  0  0  0  0  0
  -27.8218  -11.3191   18.7651 H   0  0  0  0  0  0
  -27.3977  -12.6788   17.7596 H   0  0  0  0  0  0
  -27.6826  -14.2435   19.5653 H   0  0  0  0  0  0
  -28.7129  -11.9678   21.3286 H   0  0  0  0  0  0
  -28.4993  -13.6006   21.8635 H   0  0  0  0  0  0
  -25.2734   -9.5707   22.4729 H   0  0  0  0  0  0
  -23.9941   -7.4697   22.7481 H   0  0  0  0  0  0
  -21.0793   -8.8788   19.8981 H   0  0  0  0  0  0
  -22.3661  -10.9658   19.6125 H   0  0  0  0  0  0
  -21.2001   -7.6148   23.9731 H   0  0  0  0  0  0
  -21.1419   -6.0520   25.9088 H   0  0  0  0  0  0
  -22.0621   -2.7602   23.2873 H   0  0  0  0  0  0
  -22.4217  -11.9865   22.4665 H   0  0  0  0  0  0
  -21.1319  -13.1421   22.2696 H   0  0  0  0  0  0
  -24.6888  -15.8454   20.5137 H   0  0  0  0  0  0
  -26.3049  -15.6037   20.0759 H   0  0  0  0  0  0
  -26.7162  -32.5558   23.1192 H   0  0  0  0  0  0
  -25.0399  -33.9785   25.0669 H   0  0  0  0  0  0
  -22.6869  -31.3078   21.4075 H   0  0  0  0  0  0
  -23.3785  -35.9591   23.3223 H   0  0  0  0  0  0
  -24.3607  -36.8928   22.2017 H   0  0  0  0  0  0
  -23.7257  -37.6476   23.6647 H   0  0  0  0  0  0
  -26.0615  -31.6101   20.6302 H   0  0  0  0  0  0
  -26.8050  -30.8663   22.0184 H   0  0  0  0  0  0
  -28.0952  -29.1228   21.1830 H   0  0  0  0  0  0
  -26.1188  -25.9975   18.9810 H   0  0  0  0  0  0
  -23.9901  -27.2802   19.0517 H   0  0  0  0  0  0
  -23.7387  -30.6026   19.4110 H   0  0  0  0  0  0
  -22.7408  -29.2510   19.8553 H   0  0  0  0  0  0
  -25.1310  -36.1896   25.0808 H   0  0  0  0  0  0
  -20.9931  -28.3181   24.1447 H   0  0  0  0  0  0
  -20.5727  -26.2199   23.3572 H   0  0  0  0  0  0
  -21.6625  -26.7422   22.1175 H   0  0  0  0  0  0
  -19.6876  -25.6225   21.1304 H   0  0  0  0  0  0
  -19.6721  -27.3102   20.6732 H   0  0  0  0  0  0
  -17.4180  -26.6704   21.3993 H   0  0  0  0  0  0
  -18.0248  -26.0075   22.9005 H   0  0  0  0  0  0
  -19.7955  -30.7312   24.2144 H   0  0  0  0  0  0
  -17.5036  -31.6288   24.5155 H   0  0  0  0  0  0
  -15.5371  -30.2970   23.7750 H   0  0  0  0  0  0
  -15.8647  -28.0856   22.7051 H   0  0  0  0  0  0
  -24.5959  -30.6861   25.7816 H   0  0  0  0  0  0
  -24.8699  -32.2873   26.4641 H   0  0  0  0  0  0
  -25.8030  -30.9115   27.0304 H   0  0  0  0  0  0
  -26.2731  -29.6919   24.0842 H   0  0  0  0  0  0
  -27.3323  -29.6925   25.4706 H   0  0  0  0  0  0
  -27.8847  -30.4019   23.9676 H   0  0  0  0  0  0
  -27.2539  -33.3395   26.2317 H   0  0  0  0  0  0
  -28.3971  -32.6693   25.0723 H   0  0  0  0  0  0
  -28.0377  -31.8128   26.5648 H   0  0  0  0  0  0
  -28.2534  -38.0163   24.7541 H   0  0  0  0  0  0
  -28.1156  -36.2700   24.6219 H   0  0  0  0  0  0
  -27.2282  -37.1380   25.8827 H   0  0  0  0  0  0
  -20.9238  -29.8666   21.6914 H   0  0  0  0  0  0
  -26.0154  -38.2827   24.1491 H   0  0  0  0  0  0
  -28.6822  -16.8876   15.7185 H   0  0  0  0  0  0
  -30.1794  -16.0034   15.9658 H   0  0  0  0  0  0
  -30.1006  -17.7227   16.3434 H   0  0  0  0  0  0
  -30.1625  -18.2568   23.6286 H   0  0  0  0  0  0
  -30.1413  -16.5150   23.4834 H   0  0  0  0  0  0
  -28.6263  -17.4049   23.5493 H   0  0  0  0  0  0
  -28.4983  -15.5374   17.7745 H   0  0  0  0  0  0
  -28.4497  -17.2421   18.1626 H   0  0  0  0  0  0
  -29.6452  -23.9251   19.7277 H   0  0  0  0  0  0
  -28.6384  -23.4594   18.3831 H   0  0  0  0  0  0
  -31.1245  -21.9486   19.3475 H   0  0  0  0  0  0
  -30.1449  -21.4540   17.9982 H   0  0  0  0  0  0
  -30.5959  -23.6583   16.8330 H   0  0  0  0  0  0
  -31.6379  -24.0873   18.1571 H   0  0  0  0  0  0
  -28.2170  -21.0246   19.4834 H   0  0  0  0  0  0
  -29.0873  -21.6704   20.8568 H   0  0  0  0  0  0
  -29.1859  -25.7167   17.2990 H   0  0  0  0  0  0
  -30.7917  -25.9810   16.6987 H   0  0  0  0  0  0
  -30.8208  -19.8764   20.6129 H   0  0  0  0  0  0
  -29.9482  -19.2280   19.2480 H   0  0  0  0  0  0
  -31.4164  -27.1955   18.4273 H   0  0  0  0  0  0
  -30.9492  -26.0092   19.6082 H   0  0  0  0  0  0
  -28.0326  -18.6683   20.6453 H   0  0  0  0  0  0
  -28.6833  -19.4759   22.0164 H   0  0  0  0  0  0
  -30.7681  -17.2111   19.0031 H   0  0  0  0  0  0
  -31.0570  -15.6942   18.2457 H   0  0  0  0  0  0
  -28.1789  -16.6071   20.3154 H   0  0  0  0  0  0
  -28.5801  -15.6864   21.6857 H   0  0  0  0  0  0
  -28.9925  -27.9659   18.3080 H   0  0  0  0  0  0
  -29.8279  -28.2929   19.8119 H   0  0  0  0  0  0
  -30.7281  -17.6171   21.3490 H   0  0  0  0  0  0
  1 25  1  0  0  0
  1 30  2  0  0  0
  1 86  1  0  0  0
  2  3  1  0  0  0
  2 25  1  0  0  0
  2 87  1  0  0  0
  2 88  1  0  0  0
  3  4  1  0  0  0
  3 89  1  0  0  0
  3 90  1  0  0  0
  4  5  1  0  0  0
  4 91  1  0  0  0
  4 92  1  0  0  0
  5  6  1  0  0  0
  5 26  1  0  0  0
  5 93  1  0  0  0
  6 25  1  0  0  0
  6 94  1  0  0  0
  6 95  1  0  0  0
  7  8  2  0  0  0
  7 26  1  0  0  0
  7 29  1  0  0  0
  8  9  1  0  0  0
  8 22  1  0  0  0
  9 10  1  0  0  0
  9 27  2  0  0  0
 10 11  2  0  0  0
 10 15  1  0  0  0
 11 12  1  0  0  0
 11 96  1  0  0  0
 12 13  2  0  0  0
 12 97  1  0  0  0
 13 14  1  0  0  0
 13 31  1  0  0  0
 14 15  2  0  0  0
 14 98  1  0  0  0
 15 99  1  0  0  0
 16 17  2  0  0  0
 16 21  1  0  0  0
 16 31  1  0  0  0
 17 18  1  0  0  0
 17100  1  0  0  0
 18 19  2  0  0  0
 18101  1  0  0  0
 19 20  1  0  0  0
 19 24  1  0  0  0
 20 21  2  0  0  0
 20102  1  0  0  0
 21 23  1  0  0  0
 22 28  1  0  0  0
 22 32  2  0  0  0
 26 27  1  0  0  0
 28103  1  0  0  0
 28104  1  0  0  0
 29105  1  0  0  0
 29106  1  0  0  0
 33 34  1  0  0  0
 33 66  1  0  0  0
 33 70  2  0  0  0
 34 36  1  0  0  0
 34 59  1  0  0  0
 34107  1  0  0  0
 35 44  2  0  0  0
 35 45  1  0  0  0
 35 68  1  0  0  0
 36 56  1  0  0  0
 36108  1  0  0  0
 37 39  1  0  0  0
 37 47  1  0  0  0
 37 66  1  0  0  0
 37109  1  0  0  0
 38 43  2  0  0  0
 38 46  1  0  0  0
 38 47  1  0  0  0
 39 64  1  0  0  0
 39 67  2  0  0  0
 40 52  1  0  0  0
 40 53  2  0  0  0
 40 58  1  0  0  0
 41110  1  0  0  0
 41111  1  0  0  0
 41112  1  0  0  0
 41 48  1  0  0  0
 42 43  1  0  0  0
 42 66  1  0  0  0
 42113  1  0  0  0
 42114  1  0  0  0
 43 44  1  0  0  0
 44115  1  0  0  0
 45 46  2  0  0  0
 45116  1  0  0  0
 46117  1  0  0  0
 47118  1  0  0  0
 47119  1  0  0  0
 48 56  1  0  0  0
 48 65  1  0  0  0
 48120  1  0  0  0
 49 50  1  0  0  0
 49 53  1  0  0  0
 49 64  1  0  0  0
 49121  1  0  0  0
 50 51  1  0  0  0
 50122  1  0  0  0
 50123  1  0  0  0
 51 52  1  0  0  0
 51124  1  0  0  0
 51125  1  0  0  0
 52126  1  0  0  0
 52127  1  0  0  0
 53 54  1  0  0  0
 54 55  2  0  0  0
 54128  1  0  0  0
 55 57  1  0  0  0
 55129  1  0  0  0
 56 69  2  0  0  0
 57 58  2  0  0  0
 57130  1  0  0  0
 58131  1  0  0  0
 59 60  1  0  0  0
 59 61  1  0  0  0
 59 62  1  0  0  0
 60132  1  0  0  0
 60133  1  0  0  0
 60134  1  0  0  0
 61135  1  0  0  0
 61136  1  0  0  0
 61137  1  0  0  0
 62138  1  0  0  0
 62139  1  0  0  0
 62140  1  0  0  0
 63 65  1  0  0  0
 63141  1  0  0  0
 63142  1  0  0  0
 63143  1  0  0  0
 64144  1  0  0  0
 65145  1  0  0  0
 68 84  1  0  0  0
 71 73  1  0  0  0
 71146  1  0  0  0
 71147  1  0  0  0
 71148  1  0  0  0
 72149  1  0  0  0
 72150  1  0  0  0
 72151  1  0  0  0
 72 85  1  0  0  0
 73 82  1  0  0  0
 73152  1  0  0  0
 73153  1  0  0  0
 74 75  1  0  0  0
 74 76  1  0  0  0
 74154  1  0  0  0
 74155  1  0  0  0
 75 77  1  0  0  0
 75156  1  0  0  0
 75157  1  0  0  0
 76 78  1  0  0  0
 76158  1  0  0  0
 76159  1  0  0  0
 77 79  1  0  0  0
 77160  1  0  0  0
 77161  1  0  0  0
 78 80  1  0  0  0
 78162  1  0  0  0
 78163  1  0  0  0
 79 81  1  0  0  0
 79164  1  0  0  0
 79165  1  0  0  0
 80 84  1  0  0  0
 80166  1  0  0  0
 80167  1  0  0  0
 81 85  1  0  0  0
 81168  1  0  0  0
 81169  1  0  0  0
 82 86  1  0  0  0
 82170  1  0  0  0
 82171  1  0  0  0
 83 85  1  0  0  0
 83 86  1  0  0  0
 83172  1  0  0  0
 83173  1  0  0  0
 84174  1  0  0  0
 84175  1  0  0  0
 85176  1  0  0  0
M  ISO  4   1 100  68 101  84 101  86 100
M  END
> <chiral flag>
0

> <version>
0

> <s_m_source_file>
/data/baiqing/PycharmProjects/Reinvent-master-3.2/result/LINK_invent/BTK/process_docking_weight1_custom_sum_contain_oxygen_bond_distance_aromatic_linkinvent_7_9_3/rearranged_h_0046.sdf

> <i_m_source_file_index>
37

> <r_mmod_Potential_Energy-OPLS-2005>
238.911102294922

> <r_mmod_Stretch_Energy-OPLS-2005>
36.8329010009766

> <r_mmod_Bend_Energy-OPLS-2005>
100.537841796875

> <r_mmod_Torsional_Energy-OPLS-2005>
371.087799072266

> <r_mmod_Improper_Torsional_Energy-OPLS-2005>
25.5994491577148

> <r_mmod_Van_der_Waal_Energy-OPLS-2005>
123.524078369141

> <r_mmod_Electrostatic_Energy-OPLS-2005>
-272.614624023438

> <r_mmod_Solvation_Energy-OPLS-2005>
-170.508056640625

> <b_mmod_Minimization_Converged-OPLS-2005>
0

> <r_mmod_RMS_Derivative-OPLS-2005>
6.30937433242798

$$$$
38
                    3D
 Structure written by MMmdl.
159167  0  0  1  0            999 V2000
  -30.7155  -14.4541   20.5695 C   0  0  0  0  0  0
  -30.4264  -12.2940   19.4255 C   0  0  0  0  0  0
  -29.4977  -12.5040   18.2106 C   0  0  0  0  0  0
  -28.0193  -12.3656   18.6208 C   0  0  0  0  0  0
  -27.6651  -13.2056   19.8752 C   0  0  2  0  0  0
  -28.7083  -12.9822   20.9967 C   0  0  0  0  0  0
  -25.2608  -13.8149   20.5666 C   0  0  0  0  0  0
  -24.1861  -13.0440   20.9139 C   0  0  0  0  0  0
  -24.6410  -11.6890   20.8716 C   0  0  0  0  0  0
  -23.9079  -10.4288   21.0409 C   0  0  0  0  0  0
  -24.3625   -9.4200   21.9191 C   0  0  0  0  0  0
  -23.6291   -8.2246   22.0771 C   0  0  0  0  0  0
  -22.4277   -8.0292   21.3557 C   0  0  0  0  0  0
  -21.9913   -9.0269   20.4661 C   0  0  0  0  0  0
  -22.7252  -10.2137   20.3062 C   0  0  0  0  0  0
  -21.6852   -6.0730   22.5285 C   0  0  0  0  0  0
  -21.4013   -6.5633   23.8220 C   0  0  0  0  0  0
  -21.3656   -5.6789   24.9180 C   0  0  0  0  0  0
  -21.6056   -4.3061   24.7235 C   0  0  0  0  0  0
  -21.8821   -3.8144   23.4361 C   0  0  0  0  0  0
  -21.9190   -4.6953   22.3407 C   0  0  0  0  0  0
  -22.7883  -13.5224   21.1810 C   0  0  0  0  0  0
  -22.1664   -4.2134   21.0985 F   0  0  0  0  0  0
  -21.5624   -3.4546   25.7753 F   0  0  0  0  0  0
  -30.0464  -13.2752   20.4529 N   0  0  0  0  0  0
  -26.3049  -12.9326   20.3353 N   0  0  0  0  0  0
  -25.9340  -11.6486   20.5748 N   0  0  0  0  0  0
  -22.0529  -12.8239   22.0372 N   0  0  0  0  0  0
  -25.4309  -15.1897   20.4121 N   0  0  0  0  0  0
  -31.8330  -14.6461   20.0851 O   0  0  0  0  0  0
  -21.6643   -6.8891   21.4257 O   0  0  0  0  0  0
  -22.3562  -14.5525   20.6648 O   0  0  0  0  0  0
  -24.6198  -31.8677   23.2069 C   0  0  0  0  0  0
  -25.9076  -32.4813   23.8373 C   0  0  1  0  0  0
  -27.2488  -27.4219   20.0900 C   0  0  0  0  0  0
  -25.5923  -33.8612   24.2330 N   0  0  0  0  0  0
  -23.4071  -30.4875   21.5508 C   0  0  2  0  0  0
  -24.8531  -28.9462   20.1180 C   0  0  0  0  0  0
  -22.7466  -29.4636   22.5030 C   0  0  0  0  0  0
  -18.0288  -28.1330   22.8516 C   0  0  0  0  0  0
  -24.1499  -36.7288   23.2638 C   0  0  0  0  0  0
  -25.9375  -30.8273   21.3602 C   0  0  0  0  0  0
  -26.0139  -29.4588   20.7093 C   0  0  0  0  0  0
  -27.2114  -28.7061   20.6839 C   0  0  0  0  0  0
  -26.0668  -26.9218   19.4999 C   0  0  0  0  0  0
  -24.8740  -27.6761   19.5130 C   0  0  0  0  0  0
  -23.6145  -29.8158   20.1667 C   0  0  0  0  0  0
  -25.4121  -36.3091   24.0343 C   0  0  1  0  0  0
  -20.5893  -28.3629   23.1343 C   0  0  2  0  0  0
  -20.6782  -26.9351   22.5451 C   0  0  0  0  0  0
  -19.5723  -26.6355   21.5269 C   0  0  0  0  0  0
  -18.1897  -26.7882   22.1645 C   0  0  0  0  0  0
  -19.1541  -28.8801   23.2906 C   0  0  0  0  0  0
  -18.9447  -30.1419   23.8886 C   0  0  0  0  0  0
  -17.6443  -30.6533   24.0570 C   0  0  0  0  0  0
  -25.9049  -34.9456   23.5132 C   0  0  0  0  0  0
  -16.5343  -29.9037   23.6310 C   0  0  0  0  0  0
  -16.7278  -28.6457   23.0335 C   0  0  0  0  0  0
  -26.4490  -31.6579   25.0695 C   0  0  0  0  0  0
  -25.3750  -31.3654   26.1450 C   0  0  0  0  0  0
  -27.0326  -30.3020   24.6045 C   0  0  0  0  0  0
  -27.6061  -32.4336   25.7421 C   0  0  0  0  0  0
  -27.5578  -37.1789   24.8464 C   0  0  0  0  0  0
  -21.4191  -29.2999   22.3757 N   0  0  0  0  0  0
  -26.4300  -37.3771   23.9413 N   0  0  0  0  0  0
  -24.6724  -31.0773   22.0968 N   0  0  0  0  0  0
  -23.4252  -28.8216   23.3090 O   0  0  0  0  0  0
  -28.4432  -26.7171   20.0981 O   0  0  0  0  0  0
  -26.5605  -34.8889   22.4697 O   0  0  0  0  0  0
  -23.5395  -32.1475   23.7457 O   0  0  0  0  0  0
  -30.6513  -20.2192   21.1416 C   0  0  0  0  0  0
  -31.3582  -19.0720   21.4151 C   0  0  0  0  0  0
  -32.7101  -19.4489   21.1707 C   0  0  0  0  0  0
  -33.9478  -18.6017   21.3167 C   0  0  0  0  0  0
  -30.8760  -17.7103   21.8821 C   0  0  0  0  0  0
  -29.9057  -23.1578   20.4832 C   0  0  0  0  0  0
  -29.8209  -24.7007   20.2964 C   0  0  0  0  0  0
  -31.3616  -22.6154   20.4075 C   0  0  0  0  0  0
  -30.2288  -16.8941   20.7469 C   0  0  0  0  0  0
  -28.4138  -25.2812   19.9993 C   0  0  0  0  0  0
  -32.8184  -20.7136   20.7880 N   0  0  0  0  0  0
  -31.5562  -21.2046   20.7760 N   0  0  0  0  0  0
  -30.0019  -15.4765   21.0714 N   0  0  0  0  0  0
  -31.4737  -12.3834   19.1283 H   0  0  0  0  0  0
  -30.3190  -11.2805   19.8178 H   0  0  0  0  0  0
  -29.7377  -11.7879   17.4220 H   0  0  0  0  0  0
  -29.6679  -13.4941   17.7855 H   0  0  0  0  0  0
  -27.8265  -11.3100   18.8168 H   0  0  0  0  0  0
  -27.3760  -12.6447   17.7866 H   0  0  0  0  0  0
  -27.7116  -14.2526   19.5745 H   0  0  0  0  0  0
  -28.6757  -11.9442   21.3324 H   0  0  0  0  0  0
  -28.4758  -13.5846   21.8778 H   0  0  0  0  0  0
  -25.2785   -9.5668   22.4735 H   0  0  0  0  0  0
  -24.0007   -7.4642   22.7503 H   0  0  0  0  0  0
  -21.0830   -8.8800   19.8971 H   0  0  0  0  0  0
  -22.3737  -10.9673   19.6156 H   0  0  0  0  0  0
  -21.2005   -7.6142   23.9711 H   0  0  0  0  0  0
  -21.1473   -6.0525   25.9080 H   0  0  0  0  0  0
  -22.0596   -2.7605   23.2869 H   0  0  0  0  0  0
  -22.4157  -11.9894   22.4746 H   0  0  0  0  0  0
  -21.1157  -13.1282   22.2603 H   0  0  0  0  0  0
  -24.6646  -15.8447   20.5279 H   0  0  0  0  0  0
  -26.2862  -15.6363   20.1054 H   0  0  0  0  0  0
  -26.7161  -32.5514   23.1144 H   0  0  0  0  0  0
  -25.0136  -33.9773   25.0520 H   0  0  0  0  0  0
  -22.6910  -31.3002   21.4107 H   0  0  0  0  0  0
  -23.3757  -35.9611   23.3330 H   0  0  0  0  0  0
  -24.3588  -36.8892   22.2040 H   0  0  0  0  0  0
  -23.7247  -37.6501   23.6647 H   0  0  0  0  0  0
  -26.0542  -31.5929   20.5910 H   0  0  0  0  0  0
  -26.8260  -30.8802   21.9793 H   0  0  0  0  0  0
  -28.1128  -29.0994   21.1289 H   0  0  0  0  0  0
  -26.0573  -25.9567   19.0142 H   0  0  0  0  0  0
  -23.9823  -27.2762   19.0509 H   0  0  0  0  0  0
  -23.7155  -30.5879   19.4016 H   0  0  0  0  0  0
  -22.7390  -29.2327   19.8761 H   0  0  0  0  0  0
  -25.1297  -36.1951   25.0834 H   0  0  0  0  0  0
  -20.9970  -28.3192   24.1477 H   0  0  0  0  0  0
  -20.5742  -26.2220   23.3638 H   0  0  0  0  0  0
  -21.6633  -26.7413   22.1188 H   0  0  0  0  0  0
  -19.6862  -25.6303   21.1192 H   0  0  0  0  0  0
  -19.6610  -27.3270   20.6877 H   0  0  0  0  0  0
  -17.4197  -26.6722   21.3998 H   0  0  0  0  0  0
  -18.0185  -25.9983   22.8970 H   0  0  0  0  0  0
  -19.7932  -30.7244   24.2222 H   0  0  0  0  0  0
  -17.4985  -31.6197   24.5190 H   0  0  0  0  0  0
  -15.5328  -30.2913   23.7607 H   0  0  0  0  0  0
  -15.8694  -28.0769   22.7022 H   0  0  0  0  0  0
  -24.5926  -30.6986   25.7810 H   0  0  0  0  0  0
  -24.8908  -32.2781   26.4931 H   0  0  0  0  0  0
  -25.8112  -30.8806   27.0192 H   0  0  0  0  0  0
  -26.2824  -29.6734   24.1214 H   0  0  0  0  0  0
  -27.4260  -29.7293   25.4461 H   0  0  0  0  0  0
  -27.8591  -30.4385   23.9065 H   0  0  0  0  0  0
  -27.2685  -33.3666   26.1955 H   0  0  0  0  0  0
  -28.3838  -32.6885   25.0202 H   0  0  0  0  0  0
  -28.0753  -31.8488   26.5353 H   0  0  0  0  0  0
  -28.2612  -38.0078   24.7565 H   0  0  0  0  0  0
  -28.1053  -36.2614   24.6257 H   0  0  0  0  0  0
  -27.2281  -37.1438   25.8859 H   0  0  0  0  0  0
  -20.9376  -29.8702   21.6946 H   0  0  0  0  0  0
  -26.0180  -38.2829   24.1451 H   0  0  0  0  0  0
  -29.5890  -20.4139   21.1856 H   0  0  0  0  0  0
  -33.8827  -17.7024   20.7034 H   0  0  0  0  0  0
  -34.0728  -18.2707   22.3472 H   0  0  0  0  0  0
  -34.8571  -19.1349   21.0349 H   0  0  0  0  0  0
  -30.1543  -17.8187   22.6919 H   0  0  0  0  0  0
  -31.7110  -17.1450   22.3017 H   0  0  0  0  0  0
  -29.3063  -22.6609   19.7191 H   0  0  0  0  0  0
  -29.4563  -22.8905   21.4417 H   0  0  0  0  0  0
  -30.4821  -24.9997   19.4814 H   0  0  0  0  0  0
  -30.2149  -25.1747   21.1954 H   0  0  0  0  0  0
  -32.0114  -23.2176   21.0443 H   0  0  0  0  0  0
  -31.7407  -22.7469   19.3924 H   0  0  0  0  0  0
  -30.8391  -16.9752   19.8457 H   0  0  0  0  0  0
  -29.2675  -17.3370   20.4900 H   0  0  0  0  0  0
  -27.6866  -24.8713   20.7011 H   0  0  0  0  0  0
  -28.1109  -24.9713   18.9977 H   0  0  0  0  0  0
  -29.1156  -15.2325   21.4859 H   0  0  0  0  0  0
  1 25  1  0  0  0
  1 30  2  0  0  0
  1 83  1  0  0  0
  2  3  1  0  0  0
  2 25  1  0  0  0
  2 84  1  0  0  0
  2 85  1  0  0  0
  3  4  1  0  0  0
  3 86  1  0  0  0
  3 87  1  0  0  0
  4  5  1  0  0  0
  4 88  1  0  0  0
  4 89  1  0  0  0
  5  6  1  0  0  0
  5 26  1  0  0  0
  5 90  1  0  0  0
  6 25  1  0  0  0
  6 91  1  0  0  0
  6 92  1  0  0  0
  7  8  2  0  0  0
  7 26  1  0  0  0
  7 29  1  0  0  0
  8  9  1  0  0  0
  8 22  1  0  0  0
  9 10  1  0  0  0
  9 27  2  0  0  0
 10 11  2  0  0  0
 10 15  1  0  0  0
 11 12  1  0  0  0
 11 93  1  0  0  0
 12 13  2  0  0  0
 12 94  1  0  0  0
 13 14  1  0  0  0
 13 31  1  0  0  0
 14 15  2  0  0  0
 14 95  1  0  0  0
 15 96  1  0  0  0
 16 17  2  0  0  0
 16 21  1  0  0  0
 16 31  1  0  0  0
 17 18  1  0  0  0
 17 97  1  0  0  0
 18 19  2  0  0  0
 18 98  1  0  0  0
 19 20  1  0  0  0
 19 24  1  0  0  0
 20 21  2  0  0  0
 20 99  1  0  0  0
 21 23  1  0  0  0
 22 28  1  0  0  0
 22 32  2  0  0  0
 26 27  1  0  0  0
 28100  1  0  0  0
 28101  1  0  0  0
 29102  1  0  0  0
 29103  1  0  0  0
 33 34  1  0  0  0
 33 66  1  0  0  0
 33 70  2  0  0  0
 34 36  1  0  0  0
 34 59  1  0  0  0
 34104  1  0  0  0
 35 44  2  0  0  0
 35 45  1  0  0  0
 35 68  1  0  0  0
 36 56  1  0  0  0
 36105  1  0  0  0
 37 39  1  0  0  0
 37 47  1  0  0  0
 37 66  1  0  0  0
 37106  1  0  0  0
 38 43  2  0  0  0
 38 46  1  0  0  0
 38 47  1  0  0  0
 39 64  1  0  0  0
 39 67  2  0  0  0
 40 52  1  0  0  0
 40 53  2  0  0  0
 40 58  1  0  0  0
 41107  1  0  0  0
 41108  1  0  0  0
 41109  1  0  0  0
 41 48  1  0  0  0
 42 43  1  0  0  0
 42 66  1  0  0  0
 42110  1  0  0  0
 42111  1  0  0  0
 43 44  1  0  0  0
 44112  1  0  0  0
 45 46  2  0  0  0
 45113  1  0  0  0
 46114  1  0  0  0
 47115  1  0  0  0
 47116  1  0  0  0
 48 56  1  0  0  0
 48 65  1  0  0  0
 48117  1  0  0  0
 49 50  1  0  0  0
 49 53  1  0  0  0
 49 64  1  0  0  0
 49118  1  0  0  0
 50 51  1  0  0  0
 50119  1  0  0  0
 50120  1  0  0  0
 51 52  1  0  0  0
 51121  1  0  0  0
 51122  1  0  0  0
 52123  1  0  0  0
 52124  1  0  0  0
 53 54  1  0  0  0
 54 55  2  0  0  0
 54125  1  0  0  0
 55 57  1  0  0  0
 55126  1  0  0  0
 56 69  2  0  0  0
 57 58  2  0  0  0
 57127  1  0  0  0
 58128  1  0  0  0
 59 60  1  0  0  0
 59 61  1  0  0  0
 59 62  1  0  0  0
 60129  1  0  0  0
 60130  1  0  0  0
 60131  1  0  0  0
 61132  1  0  0  0
 61133  1  0  0  0
 61134  1  0  0  0
 62135  1  0  0  0
 62136  1  0  0  0
 62137  1  0  0  0
 63 65  1  0  0  0
 63138  1  0  0  0
 63139  1  0  0  0
 63140  1  0  0  0
 64141  1  0  0  0
 65142  1  0  0  0
 68 80  1  0  0  0
 71 72  2  0  0  0
 71 82  1  0  0  0
 71143  1  0  0  0
 72 73  1  0  0  0
 72 75  1  0  0  0
 73 74  1  0  0  0
 73 81  2  0  0  0
 74144  1  0  0  0
 74145  1  0  0  0
 74146  1  0  0  0
 75 79  1  0  0  0
 75147  1  0  0  0
 75148  1  0  0  0
 76 77  1  0  0  0
 76 78  1  0  0  0
 76149  1  0  0  0
 76150  1  0  0  0
 77 80  1  0  0  0
 77151  1  0  0  0
 77152  1  0  0  0
 78 82  1  0  0  0
 78153  1  0  0  0
 78154  1  0  0  0
 79 83  1  0  0  0
 79155  1  0  0  0
 79156  1  0  0  0
 80157  1  0  0  0
 80158  1  0  0  0
 81 82  1  0  0  0
 83159  1  0  0  0
M  ISO  4   1 100  68 101  80 101  83 100
M  END
> <chiral flag>
0

> <version>
0

> <s_m_source_file>
/data/baiqing/PycharmProjects/Reinvent-master-3.2/result/LINK_invent/BTK/process_docking_weight1_custom_sum_contain_oxygen_bond_distance_aromatic_linkinvent_7_9_3/rearranged_h_0046.sdf

> <i_m_source_file_index>
38

> <r_mmod_Potential_Energy-OPLS-2005>
-150.376876831055

> <r_mmod_Stretch_Energy-OPLS-2005>
37.17236328125

> <r_mmod_Bend_Energy-OPLS-2005>
96.9078903198242

> <r_mmod_Torsional_Energy-OPLS-2005>
214.252593994141

> <r_mmod_Improper_Torsional_Energy-OPLS-2005>
5.13188695907593

> <r_mmod_Van_der_Waal_Energy-OPLS-2005>
124.758071899414

> <r_mmod_Electrostatic_Energy-OPLS-2005>
-413.42333984375

> <r_mmod_Solvation_Energy-OPLS-2005>
-227.494720458984

> <b_mmod_Minimization_Converged-OPLS-2005>
0

> <r_mmod_RMS_Derivative-OPLS-2005>
4.05327749252319

$$$$
39
                    3D
 Structure written by MMmdl.
166174  0  0  1  0            999 V2000
  -30.7557  -14.4082   20.6253 C   0  0  0  0  0  0
  -30.4121  -12.2943   19.4010 C   0  0  0  0  0  0
  -29.4830  -12.5109   18.1919 C   0  0  0  0  0  0
  -28.0088  -12.3596   18.6113 C   0  0  0  0  0  0
  -27.6601  -13.1963   19.8691 C   0  0  2  0  0  0
  -28.7036  -12.9718   20.9880 C   0  0  0  0  0  0
  -25.2598  -13.8135   20.5674 C   0  0  0  0  0  0
  -24.1832  -13.0420   20.9151 C   0  0  0  0  0  0
  -24.6375  -11.6892   20.8724 C   0  0  0  0  0  0
  -23.9038  -10.4286   21.0399 C   0  0  0  0  0  0
  -24.3599   -9.4206   21.9178 C   0  0  0  0  0  0
  -23.6279   -8.2247   22.0756 C   0  0  0  0  0  0
  -22.4267   -8.0269   21.3541 C   0  0  0  0  0  0
  -21.9892   -9.0244   20.4645 C   0  0  0  0  0  0
  -22.7217  -10.2123   20.3049 C   0  0  0  0  0  0
  -21.6846   -6.0728   22.5280 C   0  0  0  0  0  0
  -21.4008   -6.5633   23.8206 C   0  0  0  0  0  0
  -21.3660   -5.6791   24.9168 C   0  0  0  0  0  0
  -21.6046   -4.3055   24.7227 C   0  0  0  0  0  0
  -21.8819   -3.8142   23.4350 C   0  0  0  0  0  0
  -21.9190   -4.6959   22.3402 C   0  0  0  0  0  0
  -22.7868  -13.5243   21.1837 C   0  0  0  0  0  0
  -22.1658   -4.2143   21.0986 F   0  0  0  0  0  0
  -21.5636   -3.4542   25.7741 F   0  0  0  0  0  0
  -30.0369  -13.2682   20.4376 N   0  0  0  0  0  0
  -26.3012  -12.9288   20.3345 N   0  0  0  0  0  0
  -25.9297  -11.6455   20.5755 N   0  0  0  0  0  0
  -22.0506  -12.8230   22.0385 N   0  0  0  0  0  0
  -25.4308  -15.1852   20.4108 N   0  0  0  0  0  0
  -31.8554  -14.5985   20.0947 O   0  0  0  0  0  0
  -21.6629   -6.8873   21.4240 O   0  0  0  0  0  0
  -22.3552  -14.5555   20.6702 O   0  0  0  0  0  0
  -24.6108  -31.8708   23.2139 C   0  0  0  0  0  0
  -25.9008  -32.4846   23.8429 C   0  0  1  0  0  0
  -27.2354  -27.4739   20.0926 C   0  0  0  0  0  0
  -25.5861  -33.8644   24.2354 N   0  0  0  0  0  0
  -23.3999  -30.4948   21.5534 C   0  0  2  0  0  0
  -24.8467  -28.9657   20.1144 C   0  0  0  0  0  0
  -22.7405  -29.4680   22.5019 C   0  0  0  0  0  0
  -18.0271  -28.1394   22.8513 C   0  0  0  0  0  0
  -24.1478  -36.7334   23.2642 C   0  0  0  0  0  0
  -25.9226  -30.8470   21.3625 C   0  0  0  0  0  0
  -26.0013  -29.4805   20.7190 C   0  0  0  0  0  0
  -27.1985  -28.7349   20.7188 C   0  0  0  0  0  0
  -26.0776  -26.9745   19.4623 C   0  0  0  0  0  0
  -24.8754  -27.7069   19.4864 C   0  0  0  0  0  0
  -23.6067  -29.8273   20.1674 C   0  0  0  0  0  0
  -25.4097  -36.3130   24.0346 C   0  0  1  0  0  0
  -20.5859  -28.3676   23.1331 C   0  0  2  0  0  0
  -20.6765  -26.9421   22.5423 C   0  0  0  0  0  0
  -19.5744  -26.6407   21.5223 C   0  0  0  0  0  0
  -18.1917  -26.7948   22.1622 C   0  0  0  0  0  0
  -19.1520  -28.8851   23.2916 C   0  0  0  0  0  0
  -18.9447  -30.1450   23.8942 C   0  0  0  0  0  0
  -17.6448  -30.6599   24.0573 C   0  0  0  0  0  0
  -25.9021  -34.9491   23.5156 C   0  0  0  0  0  0
  -16.5343  -29.9109   23.6324 C   0  0  0  0  0  0
  -16.7258  -28.6512   23.0369 C   0  0  0  0  0  0
  -26.4428  -31.6615   25.0749 C   0  0  0  0  0  0
  -25.3697  -31.3674   26.1497 C   0  0  0  0  0  0
  -27.0242  -30.3078   24.6070 C   0  0  0  0  0  0
  -27.6052  -32.4307   25.7465 C   0  0  0  0  0  0
  -27.5572  -37.1817   24.8460 C   0  0  0  0  0  0
  -21.4138  -29.3040   22.3741 N   0  0  0  0  0  0
  -26.4291  -37.3806   23.9398 N   0  0  0  0  0  0
  -24.6629  -31.0834   22.1029 N   0  0  0  0  0  0
  -23.4175  -28.8240   23.3081 O   0  0  0  0  0  0
  -28.3880  -26.7318   20.0805 O   0  0  0  0  0  0
  -26.5593  -34.8928   22.4724 O   0  0  0  0  0  0
  -23.5315  -32.1457   23.7546 O   0  0  0  0  0  0
  -28.2689  -20.3282   19.5282 C   0  0  0  0  0  0
  -27.9201  -19.0259   19.9552 C   0  0  0  0  0  0
  -26.8601  -19.9135   21.8021 C   0  0  0  0  0  0
  -27.2224  -21.2260   21.3865 C   0  0  0  0  0  0
  -26.0551  -19.6300   23.0570 C   0  0  0  0  0  0
  -31.1204  -15.8945   22.4949 C   0  0  0  0  0  0
  -28.2685  -17.7984   19.1284 C   0  0  0  0  0  0
  -26.7757  -22.4738   22.1491 C   0  0  0  0  0  0
  -29.4325  -16.9396   19.6687 C   0  0  0  0  0  0
  -27.8074  -23.6179   22.2289 C   0  0  0  0  0  0
  -27.5980  -24.6642   21.1241 C   0  0  0  0  0  0
  -29.1808  -16.2677   21.0457 C   0  0  0  0  0  0
  -28.5364  -25.8799   21.2161 C   0  0  0  0  0  0
  -27.9068  -21.4285   20.2312 N   0  0  0  0  0  0
  -27.2060  -18.8192   21.0856 N   0  0  0  0  0  0
  -30.2403  -15.3294   21.4712 N   0  0  0  0  0  0
  -31.4561  -12.3812   19.0948 H   0  0  0  0  0  0
  -30.3032  -11.2798   19.7872 H   0  0  0  0  0  0
  -29.7200  -11.7979   17.4009 H   0  0  0  0  0  0
  -29.6465  -13.5029   17.7687 H   0  0  0  0  0  0
  -27.8266  -11.3032   18.8089 H   0  0  0  0  0  0
  -27.3507  -12.6315   17.7849 H   0  0  0  0  0  0
  -27.7013  -14.2373   19.5549 H   0  0  0  0  0  0
  -28.6781  -11.9357   21.3279 H   0  0  0  0  0  0
  -28.4657  -13.5674   21.8693 H   0  0  0  0  0  0
  -25.2743   -9.5692   22.4750 H   0  0  0  0  0  0
  -23.9988   -7.4643   22.7480 H   0  0  0  0  0  0
  -21.0826   -8.8759   19.8954 H   0  0  0  0  0  0
  -22.3671  -10.9661   19.6159 H   0  0  0  0  0  0
  -21.1994   -7.6138   23.9710 H   0  0  0  0  0  0
  -21.1482   -6.0519   25.9072 H   0  0  0  0  0  0
  -22.0598   -2.7607   23.2853 H   0  0  0  0  0  0
  -22.4116  -11.9876   22.4754 H   0  0  0  0  0  0
  -21.1128  -13.1271   22.2608 H   0  0  0  0  0  0
  -24.6724  -15.8433   20.5501 H   0  0  0  0  0  0
  -26.3013  -15.6351   20.1624 H   0  0  0  0  0  0
  -26.7106  -32.5578   23.1235 H   0  0  0  0  0  0
  -24.9988  -33.9810   25.0474 H   0  0  0  0  0  0
  -22.6890  -31.3119   21.4149 H   0  0  0  0  0  0
  -23.3747  -35.9656   23.3295 H   0  0  0  0  0  0
  -24.3584  -36.8968   22.2060 H   0  0  0  0  0  0
  -23.7224  -37.6530   23.6670 H   0  0  0  0  0  0
  -26.0209  -31.6089   20.5869 H   0  0  0  0  0  0
  -26.8169  -30.9117   21.9704 H   0  0  0  0  0  0
  -28.0891  -29.1210   21.1941 H   0  0  0  0  0  0
  -26.1075  -26.0137   18.9675 H   0  0  0  0  0  0
  -23.9887  -27.3108   19.0085 H   0  0  0  0  0  0
  -23.7057  -30.5999   19.4042 H   0  0  0  0  0  0
  -22.7331  -29.2404   19.8803 H   0  0  0  0  0  0
  -25.1271  -36.2004   25.0841 H   0  0  0  0  0  0
  -20.9941  -28.3260   24.1452 H   0  0  0  0  0  0
  -20.5694  -26.2296   23.3614 H   0  0  0  0  0  0
  -21.6636  -26.7483   22.1206 H   0  0  0  0  0  0
  -19.6919  -25.6324   21.1245 H   0  0  0  0  0  0
  -19.6691  -27.3230   20.6769 H   0  0  0  0  0  0
  -17.4192  -26.6727   21.4008 H   0  0  0  0  0  0
  -18.0287  -26.0076   22.9001 H   0  0  0  0  0  0
  -19.7917  -30.7251   24.2355 H   0  0  0  0  0  0
  -17.4997  -31.6289   24.5167 H   0  0  0  0  0  0
  -15.5339  -30.3017   23.7634 H   0  0  0  0  0  0
  -15.8655  -28.0832   22.7095 H   0  0  0  0  0  0
  -24.5886  -30.7016   25.7806 H   0  0  0  0  0  0
  -24.8847  -32.2788   26.4989 H   0  0  0  0  0  0
  -25.8044  -30.8799   27.0231 H   0  0  0  0  0  0
  -26.2776  -29.6858   24.1129 H   0  0  0  0  0  0
  -27.4051  -29.7279   25.4479 H   0  0  0  0  0  0
  -27.8574  -30.4427   23.9182 H   0  0  0  0  0  0
  -27.2760  -33.3638   26.2037 H   0  0  0  0  0  0
  -28.3826  -32.6812   25.0240 H   0  0  0  0  0  0
  -28.0746  -31.8419   26.5350 H   0  0  0  0  0  0
  -28.2601  -38.0104   24.7510 H   0  0  0  0  0  0
  -28.1060  -36.2640   24.6287 H   0  0  0  0  0  0
  -27.2289  -37.1472   25.8863 H   0  0  0  0  0  0
  -20.9326  -29.8702   21.6891 H   0  0  0  0  0  0
  -26.0190  -38.2882   24.1413 H   0  0  0  0  0  0
  -28.8189  -20.4899   18.6119 H   0  0  0  0  0  0
  -26.7210  -19.5727   23.9189 H   0  0  0  0  0  0
  -25.5156  -18.6850   22.9754 H   0  0  0  0  0  0
  -25.3098  -20.4024   23.2422 H   0  0  0  0  0  0
  -30.5454  -16.2615   23.3457 H   0  0  0  0  0  0
  -31.7018  -16.7221   22.0861 H   0  0  0  0  0  0
  -31.8206  -15.1489   22.8775 H   0  0  0  0  0  0
  -28.5163  -18.1278   18.1175 H   0  0  0  0  0  0
  -27.3729  -17.1877   19.0186 H   0  0  0  0  0  0
  -26.5627  -22.1930   23.1777 H   0  0  0  0  0  0
  -25.8284  -22.8211   21.7359 H   0  0  0  0  0  0
  -30.3394  -17.5456   19.7182 H   0  0  0  0  0  0
  -29.6244  -16.1778   18.9118 H   0  0  0  0  0  0
  -28.8243  -23.2252   22.2339 H   0  0  0  0  0  0
  -27.6753  -24.1241   23.1871 H   0  0  0  0  0  0
  -26.5662  -25.0095   21.1846 H   0  0  0  0  0  0
  -27.7141  -24.1963   20.1471 H   0  0  0  0  0  0
  -28.2217  -15.7588   21.0461 H   0  0  0  0  0  0
  -29.0690  -17.0491   21.7977 H   0  0  0  0  0  0
  -29.5720  -25.5419   21.2520 H   0  0  0  0  0  0
  -28.3584  -26.4346   22.1406 H   0  0  0  0  0  0
  1 25  1  0  0  0
  1 30  2  0  0  0
  1 86  1  0  0  0
  2  3  1  0  0  0
  2 25  1  0  0  0
  2 87  1  0  0  0
  2 88  1  0  0  0
  3  4  1  0  0  0
  3 89  1  0  0  0
  3 90  1  0  0  0
  4  5  1  0  0  0
  4 91  1  0  0  0
  4 92  1  0  0  0
  5  6  1  0  0  0
  5 26  1  0  0  0
  5 93  1  0  0  0
  6 25  1  0  0  0
  6 94  1  0  0  0
  6 95  1  0  0  0
  7  8  2  0  0  0
  7 26  1  0  0  0
  7 29  1  0  0  0
  8  9  1  0  0  0
  8 22  1  0  0  0
  9 10  1  0  0  0
  9 27  2  0  0  0
 10 11  2  0  0  0
 10 15  1  0  0  0
 11 12  1  0  0  0
 11 96  1  0  0  0
 12 13  2  0  0  0
 12 97  1  0  0  0
 13 14  1  0  0  0
 13 31  1  0  0  0
 14 15  2  0  0  0
 14 98  1  0  0  0
 15 99  1  0  0  0
 16 17  2  0  0  0
 16 21  1  0  0  0
 16 31  1  0  0  0
 17 18  1  0  0  0
 17100  1  0  0  0
 18 19  2  0  0  0
 18101  1  0  0  0
 19 20  1  0  0  0
 19 24  1  0  0  0
 20 21  2  0  0  0
 20102  1  0  0  0
 21 23  1  0  0  0
 22 28  1  0  0  0
 22 32  2  0  0  0
 26 27  1  0  0  0
 28103  1  0  0  0
 28104  1  0  0  0
 29105  1  0  0  0
 29106  1  0  0  0
 33 34  1  0  0  0
 33 66  1  0  0  0
 33 70  2  0  0  0
 34 36  1  0  0  0
 34 59  1  0  0  0
 34107  1  0  0  0
 35 44  2  0  0  0
 35 45  1  0  0  0
 35 68  1  0  0  0
 36 56  1  0  0  0
 36108  1  0  0  0
 37 39  1  0  0  0
 37 47  1  0  0  0
 37 66  1  0  0  0
 37109  1  0  0  0
 38 43  2  0  0  0
 38 46  1  0  0  0
 38 47  1  0  0  0
 39 64  1  0  0  0
 39 67  2  0  0  0
 40 52  1  0  0  0
 40 53  2  0  0  0
 40 58  1  0  0  0
 41110  1  0  0  0
 41111  1  0  0  0
 41112  1  0  0  0
 41 48  1  0  0  0
 42 43  1  0  0  0
 42 66  1  0  0  0
 42113  1  0  0  0
 42114  1  0  0  0
 43 44  1  0  0  0
 44115  1  0  0  0
 45 46  2  0  0  0
 45116  1  0  0  0
 46117  1  0  0  0
 47118  1  0  0  0
 47119  1  0  0  0
 48 56  1  0  0  0
 48 65  1  0  0  0
 48120  1  0  0  0
 49 50  1  0  0  0
 49 53  1  0  0  0
 49 64  1  0  0  0
 49121  1  0  0  0
 50 51  1  0  0  0
 50122  1  0  0  0
 50123  1  0  0  0
 51 52  1  0  0  0
 51124  1  0  0  0
 51125  1  0  0  0
 52126  1  0  0  0
 52127  1  0  0  0
 53 54  1  0  0  0
 54 55  2  0  0  0
 54128  1  0  0  0
 55 57  1  0  0  0
 55129  1  0  0  0
 56 69  2  0  0  0
 57 58  2  0  0  0
 57130  1  0  0  0
 58131  1  0  0  0
 59 60  1  0  0  0
 59 61  1  0  0  0
 59 62  1  0  0  0
 60132  1  0  0  0
 60133  1  0  0  0
 60134  1  0  0  0
 61135  1  0  0  0
 61136  1  0  0  0
 61137  1  0  0  0
 62138  1  0  0  0
 62139  1  0  0  0
 62140  1  0  0  0
 63 65  1  0  0  0
 63141  1  0  0  0
 63142  1  0  0  0
 63143  1  0  0  0
 64144  1  0  0  0
 65145  1  0  0  0
 68 83  1  0  0  0
 71 72  2  0  0  0
 71 84  1  0  0  0
 71146  1  0  0  0
 72 77  1  0  0  0
 72 85  1  0  0  0
 73 74  1  0  0  0
 73 75  1  0  0  0
 73 85  2  0  0  0
 74 78  1  0  0  0
 74 84  2  0  0  0
 75147  1  0  0  0
 75148  1  0  0  0
 75149  1  0  0  0
 76 86  1  0  0  0
 76150  1  0  0  0
 76151  1  0  0  0
 76152  1  0  0  0
 77 79  1  0  0  0
 77153  1  0  0  0
 77154  1  0  0  0
 78 80  1  0  0  0
 78155  1  0  0  0
 78156  1  0  0  0
 79 82  1  0  0  0
 79157  1  0  0  0
 79158  1  0  0  0
 80 81  1  0  0  0
 80159  1  0  0  0
 80160  1  0  0  0
 81 83  1  0  0  0
 81161  1  0  0  0
 81162  1  0  0  0
 82 86  1  0  0  0
 82163  1  0  0  0
 82164  1  0  0  0
 83165  1  0  0  0
 83166  1  0  0  0
M  ISO  4   1 100  68 101  83 101  86 100
M  END
> <chiral flag>
0

> <version>
0

> <s_m_source_file>
/data/baiqing/PycharmProjects/Reinvent-master-3.2/result/LINK_invent/BTK/process_docking_weight1_custom_sum_contain_oxygen_bond_distance_aromatic_linkinvent_7_9_3/rearranged_h_0046.sdf

> <i_m_source_file_index>
39

> <r_mmod_Potential_Energy-OPLS-2005>
148.186050415039

> <r_mmod_Stretch_Energy-OPLS-2005>
35.7821617126465

> <r_mmod_Bend_Energy-OPLS-2005>
98.1006393432617

> <r_mmod_Torsional_Energy-OPLS-2005>
289.380615234375

> <r_mmod_Improper_Torsional_Energy-OPLS-2005>
4.32044219970703

> <r_mmod_Van_der_Waal_Energy-OPLS-2005>
157.386123657227

> <r_mmod_Electrostatic_Energy-OPLS-2005>
-245.253341674805

> <r_mmod_Solvation_Energy-OPLS-2005>
-200.546295166016

> <b_mmod_Minimization_Converged-OPLS-2005>
0

> <r_mmod_RMS_Derivative-OPLS-2005>
2.51662087440491

$$$$
40
                    3D
 Structure written by MMmdl.
160168  0  0  1  0            999 V2000
  -30.6825  -14.4849   20.5763 C   0  0  0  0  0  0
  -30.4408  -12.3226   19.4130 C   0  0  0  0  0  0
  -29.4977  -12.5051   18.2045 C   0  0  0  0  0  0
  -28.0209  -12.3639   18.6216 C   0  0  0  0  0  0
  -27.6683  -13.2014   19.8793 C   0  0  2  0  0  0
  -28.7125  -12.9716   20.9952 C   0  0  0  0  0  0
  -25.2646  -13.8169   20.5688 C   0  0  0  0  0  0
  -24.1876  -13.0460   20.9161 C   0  0  0  0  0  0
  -24.6410  -11.6913   20.8725 C   0  0  0  0  0  0
  -23.9078  -10.4305   21.0415 C   0  0  0  0  0  0
  -24.3634   -9.4210   21.9182 C   0  0  0  0  0  0
  -23.6296   -8.2258   22.0772 C   0  0  0  0  0  0
  -22.4277   -8.0289   21.3565 C   0  0  0  0  0  0
  -21.9925   -9.0262   20.4663 C   0  0  0  0  0  0
  -22.7255  -10.2134   20.3069 C   0  0  0  0  0  0
  -21.6830   -6.0730   22.5278 C   0  0  0  0  0  0
  -21.3982   -6.5636   23.8205 C   0  0  0  0  0  0
  -21.3672   -5.6798   24.9176 C   0  0  0  0  0  0
  -21.6058   -4.3059   24.7230 C   0  0  0  0  0  0
  -21.8814   -3.8139   23.4352 C   0  0  0  0  0  0
  -21.9186   -4.6960   22.3402 C   0  0  0  0  0  0
  -22.7899  -13.5265   21.1796 C   0  0  0  0  0  0
  -22.1657   -4.2149   21.0980 F   0  0  0  0  0  0
  -21.5666   -3.4550   25.7750 F   0  0  0  0  0  0
  -30.0419  -13.2922   20.4448 N   0  0  0  0  0  0
  -26.3074  -12.9309   20.3394 N   0  0  0  0  0  0
  -25.9336  -11.6483   20.5759 N   0  0  0  0  0  0
  -22.0529  -12.8274   22.0346 N   0  0  0  0  0  0
  -25.4431  -15.1890   20.4093 N   0  0  0  0  0  0
  -31.8006  -14.7060   20.1018 O   0  0  0  0  0  0
  -21.6625   -6.8889   21.4252 O   0  0  0  0  0  0
  -22.3581  -14.5558   20.6615 O   0  0  0  0  0  0
  -24.6142  -31.8682   23.2107 C   0  0  0  0  0  0
  -25.9025  -32.4834   23.8412 C   0  0  1  0  0  0
  -27.2316  -27.4376   20.0977 C   0  0  0  0  0  0
  -25.5877  -33.8632   24.2350 N   0  0  0  0  0  0
  -23.4049  -30.4907   21.5504 C   0  0  2  0  0  0
  -24.8532  -28.9605   20.1098 C   0  0  0  0  0  0
  -22.7431  -29.4657   22.4991 C   0  0  0  0  0  0
  -18.0277  -28.1378   22.8492 C   0  0  0  0  0  0
  -24.1478  -36.7320   23.2643 C   0  0  0  0  0  0
  -25.9330  -30.8365   21.3624 C   0  0  0  0  0  0
  -26.0134  -29.4722   20.7064 C   0  0  0  0  0  0
  -27.2110  -28.7184   20.6961 C   0  0  0  0  0  0
  -26.0607  -26.9438   19.4878 C   0  0  0  0  0  0
  -24.8717  -27.6965   19.4946 C   0  0  0  0  0  0
  -23.6131  -29.8239   20.1643 C   0  0  0  0  0  0
  -25.4101  -36.3132   24.0353 C   0  0  1  0  0  0
  -20.5870  -28.3667   23.1315 C   0  0  2  0  0  0
  -20.6770  -26.9402   22.5418 C   0  0  0  0  0  0
  -19.5745  -26.6383   21.5216 C   0  0  0  0  0  0
  -18.1921  -26.7926   22.1623 C   0  0  0  0  0  0
  -19.1528  -28.8844   23.2895 C   0  0  0  0  0  0
  -18.9451  -30.1452   23.8901 C   0  0  0  0  0  0
  -17.6453  -30.6585   24.0564 C   0  0  0  0  0  0
  -25.9024  -34.9489   23.5152 C   0  0  0  0  0  0
  -16.5345  -29.9083   23.6328 C   0  0  0  0  0  0
  -16.7267  -28.6504   23.0346 C   0  0  0  0  0  0
  -26.4449  -31.6608   25.0736 C   0  0  0  0  0  0
  -25.3716  -31.3690   26.1488 C   0  0  0  0  0  0
  -27.0279  -30.3066   24.6085 C   0  0  0  0  0  0
  -27.6050  -32.4312   25.7472 C   0  0  0  0  0  0
  -27.5588  -37.1814   24.8472 C   0  0  0  0  0  0
  -21.4159  -29.3030   22.3726 N   0  0  0  0  0  0
  -26.4303  -37.3810   23.9410 N   0  0  0  0  0  0
  -24.6691  -31.0789   22.0999 N   0  0  0  0  0  0
  -23.4201  -28.8199   23.3036 O   0  0  0  0  0  0
  -28.3493  -26.6345   20.1346 O   0  0  0  0  0  0
  -26.5594  -34.8941   22.4720 O   0  0  0  0  0  0
  -23.5332  -32.1423   23.7498 O   0  0  0  0  0  0
  -28.2429  -19.8821   20.9539 C   0  0  0  0  0  0
  -29.2279  -19.2004   20.2181 C   0  0  0  0  0  0
  -30.0871  -20.0267   19.4612 C   0  0  0  0  0  0
  -28.8900  -21.8996   20.0769 C   0  0  0  0  0  0
  -32.5935  -19.7407   19.3750 C   0  0  0  0  0  0
  -29.2259  -17.6608   20.1792 C   0  0  0  0  0  0
  -31.2620  -19.4943   18.6576 C   0  0  0  0  0  0
  -28.5618  -23.3845   19.8547 C   0  0  0  0  0  0
  -29.1051  -24.3545   20.9310 C   0  0  0  0  0  0
  -30.2024  -16.9190   21.1259 C   0  0  0  0  0  0
  -28.2475  -25.6257   21.1555 C   0  0  0  0  0  0
  -28.0769  -21.2189   20.8771 N   0  0  0  0  0  0
  -29.9098  -21.3683   19.4064 N   0  0  0  0  0  0
  -29.9388  -15.4677   21.1180 N   0  0  0  0  0  0
  -31.4764  -12.4597   19.0979 H   0  0  0  0  0  0
  -30.3818  -11.3070   19.8073 H   0  0  0  0  0  0
  -29.7392  -11.7829   17.4234 H   0  0  0  0  0  0
  -29.6551  -13.4903   17.7649 H   0  0  0  0  0  0
  -27.8285  -11.3076   18.8120 H   0  0  0  0  0  0
  -27.3738  -12.6477   17.7914 H   0  0  0  0  0  0
  -27.7158  -14.2504   19.5857 H   0  0  0  0  0  0
  -28.6981  -11.9320   21.3232 H   0  0  0  0  0  0
  -28.4719  -13.5549   21.8842 H   0  0  0  0  0  0
  -25.2794   -9.5669   22.4737 H   0  0  0  0  0  0
  -23.9994   -7.4652   22.7498 H   0  0  0  0  0  0
  -21.0865   -8.8774   19.8967 H   0  0  0  0  0  0
  -22.3719  -10.9671   19.6170 H   0  0  0  0  0  0
  -21.1920   -7.6130   23.9697 H   0  0  0  0  0  0
  -21.1528   -6.0535   25.9082 H   0  0  0  0  0  0
  -22.0582   -2.7602   23.2844 H   0  0  0  0  0  0
  -22.4109  -11.9921   22.4737 H   0  0  0  0  0  0
  -21.1155  -13.1328   22.2543 H   0  0  0  0  0  0
  -24.6862  -15.8560   20.5116 H   0  0  0  0  0  0
  -26.3007  -15.6127   20.0822 H   0  0  0  0  0  0
  -26.7098  -32.5552   23.1181 H   0  0  0  0  0  0
  -25.0019  -33.9780   25.0491 H   0  0  0  0  0  0
  -22.6940  -31.3075   21.4116 H   0  0  0  0  0  0
  -23.3754  -35.9640   23.3317 H   0  0  0  0  0  0
  -24.3577  -36.8918   22.2056 H   0  0  0  0  0  0
  -23.7207  -37.6525   23.6637 H   0  0  0  0  0  0
  -26.0419  -31.6035   20.5948 H   0  0  0  0  0  0
  -26.8222  -30.8917   21.9789 H   0  0  0  0  0  0
  -28.1070  -29.1054   21.1617 H   0  0  0  0  0  0
  -26.0658  -25.9664   19.0267 H   0  0  0  0  0  0
  -23.9793  -27.2980   19.0315 H   0  0  0  0  0  0
  -23.7182  -30.5994   19.4042 H   0  0  0  0  0  0
  -22.7383  -29.2415   19.8702 H   0  0  0  0  0  0
  -25.1269  -36.2022   25.0851 H   0  0  0  0  0  0
  -20.9950  -28.3223   24.1439 H   0  0  0  0  0  0
  -20.5681  -26.2269   23.3599 H   0  0  0  0  0  0
  -21.6636  -26.7443   22.1203 H   0  0  0  0  0  0
  -19.6903  -25.6295   21.1239 H   0  0  0  0  0  0
  -19.6686  -27.3204   20.6751 H   0  0  0  0  0  0
  -17.4194  -26.6683   21.4020 H   0  0  0  0  0  0
  -18.0314  -26.0064   22.9012 H   0  0  0  0  0  0
  -19.7927  -30.7273   24.2265 H   0  0  0  0  0  0
  -17.5004  -31.6265   24.5159 H   0  0  0  0  0  0
  -15.5346  -30.2981   23.7654 H   0  0  0  0  0  0
  -15.8667  -28.0828   22.7047 H   0  0  0  0  0  0
  -24.5886  -30.7046   25.7813 H   0  0  0  0  0  0
  -24.8897  -32.2827   26.4980 H   0  0  0  0  0  0
  -25.8067  -30.8824   27.0224 H   0  0  0  0  0  0
  -26.2816  -29.6836   24.1145 H   0  0  0  0  0  0
  -27.4081  -29.7295   25.4520 H   0  0  0  0  0  0
  -27.8633  -30.4424   23.9213 H   0  0  0  0  0  0
  -27.2711  -33.3610   26.2088 H   0  0  0  0  0  0
  -28.3822  -32.6870   25.0259 H   0  0  0  0  0  0
  -28.0757  -31.8406   26.5341 H   0  0  0  0  0  0
  -28.2622  -38.0098   24.7530 H   0  0  0  0  0  0
  -28.1067  -36.2636   24.6286 H   0  0  0  0  0  0
  -27.2307  -37.1460   25.8876 H   0  0  0  0  0  0
  -20.9334  -29.8738   21.6926 H   0  0  0  0  0  0
  -26.0207  -38.2901   24.1406 H   0  0  0  0  0  0
  -27.5395  -19.3392   21.5674 H   0  0  0  0  0  0
  -33.4258  -19.3512   18.7908 H   0  0  0  0  0  0
  -32.6040  -19.2599   20.3528 H   0  0  0  0  0  0
  -32.7623  -20.8072   19.5241 H   0  0  0  0  0  0
  -29.3783  -17.3224   19.1545 H   0  0  0  0  0  0
  -28.2091  -17.3430   20.4178 H   0  0  0  0  0  0
  -31.2766  -19.9915   17.6875 H   0  0  0  0  0  0
  -31.1522  -18.4326   18.4444 H   0  0  0  0  0  0
  -27.4757  -23.4716   19.8065 H   0  0  0  0  0  0
  -28.9169  -23.7030   18.8749 H   0  0  0  0  0  0
  -30.1462  -24.6077   20.7338 H   0  0  0  0  0  0
  -29.1083  -23.8168   21.8800 H   0  0  0  0  0  0
  -30.0602  -17.2715   22.1482 H   0  0  0  0  0  0
  -31.2384  -17.1361   20.8610 H   0  0  0  0  0  0
  -28.5548  -26.0945   22.0917 H   0  0  0  0  0  0
  -27.2108  -25.3184   21.3165 H   0  0  0  0  0  0
  -29.0397  -15.1732   21.4703 H   0  0  0  0  0  0
  1 25  1  0  0  0
  1 30  2  0  0  0
  1 84  1  0  0  0
  2  3  1  0  0  0
  2 25  1  0  0  0
  2 85  1  0  0  0
  2 86  1  0  0  0
  3  4  1  0  0  0
  3 87  1  0  0  0
  3 88  1  0  0  0
  4  5  1  0  0  0
  4 89  1  0  0  0
  4 90  1  0  0  0
  5  6  1  0  0  0
  5 26  1  0  0  0
  5 91  1  0  0  0
  6 25  1  0  0  0
  6 92  1  0  0  0
  6 93  1  0  0  0
  7  8  2  0  0  0
  7 26  1  0  0  0
  7 29  1  0  0  0
  8  9  1  0  0  0
  8 22  1  0  0  0
  9 10  1  0  0  0
  9 27  2  0  0  0
 10 11  2  0  0  0
 10 15  1  0  0  0
 11 12  1  0  0  0
 11 94  1  0  0  0
 12 13  2  0  0  0
 12 95  1  0  0  0
 13 14  1  0  0  0
 13 31  1  0  0  0
 14 15  2  0  0  0
 14 96  1  0  0  0
 15 97  1  0  0  0
 16 17  2  0  0  0
 16 21  1  0  0  0
 16 31  1  0  0  0
 17 18  1  0  0  0
 17 98  1  0  0  0
 18 19  2  0  0  0
 18 99  1  0  0  0
 19 20  1  0  0  0
 19 24  1  0  0  0
 20 21  2  0  0  0
 20100  1  0  0  0
 21 23  1  0  0  0
 22 28  1  0  0  0
 22 32  2  0  0  0
 26 27  1  0  0  0
 28101  1  0  0  0
 28102  1  0  0  0
 29103  1  0  0  0
 29104  1  0  0  0
 33 34  1  0  0  0
 33 66  1  0  0  0
 33 70  2  0  0  0
 34 36  1  0  0  0
 34 59  1  0  0  0
 34105  1  0  0  0
 35 44  2  0  0  0
 35 45  1  0  0  0
 35 68  1  0  0  0
 36 56  1  0  0  0
 36106  1  0  0  0
 37 39  1  0  0  0
 37 47  1  0  0  0
 37 66  1  0  0  0
 37107  1  0  0  0
 38 43  2  0  0  0
 38 46  1  0  0  0
 38 47  1  0  0  0
 39 64  1  0  0  0
 39 67  2  0  0  0
 40 52  1  0  0  0
 40 53  2  0  0  0
 40 58  1  0  0  0
 41108  1  0  0  0
 41109  1  0  0  0
 41110  1  0  0  0
 41 48  1  0  0  0
 42 43  1  0  0  0
 42 66  1  0  0  0
 42111  1  0  0  0
 42112  1  0  0  0
 43 44  1  0  0  0
 44113  1  0  0  0
 45 46  2  0  0  0
 45114  1  0  0  0
 46115  1  0  0  0
 47116  1  0  0  0
 47117  1  0  0  0
 48 56  1  0  0  0
 48 65  1  0  0  0
 48118  1  0  0  0
 49 50  1  0  0  0
 49 53  1  0  0  0
 49 64  1  0  0  0
 49119  1  0  0  0
 50 51  1  0  0  0
 50120  1  0  0  0
 50121  1  0  0  0
 51 52  1  0  0  0
 51122  1  0  0  0
 51123  1  0  0  0
 52124  1  0  0  0
 52125  1  0  0  0
 53 54  1  0  0  0
 54 55  2  0  0  0
 54126  1  0  0  0
 55 57  1  0  0  0
 55127  1  0  0  0
 56 69  2  0  0  0
 57 58  2  0  0  0
 57128  1  0  0  0
 58129  1  0  0  0
 59 60  1  0  0  0
 59 61  1  0  0  0
 59 62  1  0  0  0
 60130  1  0  0  0
 60131  1  0  0  0
 60132  1  0  0  0
 61133  1  0  0  0
 61134  1  0  0  0
 61135  1  0  0  0
 62136  1  0  0  0
 62137  1  0  0  0
 62138  1  0  0  0
 63 65  1  0  0  0
 63139  1  0  0  0
 63140  1  0  0  0
 63141  1  0  0  0
 64142  1  0  0  0
 65143  1  0  0  0
 68 81  1  0  0  0
 71 72  2  0  0  0
 71 82  1  0  0  0
 71144  1  0  0  0
 72 73  1  0  0  0
 72 76  1  0  0  0
 73 77  1  0  0  0
 73 83  2  0  0  0
 74 78  1  0  0  0
 74 82  2  0  0  0
 74 83  1  0  0  0
 75 77  1  0  0  0
 75145  1  0  0  0
 75146  1  0  0  0
 75147  1  0  0  0
 76 80  1  0  0  0
 76148  1  0  0  0
 76149  1  0  0  0
 77150  1  0  0  0
 77151  1  0  0  0
 78 79  1  0  0  0
 78152  1  0  0  0
 78153  1  0  0  0
 79 81  1  0  0  0
 79154  1  0  0  0
 79155  1  0  0  0
 80 84  1  0  0  0
 80156  1  0  0  0
 80157  1  0  0  0
 81158  1  0  0  0
 81159  1  0  0  0
 84160  1  0  0  0
M  ISO  4   1 100  68 101  81 101  84 100
M  END
> <chiral flag>
0

> <version>
0

> <s_m_source_file>
/data/baiqing/PycharmProjects/Reinvent-master-3.2/result/LINK_invent/BTK/process_docking_weight1_custom_sum_contain_oxygen_bond_distance_aromatic_linkinvent_7_9_3/rearranged_h_0046.sdf

> <i_m_source_file_index>
40

> <r_mmod_Potential_Energy-OPLS-2005>
-571.610290527344

> <r_mmod_Stretch_Energy-OPLS-2005>
36.7183647155762

> <r_mmod_Bend_Energy-OPLS-2005>
100.405563354492

> <r_mmod_Torsional_Energy-OPLS-2005>
211.448089599609

> <r_mmod_Improper_Torsional_Energy-OPLS-2005>
4.42184114456177

> <r_mmod_Van_der_Waal_Energy-OPLS-2005>
150.180450439453

> <r_mmod_Electrostatic_Energy-OPLS-2005>
-860.015014648438

> <r_mmod_Solvation_Energy-OPLS-2005>
-229.532028198242

> <b_mmod_Minimization_Converged-OPLS-2005>
0

> <r_mmod_RMS_Derivative-OPLS-2005>
2.28629755973816

$$$$
41
                    3D
 Structure written by MMmdl.
159167  0  0  1  0            999 V2000
  -29.3084  -15.8706   20.7047 C   0  0  0  0  0  0
  -30.2361  -13.4111   19.7003 C   0  0  0  0  0  0
  -29.5283  -12.7885   18.4412 C   0  0  0  0  0  0
  -28.1202  -12.2770   18.7924 C   0  0  0  0  0  0
  -27.4863  -13.2362   19.8152 C   0  0  2  0  0  0
  -28.3502  -13.4840   21.0412 C   0  0  0  0  0  0
  -25.1825  -13.8052   20.5578 C   0  0  0  0  0  0
  -24.1307  -13.0300   20.9334 C   0  0  0  0  0  0
  -24.5938  -11.6774   20.8807 C   0  0  0  0  0  0
  -23.8787  -10.4189   21.0505 C   0  0  0  0  0  0
  -24.3472   -9.4146   21.9240 C   0  0  0  0  0  0
  -23.6220   -8.2149   22.0761 C   0  0  0  0  0  0
  -22.4207   -8.0184   21.3538 C   0  0  0  0  0  0
  -21.9783   -9.0133   20.4649 C   0  0  0  0  0  0
  -22.7029  -10.2036   20.3100 C   0  0  0  0  0  0
  -21.6821   -6.0688   22.5290 C   0  0  0  0  0  0
  -21.3988   -6.5613   23.8218 C   0  0  0  0  0  0
  -21.3649   -5.6775   24.9185 C   0  0  0  0  0  0
  -21.6047   -4.3039   24.7236 C   0  0  0  0  0  0
  -21.8826   -3.8120   23.4360 C   0  0  0  0  0  0
  -21.9184   -4.6927   22.3413 C   0  0  0  0  0  0
  -22.7428  -13.5155   21.2030 C   0  0  0  0  0  0
  -22.1662   -4.2118   21.0991 F   0  0  0  0  0  0
  -21.5633   -3.4531   25.7754 F   0  0  0  0  0  0
  -29.3151  -14.3978   20.5003 N   0  0  0  0  0  0
  -26.1840  -12.9078   20.2637 N   0  0  0  0  0  0
  -25.8706  -11.6276   20.5430 N   0  0  0  0  0  0
  -22.0115  -12.8174   22.0612 N   0  0  0  0  0  0
  -25.3675  -15.1801   20.3996 N   0  0  0  0  0  0
  -30.5539  -16.0900   20.5341 O   0  0  0  0  0  0
  -21.6588   -6.8789   21.4234 O   0  0  0  0  0  0
  -22.3214  -14.5505   20.6873 O   0  0  0  0  0  0
  -24.6746  -31.9270   23.2041 C   0  0  0  0  0  0
  -25.9537  -32.5071   23.8542 C   0  0  1  0  0  0
  -26.9451  -27.2826   20.2577 C   0  0  0  0  0  0
  -25.6318  -33.8799   24.2521 N   0  0  0  0  0  0
  -23.4938  -30.6196   21.5302 C   0  0  2  0  0  0
  -24.8506  -29.0818   20.0338 C   0  0  0  0  0  0
  -22.9809  -29.5622   22.4935 C   0  0  0  0  0  0
  -18.4354  -27.2765   23.2684 C   0  0  0  0  0  0
  -24.1503  -36.7359   23.2614 C   0  0  0  0  0  0
  -26.0107  -30.8499   21.3704 C   0  0  0  0  0  0
  -26.0166  -29.4806   20.7059 C   0  0  0  0  0  0
  -27.0979  -28.5734   20.8233 C   0  0  0  0  0  0
  -25.8970  -27.0094   19.3730 C   0  0  0  0  0  0
  -24.8013  -27.8696   19.3309 C   0  0  0  0  0  0
  -23.6674  -30.0121   20.1147 C   0  0  0  0  0  0
  -25.4122  -36.3215   24.0338 C   0  0  1  0  0  0
  -21.2514  -28.0893   22.7936 C   0  0  2  0  0  0
  -21.6857  -27.0310   20.9909 C   0  0  0  0  0  0
  -20.0459  -25.5819   20.6438 C   0  0  0  0  0  0
  -18.6335  -25.7698   22.1836 C   0  0  0  0  0  0
  -19.6153  -28.2564   23.5632 C   0  0  0  0  0  0
  -19.2419  -29.6190   23.9636 C   0  0  0  0  0  0
  -17.9257  -30.1505   24.0130 C   0  0  0  0  0  0
  -25.9128  -34.9612   23.5148 C   0  0  0  0  0  0
  -16.8627  -29.3231   23.6246 C   0  0  0  0  0  0
  -17.1299  -27.9598   23.2634 C   0  0  0  0  0  0
  -26.4614  -31.6651   25.0845 C   0  0  0  0  0  0
  -25.3722  -31.3770   26.1442 C   0  0  0  0  0  0
  -27.0357  -30.3075   24.6166 C   0  0  0  0  0  0
  -27.6183  -32.4222   25.7729 C   0  0  0  0  0  0
  -27.5597  -37.1884   24.8473 C   0  0  0  0  0  0
  -21.6861  -29.3980   22.4730 N   0  0  0  0  0  0
  -26.4302  -37.3899   23.9427 N   0  0  0  0  0  0
  -24.7494  -31.1720   22.0757 N   0  0  0  0  0  0
  -23.7301  -28.8982   23.2139 O   0  0  0  0  0  0
  -27.4844  -26.1707   20.8388 O   0  0  0  0  0  0
  -26.5534  -34.9035   22.4611 O   0  0  0  0  0  0
  -23.5864  -32.1903   23.7419 O   0  0  0  0  0  0
  -23.6726  -24.8242   22.4460 C   0  0  0  0  0  0
  -23.2799  -23.4662   22.2254 C   0  0  0  0  0  0
  -21.1322  -25.6100   22.6598 C   0  0  0  0  0  0
  -19.5795  -27.6594   21.2336 C   0  0  0  0  0  0
  -20.7870  -22.9625   22.2664 C   0  0  0  0  0  0
  -25.1006  -25.5878   22.3103 C   0  0  0  0  0  0
  -24.3600  -21.6784   22.1673 C   0  0  0  0  0  0
  -25.7251  -20.2219   21.3034 C   0  0  0  0  0  0
  -27.1535  -18.5967   21.5611 C   0  0  0  0  0  0
  -26.3950  -25.1900   21.3576 C   0  0  0  0  0  0
  -22.5368  -25.6734   23.0173 N   0  0  0  0  0  0
  -21.7134  -24.0901   22.3583 N   0  0  0  0  0  0
  -28.0245  -16.9370   20.9651 N   0  0  0  0  0  0
  -31.1225  -13.9518   19.3698 H   0  0  0  0  0  0
  -30.6217  -12.6220   20.3502 H   0  0  0  0  0  0
  -30.1344  -11.9944   18.0050 H   0  0  0  0  0  0
  -29.4387  -13.5619   17.6770 H   0  0  0  0  0  0
  -28.2052  -11.2790   19.2261 H   0  0  0  0  0  0
  -27.5018  -12.1817   17.8982 H   0  0  0  0  0  0
  -27.3604  -14.1624   19.2502 H   0  0  0  0  0  0
  -28.7537  -12.5678   21.4766 H   0  0  0  0  0  0
  -27.7953  -13.9868   21.8352 H   0  0  0  0  0  0
  -25.2618   -9.5666   22.4799 H   0  0  0  0  0  0
  -23.9960   -7.4532   22.7452 H   0  0  0  0  0  0
  -21.0728   -8.8614   19.8951 H   0  0  0  0  0  0
  -22.3484  -10.9582   19.6222 H   0  0  0  0  0  0
  -21.1976   -7.6122   23.9707 H   0  0  0  0  0  0
  -21.1470   -6.0512   25.9086 H   0  0  0  0  0  0
  -22.0619   -2.7583   23.2868 H   0  0  0  0  0  0
  -22.3730  -11.9817   22.4965 H   0  0  0  0  0  0
  -21.0755  -13.1219   22.2875 H   0  0  0  0  0  0
  -24.5155  -15.7301   20.4416 H   0  0  0  0  0  0
  -25.9439  -15.4662   19.6173 H   0  0  0  0  0  0
  -26.7701  -32.5716   23.1390 H   0  0  0  0  0  0
  -25.0606  -33.9923   25.0769 H   0  0  0  0  0  0
  -22.7584  -31.4224   21.4580 H   0  0  0  0  0  0
  -23.3797  -35.9665   23.3279 H   0  0  0  0  0  0
  -24.3618  -36.8961   22.2036 H   0  0  0  0  0  0
  -23.7218  -37.6549   23.6602 H   0  0  0  0  0  0
  -26.1777  -31.6061   20.6016 H   0  0  0  0  0  0
  -26.8873  -30.8682   22.0065 H   0  0  0  0  0  0
  -27.9171  -28.7839   21.4972 H   0  0  0  0  0  0
  -25.7994  -26.0460   18.8925 H   0  0  0  0  0  0
  -23.9171  -27.5880   18.7744 H   0  0  0  0  0  0
  -23.8512  -30.8316   19.4190 H   0  0  0  0  0  0
  -22.7543  -29.5430   19.7572 H   0  0  0  0  0  0
  -25.1281  -36.2084   25.0828 H   0  0  0  0  0  0
  -21.7827  -27.7723   23.6921 H   0  0  0  0  0  0
  -22.6918  -26.6303   20.8640 H   0  0  0  0  0  0
  -21.7452  -27.7193   20.1457 H   0  0  0  0  0  0
  -20.3511  -24.5759   20.3979 H   0  0  0  0  0  0
  -19.5705  -25.7828   19.6763 H   0  0  0  0  0  0
  -17.6575  -25.6023   21.7257 H   0  0  0  0  0  0
  -18.7079  -24.9409   22.8765 H   0  0  0  0  0  0
  -20.0318  -30.3354   24.1499 H   0  0  0  0  0  0
  -17.7533  -31.1829   24.2815 H   0  0  0  0  0  0
  -15.8534  -29.7133   23.5796 H   0  0  0  0  0  0
  -16.2890  -27.3878   22.8938 H   0  0  0  0  0  0
  -24.5857  -30.7249   25.7619 H   0  0  0  0  0  0
  -24.8984  -32.2948   26.4930 H   0  0  0  0  0  0
  -25.7918  -30.8798   27.0193 H   0  0  0  0  0  0
  -26.2922  -29.6968   24.1032 H   0  0  0  0  0  0
  -27.3928  -29.7180   25.4618 H   0  0  0  0  0  0
  -27.8868  -30.4369   23.9474 H   0  0  0  0  0  0
  -27.2849  -33.3507   26.2355 H   0  0  0  0  0  0
  -28.4054  -32.6762   25.0626 H   0  0  0  0  0  0
  -28.0745  -31.8245   26.5620 H   0  0  0  0  0  0
  -28.2613  -38.0188   24.7549 H   0  0  0  0  0  0
  -28.1101  -36.2725   24.6261 H   0  0  0  0  0  0
  -27.2323  -37.1491   25.8879 H   0  0  0  0  0  0
  -21.1021  -30.0111   21.9233 H   0  0  0  0  0  0
  -26.0193  -38.2969   24.1457 H   0  0  0  0  0  0
  -19.6899  -28.7499   21.3206 H   0  0  0  0  0  0
  -18.5063  -27.6070   20.9830 H   0  0  0  0  0  0
  -19.7228  -27.7848   20.1431 H   0  0  0  0  0  0
  -21.1819  -22.1086   22.8212 H   0  0  0  0  0  0
  -19.8182  -23.1844   22.6929 H   0  0  0  0  0  0
  -20.6812  -22.6505   21.2263 H   0  0  0  0  0  0
  -25.4891  -25.7121   23.3213 H   0  0  0  0  0  0
  -24.8462  -26.6095   22.0265 H   0  0  0  0  0  0
  -23.5668  -20.9837   22.4435 H   0  0  0  0  0  0
  -24.9030  -21.8052   23.1035 H   0  0  0  0  0  0
  -26.3993  -20.9182   20.7999 H   0  0  0  0  0  0
  -25.1155  -19.8382   20.4823 H   0  0  0  0  0  0
  -26.7542  -18.1854   22.4901 H   0  0  0  0  0  0
  -28.0320  -19.1422   21.9019 H   0  0  0  0  0  0
  -26.0052  -24.6310   20.5066 H   0  0  0  0  0  0
  -26.9410  -24.4189   21.9026 H   0  0  0  0  0  0
  -27.2371  -16.2977   20.9075 H   0  0  0  0  0  0
  1 25  1  0  0  0
  1 30  2  0  0  0
  1 83  1  0  0  0
  2  3  1  0  0  0
  2 25  1  0  0  0
  2 84  1  0  0  0
  2 85  1  0  0  0
  3  4  1  0  0  0
  3 86  1  0  0  0
  3 87  1  0  0  0
  4  5  1  0  0  0
  4 88  1  0  0  0
  4 89  1  0  0  0
  5  6  1  0  0  0
  5 26  1  0  0  0
  5 90  1  0  0  0
  6 25  1  0  0  0
  6 91  1  0  0  0
  6 92  1  0  0  0
  7  8  2  0  0  0
  7 26  1  0  0  0
  7 29  1  0  0  0
  8  9  1  0  0  0
  8 22  1  0  0  0
  9 10  1  0  0  0
  9 27  2  0  0  0
 10 11  2  0  0  0
 10 15  1  0  0  0
 11 12  1  0  0  0
 11 93  1  0  0  0
 12 13  2  0  0  0
 12 94  1  0  0  0
 13 14  1  0  0  0
 13 31  1  0  0  0
 14 15  2  0  0  0
 14 95  1  0  0  0
 15 96  1  0  0  0
 16 17  2  0  0  0
 16 21  1  0  0  0
 16 31  1  0  0  0
 17 18  1  0  0  0
 17 97  1  0  0  0
 18 19  2  0  0  0
 18 98  1  0  0  0
 19 20  1  0  0  0
 19 24  1  0  0  0
 20 21  2  0  0  0
 20 99  1  0  0  0
 21 23  1  0  0  0
 22 28  1  0  0  0
 22 32  2  0  0  0
 26 27  1  0  0  0
 28100  1  0  0  0
 28101  1  0  0  0
 29102  1  0  0  0
 29103  1  0  0  0
 33 34  1  0  0  0
 33 66  1  0  0  0
 33 70  2  0  0  0
 34 36  1  0  0  0
 34 59  1  0  0  0
 34104  1  0  0  0
 35 44  2  0  0  0
 35 45  1  0  0  0
 35 68  1  0  0  0
 36 56  1  0  0  0
 36105  1  0  0  0
 37 39  1  0  0  0
 37 47  1  0  0  0
 37 66  1  0  0  0
 37106  1  0  0  0
 38 43  2  0  0  0
 38 46  1  0  0  0
 38 47  1  0  0  0
 39 64  1  0  0  0
 39 67  2  0  0  0
 40 52  1  0  0  0
 40 53  2  0  0  0
 40 58  1  0  0  0
 41107  1  0  0  0
 41108  1  0  0  0
 41109  1  0  0  0
 41 48  1  0  0  0
 42 43  1  0  0  0
 42 66  1  0  0  0
 42110  1  0  0  0
 42111  1  0  0  0
 43 44  1  0  0  0
 44112  1  0  0  0
 45 46  2  0  0  0
 45113  1  0  0  0
 46114  1  0  0  0
 47115  1  0  0  0
 47116  1  0  0  0
 48 56  1  0  0  0
 48 65  1  0  0  0
 48117  1  0  0  0
 49 50  1  0  0  0
 49 53  1  0  0  0
 49 64  1  0  0  0
 49118  1  0  0  0
 50 51  1  0  0  0
 50119  1  0  0  0
 50120  1  0  0  0
 51 52  1  0  0  0
 51121  1  0  0  0
 51122  1  0  0  0
 52123  1  0  0  0
 52124  1  0  0  0
 53 54  1  0  0  0
 54 55  2  0  0  0
 54125  1  0  0  0
 55 57  1  0  0  0
 55126  1  0  0  0
 56 69  2  0  0  0
 57 58  2  0  0  0
 57127  1  0  0  0
 58128  1  0  0  0
 59 60  1  0  0  0
 59 61  1  0  0  0
 59 62  1  0  0  0
 60129  1  0  0  0
 60130  1  0  0  0
 60131  1  0  0  0
 61132  1  0  0  0
 61133  1  0  0  0
 61134  1  0  0  0
 62135  1  0  0  0
 62136  1  0  0  0
 62137  1  0  0  0
 63 65  1  0  0  0
 63138  1  0  0  0
 63139  1  0  0  0
 63140  1  0  0  0
 64141  1  0  0  0
 65142  1  0  0  0
 68 80  1  0  0  0
 71 72  2  0  0  0
 71 76  1  0  0  0
 71 81  1  0  0  0
 72 77  1  0  0  0
 72 82  1  0  0  0
 73 74  1  0  0  0
 73 81  2  0  0  0
 73 82  1  0  0  0
 74143  1  0  0  0
 74144  1  0  0  0
 74145  1  0  0  0
 75 82  1  0  0  0
 75146  1  0  0  0
 75147  1  0  0  0
 75148  1  0  0  0
 76 80  1  0  0  0
 76149  1  0  0  0
 76150  1  0  0  0
 77 78  1  0  0  0
 77151  1  0  0  0
 77152  1  0  0  0
 78 79  1  0  0  0
 78153  1  0  0  0
 78154  1  0  0  0
 79 83  1  0  0  0
 79155  1  0  0  0
 79156  1  0  0  0
 80157  1  0  0  0
 80158  1  0  0  0
 83159  1  0  0  0
M  ISO  4   1 100  68 101  80 101  83 100
M  END
> <chiral flag>
0

> <version>
0

> <s_m_source_file>
/data/baiqing/PycharmProjects/Reinvent-master-3.2/result/LINK_invent/BTK/process_docking_weight1_custom_sum_contain_oxygen_bond_distance_aromatic_linkinvent_7_9_3/rearranged_h_0046.sdf

> <i_m_source_file_index>
41

> <r_mmod_Potential_Energy-OPLS-2005>
12740.634765625

> <r_mmod_Stretch_Energy-OPLS-2005>
6894.05517578125

> <r_mmod_Bend_Energy-OPLS-2005>
1450.91162109375

> <r_mmod_Torsional_Energy-OPLS-2005>
485.581939697266

> <r_mmod_Improper_Torsional_Energy-OPLS-2005>
50.9735450744629

> <r_mmod_Van_der_Waal_Energy-OPLS-2005>
1893.89147949219

> <r_mmod_Electrostatic_Energy-OPLS-2005>
-400.41357421875

> <r_mmod_Solvation_Energy-OPLS-2005>
-231.372100830078

> <b_mmod_Minimization_Converged-OPLS-2005>
0

> <r_mmod_RMS_Derivative-OPLS-2005>
7.37291717529297

$$$$
42
                    3D
 Structure written by MMmdl.
176184  0  0  1  0            999 V2000
  -30.7360  -14.4384   20.6547 C   0  0  0  0  0  0
  -30.4213  -12.3157   19.4167 C   0  0  0  0  0  0
  -29.4857  -12.5032   18.2051 C   0  0  0  0  0  0
  -28.0095  -12.3376   18.6190 C   0  0  0  0  0  0
  -27.6539  -13.1814   19.8645 C   0  0  2  0  0  0
  -28.6994  -12.9575   20.9879 C   0  0  0  0  0  0
  -25.2591  -13.8108   20.5672 C   0  0  0  0  0  0
  -24.1843  -13.0418   20.9197 C   0  0  0  0  0  0
  -24.6367  -11.6871   20.8756 C   0  0  0  0  0  0
  -23.9039  -10.4266   21.0419 C   0  0  0  0  0  0
  -24.3603   -9.4195   21.9197 C   0  0  0  0  0  0
  -23.6305   -8.2218   22.0750 C   0  0  0  0  0  0
  -22.4265   -8.0273   21.3559 C   0  0  0  0  0  0
  -21.9902   -9.0240   20.4656 C   0  0  0  0  0  0
  -22.7215  -10.2118   20.3084 C   0  0  0  0  0  0
  -21.6862   -6.0750   22.5290 C   0  0  0  0  0  0
  -21.4018   -6.5657   23.8222 C   0  0  0  0  0  0
  -21.3673   -5.6801   24.9175 C   0  0  0  0  0  0
  -21.6044   -4.3061   24.7221 C   0  0  0  0  0  0
  -21.8831   -3.8161   23.4342 C   0  0  0  0  0  0
  -21.9186   -4.6978   22.3405 C   0  0  0  0  0  0
  -22.7866  -13.5203   21.1840 C   0  0  0  0  0  0
  -22.1656   -4.2172   21.0980 F   0  0  0  0  0  0
  -21.5620   -3.4547   25.7742 F   0  0  0  0  0  0
  -30.0320  -13.2864   20.4545 N   0  0  0  0  0  0
  -26.2975  -12.9216   20.3314 N   0  0  0  0  0  0
  -25.9275  -11.6397   20.5774 N   0  0  0  0  0  0
  -22.0526  -12.8192   22.0405 N   0  0  0  0  0  0
  -25.4323  -15.1804   20.4013 N   0  0  0  0  0  0
  -31.8129  -14.6500   20.0803 O   0  0  0  0  0  0
  -21.6635   -6.8874   21.4246 O   0  0  0  0  0  0
  -22.3548  -14.5510   20.6682 O   0  0  0  0  0  0
  -24.6130  -31.8695   23.2158 C   0  0  0  0  0  0
  -25.9040  -32.4823   23.8417 C   0  0  1  0  0  0
  -27.2314  -27.4608   20.0768 C   0  0  0  0  0  0
  -25.5890  -33.8625   24.2355 N   0  0  0  0  0  0
  -23.3985  -30.4915   21.5590 C   0  0  2  0  0  0
  -24.8411  -28.9593   20.1199 C   0  0  0  0  0  0
  -22.7388  -29.4670   22.5069 C   0  0  0  0  0  0
  -18.0271  -28.1373   22.8505 C   0  0  0  0  0  0
  -24.1479  -36.7313   23.2640 C   0  0  0  0  0  0
  -25.9216  -30.8405   21.3575 C   0  0  0  0  0  0
  -26.0011  -29.4752   20.7088 C   0  0  0  0  0  0
  -27.2020  -28.7352   20.6853 C   0  0  0  0  0  0
  -26.0546  -26.9494   19.4880 C   0  0  0  0  0  0
  -24.8611  -27.6939   19.5055 C   0  0  0  0  0  0
  -23.6029  -29.8257   20.1715 C   0  0  0  0  0  0
  -25.4104  -36.3101   24.0333 C   0  0  1  0  0  0
  -20.5846  -28.3644   23.1370 C   0  0  2  0  0  0
  -20.6785  -26.9401   22.5433 C   0  0  0  0  0  0
  -19.5749  -26.6387   21.5236 C   0  0  0  0  0  0
  -18.1917  -26.7912   22.1641 C   0  0  0  0  0  0
  -19.1516  -28.8837   23.2924 C   0  0  0  0  0  0
  -18.9442  -30.1448   23.8908 C   0  0  0  0  0  0
  -17.6446  -30.6577   24.0565 C   0  0  0  0  0  0
  -25.9012  -34.9470   23.5123 C   0  0  0  0  0  0
  -16.5338  -29.9082   23.6354 C   0  0  0  0  0  0
  -16.7267  -28.6516   23.0368 C   0  0  0  0  0  0
  -26.4463  -31.6560   25.0721 C   0  0  0  0  0  0
  -25.3720  -31.3606   26.1467 C   0  0  0  0  0  0
  -27.0260  -30.3046   24.5958 C   0  0  0  0  0  0
  -27.6032  -32.4264   25.7478 C   0  0  0  0  0  0
  -27.5575  -37.1808   24.8478 C   0  0  0  0  0  0
  -21.4126  -29.3009   22.3798 N   0  0  0  0  0  0
  -26.4290  -37.3795   23.9410 N   0  0  0  0  0  0
  -24.6633  -31.0800   22.1034 N   0  0  0  0  0  0
  -23.4171  -28.8229   23.3122 O   0  0  0  0  0  0
  -28.4064  -26.7473   20.0661 O   0  0  0  0  0  0
  -26.5570  -34.8901   22.4688 O   0  0  0  0  0  0
  -23.5352  -32.1462   23.7564 O   0  0  0  0  0  0
  -27.9902  -20.5229   19.8992 C   0  0  0  0  0  0
  -28.0333  -21.7198   19.1567 C   0  0  0  0  0  0
  -28.0906  -19.2769   19.2546 C   0  0  0  0  0  0
  -28.2105  -21.6080   17.7538 C   0  0  0  0  0  0
  -28.2439  -19.2740   17.8511 C   0  0  0  0  0  0
  -28.2504  -22.7886   16.8021 C   0  0  0  0  0  0
  -26.9608  -17.7760   16.2589 C   0  0  0  0  0  0
  -31.8359  -16.9377   24.7991 C   0  0  0  0  0  0
  -27.7839  -23.0160   19.9411 C   0  0  0  0  0  0
  -27.9525  -18.0047   20.0826 C   0  0  0  0  0  0
  -28.2743  -18.0005   17.0175 C   0  0  0  0  0  0
  -30.7455  -16.4418   23.8388 C   0  0  0  0  0  0
  -29.2880  -17.2986   20.3929 C   0  0  0  0  0  0
  -28.3890  -24.3508   19.4560 C   0  0  0  0  0  0
  -31.2951  -15.9595   22.4769 C   0  0  0  0  0  0
  -29.0818  -16.1242   21.3703 C   0  0  0  0  0  0
  -28.3090  -25.4127   20.5662 C   0  0  0  0  0  0
  -28.3238  -20.4143   17.1370 N   0  0  0  0  0  0
  -30.2923  -15.3041   21.6080 N   0  0  0  0  0  0
  -31.4605  -12.4227   19.1055 H   0  0  0  0  0  0
  -30.3450  -11.3025   19.8128 H   0  0  0  0  0  0
  -29.7331  -11.7790   17.4301 H   0  0  0  0  0  0
  -29.6377  -13.4926   17.7685 H   0  0  0  0  0  0
  -27.8252  -11.2806   18.8237 H   0  0  0  0  0  0
  -27.3567  -12.6046   17.7870 H   0  0  0  0  0  0
  -27.6827  -14.2077   19.5114 H   0  0  0  0  0  0
  -28.6860  -11.9121   21.2960 H   0  0  0  0  0  0
  -28.4471  -13.5156   21.8898 H   0  0  0  0  0  0
  -25.2735   -9.5686   22.4774 H   0  0  0  0  0  0
  -24.0065   -7.4593   22.7433 H   0  0  0  0  0  0
  -21.0869   -8.8743   19.8928 H   0  0  0  0  0  0
  -22.3682  -10.9678   19.6220 H   0  0  0  0  0  0
  -21.2026   -7.6168   23.9734 H   0  0  0  0  0  0
  -21.1482   -6.0524   25.9076 H   0  0  0  0  0  0
  -22.0595   -2.7629   23.2827 H   0  0  0  0  0  0
  -22.4151  -11.9901   22.4883 H   0  0  0  0  0  0
  -21.1177  -13.1241   22.2646 H   0  0  0  0  0  0
  -24.6626  -15.8328   20.4980 H   0  0  0  0  0  0
  -26.2806  -15.6033   20.0544 H   0  0  0  0  0  0
  -26.7101  -32.5536   23.1150 H   0  0  0  0  0  0
  -25.0041  -33.9827   25.0498 H   0  0  0  0  0  0
  -22.6858  -31.3091   21.4242 H   0  0  0  0  0  0
  -23.3716  -35.9667   23.3329 H   0  0  0  0  0  0
  -24.3595  -36.8947   22.2056 H   0  0  0  0  0  0
  -23.7247  -37.6521   23.6679 H   0  0  0  0  0  0
  -26.0169  -31.6002   20.5814 H   0  0  0  0  0  0
  -26.8195  -30.9064   21.9597 H   0  0  0  0  0  0
  -28.1019  -29.1288   21.1407 H   0  0  0  0  0  0
  -26.0509  -25.9836   19.0069 H   0  0  0  0  0  0
  -23.9664  -27.2868   19.0505 H   0  0  0  0  0  0
  -23.7063  -30.6064   19.4136 H   0  0  0  0  0  0
  -22.7250  -29.2477   19.8788 H   0  0  0  0  0  0
  -25.1266  -36.1947   25.0823 H   0  0  0  0  0  0
  -20.9934  -28.3173   24.1495 H   0  0  0  0  0  0
  -20.5737  -26.2214   23.3581 H   0  0  0  0  0  0
  -21.6650  -26.7504   22.1165 H   0  0  0  0  0  0
  -19.6911  -25.6315   21.1243 H   0  0  0  0  0  0
  -19.6693  -27.3227   20.6781 H   0  0  0  0  0  0
  -17.4208  -26.6715   21.4035 H   0  0  0  0  0  0
  -18.0309  -26.0023   22.8997 H   0  0  0  0  0  0
  -19.7917  -30.7287   24.2250 H   0  0  0  0  0  0
  -17.5004  -31.6266   24.5161 H   0  0  0  0  0  0
  -15.5354  -30.2982   23.7673 H   0  0  0  0  0  0
  -15.8671  -28.0841   22.7072 H   0  0  0  0  0  0
  -24.5934  -30.6909   25.7812 H   0  0  0  0  0  0
  -24.8810  -32.2695   26.4946 H   0  0  0  0  0  0
  -25.8065  -30.8773   27.0212 H   0  0  0  0  0  0
  -26.2728  -29.6836   24.1097 H   0  0  0  0  0  0
  -27.4180  -29.7261   25.4321 H   0  0  0  0  0  0
  -27.8488  -30.4467   23.8951 H   0  0  0  0  0  0
  -27.2685  -33.3582   26.2042 H   0  0  0  0  0  0
  -28.3819  -32.6805   25.0278 H   0  0  0  0  0  0
  -28.0665  -31.8351   26.5390 H   0  0  0  0  0  0
  -28.2581  -38.0117   24.7525 H   0  0  0  0  0  0
  -28.1066  -36.2636   24.6273 H   0  0  0  0  0  0
  -27.2292  -37.1423   25.8885 H   0  0  0  0  0  0
  -20.9299  -29.8673   21.6947 H   0  0  0  0  0  0
  -26.0154  -38.2855   24.1440 H   0  0  0  0  0  0
  -27.8379  -20.5588   20.9695 H   0  0  0  0  0  0
  -27.3114  -23.3416   16.8215 H   0  0  0  0  0  0
  -28.4113  -22.4640   15.7742 H   0  0  0  0  0  0
  -29.0751  -23.4546   17.0468 H   0  0  0  0  0  0
  -27.0125  -16.8705   15.6560 H   0  0  0  0  0  0
  -26.7466  -18.6123   15.5919 H   0  0  0  0  0  0
  -26.1260  -17.6778   16.9524 H   0  0  0  0  0  0
  -31.3902  -17.3483   25.7062 H   0  0  0  0  0  0
  -32.4361  -17.7273   24.3445 H   0  0  0  0  0  0
  -32.5073  -16.1345   25.0996 H   0  0  0  0  0  0
  -28.1507  -22.8459   20.9561 H   0  0  0  0  0  0
  -26.7033  -23.1323   20.0428 H   0  0  0  0  0  0
  -27.2686  -17.3241   19.5780 H   0  0  0  0  0  0
  -27.4615  -18.2519   21.0240 H   0  0  0  0  0  0
  -28.4869  -17.1297   17.6340 H   0  0  0  0  0  0
  -29.0993  -18.0677   16.3066 H   0  0  0  0  0  0
  -30.0643  -17.2817   23.6863 H   0  0  0  0  0  0
  -30.1633  -15.6513   24.3145 H   0  0  0  0  0  0
  -29.9827  -18.0139   20.8338 H   0  0  0  0  0  0
  -29.7519  -16.9448   19.4725 H   0  0  0  0  0  0
  -27.8622  -24.7140   18.5774 H   0  0  0  0  0  0
  -29.4358  -24.2253   19.1755 H   0  0  0  0  0  0
  -32.1147  -15.2620   22.6701 H   0  0  0  0  0  0
  -31.7393  -16.7997   21.9390 H   0  0  0  0  0  0
  -28.2736  -15.5183   20.9919 H   0  0  0  0  0  0
  -28.6657  -16.4944   22.3052 H   0  0  0  0  0  0
  -29.1380  -25.2588   21.2552 H   0  0  0  0  0  0
  -27.4022  -25.2789   21.1635 H   0  0  0  0  0  0
  1 25  1  0  0  0
  1 30  2  0  0  0
  1 89  1  0  0  0
  2  3  1  0  0  0
  2 25  1  0  0  0
  2 90  1  0  0  0
  2 91  1  0  0  0
  3  4  1  0  0  0
  3 92  1  0  0  0
  3 93  1  0  0  0
  4  5  1  0  0  0
  4 94  1  0  0  0
  4 95  1  0  0  0
  5  6  1  0  0  0
  5 26  1  0  0  0
  5 96  1  0  0  0
  6 25  1  0  0  0
  6 97  1  0  0  0
  6 98  1  0  0  0
  7  8  2  0  0  0
  7 26  1  0  0  0
  7 29  1  0  0  0
  8  9  1  0  0  0
  8 22  1  0  0  0
  9 10  1  0  0  0
  9 27  2  0  0  0
 10 11  2  0  0  0
 10 15  1  0  0  0
 11 12  1  0  0  0
 11 99  1  0  0  0
 12 13  2  0  0  0
 12100  1  0  0  0
 13 14  1  0  0  0
 13 31  1  0  0  0
 14 15  2  0  0  0
 14101  1  0  0  0
 15102  1  0  0  0
 16 17  2  0  0  0
 16 21  1  0  0  0
 16 31  1  0  0  0
 17 18  1  0  0  0
 17103  1  0  0  0
 18 19  2  0  0  0
 18104  1  0  0  0
 19 20  1  0  0  0
 19 24  1  0  0  0
 20 21  2  0  0  0
 20105  1  0  0  0
 21 23  1  0  0  0
 22 28  1  0  0  0
 22 32  2  0  0  0
 26 27  1  0  0  0
 28106  1  0  0  0
 28107  1  0  0  0
 29108  1  0  0  0
 29109  1  0  0  0
 33 34  1  0  0  0
 33 66  1  0  0  0
 33 70  2  0  0  0
 34 36  1  0  0  0
 34 59  1  0  0  0
 34110  1  0  0  0
 35 44  2  0  0  0
 35 45  1  0  0  0
 35 68  1  0  0  0
 36 56  1  0  0  0
 36111  1  0  0  0
 37 39  1  0  0  0
 37 47  1  0  0  0
 37 66  1  0  0  0
 37112  1  0  0  0
 38 43  2  0  0  0
 38 46  1  0  0  0
 38 47  1  0  0  0
 39 64  1  0  0  0
 39 67  2  0  0  0
 40 52  1  0  0  0
 40 53  2  0  0  0
 40 58  1  0  0  0
 41113  1  0  0  0
 41114  1  0  0  0
 41115  1  0  0  0
 41 48  1  0  0  0
 42 43  1  0  0  0
 42 66  1  0  0  0
 42116  1  0  0  0
 42117  1  0  0  0
 43 44  1  0  0  0
 44118  1  0  0  0
 45 46  2  0  0  0
 45119  1  0  0  0
 46120  1  0  0  0
 47121  1  0  0  0
 47122  1  0  0  0
 48 56  1  0  0  0
 48 65  1  0  0  0
 48123  1  0  0  0
 49 50  1  0  0  0
 49 53  1  0  0  0
 49 64  1  0  0  0
 49124  1  0  0  0
 50 51  1  0  0  0
 50125  1  0  0  0
 50126  1  0  0  0
 51 52  1  0  0  0
 51127  1  0  0  0
 51128  1  0  0  0
 52129  1  0  0  0
 52130  1  0  0  0
 53 54  1  0  0  0
 54 55  2  0  0  0
 54131  1  0  0  0
 55 57  1  0  0  0
 55132  1  0  0  0
 56 69  2  0  0  0
 57 58  2  0  0  0
 57133  1  0  0  0
 58134  1  0  0  0
 59 60  1  0  0  0
 59 61  1  0  0  0
 59 62  1  0  0  0
 60135  1  0  0  0
 60136  1  0  0  0
 60137  1  0  0  0
 61138  1  0  0  0
 61139  1  0  0  0
 61140  1  0  0  0
 62141  1  0  0  0
 62142  1  0  0  0
 62143  1  0  0  0
 63 65  1  0  0  0
 63144  1  0  0  0
 63145  1  0  0  0
 63146  1  0  0  0
 64147  1  0  0  0
 65148  1  0  0  0
 68 87  1  0  0  0
 71 72  2  0  0  0
 71 73  1  0  0  0
 71149  1  0  0  0
 72 74  1  0  0  0
 72 79  1  0  0  0
 73 75  2  0  0  0
 73 80  1  0  0  0
 74 76  1  0  0  0
 74 88  2  0  0  0
 75 81  1  0  0  0
 75 88  1  0  0  0
 76150  1  0  0  0
 76151  1  0  0  0
 76152  1  0  0  0
 77 81  1  0  0  0
 77153  1  0  0  0
 77154  1  0  0  0
 77155  1  0  0  0
 78 82  1  0  0  0
 78156  1  0  0  0
 78157  1  0  0  0
 78158  1  0  0  0
 79 84  1  0  0  0
 79159  1  0  0  0
 79160  1  0  0  0
 80 83  1  0  0  0
 80161  1  0  0  0
 80162  1  0  0  0
 81163  1  0  0  0
 81164  1  0  0  0
 82 85  1  0  0  0
 82165  1  0  0  0
 82166  1  0  0  0
 83 86  1  0  0  0
 83167  1  0  0  0
 83168  1  0  0  0
 84 87  1  0  0  0
 84169  1  0  0  0
 84170  1  0  0  0
 85 89  1  0  0  0
 85171  1  0  0  0
 85172  1  0  0  0
 86 89  1  0  0  0
 86173  1  0  0  0
 86174  1  0  0  0
 87175  1  0  0  0
 87176  1  0  0  0
M  ISO  4   1 100  68 101  87 101  89 100
M  END
> <chiral flag>
0

> <version>
0

> <s_m_source_file>
/data/baiqing/PycharmProjects/Reinvent-master-3.2/result/LINK_invent/BTK/process_docking_weight1_custom_sum_contain_oxygen_bond_distance_aromatic_linkinvent_7_9_3/rearranged_h_0046.sdf

> <i_m_source_file_index>
42

> <r_mmod_Potential_Energy-OPLS-2005>
-16.6057033538818

> <r_mmod_Stretch_Energy-OPLS-2005>
38.1018753051758

> <r_mmod_Bend_Energy-OPLS-2005>
115.953483581543

> <r_mmod_Torsional_Energy-OPLS-2005>
292.667327880859

> <r_mmod_Improper_Torsional_Energy-OPLS-2005>
5.74378490447998

> <r_mmod_Van_der_Waal_Energy-OPLS-2005>
164.841537475586

> <r_mmod_Electrostatic_Energy-OPLS-2005>
-442.400512695312

> <r_mmod_Solvation_Energy-OPLS-2005>
-201.008605957031

> <b_mmod_Minimization_Converged-OPLS-2005>
0

> <r_mmod_RMS_Derivative-OPLS-2005>
4.66634130477905

$$$$
43
                    3D
 Structure written by MMmdl.
163171  0  0  1  0            999 V2000
  -30.6835  -14.5377   20.4754 C   0  0  0  0  0  0
  -30.4188  -12.3187   19.4507 C   0  0  0  0  0  0
  -29.4994  -12.4711   18.2195 C   0  0  0  0  0  0
  -28.0192  -12.3395   18.6312 C   0  0  0  0  0  0
  -27.6515  -13.2153   19.8606 C   0  0  2  0  0  0
  -28.6953  -13.0672   20.9925 C   0  0  0  0  0  0
  -25.2542  -13.8182   20.5693 C   0  0  0  0  0  0
  -24.1805  -13.0435   20.9207 C   0  0  0  0  0  0
  -24.6381  -11.6923   20.8749 C   0  0  0  0  0  0
  -23.9053  -10.4301   21.0417 C   0  0  0  0  0  0
  -24.3600   -9.4208   21.9194 C   0  0  0  0  0  0
  -23.6280   -8.2235   22.0760 C   0  0  0  0  0  0
  -22.4261   -8.0273   21.3546 C   0  0  0  0  0  0
  -21.9897   -9.0250   20.4642 C   0  0  0  0  0  0
  -22.7225  -10.2136   20.3060 C   0  0  0  0  0  0
  -21.6837   -6.0722   22.5290 C   0  0  0  0  0  0
  -21.3998   -6.5630   23.8218 C   0  0  0  0  0  0
  -21.3668   -5.6787   24.9189 C   0  0  0  0  0  0
  -21.6047   -4.3051   24.7240 C   0  0  0  0  0  0
  -21.8810   -3.8135   23.4363 C   0  0  0  0  0  0
  -21.9183   -4.6951   22.3411 C   0  0  0  0  0  0
  -22.7825  -13.5233   21.1873 C   0  0  0  0  0  0
  -22.1653   -4.2132   21.0991 F   0  0  0  0  0  0
  -21.5642   -3.4540   25.7757 F   0  0  0  0  0  0
  -30.0215  -13.3499   20.4244 N   0  0  0  0  0  0
  -26.2970  -12.9374   20.3311 N   0  0  0  0  0  0
  -25.9307  -11.6533   20.5761 N   0  0  0  0  0  0
  -22.0444  -12.8226   22.0430 N   0  0  0  0  0  0
  -25.4247  -15.1889   20.4131 N   0  0  0  0  0  0
  -31.8554  -14.6509   20.1091 O   0  0  0  0  0  0
  -21.6623   -6.8868   21.4250 O   0  0  0  0  0  0
  -22.3528  -14.5543   20.6732 O   0  0  0  0  0  0
  -24.6197  -31.8653   23.2083 C   0  0  0  0  0  0
  -25.9077  -32.4805   23.8395 C   0  0  1  0  0  0
  -27.2289  -27.3986   20.0961 C   0  0  0  0  0  0
  -25.5930  -33.8605   24.2328 N   0  0  0  0  0  0
  -23.4076  -30.4903   21.5502 C   0  0  2  0  0  0
  -24.8483  -28.9488   20.1171 C   0  0  0  0  0  0
  -22.7450  -29.4637   22.4971 C   0  0  0  0  0  0
  -18.0302  -28.1376   22.8508 C   0  0  0  0  0  0
  -24.1479  -36.7293   23.2644 C   0  0  0  0  0  0
  -25.9416  -30.8173   21.3693 C   0  0  0  0  0  0
  -26.0120  -29.4514   20.7116 C   0  0  0  0  0  0
  -27.2013  -28.6833   20.6961 C   0  0  0  0  0  0
  -26.0364  -26.9091   19.5157 C   0  0  0  0  0  0
  -24.8569  -27.6777   19.5193 C   0  0  0  0  0  0
  -23.6168  -29.8248   20.1643 C   0  0  0  0  0  0
  -25.4101  -36.3105   24.0355 C   0  0  1  0  0  0
  -20.5892  -28.3653   23.1304 C   0  0  2  0  0  0
  -20.6775  -26.9377   22.5412 C   0  0  0  0  0  0
  -19.5747  -26.6376   21.5218 C   0  0  0  0  0  0
  -18.1931  -26.7929   22.1627 C   0  0  0  0  0  0
  -19.1551  -28.8840   23.2903 C   0  0  0  0  0  0
  -18.9466  -30.1449   23.8898 C   0  0  0  0  0  0
  -17.6462  -30.6575   24.0568 C   0  0  0  0  0  0
  -25.9032  -34.9470   23.5135 C   0  0  0  0  0  0
  -16.5356  -29.9068   23.6333 C   0  0  0  0  0  0
  -16.7288  -28.6488   23.0357 C   0  0  0  0  0  0
  -26.4490  -31.6621   25.0756 C   0  0  0  0  0  0
  -25.3745  -31.3759   26.1510 C   0  0  0  0  0  0
  -27.0359  -30.3064   24.6183 C   0  0  0  0  0  0
  -27.6051  -32.4375   25.7516 C   0  0  0  0  0  0
  -27.5577  -37.1804   24.8466 C   0  0  0  0  0  0
  -21.4176  -29.3021   22.3717 N   0  0  0  0  0  0
  -26.4283  -37.3795   23.9425 N   0  0  0  0  0  0
  -24.6743  -31.0746   22.0993 N   0  0  0  0  0  0
  -23.4217  -28.8157   23.2990 O   0  0  0  0  0  0
  -28.4138  -26.6781   20.1064 O   0  0  0  0  0  0
  -26.5566  -34.8930   22.4679 O   0  0  0  0  0  0
  -23.5385  -32.1395   23.7471 O   0  0  0  0  0  0
  -30.1279  -23.3559   21.5036 C   0  0  0  0  0  0
  -31.0345  -22.3259   21.7717 C   0  0  0  0  0  0
  -29.0411  -23.0658   20.6698 C   0  0  0  0  0  0
  -29.8099  -20.8799   20.4739 C   0  0  0  0  0  0
  -33.4848  -24.5529   21.5306 C   0  0  0  0  0  0
  -32.2729  -22.5517   22.6230 C   0  0  0  0  0  0
  -28.0031  -24.1637   20.3582 C   0  0  0  0  0  0
  -29.7622  -19.4969   19.7952 C   0  0  0  0  0  0
  -33.4886  -23.0435   21.8156 C   0  0  0  0  0  0
  -29.6146  -18.2295   20.7062 C   0  0  0  0  0  0
  -30.2396  -16.9582   20.0466 C   0  0  0  0  0  0
  -28.5073  -25.3664   19.4954 C   0  0  0  0  0  0
  -30.8749  -21.1011   21.2388 N   0  0  0  0  0  0
  -28.8863  -21.8074   20.1649 N   0  0  0  0  0  0
  -29.9187  -15.6413   20.6563 N   0  0  0  0  0  0
  -31.4671  -12.3950   19.1543 H   0  0  0  0  0  0
  -30.3111  -11.3277   19.8937 H   0  0  0  0  0  0
  -29.7452  -11.7129   17.4740 H   0  0  0  0  0  0
  -29.6665  -13.4378   17.7412 H   0  0  0  0  0  0
  -27.8370  -11.2877   18.8593 H   0  0  0  0  0  0
  -27.3680  -12.5774   17.7890 H   0  0  0  0  0  0
  -27.6724  -14.2510   19.5195 H   0  0  0  0  0  0
  -28.6749  -12.0550   21.3977 H   0  0  0  0  0  0
  -28.4673  -13.7314   21.8288 H   0  0  0  0  0  0
  -25.2741   -9.5671   22.4788 H   0  0  0  0  0  0
  -23.9978   -7.4610   22.7473 H   0  0  0  0  0  0
  -21.0829   -8.8752   19.8948 H   0  0  0  0  0  0
  -22.3669  -10.9670   19.6168 H   0  0  0  0  0  0
  -21.1980   -7.6134   23.9714 H   0  0  0  0  0  0
  -21.1508   -6.0525   25.9089 H   0  0  0  0  0  0
  -22.0584   -2.7599   23.2865 H   0  0  0  0  0  0
  -22.4032  -11.9895   22.4837 H   0  0  0  0  0  0
  -21.1052  -13.1258   22.2609 H   0  0  0  0  0  0
  -24.6611  -15.8432   20.5457 H   0  0  0  0  0  0
  -26.2701  -15.6329   20.0785 H   0  0  0  0  0  0
  -26.7140  -32.5484   23.1148 H   0  0  0  0  0  0
  -25.0189  -33.9749   25.0552 H   0  0  0  0  0  0
  -22.6979  -31.3088   21.4108 H   0  0  0  0  0  0
  -23.3751  -35.9613   23.3315 H   0  0  0  0  0  0
  -24.3562  -36.8885   22.2051 H   0  0  0  0  0  0
  -23.7210  -37.6500   23.6635 H   0  0  0  0  0  0
  -26.0708  -31.5863   20.6072 H   0  0  0  0  0  0
  -26.8244  -30.8588   21.9957 H   0  0  0  0  0  0
  -28.1011  -29.0699   21.1541 H   0  0  0  0  0  0
  -25.9906  -25.9293   19.0659 H   0  0  0  0  0  0
  -23.9575  -27.2784   19.0706 H   0  0  0  0  0  0
  -23.7373  -30.6016   19.4089 H   0  0  0  0  0  0
  -22.7388  -29.2541   19.8576 H   0  0  0  0  0  0
  -25.1277  -36.1969   25.0846 H   0  0  0  0  0  0
  -21.0009  -28.3208   24.1413 H   0  0  0  0  0  0
  -20.5671  -26.2258   23.3603 H   0  0  0  0  0  0
  -21.6642  -26.7398   22.1198 H   0  0  0  0  0  0
  -19.6878  -25.6291   21.1231 H   0  0  0  0  0  0
  -19.6686  -27.3203   20.6758 H   0  0  0  0  0  0
  -17.4206  -26.6731   21.4010 H   0  0  0  0  0  0
  -18.0284  -26.0059   22.8996 H   0  0  0  0  0  0
  -19.7938  -30.7291   24.2244 H   0  0  0  0  0  0
  -17.5005  -31.6251   24.5172 H   0  0  0  0  0  0
  -15.5349  -30.2961   23.7654 H   0  0  0  0  0  0
  -15.8697  -28.0803   22.7059 H   0  0  0  0  0  0
  -24.5895  -30.7127   25.7860 H   0  0  0  0  0  0
  -24.8976  -32.2943   26.4956 H   0  0  0  0  0  0
  -25.8107  -30.8935   27.0267 H   0  0  0  0  0  0
  -26.2942  -29.6802   24.1217 H   0  0  0  0  0  0
  -27.4098  -29.7330   25.4670 H   0  0  0  0  0  0
  -27.8781  -30.4390   23.9388 H   0  0  0  0  0  0
  -27.2651  -33.3672   26.2092 H   0  0  0  0  0  0
  -28.3869  -32.6945   25.0357 H   0  0  0  0  0  0
  -28.0718  -31.8514   26.5442 H   0  0  0  0  0  0
  -28.2611  -38.0085   24.7529 H   0  0  0  0  0  0
  -28.1068  -36.2632   24.6293 H   0  0  0  0  0  0
  -27.2303  -37.1453   25.8868 H   0  0  0  0  0  0
  -20.9336  -29.8759   21.6951 H   0  0  0  0  0  0
  -26.0181  -38.2874   24.1430 H   0  0  0  0  0  0
  -30.2715  -24.3445   21.9197 H   0  0  0  0  0  0
  -34.3899  -24.8299   20.9885 H   0  0  0  0  0  0
  -33.4634  -25.1358   22.4534 H   0  0  0  0  0  0
  -32.6250  -24.8548   20.9313 H   0  0  0  0  0  0
  -32.0561  -23.2289   23.4505 H   0  0  0  0  0  0
  -32.5248  -21.6000   23.0884 H   0  0  0  0  0  0
  -27.6249  -24.5408   21.3066 H   0  0  0  0  0  0
  -27.1429  -23.7088   19.8689 H   0  0  0  0  0  0
  -30.6880  -19.4011   19.2291 H   0  0  0  0  0  0
  -28.9748  -19.4931   19.0408 H   0  0  0  0  0  0
  -34.3915  -22.8243   22.3861 H   0  0  0  0  0  0
  -33.5713  -22.4763   20.8856 H   0  0  0  0  0  0
  -28.5606  -18.0824   20.9398 H   0  0  0  0  0  0
  -30.1273  -18.4028   21.6552 H   0  0  0  0  0  0
  -29.9243  -16.9051   19.0031 H   0  0  0  0  0  0
  -31.3221  -17.1006   20.0149 H   0  0  0  0  0  0
  -28.0495  -25.3607   18.5061 H   0  0  0  0  0  0
  -29.5652  -25.2125   19.2879 H   0  0  0  0  0  0
  -28.9601  -15.4788   20.9292 H   0  0  0  0  0  0
  1 25  1  0  0  0
  1 30  2  0  0  0
  1 85  1  0  0  0
  2  3  1  0  0  0
  2 25  1  0  0  0
  2 86  1  0  0  0
  2 87  1  0  0  0
  3  4  1  0  0  0
  3 88  1  0  0  0
  3 89  1  0  0  0
  4  5  1  0  0  0
  4 90  1  0  0  0
  4 91  1  0  0  0
  5  6  1  0  0  0
  5 26  1  0  0  0
  5 92  1  0  0  0
  6 25  1  0  0  0
  6 93  1  0  0  0
  6 94  1  0  0  0
  7  8  2  0  0  0
  7 26  1  0  0  0
  7 29  1  0  0  0
  8  9  1  0  0  0
  8 22  1  0  0  0
  9 10  1  0  0  0
  9 27  2  0  0  0
 10 11  2  0  0  0
 10 15  1  0  0  0
 11 12  1  0  0  0
 11 95  1  0  0  0
 12 13  2  0  0  0
 12 96  1  0  0  0
 13 14  1  0  0  0
 13 31  1  0  0  0
 14 15  2  0  0  0
 14 97  1  0  0  0
 15 98  1  0  0  0
 16 17  2  0  0  0
 16 21  1  0  0  0
 16 31  1  0  0  0
 17 18  1  0  0  0
 17 99  1  0  0  0
 18 19  2  0  0  0
 18100  1  0  0  0
 19 20  1  0  0  0
 19 24  1  0  0  0
 20 21  2  0  0  0
 20101  1  0  0  0
 21 23  1  0  0  0
 22 28  1  0  0  0
 22 32  2  0  0  0
 26 27  1  0  0  0
 28102  1  0  0  0
 28103  1  0  0  0
 29104  1  0  0  0
 29105  1  0  0  0
 33 34  1  0  0  0
 33 66  1  0  0  0
 33 70  2  0  0  0
 34 36  1  0  0  0
 34 59  1  0  0  0
 34106  1  0  0  0
 35 44  2  0  0  0
 35 45  1  0  0  0
 35 68  1  0  0  0
 36 56  1  0  0  0
 36107  1  0  0  0
 37 39  1  0  0  0
 37 47  1  0  0  0
 37 66  1  0  0  0
 37108  1  0  0  0
 38 43  2  0  0  0
 38 46  1  0  0  0
 38 47  1  0  0  0
 39 64  1  0  0  0
 39 67  2  0  0  0
 40 52  1  0  0  0
 40 53  2  0  0  0
 40 58  1  0  0  0
 41109  1  0  0  0
 41110  1  0  0  0
 41111  1  0  0  0
 41 48  1  0  0  0
 42 43  1  0  0  0
 42 66  1  0  0  0
 42112  1  0  0  0
 42113  1  0  0  0
 43 44  1  0  0  0
 44114  1  0  0  0
 45 46  2  0  0  0
 45115  1  0  0  0
 46116  1  0  0  0
 47117  1  0  0  0
 47118  1  0  0  0
 48 56  1  0  0  0
 48 65  1  0  0  0
 48119  1  0  0  0
 49 50  1  0  0  0
 49 53  1  0  0  0
 49 64  1  0  0  0
 49120  1  0  0  0
 50 51  1  0  0  0
 50121  1  0  0  0
 50122  1  0  0  0
 51 52  1  0  0  0
 51123  1  0  0  0
 51124  1  0  0  0
 52125  1  0  0  0
 52126  1  0  0  0
 53 54  1  0  0  0
 54 55  2  0  0  0
 54127  1  0  0  0
 55 57  1  0  0  0
 55128  1  0  0  0
 56 69  2  0  0  0
 57 58  2  0  0  0
 57129  1  0  0  0
 58130  1  0  0  0
 59 60  1  0  0  0
 59 61  1  0  0  0
 59 62  1  0  0  0
 60131  1  0  0  0
 60132  1  0  0  0
 60133  1  0  0  0
 61134  1  0  0  0
 61135  1  0  0  0
 61136  1  0  0  0
 62137  1  0  0  0
 62138  1  0  0  0
 62139  1  0  0  0
 63 65  1  0  0  0
 63140  1  0  0  0
 63141  1  0  0  0
 63142  1  0  0  0
 64143  1  0  0  0
 65144  1  0  0  0
 68 82  1  0  0  0
 71 72  2  0  0  0
 71 73  1  0  0  0
 71145  1  0  0  0
 72 76  1  0  0  0
 72 83  1  0  0  0
 73 77  1  0  0  0
 73 84  2  0  0  0
 74 78  1  0  0  0
 74 83  2  0  0  0
 74 84  1  0  0  0
 75 79  1  0  0  0
 75146  1  0  0  0
 75147  1  0  0  0
 75148  1  0  0  0
 76 79  1  0  0  0
 76149  1  0  0  0
 76150  1  0  0  0
 77 82  1  0  0  0
 77151  1  0  0  0
 77152  1  0  0  0
 78 80  1  0  0  0
 78153  1  0  0  0
 78154  1  0  0  0
 79155  1  0  0  0
 79156  1  0  0  0
 80 81  1  0  0  0
 80157  1  0  0  0
 80158  1  0  0  0
 81 85  1  0  0  0
 81159  1  0  0  0
 81160  1  0  0  0
 82161  1  0  0  0
 82162  1  0  0  0
 85163  1  0  0  0
M  ISO  4   1 100  68 101  82 101  85 100
M  END
> <chiral flag>
0

> <version>
0

> <s_m_source_file>
/data/baiqing/PycharmProjects/Reinvent-master-3.2/result/LINK_invent/BTK/process_docking_weight1_custom_sum_contain_oxygen_bond_distance_aromatic_linkinvent_7_9_3/rearranged_h_0046.sdf

> <i_m_source_file_index>
43

> <r_mmod_Potential_Energy-OPLS-2005>
-433.602386474609

> <r_mmod_Stretch_Energy-OPLS-2005>
45.669189453125

> <r_mmod_Bend_Energy-OPLS-2005>
118.686172485352

> <r_mmod_Torsional_Energy-OPLS-2005>
204.934448242188

> <r_mmod_Improper_Torsional_Energy-OPLS-2005>
8.99750232696533

> <r_mmod_Van_der_Waal_Energy-OPLS-2005>
151.906982421875

> <r_mmod_Electrostatic_Energy-OPLS-2005>
-755.176879882812

> <r_mmod_Solvation_Energy-OPLS-2005>
-232.90559387207

> <b_mmod_Minimization_Converged-OPLS-2005>
0

> <r_mmod_RMS_Derivative-OPLS-2005>
3.33209943771362

$$$$
44
                    3D
 Structure written by MMmdl.
156164  0  0  1  0            999 V2000
  -30.6506  -14.5625   20.5469 C   0  0  0  0  0  0
  -30.4284  -12.3615   19.4241 C   0  0  0  0  0  0
  -29.4923  -12.5095   18.2059 C   0  0  0  0  0  0
  -28.0175  -12.3522   18.6268 C   0  0  0  0  0  0
  -27.6527  -13.2108   19.8679 C   0  0  2  0  0  0
  -28.6969  -13.0328   20.9916 C   0  0  0  0  0  0
  -25.2553  -13.8142   20.5694 C   0  0  0  0  0  0
  -24.1823  -13.0422   20.9192 C   0  0  0  0  0  0
  -24.6384  -11.6889   20.8731 C   0  0  0  0  0  0
  -23.9051  -10.4285   21.0410 C   0  0  0  0  0  0
  -24.3606   -9.4207   21.9190 C   0  0  0  0  0  0
  -23.6287   -8.2240   22.0751 C   0  0  0  0  0  0
  -22.4268   -8.0280   21.3544 C   0  0  0  0  0  0
  -21.9906   -9.0251   20.4645 C   0  0  0  0  0  0
  -22.7223  -10.2136   20.3064 C   0  0  0  0  0  0
  -21.6853   -6.0747   22.5286 C   0  0  0  0  0  0
  -21.4021   -6.5651   23.8220 C   0  0  0  0  0  0
  -21.3657   -5.6801   24.9179 C   0  0  0  0  0  0
  -21.6037   -4.3064   24.7224 C   0  0  0  0  0  0
  -21.8812   -3.8157   23.4345 C   0  0  0  0  0  0
  -21.9191   -4.6976   22.3405 C   0  0  0  0  0  0
  -22.7854  -13.5225   21.1880 C   0  0  0  0  0  0
  -22.1659   -4.2169   21.0979 F   0  0  0  0  0  0
  -21.5622   -3.4539   25.7732 F   0  0  0  0  0  0
  -30.0133  -13.3618   20.4243 N   0  0  0  0  0  0
  -26.2979  -12.9324   20.3344 N   0  0  0  0  0  0
  -25.9308  -11.6476   20.5752 N   0  0  0  0  0  0
  -22.0499  -12.8213   22.0427 N   0  0  0  0  0  0
  -25.4237  -15.1866   20.4111 N   0  0  0  0  0  0
  -31.8107  -14.7325   20.1627 O   0  0  0  0  0  0
  -21.6633   -6.8881   21.4241 O   0  0  0  0  0  0
  -22.3551  -14.5554   20.6754 O   0  0  0  0  0  0
  -24.6209  -31.8638   23.2049 C   0  0  0  0  0  0
  -25.9080  -32.4800   23.8368 C   0  0  1  0  0  0
  -27.2312  -27.3744   20.1174 C   0  0  0  0  0  0
  -25.5915  -33.8598   24.2301 N   0  0  0  0  0  0
  -23.4116  -30.4847   21.5467 C   0  0  2  0  0  0
  -24.8575  -28.9359   20.1231 C   0  0  0  0  0  0
  -22.7436  -29.4633   22.4966 C   0  0  0  0  0  0
  -18.0272  -28.1383   22.8487 C   0  0  0  0  0  0
  -24.1484  -36.7297   23.2639 C   0  0  0  0  0  0
  -25.9446  -30.8131   21.3650 C   0  0  0  0  0  0
  -26.0220  -29.4407   20.7154 C   0  0  0  0  0  0
  -27.2142  -28.6709   20.6991 C   0  0  0  0  0  0
  -26.0462  -26.8923   19.5257 C   0  0  0  0  0  0
  -24.8666  -27.6638   19.5234 C   0  0  0  0  0  0
  -23.6245  -29.8129   20.1643 C   0  0  0  0  0  0
  -25.4111  -36.3087   24.0325 C   0  0  1  0  0  0
  -20.5869  -28.3675   23.1300 C   0  0  2  0  0  0
  -20.6753  -26.9406   22.5414 C   0  0  0  0  0  0
  -19.5734  -26.6382   21.5207 C   0  0  0  0  0  0
  -18.1915  -26.7926   22.1622 C   0  0  0  0  0  0
  -19.1527  -28.8843   23.2890 C   0  0  0  0  0  0
  -18.9457  -30.1447   23.8907 C   0  0  0  0  0  0
  -17.6462  -30.6587   24.0567 C   0  0  0  0  0  0
  -25.9045  -34.9453   23.5112 C   0  0  0  0  0  0
  -16.5349  -29.9093   23.6331 C   0  0  0  0  0  0
  -16.7263  -28.6509   23.0351 C   0  0  0  0  0  0
  -26.4490  -31.6591   25.0718 C   0  0  0  0  0  0
  -25.3749  -31.3715   26.1466 C   0  0  0  0  0  0
  -27.0332  -30.3025   24.6130 C   0  0  0  0  0  0
  -27.6055  -32.4319   25.7492 C   0  0  0  0  0  0
  -27.5573  -37.1805   24.8466 C   0  0  0  0  0  0
  -21.4156  -29.3042   22.3703 N   0  0  0  0  0  0
  -26.4289  -37.3777   23.9406 N   0  0  0  0  0  0
  -24.6772  -31.0695   22.0969 N   0  0  0  0  0  0
  -23.4180  -28.8179   23.3032 O   0  0  0  0  0  0
  -28.3927  -26.6179   20.0599 O   0  0  0  0  0  0
  -26.5609  -34.8908   22.4673 O   0  0  0  0  0  0
  -23.5385  -32.1413   23.7413 O   0  0  0  0  0  0
  -30.5035  -21.3967   19.5543 C   0  0  0  0  0  0
  -29.6245  -20.8804   20.5447 C   0  0  0  0  0  0
  -30.0104  -22.6308   19.2234 C   0  0  0  0  0  0
  -30.5222  -23.6216   18.2279 C   0  0  0  0  0  0
  -29.8076  -19.5729   21.3391 C   0  0  0  0  0  0
  -29.6218  -18.1934   20.6002 C   0  0  0  0  0  0
  -27.9707  -24.0371   19.9458 C   0  0  0  0  0  0
  -30.3063  -16.9829   21.3463 C   0  0  0  0  0  0
  -28.4330  -25.3203   20.7265 C   0  0  0  0  0  0
  -28.6409  -21.7654   20.7923 N   0  0  0  0  0  0
  -28.8824  -22.8590   19.9946 N   0  0  0  0  0  0
  -29.8847  -15.6004   20.9786 N   0  0  0  0  0  0
  -31.4680  -12.4856   19.1170 H   0  0  0  0  0  0
  -30.3561  -11.3565   19.8409 H   0  0  0  0  0  0
  -29.7428  -11.7699   17.4439 H   0  0  0  0  0  0
  -29.6391  -13.4861   17.7412 H   0  0  0  0  0  0
  -27.8474  -11.2974   18.8474 H   0  0  0  0  0  0
  -27.3592  -12.5978   17.7933 H   0  0  0  0  0  0
  -27.6817  -14.2524   19.5474 H   0  0  0  0  0  0
  -28.6950  -12.0066   21.3598 H   0  0  0  0  0  0
  -28.4538  -13.6557   21.8527 H   0  0  0  0  0  0
  -25.2752   -9.5686   22.4775 H   0  0  0  0  0  0
  -24.0000   -7.4629   22.7465 H   0  0  0  0  0  0
  -21.0843   -8.8762   19.8949 H   0  0  0  0  0  0
  -22.3673  -10.9679   19.6188 H   0  0  0  0  0  0
  -21.2023   -7.6166   23.9725 H   0  0  0  0  0  0
  -21.1485   -6.0538   25.9083 H   0  0  0  0  0  0
  -22.0591   -2.7622   23.2837 H   0  0  0  0  0  0
  -22.4105  -11.9871   22.4825 H   0  0  0  0  0  0
  -21.1119  -13.1246   22.2637 H   0  0  0  0  0  0
  -24.6477  -15.8307   20.5172 H   0  0  0  0  0  0
  -26.2658  -15.6332   20.0706 H   0  0  0  0  0  0
  -26.7151  -32.5496   23.1122 H   0  0  0  0  0  0
  -25.0048  -33.9759   25.0438 H   0  0  0  0  0  0
  -22.7026  -31.3020   21.4011 H   0  0  0  0  0  0
  -23.3733  -35.9645   23.3316 H   0  0  0  0  0  0
  -24.3575  -36.8909   22.2053 H   0  0  0  0  0  0
  -23.7247  -37.6502   23.6660 H   0  0  0  0  0  0
  -26.0633  -31.5777   20.5954 H   0  0  0  0  0  0
  -26.8293  -30.8668   21.9871 H   0  0  0  0  0  0
  -28.1179  -29.0641   21.1441 H   0  0  0  0  0  0
  -26.0326  -25.9210   19.0548 H   0  0  0  0  0  0
  -23.9715  -27.2707   19.0614 H   0  0  0  0  0  0
  -23.7444  -30.5862   19.4041 H   0  0  0  0  0  0
  -22.7457  -29.2395   19.8631 H   0  0  0  0  0  0
  -25.1290  -36.1930   25.0817 H   0  0  0  0  0  0
  -20.9960  -28.3244   24.1420 H   0  0  0  0  0  0
  -20.5627  -26.2295   23.3611 H   0  0  0  0  0  0
  -21.6629  -26.7424   22.1229 H   0  0  0  0  0  0
  -19.6897  -25.6292   21.1233 H   0  0  0  0  0  0
  -19.6668  -27.3195   20.6739 H   0  0  0  0  0  0
  -17.4181  -26.6669   21.4025 H   0  0  0  0  0  0
  -18.0324  -26.0072   22.9023 H   0  0  0  0  0  0
  -19.7938  -30.7254   24.2278 H   0  0  0  0  0  0
  -17.5024  -31.6269   24.5168 H   0  0  0  0  0  0
  -15.5354  -30.3001   23.7646 H   0  0  0  0  0  0
  -15.8663  -28.0828   22.7065 H   0  0  0  0  0  0
  -24.5905  -30.7084   25.7795 H   0  0  0  0  0  0
  -24.8975  -32.2890   26.4921 H   0  0  0  0  0  0
  -25.8104  -30.8865   27.0217 H   0  0  0  0  0  0
  -26.2899  -29.6768   24.1181 H   0  0  0  0  0  0
  -27.4075  -29.7268   25.4604 H   0  0  0  0  0  0
  -27.8737  -30.4309   23.9308 H   0  0  0  0  0  0
  -27.2662  -33.3607   26.2088 H   0  0  0  0  0  0
  -28.3868  -32.6908   25.0334 H   0  0  0  0  0  0
  -28.0729  -31.8444   26.5400 H   0  0  0  0  0  0
  -28.2596  -38.0095   24.7502 H   0  0  0  0  0  0
  -28.1059  -36.2623   24.6306 H   0  0  0  0  0  0
  -27.2298  -37.1480   25.8873 H   0  0  0  0  0  0
  -20.9314  -29.8789   21.6945 H   0  0  0  0  0  0
  -26.0159  -38.2842   24.1426 H   0  0  0  0  0  0
  -31.3938  -20.9295   19.1562 H   0  0  0  0  0  0
  -30.6499  -24.6026   18.6860 H   0  0  0  0  0  0
  -29.8359  -23.7193   17.3863 H   0  0  0  0  0  0
  -31.4896  -23.3146   17.8310 H   0  0  0  0  0  0
  -29.1599  -19.5833   22.2172 H   0  0  0  0  0  0
  -30.8182  -19.5874   21.7488 H   0  0  0  0  0  0
  -30.0530  -18.2632   19.6009 H   0  0  0  0  0  0
  -28.5565  -18.0120   20.4590 H   0  0  0  0  0  0
  -27.8241  -24.2888   18.8956 H   0  0  0  0  0  0
  -26.9910  -23.7310   20.3150 H   0  0  0  0  0  0
  -31.3896  -17.0796   21.2567 H   0  0  0  0  0  0
  -30.0927  -17.0809   22.4115 H   0  0  0  0  0  0
  -29.4743  -25.1801   21.0182 H   0  0  0  0  0  0
  -27.8876  -25.3787   21.6699 H   0  0  0  0  0  0
  -28.9305  -15.3578   21.2015 H   0  0  0  0  0  0
  1 25  1  0  0  0
  1 30  2  0  0  0
  1 82  1  0  0  0
  2  3  1  0  0  0
  2 25  1  0  0  0
  2 83  1  0  0  0
  2 84  1  0  0  0
  3  4  1  0  0  0
  3 85  1  0  0  0
  3 86  1  0  0  0
  4  5  1  0  0  0
  4 87  1  0  0  0
  4 88  1  0  0  0
  5  6  1  0  0  0
  5 26  1  0  0  0
  5 89  1  0  0  0
  6 25  1  0  0  0
  6 90  1  0  0  0
  6 91  1  0  0  0
  7  8  2  0  0  0
  7 26  1  0  0  0
  7 29  1  0  0  0
  8  9  1  0  0  0
  8 22  1  0  0  0
  9 10  1  0  0  0
  9 27  2  0  0  0
 10 11  2  0  0  0
 10 15  1  0  0  0
 11 12  1  0  0  0
 11 92  1  0  0  0
 12 13  2  0  0  0
 12 93  1  0  0  0
 13 14  1  0  0  0
 13 31  1  0  0  0
 14 15  2  0  0  0
 14 94  1  0  0  0
 15 95  1  0  0  0
 16 17  2  0  0  0
 16 21  1  0  0  0
 16 31  1  0  0  0
 17 18  1  0  0  0
 17 96  1  0  0  0
 18 19  2  0  0  0
 18 97  1  0  0  0
 19 20  1  0  0  0
 19 24  1  0  0  0
 20 21  2  0  0  0
 20 98  1  0  0  0
 21 23  1  0  0  0
 22 28  1  0  0  0
 22 32  2  0  0  0
 26 27  1  0  0  0
 28 99  1  0  0  0
 28100  1  0  0  0
 29101  1  0  0  0
 29102  1  0  0  0
 33 34  1  0  0  0
 33 66  1  0  0  0
 33 70  2  0  0  0
 34 36  1  0  0  0
 34 59  1  0  0  0
 34103  1  0  0  0
 35 44  2  0  0  0
 35 45  1  0  0  0
 35 68  1  0  0  0
 36 56  1  0  0  0
 36104  1  0  0  0
 37 39  1  0  0  0
 37 47  1  0  0  0
 37 66  1  0  0  0
 37105  1  0  0  0
 38 43  2  0  0  0
 38 46  1  0  0  0
 38 47  1  0  0  0
 39 64  1  0  0  0
 39 67  2  0  0  0
 40 52  1  0  0  0
 40 53  2  0  0  0
 40 58  1  0  0  0
 41106  1  0  0  0
 41107  1  0  0  0
 41108  1  0  0  0
 41 48  1  0  0  0
 42 43  1  0  0  0
 42 66  1  0  0  0
 42109  1  0  0  0
 42110  1  0  0  0
 43 44  1  0  0  0
 44111  1  0  0  0
 45 46  2  0  0  0
 45112  1  0  0  0
 46113  1  0  0  0
 47114  1  0  0  0
 47115  1  0  0  0
 48 56  1  0  0  0
 48 65  1  0  0  0
 48116  1  0  0  0
 49 50  1  0  0  0
 49 53  1  0  0  0
 49 64  1  0  0  0
 49117  1  0  0  0
 50 51  1  0  0  0
 50118  1  0  0  0
 50119  1  0  0  0
 51 52  1  0  0  0
 51120  1  0  0  0
 51121  1  0  0  0
 52122  1  0  0  0
 52123  1  0  0  0
 53 54  1  0  0  0
 54 55  2  0  0  0
 54124  1  0  0  0
 55 57  1  0  0  0
 55125  1  0  0  0
 56 69  2  0  0  0
 57 58  2  0  0  0
 57126  1  0  0  0
 58127  1  0  0  0
 59 60  1  0  0  0
 59 61  1  0  0  0
 59 62  1  0  0  0
 60128  1  0  0  0
 60129  1  0  0  0
 60130  1  0  0  0
 61131  1  0  0  0
 61132  1  0  0  0
 61133  1  0  0  0
 62134  1  0  0  0
 62135  1  0  0  0
 62136  1  0  0  0
 63 65  1  0  0  0
 63137  1  0  0  0
 63138  1  0  0  0
 63139  1  0  0  0
 64140  1  0  0  0
 65141  1  0  0  0
 68 79  1  0  0  0
 71 72  1  0  0  0
 71 73  2  0  0  0
 71142  1  0  0  0
 72 75  1  0  0  0
 72 80  2  0  0  0
 73 74  1  0  0  0
 73 81  1  0  0  0
 74143  1  0  0  0
 74144  1  0  0  0
 74145  1  0  0  0
 75 76  1  0  0  0
 75146  1  0  0  0
 75147  1  0  0  0
 76 78  1  0  0  0
 76148  1  0  0  0
 76149  1  0  0  0
 77 79  1  0  0  0
 77 81  1  0  0  0
 77150  1  0  0  0
 77151  1  0  0  0
 78 82  1  0  0  0
 78152  1  0  0  0
 78153  1  0  0  0
 79154  1  0  0  0
 79155  1  0  0  0
 80 81  1  0  0  0
 82156  1  0  0  0
M  ISO  4   1 100  68 101  79 101  82 100
M  END
> <chiral flag>
0

> <version>
0

> <s_m_source_file>
/data/baiqing/PycharmProjects/Reinvent-master-3.2/result/LINK_invent/BTK/process_docking_weight1_custom_sum_contain_oxygen_bond_distance_aromatic_linkinvent_7_9_3/rearranged_h_0046.sdf

> <i_m_source_file_index>
44

> <r_mmod_Potential_Energy-OPLS-2005>
-76.3907089233398

> <r_mmod_Stretch_Energy-OPLS-2005>
53.9353485107422

> <r_mmod_Bend_Energy-OPLS-2005>
118.897552490234

> <r_mmod_Torsional_Energy-OPLS-2005>
234.504104614258

> <r_mmod_Improper_Torsional_Energy-OPLS-2005>
3.99392104148865

> <r_mmod_Van_der_Waal_Energy-OPLS-2005>
115.043029785156

> <r_mmod_Electrostatic_Energy-OPLS-2005>
-408.039276123047

> <r_mmod_Solvation_Energy-OPLS-2005>
-220.123107910156

> <b_mmod_Minimization_Converged-OPLS-2005>
0

> <r_mmod_RMS_Derivative-OPLS-2005>
2.05350875854492

$$$$
45
                    3D
 Structure written by MMmdl.
161169  0  0  1  0            999 V2000
  -30.6000  -14.8533   20.5043 C   0  0  0  0  0  0
  -30.4386  -12.5369   19.4988 C   0  0  0  0  0  0
  -29.5200  -12.5413   18.2541 C   0  0  0  0  0  0
  -28.0490  -12.3369   18.6609 C   0  0  0  0  0  0
  -27.6403  -13.2400   19.8524 C   0  0  2  0  0  0
  -28.6786  -13.1920   20.9913 C   0  0  0  0  0  0
  -25.2501  -13.8208   20.5706 C   0  0  0  0  0  0
  -24.1792  -13.0443   20.9193 C   0  0  0  0  0  0
  -24.6393  -11.6922   20.8726 C   0  0  0  0  0  0
  -23.9068  -10.4295   21.0396 C   0  0  0  0  0  0
  -24.3616   -9.4213   21.9177 C   0  0  0  0  0  0
  -23.6293   -8.2249   22.0756 C   0  0  0  0  0  0
  -22.4273   -8.0285   21.3549 C   0  0  0  0  0  0
  -21.9905   -9.0256   20.4649 C   0  0  0  0  0  0
  -22.7235  -10.2136   20.3053 C   0  0  0  0  0  0
  -21.6854   -6.0735   22.5280 C   0  0  0  0  0  0
  -21.4016   -6.5640   23.8212 C   0  0  0  0  0  0
  -21.3660   -5.6793   24.9174 C   0  0  0  0  0  0
  -21.6044   -4.3056   24.7225 C   0  0  0  0  0  0
  -21.8817   -3.8147   23.4346 C   0  0  0  0  0  0
  -21.9194   -4.6962   22.3402 C   0  0  0  0  0  0
  -22.7816  -13.5226   21.1866 C   0  0  0  0  0  0
  -22.1662   -4.2147   21.0980 F   0  0  0  0  0  0
  -21.5627   -3.4539   25.7737 F   0  0  0  0  0  0
  -29.9750  -13.6077   20.4287 N   0  0  0  0  0  0
  -26.2927  -12.9426   20.3272 N   0  0  0  0  0  0
  -25.9327  -11.6560   20.5725 N   0  0  0  0  0  0
  -22.0467  -12.8214   22.0424 N   0  0  0  0  0  0
  -25.4205  -15.1936   20.4176 N   0  0  0  0  0  0
  -31.7374  -14.9502   20.0304 O   0  0  0  0  0  0
  -21.6642   -6.8880   21.4243 O   0  0  0  0  0  0
  -22.3495  -14.5532   20.6720 O   0  0  0  0  0  0
  -24.6414  -31.8492   23.1954 C   0  0  0  0  0  0
  -25.9205  -32.4722   23.8320 C   0  0  1  0  0  0
  -27.2086  -27.1670   20.1306 C   0  0  0  0  0  0
  -25.5967  -33.8527   24.2230 N   0  0  0  0  0  0
  -23.4425  -30.4743   21.5409 C   0  0  2  0  0  0
  -24.8912  -28.9202   20.1054 C   0  0  0  0  0  0
  -22.7562  -29.4575   22.4872 C   0  0  0  0  0  0
  -18.0305  -28.1396   22.8481 C   0  0  0  0  0  0
  -24.1491  -36.7264   23.2638 C   0  0  0  0  0  0
  -25.9997  -30.7287   21.3973 C   0  0  0  0  0  0
  -26.0683  -29.3463   20.7334 C   0  0  0  0  0  0
  -27.2259  -28.4819   20.7423 C   0  0  0  0  0  0
  -26.0137  -26.8670   19.4287 C   0  0  0  0  0  0
  -24.8757  -27.6918   19.4393 C   0  0  0  0  0  0
  -23.6670  -29.8168   20.1559 C   0  0  0  0  0  0
  -25.4122  -36.3047   24.0318 C   0  0  1  0  0  0
  -20.5919  -28.3722   23.1238 C   0  0  2  0  0  0
  -20.6791  -26.9429   22.5398 C   0  0  0  0  0  0
  -19.5760  -26.6384   21.5212 C   0  0  0  0  0  0
  -18.1944  -26.7933   22.1629 C   0  0  0  0  0  0
  -19.1561  -28.8877   23.2851 C   0  0  0  0  0  0
  -18.9478  -30.1474   23.8876 C   0  0  0  0  0  0
  -17.6473  -30.6592   24.0561 C   0  0  0  0  0  0
  -25.9073  -34.9420   23.5076 C   0  0  0  0  0  0
  -16.5365  -29.9085   23.6335 C   0  0  0  0  0  0
  -16.7289  -28.6503   23.0358 C   0  0  0  0  0  0
  -26.4529  -31.6578   25.0749 C   0  0  0  0  0  0
  -25.3717  -31.3765   26.1448 C   0  0  0  0  0  0
  -27.0390  -30.2971   24.6327 C   0  0  0  0  0  0
  -27.6061  -32.4340   25.7529 C   0  0  0  0  0  0
  -27.5577  -37.1790   24.8465 C   0  0  0  0  0  0
  -21.4256  -29.3055   22.3617 N   0  0  0  0  0  0
  -26.4286  -37.3758   23.9410 N   0  0  0  0  0  0
  -24.7137  -31.0371   22.0991 N   0  0  0  0  0  0
  -23.4218  -28.8106   23.2997 O   0  0  0  0  0  0
  -28.2292  -26.1507   20.2352 O   0  0  0  0  0  0
  -26.5644  -34.8906   22.4646 O   0  0  0  0  0  0
  -23.5539  -32.1364   23.7186 O   0  0  0  0  0  0
  -27.5070  -22.1519   20.2726 C   0  0  0  0  0  0
  -27.8612  -20.7690   20.4506 C   0  0  0  0  0  0
  -28.4427  -23.2310   20.2159 C   0  0  0  0  0  0
  -29.2150  -20.3547   20.5927 C   0  0  0  0  0  0
  -29.7829  -22.7264   20.3192 C   0  0  0  0  0  0
  -26.7463  -19.7384   20.5239 C   0  0  0  0  0  0
  -31.5209  -24.0706   21.5804 C   0  0  0  0  0  0
  -29.5198  -16.0787   22.3253 C   0  0  0  0  0  0
  -27.8558  -24.7136   19.8226 C   0  0  0  0  0  0
  -29.6285  -18.8563   21.1165 C   0  0  0  0  0  0
  -30.9555  -23.6843   20.2085 C   0  0  0  0  0  0
  -29.8686  -17.4523   20.2496 C   0  0  0  0  0  0
  -30.1324  -21.3833   20.5201 N   0  0  0  0  0  0
  -29.8997  -16.0206   20.9093 N   0  0  0  0  0  0
  -31.4769  -12.6736   19.1929 H   0  0  0  0  0  0
  -30.4097  -11.5649   19.9940 H   0  0  0  0  0  0
  -29.8260  -11.7640   17.5528 H   0  0  0  0  0  0
  -29.6243  -13.4902   17.7257 H   0  0  0  0  0  0
  -27.9254  -11.2885   18.9344 H   0  0  0  0  0  0
  -27.3902  -12.5096   17.8091 H   0  0  0  0  0  0
  -27.6286  -14.2603   19.4680 H   0  0  0  0  0  0
  -28.7447  -12.1880   21.4133 H   0  0  0  0  0  0
  -28.3509  -13.8311   21.8070 H   0  0  0  0  0  0
  -25.2763   -9.5693   22.4748 H   0  0  0  0  0  0
  -24.0002   -7.4643   22.7478 H   0  0  0  0  0  0
  -21.0835   -8.8776   19.8958 H   0  0  0  0  0  0
  -22.3691  -10.9673   19.6162 H   0  0  0  0  0  0
  -21.2010   -7.6147   23.9714 H   0  0  0  0  0  0
  -21.1485   -6.0523   25.9077 H   0  0  0  0  0  0
  -22.0594   -2.7608   23.2847 H   0  0  0  0  0  0
  -22.4092  -11.9876   22.4806 H   0  0  0  0  0  0
  -21.1091  -13.1248   22.2652 H   0  0  0  0  0  0
  -24.6571  -15.8502   20.5373 H   0  0  0  0  0  0
  -26.2825  -15.6351   20.1238 H   0  0  0  0  0  0
  -26.7271  -32.5337   23.1050 H   0  0  0  0  0  0
  -25.0108  -33.9650   25.0373 H   0  0  0  0  0  0
  -22.7432  -31.3002   21.3941 H   0  0  0  0  0  0
  -23.3757  -35.9592   23.3292 H   0  0  0  0  0  0
  -24.3578  -36.8900   22.2054 H   0  0  0  0  0  0
  -23.7240  -37.6458   23.6676 H   0  0  0  0  0  0
  -26.1587  -31.4876   20.6301 H   0  0  0  0  0  0
  -26.8690  -30.7716   22.0413 H   0  0  0  0  0  0
  -28.1131  -28.7948   21.2745 H   0  0  0  0  0  0
  -25.8966  -25.9525   18.8690 H   0  0  0  0  0  0
  -23.9838  -27.3685   18.9199 H   0  0  0  0  0  0
  -23.8018  -30.5975   19.4064 H   0  0  0  0  0  0
  -22.7822  -29.2603   19.8418 H   0  0  0  0  0  0
  -25.1305  -36.1880   25.0809 H   0  0  0  0  0  0
  -21.0009  -28.3308   24.1361 H   0  0  0  0  0  0
  -20.5696  -26.2334   23.3615 H   0  0  0  0  0  0
  -21.6656  -26.7444   22.1189 H   0  0  0  0  0  0
  -19.6919  -25.6288   21.1255 H   0  0  0  0  0  0
  -19.6688  -27.3182   20.6730 H   0  0  0  0  0  0
  -17.4209  -26.6675   21.4038 H   0  0  0  0  0  0
  -18.0350  -26.0082   22.9034 H   0  0  0  0  0  0
  -19.7954  -30.7298   24.2233 H   0  0  0  0  0  0
  -17.5027  -31.6271   24.5167 H   0  0  0  0  0  0
  -15.5365  -30.2980   23.7671 H   0  0  0  0  0  0
  -15.8691  -28.0814   22.7085 H   0  0  0  0  0  0
  -24.5888  -30.7123   25.7771 H   0  0  0  0  0  0
  -24.8919  -32.2950   26.4840 H   0  0  0  0  0  0
  -25.8004  -30.8957   27.0251 H   0  0  0  0  0  0
  -26.3011  -29.6699   24.1313 H   0  0  0  0  0  0
  -27.3974  -29.7265   25.4906 H   0  0  0  0  0  0
  -27.8936  -30.4201   23.9670 H   0  0  0  0  0  0
  -27.2652  -33.3652   26.2068 H   0  0  0  0  0  0
  -28.3893  -32.6887   25.0375 H   0  0  0  0  0  0
  -28.0709  -31.8496   26.5481 H   0  0  0  0  0  0
  -28.2587  -38.0095   24.7521 H   0  0  0  0  0  0
  -28.1082  -36.2626   24.6281 H   0  0  0  0  0  0
  -27.2296  -37.1425   25.8868 H   0  0  0  0  0  0
  -20.9461  -29.8781   21.6812 H   0  0  0  0  0  0
  -26.0156  -38.2826   24.1417 H   0  0  0  0  0  0
  -26.4581  -22.3868   20.1591 H   0  0  0  0  0  0
  -25.8186  -20.1224   20.0982 H   0  0  0  0  0  0
  -26.5507  -19.4588   21.5595 H   0  0  0  0  0  0
  -27.0117  -18.8373   19.9698 H   0  0  0  0  0  0
  -32.3602  -24.7578   21.4751 H   0  0  0  0  0  0
  -31.8730  -23.1914   22.1199 H   0  0  0  0  0  0
  -30.7613  -24.5586   22.1916 H   0  0  0  0  0  0
  -30.0690  -16.8626   22.8460 H   0  0  0  0  0  0
  -29.7431  -15.1611   22.8727 H   0  0  0  0  0  0
  -28.4523  -16.2766   22.4258 H   0  0  0  0  0  0
  -26.8321  -24.5959   20.1745 H   0  0  0  0  0  0
  -27.8076  -24.7153   18.7330 H   0  0  0  0  0  0
  -28.8657  -18.6342   21.8610 H   0  0  0  0  0  0
  -30.5303  -19.0032   21.7110 H   0  0  0  0  0  0
  -30.6486  -24.5819   19.6707 H   0  0  0  0  0  0
  -31.7365  -23.2246   19.6017 H   0  0  0  0  0  0
  -30.7781  -17.5711   19.6598 H   0  0  0  0  0  0
  -29.0646  -17.3997   19.5156 H   0  0  0  0  0  0
  1 25  1  0  0  0
  1 30  2  0  0  0
  1 84  1  0  0  0
  2  3  1  0  0  0
  2 25  1  0  0  0
  2 85  1  0  0  0
  2 86  1  0  0  0
  3  4  1  0  0  0
  3 87  1  0  0  0
  3 88  1  0  0  0
  4  5  1  0  0  0
  4 89  1  0  0  0
  4 90  1  0  0  0
  5  6  1  0  0  0
  5 26  1  0  0  0
  5 91  1  0  0  0
  6 25  1  0  0  0
  6 92  1  0  0  0
  6 93  1  0  0  0
  7  8  2  0  0  0
  7 26  1  0  0  0
  7 29  1  0  0  0
  8  9  1  0  0  0
  8 22  1  0  0  0
  9 10  1  0  0  0
  9 27  2  0  0  0
 10 11  2  0  0  0
 10 15  1  0  0  0
 11 12  1  0  0  0
 11 94  1  0  0  0
 12 13  2  0  0  0
 12 95  1  0  0  0
 13 14  1  0  0  0
 13 31  1  0  0  0
 14 15  2  0  0  0
 14 96  1  0  0  0
 15 97  1  0  0  0
 16 17  2  0  0  0
 16 21  1  0  0  0
 16 31  1  0  0  0
 17 18  1  0  0  0
 17 98  1  0  0  0
 18 19  2  0  0  0
 18 99  1  0  0  0
 19 20  1  0  0  0
 19 24  1  0  0  0
 20 21  2  0  0  0
 20100  1  0  0  0
 21 23  1  0  0  0
 22 28  1  0  0  0
 22 32  2  0  0  0
 26 27  1  0  0  0
 28101  1  0  0  0
 28102  1  0  0  0
 29103  1  0  0  0
 29104  1  0  0  0
 33 34  1  0  0  0
 33 66  1  0  0  0
 33 70  2  0  0  0
 34 36  1  0  0  0
 34 59  1  0  0  0
 34105  1  0  0  0
 35 44  2  0  0  0
 35 45  1  0  0  0
 35 68  1  0  0  0
 36 56  1  0  0  0
 36106  1  0  0  0
 37 39  1  0  0  0
 37 47  1  0  0  0
 37 66  1  0  0  0
 37107  1  0  0  0
 38 43  2  0  0  0
 38 46  1  0  0  0
 38 47  1  0  0  0
 39 64  1  0  0  0
 39 67  2  0  0  0
 40 52  1  0  0  0
 40 53  2  0  0  0
 40 58  1  0  0  0
 41108  1  0  0  0
 41109  1  0  0  0
 41110  1  0  0  0
 41 48  1  0  0  0
 42 43  1  0  0  0
 42 66  1  0  0  0
 42111  1  0  0  0
 42112  1  0  0  0
 43 44  1  0  0  0
 44113  1  0  0  0
 45 46  2  0  0  0
 45114  1  0  0  0
 46115  1  0  0  0
 47116  1  0  0  0
 47117  1  0  0  0
 48 56  1  0  0  0
 48 65  1  0  0  0
 48118  1  0  0  0
 49 50  1  0  0  0
 49 53  1  0  0  0
 49 64  1  0  0  0
 49119  1  0  0  0
 50 51  1  0  0  0
 50120  1  0  0  0
 50121  1  0  0  0
 51 52  1  0  0  0
 51122  1  0  0  0
 51123  1  0  0  0
 52124  1  0  0  0
 52125  1  0  0  0
 53 54  1  0  0  0
 54 55  2  0  0  0
 54126  1  0  0  0
 55 57  1  0  0  0
 55127  1  0  0  0
 56 69  2  0  0  0
 57 58  2  0  0  0
 57128  1  0  0  0
 58129  1  0  0  0
 59 60  1  0  0  0
 59 61  1  0  0  0
 59 62  1  0  0  0
 60130  1  0  0  0
 60131  1  0  0  0
 60132  1  0  0  0
 61133  1  0  0  0
 61134  1  0  0  0
 61135  1  0  0  0
 62136  1  0  0  0
 62137  1  0  0  0
 62138  1  0  0  0
 63 65  1  0  0  0
 63139  1  0  0  0
 63140  1  0  0  0
 63141  1  0  0  0
 64142  1  0  0  0
 65143  1  0  0  0
 68 79  1  0  0  0
 71 72  2  0  0  0
 71 73  1  0  0  0
 71144  1  0  0  0
 72 74  1  0  0  0
 72 76  1  0  0  0
 73 75  2  0  0  0
 73 79  1  0  0  0
 74 80  1  0  0  0
 74 83  2  0  0  0
 75 81  1  0  0  0
 75 83  1  0  0  0
 76145  1  0  0  0
 76146  1  0  0  0
 76147  1  0  0  0
 77 81  1  0  0  0
 77148  1  0  0  0
 77149  1  0  0  0
 77150  1  0  0  0
 78 84  1  0  0  0
 78151  1  0  0  0
 78152  1  0  0  0
 78153  1  0  0  0
 79154  1  0  0  0
 79155  1  0  0  0
 80 82  1  0  0  0
 80156  1  0  0  0
 80157  1  0  0  0
 81158  1  0  0  0
 81159  1  0  0  0
 82 84  1  0  0  0
 82160  1  0  0  0
 82161  1  0  0  0
M  ISO  4   1 100  68 101  79 101  84 100
M  END
> <chiral flag>
0

> <version>
0

> <s_m_source_file>
/data/baiqing/PycharmProjects/Reinvent-master-3.2/result/LINK_invent/BTK/process_docking_weight1_custom_sum_contain_oxygen_bond_distance_aromatic_linkinvent_7_9_3/rearranged_h_0046.sdf

> <i_m_source_file_index>
45

> <r_mmod_Potential_Energy-OPLS-2005>
420.898284912109

> <r_mmod_Stretch_Energy-OPLS-2005>
209.344924926758

> <r_mmod_Bend_Energy-OPLS-2005>
272.435729980469

> <r_mmod_Torsional_Energy-OPLS-2005>
278.996276855469

> <r_mmod_Improper_Torsional_Energy-OPLS-2005>
8.5672664642334

> <r_mmod_Van_der_Waal_Energy-OPLS-2005>
149.618041992188

> <r_mmod_Electrostatic_Energy-OPLS-2005>
-434.028076171875

> <r_mmod_Solvation_Energy-OPLS-2005>
-215.104797363281

> <b_mmod_Minimization_Converged-OPLS-2005>
0

> <r_mmod_RMS_Derivative-OPLS-2005>
0.611572861671448

$$$$
46
                    3D
 Structure written by MMmdl.
155163  0  0  1  0            999 V2000
  -30.6796  -14.5986   20.4819 C   0  0  0  0  0  0
  -30.4111  -12.3568   19.4596 C   0  0  0  0  0  0
  -29.4959  -12.4871   18.2246 C   0  0  0  0  0  0
  -28.0161  -12.3485   18.6334 C   0  0  0  0  0  0
  -27.6438  -13.2277   19.8574 C   0  0  2  0  0  0
  -28.6905  -13.1108   20.9882 C   0  0  0  0  0  0
  -25.2514  -13.8208   20.5740 C   0  0  0  0  0  0
  -24.1777  -13.0438   20.9204 C   0  0  0  0  0  0
  -24.6366  -11.6924   20.8721 C   0  0  0  0  0  0
  -23.9039  -10.4288   21.0385 C   0  0  0  0  0  0
  -24.3593   -9.4213   21.9167 C   0  0  0  0  0  0
  -23.6280   -8.2240   22.0749 C   0  0  0  0  0  0
  -22.4261   -8.0268   21.3541 C   0  0  0  0  0  0
  -21.9895   -9.0232   20.4629 C   0  0  0  0  0  0
  -22.7218  -10.2118   20.3039 C   0  0  0  0  0  0
  -21.6843   -6.0722   22.5280 C   0  0  0  0  0  0
  -21.4011   -6.5631   23.8208 C   0  0  0  0  0  0
  -21.3661   -5.6790   24.9167 C   0  0  0  0  0  0
  -21.6044   -4.3056   24.7221 C   0  0  0  0  0  0
  -21.8818   -3.8142   23.4349 C   0  0  0  0  0  0
  -21.9187   -4.6954   22.3406 C   0  0  0  0  0  0
  -22.7804  -13.5217   21.1881 C   0  0  0  0  0  0
  -22.1660   -4.2139   21.0983 F   0  0  0  0  0  0
  -21.5627   -3.4546   25.7741 F   0  0  0  0  0  0
  -30.0058  -13.4105   20.4092 N   0  0  0  0  0  0
  -26.2935  -12.9401   20.3333 N   0  0  0  0  0  0
  -25.9301  -11.6544   20.5752 N   0  0  0  0  0  0
  -22.0464  -12.8181   22.0434 N   0  0  0  0  0  0
  -25.4243  -15.1925   20.4262 N   0  0  0  0  0  0
  -31.8637  -14.6840   20.1517 O   0  0  0  0  0  0
  -21.6640   -6.8868   21.4239 O   0  0  0  0  0  0
  -22.3481  -14.5525   20.6744 O   0  0  0  0  0  0
  -24.6261  -31.8606   23.2063 C   0  0  0  0  0  0
  -25.9113  -32.4785   23.8379 C   0  0  1  0  0  0
  -27.2192  -27.3098   20.1172 C   0  0  0  0  0  0
  -25.5934  -33.8584   24.2298 N   0  0  0  0  0  0
  -23.4213  -30.4880   21.5449 C   0  0  2  0  0  0
  -24.8682  -28.9472   20.1103 C   0  0  0  0  0  0
  -22.7477  -29.4638   22.4891 C   0  0  0  0  0  0
  -18.0284  -28.1378   22.8485 C   0  0  0  0  0  0
  -24.1480  -36.7270   23.2637 C   0  0  0  0  0  0
  -25.9664  -30.7886   21.3834 C   0  0  0  0  0  0
  -26.0376  -29.4164   20.7208 C   0  0  0  0  0  0
  -27.2099  -28.6049   20.7238 C   0  0  0  0  0  0
  -26.0177  -26.8921   19.4957 C   0  0  0  0  0  0
  -24.8601  -27.6892   19.4934 C   0  0  0  0  0  0
  -23.6415  -29.8304   20.1574 C   0  0  0  0  0  0
  -25.4101  -36.3067   24.0341 C   0  0  1  0  0  0
  -20.5899  -28.3690   23.1268 C   0  0  2  0  0  0
  -20.6765  -26.9398   22.5415 C   0  0  0  0  0  0
  -19.5745  -26.6363   21.5220 C   0  0  0  0  0  0
  -18.1911  -26.7928   22.1605 C   0  0  0  0  0  0
  -19.1543  -28.8841   23.2867 C   0  0  0  0  0  0
  -18.9475  -30.1439   23.8886 C   0  0  0  0  0  0
  -17.6480  -30.6576   24.0574 C   0  0  0  0  0  0
  -25.9051  -34.9455   23.5117 C   0  0  0  0  0  0
  -16.5364  -29.9091   23.6331 C   0  0  0  0  0  0
  -16.7274  -28.6509   23.0356 C   0  0  0  0  0  0
  -26.4510  -31.6575   25.0719 C   0  0  0  0  0  0
  -25.3755  -31.3701   26.1445 C   0  0  0  0  0  0
  -27.0398  -30.3005   24.6183 C   0  0  0  0  0  0
  -27.6054  -32.4334   25.7479 C   0  0  0  0  0  0
  -27.5589  -37.1762   24.8446 C   0  0  0  0  0  0
  -21.4184  -29.3056   22.3661 N   0  0  0  0  0  0
  -26.4261  -37.3775   23.9454 N   0  0  0  0  0  0
  -24.6896  -31.0627   22.1014 N   0  0  0  0  0  0
  -23.4197  -28.8144   23.2948 O   0  0  0  0  0  0
  -28.3402  -26.4676   20.2054 O   0  0  0  0  0  0
  -26.5601  -34.8923   22.4676 O   0  0  0  0  0  0
  -23.5429  -32.1408   23.7380 O   0  0  0  0  0  0
  -29.0117  -23.4637   21.2494 C   0  0  0  0  0  0
  -29.1944  -21.5915   19.2553 C   0  0  0  0  0  0
  -29.4118  -22.1268   21.5831 C   0  0  0  0  0  0
  -29.5637  -21.1527   20.5433 C   0  0  0  0  0  0
  -28.7511  -23.8234   19.9079 C   0  0  0  0  0  0
  -30.3025  -19.7732   20.7234 C   0  0  0  0  0  0
  -28.4842  -25.2757   19.3475 C   0  0  0  0  0  0
  -29.5553  -18.3786   20.6141 C   0  0  0  0  0  0
  -30.5318  -17.1265   20.6873 C   0  0  0  0  0  0
  -29.7403  -21.7899   23.0420 C   0  0  0  0  0  0
  -28.8092  -22.8592   18.9532 N   0  0  0  0  0  0
  -29.9613  -15.7370   20.7192 N   0  0  0  0  0  0
  -29.1580  -22.6481   23.8819 F   0  0  0  0  0  0
  -29.3197  -20.5659   23.3651 F   0  0  0  0  0  0
  -31.0599  -21.8526   23.2210 F   0  0  0  0  0  0
  -31.4593  -12.4354   19.1676 H   0  0  0  0  0  0
  -30.3026  -11.3718   19.9194 H   0  0  0  0  0  0
  -29.7496  -11.7266   17.4854 H   0  0  0  0  0  0
  -29.6588  -13.4519   17.7415 H   0  0  0  0  0  0
  -27.8352  -11.2984   18.8660 H   0  0  0  0  0  0
  -27.3682  -12.5876   17.7892 H   0  0  0  0  0  0
  -27.6544  -14.2585   19.5048 H   0  0  0  0  0  0
  -28.6845  -12.1054   21.4135 H   0  0  0  0  0  0
  -28.4535  -13.7901   21.8092 H   0  0  0  0  0  0
  -25.2719   -9.5698   22.4761 H   0  0  0  0  0  0
  -23.9985   -7.4641   22.7477 H   0  0  0  0  0  0
  -21.0831   -8.8730   19.8937 H   0  0  0  0  0  0
  -22.3648  -10.9652   19.6156 H   0  0  0  0  0  0
  -21.2009   -7.6135   23.9705 H   0  0  0  0  0  0
  -21.1488   -6.0521   25.9070 H   0  0  0  0  0  0
  -22.0599   -2.7601   23.2854 H   0  0  0  0  0  0
  -22.4081  -11.9806   22.4755 H   0  0  0  0  0  0
  -21.1100  -13.1199   22.2700 H   0  0  0  0  0  0
  -24.6670  -15.8539   20.5606 H   0  0  0  0  0  0
  -26.2887  -15.6382   20.1461 H   0  0  0  0  0  0
  -26.7178  -32.5471   23.1131 H   0  0  0  0  0  0
  -25.0115  -33.9736   25.0471 H   0  0  0  0  0  0
  -22.7147  -31.3080   21.4009 H   0  0  0  0  0  0
  -23.3765  -35.9572   23.3232 H   0  0  0  0  0  0
  -24.3580  -36.8958   22.2058 H   0  0  0  0  0  0
  -23.7216  -37.6445   23.6713 H   0  0  0  0  0  0
  -26.1071  -31.5540   20.6197 H   0  0  0  0  0  0
  -26.8458  -30.8339   22.0156 H   0  0  0  0  0  0
  -28.1017  -28.9506   21.2275 H   0  0  0  0  0  0
  -25.9063  -25.9210   19.0441 H   0  0  0  0  0  0
  -23.9571  -27.3186   19.0303 H   0  0  0  0  0  0
  -23.7784  -30.6128   19.4098 H   0  0  0  0  0  0
  -22.7607  -29.2695   19.8394 H   0  0  0  0  0  0
  -25.1277  -36.1892   25.0827 H   0  0  0  0  0  0
  -20.9992  -28.3283   24.1403 H   0  0  0  0  0  0
  -20.5658  -26.2303   23.3627 H   0  0  0  0  0  0
  -21.6638  -26.7409   22.1238 H   0  0  0  0  0  0
  -19.6905  -25.6276   21.1253 H   0  0  0  0  0  0
  -19.6698  -27.3168   20.6751 H   0  0  0  0  0  0
  -17.4204  -26.6719   21.3966 H   0  0  0  0  0  0
  -18.0243  -26.0042   22.8959 H   0  0  0  0  0  0
  -19.7952  -30.7244   24.2251 H   0  0  0  0  0  0
  -17.5045  -31.6261   24.5171 H   0  0  0  0  0  0
  -15.5375  -30.3006   23.7651 H   0  0  0  0  0  0
  -15.8661  -28.0842   22.7086 H   0  0  0  0  0  0
  -24.5969  -30.6997   25.7780 H   0  0  0  0  0  0
  -24.8908  -32.2864   26.4816 H   0  0  0  0  0  0
  -25.8081  -30.8928   27.0241 H   0  0  0  0  0  0
  -26.2997  -29.6676   24.1266 H   0  0  0  0  0  0
  -27.4193  -29.7313   25.4679 H   0  0  0  0  0  0
  -27.8799  -30.4307   23.9360 H   0  0  0  0  0  0
  -27.2673  -33.3669   26.1991 H   0  0  0  0  0  0
  -28.3872  -32.6841   25.0295 H   0  0  0  0  0  0
  -28.0704  -31.8508   26.5443 H   0  0  0  0  0  0
  -28.2518  -38.0141   24.7635 H   0  0  0  0  0  0
  -28.1182  -36.2699   24.6090 H   0  0  0  0  0  0
  -27.2333  -37.1182   25.8841 H   0  0  0  0  0  0
  -20.9339  -29.8831   21.6932 H   0  0  0  0  0  0
  -26.0125  -38.2819   24.1558 H   0  0  0  0  0  0
  -28.9493  -24.2185   22.0220 H   0  0  0  0  0  0
  -29.2828  -20.9175   18.4167 H   0  0  0  0  0  0
  -30.8506  -19.7829   21.6651 H   0  0  0  0  0  0
  -31.0962  -19.7719   19.9736 H   0  0  0  0  0  0
  -27.7157  -25.1918   18.5855 H   0  0  0  0  0  0
  -29.3706  -25.5016   18.7559 H   0  0  0  0  0  0
  -29.0007  -18.3363   19.6753 H   0  0  0  0  0  0
  -28.8178  -18.3109   21.4139 H   0  0  0  0  0  0
  -31.1622  -17.2287   21.5711 H   0  0  0  0  0  0
  -31.2172  -17.1921   19.8391 H   0  0  0  0  0  0
  -28.9736  -15.6326   20.8971 H   0  0  0  0  0  0
  1 25  1  0  0  0
  1 30  2  0  0  0
  1 82  1  0  0  0
  2  3  1  0  0  0
  2 25  1  0  0  0
  2 86  1  0  0  0
  2 87  1  0  0  0
  3  4  1  0  0  0
  3 88  1  0  0  0
  3 89  1  0  0  0
  4  5  1  0  0  0
  4 90  1  0  0  0
  4 91  1  0  0  0
  5  6  1  0  0  0
  5 26  1  0  0  0
  5 92  1  0  0  0
  6 25  1  0  0  0
  6 93  1  0  0  0
  6 94  1  0  0  0
  7  8  2  0  0  0
  7 26  1  0  0  0
  7 29  1  0  0  0
  8  9  1  0  0  0
  8 22  1  0  0  0
  9 10  1  0  0  0
  9 27  2  0  0  0
 10 11  2  0  0  0
 10 15  1  0  0  0
 11 12  1  0  0  0
 11 95  1  0  0  0
 12 13  2  0  0  0
 12 96  1  0  0  0
 13 14  1  0  0  0
 13 31  1  0  0  0
 14 15  2  0  0  0
 14 97  1  0  0  0
 15 98  1  0  0  0
 16 17  2  0  0  0
 16 21  1  0  0  0
 16 31  1  0  0  0
 17 18  1  0  0  0
 17 99  1  0  0  0
 18 19  2  0  0  0
 18100  1  0  0  0
 19 20  1  0  0  0
 19 24  1  0  0  0
 20 21  2  0  0  0
 20101  1  0  0  0
 21 23  1  0  0  0
 22 28  1  0  0  0
 22 32  2  0  0  0
 26 27  1  0  0  0
 28102  1  0  0  0
 28103  1  0  0  0
 29104  1  0  0  0
 29105  1  0  0  0
 33 34  1  0  0  0
 33 66  1  0  0  0
 33 70  2  0  0  0
 34 36  1  0  0  0
 34 59  1  0  0  0
 34106  1  0  0  0
 35 44  2  0  0  0
 35 45  1  0  0  0
 35 68  1  0  0  0
 36 56  1  0  0  0
 36107  1  0  0  0
 37 39  1  0  0  0
 37 47  1  0  0  0
 37 66  1  0  0  0
 37108  1  0  0  0
 38 43  2  0  0  0
 38 46  1  0  0  0
 38 47  1  0  0  0
 39 64  1  0  0  0
 39 67  2  0  0  0
 40 52  1  0  0  0
 40 53  2  0  0  0
 40 58  1  0  0  0
 41109  1  0  0  0
 41110  1  0  0  0
 41111  1  0  0  0
 41 48  1  0  0  0
 42 43  1  0  0  0
 42 66  1  0  0  0
 42112  1  0  0  0
 42113  1  0  0  0
 43 44  1  0  0  0
 44114  1  0  0  0
 45 46  2  0  0  0
 45115  1  0  0  0
 46116  1  0  0  0
 47117  1  0  0  0
 47118  1  0  0  0
 48 56  1  0  0  0
 48 65  1  0  0  0
 48119  1  0  0  0
 49 50  1  0  0  0
 49 53  1  0  0  0
 49 64  1  0  0  0
 49120  1  0  0  0
 50 51  1  0  0  0
 50121  1  0  0  0
 50122  1  0  0  0
 51 52  1  0  0  0
 51123  1  0  0  0
 51124  1  0  0  0
 52125  1  0  0  0
 52126  1  0  0  0
 53 54  1  0  0  0
 54 55  2  0  0  0
 54127  1  0  0  0
 55 57  1  0  0  0
 55128  1  0  0  0
 56 69  2  0  0  0
 57 58  2  0  0  0
 57129  1  0  0  0
 58130  1  0  0  0
 59 60  1  0  0  0
 59 61  1  0  0  0
 59 62  1  0  0  0
 60131  1  0  0  0
 60132  1  0  0  0
 60133  1  0  0  0
 61134  1  0  0  0
 61135  1  0  0  0
 61136  1  0  0  0
 62137  1  0  0  0
 62138  1  0  0  0
 62139  1  0  0  0
 63 65  1  0  0  0
 63140  1  0  0  0
 63141  1  0  0  0
 63142  1  0  0  0
 64143  1  0  0  0
 65144  1  0  0  0
 68 77  1  0  0  0
 71 73  2  0  0  0
 71 75  1  0  0  0
 71145  1  0  0  0
 72 74  2  0  0  0
 72 81  1  0  0  0
 72146  1  0  0  0
 73 74  1  0  0  0
 73 80  1  0  0  0
 74 76  1  0  0  0
 75 77  1  0  0  0
 75 81  2  0  0  0
 76 78  1  0  0  0
 76147  1  0  0  0
 76148  1  0  0  0
 77149  1  0  0  0
 77150  1  0  0  0
 78 79  1  0  0  0
 78151  1  0  0  0
 78152  1  0  0  0
 79 82  1  0  0  0
 79153  1  0  0  0
 79154  1  0  0  0
 80 83  1  0  0  0
 80 84  1  0  0  0
 80 85  1  0  0  0
 82155  1  0  0  0
M  ISO  4   1 100  68 101  77 101  82 100
M  END
> <chiral flag>
0

> <version>
0

> <s_m_source_file>
/data/baiqing/PycharmProjects/Reinvent-master-3.2/result/LINK_invent/BTK/process_docking_weight1_custom_sum_contain_oxygen_bond_distance_aromatic_linkinvent_7_9_3/rearranged_h_0046.sdf

> <i_m_source_file_index>
46

> <r_mmod_Potential_Energy-OPLS-2005>
-14.1014814376831

> <r_mmod_Stretch_Energy-OPLS-2005>
75.4438705444336

> <r_mmod_Bend_Energy-OPLS-2005>
152.442962646484

> <r_mmod_Torsional_Energy-OPLS-2005>
214.512496948242

> <r_mmod_Improper_Torsional_Energy-OPLS-2005>
6.02654790878296

> <r_mmod_Van_der_Waal_Energy-OPLS-2005>
151.803176879883

> <r_mmod_Electrostatic_Energy-OPLS-2005>
-449.861633300781

> <r_mmod_Solvation_Energy-OPLS-2005>
-213.141738891602

> <b_mmod_Minimization_Converged-OPLS-2005>
0

> <r_mmod_RMS_Derivative-OPLS-2005>
3.01412796974182

$$$$
47
                    3D
 Structure written by MMmdl.
164171  0  0  1  0            999 V2000
  -30.6253  -14.6761   20.4778 C   0  0  0  0  0  0
  -30.4306  -12.4108   19.4642 C   0  0  0  0  0  0
  -29.5058  -12.4868   18.2301 C   0  0  0  0  0  0
  -28.0299  -12.3275   18.6460 C   0  0  0  0  0  0
  -27.6451  -13.2223   19.8554 C   0  0  2  0  0  0
  -28.6891  -13.1240   20.9880 C   0  0  0  0  0  0
  -25.2521  -13.8182   20.5695 C   0  0  0  0  0  0
  -24.1802  -13.0428   20.9216 C   0  0  0  0  0  0
  -24.6382  -11.6907   20.8767 C   0  0  0  0  0  0
  -23.9060  -10.4286   21.0414 C   0  0  0  0  0  0
  -24.3618   -9.4206   21.9203 C   0  0  0  0  0  0
  -23.6301   -8.2236   22.0757 C   0  0  0  0  0  0
  -22.4275   -8.0279   21.3549 C   0  0  0  0  0  0
  -21.9905   -9.0246   20.4652 C   0  0  0  0  0  0
  -22.7224  -10.2136   20.3060 C   0  0  0  0  0  0
  -21.6853   -6.0730   22.5296 C   0  0  0  0  0  0
  -21.4019   -6.5640   23.8227 C   0  0  0  0  0  0
  -21.3665   -5.6794   24.9182 C   0  0  0  0  0  0
  -21.6044   -4.3056   24.7235 C   0  0  0  0  0  0
  -21.8829   -3.8149   23.4359 C   0  0  0  0  0  0
  -21.9191   -4.6961   22.3411 C   0  0  0  0  0  0
  -22.7826  -13.5212   21.1896 C   0  0  0  0  0  0
  -22.1644   -4.2146   21.0979 F   0  0  0  0  0  0
  -21.5624   -3.4544   25.7751 F   0  0  0  0  0  0
  -29.9965  -13.4600   20.4102 N   0  0  0  0  0  0
  -26.2947  -12.9369   20.3309 N   0  0  0  0  0  0
  -25.9310  -11.6526   20.5771 N   0  0  0  0  0  0
  -22.0454  -12.8175   22.0408 N   0  0  0  0  0  0
  -25.4216  -15.1902   20.4093 N   0  0  0  0  0  0
  -31.8088  -14.7931   20.1459 O   0  0  0  0  0  0
  -21.6636   -6.8874   21.4251 O   0  0  0  0  0  0
  -22.3515  -14.5537   20.6773 O   0  0  0  0  0  0
  -24.6274  -31.8573   23.1980 C   0  0  0  0  0  0
  -25.9101  -32.4767   23.8332 C   0  0  1  0  0  0
  -27.2276  -27.3062   20.1348 C   0  0  0  0  0  0
  -25.5911  -33.8571   24.2258 N   0  0  0  0  0  0
  -23.4217  -30.4771   21.5404 C   0  0  2  0  0  0
  -24.8685  -28.9173   20.1196 C   0  0  0  0  0  0
  -22.7476  -29.4611   22.4933 C   0  0  0  0  0  0
  -18.0281  -28.1389   22.8484 C   0  0  0  0  0  0
  -24.1481  -36.7304   23.2643 C   0  0  0  0  0  0
  -25.9621  -30.7849   21.3680 C   0  0  0  0  0  0
  -26.0358  -29.4063   20.7199 C   0  0  0  0  0  0
  -27.2223  -28.6142   20.7111 C   0  0  0  0  0  0
  -26.0395  -26.8572   19.5251 C   0  0  0  0  0  0
  -24.8713  -27.6478   19.5132 C   0  0  0  0  0  0
  -23.6370  -29.8007   20.1595 C   0  0  0  0  0  0
  -25.4103  -36.3086   24.0331 C   0  0  1  0  0  0
  -20.5885  -28.3684   23.1287 C   0  0  2  0  0  0
  -20.6775  -26.9407   22.5411 C   0  0  0  0  0  0
  -19.5750  -26.6386   21.5211 C   0  0  0  0  0  0
  -18.1927  -26.7935   22.1620 C   0  0  0  0  0  0
  -19.1538  -28.8854   23.2880 C   0  0  0  0  0  0
  -18.9458  -30.1460   23.8888 C   0  0  0  0  0  0
  -17.6458  -30.6583   24.0564 C   0  0  0  0  0  0
  -25.9045  -34.9453   23.5099 C   0  0  0  0  0  0
  -16.5349  -29.9077   23.6333 C   0  0  0  0  0  0
  -16.7273  -28.6503   23.0342 C   0  0  0  0  0  0
  -26.4480  -31.6581   25.0712 C   0  0  0  0  0  0
  -25.3721  -31.3712   26.1442 C   0  0  0  0  0  0
  -27.0325  -30.3008   24.6159 C   0  0  0  0  0  0
  -27.6048  -32.4314   25.7479 C   0  0  0  0  0  0
  -27.5569  -37.1813   24.8466 C   0  0  0  0  0  0
  -21.4190  -29.3044   22.3689 N   0  0  0  0  0  0
  -26.4278  -37.3789   23.9417 N   0  0  0  0  0  0
  -24.6894  -31.0578   22.0925 N   0  0  0  0  0  0
  -23.4199  -28.8147   23.3021 O   0  0  0  0  0  0
  -28.3620  -26.4885   20.0913 O   0  0  0  0  0  0
  -26.5616  -34.8928   22.4669 O   0  0  0  0  0  0
  -23.5429  -32.1372   23.7297 O   0  0  0  0  0  0
  -25.4777  -21.3524   20.2082 C   0  0  0  0  0  0
  -25.2424  -21.3965   22.7140 C   0  0  0  0  0  0
  -29.1424  -18.3979   20.6418 C   0  0  0  0  0  0
  -30.2694  -17.2505   20.6290 C   0  0  0  0  0  0
  -29.5944  -19.9563   20.6703 C   0  0  0  0  0  0
  -27.4950  -20.8514   21.6967 C   0  0  0  0  0  0
  -29.1152  -22.5141   20.7554 C   0  0  0  0  0  0
  -28.3731  -25.1819   20.7951 C   0  0  0  0  0  0
  -26.1912  -21.6676   21.5350 C   0  0  0  0  0  0
  -28.3953  -23.7689   20.0291 C   0  0  1  0  0  0
  -29.8502  -15.7926   20.7090 N   0  0  0  0  0  0
  -28.5415  -21.0870   20.6548 N   0  3  1  0  0  0
  -29.0175  -23.9386   18.8602 F   0  0  0  0  0  0
  -31.4724  -12.5315   19.1617 H   0  0  0  0  0  0
  -30.3686  -11.4271   19.9341 H   0  0  0  0  0  0
  -29.7752  -11.7092   17.5139 H   0  0  0  0  0  0
  -29.6481  -13.4399   17.7190 H   0  0  0  0  0  0
  -27.8745  -11.2782   18.9004 H   0  0  0  0  0  0
  -27.3718  -12.5333   17.7993 H   0  0  0  0  0  0
  -27.6507  -14.2502   19.4929 H   0  0  0  0  0  0
  -28.7143  -12.1162   21.4043 H   0  0  0  0  0  0
  -28.4377  -13.7901   21.8159 H   0  0  0  0  0  0
  -25.2772   -9.5683   22.4779 H   0  0  0  0  0  0
  -24.0032   -7.4613   22.7437 H   0  0  0  0  0  0
  -21.0856   -8.8735   19.8948 H   0  0  0  0  0  0
  -22.3675  -10.9663   19.6159 H   0  0  0  0  0  0
  -21.2001   -7.6154   23.9733 H   0  0  0  0  0  0
  -21.1474   -6.0516   25.9090 H   0  0  0  0  0  0
  -22.0605   -2.7611   23.2848 H   0  0  0  0  0  0
  -22.4037  -11.9787   22.4733 H   0  0  0  0  0  0
  -21.1069  -13.1191   22.2616 H   0  0  0  0  0  0
  -24.6544  -15.8432   20.5271 H   0  0  0  0  0  0
  -26.2579  -15.6255   20.0442 H   0  0  0  0  0  0
  -26.7168  -32.5417   23.1085 H   0  0  0  0  0  0
  -25.0080  -33.9728   25.0412 H   0  0  0  0  0  0
  -22.7171  -31.2974   21.3908 H   0  0  0  0  0  0
  -23.3739  -35.9638   23.3302 H   0  0  0  0  0  0
  -24.3578  -36.8925   22.2058 H   0  0  0  0  0  0
  -23.7226  -37.6505   23.6664 H   0  0  0  0  0  0
  -26.0906  -31.5404   20.5918 H   0  0  0  0  0  0
  -26.8453  -30.8405   21.9931 H   0  0  0  0  0  0
  -28.1243  -28.9913   21.1695 H   0  0  0  0  0  0
  -26.0174  -25.8858   19.0505 H   0  0  0  0  0  0
  -23.9760  -27.2688   19.0393 H   0  0  0  0  0  0
  -23.7580  -30.5711   19.3974 H   0  0  0  0  0  0
  -22.7583  -29.2278   19.8595 H   0  0  0  0  0  0
  -25.1285  -36.1945   25.0824 H   0  0  0  0  0  0
  -20.9979  -28.3251   24.1405 H   0  0  0  0  0  0
  -20.5666  -26.2294   23.3610 H   0  0  0  0  0  0
  -21.6645  -26.7433   22.1204 H   0  0  0  0  0  0
  -19.6905  -25.6296   21.1235 H   0  0  0  0  0  0
  -19.6686  -27.3201   20.6745 H   0  0  0  0  0  0
  -17.4202  -26.6687   21.4012 H   0  0  0  0  0  0
  -18.0313  -26.0073   22.9011 H   0  0  0  0  0  0
  -19.7936  -30.7288   24.2245 H   0  0  0  0  0  0
  -17.5007  -31.6258   24.5176 H   0  0  0  0  0  0
  -15.5351  -30.2974   23.7665 H   0  0  0  0  0  0
  -15.8674  -28.0826   22.7052 H   0  0  0  0  0  0
  -24.5909  -30.7040   25.7783 H   0  0  0  0  0  0
  -24.8901  -32.2873   26.4871 H   0  0  0  0  0  0
  -25.8066  -30.8901   27.0216 H   0  0  0  0  0  0
  -26.2893  -29.6760   24.1189 H   0  0  0  0  0  0
  -27.4031  -29.7266   25.4662 H   0  0  0  0  0  0
  -27.8760  -30.4305   23.9370 H   0  0  0  0  0  0
  -27.2667  -33.3621   26.2043 H   0  0  0  0  0  0
  -28.3867  -32.6849   25.0311 H   0  0  0  0  0  0
  -28.0694  -31.8431   26.5404 H   0  0  0  0  0  0
  -28.2604  -38.0101   24.7519 H   0  0  0  0  0  0
  -28.1046  -36.2639   24.6276 H   0  0  0  0  0  0
  -27.2300  -37.1445   25.8873 H   0  0  0  0  0  0
  -20.9360  -29.8779   21.6917 H   0  0  0  0  0  0
  -26.0156  -38.2865   24.1410 H   0  0  0  0  0  0
  -24.5173  -21.8652   20.1441 H   0  0  0  0  0  0
  -25.2820  -20.2842   20.1070 H   0  0  0  0  0  0
  -26.0597  -21.6599   19.3394 H   0  0  0  0  0  0
  -24.3114  -21.9555   22.6103 H   0  0  0  0  0  0
  -25.6922  -21.6910   23.6640 H   0  0  0  0  0  0
  -24.9836  -20.3396   22.7838 H   0  0  0  0  0  0
  -28.5290  -18.1890   21.5169 H   0  0  0  0  0  0
  -28.4929  -18.2457   19.7791 H   0  0  0  0  0  0
  -30.9458  -17.4268   21.4663 H   0  0  0  0  0  0
  -30.8754  -17.3746   19.7303 H   0  0  0  0  0  0
  -30.2555  -20.1245   19.8188 H   0  0  0  0  0  0
  -30.2193  -20.1030   21.5525 H   0  0  0  0  0  0
  -27.1906  -19.8083   21.6975 H   0  0  0  0  0  0
  -27.9317  -21.0314   22.6816 H   0  0  0  0  0  0
  -29.2441  -22.7492   21.8135 H   0  0  0  0  0  0
  -30.1362  -22.4810   20.3722 H   0  0  0  0  0  0
  -29.2824  -25.2232   21.3942 H   0  0  0  0  0  0
  -27.5650  -25.1630   21.5287 H   0  0  0  0  0  0
  -26.4133  -22.7322   21.5798 H   0  0  0  0  0  0
  -27.3735  -23.5284   19.7499 H   0  0  0  0  0  0
  -28.8800  -15.6104   20.9163 H   0  0  0  0  0  0
  -28.0911  -21.0168   19.7547 H   0  0  0  0  0  0
  1 25  1  0  0  0
  1 30  2  0  0  0
  1 81  1  0  0  0
  2  3  1  0  0  0
  2 25  1  0  0  0
  2 84  1  0  0  0
  2 85  1  0  0  0
  3  4  1  0  0  0
  3 86  1  0  0  0
  3 87  1  0  0  0
  4  5  1  0  0  0
  4 88  1  0  0  0
  4 89  1  0  0  0
  5  6  1  0  0  0
  5 26  1  0  0  0
  5 90  1  0  0  0
  6 25  1  0  0  0
  6 91  1  0  0  0
  6 92  1  0  0  0
  7  8  2  0  0  0
  7 26  1  0  0  0
  7 29  1  0  0  0
  8  9  1  0  0  0
  8 22  1  0  0  0
  9 10  1  0  0  0
  9 27  2  0  0  0
 10 11  2  0  0  0
 10 15  1  0  0  0
 11 12  1  0  0  0
 11 93  1  0  0  0
 12 13  2  0  0  0
 12 94  1  0  0  0
 13 14  1  0  0  0
 13 31  1  0  0  0
 14 15  2  0  0  0
 14 95  1  0  0  0
 15 96  1  0  0  0
 16 17  2  0  0  0
 16 21  1  0  0  0
 16 31  1  0  0  0
 17 18  1  0  0  0
 17 97  1  0  0  0
 18 19  2  0  0  0
 18 98  1  0  0  0
 19 20  1  0  0  0
 19 24  1  0  0  0
 20 21  2  0  0  0
 20 99  1  0  0  0
 21 23  1  0  0  0
 22 28  1  0  0  0
 22 32  2  0  0  0
 26 27  1  0  0  0
 28100  1  0  0  0
 28101  1  0  0  0
 29102  1  0  0  0
 29103  1  0  0  0
 33 34  1  0  0  0
 33 66  1  0  0  0
 33 70  2  0  0  0
 34 36  1  0  0  0
 34 59  1  0  0  0
 34104  1  0  0  0
 35 44  2  0  0  0
 35 45  1  0  0  0
 35 68  1  0  0  0
 36 56  1  0  0  0
 36105  1  0  0  0
 37 39  1  0  0  0
 37 47  1  0  0  0
 37 66  1  0  0  0
 37106  1  0  0  0
 38 43  2  0  0  0
 38 46  1  0  0  0
 38 47  1  0  0  0
 39 64  1  0  0  0
 39 67  2  0  0  0
 40 52  1  0  0  0
 40 53  2  0  0  0
 40 58  1  0  0  0
 41107  1  0  0  0
 41108  1  0  0  0
 41109  1  0  0  0
 41 48  1  0  0  0
 42 43  1  0  0  0
 42 66  1  0  0  0
 42110  1  0  0  0
 42111  1  0  0  0
 43 44  1  0  0  0
 44112  1  0  0  0
 45 46  2  0  0  0
 45113  1  0  0  0
 46114  1  0  0  0
 47115  1  0  0  0
 47116  1  0  0  0
 48 56  1  0  0  0
 48 65  1  0  0  0
 48117  1  0  0  0
 49 50  1  0  0  0
 49 53  1  0  0  0
 49 64  1  0  0  0
 49118  1  0  0  0
 50 51  1  0  0  0
 50119  1  0  0  0
 50120  1  0  0  0
 51 52  1  0  0  0
 51121  1  0  0  0
 51122  1  0  0  0
 52123  1  0  0  0
 52124  1  0  0  0
 53 54  1  0  0  0
 54 55  2  0  0  0
 54125  1  0  0  0
 55 57  1  0  0  0
 55126  1  0  0  0
 56 69  2  0  0  0
 57 58  2  0  0  0
 57127  1  0  0  0
 58128  1  0  0  0
 59 60  1  0  0  0
 59 61  1  0  0  0
 59 62  1  0  0  0
 60129  1  0  0  0
 60130  1  0  0  0
 60131  1  0  0  0
 61132  1  0  0  0
 61133  1  0  0  0
 61134  1  0  0  0
 62135  1  0  0  0
 62136  1  0  0  0
 62137  1  0  0  0
 63 65  1  0  0  0
 63138  1  0  0  0
 63139  1  0  0  0
 63140  1  0  0  0
 64141  1  0  0  0
 65142  1  0  0  0
 68 78  1  0  0  0
 71143  1  0  0  0
 71144  1  0  0  0
 71145  1  0  0  0
 71 79  1  0  0  0
 72 79  1  0  0  0
 72146  1  0  0  0
 72147  1  0  0  0
 72148  1  0  0  0
 73 74  1  0  0  0
 73 75  1  0  0  0
 73149  1  0  0  0
 73150  1  0  0  0
 74 81  1  0  0  0
 74151  1  0  0  0
 74152  1  0  0  0
 75153  1  0  0  0
 75154  1  0  0  0
 75 82  1  0  0  0
 76 79  1  0  0  0
 76 82  1  0  0  0
 76155  1  0  0  0
 76156  1  0  0  0
 77 80  1  0  0  0
 77 82  1  0  0  0
 77157  1  0  0  0
 77158  1  0  0  0
 78 80  1  0  0  0
 78159  1  0  0  0
 78160  1  0  0  0
 79161  1  0  0  0
 80 83  1  0  0  0
 80162  1  0  0  0
 81163  1  0  0  0
 82164  1  0  0  0
M  CHG  1  82   1
M  ISO  4   1 100  68 101  78 101  81 100
M  END
> <chiral flag>
0

> <version>
0

> <s_m_source_file>
/data/baiqing/PycharmProjects/Reinvent-master-3.2/result/LINK_invent/BTK/process_docking_weight1_custom_sum_contain_oxygen_bond_distance_aromatic_linkinvent_7_9_3/rearranged_h_0046.sdf

> <i_m_source_file_index>
47

> <r_mmod_Potential_Energy-OPLS-2005>
21.349328994751

> <r_mmod_Stretch_Energy-OPLS-2005>
105.713180541992

> <r_mmod_Bend_Energy-OPLS-2005>
159.736755371094

> <r_mmod_Torsional_Energy-OPLS-2005>
258.490112304688

> <r_mmod_Improper_Torsional_Energy-OPLS-2005>
4.88849973678589

> <r_mmod_Van_der_Waal_Energy-OPLS-2005>
117.196815490723

> <r_mmod_Electrostatic_Energy-OPLS-2005>
-223.362167358398

> <r_mmod_Solvation_Energy-OPLS-2005>
-457.249633789062

> <b_mmod_Minimization_Converged-OPLS-2005>
0

> <r_mmod_RMS_Derivative-OPLS-2005>
2.51528835296631

$$$$
48
                    3D
 Structure written by MMmdl.
154162  0  0  1  0            999 V2000
  -30.4448  -15.2561   20.3875 C   0  0  0  0  0  0
  -30.4405  -12.8069   19.5323 C   0  0  0  0  0  0
  -29.5368  -12.5822   18.2930 C   0  0  0  0  0  0
  -28.0838  -12.3072   18.7168 C   0  0  0  0  0  0
  -27.6123  -13.2771   19.8281 C   0  0  2  0  0  0
  -28.6455  -13.4437   20.9642 C   0  0  0  0  0  0
  -25.2391  -13.8271   20.5758 C   0  0  0  0  0  0
  -24.1734  -13.0446   20.9260 C   0  0  0  0  0  0
  -24.6394  -11.6944   20.8765 C   0  0  0  0  0  0
  -23.9091  -10.4292   21.0409 C   0  0  0  0  0  0
  -24.3634   -9.4207   21.9187 C   0  0  0  0  0  0
  -23.6305   -8.2244   22.0750 C   0  0  0  0  0  0
  -22.4293   -8.0279   21.3542 C   0  0  0  0  0  0
  -21.9927   -9.0250   20.4648 C   0  0  0  0  0  0
  -22.7258  -10.2127   20.3060 C   0  0  0  0  0  0
  -21.6853   -6.0740   22.5278 C   0  0  0  0  0  0
  -21.4014   -6.5641   23.8216 C   0  0  0  0  0  0
  -21.3659   -5.6795   24.9174 C   0  0  0  0  0  0
  -21.6051   -4.3055   24.7224 C   0  0  0  0  0  0
  -21.8815   -3.8147   23.4344 C   0  0  0  0  0  0
  -21.9194   -4.6970   22.3401 C   0  0  0  0  0  0
  -22.7752  -13.5193   21.1908 C   0  0  0  0  0  0
  -22.1662   -4.2155   21.0981 F   0  0  0  0  0  0
  -21.5625   -3.4541   25.7734 F   0  0  0  0  0  0
  -29.8815  -13.9484   20.3451 N   0  0  0  0  0  0
  -26.2806  -12.9536   20.3227 N   0  0  0  0  0  0
  -25.9333  -11.6640   20.5730 N   0  0  0  0  0  0
  -22.0416  -12.8163   22.0464 N   0  0  0  0  0  0
  -25.4021  -15.1998   20.4184 N   0  0  0  0  0  0
  -31.6606  -15.2604   20.1480 O   0  0  0  0  0  0
  -21.6643   -6.8886   21.4241 O   0  0  0  0  0  0
  -22.3433  -14.5484   20.6743 O   0  0  0  0  0  0
  -24.6581  -31.8244   23.1708 C   0  0  0  0  0  0
  -25.9285  -32.4594   23.8167 C   0  0  1  0  0  0
  -27.2297  -26.9391   20.2015 C   0  0  0  0  0  0
  -25.5965  -33.8405   24.2077 N   0  0  0  0  0  0
  -23.4732  -30.4328   21.5179 C   0  0  2  0  0  0
  -24.9287  -28.8127   20.1181 C   0  0  0  0  0  0
  -22.7648  -29.4444   22.4792 C   0  0  0  0  0  0
  -18.0319  -28.1408   22.8470 C   0  0  0  0  0  0
  -24.1491  -36.7206   23.2647 C   0  0  0  0  0  0
  -26.0384  -30.6359   21.3989 C   0  0  0  0  0  0
  -26.1060  -29.2217   20.7538 C   0  0  0  0  0  0
  -27.2463  -28.3058   20.7699 C   0  0  0  0  0  0
  -26.0238  -26.6749   19.5140 C   0  0  0  0  0  0
  -24.9099  -27.5581   19.4812 C   0  0  0  0  0  0
  -23.7137  -29.7409   20.1462 C   0  0  0  0  0  0
  -25.4135  -36.2963   24.0297 C   0  0  1  0  0  0
  -20.5939  -28.3746   23.1200 C   0  0  2  0  0  0
  -20.6795  -26.9432   22.5405 C   0  0  0  0  0  0
  -19.5769  -26.6377   21.5217 C   0  0  0  0  0  0
  -18.1954  -26.7942   22.1623 C   0  0  0  0  0  0
  -19.1581  -28.8898   23.2822 C   0  0  0  0  0  0
  -18.9488  -30.1493   23.8850 C   0  0  0  0  0  0
  -17.6483  -30.6598   24.0560 C   0  0  0  0  0  0
  -25.9095  -34.9355   23.5011 C   0  0  0  0  0  0
  -16.5378  -29.9084   23.6345 C   0  0  0  0  0  0
  -16.7301  -28.6507   23.0359 C   0  0  0  0  0  0
  -26.4554  -31.6538   25.0690 C   0  0  0  0  0  0
  -25.3689  -31.3785   26.1349 C   0  0  0  0  0  0
  -27.0450  -30.2903   24.6424 C   0  0  0  0  0  0
  -27.6042  -32.4349   25.7496 C   0  0  0  0  0  0
  -27.5571  -37.1759   24.8468 C   0  0  0  0  0  0
  -21.4319  -29.3032   22.3541 N   0  0  0  0  0  0
  -26.4280  -37.3703   23.9405 N   0  0  0  0  0  0
  -24.7437  -30.9923   22.0830 N   0  0  0  0  0  0
  -23.4201  -28.8033   23.3045 O   0  0  0  0  0  0
  -28.3204  -25.9266   20.2299 O   0  0  0  0  0  0
  -26.5709  -34.8885   22.4606 O   0  0  0  0  0  0
  -23.5658  -32.1216   23.6814 O   0  0  0  0  0  0
  -27.5938  -22.1126   20.1909 C   0  0  0  0  0  0
  -28.8206  -21.3365   20.3939 C   0  0  0  0  0  0
  -29.8138  -22.3959   20.5376 C   0  0  0  0  0  0
  -28.3853  -24.4245   20.2849 C   0  0  0  0  0  0
  -31.9319  -21.2823   19.6726 C   0  0  0  0  0  0
  -31.4624  -21.3809   22.1951 C   0  0  0  0  0  0
  -28.8567  -19.5833   20.6051 C   0  0  0  0  0  0
  -29.9243  -18.1692   20.2933 C   0  0  0  0  0  0
  -31.2724  -22.0504   20.8262 C   0  0  0  0  0  0
  -27.3784  -23.5215   20.1378 N   0  0  0  0  0  0
  -29.5907  -23.7986   20.4694 N   0  0  0  0  0  0
  -29.6792  -16.5243   20.5004 N   0  0  0  0  0  0
  -31.4600  -13.0090   19.2027 H   0  0  0  0  0  0
  -30.5083  -11.8984   20.1335 H   0  0  0  0  0  0
  -29.9143  -11.7557   17.6886 H   0  0  0  0  0  0
  -29.5683  -13.4690   17.6587 H   0  0  0  0  0  0
  -28.0344  -11.2803   19.0839 H   0  0  0  0  0  0
  -27.4173  -12.3577   17.8551 H   0  0  0  0  0  0
  -27.5323  -14.2468   19.3360 H   0  0  0  0  0  0
  -28.8074  -12.5044   21.4960 H   0  0  0  0  0  0
  -28.2859  -14.1607   21.7039 H   0  0  0  0  0  0
  -25.2778   -9.5678   22.4772 H   0  0  0  0  0  0
  -24.0011   -7.4632   22.7461 H   0  0  0  0  0  0
  -21.0870   -8.8783   19.8948 H   0  0  0  0  0  0
  -22.3733  -10.9669   19.6174 H   0  0  0  0  0  0
  -21.2012   -7.6152   23.9720 H   0  0  0  0  0  0
  -21.1484   -6.0524   25.9079 H   0  0  0  0  0  0
  -22.0597   -2.7613   23.2843 H   0  0  0  0  0  0
  -22.4041  -11.9839   22.4866 H   0  0  0  0  0  0
  -21.1023  -13.1152   22.2667 H   0  0  0  0  0  0
  -24.6291  -15.8491   20.5250 H   0  0  0  0  0  0
  -26.2397  -15.6364   20.0574 H   0  0  0  0  0  0
  -26.7358  -32.5146   23.0884 H   0  0  0  0  0  0
  -25.0060  -33.9494   25.0189 H   0  0  0  0  0  0
  -22.7853  -31.2628   21.3433 H   0  0  0  0  0  0
  -23.3768  -35.9522   23.3279 H   0  0  0  0  0  0
  -24.3567  -36.8884   22.2068 H   0  0  0  0  0  0
  -23.7241  -37.6380   23.6727 H   0  0  0  0  0  0
  -26.2155  -31.3758   20.6169 H   0  0  0  0  0  0
  -26.8989  -30.6961   22.0537 H   0  0  0  0  0  0
  -28.1455  -28.6250   21.2753 H   0  0  0  0  0  0
  -25.9186  -25.7207   19.0164 H   0  0  0  0  0  0
  -24.0145  -27.2398   18.9647 H   0  0  0  0  0  0
  -23.8713  -30.5046   19.3832 H   0  0  0  0  0  0
  -22.8250  -29.1915   19.8304 H   0  0  0  0  0  0
  -25.1336  -36.1759   25.0790 H   0  0  0  0  0  0
  -21.0033  -28.3353   24.1321 H   0  0  0  0  0  0
  -20.5672  -26.2370   23.3640 H   0  0  0  0  0  0
  -21.6659  -26.7409   22.1216 H   0  0  0  0  0  0
  -19.6924  -25.6275   21.1276 H   0  0  0  0  0  0
  -19.6707  -27.3161   20.6727 H   0  0  0  0  0  0
  -17.4222  -26.6692   21.4029 H   0  0  0  0  0  0
  -18.0345  -26.0095   22.9027 H   0  0  0  0  0  0
  -19.7967  -30.7326   24.2194 H   0  0  0  0  0  0
  -17.5034  -31.6270   24.5170 H   0  0  0  0  0  0
  -15.5375  -30.2967   23.7692 H   0  0  0  0  0  0
  -15.8709  -28.0810   22.7092 H   0  0  0  0  0  0
  -24.5888  -30.7117   25.7665 H   0  0  0  0  0  0
  -24.8858  -32.2979   26.4654 H   0  0  0  0  0  0
  -25.7918  -30.9035   27.0208 H   0  0  0  0  0  0
  -26.3113  -29.6575   24.1420 H   0  0  0  0  0  0
  -27.3965  -29.7275   25.5084 H   0  0  0  0  0  0
  -27.9061  -30.4079   23.9845 H   0  0  0  0  0  0
  -27.2610  -33.3693   26.1948 H   0  0  0  0  0  0
  -28.3918  -32.6843   25.0376 H   0  0  0  0  0  0
  -28.0641  -31.8565   26.5518 H   0  0  0  0  0  0
  -28.2567  -38.0074   24.7508 H   0  0  0  0  0  0
  -28.1084  -36.2597   24.6300 H   0  0  0  0  0  0
  -27.2284  -37.1409   25.8870 H   0  0  0  0  0  0
  -20.9573  -29.8710   21.6663 H   0  0  0  0  0  0
  -26.0126  -38.2758   24.1412 H   0  0  0  0  0  0
  -26.6795  -21.5469   20.0935 H   0  0  0  0  0  0
  -31.8829  -21.8611   18.7494 H   0  0  0  0  0  0
  -31.4396  -20.3312   19.4901 H   0  0  0  0  0  0
  -32.9827  -21.0817   19.8838 H   0  0  0  0  0  0
  -31.0239  -21.9882   22.9875 H   0  0  0  0  0  0
  -32.5209  -21.2547   22.4230 H   0  0  0  0  0  0
  -30.9962  -20.3999   22.2370 H   0  0  0  0  0  0
  -27.9223  -19.2895   20.1257 H   0  0  0  0  0  0
  -28.6378  -19.4939   21.6692 H   0  0  0  0  0  0
  -30.8479  -18.3716   20.8358 H   0  0  0  0  0  0
  -30.2018  -18.2472   19.2418 H   0  0  0  0  0  0
  -31.8183  -22.9939   20.8909 H   0  0  0  0  0  0
  -28.7119  -16.3230   20.7089 H   0  0  0  0  0  0
  1 25  1  0  0  0
  1 30  2  0  0  0
  1 82  1  0  0  0
  2  3  1  0  0  0
  2 25  1  0  0  0
  2 83  1  0  0  0
  2 84  1  0  0  0
  3  4  1  0  0  0
  3 85  1  0  0  0
  3 86  1  0  0  0
  4  5  1  0  0  0
  4 87  1  0  0  0
  4 88  1  0  0  0
  5  6  1  0  0  0
  5 26  1  0  0  0
  5 89  1  0  0  0
  6 25  1  0  0  0
  6 90  1  0  0  0
  6 91  1  0  0  0
  7  8  2  0  0  0
  7 26  1  0  0  0
  7 29  1  0  0  0
  8  9  1  0  0  0
  8 22  1  0  0  0
  9 10  1  0  0  0
  9 27  2  0  0  0
 10 11  2  0  0  0
 10 15  1  0  0  0
 11 12  1  0  0  0
 11 92  1  0  0  0
 12 13  2  0  0  0
 12 93  1  0  0  0
 13 14  1  0  0  0
 13 31  1  0  0  0
 14 15  2  0  0  0
 14 94  1  0  0  0
 15 95  1  0  0  0
 16 17  2  0  0  0
 16 21  1  0  0  0
 16 31  1  0  0  0
 17 18  1  0  0  0
 17 96  1  0  0  0
 18 19  2  0  0  0
 18 97  1  0  0  0
 19 20  1  0  0  0
 19 24  1  0  0  0
 20 21  2  0  0  0
 20 98  1  0  0  0
 21 23  1  0  0  0
 22 28  1  0  0  0
 22 32  2  0  0  0
 26 27  1  0  0  0
 28 99  1  0  0  0
 28100  1  0  0  0
 29101  1  0  0  0
 29102  1  0  0  0
 33 34  1  0  0  0
 33 66  1  0  0  0
 33 70  2  0  0  0
 34 36  1  0  0  0
 34 59  1  0  0  0
 34103  1  0  0  0
 35 44  2  0  0  0
 35 45  1  0  0  0
 35 68  1  0  0  0
 36 56  1  0  0  0
 36104  1  0  0  0
 37 39  1  0  0  0
 37 47  1  0  0  0
 37 66  1  0  0  0
 37105  1  0  0  0
 38 43  2  0  0  0
 38 46  1  0  0  0
 38 47  1  0  0  0
 39 64  1  0  0  0
 39 67  2  0  0  0
 40 52  1  0  0  0
 40 53  2  0  0  0
 40 58  1  0  0  0
 41106  1  0  0  0
 41107  1  0  0  0
 41108  1  0  0  0
 41 48  1  0  0  0
 42 43  1  0  0  0
 42 66  1  0  0  0
 42109  1  0  0  0
 42110  1  0  0  0
 43 44  1  0  0  0
 44111  1  0  0  0
 45 46  2  0  0  0
 45112  1  0  0  0
 46113  1  0  0  0
 47114  1  0  0  0
 47115  1  0  0  0
 48 56  1  0  0  0
 48 65  1  0  0  0
 48116  1  0  0  0
 49 50  1  0  0  0
 49 53  1  0  0  0
 49 64  1  0  0  0
 49117  1  0  0  0
 50 51  1  0  0  0
 50118  1  0  0  0
 50119  1  0  0  0
 51 52  1  0  0  0
 51120  1  0  0  0
 51121  1  0  0  0
 52122  1  0  0  0
 52123  1  0  0  0
 53 54  1  0  0  0
 54 55  2  0  0  0
 54124  1  0  0  0
 55 57  1  0  0  0
 55125  1  0  0  0
 56 69  2  0  0  0
 57 58  2  0  0  0
 57126  1  0  0  0
 58127  1  0  0  0
 59 60  1  0  0  0
 59 61  1  0  0  0
 59 62  1  0  0  0
 60128  1  0  0  0
 60129  1  0  0  0
 60130  1  0  0  0
 61131  1  0  0  0
 61132  1  0  0  0
 61133  1  0  0  0
 62134  1  0  0  0
 62135  1  0  0  0
 62136  1  0  0  0
 63 65  1  0  0  0
 63137  1  0  0  0
 63138  1  0  0  0
 63139  1  0  0  0
 64140  1  0  0  0
 65141  1  0  0  0
 68 74  1  0  0  0
 71 72  2  0  0  0
 71 80  1  0  0  0
 71142  1  0  0  0
 72 73  1  0  0  0
 72 77  1  0  0  0
 73 79  1  0  0  0
 73 81  2  0  0  0
 74 80  2  0  0  0
 74 81  1  0  0  0
 75143  1  0  0  0
 75144  1  0  0  0
 75145  1  0  0  0
 75 79  1  0  0  0
 76 79  1  0  0  0
 76146  1  0  0  0
 76147  1  0  0  0
 76148  1  0  0  0
 77 78  1  0  0  0
 77149  1  0  0  0
 77150  1  0  0  0
 78 82  1  0  0  0
 78151  1  0  0  0
 78152  1  0  0  0
 79153  1  0  0  0
 82154  1  0  0  0
M  ISO  4   1 100  68 101  74 101  82 100
M  END
> <chiral flag>
0

> <version>
0

> <s_m_source_file>
/data/baiqing/PycharmProjects/Reinvent-master-3.2/result/LINK_invent/BTK/process_docking_weight1_custom_sum_contain_oxygen_bond_distance_aromatic_linkinvent_7_9_3/rearranged_h_0046.sdf

> <i_m_source_file_index>
48

> <r_mmod_Potential_Energy-OPLS-2005>
708.718505859375

> <r_mmod_Stretch_Energy-OPLS-2005>
503.524230957031

> <r_mmod_Bend_Energy-OPLS-2005>
477.673400878906

> <r_mmod_Torsional_Energy-OPLS-2005>
196.609436035156

> <r_mmod_Improper_Torsional_Energy-OPLS-2005>
4.9640474319458

> <r_mmod_Van_der_Waal_Energy-OPLS-2005>
130.248168945312

> <r_mmod_Electrostatic_Energy-OPLS-2005>
-802.080444335938

> <r_mmod_Solvation_Energy-OPLS-2005>
-229.351379394531

> <b_mmod_Minimization_Converged-OPLS-2005>
0

> <r_mmod_RMS_Derivative-OPLS-2005>
2.37690329551697

$$$$
49
                    3D
 Structure written by MMmdl.
165173  0  0  1  0            999 V2000
  -30.7580  -14.6893   20.5580 C   0  0  0  0  0  0
  -30.4171  -12.4362   19.5648 C   0  0  0  0  0  0
  -29.5354  -12.4128   18.2828 C   0  0  0  0  0  0
  -28.0625  -12.8220   18.5321 C   0  0  0  0  0  0
  -27.7230  -12.7725   20.0254 C   0  0  2  0  0  0
  -28.6740  -13.3806   21.0418 C   0  0  0  0  0  0
  -25.3203  -13.7706   20.5519 C   0  0  0  0  0  0
  -24.1902  -13.0488   20.8950 C   0  0  0  0  0  0
  -24.5749  -11.6808   20.8618 C   0  0  0  0  0  0
  -23.8382  -10.4356   21.0401 C   0  0  0  0  0  0
  -24.3174   -9.4337   21.9123 C   0  0  0  0  0  0
  -23.5994   -8.2317   22.0689 C   0  0  0  0  0  0
  -22.4021   -8.0224   21.3475 C   0  0  0  0  0  0
  -21.9507   -9.0129   20.4549 C   0  0  0  0  0  0
  -22.6641  -10.2101   20.2954 C   0  0  0  0  0  0
  -21.6955   -6.0556   22.5263 C   0  0  0  0  0  0
  -21.4028   -6.5474   23.8158 C   0  0  0  0  0  0
  -21.3576   -5.6631   24.9106 C   0  0  0  0  0  0
  -21.5975   -4.2896   24.7223 C   0  0  0  0  0  0
  -21.8833   -3.7973   23.4381 C   0  0  0  0  0  0
  -21.9274   -4.6769   22.3434 C   0  0  0  0  0  0
  -22.8057  -13.5655   21.1554 C   0  0  0  0  0  0
  -22.1790   -4.1909   21.1029 F   0  0  0  0  0  0
  -21.5591   -3.4447   25.7741 F   0  0  0  0  0  0
  -30.0120  -13.5524   20.4520 N   0  0  0  0  0  0
  -26.3102  -12.7984   20.3770 N   0  0  0  0  0  0
  -25.8411  -11.5611   20.5937 N   0  0  0  0  0  0
  -22.0633  -12.8679   22.0141 N   0  0  0  0  0  0
  -25.5709  -15.1312   20.3970 N   0  0  0  0  0  0
  -31.9223  -14.6901   20.1555 O   0  0  0  0  0  0
  -21.6598   -6.8695   21.4230 O   0  0  0  0  0  0
  -22.3860  -14.5964   20.6405 O   0  0  0  0  0  0
  -24.6262  -31.8618   23.1994 C   0  0  0  0  0  0
  -25.9138  -32.4763   23.8311 C   0  0  1  0  0  0
  -27.2190  -27.3432   20.1181 C   0  0  0  0  0  0
  -25.5932  -33.8555   24.2244 N   0  0  0  0  0  0
  -23.4191  -30.4844   21.5438 C   0  0  2  0  0  0
  -24.8608  -28.9294   20.1281 C   0  0  0  0  0  0
  -22.7452  -29.4664   22.4936 C   0  0  0  0  0  0
  -18.0280  -28.1416   22.8471 C   0  0  0  0  0  0
  -24.1493  -36.7264   23.2642 C   0  0  0  0  0  0
  -25.9567  -30.8032   21.3633 C   0  0  0  0  0  0
  -26.0347  -29.4282   20.7106 C   0  0  0  0  0  0
  -27.2205  -28.6464   20.6938 C   0  0  0  0  0  0
  -26.0188  -26.8747   19.5411 C   0  0  0  0  0  0
  -24.8452  -27.6497   19.5486 C   0  0  0  0  0  0
  -23.6346  -29.8114   20.1616 C   0  0  0  0  0  0
  -25.4119  -36.3036   24.0326 C   0  0  1  0  0  0
  -20.5870  -28.3710   23.1259 C   0  0  2  0  0  0
  -20.6803  -26.9442   22.5416 C   0  0  0  0  0  0
  -19.5792  -26.6426   21.5209 C   0  0  0  0  0  0
  -18.1943  -26.7960   22.1608 C   0  0  0  0  0  0
  -19.1535  -28.8876   23.2879 C   0  0  0  0  0  0
  -18.9470  -30.1464   23.8915 C   0  0  0  0  0  0
  -17.6485  -30.6625   24.0547 C   0  0  0  0  0  0
  -25.9080  -34.9427   23.5098 C   0  0  0  0  0  0
  -16.5360  -29.9137   23.6324 C   0  0  0  0  0  0
  -16.7272  -28.6547   23.0352 C   0  0  0  0  0  0
  -26.4534  -31.6575   25.0673 C   0  0  0  0  0  0
  -25.3772  -31.3760   26.1398 C   0  0  0  0  0  0
  -27.0386  -30.2986   24.6143 C   0  0  0  0  0  0
  -27.6062  -32.4315   25.7486 C   0  0  0  0  0  0
  -27.5596  -37.1771   24.8461 C   0  0  0  0  0  0
  -21.4179  -29.3047   22.3640 N   0  0  0  0  0  0
  -26.4275  -37.3751   23.9431 N   0  0  0  0  0  0
  -24.6872  -31.0628   22.0946 N   0  0  0  0  0  0
  -23.4154  -28.8247   23.3069 O   0  0  0  0  0  0
  -28.3282  -26.5043   20.1299 O   0  0  0  0  0  0
  -26.5643  -34.8917   22.4668 O   0  0  0  0  0  0
  -23.5449  -32.1378   23.7356 O   0  0  0  0  0  0
  -28.7910  -18.9080   21.3909 C   0  0  0  0  0  0
  -29.0873  -18.4144   20.1068 C   0  0  0  0  0  0
  -28.5671  -20.2836   21.5995 C   0  0  0  0  0  0
  -29.0012  -19.3649   19.0410 C   0  0  0  0  0  0
  -28.4506  -21.1569   20.4760 C   0  0  0  0  0  0
  -29.2266  -18.9823   17.5863 C   0  0  0  0  0  0
  -27.1640  -20.8719   23.6823 C   0  0  0  0  0  0
  -31.2845  -16.8653   21.9011 C   0  0  0  0  0  0
  -28.5562  -20.7543   23.0488 C   0  0  0  0  0  0
  -29.4691  -16.9067   19.9069 C   0  0  0  0  0  0
  -27.8608  -22.6008   20.5793 C   0  0  0  0  0  0
  -28.6600  -23.8656   20.1008 C   0  0  0  0  0  0
  -28.1127  -25.1955   20.7593 C   0  0  0  0  0  0
  -30.1946  -16.0831   21.0697 C   0  0  2  0  0  0
  -28.6704  -20.6729   19.2293 N   0  0  0  0  0  0
  -31.4766  -12.4725   19.3046 H   0  0  0  0  0  0
  -30.2868  -11.5095   20.1310 H   0  0  0  0  0  0
  -29.5426  -11.3933   17.8972 H   0  0  0  0  0  0
  -29.9751  -13.0241   17.4936 H   0  0  0  0  0  0
  -27.3696  -12.1978   17.9612 H   0  0  0  0  0  0
  -27.9197  -13.8458   18.1826 H   0  0  0  0  0  0
  -28.0187  -11.7320   20.1970 H   0  0  0  0  0  0
  -28.7510  -12.7646   21.9389 H   0  0  0  0  0  0
  -28.2068  -14.3074   21.3744 H   0  0  0  0  0  0
  -25.2343   -9.5950   22.4605 H   0  0  0  0  0  0
  -23.9753   -7.4723   22.7325 H   0  0  0  0  0  0
  -21.0482   -8.8444   19.8769 H   0  0  0  0  0  0
  -22.2991  -10.9599   19.6055 H   0  0  0  0  0  0
  -21.2032   -7.5958   23.9620 H   0  0  0  0  0  0
  -21.1369   -6.0350   25.9030 H   0  0  0  0  0  0
  -22.0657   -2.7417   23.2997 H   0  0  0  0  0  0
  -22.4310  -12.0434   22.4621 H   0  0  0  0  0  0
  -21.1228  -13.1718   22.2214 H   0  0  0  0  0  0
  -24.8532  -15.8394   20.5160 H   0  0  0  0  0  0
  -26.4794  -15.5285   20.2017 H   0  0  0  0  0  0
  -26.7192  -32.5390   23.1065 H   0  0  0  0  0  0
  -24.9959  -33.9715   25.0289 H   0  0  0  0  0  0
  -22.7099  -31.3010   21.3931 H   0  0  0  0  0  0
  -23.3761  -35.9597   23.3298 H   0  0  0  0  0  0
  -24.3569  -36.8885   22.2058 H   0  0  0  0  0  0
  -23.7273  -37.6473   23.6666 H   0  0  0  0  0  0
  -26.0782  -31.5636   20.5895 H   0  0  0  0  0  0
  -26.8470  -30.8494   21.9810 H   0  0  0  0  0  0
  -28.1249  -29.0268   21.1510 H   0  0  0  0  0  0
  -25.9741  -25.8767   19.1263 H   0  0  0  0  0  0
  -23.9293  -27.2390   19.1457 H   0  0  0  0  0  0
  -23.7730  -30.5847   19.4046 H   0  0  0  0  0  0
  -22.7523  -29.2473   19.8457 H   0  0  0  0  0  0
  -25.1308  -36.1855   25.0812 H   0  0  0  0  0  0
  -20.9935  -28.3350   24.1394 H   0  0  0  0  0  0
  -20.5703  -26.2347   23.3635 H   0  0  0  0  0  0
  -21.6674  -26.7527   22.1208 H   0  0  0  0  0  0
  -19.6990  -25.6343   21.1242 H   0  0  0  0  0  0
  -19.6746  -27.3220   20.6721 H   0  0  0  0  0  0
  -17.4227  -26.6643   21.4006 H   0  0  0  0  0  0
  -18.0386  -26.0113   22.9020 H   0  0  0  0  0  0
  -19.7955  -30.7248   24.2309 H   0  0  0  0  0  0
  -17.5069  -31.6294   24.5164 H   0  0  0  0  0  0
  -15.5372  -30.3077   23.7677 H   0  0  0  0  0  0
  -15.8647  -28.0889   22.7105 H   0  0  0  0  0  0
  -24.5910  -30.7147   25.7757 H   0  0  0  0  0  0
  -24.9028  -32.2958   26.4805 H   0  0  0  0  0  0
  -25.8083  -30.8945   27.0180 H   0  0  0  0  0  0
  -26.2979  -29.6747   24.1116 H   0  0  0  0  0  0
  -27.4043  -29.7215   25.4659 H   0  0  0  0  0  0
  -27.8854  -30.4286   23.9396 H   0  0  0  0  0  0
  -27.2603  -33.3555   26.2155 H   0  0  0  0  0  0
  -28.3854  -32.6990   25.0326 H   0  0  0  0  0  0
  -28.0768  -31.8385   26.5353 H   0  0  0  0  0  0
  -28.2555  -38.0119   24.7540 H   0  0  0  0  0  0
  -28.1136  -36.2650   24.6206 H   0  0  0  0  0  0
  -27.2313  -37.1315   25.8858 H   0  0  0  0  0  0
  -20.9392  -29.8613   21.6688 H   0  0  0  0  0  0
  -26.0146  -38.2806   24.1467 H   0  0  0  0  0  0
  -28.7933  -18.2411   22.2433 H   0  0  0  0  0  0
  -29.0724  -19.8513   16.9432 H   0  0  0  0  0  0
  -28.5263  -18.2090   17.2680 H   0  0  0  0  0  0
  -30.2421  -18.6283   17.3963 H   0  0  0  0  0  0
  -27.2457  -21.3697   24.6490 H   0  0  0  0  0  0
  -26.7254  -19.8859   23.8542 H   0  0  0  0  0  0
  -26.4670  -21.4253   23.0564 H   0  0  0  0  0  0
  -31.0836  -17.9362   21.9985 H   0  0  0  0  0  0
  -32.3045  -16.8004   21.5229 H   0  0  0  0  0  0
  -31.3272  -16.4717   22.9259 H   0  0  0  0  0  0
  -29.1305  -21.6789   23.1272 H   0  0  0  0  0  0
  -29.1091  -20.0322   23.6621 H   0  0  0  0  0  0
  -30.0433  -16.8175   18.9856 H   0  0  0  0  0  0
  -28.5305  -16.4002   19.6893 H   0  0  0  0  0  0
  -27.5894  -22.7793   21.6179 H   0  0  0  0  0  0
  -26.9050  -22.6001   20.0460 H   0  0  0  0  0  0
  -28.6405  -23.9183   19.0104 H   0  0  0  0  0  0
  -29.7050  -23.7425   20.3857 H   0  0  0  0  0  0
  -28.5981  -25.2537   21.7332 H   0  0  0  0  0  0
  -27.0568  -25.0505   20.9969 H   0  0  0  0  0  0
  -29.4340  -15.9216   21.8273 H   0  0  0  0  0  0
  1 25  1  0  0  0
  1 30  2  0  0  0
  1 84  1  0  0  0
  2  3  1  0  0  0
  2 25  1  0  0  0
  2 86  1  0  0  0
  2 87  1  0  0  0
  3  4  1  0  0  0
  3 88  1  0  0  0
  3 89  1  0  0  0
  4  5  1  0  0  0
  4 90  1  0  0  0
  4 91  1  0  0  0
  5  6  1  0  0  0
  5 26  1  0  0  0
  5 92  1  0  0  0
  6 25  1  0  0  0
  6 93  1  0  0  0
  6 94  1  0  0  0
  7  8  2  0  0  0
  7 26  1  0  0  0
  7 29  1  0  0  0
  8  9  1  0  0  0
  8 22  1  0  0  0
  9 10  1  0  0  0
  9 27  2  0  0  0
 10 11  2  0  0  0
 10 15  1  0  0  0
 11 12  1  0  0  0
 11 95  1  0  0  0
 12 13  2  0  0  0
 12 96  1  0  0  0
 13 14  1  0  0  0
 13 31  1  0  0  0
 14 15  2  0  0  0
 14 97  1  0  0  0
 15 98  1  0  0  0
 16 17  2  0  0  0
 16 21  1  0  0  0
 16 31  1  0  0  0
 17 18  1  0  0  0
 17 99  1  0  0  0
 18 19  2  0  0  0
 18100  1  0  0  0
 19 20  1  0  0  0
 19 24  1  0  0  0
 20 21  2  0  0  0
 20101  1  0  0  0
 21 23  1  0  0  0
 22 28  1  0  0  0
 22 32  2  0  0  0
 26 27  1  0  0  0
 28102  1  0  0  0
 28103  1  0  0  0
 29104  1  0  0  0
 29105  1  0  0  0
 33 34  1  0  0  0
 33 66  1  0  0  0
 33 70  2  0  0  0
 34 36  1  0  0  0
 34 59  1  0  0  0
 34106  1  0  0  0
 35 44  2  0  0  0
 35 45  1  0  0  0
 35 68  1  0  0  0
 36 56  1  0  0  0
 36107  1  0  0  0
 37 39  1  0  0  0
 37 47  1  0  0  0
 37 66  1  0  0  0
 37108  1  0  0  0
 38 43  2  0  0  0
 38 46  1  0  0  0
 38 47  1  0  0  0
 39 64  1  0  0  0
 39 67  2  0  0  0
 40 52  1  0  0  0
 40 53  2  0  0  0
 40 58  1  0  0  0
 41109  1  0  0  0
 41110  1  0  0  0
 41111  1  0  0  0
 41 48  1  0  0  0
 42 43  1  0  0  0
 42 66  1  0  0  0
 42112  1  0  0  0
 42113  1  0  0  0
 43 44  1  0  0  0
 44114  1  0  0  0
 45 46  2  0  0  0
 45115  1  0  0  0
 46116  1  0  0  0
 47117  1  0  0  0
 47118  1  0  0  0
 48 56  1  0  0  0
 48 65  1  0  0  0
 48119  1  0  0  0
 49 50  1  0  0  0
 49 53  1  0  0  0
 49 64  1  0  0  0
 49120  1  0  0  0
 50 51  1  0  0  0
 50121  1  0  0  0
 50122  1  0  0  0
 51 52  1  0  0  0
 51123  1  0  0  0
 51124  1  0  0  0
 52125  1  0  0  0
 52126  1  0  0  0
 53 54  1  0  0  0
 54 55  2  0  0  0
 54127  1  0  0  0
 55 57  1  0  0  0
 55128  1  0  0  0
 56 69  2  0  0  0
 57 58  2  0  0  0
 57129  1  0  0  0
 58130  1  0  0  0
 59 60  1  0  0  0
 59 61  1  0  0  0
 59 62  1  0  0  0
 60131  1  0  0  0
 60132  1  0  0  0
 60133  1  0  0  0
 61134  1  0  0  0
 61135  1  0  0  0
 61136  1  0  0  0
 62137  1  0  0  0
 62138  1  0  0  0
 62139  1  0  0  0
 63 65  1  0  0  0
 63140  1  0  0  0
 63141  1  0  0  0
 63142  1  0  0  0
 64143  1  0  0  0
 65144  1  0  0  0
 68 83  1  0  0  0
 71 72  2  0  0  0
 71 73  1  0  0  0
 71145  1  0  0  0
 72 74  1  0  0  0
 72 80  1  0  0  0
 73 75  2  0  0  0
 73 79  1  0  0  0
 74 76  1  0  0  0
 74 85  2  0  0  0
 75 81  1  0  0  0
 75 85  1  0  0  0
 76146  1  0  0  0
 76147  1  0  0  0
 76148  1  0  0  0
 77 79  1  0  0  0
 77149  1  0  0  0
 77150  1  0  0  0
 77151  1  0  0  0
 78152  1  0  0  0
 78153  1  0  0  0
 78154  1  0  0  0
 78 84  1  0  0  0
 79155  1  0  0  0
 79156  1  0  0  0
 80 84  1  0  0  0
 80157  1  0  0  0
 80158  1  0  0  0
 81 82  1  0  0  0
 81159  1  0  0  0
 81160  1  0  0  0
 82 83  1  0  0  0
 82161  1  0  0  0
 82162  1  0  0  0
 83163  1  0  0  0
 83164  1  0  0  0
 84165  1  0  0  0
M  ISO  4   1 100  68 101  83 101  84 100
M  END
> <chiral flag>
0

> <version>
0

> <s_m_source_file>
/data/baiqing/PycharmProjects/Reinvent-master-3.2/result/LINK_invent/BTK/process_docking_weight1_custom_sum_contain_oxygen_bond_distance_aromatic_linkinvent_7_9_3/rearranged_h_0046.sdf

> <i_m_source_file_index>
49

> <r_mmod_Potential_Energy-OPLS-2005>
91.8514938354492

> <r_mmod_Stretch_Energy-OPLS-2005>
72.4379501342773

> <r_mmod_Bend_Energy-OPLS-2005>
184.615951538086

> <r_mmod_Torsional_Energy-OPLS-2005>
237.096878051758

> <r_mmod_Improper_Torsional_Energy-OPLS-2005>
3.15966153144836

> <r_mmod_Van_der_Waal_Energy-OPLS-2005>
159.212844848633

> <r_mmod_Electrostatic_Energy-OPLS-2005>
-487.967102050781

> <r_mmod_Solvation_Energy-OPLS-2005>
-204.095474243164

> <b_mmod_Minimization_Converged-OPLS-2005>
0

> <r_mmod_RMS_Derivative-OPLS-2005>
12.4074859619141

$$$$
50
                    3D
 Structure written by MMmdl.
165173  0  0  1  0            999 V2000
  -30.7703  -14.3671   20.6904 C   0  0  0  0  0  0
  -30.4276  -12.2850   19.4085 C   0  0  0  0  0  0
  -29.5013  -12.5382   18.2005 C   0  0  0  0  0  0
  -28.0206  -12.3889   18.6070 C   0  0  0  0  0  0
  -27.6734  -13.2009   19.8809 C   0  0  2  0  0  0
  -28.7069  -12.9367   20.9963 C   0  0  0  0  0  0
  -25.2652  -13.8141   20.5580 C   0  0  0  0  0  0
  -24.1906  -13.0435   20.9147 C   0  0  0  0  0  0
  -24.6428  -11.6897   20.8724 C   0  0  0  0  0  0
  -23.9080  -10.4294   21.0417 C   0  0  0  0  0  0
  -24.3643   -9.4193   21.9186 C   0  0  0  0  0  0
  -23.6363   -8.2204   22.0729 C   0  0  0  0  0  0
  -22.4328   -8.0274   21.3545 C   0  0  0  0  0  0
  -21.9958   -9.0217   20.4638 C   0  0  0  0  0  0
  -22.7248  -10.2106   20.3059 C   0  0  0  0  0  0
  -21.6821   -6.0755   22.5278 C   0  0  0  0  0  0
  -21.3977   -6.5664   23.8224 C   0  0  0  0  0  0
  -21.3668   -5.6786   24.9175 C   0  0  0  0  0  0
  -21.6066   -4.3061   24.7205 C   0  0  0  0  0  0
  -21.8831   -3.8163   23.4303 C   0  0  0  0  0  0
  -21.9169   -4.6989   22.3366 C   0  0  0  0  0  0
  -22.7917  -13.5230   21.1813 C   0  0  0  0  0  0
  -22.1683   -4.2190   21.0938 F   0  0  0  0  0  0
  -21.5628   -3.4524   25.7709 F   0  0  0  0  0  0
  -30.0563  -13.2265   20.4742 N   0  0  0  0  0  0
  -26.3105  -12.9272   20.3352 N   0  0  0  0  0  0
  -25.9366  -11.6447   20.5739 N   0  0  0  0  0  0
  -22.0553  -12.8271   22.0403 N   0  0  0  0  0  0
  -25.4313  -15.1837   20.3749 N   0  0  0  0  0  0
  -31.7822  -14.6560   20.0421 O   0  0  0  0  0  0
  -21.6670   -6.8893   21.4249 O   0  0  0  0  0  0
  -22.3543  -14.5492   20.6615 O   0  0  0  0  0  0
  -24.6070  -31.8722   23.2093 C   0  0  0  0  0  0
  -25.8978  -32.4849   23.8397 C   0  0  1  0  0  0
  -27.2563  -27.4764   20.0998 C   0  0  0  0  0  0
  -25.5876  -33.8636   24.2335 N   0  0  0  0  0  0
  -23.3968  -30.4914   21.5483 C   0  0  2  0  0  0
  -24.8502  -28.9497   20.1253 C   0  0  0  0  0  0
  -22.7384  -29.4670   22.4996 C   0  0  0  0  0  0
  -18.0273  -28.1387   22.8498 C   0  0  0  0  0  0
  -24.1487  -36.7293   23.2655 C   0  0  0  0  0  0
  -25.9213  -30.8477   21.3591 C   0  0  0  0  0  0
  -26.0061  -29.4811   20.7141 C   0  0  0  0  0  0
  -27.2136  -28.7518   20.6965 C   0  0  0  0  0  0
  -26.0878  -26.9433   19.5153 C   0  0  0  0  0  0
  -24.8833  -27.6766   19.5256 C   0  0  0  0  0  0
  -23.6079  -29.8126   20.1674 C   0  0  0  0  0  0
  -25.4117  -36.3125   24.0365 C   0  0  1  0  0  0
  -20.5866  -28.3654   23.1344 C   0  0  2  0  0  0
  -20.6770  -26.9384   22.5448 C   0  0  0  0  0  0
  -19.5760  -26.6376   21.5235 C   0  0  0  0  0  0
  -18.1928  -26.7952   22.1608 C   0  0  0  0  0  0
  -19.1524  -28.8839   23.2925 C   0  0  0  0  0  0
  -18.9456  -30.1447   23.8927 C   0  0  0  0  0  0
  -17.6455  -30.6580   24.0578 C   0  0  0  0  0  0
  -25.9034  -34.9486   23.5146 C   0  0  0  0  0  0
  -16.5341  -29.9099   23.6321 C   0  0  0  0  0  0
  -16.7260  -28.6520   23.0327 C   0  0  0  0  0  0
  -26.4422  -31.6628   25.0710 C   0  0  0  0  0  0
  -25.3694  -31.3747   26.1466 C   0  0  0  0  0  0
  -27.0256  -30.3088   24.6045 C   0  0  0  0  0  0
  -27.6000  -32.4376   25.7445 C   0  0  0  0  0  0
  -27.5602  -37.1798   24.8466 C   0  0  0  0  0  0
  -21.4113  -29.3008   22.3724 N   0  0  0  0  0  0
  -26.4307  -37.3807   23.9423 N   0  0  0  0  0  0
  -24.6597  -31.0855   22.0975 N   0  0  0  0  0  0
  -23.4171  -28.8249   23.3049 O   0  0  0  0  0  0
  -28.4461  -26.7962   20.0183 O   0  0  0  0  0  0
  -26.5586  -34.8952   22.4695 O   0  0  0  0  0  0
  -23.5278  -32.1443   23.7514 O   0  0  0  0  0  0
  -29.9104  -19.4332   19.7772 C   0  0  0  0  0  0
  -31.3465  -20.1617   21.2711 C   0  0  0  0  0  0
  -30.8052  -18.9915   20.7993 C   0  0  0  0  0  0
  -29.3678  -14.8492   25.3373 C   0  0  0  0  0  0
  -31.1330  -17.5774   21.2453 C   0  0  0  0  0  0
  -29.3103  -15.4652   23.9334 C   0  0  0  0  0  0
  -29.9737  -23.5135   21.1749 C   0  0  0  0  0  0
  -29.6896  -24.7594   20.3076 C   0  0  0  0  0  0
  -31.1131  -22.6275   20.6125 C   0  0  0  0  0  0
  -29.9317  -16.6102   21.1740 C   0  0  0  0  0  0
  -30.4538  -14.9669   23.0259 C   0  0  0  0  0  0
  -28.5701  -25.6582   20.8626 C   0  0  0  0  0  0
  -29.9041  -20.7528   19.6408 N   0  0  0  0  0  0
  -30.7918  -21.2053   20.5582 N   0  0  0  0  0  0
  -30.2422  -15.2287   21.5901 N   0  0  0  0  0  0
  -31.4739  -12.3755   19.1132 H   0  0  0  0  0  0
  -30.3147  -11.2600   19.7691 H   0  0  0  0  0  0
  -29.7411  -11.8467   17.3935 H   0  0  0  0  0  0
  -29.6757  -13.5404   17.8078 H   0  0  0  0  0  0
  -27.8174  -11.3302   18.7741 H   0  0  0  0  0  0
  -27.3721  -12.6896   17.7826 H   0  0  0  0  0  0
  -27.7318  -14.2552   19.6127 H   0  0  0  0  0  0
  -28.6681  -11.8932   21.3134 H   0  0  0  0  0  0
  -28.4429  -13.5101   21.8833 H   0  0  0  0  0  0
  -25.2747   -9.5661   22.4803 H   0  0  0  0  0  0
  -24.0068   -7.4543   22.7396 H   0  0  0  0  0  0
  -21.0882   -8.8678   19.8947 H   0  0  0  0  0  0
  -22.3665  -10.9640   19.6198 H   0  0  0  0  0  0
  -21.1985   -7.6174   23.9746 H   0  0  0  0  0  0
  -21.1491   -6.0515   25.9090 H   0  0  0  0  0  0
  -22.0637   -2.7632   23.2751 H   0  0  0  0  0  0
  -22.4186  -11.9979   22.4859 H   0  0  0  0  0  0
  -21.1138  -13.1236   22.2526 H   0  0  0  0  0  0
  -24.6453  -15.8249   20.4036 H   0  0  0  0  0  0
  -26.2654  -15.6052   19.9835 H   0  0  0  0  0  0
  -26.7037  -32.5602   23.1163 H   0  0  0  0  0  0
  -25.0052  -33.9803   25.0502 H   0  0  0  0  0  0
  -22.6841  -31.3064   21.4049 H   0  0  0  0  0  0
  -23.3776  -35.9596   23.3312 H   0  0  0  0  0  0
  -24.3584  -36.8885   22.2068 H   0  0  0  0  0  0
  -23.7197  -37.6490   23.6640 H   0  0  0  0  0  0
  -26.0332  -31.6138   20.5900 H   0  0  0  0  0  0
  -26.8082  -30.9015   21.9775 H   0  0  0  0  0  0
  -28.1120  -29.1712   21.1300 H   0  0  0  0  0  0
  -26.1209  -25.9748   19.0360 H   0  0  0  0  0  0
  -23.9974  -27.2613   19.0627 H   0  0  0  0  0  0
  -23.7102  -30.5821   19.4012 H   0  0  0  0  0  0
  -22.7346  -29.2251   19.8763 H   0  0  0  0  0  0
  -25.1305  -36.1982   25.0864 H   0  0  0  0  0  0
  -20.9993  -28.3221   24.1455 H   0  0  0  0  0  0
  -20.5653  -26.2262   23.3637 H   0  0  0  0  0  0
  -21.6640  -26.7424   22.1235 H   0  0  0  0  0  0
  -19.6911  -25.6287   21.1248 H   0  0  0  0  0  0
  -19.6746  -27.3187   20.6778 H   0  0  0  0  0  0
  -17.4237  -26.6743   21.3964 H   0  0  0  0  0  0
  -18.0266  -26.0075   22.8964 H   0  0  0  0  0  0
  -19.7943  -30.7248   24.2304 H   0  0  0  0  0  0
  -17.5020  -31.6265   24.5166 H   0  0  0  0  0  0
  -15.5339  -30.2992   23.7657 H   0  0  0  0  0  0
  -15.8667  -28.0855   22.6991 H   0  0  0  0  0  0
  -24.5839  -30.7114   25.7818 H   0  0  0  0  0  0
  -24.8901  -32.2910   26.4926 H   0  0  0  0  0  0
  -25.8042  -30.8912   27.0218 H   0  0  0  0  0  0
  -26.2789  -29.6856   24.1105 H   0  0  0  0  0  0
  -27.4064  -29.7315   25.4477 H   0  0  0  0  0  0
  -27.8600  -30.4445   23.9164 H   0  0  0  0  0  0
  -27.2590  -33.3645   26.2074 H   0  0  0  0  0  0
  -28.3747  -32.7003   25.0226 H   0  0  0  0  0  0
  -28.0730  -31.8485   26.5310 H   0  0  0  0  0  0
  -28.2623  -38.0096   24.7524 H   0  0  0  0  0  0
  -28.1100  -36.2626   24.6268 H   0  0  0  0  0  0
  -27.2334  -37.1417   25.8877 H   0  0  0  0  0  0
  -20.9262  -29.8707   21.6939 H   0  0  0  0  0  0
  -26.0208  -38.2890   24.1419 H   0  0  0  0  0  0
  -29.2851  -18.8438   19.1173 H   0  0  0  0  0  0
  -32.0945  -20.3368   22.0335 H   0  0  0  0  0  0
  -28.5535  -15.2175   25.9628 H   0  0  0  0  0  0
  -30.3070  -15.0816   25.8408 H   0  0  0  0  0  0
  -29.2741  -13.7661   25.2958 H   0  0  0  0  0  0
  -31.5041  -17.5852   22.2705 H   0  0  0  0  0  0
  -31.9532  -17.1842   20.6485 H   0  0  0  0  0  0
  -29.3612  -16.5533   24.0211 H   0  0  0  0  0  0
  -28.3374  -15.2377   23.4968 H   0  0  0  0  0  0
  -29.0528  -22.9369   21.2809 H   0  0  0  0  0  0
  -30.2424  -23.8299   22.1849 H   0  0  0  0  0  0
  -29.4157  -24.4397   19.2993 H   0  0  0  0  0  0
  -30.6031  -25.3466   20.2003 H   0  0  0  0  0  0
  -32.0165  -22.7564   21.2125 H   0  0  0  0  0  0
  -31.3820  -22.9370   19.5996 H   0  0  0  0  0  0
  -29.5642  -16.5757   20.1472 H   0  0  0  0  0  0
  -29.0931  -16.9952   21.7533 H   0  0  0  0  0  0
  -30.5693  -13.8904   23.1841 H   0  0  0  0  0  0
  -31.3998  -15.4054   23.3451 H   0  0  0  0  0  0
  -28.8259  -26.0043   21.8664 H   0  0  0  0  0  0
  -27.6384  -25.0944   20.9355 H   0  0  0  0  0  0
  1 25  1  0  0  0
  1 30  2  0  0  0
  1 85  1  0  0  0
  2  3  1  0  0  0
  2 25  1  0  0  0
  2 86  1  0  0  0
  2 87  1  0  0  0
  3  4  1  0  0  0
  3 88  1  0  0  0
  3 89  1  0  0  0
  4  5  1  0  0  0
  4 90  1  0  0  0
  4 91  1  0  0  0
  5  6  1  0  0  0
  5 26  1  0  0  0
  5 92  1  0  0  0
  6 25  1  0  0  0
  6 93  1  0  0  0
  6 94  1  0  0  0
  7  8  2  0  0  0
  7 26  1  0  0  0
  7 29  1  0  0  0
  8  9  1  0  0  0
  8 22  1  0  0  0
  9 10  1  0  0  0
  9 27  2  0  0  0
 10 11  2  0  0  0
 10 15  1  0  0  0
 11 12  1  0  0  0
 11 95  1  0  0  0
 12 13  2  0  0  0
 12 96  1  0  0  0
 13 14  1  0  0  0
 13 31  1  0  0  0
 14 15  2  0  0  0
 14 97  1  0  0  0
 15 98  1  0  0  0
 16 17  2  0  0  0
 16 21  1  0  0  0
 16 31  1  0  0  0
 17 18  1  0  0  0
 17 99  1  0  0  0
 18 19  2  0  0  0
 18100  1  0  0  0
 19 20  1  0  0  0
 19 24  1  0  0  0
 20 21  2  0  0  0
 20101  1  0  0  0
 21 23  1  0  0  0
 22 28  1  0  0  0
 22 32  2  0  0  0
 26 27  1  0  0  0
 28102  1  0  0  0
 28103  1  0  0  0
 29104  1  0  0  0
 29105  1  0  0  0
 33 34  1  0  0  0
 33 66  1  0  0  0
 33 70  2  0  0  0
 34 36  1  0  0  0
 34 59  1  0  0  0
 34106  1  0  0  0
 35 44  2  0  0  0
 35 45  1  0  0  0
 35 68  1  0  0  0
 36 56  1  0  0  0
 36107  1  0  0  0
 37 39  1  0  0  0
 37 47  1  0  0  0
 37 66  1  0  0  0
 37108  1  0  0  0
 38 43  2  0  0  0
 38 46  1  0  0  0
 38 47  1  0  0  0
 39 64  1  0  0  0
 39 67  2  0  0  0
 40 52  1  0  0  0
 40 53  2  0  0  0
 40 58  1  0  0  0
 41109  1  0  0  0
 41110  1  0  0  0
 41111  1  0  0  0
 41 48  1  0  0  0
 42 43  1  0  0  0
 42 66  1  0  0  0
 42112  1  0  0  0
 42113  1  0  0  0
 43 44  1  0  0  0
 44114  1  0  0  0
 45 46  2  0  0  0
 45115  1  0  0  0
 46116  1  0  0  0
 47117  1  0  0  0
 47118  1  0  0  0
 48 56  1  0  0  0
 48 65  1  0  0  0
 48119  1  0  0  0
 49 50  1  0  0  0
 49 53  1  0  0  0
 49 64  1  0  0  0
 49120  1  0  0  0
 50 51  1  0  0  0
 50121  1  0  0  0
 50122  1  0  0  0
 51 52  1  0  0  0
 51123  1  0  0  0
 51124  1  0  0  0
 52125  1  0  0  0
 52126  1  0  0  0
 53 54  1  0  0  0
 54 55  2  0  0  0
 54127  1  0  0  0
 55 57  1  0  0  0
 55128  1  0  0  0
 56 69  2  0  0  0
 57 58  2  0  0  0
 57129  1  0  0  0
 58130  1  0  0  0
 59 60  1  0  0  0
 59 61  1  0  0  0
 59 62  1  0  0  0
 60131  1  0  0  0
 60132  1  0  0  0
 60133  1  0  0  0
 61134  1  0  0  0
 61135  1  0  0  0
 61136  1  0  0  0
 62137  1  0  0  0
 62138  1  0  0  0
 62139  1  0  0  0
 63 65  1  0  0  0
 63140  1  0  0  0
 63141  1  0  0  0
 63142  1  0  0  0
 64143  1  0  0  0
 65144  1  0  0  0
 68 82  1  0  0  0
 71 73  1  0  0  0
 71 83  2  0  0  0
 71145  1  0  0  0
 72 73  2  0  0  0
 72 84  1  0  0  0
 72146  1  0  0  0
 73 75  1  0  0  0
 74 76  1  0  0  0
 74147  1  0  0  0
 74148  1  0  0  0
 74149  1  0  0  0
 75 80  1  0  0  0
 75150  1  0  0  0
 75151  1  0  0  0
 76 81  1  0  0  0
 76152  1  0  0  0
 76153  1  0  0  0
 77 78  1  0  0  0
 77 79  1  0  0  0
 77154  1  0  0  0
 77155  1  0  0  0
 78 82  1  0  0  0
 78156  1  0  0  0
 78157  1  0  0  0
 79 84  1  0  0  0
 79158  1  0  0  0
 79159  1  0  0  0
 80 85  1  0  0  0
 80160  1  0  0  0
 80161  1  0  0  0
 81 85  1  0  0  0
 81162  1  0  0  0
 81163  1  0  0  0
 82164  1  0  0  0
 82165  1  0  0  0
 83 84  1  0  0  0
M  ISO  4   1 100  68 101  82 101  85 100
M  END
> <chiral flag>
0

> <version>
0

> <s_m_source_file>
/data/baiqing/PycharmProjects/Reinvent-master-3.2/result/LINK_invent/BTK/process_docking_weight1_custom_sum_contain_oxygen_bond_distance_aromatic_linkinvent_7_9_3/rearranged_h_0046.sdf

> <i_m_source_file_index>
50

> <r_mmod_Potential_Energy-OPLS-2005>
109.229888916016

> <r_mmod_Stretch_Energy-OPLS-2005>
34.7843894958496

> <r_mmod_Bend_Energy-OPLS-2005>
88.5962142944336

> <r_mmod_Torsional_Energy-OPLS-2005>
339.871978759766

> <r_mmod_Improper_Torsional_Energy-OPLS-2005>
4.70247602462769

> <r_mmod_Van_der_Waal_Energy-OPLS-2005>
122.563682556152

> <r_mmod_Electrostatic_Energy-OPLS-2005>
-288.070831298828

> <r_mmod_Solvation_Energy-OPLS-2005>
-200.314178466797

> <b_mmod_Minimization_Converged-OPLS-2005>
0

> <r_mmod_RMS_Derivative-OPLS-2005>
5.34249591827393

$$$$
51
                    3D
 Structure written by MMmdl.
156164  0  0  1  0            999 V2000
  -30.5258  -14.9500   20.4126 C   0  0  0  0  0  0
  -30.4426  -12.5856   19.5079 C   0  0  0  0  0  0
  -29.5258  -12.5354   18.2628 C   0  0  0  0  0  0
  -28.0573  -12.3218   18.6759 C   0  0  0  0  0  0
  -27.6329  -13.2479   19.8456 C   0  0  2  0  0  0
  -28.6729  -13.2654   20.9872 C   0  0  0  0  0  0
  -25.2463  -13.8217   20.5710 C   0  0  0  0  0  0
  -24.1776  -13.0439   20.9227 C   0  0  0  0  0  0
  -24.6395  -11.6927   20.8760 C   0  0  0  0  0  0
  -23.9080  -10.4296   21.0417 C   0  0  0  0  0  0
  -24.3630   -9.4208   21.9191 C   0  0  0  0  0  0
  -23.6305   -8.2243   22.0759 C   0  0  0  0  0  0
  -22.4285   -8.0285   21.3550 C   0  0  0  0  0  0
  -21.9926   -9.0258   20.4646 C   0  0  0  0  0  0
  -22.7257  -10.2136   20.3062 C   0  0  0  0  0  0
  -21.6851   -6.0745   22.5283 C   0  0  0  0  0  0
  -21.4013   -6.5648   23.8219 C   0  0  0  0  0  0
  -21.3659   -5.6798   24.9179 C   0  0  0  0  0  0
  -21.6043   -4.3062   24.7227 C   0  0  0  0  0  0
  -21.8819   -3.8154   23.4347 C   0  0  0  0  0  0
  -21.9193   -4.6972   22.3403 C   0  0  0  0  0  0
  -22.7794  -13.5203   21.1888 C   0  0  0  0  0  0
  -22.1662   -4.2157   21.0980 F   0  0  0  0  0  0
  -21.5628   -3.4546   25.7738 F   0  0  0  0  0  0
  -29.9535  -13.6787   20.3982 N   0  0  0  0  0  0
  -26.2894  -12.9450   20.3264 N   0  0  0  0  0  0
  -25.9329  -11.6578   20.5749 N   0  0  0  0  0  0
  -22.0443  -12.8184   22.0439 N   0  0  0  0  0  0
  -25.4117  -15.1946   20.4127 N   0  0  0  0  0  0
  -31.7124  -15.0373   20.0796 O   0  0  0  0  0  0
  -21.6643   -6.8889   21.4246 O   0  0  0  0  0  0
  -22.3476  -14.5511   20.6741 O   0  0  0  0  0  0
  -24.6438  -31.8434   23.1863 C   0  0  0  0  0  0
  -25.9202  -32.4697   23.8263 C   0  0  1  0  0  0
  -27.2199  -27.1246   20.1531 C   0  0  0  0  0  0
  -25.5947  -33.8503   24.2189 N   0  0  0  0  0  0
  -23.4488  -30.4598   21.5331 C   0  0  2  0  0  0
  -24.8998  -28.8846   20.1082 C   0  0  0  0  0  0
  -22.7577  -29.4529   22.4865 C   0  0  0  0  0  0
  -18.0302  -28.1394   22.8482 C   0  0  0  0  0  0
  -24.1491  -36.7253   23.2642 C   0  0  0  0  0  0
  -26.0042  -30.7125   21.3871 C   0  0  0  0  0  0
  -26.0754  -29.3214   20.7310 C   0  0  0  0  0  0
  -27.2340  -28.4562   20.7384 C   0  0  0  0  0  0
  -26.0232  -26.7979   19.4771 C   0  0  0  0  0  0
  -24.8875  -27.6376   19.4648 C   0  0  0  0  0  0
  -23.6759  -29.7867   20.1529 C   0  0  0  0  0  0
  -25.4126  -36.3040   24.0318 C   0  0  1  0  0  0
  -20.5916  -28.3720   23.1242 C   0  0  2  0  0  0
  -20.6785  -26.9423   22.5409 C   0  0  0  0  0  0
  -19.5757  -26.6383   21.5216 C   0  0  0  0  0  0
  -18.1939  -26.7934   22.1627 C   0  0  0  0  0  0
  -19.1560  -28.8876   23.2852 C   0  0  0  0  0  0
  -18.9475  -30.1472   23.8876 C   0  0  0  0  0  0
  -17.6470  -30.6591   24.0559 C   0  0  0  0  0  0
  -25.9076  -34.9414   23.5067 C   0  0  0  0  0  0
  -16.5362  -29.9085   23.6333 C   0  0  0  0  0  0
  -16.7287  -28.6501   23.0360 C   0  0  0  0  0  0
  -26.4518  -31.6563   25.0703 C   0  0  0  0  0  0
  -25.3691  -31.3747   26.1390 C   0  0  0  0  0  0
  -27.0384  -30.2963   24.6276 C   0  0  0  0  0  0
  -27.6059  -32.4318   25.7486 C   0  0  0  0  0  0
  -27.5581  -37.1785   24.8466 C   0  0  0  0  0  0
  -21.4267  -29.3043   22.3618 N   0  0  0  0  0  0
  -26.4290  -37.3753   23.9411 N   0  0  0  0  0  0
  -24.7189  -31.0271   22.0909 N   0  0  0  0  0  0
  -23.4214  -28.8085   23.3026 O   0  0  0  0  0  0
  -28.2719  -26.1374   20.2538 O   0  0  0  0  0  0
  -26.5669  -34.8909   22.4652 O   0  0  0  0  0  0
  -23.5552  -32.1316   23.7071 O   0  0  0  0  0  0
  -29.5095  -20.4030   21.1769 C   0  0  0  0  0  0
  -29.9546  -20.7331   22.5100 C   0  0  0  0  0  0
  -29.8267  -18.9597   21.1211 C   0  0  0  0  0  0
  -29.9332  -22.0156   23.2958 C   0  0  0  0  0  0
  -31.0900  -17.4904   22.8465 C   0  0  0  0  0  0
  -28.8433  -21.6369   20.2663 C   0  0  0  0  0  0
  -29.8183  -17.6392   20.1495 C   0  0  0  0  0  0
  -28.9083  -23.3075   20.6446 C   0  0  0  0  0  0
  -28.0857  -24.6123   19.9487 C   0  0  0  0  0  0
  -30.4930  -19.7376   23.1606 N   0  0  0  0  0  0
  -30.4537  -18.6960   22.3394 N   0  0  0  0  0  0
  -29.7240  -16.1108   20.5966 N   0  0  0  0  0  0
  -31.4778  -12.7413   19.2009 H   0  0  0  0  0  0
  -30.4319  -11.6301   20.0340 H   0  0  0  0  0  0
  -29.8454  -11.7402   17.5876 H   0  0  0  0  0  0
  -29.6155  -13.4679   17.7037 H   0  0  0  0  0  0
  -27.9501  -11.2790   18.9765 H   0  0  0  0  0  0
  -27.3971  -12.4624   17.8192 H   0  0  0  0  0  0
  -27.5998  -14.2526   19.4233 H   0  0  0  0  0  0
  -28.7548  -12.2854   21.4598 H   0  0  0  0  0  0
  -28.3704  -13.9606   21.7717 H   0  0  0  0  0  0
  -25.2773   -9.5687   22.4767 H   0  0  0  0  0  0
  -24.0016   -7.4633   22.7478 H   0  0  0  0  0  0
  -21.0865   -8.8781   19.8942 H   0  0  0  0  0  0
  -22.3724  -10.9680   19.6173 H   0  0  0  0  0  0
  -21.2005   -7.6156   23.9723 H   0  0  0  0  0  0
  -21.1480   -6.0529   25.9082 H   0  0  0  0  0  0
  -22.0596   -2.7617   23.2845 H   0  0  0  0  0  0
  -22.4071  -11.9847   22.4819 H   0  0  0  0  0  0
  -21.1053  -13.1195   22.2642 H   0  0  0  0  0  0
  -24.6372  -15.8415   20.5157 H   0  0  0  0  0  0
  -26.2456  -15.6345   20.0462 H   0  0  0  0  0  0
  -26.7268  -32.5306   23.0991 H   0  0  0  0  0  0
  -25.0067  -33.9613   25.0317 H   0  0  0  0  0  0
  -22.7513  -31.2853   21.3770 H   0  0  0  0  0  0
  -23.3770  -35.9567   23.3284 H   0  0  0  0  0  0
  -24.3575  -36.8904   22.2059 H   0  0  0  0  0  0
  -23.7221  -37.6434   23.6687 H   0  0  0  0  0  0
  -26.1576  -31.4632   20.6107 H   0  0  0  0  0  0
  -26.8762  -30.7679   22.0274 H   0  0  0  0  0  0
  -28.1272  -28.7824   21.2525 H   0  0  0  0  0  0
  -25.9303  -25.8505   18.9686 H   0  0  0  0  0  0
  -23.9920  -27.3025   18.9593 H   0  0  0  0  0  0
  -23.8109  -30.5595   19.3955 H   0  0  0  0  0  0
  -22.7912  -29.2266   19.8451 H   0  0  0  0  0  0
  -25.1311  -36.1875   25.0811 H   0  0  0  0  0  0
  -21.0000  -28.3305   24.1366 H   0  0  0  0  0  0
  -20.5677  -26.2332   23.3627 H   0  0  0  0  0  0
  -21.6650  -26.7428   22.1207 H   0  0  0  0  0  0
  -19.6917  -25.6289   21.1257 H   0  0  0  0  0  0
  -19.6690  -27.3183   20.6738 H   0  0  0  0  0  0
  -17.4210  -26.6684   21.4029 H   0  0  0  0  0  0
  -18.0333  -26.0078   22.9025 H   0  0  0  0  0  0
  -19.7948  -30.7297   24.2238 H   0  0  0  0  0  0
  -17.5020  -31.6267   24.5171 H   0  0  0  0  0  0
  -15.5360  -30.2982   23.7660 H   0  0  0  0  0  0
  -15.8689  -28.0810   22.7090 H   0  0  0  0  0  0
  -24.5888  -30.7082   25.7693 H   0  0  0  0  0  0
  -24.8852  -32.2925   26.4743 H   0  0  0  0  0  0
  -25.7956  -30.8961   27.0214 H   0  0  0  0  0  0
  -26.2998  -29.6685   24.1280 H   0  0  0  0  0  0
  -27.4007  -29.7261   25.4838 H   0  0  0  0  0  0
  -27.8900  -30.4210   23.9584 H   0  0  0  0  0  0
  -27.2676  -33.3653   26.1992 H   0  0  0  0  0  0
  -28.3902  -32.6818   25.0328 H   0  0  0  0  0  0
  -28.0688  -31.8482   26.5452 H   0  0  0  0  0  0
  -28.2589  -38.0093   24.7535 H   0  0  0  0  0  0
  -28.1090  -36.2625   24.6275 H   0  0  0  0  0  0
  -27.2299  -37.1408   25.8869 H   0  0  0  0  0  0
  -20.9484  -29.8756   21.6792 H   0  0  0  0  0  0
  -26.0162  -38.2824   24.1419 H   0  0  0  0  0  0
  -30.4711  -22.8125   22.7855 H   0  0  0  0  0  0
  -30.4217  -21.9039   24.2653 H   0  0  0  0  0  0
  -28.9136  -22.3333   23.5101 H   0  0  0  0  0  0
  -30.3347  -16.7514   23.1132 H   0  0  0  0  0  0
  -31.6804  -17.7055   23.7385 H   0  0  0  0  0  0
  -31.7688  -17.0839   22.0977 H   0  0  0  0  0  0
  -27.7819  -21.4153   20.1504 H   0  0  0  0  0  0
  -29.2288  -21.5487   19.2505 H   0  0  0  0  0  0
  -30.7102  -17.7055   19.5259 H   0  0  0  0  0  0
  -28.9983  -17.7762   19.4446 H   0  0  0  0  0  0
  -29.9642  -23.5783   20.6410 H   0  0  0  0  0  0
  -28.5773  -23.3994   21.6722 H   0  0  0  0  0  0
  -27.0353  -24.3833   20.1231 H   0  0  0  0  0  0
  -28.2166  -24.5245   18.8698 H   0  0  0  0  0  0
  -28.7987  -15.8734   20.9200 H   0  0  0  0  0  0
  1 25  1  0  0  0
  1 30  2  0  0  0
  1 82  1  0  0  0
  2  3  1  0  0  0
  2 25  1  0  0  0
  2 83  1  0  0  0
  2 84  1  0  0  0
  3  4  1  0  0  0
  3 85  1  0  0  0
  3 86  1  0  0  0
  4  5  1  0  0  0
  4 87  1  0  0  0
  4 88  1  0  0  0
  5  6  1  0  0  0
  5 26  1  0  0  0
  5 89  1  0  0  0
  6 25  1  0  0  0
  6 90  1  0  0  0
  6 91  1  0  0  0
  7  8  2  0  0  0
  7 26  1  0  0  0
  7 29  1  0  0  0
  8  9  1  0  0  0
  8 22  1  0  0  0
  9 10  1  0  0  0
  9 27  2  0  0  0
 10 11  2  0  0  0
 10 15  1  0  0  0
 11 12  1  0  0  0
 11 92  1  0  0  0
 12 13  2  0  0  0
 12 93  1  0  0  0
 13 14  1  0  0  0
 13 31  1  0  0  0
 14 15  2  0  0  0
 14 94  1  0  0  0
 15 95  1  0  0  0
 16 17  2  0  0  0
 16 21  1  0  0  0
 16 31  1  0  0  0
 17 18  1  0  0  0
 17 96  1  0  0  0
 18 19  2  0  0  0
 18 97  1  0  0  0
 19 20  1  0  0  0
 19 24  1  0  0  0
 20 21  2  0  0  0
 20 98  1  0  0  0
 21 23  1  0  0  0
 22 28  1  0  0  0
 22 32  2  0  0  0
 26 27  1  0  0  0
 28 99  1  0  0  0
 28100  1  0  0  0
 29101  1  0  0  0
 29102  1  0  0  0
 33 34  1  0  0  0
 33 66  1  0  0  0
 33 70  2  0  0  0
 34 36  1  0  0  0
 34 59  1  0  0  0
 34103  1  0  0  0
 35 44  2  0  0  0
 35 45  1  0  0  0
 35 68  1  0  0  0
 36 56  1  0  0  0
 36104  1  0  0  0
 37 39  1  0  0  0
 37 47  1  0  0  0
 37 66  1  0  0  0
 37105  1  0  0  0
 38 43  2  0  0  0
 38 46  1  0  0  0
 38 47  1  0  0  0
 39 64  1  0  0  0
 39 67  2  0  0  0
 40 52  1  0  0  0
 40 53  2  0  0  0
 40 58  1  0  0  0
 41106  1  0  0  0
 41107  1  0  0  0
 41108  1  0  0  0
 41 48  1  0  0  0
 42 43  1  0  0  0
 42 66  1  0  0  0
 42109  1  0  0  0
 42110  1  0  0  0
 43 44  1  0  0  0
 44111  1  0  0  0
 45 46  2  0  0  0
 45112  1  0  0  0
 46113  1  0  0  0
 47114  1  0  0  0
 47115  1  0  0  0
 48 56  1  0  0  0
 48 65  1  0  0  0
 48116  1  0  0  0
 49 50  1  0  0  0
 49 53  1  0  0  0
 49 64  1  0  0  0
 49117  1  0  0  0
 50 51  1  0  0  0
 50118  1  0  0  0
 50119  1  0  0  0
 51 52  1  0  0  0
 51120  1  0  0  0
 51121  1  0  0  0
 52122  1  0  0  0
 52123  1  0  0  0
 53 54  1  0  0  0
 54 55  2  0  0  0
 54124  1  0  0  0
 55 57  1  0  0  0
 55125  1  0  0  0
 56 69  2  0  0  0
 57 58  2  0  0  0
 57126  1  0  0  0
 58127  1  0  0  0
 59 60  1  0  0  0
 59 61  1  0  0  0
 59 62  1  0  0  0
 60128  1  0  0  0
 60129  1  0  0  0
 60130  1  0  0  0
 61131  1  0  0  0
 61132  1  0  0  0
 61133  1  0  0  0
 62134  1  0  0  0
 62135  1  0  0  0
 62136  1  0  0  0
 63 65  1  0  0  0
 63137  1  0  0  0
 63138  1  0  0  0
 63139  1  0  0  0
 64140  1  0  0  0
 65141  1  0  0  0
 68 79  1  0  0  0
 71 72  1  0  0  0
 71 73  2  0  0  0
 71 76  1  0  0  0
 72 74  1  0  0  0
 72 80  2  0  0  0
 73 77  1  0  0  0
 73 81  1  0  0  0
 74142  1  0  0  0
 74143  1  0  0  0
 74144  1  0  0  0
 75 81  1  0  0  0
 75145  1  0  0  0
 75146  1  0  0  0
 75147  1  0  0  0
 76 78  1  0  0  0
 76148  1  0  0  0
 76149  1  0  0  0
 77 82  1  0  0  0
 77150  1  0  0  0
 77151  1  0  0  0
 78 79  1  0  0  0
 78152  1  0  0  0
 78153  1  0  0  0
 79154  1  0  0  0
 79155  1  0  0  0
 80 81  1  0  0  0
 82156  1  0  0  0
M  ISO  4   1 100  68 101  79 101  82 100
M  END
> <chiral flag>
0

> <version>
0

> <s_m_source_file>
/data/baiqing/PycharmProjects/Reinvent-master-3.2/result/LINK_invent/BTK/process_docking_weight1_custom_sum_contain_oxygen_bond_distance_aromatic_linkinvent_7_9_3/rearranged_h_0046.sdf

> <i_m_source_file_index>
51

> <r_mmod_Potential_Energy-OPLS-2005>
470.898742675781

> <r_mmod_Stretch_Energy-OPLS-2005>
304.903106689453

> <r_mmod_Bend_Energy-OPLS-2005>
293.840637207031

> <r_mmod_Torsional_Energy-OPLS-2005>
203.405990600586

> <r_mmod_Improper_Torsional_Energy-OPLS-2005>
5.39101552963257

> <r_mmod_Van_der_Waal_Energy-OPLS-2005>
125.468849182129

> <r_mmod_Electrostatic_Energy-OPLS-2005>
-432.685546875

> <r_mmod_Solvation_Energy-OPLS-2005>
-228.224487304688

> <b_mmod_Minimization_Converged-OPLS-2005>
0

> <r_mmod_RMS_Derivative-OPLS-2005>
0.901898980140686

$$$$
52
                    3D
 Structure written by MMmdl.
169177  0  0  1  0            999 V2000
  -31.3369  -14.7455   20.0773 C   0  0  0  0  0  0
  -30.9776  -12.3551   19.5485 C   0  0  0  0  0  0
  -30.3735  -12.5898   18.2106 C   0  0  0  0  0  0
  -29.0308  -13.1390   18.4192 C   0  0  0  0  0  0
  -28.3572  -14.1531   19.7343 C   0  0  2  0  0  0
  -29.4275  -13.5850   20.8318 C   0  0  0  0  0  0
  -24.5491  -14.4231   21.0004 C   0  0  0  0  0  0
  -23.7762  -13.3416   21.3496 C   0  0  0  0  0  0
  -24.3177  -12.1012   20.9551 C   0  0  0  0  0  0
  -23.8167  -10.6523   21.0083 C   0  0  0  0  0  0
  -24.3087   -9.6401   21.8949 C   0  0  0  0  0  0
  -23.6459   -8.3837   22.0597 C   0  0  0  0  0  0
  -22.4623   -8.0957   21.3359 C   0  0  0  0  0  0
  -22.0162   -9.0616   20.4142 C   0  0  0  0  0  0
  -22.6831  -10.2965   20.2463 C   0  0  0  0  0  0
  -21.7275   -6.1004   22.5208 C   0  0  0  0  0  0
  -21.4310   -6.5799   23.8173 C   0  0  0  0  0  0
  -21.3773   -5.6882   24.9106 C   0  0  0  0  0  0
  -21.6061   -4.3146   24.7151 C   0  0  0  0  0  0
  -21.8781   -3.8252   23.4257 C   0  0  0  0  0  0
  -21.9313   -4.7145   22.3338 C   0  0  0  0  0  0
  -22.3503  -13.5601   21.4345 C   0  0  0  0  0  0
  -22.1709   -4.2258   21.0928 F   0  0  0  0  0  0
  -21.5570   -3.4609   25.7641 F   0  0  0  0  0  0
  -30.6751  -13.5903   20.2659 N   0  0  0  0  0  0
  -25.4543  -14.0378   20.1396 N   0  0  0  0  0  0
  -24.6858  -12.7412   19.8774 N   0  0  0  0  0  0
  -21.6851  -12.7374   22.2151 N   0  0  0  0  0  0
  -24.5102  -15.7532   21.2329 N   0  0  0  0  0  0
  -32.5281  -14.7505   20.2251 O   0  0  0  0  0  0
  -21.7301   -6.9238   21.4141 O   0  0  0  0  0  0
  -21.8508  -14.4766   20.7893 O   0  0  0  0  0  0
  -24.7279  -31.7445   23.1211 C   0  0  0  0  0  0
  -25.9691  -32.4137   23.7839 C   0  0  1  0  0  0
  -26.8580  -26.1415   20.2309 C   0  0  0  0  0  0
  -25.6107  -33.8012   24.1682 N   0  0  0  0  0  0
  -23.5447  -30.3636   21.4905 C   0  0  2  0  0  0
  -24.9229  -28.6182   20.0922 C   0  0  0  0  0  0
  -22.7845  -29.4114   22.4573 C   0  0  0  0  0  0
  -18.0341  -28.1443   22.8408 C   0  0  0  0  0  0
  -24.1516  -36.7027   23.2655 C   0  0  0  0  0  0
  -26.1350  -30.2768   21.4571 C   0  0  0  0  0  0
  -26.1148  -28.7986   20.7971 C   0  0  0  0  0  0
  -27.0751  -27.5951   20.8212 C   0  0  0  0  0  0
  -25.7200  -26.3254   19.4136 C   0  0  0  0  0  0
  -24.8043  -27.4248   19.3654 C   0  0  0  0  0  0
  -23.7908  -29.6696   20.1178 C   0  0  0  0  0  0
  -25.4189  -36.2738   24.0235 C   0  0  1  0  0  0
  -20.5992  -28.3821   23.1063 C   0  0  2  0  0  0
  -20.6807  -26.9454   22.5392 C   0  0  0  0  0  0
  -19.5801  -26.6368   21.5197 C   0  0  0  0  0  0
  -18.1980  -26.7962   22.1586 C   0  0  0  0  0  0
  -19.1616  -28.8957   23.2709 C   0  0  0  0  0  0
  -18.9534  -30.1530   23.8785 C   0  0  0  0  0  0
  -17.6530  -30.6620   24.0551 C   0  0  0  0  0  0
  -25.9213  -34.9124   23.4830 C   0  0  0  0  0  0
  -16.5414  -29.9116   23.6356 C   0  0  0  0  0  0
  -16.7323  -28.6541   23.0358 C   0  0  0  0  0  0
  -26.4698  -31.6408   25.0672 C   0  0  0  0  0  0
  -25.3659  -31.3888   26.1225 C   0  0  0  0  0  0
  -27.0678  -30.2685   24.6949 C   0  0  0  0  0  0
  -27.6067  -32.4374   25.7506 C   0  0  0  0  0  0
  -27.5573  -37.1678   24.8474 C   0  0  0  0  0  0
  -21.4471  -29.3000   22.3324 N   0  0  0  0  0  0
  -26.4289  -37.3546   23.9402 N   0  0  0  0  0  0
  -24.8376  -30.8454   22.0698 N   0  0  0  0  0  0
  -23.4160  -28.7723   23.3016 O   0  0  0  0  0  0
  -27.4870  -24.5927   20.2762 O   0  0  0  0  0  0
  -26.5896  -34.8816   22.4481 O   0  0  0  0  0  0
  -23.6245  -32.0804   23.5921 O   0  0  0  0  0  0
  -26.7073  -15.2562   18.5544 C   0  0  0  0  0  0
  -26.6681  -13.3948   18.4091 C   0  0  0  0  0  0
  -26.8797  -16.2071   20.0531 C   0  0  0  0  0  0
  -27.1052  -13.3795   21.4884 C   0  0  0  0  0  0
  -26.0806  -11.1820   17.2359 C   0  0  0  0  0  0
  -26.1663  -12.9474   23.8473 C   0  0  0  0  0  0
  -27.4069  -16.0464   17.3977 C   0  0  0  0  0  0
  -26.3661  -12.6827   17.0882 C   0  0  0  0  0  0
  -26.6796  -18.3232   20.1381 C   0  0  0  0  0  0
  -27.2819  -12.6775   22.8325 C   0  0  0  0  0  0
  -28.8643  -16.6526   17.7861 C   0  0  0  0  0  0
  -27.3625  -20.4531   20.1497 C   0  0  0  0  0  0
  -30.3769  -16.1741   18.1007 C   0  0  0  0  0  0
  -26.9526  -22.6583   20.1989 C   0  0  0  0  0  0
  -27.0180  -12.4160   19.9929 N   0  0  0  0  0  0
  -27.0883  -15.1387   21.4173 N   0  0  0  0  0  0
  -30.7705  -15.8727   19.5375 N   0  0  0  0  0  0
  -32.0543  -12.1957   19.4559 H   0  0  0  0  0  0
  -30.5808  -11.4497   20.0100 H   0  0  0  0  0  0
  -30.3812  -11.6849   17.5988 H   0  0  0  0  0  0
  -30.9866  -13.2938   17.6523 H   0  0  0  0  0  0
  -28.6086  -12.1338   18.3784 H   0  0  0  0  0  0
  -28.8629  -13.6000   17.4477 H   0  0  0  0  0  0
  -28.7471  -15.1161   19.7629 H   0  0  0  0  0  0
  -29.2917  -12.5621   21.1879 H   0  0  0  0  0  0
  -29.4816  -14.2207   21.7213 H   0  0  0  0  0  0
  -25.1732   -9.8593   22.5059 H   0  0  0  0  0  0
  -24.0394   -7.6676   22.7664 H   0  0  0  0  0  0
  -21.1328   -8.8582   19.8225 H   0  0  0  0  0  0
  -22.2760  -11.0169   19.5501 H   0  0  0  0  0  0
  -21.2397   -7.6304   23.9734 H   0  0  0  0  0  0
  -21.1576   -6.0574   25.9016 H   0  0  0  0  0  0
  -22.0385   -2.7664   23.2725 H   0  0  0  0  0  0
  -22.1605  -12.0120   22.7305 H   0  0  0  0  0  0
  -20.6842  -12.8304   22.3014 H   0  0  0  0  0  0
  -24.0750  -15.8948   22.1373 H   0  0  0  0  0  0
  -25.5219  -15.8615   21.3605 H   0  0  0  0  0  0
  -26.7806  -32.4417   23.0542 H   0  0  0  0  0  0
  -25.0072  -33.8960   24.9729 H   0  0  0  0  0  0
  -22.8975  -31.2228   21.3017 H   0  0  0  0  0  0
  -23.3819  -35.9311   23.3210 H   0  0  0  0  0  0
  -24.3575  -36.8826   22.2096 H   0  0  0  0  0  0
  -23.7243  -37.6139   23.6843 H   0  0  0  0  0  0
  -26.4289  -30.9640   20.6620 H   0  0  0  0  0  0
  -26.9650  -30.3017   22.1461 H   0  0  0  0  0  0
  -27.9627  -27.7255   21.4247 H   0  0  0  0  0  0
  -25.4268  -25.4668   18.8272 H   0  0  0  0  0  0
  -23.9199  -27.2959   18.7547 H   0  0  0  0  0  0
  -24.0351  -30.4307   19.3738 H   0  0  0  0  0  0
  -22.8617  -29.2143   19.7672 H   0  0  0  0  0  0
  -25.1420  -36.1410   25.0719 H   0  0  0  0  0  0
  -21.0065  -28.3512   24.1204 H   0  0  0  0  0  0
  -20.5637  -26.2472   23.3683 H   0  0  0  0  0  0
  -21.6674  -26.7343   22.1259 H   0  0  0  0  0  0
  -19.6965  -25.6252   21.1312 H   0  0  0  0  0  0
  -19.6783  -27.3110   20.6684 H   0  0  0  0  0  0
  -17.4253  -26.6666   21.4005 H   0  0  0  0  0  0
  -18.0381  -26.0140   22.9014 H   0  0  0  0  0  0
  -19.8026  -30.7335   24.2150 H   0  0  0  0  0  0
  -17.5104  -31.6288   24.5173 H   0  0  0  0  0  0
  -15.5427  -30.2997   23.7749 H   0  0  0  0  0  0
  -15.8717  -28.0833   22.7147 H   0  0  0  0  0  0
  -24.5900  -30.7158   25.7557 H   0  0  0  0  0  0
  -24.8789  -32.3153   26.4279 H   0  0  0  0  0  0
  -25.7747  -30.9313   27.0248 H   0  0  0  0  0  0
  -26.3443  -29.6121   24.2101 H   0  0  0  0  0  0
  -27.4033  -29.7360   25.5866 H   0  0  0  0  0  0
  -27.9468  -30.3668   24.0569 H   0  0  0  0  0  0
  -27.2577  -33.3835   26.1663 H   0  0  0  0  0  0
  -28.4093  -32.6665   25.0481 H   0  0  0  0  0  0
  -28.0500  -31.8780   26.5765 H   0  0  0  0  0  0
  -28.2527  -38.0030   24.7525 H   0  0  0  0  0  0
  -28.1134  -36.2542   24.6298 H   0  0  0  0  0  0
  -27.2281  -37.1300   25.8875 H   0  0  0  0  0  0
  -20.9832  -29.8638   21.6317 H   0  0  0  0  0  0
  -26.0058  -38.2571   24.1392 H   0  0  0  0  0  0
  -25.8330  -10.7398   16.2708 H   0  0  0  0  0  0
  -25.2418  -11.0013   17.9096 H   0  0  0  0  0  0
  -26.9494  -10.6533   17.6320 H   0  0  0  0  0  0
  -26.3555  -12.3946   24.7676 H   0  0  0  0  0  0
  -25.1976  -12.6314   23.4764 H   0  0  0  0  0  0
  -26.1099  -14.0078   24.0974 H   0  0  0  0  0  0
  -26.7514  -16.8731   17.1258 H   0  0  0  0  0  0
  -27.4580  -15.4186   16.5028 H   0  0  0  0  0  0
  -27.1664  -12.8419   16.3695 H   0  0  0  0  0  0
  -25.4915  -13.1689   16.6583 H   0  0  0  0  0  0
  -26.0205  -18.3619   21.0055 H   0  0  0  0  0  0
  -25.9924  -18.3958   19.2969 H   0  0  0  0  0  0
  -28.2327  -12.9732   23.2749 H   0  0  0  0  0  0
  -27.3476  -11.6044   22.6455 H   0  0  0  0  0  0
  -28.8919  -15.6056   17.9063 H   0  0  0  0  0  0
  -28.6687  -17.2846   18.6485 H   0  0  0  0  0  0
  -27.9895  -20.4204   19.2605 H   0  0  0  0  0  0
  -28.0910  -20.3982   20.9579 H   0  0  0  0  0  0
  -30.7441  -15.4000   17.4236 H   0  0  0  0  0  0
  -31.0078  -17.0250   17.8405 H   0  0  0  0  0  0
  -26.3338  -22.6761   21.0980 H   0  0  0  0  0  0
  -26.2288  -22.7317   19.3851 H   0  0  0  0  0  0
  -31.2189  -16.6870   19.9353 H   0  0  0  0  0  0
  1 25  1  0  0  0
  1 30  2  0  0  0
  1 87  1  0  0  0
  2  3  1  0  0  0
  2 25  1  0  0  0
  2 88  1  0  0  0
  2 89  1  0  0  0
  3  4  1  0  0  0
  3 90  1  0  0  0
  3 91  1  0  0  0
  4  5  1  0  0  0
  4 92  1  0  0  0
  4 93  1  0  0  0
  5  6  1  0  0  0
  5 26  1  0  0  0
  5 94  1  0  0  0
  6 25  1  0  0  0
  6 95  1  0  0  0
  6 96  1  0  0  0
  7  8  2  0  0  0
  7 26  1  0  0  0
  7 29  1  0  0  0
  8  9  1  0  0  0
  8 22  1  0  0  0
  9 10  1  0  0  0
  9 27  2  0  0  0
 10 11  2  0  0  0
 10 15  1  0  0  0
 11 12  1  0  0  0
 11 97  1  0  0  0
 12 13  2  0  0  0
 12 98  1  0  0  0
 13 14  1  0  0  0
 13 31  1  0  0  0
 14 15  2  0  0  0
 14 99  1  0  0  0
 15100  1  0  0  0
 16 17  2  0  0  0
 16 21  1  0  0  0
 16 31  1  0  0  0
 17 18  1  0  0  0
 17101  1  0  0  0
 18 19  2  0  0  0
 18102  1  0  0  0
 19 20  1  0  0  0
 19 24  1  0  0  0
 20 21  2  0  0  0
 20103  1  0  0  0
 21 23  1  0  0  0
 22 28  1  0  0  0
 22 32  2  0  0  0
 26 27  1  0  0  0
 28104  1  0  0  0
 28105  1  0  0  0
 29106  1  0  0  0
 29107  1  0  0  0
 33 34  1  0  0  0
 33 66  1  0  0  0
 33 70  2  0  0  0
 34 36  1  0  0  0
 34 59  1  0  0  0
 34108  1  0  0  0
 35 44  2  0  0  0
 35 45  1  0  0  0
 35 68  1  0  0  0
 36 56  1  0  0  0
 36109  1  0  0  0
 37 39  1  0  0  0
 37 47  1  0  0  0
 37 66  1  0  0  0
 37110  1  0  0  0
 38 43  2  0  0  0
 38 46  1  0  0  0
 38 47  1  0  0  0
 39 64  1  0  0  0
 39 67  2  0  0  0
 40 52  1  0  0  0
 40 53  2  0  0  0
 40 58  1  0  0  0
 41111  1  0  0  0
 41112  1  0  0  0
 41113  1  0  0  0
 41 48  1  0  0  0
 42 43  1  0  0  0
 42 66  1  0  0  0
 42114  1  0  0  0
 42115  1  0  0  0
 43 44  1  0  0  0
 44116  1  0  0  0
 45 46  2  0  0  0
 45117  1  0  0  0
 46118  1  0  0  0
 47119  1  0  0  0
 47120  1  0  0  0
 48 56  1  0  0  0
 48 65  1  0  0  0
 48121  1  0  0  0
 49 50  1  0  0  0
 49 53  1  0  0  0
 49 64  1  0  0  0
 49122  1  0  0  0
 50 51  1  0  0  0
 50123  1  0  0  0
 50124  1  0  0  0
 51 52  1  0  0  0
 51125  1  0  0  0
 51126  1  0  0  0
 52127  1  0  0  0
 52128  1  0  0  0
 53 54  1  0  0  0
 54 55  2  0  0  0
 54129  1  0  0  0
 55 57  1  0  0  0
 55130  1  0  0  0
 56 69  2  0  0  0
 57 58  2  0  0  0
 57131  1  0  0  0
 58132  1  0  0  0
 59 60  1  0  0  0
 59 61  1  0  0  0
 59 62  1  0  0  0
 60133  1  0  0  0
 60134  1  0  0  0
 60135  1  0  0  0
 61136  1  0  0  0
 61137  1  0  0  0
 61138  1  0  0  0
 62139  1  0  0  0
 62140  1  0  0  0
 62141  1  0  0  0
 63 65  1  0  0  0
 63142  1  0  0  0
 63143  1  0  0  0
 63144  1  0  0  0
 64145  1  0  0  0
 65146  1  0  0  0
 68 84  1  0  0  0
 71 72  2  0  0  0
 71 73  1  0  0  0
 71 77  1  0  0  0
 72 78  1  0  0  0
 72 85  1  0  0  0
 73 79  1  0  0  0
 73 86  2  0  0  0
 74 80  1  0  0  0
 74 85  2  0  0  0
 74 86  1  0  0  0
 75 78  1  0  0  0
 75147  1  0  0  0
 75148  1  0  0  0
 75149  1  0  0  0
 76 80  1  0  0  0
 76150  1  0  0  0
 76151  1  0  0  0
 76152  1  0  0  0
 77 81  1  0  0  0
 77153  1  0  0  0
 77154  1  0  0  0
 78155  1  0  0  0
 78156  1  0  0  0
 79 82  1  0  0  0
 79157  1  0  0  0
 79158  1  0  0  0
 80159  1  0  0  0
 80160  1  0  0  0
 81 83  1  0  0  0
 81161  1  0  0  0
 81162  1  0  0  0
 82 84  1  0  0  0
 82163  1  0  0  0
 82164  1  0  0  0
 83 87  1  0  0  0
 83165  1  0  0  0
 83166  1  0  0  0
 84167  1  0  0  0
 84168  1  0  0  0
 87169  1  0  0  0
M  ISO  4   1 100  68 101  84 101  87 100
M  END
> <chiral flag>
0

> <version>
0

> <s_m_source_file>
/data/baiqing/PycharmProjects/Reinvent-master-3.2/result/LINK_invent/BTK/process_docking_weight1_custom_sum_contain_oxygen_bond_distance_aromatic_linkinvent_7_9_3/rearranged_h_0046.sdf

> <i_m_source_file_index>
52

> <r_mmod_Potential_Energy-OPLS-2005>
14913.32421875

> <r_mmod_Stretch_Energy-OPLS-2005>
8184.17578125

> <r_mmod_Bend_Energy-OPLS-2005>
1416.30383300781

> <r_mmod_Torsional_Energy-OPLS-2005>
568.310913085938

> <r_mmod_Improper_Torsional_Energy-OPLS-2005>
53.4834899902344

> <r_mmod_Van_der_Waal_Energy-OPLS-2005>
2854.04321289062

> <r_mmod_Electrostatic_Energy-OPLS-2005>
-702.835876464844

> <r_mmod_Solvation_Energy-OPLS-2005>
-247.614852905273

> <b_mmod_Minimization_Converged-OPLS-2005>
0

> <r_mmod_RMS_Derivative-OPLS-2005>
8.10298442840576

$$$$
53
                    3D
 Structure written by MMmdl.
152160  0  0  1  0            999 V2000
  -30.5422  -14.9692   20.4085 C   0  0  0  0  0  0
  -30.4381  -12.6026   19.4982 C   0  0  0  0  0  0
  -29.5201  -12.5323   18.2560 C   0  0  0  0  0  0
  -28.0546  -12.3144   18.6762 C   0  0  0  0  0  0
  -27.6264  -13.2513   19.8361 C   0  0  2  0  0  0
  -28.6706  -13.2950   20.9721 C   0  0  0  0  0  0
  -25.2427  -13.8183   20.5733 C   0  0  0  0  0  0
  -24.1757  -13.0406   20.9245 C   0  0  0  0  0  0
  -24.6392  -11.6902   20.8761 C   0  0  0  0  0  0
  -23.9082  -10.4275   21.0405 C   0  0  0  0  0  0
  -24.3630   -9.4192   21.9185 C   0  0  0  0  0  0
  -23.6298   -8.2232   22.0753 C   0  0  0  0  0  0
  -22.4280   -8.0275   21.3540 C   0  0  0  0  0  0
  -21.9919   -9.0251   20.4643 C   0  0  0  0  0  0
  -22.7253  -10.2126   20.3054 C   0  0  0  0  0  0
  -21.6852   -6.0734   22.5278 C   0  0  0  0  0  0
  -21.4016   -6.5639   23.8213 C   0  0  0  0  0  0
  -21.3662   -5.6790   24.9175 C   0  0  0  0  0  0
  -21.6045   -4.3053   24.7222 C   0  0  0  0  0  0
  -21.8820   -3.8144   23.4342 C   0  0  0  0  0  0
  -21.9193   -4.6962   22.3399 C   0  0  0  0  0  0
  -22.7779  -13.5183   21.1893 C   0  0  0  0  0  0
  -22.1659   -4.2147   21.0977 F   0  0  0  0  0  0
  -21.5630   -3.4538   25.7735 F   0  0  0  0  0  0
  -29.9426  -13.7094   20.3669 N   0  0  0  0  0  0
  -26.2868  -12.9445   20.3248 N   0  0  0  0  0  0
  -25.9327  -11.6568   20.5741 N   0  0  0  0  0  0
  -22.0431  -12.8178   22.0452 N   0  0  0  0  0  0
  -25.4031  -15.1901   20.4171 N   0  0  0  0  0  0
  -31.7510  -15.0185   20.1573 O   0  0  0  0  0  0
  -21.6638   -6.8876   21.4239 O   0  0  0  0  0  0
  -22.3466  -14.5489   20.6734 O   0  0  0  0  0  0
  -24.6454  -31.8419   23.1864 C   0  0  0  0  0  0
  -25.9218  -32.4685   23.8263 C   0  0  1  0  0  0
  -27.2185  -27.1194   20.1524 C   0  0  0  0  0  0
  -25.5961  -33.8491   24.2179 N   0  0  0  0  0  0
  -23.4499  -30.4606   21.5320 C   0  0  2  0  0  0
  -24.8994  -28.8831   20.1094 C   0  0  0  0  0  0
  -22.7575  -29.4538   22.4848 C   0  0  0  0  0  0
  -18.0308  -28.1395   22.8475 C   0  0  0  0  0  0
  -24.1492  -36.7254   23.2642 C   0  0  0  0  0  0
  -26.0069  -30.7099   21.3876 C   0  0  0  0  0  0
  -26.0774  -29.3196   20.7286 C   0  0  0  0  0  0
  -27.2369  -28.4542   20.7319 C   0  0  0  0  0  0
  -26.0149  -26.7883   19.4921 C   0  0  0  0  0  0
  -24.8819  -27.6317   19.4750 C   0  0  0  0  0  0
  -23.6773  -29.7880   20.1519 C   0  0  0  0  0  0
  -25.4125  -36.3027   24.0312 C   0  0  1  0  0  0
  -20.5919  -28.3728   23.1229 C   0  0  2  0  0  0
  -20.6793  -26.9429   22.5403 C   0  0  0  0  0  0
  -19.5767  -26.6377   21.5212 C   0  0  0  0  0  0
  -18.1948  -26.7933   22.1620 C   0  0  0  0  0  0
  -19.1563  -28.8879   23.2845 C   0  0  0  0  0  0
  -18.9479  -30.1474   23.8873 C   0  0  0  0  0  0
  -17.6475  -30.6590   24.0559 C   0  0  0  0  0  0
  -25.9076  -34.9403   23.5054 C   0  0  0  0  0  0
  -16.5367  -29.9083   23.6336 C   0  0  0  0  0  0
  -16.7292  -28.6500   23.0358 C   0  0  0  0  0  0
  -26.4530  -31.6564   25.0715 C   0  0  0  0  0  0
  -25.3707  -31.3767   26.1408 C   0  0  0  0  0  0
  -27.0398  -30.2956   24.6316 C   0  0  0  0  0  0
  -27.6050  -32.4341   25.7508 C   0  0  0  0  0  0
  -27.5576  -37.1788   24.8463 C   0  0  0  0  0  0
  -21.4264  -29.3053   22.3600 N   0  0  0  0  0  0
  -26.4287  -37.3742   23.9404 N   0  0  0  0  0  0
  -24.7207  -31.0260   22.0904 N   0  0  0  0  0  0
  -23.4212  -28.8088   23.3007 O   0  0  0  0  0  0
  -28.2680  -26.1260   20.2327 O   0  0  0  0  0  0
  -26.5659  -34.8903   22.4631 O   0  0  0  0  0  0
  -23.5569  -32.1299   23.7076 O   0  0  0  0  0  0
  -29.5458  -20.4830   20.5252 C   0  0  0  0  0  0
  -27.6051  -21.3109   19.3912 C   0  0  0  0  0  0
  -28.7378  -21.6719   20.1367 C   0  0  0  0  0  0
  -29.2382  -19.0660   20.1765 C   0  0  0  0  0  0
  -28.0640  -18.9781   19.3908 C   0  0  0  0  0  0
  -27.5841  -17.6535   18.8347 C   0  0  0  0  0  0
  -29.0135  -23.2836   20.4355 C   0  0  0  0  0  0
  -30.1608  -17.7139   20.5223 C   0  0  0  0  0  0
  -28.0132  -24.5939   20.0247 C   0  0  0  0  0  0
  -27.2931  -20.0399   19.0389 N   0  0  0  0  0  0
  -29.7726  -16.1673   20.5268 N   0  0  0  0  0  0
  -31.4711  -12.7607   19.1845 H   0  0  0  0  0  0
  -30.4337  -11.6552   20.0399 H   0  0  0  0  0  0
  -29.8435  -11.7319   17.5891 H   0  0  0  0  0  0
  -29.6032  -13.4590   17.6862 H   0  0  0  0  0  0
  -27.9562  -11.2743   18.9894 H   0  0  0  0  0  0
  -27.3903  -12.4383   17.8202 H   0  0  0  0  0  0
  -27.5833  -14.2501   19.4008 H   0  0  0  0  0  0
  -28.7643  -12.3246   21.4615 H   0  0  0  0  0  0
  -28.3680  -14.0039   21.7444 H   0  0  0  0  0  0
  -25.2772   -9.5668   22.4766 H   0  0  0  0  0  0
  -24.0001   -7.4625   22.7477 H   0  0  0  0  0  0
  -21.0847   -8.8780   19.8954 H   0  0  0  0  0  0
  -22.3713  -10.9672   19.6169 H   0  0  0  0  0  0
  -21.2010   -7.6147   23.9715 H   0  0  0  0  0  0
  -21.1484   -6.0521   25.9079 H   0  0  0  0  0  0
  -22.0598   -2.7605   23.2843 H   0  0  0  0  0  0
  -22.4050  -11.9846   22.4846 H   0  0  0  0  0  0
  -21.1049  -13.1203   22.2662 H   0  0  0  0  0  0
  -24.6277  -15.8350   20.5254 H   0  0  0  0  0  0
  -26.2357  -15.6263   20.0510 H   0  0  0  0  0  0
  -26.7281  -32.5282   23.0988 H   0  0  0  0  0  0
  -25.0104  -33.9604   25.0325 H   0  0  0  0  0  0
  -22.7540  -31.2876   21.3758 H   0  0  0  0  0  0
  -23.3757  -35.9582   23.3289 H   0  0  0  0  0  0
  -24.3577  -36.8902   22.2059 H   0  0  0  0  0  0
  -23.7245  -37.6445   23.6690 H   0  0  0  0  0  0
  -26.1649  -31.4629   20.6146 H   0  0  0  0  0  0
  -26.8764  -30.7604   22.0314 H   0  0  0  0  0  0
  -28.1334  -28.7832   21.2386 H   0  0  0  0  0  0
  -25.9158  -25.8313   19.0018 H   0  0  0  0  0  0
  -23.9831  -27.2928   18.9780 H   0  0  0  0  0  0
  -23.8171  -30.5618   19.3962 H   0  0  0  0  0  0
  -22.7914  -29.2319   19.8399 H   0  0  0  0  0  0
  -25.1315  -36.1850   25.0804 H   0  0  0  0  0  0
  -21.0015  -28.3319   24.1350 H   0  0  0  0  0  0
  -20.5686  -26.2344   23.3626 H   0  0  0  0  0  0
  -21.6661  -26.7432   22.1203 H   0  0  0  0  0  0
  -19.6931  -25.6279   21.1267 H   0  0  0  0  0  0
  -19.6706  -27.3167   20.6724 H   0  0  0  0  0  0
  -17.4221  -26.6679   21.4021 H   0  0  0  0  0  0
  -18.0346  -26.0078   22.9017 H   0  0  0  0  0  0
  -19.7953  -30.7295   24.2234 H   0  0  0  0  0  0
  -17.5027  -31.6269   24.5163 H   0  0  0  0  0  0
  -15.5365  -30.2977   23.7672 H   0  0  0  0  0  0
  -15.8690  -28.0808   22.7091 H   0  0  0  0  0  0
  -24.5886  -30.7115   25.7731 H   0  0  0  0  0  0
  -24.8900  -32.2955   26.4775 H   0  0  0  0  0  0
  -25.7982  -30.8977   27.0224 H   0  0  0  0  0  0
  -26.3019  -29.6675   24.1312 H   0  0  0  0  0  0
  -27.3986  -29.7266   25.4903 H   0  0  0  0  0  0
  -27.8938  -30.4184   23.9651 H   0  0  0  0  0  0
  -27.2626  -33.3654   26.2033 H   0  0  0  0  0  0
  -28.3890  -32.6885   25.0364 H   0  0  0  0  0  0
  -28.0686  -31.8507   26.5472 H   0  0  0  0  0  0
  -28.2587  -38.0090   24.7505 H   0  0  0  0  0  0
  -28.1077  -36.2620   24.6293 H   0  0  0  0  0  0
  -27.2294  -37.1437   25.8867 H   0  0  0  0  0  0
  -20.9478  -29.8766   21.6774 H   0  0  0  0  0  0
  -26.0150  -38.2809   24.1403 H   0  0  0  0  0  0
  -30.4447  -20.6643   21.0971 H   0  0  0  0  0  0
  -26.9228  -22.0708   19.0394 H   0  0  0  0  0  0
  -28.3685  -17.1743   18.2484 H   0  0  0  0  0  0
  -26.7142  -17.7747   18.1877 H   0  0  0  0  0  0
  -27.3015  -16.9930   19.6499 H   0  0  0  0  0  0
  -29.9860  -23.4897   19.9876 H   0  0  0  0  0  0
  -29.1869  -23.3519   21.5093 H   0  0  0  0  0  0
  -30.5835  -17.9010   21.5099 H   0  0  0  0  0  0
  -31.0160  -17.7870   19.8490 H   0  0  0  0  0  0
  -27.0573  -24.3884   20.5079 H   0  0  0  0  0  0
  -27.8190  -24.4899   18.9570 H   0  0  0  0  0  0
  -28.7989  -15.9853   20.7114 H   0  0  0  0  0  0
  1 25  1  0  0  0
  1 30  2  0  0  0
  1 81  1  0  0  0
  2  3  1  0  0  0
  2 25  1  0  0  0
  2 82  1  0  0  0
  2 83  1  0  0  0
  3  4  1  0  0  0
  3 84  1  0  0  0
  3 85  1  0  0  0
  4  5  1  0  0  0
  4 86  1  0  0  0
  4 87  1  0  0  0
  5  6  1  0  0  0
  5 26  1  0  0  0
  5 88  1  0  0  0
  6 25  1  0  0  0
  6 89  1  0  0  0
  6 90  1  0  0  0
  7  8  2  0  0  0
  7 26  1  0  0  0
  7 29  1  0  0  0
  8  9  1  0  0  0
  8 22  1  0  0  0
  9 10  1  0  0  0
  9 27  2  0  0  0
 10 11  2  0  0  0
 10 15  1  0  0  0
 11 12  1  0  0  0
 11 91  1  0  0  0
 12 13  2  0  0  0
 12 92  1  0  0  0
 13 14  1  0  0  0
 13 31  1  0  0  0
 14 15  2  0  0  0
 14 93  1  0  0  0
 15 94  1  0  0  0
 16 17  2  0  0  0
 16 21  1  0  0  0
 16 31  1  0  0  0
 17 18  1  0  0  0
 17 95  1  0  0  0
 18 19  2  0  0  0
 18 96  1  0  0  0
 19 20  1  0  0  0
 19 24  1  0  0  0
 20 21  2  0  0  0
 20 97  1  0  0  0
 21 23  1  0  0  0
 22 28  1  0  0  0
 22 32  2  0  0  0
 26 27  1  0  0  0
 28 98  1  0  0  0
 28 99  1  0  0  0
 29100  1  0  0  0
 29101  1  0  0  0
 33 34  1  0  0  0
 33 66  1  0  0  0
 33 70  2  0  0  0
 34 36  1  0  0  0
 34 59  1  0  0  0
 34102  1  0  0  0
 35 44  2  0  0  0
 35 45  1  0  0  0
 35 68  1  0  0  0
 36 56  1  0  0  0
 36103  1  0  0  0
 37 39  1  0  0  0
 37 47  1  0  0  0
 37 66  1  0  0  0
 37104  1  0  0  0
 38 43  2  0  0  0
 38 46  1  0  0  0
 38 47  1  0  0  0
 39 64  1  0  0  0
 39 67  2  0  0  0
 40 52  1  0  0  0
 40 53  2  0  0  0
 40 58  1  0  0  0
 41105  1  0  0  0
 41106  1  0  0  0
 41107  1  0  0  0
 41 48  1  0  0  0
 42 43  1  0  0  0
 42 66  1  0  0  0
 42108  1  0  0  0
 42109  1  0  0  0
 43 44  1  0  0  0
 44110  1  0  0  0
 45 46  2  0  0  0
 45111  1  0  0  0
 46112  1  0  0  0
 47113  1  0  0  0
 47114  1  0  0  0
 48 56  1  0  0  0
 48 65  1  0  0  0
 48115  1  0  0  0
 49 50  1  0  0  0
 49 53  1  0  0  0
 49 64  1  0  0  0
 49116  1  0  0  0
 50 51  1  0  0  0
 50117  1  0  0  0
 50118  1  0  0  0
 51 52  1  0  0  0
 51119  1  0  0  0
 51120  1  0  0  0
 52121  1  0  0  0
 52122  1  0  0  0
 53 54  1  0  0  0
 54 55  2  0  0  0
 54123  1  0  0  0
 55 57  1  0  0  0
 55124  1  0  0  0
 56 69  2  0  0  0
 57 58  2  0  0  0
 57125  1  0  0  0
 58126  1  0  0  0
 59 60  1  0  0  0
 59 61  1  0  0  0
 59 62  1  0  0  0
 60127  1  0  0  0
 60128  1  0  0  0
 60129  1  0  0  0
 61130  1  0  0  0
 61131  1  0  0  0
 61132  1  0  0  0
 62133  1  0  0  0
 62134  1  0  0  0
 62135  1  0  0  0
 63 65  1  0  0  0
 63136  1  0  0  0
 63137  1  0  0  0
 63138  1  0  0  0
 64139  1  0  0  0
 65140  1  0  0  0
 68 79  1  0  0  0
 71 73  2  0  0  0
 71 74  1  0  0  0
 71141  1  0  0  0
 72 73  1  0  0  0
 72 80  2  0  0  0
 72142  1  0  0  0
 73 77  1  0  0  0
 74 75  2  0  0  0
 74 78  1  0  0  0
 75 76  1  0  0  0
 75 80  1  0  0  0
 76143  1  0  0  0
 76144  1  0  0  0
 76145  1  0  0  0
 77 79  1  0  0  0
 77146  1  0  0  0
 77147  1  0  0  0
 78 81  1  0  0  0
 78148  1  0  0  0
 78149  1  0  0  0
 79150  1  0  0  0
 79151  1  0  0  0
 81152  1  0  0  0
M  ISO  4   1 100  68 101  79 101  81 100
M  END
> <chiral flag>
0

> <version>
0

> <s_m_source_file>
/data/baiqing/PycharmProjects/Reinvent-master-3.2/result/LINK_invent/BTK/process_docking_weight1_custom_sum_contain_oxygen_bond_distance_aromatic_linkinvent_7_9_3/rearranged_h_0046.sdf

> <i_m_source_file_index>
53

> <r_mmod_Potential_Energy-OPLS-2005>
344.588439941406

> <r_mmod_Stretch_Energy-OPLS-2005>
277.397338867188

> <r_mmod_Bend_Energy-OPLS-2005>
253.032043457031

> <r_mmod_Torsional_Energy-OPLS-2005>
199.066207885742

> <r_mmod_Improper_Torsional_Energy-OPLS-2005>
4.64917230606079

> <r_mmod_Van_der_Waal_Energy-OPLS-2005>
127.653144836426

> <r_mmod_Electrostatic_Energy-OPLS-2005>
-497.505920410156

> <r_mmod_Solvation_Energy-OPLS-2005>
-228.136672973633

> <b_mmod_Minimization_Converged-OPLS-2005>
0

> <r_mmod_RMS_Derivative-OPLS-2005>
0.560775339603424

$$$$
54
                    3D
 Structure written by MMmdl.
160168  0  0  1  0            999 V2000
  -30.7003  -14.4425   20.5346 C   0  0  0  0  0  0
  -30.4194  -12.2790   19.4158 C   0  0  0  0  0  0
  -29.4913  -12.4879   18.2016 C   0  0  0  0  0  0
  -28.0099  -12.3646   18.6153 C   0  0  0  0  0  0
  -27.6608  -13.1999   19.8774 C   0  0  2  0  0  0
  -28.7069  -12.9653   20.9919 C   0  0  0  0  0  0
  -25.2602  -13.8152   20.5708 C   0  0  0  0  0  0
  -24.1844  -13.0442   20.9203 C   0  0  0  0  0  0
  -24.6377  -11.6902   20.8749 C   0  0  0  0  0  0
  -23.9041  -10.4291   21.0412 C   0  0  0  0  0  0
  -24.3602   -9.4205   21.9185 C   0  0  0  0  0  0
  -23.6287   -8.2236   22.0752 C   0  0  0  0  0  0
  -22.4269   -8.0275   21.3546 C   0  0  0  0  0  0
  -21.9902   -9.0247   20.4649 C   0  0  0  0  0  0
  -22.7219  -10.2132   20.3058 C   0  0  0  0  0  0
  -21.6854   -6.0736   22.5281 C   0  0  0  0  0  0
  -21.4011   -6.5639   23.8215 C   0  0  0  0  0  0
  -21.3660   -5.6789   24.9177 C   0  0  0  0  0  0
  -21.6045   -4.3052   24.7225 C   0  0  0  0  0  0
  -21.8821   -3.8146   23.4345 C   0  0  0  0  0  0
  -21.9193   -4.6964   22.3402 C   0  0  0  0  0  0
  -22.7865  -13.5246   21.1853 C   0  0  0  0  0  0
  -22.1661   -4.2150   21.0980 F   0  0  0  0  0  0
  -21.5627   -3.4534   25.7737 F   0  0  0  0  0  0
  -30.0299  -13.2669   20.4302 N   0  0  0  0  0  0
  -26.3023  -12.9301   20.3399 N   0  0  0  0  0  0
  -25.9301  -11.6469   20.5791 N   0  0  0  0  0  0
  -22.0490  -12.8249   22.0404 N   0  0  0  0  0  0
  -25.4353  -15.1867   20.4105 N   0  0  0  0  0  0
  -31.8651  -14.5920   20.1666 O   0  0  0  0  0  0
  -21.6635   -6.8874   21.4243 O   0  0  0  0  0  0
  -22.3563  -14.5553   20.6689 O   0  0  0  0  0  0
  -24.6131  -31.8744   23.2130 C   0  0  0  0  0  0
  -25.9034  -32.4859   23.8421 C   0  0  1  0  0  0
  -27.2361  -27.4734   20.0926 C   0  0  0  0  0  0
  -25.5911  -33.8653   24.2361 N   0  0  0  0  0  0
  -23.4007  -30.5023   21.5516 C   0  0  2  0  0  0
  -24.8462  -28.9645   20.1153 C   0  0  0  0  0  0
  -22.7410  -29.4847   22.5058 C   0  0  0  0  0  0
  -18.0086  -28.1507   22.8284 C   0  0  0  0  0  0
  -24.1489  -36.7326   23.2634 C   0  0  0  0  0  0
  -25.9235  -30.8495   21.3599 C   0  0  0  0  0  0
  -26.0016  -29.4839   20.7134 C   0  0  0  0  0  0
  -27.2001  -28.7414   20.7069 C   0  0  0  0  0  0
  -26.0742  -26.9627   19.4805 C   0  0  0  0  0  0
  -24.8748  -27.7011   19.4972 C   0  0  0  0  0  0
  -23.6048  -29.8255   20.1680 C   0  0  0  0  0  0
  -25.4110  -36.3132   24.0338 C   0  0  1  0  0  0
  -20.5937  -28.3720   23.1132 C   0  0  2  0  0  0
  -20.7761  -26.9743   22.4591 C   0  0  0  0  0  0
  -19.5469  -26.4222   21.7074 C   0  0  0  0  0  0
  -18.1058  -26.8597   22.0281 C   0  0  0  0  0  0
  -19.1486  -28.8722   23.2822 C   0  0  0  0  0  0
  -18.9487  -30.1263   23.9039 C   0  0  0  0  0  0
  -17.6551  -30.6524   24.0790 C   0  0  0  0  0  0
  -25.9032  -34.9496   23.5141 C   0  0  0  0  0  0
  -16.5351  -29.9194   23.6540 C   0  0  0  0  0  0
  -16.7153  -28.6712   23.0367 C   0  0  0  0  0  0
  -26.4465  -31.6600   25.0719 C   0  0  0  0  0  0
  -25.3743  -31.3684   26.1473 C   0  0  0  0  0  0
  -27.0273  -30.3046   24.6042 C   0  0  0  0  0  0
  -27.6064  -32.4286   25.7477 C   0  0  0  0  0  0
  -27.5583  -37.1822   24.8469 C   0  0  0  0  0  0
  -21.4105  -29.3471   22.3962 N   0  0  0  0  0  0
  -26.4302  -37.3806   23.9404 N   0  0  0  0  0  0
  -24.6644  -31.0891   22.1001 N   0  0  0  0  0  0
  -23.4199  -28.8196   23.2929 O   0  0  0  0  0  0
  -28.3872  -26.7289   20.1041 O   0  0  0  0  0  0
  -26.5581  -34.8944   22.4692 O   0  0  0  0  0  0
  -23.5334  -32.1474   23.7547 O   0  0  0  0  0  0
  -26.8845  -19.6937   21.1911 C   0  0  0  0  0  0
  -25.9629  -20.7202   20.9563 C   0  0  0  0  0  0
  -28.0871  -20.0423   21.8343 C   0  0  0  0  0  0
  -27.3803  -22.2268   21.9250 C   0  0  0  0  0  0
  -24.6444  -20.4616   20.2599 C   0  0  0  0  0  0
  -27.7032  -23.6750   22.2437 C   0  0  0  0  0  0
  -28.0513  -24.4760   20.9769 C   0  0  0  0  0  0
  -29.1520  -17.7124   21.3177 C   0  0  0  0  0  0
  -29.2399  -16.1796   21.6256 C   0  0  0  0  0  0
  -28.5052  -25.9142   21.2715 C   0  0  0  0  0  0
  -29.2011  -19.0317   22.1664 C   0  0  0  0  0  0
  -26.2161  -21.9857   21.3323 N   0  0  0  0  0  0
  -28.3170  -21.3244   22.1900 N   0  0  0  0  0  0
  -29.9228  -15.5312   20.5030 N   0  0  0  0  0  0
  -30.3539  -19.6764   21.9248 F   0  0  0  0  0  0
  -29.1630  -18.7613   23.4772 F   0  0  0  0  0  0
  -31.4636  -12.3748   19.1137 H   0  0  0  0  0  0
  -30.3147  -11.2676   19.8116 H   0  0  0  0  0  0
  -29.7224  -11.7619   17.4209 H   0  0  0  0  0  0
  -29.6696  -13.4723   17.7666 H   0  0  0  0  0  0
  -27.8090  -11.3100   18.8058 H   0  0  0  0  0  0
  -27.3629  -12.6500   17.7854 H   0  0  0  0  0  0
  -27.7035  -14.2480   19.5832 H   0  0  0  0  0  0
  -28.6786  -11.9257   21.3213 H   0  0  0  0  0  0
  -28.4961  -13.5551   21.8820 H   0  0  0  0  0  0
  -25.2747   -9.5689   22.4761 H   0  0  0  0  0  0
  -24.0005   -7.4628   22.7467 H   0  0  0  0  0  0
  -21.0833   -8.8759   19.8950 H   0  0  0  0  0  0
  -22.3674  -10.9673   19.6169 H   0  0  0  0  0  0
  -21.1997   -7.6147   23.9720 H   0  0  0  0  0  0
  -21.1489   -6.0518   25.9081 H   0  0  0  0  0  0
  -22.0603   -2.7610   23.2844 H   0  0  0  0  0  0
  -22.4089  -11.9909   22.4809 H   0  0  0  0  0  0
  -21.1106  -13.1291   22.2587 H   0  0  0  0  0  0
  -24.6708  -15.8451   20.5111 H   0  0  0  0  0  0
  -26.2870  -15.6125   20.0686 H   0  0  0  0  0  0
  -26.7112  -32.5588   23.1201 H   0  0  0  0  0  0
  -25.0090  -33.9823   25.0523 H   0  0  0  0  0  0
  -22.6903  -31.3198   21.4092 H   0  0  0  0  0  0
  -23.3749  -35.9660   23.3315 H   0  0  0  0  0  0
  -24.3588  -36.8914   22.2045 H   0  0  0  0  0  0
  -23.7246  -37.6541   23.6629 H   0  0  0  0  0  0
  -26.0263  -31.6128   20.5871 H   0  0  0  0  0  0
  -26.8158  -30.9097   21.9715 H   0  0  0  0  0  0
  -28.0931  -29.1334   21.1738 H   0  0  0  0  0  0
  -26.0935  -25.9967   18.9972 H   0  0  0  0  0  0
  -23.9869  -27.2975   19.0294 H   0  0  0  0  0  0
  -23.7030  -30.5954   19.4021 H   0  0  0  0  0  0
  -22.7305  -29.2375   19.8827 H   0  0  0  0  0  0
  -25.1285  -36.2001   25.0830 H   0  0  0  0  0  0
  -20.9891  -28.3059   24.1298 H   0  0  0  0  0  0
  -21.1663  -26.2915   23.2248 H   0  0  0  0  0  0
  -21.6099  -26.9928   21.7535 H   0  0  0  0  0  0
  -19.3887  -26.0227   22.7084 H   0  0  0  0  0  0
  -19.6064  -27.3509   21.1347 H   0  0  0  0  0  0
  -17.5746  -27.0245   21.0870 H   0  0  0  0  0  0
  -17.5015  -26.0885   22.5227 H   0  0  0  0  0  0
  -19.8011  -30.6976   24.2472 H   0  0  0  0  0  0
  -17.5216  -31.6157   24.5521 H   0  0  0  0  0  0
  -15.5391  -30.3173   23.7927 H   0  0  0  0  0  0
  -15.8493  -28.1252   22.6872 H   0  0  0  0  0  0
  -24.5925  -30.7024   25.7803 H   0  0  0  0  0  0
  -24.8929  -32.2833   26.4935 H   0  0  0  0  0  0
  -25.8111  -30.8844   27.0219 H   0  0  0  0  0  0
  -26.2792  -29.6829   24.1114 H   0  0  0  0  0  0
  -27.4081  -29.7253   25.4463 H   0  0  0  0  0  0
  -27.8613  -30.4373   23.9147 H   0  0  0  0  0  0
  -27.2709  -33.3572   26.2103 H   0  0  0  0  0  0
  -28.3857  -32.6859   25.0290 H   0  0  0  0  0  0
  -28.0750  -31.8371   26.5351 H   0  0  0  0  0  0
  -28.2622  -38.0102   24.7512 H   0  0  0  0  0  0
  -28.1065  -36.2640   24.6304 H   0  0  0  0  0  0
  -27.2309  -37.1484   25.8876 H   0  0  0  0  0  0
  -20.9238  -29.9416   21.7399 H   0  0  0  0  0  0
  -26.0200  -38.2887   24.1393 H   0  0  0  0  0  0
  -26.6610  -18.6823   20.8809 H   0  0  0  0  0  0
  -24.7150  -19.5939   19.6041 H   0  0  0  0  0  0
  -24.3493  -21.3161   19.6506 H   0  0  0  0  0  0
  -23.8589  -20.2757   20.9920 H   0  0  0  0  0  0
  -28.5335  -23.7133   22.9506 H   0  0  0  0  0  0
  -26.8502  -24.1251   22.7533 H   0  0  0  0  0  0
  -27.1726  -24.4826   20.3340 H   0  0  0  0  0  0
  -28.8303  -23.9617   20.4145 H   0  0  0  0  0  0
  -30.2030  -17.6374   21.6001 H   0  0  0  0  0  0
  -28.2401  -17.5905   21.8994 H   0  0  0  0  0  0
  -28.2519  -15.7119   21.6854 H   0  0  0  0  0  0
  -29.7361  -15.9575   22.5765 H   0  0  0  0  0  0
  -29.5459  -25.9155   21.5977 H   0  0  0  0  0  0
  -27.9306  -26.3295   22.1031 H   0  0  0  0  0  0
  -30.3476  -16.2201   19.8994 H   0  0  0  0  0  0
  1 25  1  0  0  0
  1 30  2  0  0  0
  1 84  1  0  0  0
  2  3  1  0  0  0
  2 25  1  0  0  0
  2 87  1  0  0  0
  2 88  1  0  0  0
  3  4  1  0  0  0
  3 89  1  0  0  0
  3 90  1  0  0  0
  4  5  1  0  0  0
  4 91  1  0  0  0
  4 92  1  0  0  0
  5  6  1  0  0  0
  5 26  1  0  0  0
  5 93  1  0  0  0
  6 25  1  0  0  0
  6 94  1  0  0  0
  6 95  1  0  0  0
  7  8  2  0  0  0
  7 26  1  0  0  0
  7 29  1  0  0  0
  8  9  1  0  0  0
  8 22  1  0  0  0
  9 10  1  0  0  0
  9 27  2  0  0  0
 10 11  2  0  0  0
 10 15  1  0  0  0
 11 12  1  0  0  0
 11 96  1  0  0  0
 12 13  2  0  0  0
 12 97  1  0  0  0
 13 14  1  0  0  0
 13 31  1  0  0  0
 14 15  2  0  0  0
 14 98  1  0  0  0
 15 99  1  0  0  0
 16 17  2  0  0  0
 16 21  1  0  0  0
 16 31  1  0  0  0
 17 18  1  0  0  0
 17100  1  0  0  0
 18 19  2  0  0  0
 18101  1  0  0  0
 19 20  1  0  0  0
 19 24  1  0  0  0
 20 21  2  0  0  0
 20102  1  0  0  0
 21 23  1  0  0  0
 22 28  1  0  0  0
 22 32  2  0  0  0
 26 27  1  0  0  0
 28103  1  0  0  0
 28104  1  0  0  0
 29105  1  0  0  0
 29106  1  0  0  0
 33 34  1  0  0  0
 33 66  1  0  0  0
 33 70  2  0  0  0
 34 36  1  0  0  0
 34 59  1  0  0  0
 34107  1  0  0  0
 35 44  2  0  0  0
 35 45  1  0  0  0
 35 68  1  0  0  0
 36 56  1  0  0  0
 36108  1  0  0  0
 37 39  1  0  0  0
 37 47  1  0  0  0
 37 66  1  0  0  0
 37109  1  0  0  0
 38 43  2  0  0  0
 38 46  1  0  0  0
 38 47  1  0  0  0
 39 64  1  0  0  0
 39 67  2  0  0  0
 40 52  1  0  0  0
 40 53  2  0  0  0
 40 58  1  0  0  0
 41110  1  0  0  0
 41111  1  0  0  0
 41112  1  0  0  0
 41 48  1  0  0  0
 42 43  1  0  0  0
 42 66  1  0  0  0
 42113  1  0  0  0
 42114  1  0  0  0
 43 44  1  0  0  0
 44115  1  0  0  0
 45 46  2  0  0  0
 45116  1  0  0  0
 46117  1  0  0  0
 47118  1  0  0  0
 47119  1  0  0  0
 48 56  1  0  0  0
 48 65  1  0  0  0
 48120  1  0  0  0
 49 50  1  0  0  0
 49 53  1  0  0  0
 49 64  1  0  0  0
 49121  1  0  0  0
 50 51  1  0  0  0
 50122  1  0  0  0
 50123  1  0  0  0
 51 52  1  0  0  0
 51124  1  0  0  0
 51125  1  0  0  0
 52126  1  0  0  0
 52127  1  0  0  0
 53 54  1  0  0  0
 54 55  2  0  0  0
 54128  1  0  0  0
 55 57  1  0  0  0
 55129  1  0  0  0
 56 69  2  0  0  0
 57 58  2  0  0  0
 57130  1  0  0  0
 58131  1  0  0  0
 59 60  1  0  0  0
 59 61  1  0  0  0
 59 62  1  0  0  0
 60132  1  0  0  0
 60133  1  0  0  0
 60134  1  0  0  0
 61135  1  0  0  0
 61136  1  0  0  0
 61137  1  0  0  0
 62138  1  0  0  0
 62139  1  0  0  0
 62140  1  0  0  0
 63 65  1  0  0  0
 63141  1  0  0  0
 63142  1  0  0  0
 63143  1  0  0  0
 64144  1  0  0  0
 65145  1  0  0  0
 68 80  1  0  0  0
 71 72  2  0  0  0
 71 73  1  0  0  0
 71146  1  0  0  0
 72 75  1  0  0  0
 72 82  1  0  0  0
 73 81  1  0  0  0
 73 83  2  0  0  0
 74 76  1  0  0  0
 74 82  2  0  0  0
 74 83  1  0  0  0
 75147  1  0  0  0
 75148  1  0  0  0
 75149  1  0  0  0
 76 77  1  0  0  0
 76150  1  0  0  0
 76151  1  0  0  0
 77 80  1  0  0  0
 77152  1  0  0  0
 77153  1  0  0  0
 78 79  1  0  0  0
 78 81  1  0  0  0
 78154  1  0  0  0
 78155  1  0  0  0
 79 84  1  0  0  0
 79156  1  0  0  0
 79157  1  0  0  0
 80158  1  0  0  0
 80159  1  0  0  0
 81 85  1  0  0  0
 81 86  1  0  0  0
 84160  1  0  0  0
M  ISO  4   1 100  68 101  80 101  84 100
M  END
> <chiral flag>
0

> <version>
0

> <s_m_source_file>
/data/baiqing/PycharmProjects/Reinvent-master-3.2/result/LINK_invent/BTK/process_docking_weight1_custom_sum_contain_oxygen_bond_distance_aromatic_linkinvent_7_9_3/rearranged_h_0046.sdf

> <i_m_source_file_index>
54

> <r_mmod_Potential_Energy-OPLS-2005>
107.784614562988

> <r_mmod_Stretch_Energy-OPLS-2005>
35.1953659057617

> <r_mmod_Bend_Energy-OPLS-2005>
568.96630859375

> <r_mmod_Torsional_Energy-OPLS-2005>
296.713317871094

> <r_mmod_Improper_Torsional_Energy-OPLS-2005>
22.7458152770996

> <r_mmod_Van_der_Waal_Energy-OPLS-2005>
203.87516784668

> <r_mmod_Electrostatic_Energy-OPLS-2005>
-816.874145507812

> <r_mmod_Solvation_Energy-OPLS-2005>
-229.918762207031

> <b_mmod_Minimization_Converged-OPLS-2005>
0

> <r_mmod_RMS_Derivative-OPLS-2005>
1.11944234371185

$$$$
55
                    3D
 Structure written by MMmdl.
168176  0  0  1  0            999 V2000
  -30.6644  -14.6577   20.3918 C   0  0  0  0  0  0
  -30.4293  -12.3566   19.4859 C   0  0  0  0  0  0
  -29.5170  -12.3288   18.2449 C   0  0  0  0  0  0
  -28.0206  -12.2939   18.6360 C   0  0  0  0  0  0
  -27.6370  -13.2006   19.8416 C   0  0  2  0  0  0
  -28.6908  -13.1632   20.9652 C   0  0  0  0  0  0
  -25.2546  -13.8125   20.5726 C   0  0  0  0  0  0
  -24.1797  -13.0415   20.9211 C   0  0  0  0  0  0
  -24.6340  -11.6884   20.8773 C   0  0  0  0  0  0
  -23.9008  -10.4280   21.0425 C   0  0  0  0  0  0
  -24.3575   -9.4206   21.9197 C   0  0  0  0  0  0
  -23.6269   -8.2229   22.0748 C   0  0  0  0  0  0
  -22.4263   -8.0258   21.3531 C   0  0  0  0  0  0
  -21.9879   -9.0231   20.4635 C   0  0  0  0  0  0
  -22.7185  -10.2125   20.3065 C   0  0  0  0  0  0
  -21.6857   -6.0722   22.5279 C   0  0  0  0  0  0
  -21.4010   -6.5630   23.8211 C   0  0  0  0  0  0
  -21.3652   -5.6783   24.9174 C   0  0  0  0  0  0
  -21.6045   -4.3044   24.7229 C   0  0  0  0  0  0
  -21.8823   -3.8140   23.4352 C   0  0  0  0  0  0
  -21.9192   -4.6952   22.3405 C   0  0  0  0  0  0
  -22.7825  -13.5229   21.1851 C   0  0  0  0  0  0
  -22.1659   -4.2135   21.0982 F   0  0  0  0  0  0
  -21.5634   -3.4528   25.7742 F   0  0  0  0  0  0
  -29.9876  -13.4659   20.3514 N   0  0  0  0  0  0
  -26.2926  -12.9257   20.3313 N   0  0  0  0  0  0
  -25.9263  -11.6443   20.5813 N   0  0  0  0  0  0
  -22.0458  -12.8239   22.0408 N   0  0  0  0  0  0
  -25.4293  -15.1845   20.4185 N   0  0  0  0  0  0
  -31.8844  -14.6879   20.2114 O   0  0  0  0  0  0
  -21.6636   -6.8853   21.4232 O   0  0  0  0  0  0
  -22.3530  -14.5530   20.6678 O   0  0  0  0  0  0
  -24.6204  -31.8643   23.2072 C   0  0  0  0  0  0
  -25.9075  -32.4802   23.8382 C   0  0  1  0  0  0
  -27.2277  -27.3757   20.1200 C   0  0  0  0  0  0
  -25.5914  -33.8602   24.2311 N   0  0  0  0  0  0
  -23.4108  -30.4893   21.5487 C   0  0  2  0  0  0
  -24.8572  -28.9538   20.1128 C   0  0  0  0  0  0
  -22.7443  -29.4647   22.4962 C   0  0  0  0  0  0
  -18.0278  -28.1384   22.8489 C   0  0  0  0  0  0
  -24.1487  -36.7307   23.2639 C   0  0  0  0  0  0
  -25.9455  -30.8163   21.3673 C   0  0  0  0  0  0
  -26.0225  -29.4480   20.7118 C   0  0  0  0  0  0
  -27.2117  -28.6714   20.7040 C   0  0  0  0  0  0
  -26.0394  -26.9185   19.5011 C   0  0  0  0  0  0
  -24.8654  -27.6923   19.4983 C   0  0  0  0  0  0
  -23.6219  -29.8264   20.1625 C   0  0  0  0  0  0
  -25.4109  -36.3099   24.0333 C   0  0  1  0  0  0
  -20.5874  -28.3679   23.1303 C   0  0  2  0  0  0
  -20.6772  -26.9408   22.5417 C   0  0  0  0  0  0
  -19.5749  -26.6387   21.5216 C   0  0  0  0  0  0
  -18.1926  -26.7929   22.1622 C   0  0  0  0  0  0
  -19.1529  -28.8847   23.2891 C   0  0  0  0  0  0
  -18.9456  -30.1456   23.8904 C   0  0  0  0  0  0
  -17.6452  -30.6588   24.0570 C   0  0  0  0  0  0
  -25.9042  -34.9465   23.5120 C   0  0  0  0  0  0
  -16.5346  -29.9088   23.6331 C   0  0  0  0  0  0
  -16.7267  -28.6508   23.0347 C   0  0  0  0  0  0
  -26.4487  -31.6589   25.0723 C   0  0  0  0  0  0
  -25.3746  -31.3698   26.1466 C   0  0  0  0  0  0
  -27.0320  -30.3025   24.6122 C   0  0  0  0  0  0
  -27.6059  -32.4309   25.7487 C   0  0  0  0  0  0
  -27.5582  -37.1807   24.8461 C   0  0  0  0  0  0
  -21.4163  -29.3040   22.3704 N   0  0  0  0  0  0
  -26.4291  -37.3789   23.9410 N   0  0  0  0  0  0
  -24.6773  -31.0715   22.0992 N   0  0  0  0  0  0
  -23.4192  -28.8187   23.3022 O   0  0  0  0  0  0
  -28.3675  -26.5758   20.1740 O   0  0  0  0  0  0
  -26.5604  -34.8922   22.4683 O   0  0  0  0  0  0
  -23.5385  -32.1412   23.7443 O   0  0  0  0  0  0
  -31.9667  -20.3731   19.8878 C   0  0  0  0  0  0
  -31.9806  -21.4153   18.9243 C   0  0  0  0  0  0
  -30.8197  -20.5795   20.6208 C   0  0  0  0  0  0
  -33.0311  -19.3164   20.0282 C   0  0  0  0  0  0
  -32.9637  -21.6666   17.8173 C   0  0  0  0  0  0
  -29.3441  -15.7112   17.8782 C   0  0  0  0  0  0
  -30.2862  -19.7058   21.7583 C   0  0  0  0  0  0
  -29.6537  -18.2980   21.4235 C   0  0  0  0  0  0
  -29.4211  -24.2564   20.5165 C   0  0  0  0  0  0
  -29.1767  -22.6893   20.6133 C   0  0  0  0  0  0
  -29.1468  -16.3356   19.2699 C   0  0  0  0  0  0
  -30.5939  -17.0700   21.0453 C   0  0  0  0  0  0
  -28.1558  -25.1319   20.2412 C   0  0  0  0  0  0
  -30.9899  -22.2591   19.1011 N   0  0  0  0  0  0
  -30.3106  -21.8308   20.1890 N   0  0  0  0  0  0
  -29.9577  -15.8503   20.4295 N   0  0  0  0  0  0
  -31.4737  -12.4519   19.1834 H   0  0  0  0  0  0
  -30.3615  -11.4121   20.0282 H   0  0  0  0  0  0
  -29.7436  -11.4391   17.6566 H   0  0  0  0  0  0
  -29.7596  -13.1474   17.5775 H   0  0  0  0  0  0
  -27.7946  -11.2565   18.8833 H   0  0  0  0  0  0
  -27.3985  -12.5306   17.7719 H   0  0  0  0  0  0
  -27.6039  -14.2099   19.4578 H   0  0  0  0  0  0
  -28.7124  -12.1862   21.4507 H   0  0  0  0  0  0
  -28.4496  -13.8932   21.7399 H   0  0  0  0  0  0
  -25.2715   -9.5706   22.4775 H   0  0  0  0  0  0
  -23.9994   -7.4625   22.7466 H   0  0  0  0  0  0
  -21.0811   -8.8732   19.8935 H   0  0  0  0  0  0
  -22.3626  -10.9667   19.6182 H   0  0  0  0  0  0
  -21.2001   -7.6141   23.9719 H   0  0  0  0  0  0
  -21.1462   -6.0509   25.9074 H   0  0  0  0  0  0
  -22.0610   -2.7603   23.2870 H   0  0  0  0  0  0
  -22.4055  -11.9897   22.4800 H   0  0  0  0  0  0
  -21.1076  -13.1274   22.2597 H   0  0  0  0  0  0
  -24.6696  -15.8458   20.5401 H   0  0  0  0  0  0
  -26.2963  -15.6218   20.1360 H   0  0  0  0  0  0
  -26.7148  -32.5492   23.1144 H   0  0  0  0  0  0
  -25.0074  -33.9759   25.0461 H   0  0  0  0  0  0
  -22.7014  -31.3077   21.4097 H   0  0  0  0  0  0
  -23.3747  -35.9642   23.3295 H   0  0  0  0  0  0
  -24.3587  -36.8929   22.2055 H   0  0  0  0  0  0
  -23.7237  -37.6508   23.6659 H   0  0  0  0  0  0
  -26.0643  -31.5813   20.5991 H   0  0  0  0  0  0
  -26.8311  -30.8680   21.9889 H   0  0  0  0  0  0
  -28.1076  -29.0481   21.1780 H   0  0  0  0  0  0
  -25.9896  -25.9563   19.0164 H   0  0  0  0  0  0
  -23.9727  -27.3065   19.0254 H   0  0  0  0  0  0
  -23.7357  -30.6038   19.4059 H   0  0  0  0  0  0
  -22.7437  -29.2518   19.8624 H   0  0  0  0  0  0
  -25.1285  -36.1962   25.0826 H   0  0  0  0  0  0
  -20.9965  -28.3251   24.1424 H   0  0  0  0  0  0
  -20.5681  -26.2285   23.3610 H   0  0  0  0  0  0
  -21.6642  -26.7455   22.1204 H   0  0  0  0  0  0
  -19.6911  -25.6301   21.1238 H   0  0  0  0  0  0
  -19.6691  -27.3208   20.6754 H   0  0  0  0  0  0
  -17.4201  -26.6689   21.4018 H   0  0  0  0  0  0
  -18.0317  -26.0067   22.9013 H   0  0  0  0  0  0
  -19.7929  -30.7273   24.2271 H   0  0  0  0  0  0
  -17.5007  -31.6265   24.5173 H   0  0  0  0  0  0
  -15.5346  -30.2993   23.7652 H   0  0  0  0  0  0
  -15.8667  -28.0833   22.7048 H   0  0  0  0  0  0
  -24.5921  -30.7046   25.7798 H   0  0  0  0  0  0
  -24.8940  -32.2854   26.4922 H   0  0  0  0  0  0
  -25.8098  -30.8859   27.0220 H   0  0  0  0  0  0
  -26.2874  -29.6776   24.1178 H   0  0  0  0  0  0
  -27.4082  -29.7271   25.4591 H   0  0  0  0  0  0
  -27.8712  -30.4332   23.9286 H   0  0  0  0  0  0
  -27.2678  -33.3604   26.2081 H   0  0  0  0  0  0
  -28.3863  -32.6877   25.0310 H   0  0  0  0  0  0
  -28.0733  -31.8419   26.5387 H   0  0  0  0  0  0
  -28.2595  -38.0109   24.7518 H   0  0  0  0  0  0
  -28.1083  -36.2641   24.6273 H   0  0  0  0  0  0
  -27.2301  -37.1441   25.8864 H   0  0  0  0  0  0
  -20.9327  -29.8770   21.6930 H   0  0  0  0  0  0
  -26.0173  -38.2863   24.1420 H   0  0  0  0  0  0
  -34.0302  -19.7431   19.9360 H   0  0  0  0  0  0
  -32.9528  -18.5515   19.2559 H   0  0  0  0  0  0
  -33.0025  -18.8206   20.9984 H   0  0  0  0  0  0
  -33.5581  -20.7793   17.6009 H   0  0  0  0  0  0
  -33.6507  -22.4709   18.0795 H   0  0  0  0  0  0
  -32.4574  -21.9498   16.8939 H   0  0  0  0  0  0
  -29.1081  -16.4492   17.1095 H   0  0  0  0  0  0
  -28.6479  -14.9003   17.6926 H   0  0  0  0  0  0
  -30.3680  -15.3883   17.6913 H   0  0  0  0  0  0
  -29.5338  -20.2794   22.2990 H   0  0  0  0  0  0
  -31.0841  -19.5592   22.4862 H   0  0  0  0  0  0
  -28.8746  -18.4910   20.6896 H   0  0  0  0  0  0
  -29.0997  -17.9839   22.3088 H   0  0  0  0  0  0
  -30.1267  -24.4944   19.7222 H   0  0  0  0  0  0
  -29.9032  -24.5931   21.4345 H   0  0  0  0  0  0
  -28.3258  -22.4191   19.9871 H   0  0  0  0  0  0
  -28.8962  -22.4268   21.6334 H   0  0  0  0  0  0
  -28.0930  -16.3576   19.5449 H   0  0  0  0  0  0
  -29.3987  -17.3706   19.0449 H   0  0  0  0  0  0
  -31.1582  -16.7758   21.9317 H   0  0  0  0  0  0
  -31.3338  -17.4009   20.3243 H   0  0  0  0  0  0
  -27.4100  -24.9181   21.0085 H   0  0  0  0  0  0
  -27.7436  -24.7886   19.2929 H   0  0  0  0  0  0
  1 25  1  0  0  0
  1 30  2  0  0  0
  1 86  1  0  0  0
  2  3  1  0  0  0
  2 25  1  0  0  0
  2 87  1  0  0  0
  2 88  1  0  0  0
  3  4  1  0  0  0
  3 89  1  0  0  0
  3 90  1  0  0  0
  4  5  1  0  0  0
  4 91  1  0  0  0
  4 92  1  0  0  0
  5  6  1  0  0  0
  5 26  1  0  0  0
  5 93  1  0  0  0
  6 25  1  0  0  0
  6 94  1  0  0  0
  6 95  1  0  0  0
  7  8  2  0  0  0
  7 26  1  0  0  0
  7 29  1  0  0  0
  8  9  1  0  0  0
  8 22  1  0  0  0
  9 10  1  0  0  0
  9 27  2  0  0  0
 10 11  2  0  0  0
 10 15  1  0  0  0
 11 12  1  0  0  0
 11 96  1  0  0  0
 12 13  2  0  0  0
 12 97  1  0  0  0
 13 14  1  0  0  0
 13 31  1  0  0  0
 14 15  2  0  0  0
 14 98  1  0  0  0
 15 99  1  0  0  0
 16 17  2  0  0  0
 16 21  1  0  0  0
 16 31  1  0  0  0
 17 18  1  0  0  0
 17100  1  0  0  0
 18 19  2  0  0  0
 18101  1  0  0  0
 19 20  1  0  0  0
 19 24  1  0  0  0
 20 21  2  0  0  0
 20102  1  0  0  0
 21 23  1  0  0  0
 22 28  1  0  0  0
 22 32  2  0  0  0
 26 27  1  0  0  0
 28103  1  0  0  0
 28104  1  0  0  0
 29105  1  0  0  0
 29106  1  0  0  0
 33 34  1  0  0  0
 33 66  1  0  0  0
 33 70  2  0  0  0
 34 36  1  0  0  0
 34 59  1  0  0  0
 34107  1  0  0  0
 35 44  2  0  0  0
 35 45  1  0  0  0
 35 68  1  0  0  0
 36 56  1  0  0  0
 36108  1  0  0  0
 37 39  1  0  0  0
 37 47  1  0  0  0
 37 66  1  0  0  0
 37109  1  0  0  0
 38 43  2  0  0  0
 38 46  1  0  0  0
 38 47  1  0  0  0
 39 64  1  0  0  0
 39 67  2  0  0  0
 40 52  1  0  0  0
 40 53  2  0  0  0
 40 58  1  0  0  0
 41110  1  0  0  0
 41111  1  0  0  0
 41112  1  0  0  0
 41 48  1  0  0  0
 42 43  1  0  0  0
 42 66  1  0  0  0
 42113  1  0  0  0
 42114  1  0  0  0
 43 44  1  0  0  0
 44115  1  0  0  0
 45 46  2  0  0  0
 45116  1  0  0  0
 46117  1  0  0  0
 47118  1  0  0  0
 47119  1  0  0  0
 48 56  1  0  0  0
 48 65  1  0  0  0
 48120  1  0  0  0
 49 50  1  0  0  0
 49 53  1  0  0  0
 49 64  1  0  0  0
 49121  1  0  0  0
 50 51  1  0  0  0
 50122  1  0  0  0
 50123  1  0  0  0
 51 52  1  0  0  0
 51124  1  0  0  0
 51125  1  0  0  0
 52126  1  0  0  0
 52127  1  0  0  0
 53 54  1  0  0  0
 54 55  2  0  0  0
 54128  1  0  0  0
 55 57  1  0  0  0
 55129  1  0  0  0
 56 69  2  0  0  0
 57 58  2  0  0  0
 57130  1  0  0  0
 58131  1  0  0  0
 59 60  1  0  0  0
 59 61  1  0  0  0
 59 62  1  0  0  0
 60132  1  0  0  0
 60133  1  0  0  0
 60134  1  0  0  0
 61135  1  0  0  0
 61136  1  0  0  0
 61137  1  0  0  0
 62138  1  0  0  0
 62139  1  0  0  0
 62140  1  0  0  0
 63 65  1  0  0  0
 63141  1  0  0  0
 63142  1  0  0  0
 63143  1  0  0  0
 64144  1  0  0  0
 65145  1  0  0  0
 68 83  1  0  0  0
 71 72  1  0  0  0
 71 73  2  0  0  0
 71 74  1  0  0  0
 72 75  1  0  0  0
 72 84  2  0  0  0
 73 77  1  0  0  0
 73 85  1  0  0  0
 74146  1  0  0  0
 74147  1  0  0  0
 74148  1  0  0  0
 75149  1  0  0  0
 75150  1  0  0  0
 75151  1  0  0  0
 76 81  1  0  0  0
 76152  1  0  0  0
 76153  1  0  0  0
 76154  1  0  0  0
 77 78  1  0  0  0
 77155  1  0  0  0
 77156  1  0  0  0
 78 82  1  0  0  0
 78157  1  0  0  0
 78158  1  0  0  0
 79 80  1  0  0  0
 79 83  1  0  0  0
 79159  1  0  0  0
 79160  1  0  0  0
 80 85  1  0  0  0
 80161  1  0  0  0
 80162  1  0  0  0
 81 86  1  0  0  0
 81163  1  0  0  0
 81164  1  0  0  0
 82 86  1  0  0  0
 82165  1  0  0  0
 82166  1  0  0  0
 83167  1  0  0  0
 83168  1  0  0  0
 84 85  1  0  0  0
M  ISO  4   1 100  68 101  83 101  86 100
M  END
> <chiral flag>
0

> <version>
0

> <s_m_source_file>
/data/baiqing/PycharmProjects/Reinvent-master-3.2/result/LINK_invent/BTK/process_docking_weight1_custom_sum_contain_oxygen_bond_distance_aromatic_linkinvent_7_9_3/rearranged_h_0046.sdf

> <i_m_source_file_index>
55

> <r_mmod_Potential_Energy-OPLS-2005>
238.502243041992

> <r_mmod_Stretch_Energy-OPLS-2005>
70.4171676635742

> <r_mmod_Bend_Energy-OPLS-2005>
155.967987060547

> <r_mmod_Torsional_Energy-OPLS-2005>
324.937713623047

> <r_mmod_Improper_Torsional_Energy-OPLS-2005>
8.13018131256104

> <r_mmod_Van_der_Waal_Energy-OPLS-2005>
142.031845092773

> <r_mmod_Electrostatic_Energy-OPLS-2005>
-314.909790039062

> <r_mmod_Solvation_Energy-OPLS-2005>
-205.132629394531

> <b_mmod_Minimization_Converged-OPLS-2005>
0

> <r_mmod_RMS_Derivative-OPLS-2005>
1.23633849620819

$$$$
56
                    3D
 Structure written by MMmdl.
164172  0  0  1  0            999 V2000
  -30.6405  -14.6185   20.4771 C   0  0  0  0  0  0
  -30.4259  -12.3708   19.4618 C   0  0  0  0  0  0
  -29.5054  -12.5003   18.2285 C   0  0  0  0  0  0
  -28.0268  -12.3467   18.6363 C   0  0  0  0  0  0
  -27.6509  -13.2187   19.8645 C   0  0  2  0  0  0
  -28.6937  -13.0842   20.9976 C   0  0  0  0  0  0
  -25.2546  -13.8173   20.5695 C   0  0  0  0  0  0
  -24.1817  -13.0439   20.9207 C   0  0  0  0  0  0
  -24.6382  -11.6912   20.8742 C   0  0  0  0  0  0
  -23.9048  -10.4292   21.0403 C   0  0  0  0  0  0
  -24.3601   -9.4211   21.9182 C   0  0  0  0  0  0
  -23.6291   -8.2239   22.0745 C   0  0  0  0  0  0
  -22.4274   -8.0270   21.3534 C   0  0  0  0  0  0
  -21.9902   -9.0243   20.4636 C   0  0  0  0  0  0
  -22.7221  -10.2131   20.3052 C   0  0  0  0  0  0
  -21.6853   -6.0731   22.5280 C   0  0  0  0  0  0
  -21.4009   -6.5634   23.8213 C   0  0  0  0  0  0
  -21.3666   -5.6790   24.9179 C   0  0  0  0  0  0
  -21.6050   -4.3053   24.7228 C   0  0  0  0  0  0
  -21.8818   -3.8141   23.4348 C   0  0  0  0  0  0
  -21.9189   -4.6957   22.3405 C   0  0  0  0  0  0
  -22.7838  -13.5229   21.1875 C   0  0  0  0  0  0
  -22.1659   -4.2139   21.0984 F   0  0  0  0  0  0
  -21.5639   -3.4538   25.7743 F   0  0  0  0  0  0
  -30.0115  -13.4037   20.4313 N   0  0  0  0  0  0
  -26.2972  -12.9359   20.3327 N   0  0  0  0  0  0
  -25.9311  -11.6509   20.5763 N   0  0  0  0  0  0
  -22.0475  -12.8216   22.0424 N   0  0  0  0  0  0
  -25.4255  -15.1896   20.4101 N   0  0  0  0  0  0
  -31.8180  -14.7323   20.1312 O   0  0  0  0  0  0
  -21.6636   -6.8872   21.4239 O   0  0  0  0  0  0
  -22.3525  -14.5538   20.6728 O   0  0  0  0  0  0
  -24.6231  -31.8606   23.2035 C   0  0  0  0  0  0
  -25.9090  -32.4782   23.8356 C   0  0  1  0  0  0
  -27.2253  -27.3381   20.1197 C   0  0  0  0  0  0
  -25.5918  -33.8585   24.2286 N   0  0  0  0  0  0
  -23.4161  -30.4831   21.5457 C   0  0  2  0  0  0
  -24.8624  -28.9402   20.1095 C   0  0  0  0  0  0
  -22.7466  -29.4615   22.4946 C   0  0  0  0  0  0
  -18.0280  -28.1376   22.8487 C   0  0  0  0  0  0
  -24.1487  -36.7290   23.2636 C   0  0  0  0  0  0
  -25.9540  -30.7975   21.3713 C   0  0  0  0  0  0
  -26.0282  -29.4265   20.7144 C   0  0  0  0  0  0
  -27.2115  -28.6360   20.7104 C   0  0  0  0  0  0
  -26.0402  -26.9002   19.4852 C   0  0  0  0  0  0
  -24.8694  -27.6824   19.4858 C   0  0  0  0  0  0
  -23.6288  -29.8174   20.1602 C   0  0  0  0  0  0
  -25.4112  -36.3086   24.0331 C   0  0  1  0  0  0
  -20.5881  -28.3670   23.1293 C   0  0  2  0  0  0
  -20.6767  -26.9397   22.5409 C   0  0  0  0  0  0
  -19.5744  -26.6387   21.5204 C   0  0  0  0  0  0
  -18.1924  -26.7922   22.1619 C   0  0  0  0  0  0
  -19.1534  -28.8841   23.2884 C   0  0  0  0  0  0
  -18.9461  -30.1445   23.8897 C   0  0  0  0  0  0
  -17.6461  -30.6579   24.0564 C   0  0  0  0  0  0
  -25.9049  -34.9454   23.5108 C   0  0  0  0  0  0
  -16.5350  -29.9081   23.6330 C   0  0  0  0  0  0
  -16.7270  -28.6498   23.0352 C   0  0  0  0  0  0
  -26.4486  -31.6591   25.0720 C   0  0  0  0  0  0
  -25.3734  -31.3726   26.1459 C   0  0  0  0  0  0
  -27.0328  -30.3022   24.6153 C   0  0  0  0  0  0
  -27.6047  -32.4328   25.7489 C   0  0  0  0  0  0
  -27.5579  -37.1799   24.8461 C   0  0  0  0  0  0
  -21.4179  -29.3027   22.3696 N   0  0  0  0  0  0
  -26.4286  -37.3785   23.9412 N   0  0  0  0  0  0
  -24.6831  -31.0638   22.0973 N   0  0  0  0  0  0
  -23.4203  -28.8154   23.3016 O   0  0  0  0  0  0
  -28.3569  -26.5184   20.1845 O   0  0  0  0  0  0
  -26.5615  -34.8920   22.4674 O   0  0  0  0  0  0
  -23.5402  -32.1395   23.7379 O   0  0  0  0  0  0
  -30.6574  -20.5241   20.6430 C   0  0  0  0  0  0
  -30.6022  -21.9366   20.4890 C   0  0  0  0  0  0
  -29.4953  -19.7694   20.9261 C   0  0  0  0  0  0
  -29.3663  -22.6270   20.6319 C   0  0  0  0  0  0
  -28.2947  -20.5381   20.9851 C   0  0  0  0  0  0
  -31.9050  -22.6845   20.2499 C   0  0  0  0  0  0
  -26.9480  -19.8898   21.2436 C   0  0  0  0  0  0
  -30.4958  -18.0648   22.5412 C   0  0  0  0  0  0
  -31.1918  -17.4911   19.4059 C   0  0  0  0  0  0
  -29.2917  -24.1944   20.7877 C   0  0  0  0  0  0
  -28.2063  -25.0556   20.0353 C   0  0  0  0  0  0
  -29.5777  -18.2383   21.3187 C   0  0  2  0  0  0
  -29.9215  -17.1510   20.2115 C   0  0  2  0  0  0
  -28.2440  -21.9008   20.8662 N   0  0  0  0  0  0
  -29.8327  -15.7085   20.6741 N   0  0  0  0  0  0
  -31.4719  -12.4714   19.1671 H   0  0  0  0  0  0
  -30.3360  -11.3783   19.9062 H   0  0  0  0  0  0
  -29.7672  -11.7496   17.4818 H   0  0  0  0  0  0
  -29.6573  -13.4712   17.7536 H   0  0  0  0  0  0
  -27.8580  -11.2942   18.8660 H   0  0  0  0  0  0
  -27.3747  -12.5816   17.7939 H   0  0  0  0  0  0
  -27.6672  -14.2522   19.5195 H   0  0  0  0  0  0
  -28.6954  -12.0700   21.4003 H   0  0  0  0  0  0
  -28.4481  -13.7399   21.8350 H   0  0  0  0  0  0
  -25.2741   -9.5696   22.4763 H   0  0  0  0  0  0
  -24.0005   -7.4625   22.7459 H   0  0  0  0  0  0
  -21.0835   -8.8754   19.8940 H   0  0  0  0  0  0
  -22.3669  -10.9667   19.6162 H   0  0  0  0  0  0
  -21.1994   -7.6138   23.9715 H   0  0  0  0  0  0
  -21.1498   -6.0519   25.9086 H   0  0  0  0  0  0
  -22.0590   -2.7599   23.2850 H   0  0  0  0  0  0
  -22.4084  -11.9868   22.4801 H   0  0  0  0  0  0
  -21.1090  -13.1234   22.2627 H   0  0  0  0  0  0
  -24.6537  -15.8398   20.5113 H   0  0  0  0  0  0
  -26.2664  -15.6255   20.0551 H   0  0  0  0  0  0
  -26.7154  -32.5457   23.1104 H   0  0  0  0  0  0
  -25.0083  -33.9732   25.0441 H   0  0  0  0  0  0
  -22.7081  -31.3025   21.4043 H   0  0  0  0  0  0
  -23.3758  -35.9614   23.3295 H   0  0  0  0  0  0
  -24.3583  -36.8913   22.2052 H   0  0  0  0  0  0
  -23.7229  -37.6486   23.6658 H   0  0  0  0  0  0
  -26.0833  -31.5617   20.6035 H   0  0  0  0  0  0
  -26.8355  -30.8457   21.9992 H   0  0  0  0  0  0
  -28.1057  -29.0031   21.1948 H   0  0  0  0  0  0
  -25.9965  -25.9408   18.9909 H   0  0  0  0  0  0
  -23.9771  -27.3057   19.0048 H   0  0  0  0  0  0
  -23.7447  -30.5938   19.4031 H   0  0  0  0  0  0
  -22.7499  -29.2439   19.8603 H   0  0  0  0  0  0
  -25.1292  -36.1939   25.0823 H   0  0  0  0  0  0
  -20.9971  -28.3232   24.1414 H   0  0  0  0  0  0
  -20.5663  -26.2275   23.3599 H   0  0  0  0  0  0
  -21.6635  -26.7427   22.1200 H   0  0  0  0  0  0
  -19.6906  -25.6309   21.1207 H   0  0  0  0  0  0
  -19.6682  -27.3219   20.6751 H   0  0  0  0  0  0
  -17.4197  -26.6674   21.4018 H   0  0  0  0  0  0
  -18.0324  -26.0058   22.9010 H   0  0  0  0  0  0
  -19.7938  -30.7257   24.2266 H   0  0  0  0  0  0
  -17.5018  -31.6257   24.5171 H   0  0  0  0  0  0
  -15.5351  -30.2982   23.7655 H   0  0  0  0  0  0
  -15.8668  -28.0816   22.7069 H   0  0  0  0  0  0
  -24.5904  -30.7074   25.7800 H   0  0  0  0  0  0
  -24.8928  -32.2890   26.4892 H   0  0  0  0  0  0
  -25.8072  -30.8907   27.0229 H   0  0  0  0  0  0
  -26.2896  -29.6780   24.1177 H   0  0  0  0  0  0
  -27.4043  -29.7267   25.4641 H   0  0  0  0  0  0
  -27.8757  -30.4326   23.9362 H   0  0  0  0  0  0
  -27.2656  -33.3632   26.2057 H   0  0  0  0  0  0
  -28.3860  -32.6882   25.0319 H   0  0  0  0  0  0
  -28.0708  -31.8459   26.5413 H   0  0  0  0  0  0
  -28.2586  -38.0108   24.7527 H   0  0  0  0  0  0
  -28.1085  -36.2639   24.6264 H   0  0  0  0  0  0
  -27.2296  -37.1421   25.8862 H   0  0  0  0  0  0
  -20.9353  -29.8769   21.6923 H   0  0  0  0  0  0
  -26.0167  -38.2854   24.1435 H   0  0  0  0  0  0
  -31.6155  -20.0261   20.6049 H   0  0  0  0  0  0
  -32.7428  -21.9995   20.1142 H   0  0  0  0  0  0
  -32.1405  -23.3273   21.0988 H   0  0  0  0  0  0
  -31.8362  -23.3011   19.3527 H   0  0  0  0  0  0
  -26.7997  -19.0338   20.5847 H   0  0  0  0  0  0
  -26.1288  -20.5864   21.0620 H   0  0  0  0  0  0
  -26.8774  -19.5513   22.2774 H   0  0  0  0  0  0
  -30.1661  -18.6952   23.3673 H   0  0  0  0  0  0
  -31.5285  -18.3267   22.3128 H   0  0  0  0  0  0
  -30.4942  -17.0368   22.9039 H   0  0  0  0  0  0
  -31.1126  -18.4689   18.9332 H   0  0  0  0  0  0
  -31.3520  -16.7819   18.5940 H   0  0  0  0  0  0
  -32.0813  -17.4920   20.0368 H   0  0  0  0  0  0
  -30.2519  -24.6246   20.5137 H   0  0  0  0  0  0
  -29.1945  -24.3931   21.8548 H   0  0  0  0  0  0
  -27.2366  -24.7325   20.4151 H   0  0  0  0  0  0
  -28.2273  -24.8158   18.9722 H   0  0  0  0  0  0
  -28.5905  -17.9587   21.6824 H   0  0  0  0  0  0
  -29.1113  -17.2242   19.4840 H   0  0  0  0  0  0
  -28.9152  -15.4509   21.0058 H   0  0  0  0  0  0
  1 25  1  0  0  0
  1 30  2  0  0  0
  1 85  1  0  0  0
  2  3  1  0  0  0
  2 25  1  0  0  0
  2 86  1  0  0  0
  2 87  1  0  0  0
  3  4  1  0  0  0
  3 88  1  0  0  0
  3 89  1  0  0  0
  4  5  1  0  0  0
  4 90  1  0  0  0
  4 91  1  0  0  0
  5  6  1  0  0  0
  5 26  1  0  0  0
  5 92  1  0  0  0
  6 25  1  0  0  0
  6 93  1  0  0  0
  6 94  1  0  0  0
  7  8  2  0  0  0
  7 26  1  0  0  0
  7 29  1  0  0  0
  8  9  1  0  0  0
  8 22  1  0  0  0
  9 10  1  0  0  0
  9 27  2  0  0  0
 10 11  2  0  0  0
 10 15  1  0  0  0
 11 12  1  0  0  0
 11 95  1  0  0  0
 12 13  2  0  0  0
 12 96  1  0  0  0
 13 14  1  0  0  0
 13 31  1  0  0  0
 14 15  2  0  0  0
 14 97  1  0  0  0
 15 98  1  0  0  0
 16 17  2  0  0  0
 16 21  1  0  0  0
 16 31  1  0  0  0
 17 18  1  0  0  0
 17 99  1  0  0  0
 18 19  2  0  0  0
 18100  1  0  0  0
 19 20  1  0  0  0
 19 24  1  0  0  0
 20 21  2  0  0  0
 20101  1  0  0  0
 21 23  1  0  0  0
 22 28  1  0  0  0
 22 32  2  0  0  0
 26 27  1  0  0  0
 28102  1  0  0  0
 28103  1  0  0  0
 29104  1  0  0  0
 29105  1  0  0  0
 33 34  1  0  0  0
 33 66  1  0  0  0
 33 70  2  0  0  0
 34 36  1  0  0  0
 34 59  1  0  0  0
 34106  1  0  0  0
 35 44  2  0  0  0
 35 45  1  0  0  0
 35 68  1  0  0  0
 36 56  1  0  0  0
 36107  1  0  0  0
 37 39  1  0  0  0
 37 47  1  0  0  0
 37 66  1  0  0  0
 37108  1  0  0  0
 38 43  2  0  0  0
 38 46  1  0  0  0
 38 47  1  0  0  0
 39 64  1  0  0  0
 39 67  2  0  0  0
 40 52  1  0  0  0
 40 53  2  0  0  0
 40 58  1  0  0  0
 41109  1  0  0  0
 41110  1  0  0  0
 41111  1  0  0  0
 41 48  1  0  0  0
 42 43  1  0  0  0
 42 66  1  0  0  0
 42112  1  0  0  0
 42113  1  0  0  0
 43 44  1  0  0  0
 44114  1  0  0  0
 45 46  2  0  0  0
 45115  1  0  0  0
 46116  1  0  0  0
 47117  1  0  0  0
 47118  1  0  0  0
 48 56  1  0  0  0
 48 65  1  0  0  0
 48119  1  0  0  0
 49 50  1  0  0  0
 49 53  1  0  0  0
 49 64  1  0  0  0
 49120  1  0  0  0
 50 51  1  0  0  0
 50121  1  0  0  0
 50122  1  0  0  0
 51 52  1  0  0  0
 51123  1  0  0  0
 51124  1  0  0  0
 52125  1  0  0  0
 52126  1  0  0  0
 53 54  1  0  0  0
 54 55  2  0  0  0
 54127  1  0  0  0
 55 57  1  0  0  0
 55128  1  0  0  0
 56 69  2  0  0  0
 57 58  2  0  0  0
 57129  1  0  0  0
 58130  1  0  0  0
 59 60  1  0  0  0
 59 61  1  0  0  0
 59 62  1  0  0  0
 60131  1  0  0  0
 60132  1  0  0  0
 60133  1  0  0  0
 61134  1  0  0  0
 61135  1  0  0  0
 61136  1  0  0  0
 62137  1  0  0  0
 62138  1  0  0  0
 62139  1  0  0  0
 63 65  1  0  0  0
 63140  1  0  0  0
 63141  1  0  0  0
 63142  1  0  0  0
 64143  1  0  0  0
 65144  1  0  0  0
 68 81  1  0  0  0
 71 72  2  0  0  0
 71 73  1  0  0  0
 71145  1  0  0  0
 72 74  1  0  0  0
 72 76  1  0  0  0
 73 75  2  0  0  0
 73 82  1  0  0  0
 74 80  1  0  0  0
 74 84  2  0  0  0
 75 77  1  0  0  0
 75 84  1  0  0  0
 76146  1  0  0  0
 76147  1  0  0  0
 76148  1  0  0  0
 77149  1  0  0  0
 77150  1  0  0  0
 77151  1  0  0  0
 78152  1  0  0  0
 78153  1  0  0  0
 78154  1  0  0  0
 78 82  1  0  0  0
 79155  1  0  0  0
 79156  1  0  0  0
 79157  1  0  0  0
 79 83  1  0  0  0
 80 81  1  0  0  0
 80158  1  0  0  0
 80159  1  0  0  0
 81160  1  0  0  0
 81161  1  0  0  0
 82 83  1  0  0  0
 82162  1  0  0  0
 83 85  1  0  0  0
 83163  1  0  0  0
 85164  1  0  0  0
M  ISO  4   1 100  68 101  81 101  85 100
M  END
> <chiral flag>
0

> <version>
0

> <s_m_source_file>
/data/baiqing/PycharmProjects/Reinvent-master-3.2/result/LINK_invent/BTK/process_docking_weight1_custom_sum_contain_oxygen_bond_distance_aromatic_linkinvent_7_9_3/rearranged_h_0046.sdf

> <i_m_source_file_index>
56

> <r_mmod_Potential_Energy-OPLS-2005>
-150.190658569336

> <r_mmod_Stretch_Energy-OPLS-2005>
77.0337524414062

> <r_mmod_Bend_Energy-OPLS-2005>
141.468200683594

> <r_mmod_Torsional_Energy-OPLS-2005>
216.802444458008

> <r_mmod_Improper_Torsional_Energy-OPLS-2005>
8.73222827911377

> <r_mmod_Van_der_Waal_Energy-OPLS-2005>
151.222259521484

> <r_mmod_Electrostatic_Energy-OPLS-2005>
-568.37451171875

> <r_mmod_Solvation_Energy-OPLS-2005>
-219.551010131836

> <b_mmod_Minimization_Converged-OPLS-2005>
0

> <r_mmod_RMS_Derivative-OPLS-2005>
0.890121757984161

$$$$
57
                    3D
 Structure written by MMmdl.
151159  0  0  1  0            999 V2000
  -30.6787  -14.6696   20.4851 C   0  0  0  0  0  0
  -30.4189  -12.4066   19.4838 C   0  0  0  0  0  0
  -29.5114  -12.4980   18.2385 C   0  0  0  0  0  0
  -28.0352  -12.3329   18.6468 C   0  0  0  0  0  0
  -27.6436  -13.2368   19.8472 C   0  0  2  0  0  0
  -28.6829  -13.1765   20.9861 C   0  0  0  0  0  0
  -25.2525  -13.8209   20.5703 C   0  0  0  0  0  0
  -24.1802  -13.0456   20.9166 C   0  0  0  0  0  0
  -24.6392  -11.6928   20.8717 C   0  0  0  0  0  0
  -23.9067  -10.4300   21.0403 C   0  0  0  0  0  0
  -24.3613   -9.4212   21.9185 C   0  0  0  0  0  0
  -23.6288   -8.2245   22.0758 C   0  0  0  0  0  0
  -22.4269   -8.0277   21.3544 C   0  0  0  0  0  0
  -21.9903   -9.0255   20.4644 C   0  0  0  0  0  0
  -22.7234  -10.2137   20.3057 C   0  0  0  0  0  0
  -21.6857   -6.0736   22.5274 C   0  0  0  0  0  0
  -21.4022   -6.5642   23.8208 C   0  0  0  0  0  0
  -21.3659   -5.6793   24.9169 C   0  0  0  0  0  0
  -21.6043   -4.3055   24.7220 C   0  0  0  0  0  0
  -21.8821   -3.8148   23.4342 C   0  0  0  0  0  0
  -21.9192   -4.6964   22.3400 C   0  0  0  0  0  0
  -22.7818  -13.5238   21.1827 C   0  0  0  0  0  0
  -22.1660   -4.2154   21.0977 F   0  0  0  0  0  0
  -21.5623   -3.4535   25.7731 F   0  0  0  0  0  0
  -29.9977  -13.4787   20.4143 N   0  0  0  0  0  0
  -26.2953  -12.9434   20.3267 N   0  0  0  0  0  0
  -25.9326  -11.6568   20.5711 N   0  0  0  0  0  0
  -22.0450  -12.8249   22.0390 N   0  0  0  0  0  0
  -25.4265  -15.1931   20.4202 N   0  0  0  0  0  0
  -31.8514  -14.7243   20.1105 O   0  0  0  0  0  0
  -21.6639   -6.8871   21.4233 O   0  0  0  0  0  0
  -22.3511  -14.5547   20.6667 O   0  0  0  0  0  0
  -24.6286  -31.8587   23.2032 C   0  0  0  0  0  0
  -25.9122  -32.4777   23.8370 C   0  0  1  0  0  0
  -27.2046  -27.2847   20.1241 C   0  0  0  0  0  0
  -25.5943  -33.8582   24.2301 N   0  0  0  0  0  0
  -23.4232  -30.4869   21.5447 C   0  0  2  0  0  0
  -24.8673  -28.9453   20.1054 C   0  0  0  0  0  0
  -22.7483  -29.4633   22.4887 C   0  0  0  0  0  0
  -18.0298  -28.1400   22.8472 C   0  0  0  0  0  0
  -24.1494  -36.7302   23.2631 C   0  0  0  0  0  0
  -25.9669  -30.7802   21.3792 C   0  0  0  0  0  0
  -26.0384  -29.4057   20.7205 C   0  0  0  0  0  0
  -27.2097  -28.5859   20.7244 C   0  0  0  0  0  0
  -26.0160  -26.9016   19.4570 C   0  0  0  0  0  0
  -24.8605  -27.7002   19.4633 C   0  0  0  0  0  0
  -23.6406  -29.8324   20.1562 C   0  0  0  0  0  0
  -25.4110  -36.3073   24.0322 C   0  0  1  0  0  0
  -20.5900  -28.3725   23.1254 C   0  0  2  0  0  0
  -20.6786  -26.9439   22.5413 C   0  0  0  0  0  0
  -19.5762  -26.6384   21.5215 C   0  0  0  0  0  0
  -18.1942  -26.7936   22.1624 C   0  0  0  0  0  0
  -19.1545  -28.8870   23.2865 C   0  0  0  0  0  0
  -18.9478  -30.1470   23.8889 C   0  0  0  0  0  0
  -17.6480  -30.6596   24.0578 C   0  0  0  0  0  0
  -25.9048  -34.9446   23.5107 C   0  0  0  0  0  0
  -16.5373  -29.9104   23.6333 C   0  0  0  0  0  0
  -16.7283  -28.6528   23.0332 C   0  0  0  0  0  0
  -26.4512  -31.6565   25.0730 C   0  0  0  0  0  0
  -25.3764  -31.3709   26.1472 C   0  0  0  0  0  0
  -27.0338  -30.2976   24.6177 C   0  0  0  0  0  0
  -27.6063  -32.4298   25.7521 C   0  0  0  0  0  0
  -27.5568  -37.1808   24.8456 C   0  0  0  0  0  0
  -21.4187  -29.3089   22.3638 N   0  0  0  0  0  0
  -26.4279  -37.3769   23.9406 N   0  0  0  0  0  0
  -24.6921  -31.0583   22.0993 N   0  0  0  0  0  0
  -23.4193  -28.8139   23.2946 O   0  0  0  0  0  0
  -28.2818  -26.3772   20.2130 O   0  0  0  0  0  0
  -26.5606  -34.8910   22.4669 O   0  0  0  0  0  0
  -23.5446  -32.1401   23.7343 O   0  0  0  0  0  0
  -30.3489  -16.8137   21.9946 C   0  0  0  0  0  0
  -29.4167  -16.9475   20.0124 C   0  0  0  0  0  0
  -30.0395  -16.0306   20.8462 C   0  0  0  0  0  0
  -28.4444  -22.2329   20.2049 C   0  0  0  0  0  0
  -29.2680  -20.9322   20.6763 C   0  0  0  0  0  0
  -28.9227  -23.7342   20.5377 C   0  0  0  0  0  0
  -28.6955  -19.4989   20.2256 C   0  0  0  0  0  0
  -27.9721  -24.9242   20.0347 C   0  0  0  0  0  0
  -29.8921  -18.0749   21.9056 N   0  0  0  0  0  0
  -29.3483  -18.2028   20.6648 N   0  0  0  0  0  0
  -31.4688  -12.4785   19.1945 H   0  0  0  0  0  0
  -30.3159  -11.4310   19.9628 H   0  0  0  0  0  0
  -29.7900  -11.7326   17.5128 H   0  0  0  0  0  0
  -29.6543  -13.4611   17.7456 H   0  0  0  0  0  0
  -27.8857  -11.2854   18.9124 H   0  0  0  0  0  0
  -27.3811  -12.5249   17.7957 H   0  0  0  0  0  0
  -27.6418  -14.2589   19.4675 H   0  0  0  0  0  0
  -28.6936  -12.1916   21.4541 H   0  0  0  0  0  0
  -28.4263  -13.8890   21.7717 H   0  0  0  0  0  0
  -25.2757   -9.5706   22.4759 H   0  0  0  0  0  0
  -24.0000   -7.4653   22.7501 H   0  0  0  0  0  0
  -21.0823   -8.8776   19.8963 H   0  0  0  0  0  0
  -22.3680  -10.9676   19.6168 H   0  0  0  0  0  0
  -21.2022   -7.6154   23.9712 H   0  0  0  0  0  0
  -21.1473   -6.0522   25.9075 H   0  0  0  0  0  0
  -22.0596   -2.7611   23.2829 H   0  0  0  0  0  0
  -22.4059  -11.9930   22.4820 H   0  0  0  0  0  0
  -21.1072  -13.1303   22.2579 H   0  0  0  0  0  0
  -24.6695  -15.8548   20.5525 H   0  0  0  0  0  0
  -26.2957  -15.6328   20.1457 H   0  0  0  0  0  0
  -26.7186  -32.5440   23.1113 H   0  0  0  0  0  0
  -25.0109  -33.9753   25.0460 H   0  0  0  0  0  0
  -22.7199  -31.3098   21.4062 H   0  0  0  0  0  0
  -23.3742  -35.9648   23.3280 H   0  0  0  0  0  0
  -24.3579  -36.8934   22.2045 H   0  0  0  0  0  0
  -23.7273  -37.6513   23.6666 H   0  0  0  0  0  0
  -26.0994  -31.5391   20.6070 H   0  0  0  0  0  0
  -26.8472  -30.8312   22.0074 H   0  0  0  0  0  0
  -28.1012  -28.9238   21.2341 H   0  0  0  0  0  0
  -25.9440  -25.9595   18.9344 H   0  0  0  0  0  0
  -23.9663  -27.3514   18.9652 H   0  0  0  0  0  0
  -23.7749  -30.6170   19.4099 H   0  0  0  0  0  0
  -22.7575  -29.2746   19.8398 H   0  0  0  0  0  0
  -25.1293  -36.1917   25.0813 H   0  0  0  0  0  0
  -21.0014  -28.3320   24.1360 H   0  0  0  0  0  0
  -20.5695  -26.2340   23.3630 H   0  0  0  0  0  0
  -21.6655  -26.7469   22.1209 H   0  0  0  0  0  0
  -19.6941  -25.6294   21.1246 H   0  0  0  0  0  0
  -19.6675  -27.3182   20.6737 H   0  0  0  0  0  0
  -17.4207  -26.6658   21.4035 H   0  0  0  0  0  0
  -18.0367  -26.0095   22.9044 H   0  0  0  0  0  0
  -19.7962  -30.7285   24.2240 H   0  0  0  0  0  0
  -17.5047  -31.6268   24.5202 H   0  0  0  0  0  0
  -15.5377  -30.3014   23.7652 H   0  0  0  0  0  0
  -15.8688  -28.0860   22.7028 H   0  0  0  0  0  0
  -24.5974  -30.7002   25.7834 H   0  0  0  0  0  0
  -24.8933  -32.2876   26.4861 H   0  0  0  0  0  0
  -25.8121  -30.8952   27.0267 H   0  0  0  0  0  0
  -26.2900  -29.6743   24.1198 H   0  0  0  0  0  0
  -27.4019  -29.7209   25.4671 H   0  0  0  0  0  0
  -27.8783  -30.4241   23.9399 H   0  0  0  0  0  0
  -27.2661  -33.3603   26.2080 H   0  0  0  0  0  0
  -28.3897  -32.6839   25.0369 H   0  0  0  0  0  0
  -28.0699  -31.8434   26.5465 H   0  0  0  0  0  0
  -28.2576  -38.0114   24.7492 H   0  0  0  0  0  0
  -28.1073  -36.2640   24.6287 H   0  0  0  0  0  0
  -27.2285  -37.1457   25.8860 H   0  0  0  0  0  0
  -20.9361  -29.8889   21.6917 H   0  0  0  0  0  0
  -26.0146  -38.2835   24.1426 H   0  0  0  0  0  0
  -30.9253  -16.5250   22.8621 H   0  0  0  0  0  0
  -29.0614  -16.8320   18.9979 H   0  0  0  0  0  0
  -27.4296  -22.1262   20.5913 H   0  0  0  0  0  0
  -28.3344  -22.1686   19.1224 H   0  0  0  0  0  0
  -29.3379  -20.9436   21.7653 H   0  0  0  0  0  0
  -30.2940  -21.0231   20.3179 H   0  0  0  0  0  0
  -29.9203  -23.8818   20.1232 H   0  0  0  0  0  0
  -29.0281  -23.8263   21.6187 H   0  0  0  0  0  0
  -28.6480  -19.4784   19.1363 H   0  0  0  0  0  0
  -27.6569  -19.4405   20.5548 H   0  0  0  0  0  0
  -27.0108  -24.7297   20.5144 H   0  0  0  0  0  0
  -27.8142  -24.7680   18.9673 H   0  0  0  0  0  0
  1 25  1  0  0  0
  1 30  2  0  0  0
  1 73  1  0  0  0
  2  3  1  0  0  0
  2 25  1  0  0  0
  2 81  1  0  0  0
  2 82  1  0  0  0
  3  4  1  0  0  0
  3 83  1  0  0  0
  3 84  1  0  0  0
  4  5  1  0  0  0
  4 85  1  0  0  0
  4 86  1  0  0  0
  5  6  1  0  0  0
  5 26  1  0  0  0
  5 87  1  0  0  0
  6 25  1  0  0  0
  6 88  1  0  0  0
  6 89  1  0  0  0
  7  8  2  0  0  0
  7 26  1  0  0  0
  7 29  1  0  0  0
  8  9  1  0  0  0
  8 22  1  0  0  0
  9 10  1  0  0  0
  9 27  2  0  0  0
 10 11  2  0  0  0
 10 15  1  0  0  0
 11 12  1  0  0  0
 11 90  1  0  0  0
 12 13  2  0  0  0
 12 91  1  0  0  0
 13 14  1  0  0  0
 13 31  1  0  0  0
 14 15  2  0  0  0
 14 92  1  0  0  0
 15 93  1  0  0  0
 16 17  2  0  0  0
 16 21  1  0  0  0
 16 31  1  0  0  0
 17 18  1  0  0  0
 17 94  1  0  0  0
 18 19  2  0  0  0
 18 95  1  0  0  0
 19 20  1  0  0  0
 19 24  1  0  0  0
 20 21  2  0  0  0
 20 96  1  0  0  0
 21 23  1  0  0  0
 22 28  1  0  0  0
 22 32  2  0  0  0
 26 27  1  0  0  0
 28 97  1  0  0  0
 28 98  1  0  0  0
 29 99  1  0  0  0
 29100  1  0  0  0
 33 34  1  0  0  0
 33 66  1  0  0  0
 33 70  2  0  0  0
 34 36  1  0  0  0
 34 59  1  0  0  0
 34101  1  0  0  0
 35 44  2  0  0  0
 35 45  1  0  0  0
 35 68  1  0  0  0
 36 56  1  0  0  0
 36102  1  0  0  0
 37 39  1  0  0  0
 37 47  1  0  0  0
 37 66  1  0  0  0
 37103  1  0  0  0
 38 43  2  0  0  0
 38 46  1  0  0  0
 38 47  1  0  0  0
 39 64  1  0  0  0
 39 67  2  0  0  0
 40 52  1  0  0  0
 40 53  2  0  0  0
 40 58  1  0  0  0
 41104  1  0  0  0
 41105  1  0  0  0
 41106  1  0  0  0
 41 48  1  0  0  0
 42 43  1  0  0  0
 42 66  1  0  0  0
 42107  1  0  0  0
 42108  1  0  0  0
 43 44  1  0  0  0
 44109  1  0  0  0
 45 46  2  0  0  0
 45110  1  0  0  0
 46111  1  0  0  0
 47112  1  0  0  0
 47113  1  0  0  0
 48 56  1  0  0  0
 48 65  1  0  0  0
 48114  1  0  0  0
 49 50  1  0  0  0
 49 53  1  0  0  0
 49 64  1  0  0  0
 49115  1  0  0  0
 50 51  1  0  0  0
 50116  1  0  0  0
 50117  1  0  0  0
 51 52  1  0  0  0
 51118  1  0  0  0
 51119  1  0  0  0
 52120  1  0  0  0
 52121  1  0  0  0
 53 54  1  0  0  0
 54 55  2  0  0  0
 54122  1  0  0  0
 55 57  1  0  0  0
 55123  1  0  0  0
 56 69  2  0  0  0
 57 58  2  0  0  0
 57124  1  0  0  0
 58125  1  0  0  0
 59 60  1  0  0  0
 59 61  1  0  0  0
 59 62  1  0  0  0
 60126  1  0  0  0
 60127  1  0  0  0
 60128  1  0  0  0
 61129  1  0  0  0
 61130  1  0  0  0
 61131  1  0  0  0
 62132  1  0  0  0
 62133  1  0  0  0
 62134  1  0  0  0
 63 65  1  0  0  0
 63135  1  0  0  0
 63136  1  0  0  0
 63137  1  0  0  0
 64138  1  0  0  0
 65139  1  0  0  0
 68 78  1  0  0  0
 71 73  1  0  0  0
 71 79  2  0  0  0
 71140  1  0  0  0
 72 73  2  0  0  0
 72 80  1  0  0  0
 72141  1  0  0  0
 74 75  1  0  0  0
 74 76  1  0  0  0
 74142  1  0  0  0
 74143  1  0  0  0
 75 77  1  0  0  0
 75144  1  0  0  0
 75145  1  0  0  0
 76 78  1  0  0  0
 76146  1  0  0  0
 76147  1  0  0  0
 77 80  1  0  0  0
 77148  1  0  0  0
 77149  1  0  0  0
 78150  1  0  0  0
 78151  1  0  0  0
 79 80  1  0  0  0
M  ISO  4   1 100  68 101  73 100  78 101
M  END
> <chiral flag>
0

> <version>
0

> <s_m_source_file>
/data/baiqing/PycharmProjects/Reinvent-master-3.2/result/LINK_invent/BTK/process_docking_weight1_custom_sum_contain_oxygen_bond_distance_aromatic_linkinvent_7_9_3/rearranged_h_0046.sdf

> <i_m_source_file_index>
57

> <r_mmod_Potential_Energy-OPLS-2005>
137.665283203125

> <r_mmod_Stretch_Energy-OPLS-2005>
94.85205078125

> <r_mmod_Bend_Energy-OPLS-2005>
158.906234741211

> <r_mmod_Torsional_Energy-OPLS-2005>
219.429351806641

> <r_mmod_Improper_Torsional_Energy-OPLS-2005>
6.90296792984009

> <r_mmod_Van_der_Waal_Energy-OPLS-2005>
117.303100585938

> <r_mmod_Electrostatic_Energy-OPLS-2005>
-320.541137695312

> <r_mmod_Solvation_Energy-OPLS-2005>
-208.893249511719

> <b_mmod_Minimization_Converged-OPLS-2005>
0

> <r_mmod_RMS_Derivative-OPLS-2005>
1.99101507663727

$$$$
58
                    3D
 Structure written by MMmdl.
157165  0  0  1  0            999 V2000
  -30.5586  -14.9555   20.4384 C   0  0  0  0  0  0
  -30.4421  -12.5947   19.5139 C   0  0  0  0  0  0
  -29.5280  -12.5462   18.2694 C   0  0  0  0  0  0
  -28.0582  -12.3394   18.6792 C   0  0  0  0  0  0
  -27.6339  -13.2630   19.8509 C   0  0  2  0  0  0
  -28.6739  -13.2909   20.9920 C   0  0  0  0  0  0
  -25.2471  -13.8266   20.5757 C   0  0  0  0  0  0
  -24.1791  -13.0462   20.9236 C   0  0  0  0  0  0
  -24.6418  -11.6943   20.8752 C   0  0  0  0  0  0
  -23.9112  -10.4300   21.0410 C   0  0  0  0  0  0
  -24.3658   -9.4210   21.9199 C   0  0  0  0  0  0
  -23.6312   -8.2245   22.0768 C   0  0  0  0  0  0
  -22.4297   -8.0283   21.3558 C   0  0  0  0  0  0
  -21.9945   -9.0271   20.4665 C   0  0  0  0  0  0
  -22.7274  -10.2146   20.3065 C   0  0  0  0  0  0
  -21.6862   -6.0728   22.5281 C   0  0  0  0  0  0
  -21.4008   -6.5631   23.8216 C   0  0  0  0  0  0
  -21.3666   -5.6789   24.9171 C   0  0  0  0  0  0
  -21.6053   -4.3044   24.7224 C   0  0  0  0  0  0
  -21.8814   -3.8140   23.4347 C   0  0  0  0  0  0
  -21.9198   -4.6956   22.3405 C   0  0  0  0  0  0
  -22.7808  -13.5206   21.1898 C   0  0  0  0  0  0
  -22.1673   -4.2144   21.0978 F   0  0  0  0  0  0
  -21.5642   -3.4531   25.7736 F   0  0  0  0  0  0
  -29.9519  -13.6979   20.3971 N   0  0  0  0  0  0
  -26.2918  -12.9527   20.3319 N   0  0  0  0  0  0
  -25.9363  -11.6636   20.5771 N   0  0  0  0  0  0
  -22.0462  -12.8169   22.0439 N   0  0  0  0  0  0
  -25.4136  -15.2004   20.4195 N   0  0  0  0  0  0
  -31.7575  -15.0001   20.1459 O   0  0  0  0  0  0
  -21.6646   -6.8883   21.4249 O   0  0  0  0  0  0
  -22.3460  -14.5498   20.6738 O   0  0  0  0  0  0
  -24.6432  -31.8414   23.1881 C   0  0  0  0  0  0
  -25.9209  -32.4679   23.8238 C   0  0  1  0  0  0
  -27.1956  -27.1077   20.1489 C   0  0  0  0  0  0
  -25.5950  -33.8488   24.2149 N   0  0  0  0  0  0
  -23.4469  -30.4625   21.5343 C   0  0  2  0  0  0
  -24.8933  -28.8953   20.1007 C   0  0  0  0  0  0
  -22.7546  -29.4514   22.4828 C   0  0  0  0  0  0
  -18.0314  -28.1377   22.8485 C   0  0  0  0  0  0
  -24.1485  -36.7263   23.2640 C   0  0  0  0  0  0
  -26.0041  -30.7026   21.3953 C   0  0  0  0  0  0
  -26.0697  -29.3142   20.7343 C   0  0  0  0  0  0
  -27.2194  -28.4338   20.7489 C   0  0  0  0  0  0
  -26.0074  -26.8167   19.4385 C   0  0  0  0  0  0
  -24.8782  -27.6625   19.4331 C   0  0  0  0  0  0
  -23.6703  -29.7995   20.1506 C   0  0  0  0  0  0
  -25.4123  -36.3027   24.0302 C   0  0  1  0  0  0
  -20.5920  -28.3693   23.1229 C   0  0  2  0  0  0
  -20.6782  -26.9391   22.5398 C   0  0  0  0  0  0
  -19.5749  -26.6349   21.5212 C   0  0  0  0  0  0
  -18.1939  -26.7919   22.1630 C   0  0  0  0  0  0
  -19.1568  -28.8859   23.2854 C   0  0  0  0  0  0
  -18.9485  -30.1465   23.8855 C   0  0  0  0  0  0
  -17.6477  -30.6577   24.0555 C   0  0  0  0  0  0
  -25.9068  -34.9405   23.5037 C   0  0  0  0  0  0
  -16.5371  -29.9052   23.6357 C   0  0  0  0  0  0
  -16.7298  -28.6485   23.0357 C   0  0  0  0  0  0
  -26.4527  -31.6573   25.0703 C   0  0  0  0  0  0
  -25.3699  -31.3806   26.1387 C   0  0  0  0  0  0
  -27.0403  -30.2958   24.6338 C   0  0  0  0  0  0
  -27.6019  -32.4364   25.7529 C   0  0  0  0  0  0
  -27.5579  -37.1787   24.8459 C   0  0  0  0  0  0
  -21.4236  -29.3023   22.3585 N   0  0  0  0  0  0
  -26.4286  -37.3745   23.9408 N   0  0  0  0  0  0
  -24.7178  -31.0223   22.0953 N   0  0  0  0  0  0
  -23.4188  -28.8051   23.2971 O   0  0  0  0  0  0
  -28.2141  -26.0828   20.2652 O   0  0  0  0  0  0
  -26.5654  -34.8912   22.4616 O   0  0  0  0  0  0
  -23.5548  -32.1302   23.7099 O   0  0  0  0  0  0
  -30.1199  -20.6664   20.1370 C   0  0  0  0  0  0
  -31.5038  -20.6423   19.7753 C   0  0  0  0  0  0
  -29.5606  -22.0775   19.9293 C   0  0  0  0  0  0
  -31.4135  -22.6203   18.6613 C   0  0  0  0  0  0
  -32.5358  -19.6773   20.3247 C   0  0  0  0  0  0
  -32.0720  -23.6207   17.7424 C   0  0  0  0  0  0
  -29.5367  -19.1882   20.6724 C   0  0  0  0  0  0
  -28.4709  -23.0757   20.6228 C   0  0  0  0  0  0
  -30.2449  -17.6636   20.2563 C   0  0  0  0  0  0
  -27.9285  -24.5647   19.9643 C   0  0  0  0  0  0
  -32.1013  -21.5626   19.0078 N   0  0  0  0  0  0
  -30.2325  -22.9284   19.1343 N   0  0  0  0  0  0
  -29.8163  -16.1694   20.5869 N   0  0  0  0  0  0
  -31.4796  -12.7416   19.2081 H   0  0  0  0  0  0
  -30.4277  -11.6388   20.0381 H   0  0  0  0  0  0
  -29.8398  -11.7518   17.5905 H   0  0  0  0  0  0
  -29.6287  -13.4816   17.7167 H   0  0  0  0  0  0
  -27.9376  -11.2963   18.9710 H   0  0  0  0  0  0
  -27.4025  -12.4933   17.8224 H   0  0  0  0  0  0
  -27.5967  -14.2685   19.4299 H   0  0  0  0  0  0
  -28.7551  -12.3164   21.4750 H   0  0  0  0  0  0
  -28.3774  -13.9979   21.7702 H   0  0  0  0  0  0
  -25.2811   -9.5661   22.4778 H   0  0  0  0  0  0
  -24.0023   -7.4615   22.7475 H   0  0  0  0  0  0
  -21.0885   -8.8792   19.8959 H   0  0  0  0  0  0
  -22.3749  -10.9695   19.6173 H   0  0  0  0  0  0
  -21.1977   -7.6135   23.9711 H   0  0  0  0  0  0
  -21.1520   -6.0515   25.9082 H   0  0  0  0  0  0
  -22.0593   -2.7595   23.2846 H   0  0  0  0  0  0
  -22.4088  -11.9806   22.4784 H   0  0  0  0  0  0
  -21.1104  -13.1228   22.2711 H   0  0  0  0  0  0
  -24.6452  -15.8546   20.5235 H   0  0  0  0  0  0
  -26.2543  -15.6388   20.0663 H   0  0  0  0  0  0
  -26.7265  -32.5268   23.0941 H   0  0  0  0  0  0
  -25.0084  -33.9591   25.0291 H   0  0  0  0  0  0
  -22.7516  -31.2915   21.3851 H   0  0  0  0  0  0
  -23.3752  -35.9589   23.3275 H   0  0  0  0  0  0
  -24.3570  -36.8926   22.2059 H   0  0  0  0  0  0
  -23.7230  -37.6444   23.6703 H   0  0  0  0  0  0
  -26.1628  -31.4561   20.6218 H   0  0  0  0  0  0
  -26.8723  -30.7469   22.0419 H   0  0  0  0  0  0
  -28.1075  -28.7371   21.2858 H   0  0  0  0  0  0
  -25.9084  -25.8911   18.8917 H   0  0  0  0  0  0
  -23.9890  -27.3488   18.9024 H   0  0  0  0  0  0
  -23.8005  -30.5761   19.3952 H   0  0  0  0  0  0
  -22.7828  -29.2408   19.8452 H   0  0  0  0  0  0
  -25.1317  -36.1847   25.0794 H   0  0  0  0  0  0
  -21.0055  -28.3290   24.1334 H   0  0  0  0  0  0
  -20.5654  -26.2302   23.3614 H   0  0  0  0  0  0
  -21.6640  -26.7354   22.1209 H   0  0  0  0  0  0
  -19.6887  -25.6250   21.1251 H   0  0  0  0  0  0
  -19.6702  -27.3150   20.6740 H   0  0  0  0  0  0
  -17.4204  -26.6680   21.4035 H   0  0  0  0  0  0
  -18.0341  -26.0058   22.9026 H   0  0  0  0  0  0
  -19.7959  -30.7308   24.2175 H   0  0  0  0  0  0
  -17.5028  -31.6262   24.5139 H   0  0  0  0  0  0
  -15.5366  -30.2929   23.7707 H   0  0  0  0  0  0
  -15.8709  -28.0795   22.7060 H   0  0  0  0  0  0
  -24.5844  -30.7198   25.7705 H   0  0  0  0  0  0
  -24.8932  -32.3017   26.4751 H   0  0  0  0  0  0
  -25.7939  -30.8996   27.0208 H   0  0  0  0  0  0
  -26.3037  -29.6671   24.1316 H   0  0  0  0  0  0
  -27.3949  -29.7277   25.4948 H   0  0  0  0  0  0
  -27.8972  -30.4162   23.9708 H   0  0  0  0  0  0
  -27.2554  -33.3659   26.2063 H   0  0  0  0  0  0
  -28.3875  -32.6940   25.0418 H   0  0  0  0  0  0
  -28.0644  -31.8533   26.5499 H   0  0  0  0  0  0
  -28.2567  -38.0112   24.7526 H   0  0  0  0  0  0
  -28.1097  -36.2634   24.6258 H   0  0  0  0  0  0
  -27.2297  -37.1412   25.8861 H   0  0  0  0  0  0
  -20.9412  -29.8771   21.6818 H   0  0  0  0  0  0
  -26.0143  -38.2806   24.1429 H   0  0  0  0  0  0
  -32.7063  -18.8472   19.6385 H   0  0  0  0  0  0
  -32.2568  -19.3293   21.3203 H   0  0  0  0  0  0
  -33.4988  -20.1771   20.4563 H   0  0  0  0  0  0
  -32.9736  -23.2055   17.2924 H   0  0  0  0  0  0
  -32.3432  -24.5159   18.3012 H   0  0  0  0  0  0
  -31.3909  -23.9047   16.9403 H   0  0  0  0  0  0
  -28.4873  -19.1581   20.3781 H   0  0  0  0  0  0
  -29.5241  -19.2496   21.7628 H   0  0  0  0  0  0
  -28.8104  -23.2716   21.6387 H   0  0  0  0  0  0
  -27.5857  -22.4542   20.7589 H   0  0  0  0  0  0
  -31.2427  -17.6117   20.6781 H   0  0  0  0  0  0
  -30.3750  -17.6713   19.1703 H   0  0  0  0  0  0
  -26.8674  -24.4794   20.1921 H   0  0  0  0  0  0
  -27.9634  -24.4611   18.8796 H   0  0  0  0  0  0
  -28.8447  -16.0360   20.8252 H   0  0  0  0  0  0
  1 25  1  0  0  0
  1 30  2  0  0  0
  1 83  1  0  0  0
  2  3  1  0  0  0
  2 25  1  0  0  0
  2 84  1  0  0  0
  2 85  1  0  0  0
  3  4  1  0  0  0
  3 86  1  0  0  0
  3 87  1  0  0  0
  4  5  1  0  0  0
  4 88  1  0  0  0
  4 89  1  0  0  0
  5  6  1  0  0  0
  5 26  1  0  0  0
  5 90  1  0  0  0
  6 25  1  0  0  0
  6 91  1  0  0  0
  6 92  1  0  0  0
  7  8  2  0  0  0
  7 26  1  0  0  0
  7 29  1  0  0  0
  8  9  1  0  0  0
  8 22  1  0  0  0
  9 10  1  0  0  0
  9 27  2  0  0  0
 10 11  2  0  0  0
 10 15  1  0  0  0
 11 12  1  0  0  0
 11 93  1  0  0  0
 12 13  2  0  0  0
 12 94  1  0  0  0
 13 14  1  0  0  0
 13 31  1  0  0  0
 14 15  2  0  0  0
 14 95  1  0  0  0
 15 96  1  0  0  0
 16 17  2  0  0  0
 16 21  1  0  0  0
 16 31  1  0  0  0
 17 18  1  0  0  0
 17 97  1  0  0  0
 18 19  2  0  0  0
 18 98  1  0  0  0
 19 20  1  0  0  0
 19 24  1  0  0  0
 20 21  2  0  0  0
 20 99  1  0  0  0
 21 23  1  0  0  0
 22 28  1  0  0  0
 22 32  2  0  0  0
 26 27  1  0  0  0
 28100  1  0  0  0
 28101  1  0  0  0
 29102  1  0  0  0
 29103  1  0  0  0
 33 34  1  0  0  0
 33 66  1  0  0  0
 33 70  2  0  0  0
 34 36  1  0  0  0
 34 59  1  0  0  0
 34104  1  0  0  0
 35 44  2  0  0  0
 35 45  1  0  0  0
 35 68  1  0  0  0
 36 56  1  0  0  0
 36105  1  0  0  0
 37 39  1  0  0  0
 37 47  1  0  0  0
 37 66  1  0  0  0
 37106  1  0  0  0
 38 43  2  0  0  0
 38 46  1  0  0  0
 38 47  1  0  0  0
 39 64  1  0  0  0
 39 67  2  0  0  0
 40 52  1  0  0  0
 40 53  2  0  0  0
 40 58  1  0  0  0
 41107  1  0  0  0
 41108  1  0  0  0
 41109  1  0  0  0
 41 48  1  0  0  0
 42 43  1  0  0  0
 42 66  1  0  0  0
 42110  1  0  0  0
 42111  1  0  0  0
 43 44  1  0  0  0
 44112  1  0  0  0
 45 46  2  0  0  0
 45113  1  0  0  0
 46114  1  0  0  0
 47115  1  0  0  0
 47116  1  0  0  0
 48 56  1  0  0  0
 48 65  1  0  0  0
 48117  1  0  0  0
 49 50  1  0  0  0
 49 53  1  0  0  0
 49 64  1  0  0  0
 49118  1  0  0  0
 50 51  1  0  0  0
 50119  1  0  0  0
 50120  1  0  0  0
 51 52  1  0  0  0
 51121  1  0  0  0
 51122  1  0  0  0
 52123  1  0  0  0
 52124  1  0  0  0
 53 54  1  0  0  0
 54 55  2  0  0  0
 54125  1  0  0  0
 55 57  1  0  0  0
 55126  1  0  0  0
 56 69  2  0  0  0
 57 58  2  0  0  0
 57127  1  0  0  0
 58128  1  0  0  0
 59 60  1  0  0  0
 59 61  1  0  0  0
 59 62  1  0  0  0
 60129  1  0  0  0
 60130  1  0  0  0
 60131  1  0  0  0
 61132  1  0  0  0
 61133  1  0  0  0
 61134  1  0  0  0
 62135  1  0  0  0
 62136  1  0  0  0
 62137  1  0  0  0
 63 65  1  0  0  0
 63138  1  0  0  0
 63139  1  0  0  0
 63140  1  0  0  0
 64141  1  0  0  0
 65142  1  0  0  0
 68 80  1  0  0  0
 71 72  2  0  0  0
 71 73  1  0  0  0
 71 77  1  0  0  0
 72 75  1  0  0  0
 72 81  1  0  0  0
 73 78  1  0  0  0
 73 82  2  0  0  0
 74 76  1  0  0  0
 74 81  2  0  0  0
 74 82  1  0  0  0
 75143  1  0  0  0
 75144  1  0  0  0
 75145  1  0  0  0
 76146  1  0  0  0
 76147  1  0  0  0
 76148  1  0  0  0
 77 79  1  0  0  0
 77149  1  0  0  0
 77150  1  0  0  0
 78 80  1  0  0  0
 78151  1  0  0  0
 78152  1  0  0  0
 79 83  1  0  0  0
 79153  1  0  0  0
 79154  1  0  0  0
 80155  1  0  0  0
 80156  1  0  0  0
 83157  1  0  0  0
M  ISO  4   1 100  68 101  80 101  83 100
M  END
> <chiral flag>
0

> <version>
0

> <s_m_source_file>
/data/baiqing/PycharmProjects/Reinvent-master-3.2/result/LINK_invent/BTK/process_docking_weight1_custom_sum_contain_oxygen_bond_distance_aromatic_linkinvent_7_9_3/rearranged_h_0046.sdf

> <i_m_source_file_index>
58

> <r_mmod_Potential_Energy-OPLS-2005>
301.264099121094

> <r_mmod_Stretch_Energy-OPLS-2005>
327.63525390625

> <r_mmod_Bend_Energy-OPLS-2005>
362.701599121094

> <r_mmod_Torsional_Energy-OPLS-2005>
265.924163818359

> <r_mmod_Improper_Torsional_Energy-OPLS-2005>
6.73739337921143

> <r_mmod_Van_der_Waal_Energy-OPLS-2005>
157.26969909668

> <r_mmod_Electrostatic_Energy-OPLS-2005>
-788.734436035156

> <r_mmod_Solvation_Energy-OPLS-2005>
-241.931625366211

> <b_mmod_Minimization_Converged-OPLS-2005>
0

> <r_mmod_RMS_Derivative-OPLS-2005>
3.20917654037476

$$$$
59
                    3D
 Structure written by MMmdl.
175183  0  0  1  0            999 V2000
  -29.6910  -15.3696   20.7866 C   0  0  0  0  0  0
  -30.3343  -12.9873   19.6859 C   0  0  0  0  0  0
  -29.5243  -12.6813   18.3872 C   0  0  0  0  0  0
  -28.0665  -12.3070   18.7215 C   0  0  0  0  0  0
  -27.5300  -13.2178   19.8485 C   0  0  2  0  0  0
  -28.4363  -13.2284   21.0713 C   0  0  0  0  0  0
  -25.1935  -13.8045   20.5618 C   0  0  0  0  0  0
  -24.1346  -13.0284   20.9199 C   0  0  0  0  0  0
  -24.5966  -11.6769   20.8718 C   0  0  0  0  0  0
  -23.8778  -10.4183   21.0444 C   0  0  0  0  0  0
  -24.3451   -9.4142   21.9194 C   0  0  0  0  0  0
  -23.6202   -8.2140   22.0750 C   0  0  0  0  0  0
  -22.4186   -8.0155   21.3533 C   0  0  0  0  0  0
  -21.9742   -9.0097   20.4643 C   0  0  0  0  0  0
  -22.6992  -10.2003   20.3073 C   0  0  0  0  0  0
  -21.6806   -6.0654   22.5289 C   0  0  0  0  0  0
  -21.3984   -6.5586   23.8214 C   0  0  0  0  0  0
  -21.3674   -5.6760   24.9190 C   0  0  0  0  0  0
  -21.6057   -4.3022   24.7244 C   0  0  0  0  0  0
  -21.8830   -3.8095   23.4369 C   0  0  0  0  0  0
  -21.9185   -4.6896   22.3418 C   0  0  0  0  0  0
  -22.7475  -13.5139   21.1981 C   0  0  0  0  0  0
  -22.1662   -4.2074   21.0997 F   0  0  0  0  0  0
  -21.5655   -3.4531   25.7770 F   0  0  0  0  0  0
  -29.5658  -13.9568   20.5979 N   0  0  0  0  0  0
  -26.2080  -12.9135   20.2887 N   0  0  0  0  0  0
  -25.8791  -11.6314   20.5542 N   0  0  0  0  0  0
  -22.0196  -12.8139   22.0589 N   0  0  0  0  0  0
  -25.3718  -15.1763   20.4220 N   0  0  0  0  0  0
  -30.8553  -15.6301   20.3593 O   0  0  0  0  0  0
  -21.6578   -6.8745   21.4230 O   0  0  0  0  0  0
  -22.3198  -14.5468   20.6841 O   0  0  0  0  0  0
  -24.6520  -31.9272   23.2464 C   0  0  0  0  0  0
  -25.9408  -32.5070   23.8744 C   0  0  1  0  0  0
  -26.6336  -27.3194   20.1347 C   0  0  0  0  0  0
  -25.6267  -33.8843   24.2641 N   0  0  0  0  0  0
  -23.4629  -30.6008   21.5870 C   0  0  2  0  0  0
  -24.8934  -29.3362   19.8391 C   0  0  0  0  0  0
  -23.0333  -29.4735   22.5702 C   0  0  0  0  0  0
  -18.3963  -27.6776   22.5888 C   0  0  0  0  0  0
  -24.1525  -36.7354   23.2592 C   0  0  0  0  0  0
  -26.0000  -30.8384   21.4638 C   0  0  0  0  0  0
  -25.9798  -29.5441   20.6893 C   0  0  0  0  0  0
  -26.9582  -28.5337   20.7939 C   0  0  0  0  0  0
  -26.0631  -27.4163   18.8934 C   0  0  0  0  0  0
  -24.9983  -28.3437   18.8372 C   0  0  0  0  0  0
  -23.6893  -30.2214   20.0829 C   0  0  0  0  0  0
  -25.4125  -36.3209   24.0345 C   0  0  1  0  0  0
  -21.2915  -28.0639   23.5504 C   0  0  2  0  0  0
  -22.1802  -26.3517   22.6893 C   0  0  0  0  0  0
  -20.5561  -25.1948   21.2766 C   0  0  0  0  0  0
  -18.6307  -26.1042   21.5703 C   0  0  0  0  0  0
  -19.5100  -28.4600   23.4041 C   0  0  0  0  0  0
  -19.1242  -29.7418   23.9605 C   0  0  0  0  0  0
  -17.8138  -30.2736   23.9600 C   0  0  0  0  0  0
  -25.9110  -34.9587   23.5210 C   0  0  0  0  0  0
  -16.7828  -29.5160   23.3915 C   0  0  0  0  0  0
  -17.0768  -28.2802   22.7316 C   0  0  0  0  0  0
  -26.4605  -31.6697   25.1052 C   0  0  0  0  0  0
  -25.3735  -31.3841   26.1669 C   0  0  0  0  0  0
  -27.0355  -30.3060   24.6549 C   0  0  0  0  0  0
  -27.6207  -32.4312   25.7864 C   0  0  0  0  0  0
  -27.5610  -37.1879   24.8463 C   0  0  0  0  0  0
  -21.7723  -29.3006   22.8773 N   0  0  0  0  0  0
  -26.4306  -37.3895   23.9431 N   0  0  0  0  0  0
  -24.7186  -31.1670   22.1284 N   0  0  0  0  0  0
  -23.8454  -28.7864   23.1738 O   0  0  0  0  0  0
  -25.6804  -26.5411   20.7887 O   0  0  0  0  0  0
  -26.5495  -34.8944   22.4678 O   0  0  0  0  0  0
  -23.5649  -32.1980   23.7788 O   0  0  0  0  0  0
  -25.8343  -17.7532   22.4175 C   0  0  0  0  0  0
  -26.9291  -19.2952   21.3058 C   0  0  0  0  0  0
  -27.1084  -17.8404   21.6620 C   0  0  0  0  0  0
  -24.7684  -18.7936   22.7441 C   0  0  0  0  0  0
  -24.6808  -20.2326   22.3685 C   0  0  0  0  0  0
  -23.6177  -18.2751   23.5981 C   0  0  0  0  0  0
  -28.2139  -17.1802   24.2744 C   0  0  0  0  0  0
  -19.0588  -25.8659   24.4476 C   0  0  0  0  0  0
  -23.2369  -21.3920   22.7874 C   0  0  0  0  0  0
  -22.4996  -23.2027   22.8569 C   0  0  0  0  0  0
  -22.2750  -27.2274   20.4109 C   0  0  0  0  0  0
  -20.9408  -24.2096   23.5695 C   0  0  0  0  0  0
  -20.6299  -27.3945   21.4335 C   0  0  0  0  0  0
  -23.9893  -26.4705   20.5363 C   0  0  0  0  0  0
  -28.6019  -16.6663   21.6651 C   0  0  1  0  0  0
  -29.0984  -16.5675   23.1656 C   0  0  2  0  0  0
  -25.8783  -20.3165   21.5797 N   0  0  0  0  0  0
  -20.1363  -25.9035   23.3707 N   0  3  1  0  0  0
  -29.2525  -15.2324   23.6246 O   0  0  0  0  0  0
  -31.3135  -13.3885   19.4226 H   0  0  0  0  0  0
  -30.5512  -12.0646   20.2226 H   0  0  0  0  0  0
  -30.0004  -11.8910   17.8075 H   0  0  0  0  0  0
  -29.5224  -13.5756   17.7584 H   0  0  0  0  0  0
  -28.0382  -11.2659   19.0465 H   0  0  0  0  0  0
  -27.4385  -12.3767   17.8332 H   0  0  0  0  0  0
  -27.4834  -14.2193   19.4169 H   0  0  0  0  0  0
  -28.6763  -12.2275   21.4298 H   0  0  0  0  0  0
  -27.9677  -13.7538   21.9037 H   0  0  0  0  0  0
  -25.2600   -9.5650   22.4748 H   0  0  0  0  0  0
  -23.9944   -7.4505   22.7430 H   0  0  0  0  0  0
  -21.0690   -8.8538   19.8942 H   0  0  0  0  0  0
  -22.3411  -10.9520   19.6186 H   0  0  0  0  0  0
  -21.1961   -7.6094   23.9678 H   0  0  0  0  0  0
  -21.1501   -6.0509   25.9081 H   0  0  0  0  0  0
  -22.0601   -2.7553   23.2900 H   0  0  0  0  0  0
  -22.3839  -11.9773   22.4908 H   0  0  0  0  0  0
  -21.0841  -13.1168   22.2929 H   0  0  0  0  0  0
  -24.6125  -15.8255   20.5843 H   0  0  0  0  0  0
  -26.2392  -15.6381   20.1863 H   0  0  0  0  0  0
  -26.7522  -32.5658   23.1499 H   0  0  0  0  0  0
  -25.0588  -34.0103   25.0884 H   0  0  0  0  0  0
  -22.6850  -31.3665   21.5942 H   0  0  0  0  0  0
  -23.3807  -35.9675   23.3237 H   0  0  0  0  0  0
  -24.3661  -36.8976   22.2019 H   0  0  0  0  0  0
  -23.7217  -37.6539   23.6585 H   0  0  0  0  0  0
  -26.2433  -31.6428   20.7660 H   0  0  0  0  0  0
  -26.8453  -30.7564   22.1357 H   0  0  0  0  0  0
  -27.7113  -28.5742   21.5673 H   0  0  0  0  0  0
  -26.0195  -26.5632   18.2319 H   0  0  0  0  0  0
  -24.2390  -28.2527   18.0733 H   0  0  0  0  0  0
  -23.9681  -31.1547   19.5913 H   0  0  0  0  0  0
  -22.7862  -30.0001   19.5278 H   0  0  0  0  0  0
  -25.1253  -36.2131   25.0835 H   0  0  0  0  0  0
  -21.5778  -28.1415   24.6012 H   0  0  0  0  0  0
  -22.4792  -25.8560   23.6159 H   0  0  0  0  0  0
  -23.2423  -26.3638   22.5798 H   0  0  0  0  0  0
  -20.4667  -24.1082   21.3100 H   0  0  0  0  0  0
  -20.7908  -25.2180   20.2122 H   0  0  0  0  0  0
  -18.1800  -26.2921   20.5899 H   0  0  0  0  0  0
  -17.9468  -25.3493   21.9659 H   0  0  0  0  0  0
  -19.8881  -30.3296   24.4520 H   0  0  0  0  0  0
  -17.6066  -31.2245   24.4351 H   0  0  0  0  0  0
  -15.7670  -29.8826   23.4190 H   0  0  0  0  0  0
  -16.2519  -27.7688   22.2566 H   0  0  0  0  0  0
  -24.5975  -30.7146   25.7933 H   0  0  0  0  0  0
  -24.8859  -32.3005   26.5016 H   0  0  0  0  0  0
  -25.7978  -30.9059   27.0506 H   0  0  0  0  0  0
  -26.2954  -29.6928   24.1398 H   0  0  0  0  0  0
  -27.3726  -29.7240   25.5139 H   0  0  0  0  0  0
  -27.9017  -30.4247   24.0032 H   0  0  0  0  0  0
  -27.2915  -33.3668   26.2400 H   0  0  0  0  0  0
  -28.4093  -32.6756   25.0728 H   0  0  0  0  0  0
  -28.0746  -31.8398   26.5837 H   0  0  0  0  0  0
  -28.2580  -38.0222   24.7572 H   0  0  0  0  0  0
  -28.1149  -36.2756   24.6197 H   0  0  0  0  0  0
  -27.2339  -37.1407   25.8865 H   0  0  0  0  0  0
  -21.0831  -29.9543   22.5274 H   0  0  0  0  0  0
  -26.0182  -38.2969   24.1471 H   0  0  0  0  0  0
  -25.6663  -16.7815   22.8656 H   0  0  0  0  0  0
  -27.7473  -19.7318   20.7507 H   0  0  0  0  0  0
  -23.6817  -17.2005   23.7703 H   0  0  0  0  0  0
  -22.6648  -18.4691   23.1089 H   0  0  0  0  0  0
  -23.6122  -18.7611   24.5739 H   0  0  0  0  0  0
  -28.0158  -18.2392   24.1213 H   0  0  0  0  0  0
  -28.6802  -17.0929   25.2569 H   0  0  0  0  0  0
  -27.2652  -16.6491   24.3535 H   0  0  0  0  0  0
  -19.3655  -25.1947   25.2482 H   0  0  0  0  0  0
  -18.1040  -25.4695   24.1076 H   0  0  0  0  0  0
  -18.8717  -26.7867   24.9942 H   0  0  0  0  0  0
  -23.1258  -21.1084   23.8349 H   0  0  0  0  0  0
  -22.4260  -20.8500   22.2950 H   0  0  0  0  0  0
  -22.5311  -23.4765   21.8026 H   0  0  0  0  0  0
  -23.3364  -23.7556   23.2780 H   0  0  0  0  0  0
  -22.3647  -28.1680   19.9317 H   0  0  0  0  0  0
  -21.9325  -26.7188   19.5140 H   0  0  0  0  0  0
  -21.1371  -24.1517   24.6390 H   0  0  0  0  0  0
  -20.0996  -23.5262   23.4549 H   0  0  0  0  0  0
  -20.0636  -27.3419   20.4926 H   0  0  0  0  0  0
  -20.3448  -28.4415   21.3126 H   0  0  0  0  0  0
  -24.1405  -27.4375   20.9764 H   0  0  0  0  0  0
  -24.0246  -26.2057   19.4821 H   0  0  0  0  0  0
  -29.2198  -17.4701   21.2626 H   0  0  0  0  0  0
  -30.0710  -17.0641   23.2238 H   0  0  0  0  0  0
  -20.8263  -26.3686   23.9396 H   0  0  0  0  0  0
  -29.8709  -15.2422   24.3505 H   0  0  0  0  0  0
  1 25  1  0  0  0
  1 30  2  0  0  0
  1 85  1  0  0  0
  2  3  1  0  0  0
  2 25  1  0  0  0
  2 90  1  0  0  0
  2 91  1  0  0  0
  3  4  1  0  0  0
  3 92  1  0  0  0
  3 93  1  0  0  0
  4  5  1  0  0  0
  4 94  1  0  0  0
  4 95  1  0  0  0
  5  6  1  0  0  0
  5 26  1  0  0  0
  5 96  1  0  0  0
  6 25  1  0  0  0
  6 97  1  0  0  0
  6 98  1  0  0  0
  7  8  2  0  0  0
  7 26  1  0  0  0
  7 29  1  0  0  0
  8  9  1  0  0  0
  8 22  1  0  0  0
  9 10  1  0  0  0
  9 27  2  0  0  0
 10 11  2  0  0  0
 10 15  1  0  0  0
 11 12  1  0  0  0
 11 99  1  0  0  0
 12 13  2  0  0  0
 12100  1  0  0  0
 13 14  1  0  0  0
 13 31  1  0  0  0
 14 15  2  0  0  0
 14101  1  0  0  0
 15102  1  0  0  0
 16 17  2  0  0  0
 16 21  1  0  0  0
 16 31  1  0  0  0
 17 18  1  0  0  0
 17103  1  0  0  0
 18 19  2  0  0  0
 18104  1  0  0  0
 19 20  1  0  0  0
 19 24  1  0  0  0
 20 21  2  0  0  0
 20105  1  0  0  0
 21 23  1  0  0  0
 22 28  1  0  0  0
 22 32  2  0  0  0
 26 27  1  0  0  0
 28106  1  0  0  0
 28107  1  0  0  0
 29108  1  0  0  0
 29109  1  0  0  0
 33 34  1  0  0  0
 33 66  1  0  0  0
 33 70  2  0  0  0
 34 36  1  0  0  0
 34 59  1  0  0  0
 34110  1  0  0  0
 35 44  2  0  0  0
 35 45  1  0  0  0
 35 68  1  0  0  0
 36 56  1  0  0  0
 36111  1  0  0  0
 37 39  1  0  0  0
 37 47  1  0  0  0
 37 66  1  0  0  0
 37112  1  0  0  0
 38 43  2  0  0  0
 38 46  1  0  0  0
 38 47  1  0  0  0
 39 64  1  0  0  0
 39 67  2  0  0  0
 40 52  1  0  0  0
 40 53  2  0  0  0
 40 58  1  0  0  0
 41113  1  0  0  0
 41114  1  0  0  0
 41115  1  0  0  0
 41 48  1  0  0  0
 42 43  1  0  0  0
 42 66  1  0  0  0
 42116  1  0  0  0
 42117  1  0  0  0
 43 44  1  0  0  0
 44118  1  0  0  0
 45 46  2  0  0  0
 45119  1  0  0  0
 46120  1  0  0  0
 47121  1  0  0  0
 47122  1  0  0  0
 48 56  1  0  0  0
 48 65  1  0  0  0
 48123  1  0  0  0
 49 50  1  0  0  0
 49 53  1  0  0  0
 49 64  1  0  0  0
 49124  1  0  0  0
 50 51  1  0  0  0
 50125  1  0  0  0
 50126  1  0  0  0
 51 52  1  0  0  0
 51127  1  0  0  0
 51128  1  0  0  0
 52129  1  0  0  0
 52130  1  0  0  0
 53 54  1  0  0  0
 54 55  2  0  0  0
 54131  1  0  0  0
 55 57  1  0  0  0
 55132  1  0  0  0
 56 69  2  0  0  0
 57 58  2  0  0  0
 57133  1  0  0  0
 58134  1  0  0  0
 59 60  1  0  0  0
 59 61  1  0  0  0
 59 62  1  0  0  0
 60135  1  0  0  0
 60136  1  0  0  0
 60137  1  0  0  0
 61138  1  0  0  0
 61139  1  0  0  0
 61140  1  0  0  0
 62141  1  0  0  0
 62142  1  0  0  0
 62143  1  0  0  0
 63 65  1  0  0  0
 63144  1  0  0  0
 63145  1  0  0  0
 63146  1  0  0  0
 64147  1  0  0  0
 65148  1  0  0  0
 68 84  1  0  0  0
 71 73  2  0  0  0
 71 74  1  0  0  0
 71149  1  0  0  0
 72 73  1  0  0  0
 72 87  2  0  0  0
 72150  1  0  0  0
 73 85  1  0  0  0
 74 75  2  0  0  0
 74 76  1  0  0  0
 75 79  1  0  0  0
 75 87  1  0  0  0
 76151  1  0  0  0
 76152  1  0  0  0
 76153  1  0  0  0
 77154  1  0  0  0
 77155  1  0  0  0
 77156  1  0  0  0
 77 86  1  0  0  0
 78157  1  0  0  0
 78158  1  0  0  0
 78159  1  0  0  0
 78 88  1  0  0  0
 79 80  1  0  0  0
 79160  1  0  0  0
 79161  1  0  0  0
 80 82  1  0  0  0
 80162  1  0  0  0
 80163  1  0  0  0
 81 83  1  0  0  0
 81 84  1  0  0  0
 81164  1  0  0  0
 81165  1  0  0  0
 82 88  1  0  0  0
 82166  1  0  0  0
 82167  1  0  0  0
 83 88  1  0  0  0
 83168  1  0  0  0
 83169  1  0  0  0
 84170  1  0  0  0
 84171  1  0  0  0
 85 86  1  0  0  0
 85172  1  0  0  0
 86 89  1  0  0  0
 86173  1  0  0  0
 88174  1  0  0  0
 89175  1  0  0  0
M  CHG  1  88   1
M  ISO  4   1 100  68 101  84 101  85 100
M  END
> <chiral flag>
0

> <version>
0

> <s_m_source_file>
/data/baiqing/PycharmProjects/Reinvent-master-3.2/result/LINK_invent/BTK/process_docking_weight1_custom_sum_contain_oxygen_bond_distance_aromatic_linkinvent_7_9_3/rearranged_h_0046.sdf

> <i_m_source_file_index>
59

> <r_mmod_Potential_Energy-OPLS-2005>
11927.4716796875

> <r_mmod_Stretch_Energy-OPLS-2005>
5744.1474609375

> <r_mmod_Bend_Energy-OPLS-2005>
1681.82507324219

> <r_mmod_Torsional_Energy-OPLS-2005>
450.345062255859

> <r_mmod_Improper_Torsional_Energy-OPLS-2005>
36.7946243286133

> <r_mmod_Van_der_Waal_Energy-OPLS-2005>
2192.54321289062

> <r_mmod_Electrostatic_Energy-OPLS-2005>
-395.041259765625

> <r_mmod_Solvation_Energy-OPLS-2005>
-429.689880371094

> <b_mmod_Minimization_Converged-OPLS-2005>
0

> <r_mmod_RMS_Derivative-OPLS-2005>
9.47475051879883

$$$$
60
                    3D
 Structure written by MMmdl.
160168  0  0  1  0            999 V2000
  -30.6933  -14.5860   20.5223 C   0  0  0  0  0  0
  -30.4195  -12.3679   19.4463 C   0  0  0  0  0  0
  -29.4957  -12.4949   18.2178 C   0  0  0  0  0  0
  -28.0212  -12.3422   18.6365 C   0  0  0  0  0  0
  -27.6505  -13.2194   19.8636 C   0  0  2  0  0  0
  -28.6974  -13.0932   20.9931 C   0  0  0  0  0  0
  -25.2551  -13.8170   20.5712 C   0  0  0  0  0  0
  -24.1825  -13.0435   20.9221 C   0  0  0  0  0  0
  -24.6395  -11.6909   20.8765 C   0  0  0  0  0  0
  -23.9062  -10.4288   21.0412 C   0  0  0  0  0  0
  -24.3619   -9.4202   21.9181 C   0  0  0  0  0  0
  -23.6299   -8.2234   22.0744 C   0  0  0  0  0  0
  -22.4276   -8.0274   21.3538 C   0  0  0  0  0  0
  -21.9912   -9.0248   20.4641 C   0  0  0  0  0  0
  -22.7238  -10.2130   20.3057 C   0  0  0  0  0  0
  -21.6857   -6.0730   22.5275 C   0  0  0  0  0  0
  -21.4015   -6.5635   23.8209 C   0  0  0  0  0  0
  -21.3662   -5.6784   24.9171 C   0  0  0  0  0  0
  -21.6046   -4.3048   24.7218 C   0  0  0  0  0  0
  -21.8825   -3.8142   23.4342 C   0  0  0  0  0  0
  -21.9197   -4.6959   22.3399 C   0  0  0  0  0  0
  -22.7849  -13.5230   21.1868 C   0  0  0  0  0  0
  -22.1660   -4.2150   21.0976 F   0  0  0  0  0  0
  -21.5635   -3.4529   25.7730 F   0  0  0  0  0  0
  -30.0135  -13.4020   20.4185 N   0  0  0  0  0  0
  -26.2984  -12.9363   20.3362 N   0  0  0  0  0  0
  -25.9329  -11.6514   20.5807 N   0  0  0  0  0  0
  -22.0484  -12.8226   22.0427 N   0  0  0  0  0  0
  -25.4254  -15.1879   20.4084 N   0  0  0  0  0  0
  -31.8449  -14.7016   20.0937 O   0  0  0  0  0  0
  -21.6646   -6.8865   21.4232 O   0  0  0  0  0  0
  -22.3544  -14.5530   20.6700 O   0  0  0  0  0  0
  -24.6234  -31.8625   23.2062 C   0  0  0  0  0  0
  -25.9082  -32.4801   23.8384 C   0  0  1  0  0  0
  -27.2248  -27.3286   20.1178 C   0  0  0  0  0  0
  -25.5920  -33.8606   24.2315 N   0  0  0  0  0  0
  -23.4184  -30.4851   21.5491 C   0  0  2  0  0  0
  -24.8674  -28.9504   20.1096 C   0  0  0  0  0  0
  -22.7476  -29.4621   22.4968 C   0  0  0  0  0  0
  -18.0280  -28.1378   22.8488 C   0  0  0  0  0  0
  -24.1488  -36.7292   23.2632 C   0  0  0  0  0  0
  -25.9601  -30.7932   21.3814 C   0  0  0  0  0  0
  -26.0346  -29.4229   20.7234 C   0  0  0  0  0  0
  -27.2140  -28.6211   20.7255 C   0  0  0  0  0  0
  -26.0397  -26.9276   19.4509 C   0  0  0  0  0  0
  -24.8726  -27.7083   19.4633 C   0  0  0  0  0  0
  -23.6328  -29.8238   20.1633 C   0  0  0  0  0  0
  -25.4113  -36.3103   24.0337 C   0  0  1  0  0  0
  -20.5880  -28.3679   23.1299 C   0  0  2  0  0  0
  -20.6786  -26.9411   22.5413 C   0  0  0  0  0  0
  -19.5760  -26.6382   21.5221 C   0  0  0  0  0  0
  -18.1935  -26.7924   22.1625 C   0  0  0  0  0  0
  -19.1532  -28.8852   23.2885 C   0  0  0  0  0  0
  -18.9451  -30.1457   23.8893 C   0  0  0  0  0  0
  -17.6451  -30.6587   24.0562 C   0  0  0  0  0  0
  -25.9046  -34.9468   23.5127 C   0  0  0  0  0  0
  -16.5343  -29.9081   23.6331 C   0  0  0  0  0  0
  -16.7268  -28.6499   23.0354 C   0  0  0  0  0  0
  -26.4469  -31.6598   25.0740 C   0  0  0  0  0  0
  -25.3711  -31.3736   26.1478 C   0  0  0  0  0  0
  -27.0290  -30.3017   24.6179 C   0  0  0  0  0  0
  -27.6045  -32.4326   25.7489 C   0  0  0  0  0  0
  -27.5587  -37.1803   24.8465 C   0  0  0  0  0  0
  -21.4192  -29.3034   22.3704 N   0  0  0  0  0  0
  -26.4296  -37.3791   23.9415 N   0  0  0  0  0  0
  -24.6857  -31.0637   22.1016 N   0  0  0  0  0  0
  -23.4203  -28.8159   23.3040 O   0  0  0  0  0  0
  -28.3283  -26.4599   20.2008 O   0  0  0  0  0  0
  -26.5606  -34.8926   22.4687 O   0  0  0  0  0  0
  -23.5396  -32.1420   23.7386 O   0  0  0  0  0  0
  -29.4859  -18.2949   20.2779 C   0  0  0  0  0  0
  -30.3990  -19.2456   19.7506 C   0  0  0  0  0  0
  -28.3733  -18.8898   20.9234 C   0  0  0  0  0  0
  -29.0248  -21.0413   20.2947 C   0  0  0  0  0  0
  -31.6793  -18.8170   19.0611 C   0  0  0  0  0  0
  -27.2722  -18.0695   21.5708 C   0  0  0  0  0  0
  -30.4054  -16.2430   22.2476 C   0  0  0  0  0  0
  -29.5887  -16.7494   19.9526 C   0  0  0  0  0  0
  -28.4809  -22.4429   19.8537 C   0  0  0  0  0  0
  -28.9951  -23.8348   20.4182 C   0  0  0  0  0  0
  -28.0742  -25.0296   19.9219 C   0  0  0  0  0  0
  -30.1549  -20.5864   19.7497 N   0  0  0  0  0  0
  -28.1677  -20.2346   20.9291 N   0  0  0  0  0  0
  -30.0106  -15.7017   20.9471 N   0  0  0  0  0  0
  -31.4632  -12.4605   19.1418 H   0  0  0  0  0  0
  -30.3286  -11.3766   19.8934 H   0  0  0  0  0  0
  -29.7521  -11.7359   17.4770 H   0  0  0  0  0  0
  -29.6481  -13.4601   17.7327 H   0  0  0  0  0  0
  -27.8584  -11.2897   18.8738 H   0  0  0  0  0  0
  -27.3618  -12.5656   17.7968 H   0  0  0  0  0  0
  -27.6638  -14.2521   19.5180 H   0  0  0  0  0  0
  -28.7005  -12.0839   21.4071 H   0  0  0  0  0  0
  -28.4552  -13.7611   21.8220 H   0  0  0  0  0  0
  -25.2761   -9.5687   22.4762 H   0  0  0  0  0  0
  -24.0016   -7.4624   22.7454 H   0  0  0  0  0  0
  -21.0844   -8.8756   19.8952 H   0  0  0  0  0  0
  -22.3676  -10.9671   19.6175 H   0  0  0  0  0  0
  -21.1997   -7.6138   23.9712 H   0  0  0  0  0  0
  -21.1487   -6.0512   25.9075 H   0  0  0  0  0  0
  -22.0606   -2.7604   23.2841 H   0  0  0  0  0  0
  -22.4103  -11.9902   22.4844 H   0  0  0  0  0  0
  -21.1099  -13.1246   22.2595 H   0  0  0  0  0  0
  -24.6565  -15.8409   20.5113 H   0  0  0  0  0  0
  -26.2700  -15.6178   20.0569 H   0  0  0  0  0  0
  -26.7151  -32.5480   23.1135 H   0  0  0  0  0  0
  -25.0121  -33.9771   25.0498 H   0  0  0  0  0  0
  -22.7098  -31.3037   21.4076 H   0  0  0  0  0  0
  -23.3770  -35.9604   23.3293 H   0  0  0  0  0  0
  -24.3584  -36.8906   22.2046 H   0  0  0  0  0  0
  -23.7216  -37.6487   23.6643 H   0  0  0  0  0  0
  -26.0944  -31.5552   20.6126 H   0  0  0  0  0  0
  -26.8393  -30.8405   22.0119 H   0  0  0  0  0  0
  -28.1023  -28.9744   21.2313 H   0  0  0  0  0  0
  -25.9766  -25.9914   18.9170 H   0  0  0  0  0  0
  -23.9843  -27.3470   18.9637 H   0  0  0  0  0  0
  -23.7478  -30.6002   19.4066 H   0  0  0  0  0  0
  -22.7561  -29.2465   19.8632 H   0  0  0  0  0  0
  -25.1291  -36.1967   25.0829 H   0  0  0  0  0  0
  -20.9953  -28.3245   24.1428 H   0  0  0  0  0  0
  -20.5724  -26.2281   23.3603 H   0  0  0  0  0  0
  -21.6653  -26.7482   22.1180 H   0  0  0  0  0  0
  -19.6933  -25.6295   21.1252 H   0  0  0  0  0  0
  -19.6700  -27.3195   20.6755 H   0  0  0  0  0  0
  -17.4213  -26.6670   21.4019 H   0  0  0  0  0  0
  -18.0330  -26.0063   22.9017 H   0  0  0  0  0  0
  -19.7926  -30.7280   24.2256 H   0  0  0  0  0  0
  -17.5002  -31.6266   24.5163 H   0  0  0  0  0  0
  -15.5343  -30.2983   23.7664 H   0  0  0  0  0  0
  -15.8663  -28.0820   22.7076 H   0  0  0  0  0  0
  -24.5907  -30.7048   25.7827 H   0  0  0  0  0  0
  -24.8868  -32.2895   26.4877 H   0  0  0  0  0  0
  -25.8047  -30.8954   27.0270 H   0  0  0  0  0  0
  -26.2851  -29.6802   24.1181 H   0  0  0  0  0  0
  -27.3958  -29.7240   25.4672 H   0  0  0  0  0  0
  -27.8742  -30.4301   23.9415 H   0  0  0  0  0  0
  -27.2669  -33.3627   26.2075 H   0  0  0  0  0  0
  -28.3830  -32.6890   25.0290 H   0  0  0  0  0  0
  -28.0737  -31.8450   26.5389 H   0  0  0  0  0  0
  -28.2608  -38.0099   24.7534 H   0  0  0  0  0  0
  -28.1085  -36.2640   24.6267 H   0  0  0  0  0  0
  -27.2313  -37.1423   25.8869 H   0  0  0  0  0  0
  -20.9377  -29.8724   21.6884 H   0  0  0  0  0  0
  -26.0188  -38.2870   24.1424 H   0  0  0  0  0  0
  -32.1321  -17.9692   19.5764 H   0  0  0  0  0  0
  -32.4131  -19.6219   19.0476 H   0  0  0  0  0  0
  -31.4743  -18.5255   18.0315 H   0  0  0  0  0  0
  -27.5064  -17.0073   21.6130 H   0  0  0  0  0  0
  -26.3390  -18.1843   21.0206 H   0  0  0  0  0  0
  -27.1073  -18.4039   22.5946 H   0  0  0  0  0  0
  -29.5883  -16.7912   22.7123 H   0  0  0  0  0  0
  -31.2563  -16.9176   22.1401 H   0  0  0  0  0  0
  -30.6939  -15.4501   22.9408 H   0  0  0  0  0  0
  -30.2003  -16.6353   19.0556 H   0  0  0  0  0  0
  -28.6009  -16.4463   19.6045 H   0  0  0  0  0  0
  -27.4039  -22.4117   20.0231 H   0  0  0  0  0  0
  -28.5797  -22.4758   18.7692 H   0  0  0  0  0  0
  -30.0268  -23.9927   20.1049 H   0  0  0  0  0  0
  -29.0003  -23.8064   21.5078 H   0  0  0  0  0  0
  -27.0954  -24.7789   20.3336 H   0  0  0  0  0  0
  -27.9933  -24.9416   18.8374 H   0  0  0  0  0  0
  1 25  1  0  0  0
  1 30  2  0  0  0
  1 84  1  0  0  0
  2  3  1  0  0  0
  2 25  1  0  0  0
  2 85  1  0  0  0
  2 86  1  0  0  0
  3  4  1  0  0  0
  3 87  1  0  0  0
  3 88  1  0  0  0
  4  5  1  0  0  0
  4 89  1  0  0  0
  4 90  1  0  0  0
  5  6  1  0  0  0
  5 26  1  0  0  0
  5 91  1  0  0  0
  6 25  1  0  0  0
  6 92  1  0  0  0
  6 93  1  0  0  0
  7  8  2  0  0  0
  7 26  1  0  0  0
  7 29  1  0  0  0
  8  9  1  0  0  0
  8 22  1  0  0  0
  9 10  1  0  0  0
  9 27  2  0  0  0
 10 11  2  0  0  0
 10 15  1  0  0  0
 11 12  1  0  0  0
 11 94  1  0  0  0
 12 13  2  0  0  0
 12 95  1  0  0  0
 13 14  1  0  0  0
 13 31  1  0  0  0
 14 15  2  0  0  0
 14 96  1  0  0  0
 15 97  1  0  0  0
 16 17  2  0  0  0
 16 21  1  0  0  0
 16 31  1  0  0  0
 17 18  1  0  0  0
 17 98  1  0  0  0
 18 19  2  0  0  0
 18 99  1  0  0  0
 19 20  1  0  0  0
 19 24  1  0  0  0
 20 21  2  0  0  0
 20100  1  0  0  0
 21 23  1  0  0  0
 22 28  1  0  0  0
 22 32  2  0  0  0
 26 27  1  0  0  0
 28101  1  0  0  0
 28102  1  0  0  0
 29103  1  0  0  0
 29104  1  0  0  0
 33 34  1  0  0  0
 33 66  1  0  0  0
 33 70  2  0  0  0
 34 36  1  0  0  0
 34 59  1  0  0  0
 34105  1  0  0  0
 35 44  2  0  0  0
 35 45  1  0  0  0
 35 68  1  0  0  0
 36 56  1  0  0  0
 36106  1  0  0  0
 37 39  1  0  0  0
 37 47  1  0  0  0
 37 66  1  0  0  0
 37107  1  0  0  0
 38 43  2  0  0  0
 38 46  1  0  0  0
 38 47  1  0  0  0
 39 64  1  0  0  0
 39 67  2  0  0  0
 40 52  1  0  0  0
 40 53  2  0  0  0
 40 58  1  0  0  0
 41108  1  0  0  0
 41109  1  0  0  0
 41110  1  0  0  0
 41 48  1  0  0  0
 42 43  1  0  0  0
 42 66  1  0  0  0
 42111  1  0  0  0
 42112  1  0  0  0
 43 44  1  0  0  0
 44113  1  0  0  0
 45 46  2  0  0  0
 45114  1  0  0  0
 46115  1  0  0  0
 47116  1  0  0  0
 47117  1  0  0  0
 48 56  1  0  0  0
 48 65  1  0  0  0
 48118  1  0  0  0
 49 50  1  0  0  0
 49 53  1  0  0  0
 49 64  1  0  0  0
 49119  1  0  0  0
 50 51  1  0  0  0
 50120  1  0  0  0
 50121  1  0  0  0
 51 52  1  0  0  0
 51122  1  0  0  0
 51123  1  0  0  0
 52124  1  0  0  0
 52125  1  0  0  0
 53 54  1  0  0  0
 54 55  2  0  0  0
 54126  1  0  0  0
 55 57  1  0  0  0
 55127  1  0  0  0
 56 69  2  0  0  0
 57 58  2  0  0  0
 57128  1  0  0  0
 58129  1  0  0  0
 59 60  1  0  0  0
 59 61  1  0  0  0
 59 62  1  0  0  0
 60130  1  0  0  0
 60131  1  0  0  0
 60132  1  0  0  0
 61133  1  0  0  0
 61134  1  0  0  0
 61135  1  0  0  0
 62136  1  0  0  0
 62137  1  0  0  0
 62138  1  0  0  0
 63 65  1  0  0  0
 63139  1  0  0  0
 63140  1  0  0  0
 63141  1  0  0  0
 64142  1  0  0  0
 65143  1  0  0  0
 68 81  1  0  0  0
 71 72  2  0  0  0
 71 73  1  0  0  0
 71 78  1  0  0  0
 72 75  1  0  0  0
 72 82  1  0  0  0
 73 76  1  0  0  0
 73 83  2  0  0  0
 74 79  1  0  0  0
 74 82  2  0  0  0
 74 83  1  0  0  0
 75144  1  0  0  0
 75145  1  0  0  0
 75146  1  0  0  0
 76147  1  0  0  0
 76148  1  0  0  0
 76149  1  0  0  0
 77 84  1  0  0  0
 77150  1  0  0  0
 77151  1  0  0  0
 77152  1  0  0  0
 78 84  1  0  0  0
 78153  1  0  0  0
 78154  1  0  0  0
 79 80  1  0  0  0
 79155  1  0  0  0
 79156  1  0  0  0
 80 81  1  0  0  0
 80157  1  0  0  0
 80158  1  0  0  0
 81159  1  0  0  0
 81160  1  0  0  0
M  ISO  4   1 100  68 101  81 101  84 100
M  END
> <chiral flag>
0

> <version>
0

> <s_m_source_file>
/data/baiqing/PycharmProjects/Reinvent-master-3.2/result/LINK_invent/BTK/process_docking_weight1_custom_sum_contain_oxygen_bond_distance_aromatic_linkinvent_7_9_3/rearranged_h_0046.sdf

> <i_m_source_file_index>
60

> <r_mmod_Potential_Energy-OPLS-2005>
-183.69059753418

> <r_mmod_Stretch_Energy-OPLS-2005>
74.5486373901367

> <r_mmod_Bend_Energy-OPLS-2005>
157.181411743164

> <r_mmod_Torsional_Energy-OPLS-2005>
282.583984375

> <r_mmod_Improper_Torsional_Energy-OPLS-2005>
11.1580028533936

> <r_mmod_Van_der_Waal_Energy-OPLS-2005>
153.440246582031

> <r_mmod_Electrostatic_Energy-OPLS-2005>
-686.253173828125

> <r_mmod_Solvation_Energy-OPLS-2005>
-219.223815917969

> <b_mmod_Minimization_Converged-OPLS-2005>
0

> <r_mmod_RMS_Derivative-OPLS-2005>
1.46944653987885

$$$$
61
                    3D
 Structure written by MMmdl.
150157  0  0  1  0            999 V2000
  -30.4686  -15.1197   20.4094 C   0  0  0  0  0  0
  -30.4457  -12.6984   19.5249 C   0  0  0  0  0  0
  -29.5334  -12.5644   18.2797 C   0  0  0  0  0  0
  -28.0710  -12.3182   18.6932 C   0  0  0  0  0  0
  -27.6245  -13.2662   19.8346 C   0  0  2  0  0  0
  -28.6609  -13.3559   20.9740 C   0  0  0  0  0  0
  -25.2448  -13.8241   20.5742 C   0  0  0  0  0  0
  -24.1777  -13.0439   20.9232 C   0  0  0  0  0  0
  -24.6418  -11.6933   20.8753 C   0  0  0  0  0  0
  -23.9102  -10.4297   21.0406 C   0  0  0  0  0  0
  -24.3645   -9.4208   21.9180 C   0  0  0  0  0  0
  -23.6313   -8.2247   22.0756 C   0  0  0  0  0  0
  -22.4291   -8.0290   21.3552 C   0  0  0  0  0  0
  -21.9936   -9.0261   20.4654 C   0  0  0  0  0  0
  -22.7272  -10.2136   20.3059 C   0  0  0  0  0  0
  -21.6860   -6.0745   22.5282 C   0  0  0  0  0  0
  -21.4018   -6.5646   23.8214 C   0  0  0  0  0  0
  -21.3662   -5.6798   24.9176 C   0  0  0  0  0  0
  -21.6045   -4.3063   24.7224 C   0  0  0  0  0  0
  -21.8821   -3.8154   23.4348 C   0  0  0  0  0  0
  -21.9194   -4.6971   22.3406 C   0  0  0  0  0  0
  -22.7792  -13.5202   21.1873 C   0  0  0  0  0  0
  -22.1664   -4.2158   21.0983 F   0  0  0  0  0  0
  -21.5624   -3.4544   25.7734 F   0  0  0  0  0  0
  -29.9240  -13.8167   20.3806 N   0  0  0  0  0  0
  -26.2883  -12.9506   20.3250 N   0  0  0  0  0  0
  -25.9362  -11.6618   20.5738 N   0  0  0  0  0  0
  -22.0454  -12.8188   22.0438 N   0  0  0  0  0  0
  -25.4099  -15.1970   20.4200 N   0  0  0  0  0  0
  -31.6580  -15.1634   20.0671 O   0  0  0  0  0  0
  -21.6652   -6.8887   21.4248 O   0  0  0  0  0  0
  -22.3470  -14.5495   20.6709 O   0  0  0  0  0  0
  -24.6537  -31.8322   23.1781 C   0  0  0  0  0  0
  -25.9253  -32.4635   23.8217 C   0  0  1  0  0  0
  -27.2227  -27.0205   20.1696 C   0  0  0  0  0  0
  -25.5961  -33.8450   24.2128 N   0  0  0  0  0  0
  -23.4648  -30.4462   21.5245 C   0  0  2  0  0  0
  -24.9191  -28.8517   20.1061 C   0  0  0  0  0  0
  -22.7631  -29.4478   22.4810 C   0  0  0  0  0  0
  -18.0323  -28.1394   22.8464 C   0  0  0  0  0  0
  -24.1494  -36.7228   23.2647 C   0  0  0  0  0  0
  -26.0278  -30.6668   21.3973 C   0  0  0  0  0  0
  -26.0967  -29.2664   20.7400 C   0  0  0  0  0  0
  -27.2429  -28.3678   20.7537 C   0  0  0  0  0  0
  -26.0225  -26.7402   19.4796 C   0  0  0  0  0  0
  -24.9024  -27.6069   19.4571 C   0  0  0  0  0  0
  -23.6992  -29.7667   20.1472 C   0  0  0  0  0  0
  -25.4133  -36.3002   24.0310 C   0  0  1  0  0  0
  -20.5942  -28.3730   23.1206 C   0  0  2  0  0  0
  -20.6805  -26.9421   22.5402 C   0  0  0  0  0  0
  -19.5782  -26.6367   21.5215 C   0  0  0  0  0  0
  -18.1962  -26.7928   22.1619 C   0  0  0  0  0  0
  -19.1582  -28.8883   23.2820 C   0  0  0  0  0  0
  -18.9491  -30.1473   23.8858 C   0  0  0  0  0  0
  -17.6485  -30.6584   24.0557 C   0  0  0  0  0  0
  -25.9086  -34.9377   23.5033 C   0  0  0  0  0  0
  -16.5376  -29.9073   23.6339 C   0  0  0  0  0  0
  -16.7306  -28.6492   23.0359 C   0  0  0  0  0  0
  -26.4542  -31.6551   25.0709 C   0  0  0  0  0  0
  -25.3692  -31.3758   26.1378 C   0  0  0  0  0  0
  -27.0428  -30.2936   24.6373 C   0  0  0  0  0  0
  -27.6058  -32.4337   25.7492 C   0  0  0  0  0  0
  -27.5575  -37.1774   24.8467 C   0  0  0  0  0  0
  -21.4313  -29.3032   22.3561 N   0  0  0  0  0  0
  -26.4290  -37.3723   23.9402 N   0  0  0  0  0  0
  -24.7357  -31.0068   22.0874 N   0  0  0  0  0  0
  -23.4215  -28.8043   23.3023 O   0  0  0  0  0  0
  -28.2480  -25.9714   20.2808 O   0  0  0  0  0  0
  -26.5690  -34.8892   22.4624 O   0  0  0  0  0  0
  -23.5629  -32.1260   23.6926 O   0  0  0  0  0  0
  -30.0273  -16.8358   22.3113 C   0  0  0  0  0  0
  -28.9210  -21.3066   19.9516 C   0  0  0  0  0  0
  -29.2718  -19.7683   20.7269 C   0  0  0  0  0  0
  -28.8211  -22.9471   20.5786 C   0  0  0  0  0  0
  -29.7273  -18.1919   20.0888 C   0  0  0  0  0  0
  -28.0907  -24.4062   19.9290 C   0  0  0  0  0  0
  -29.6927  -16.5999   20.8308 C   0  0  2  0  0  0
  -31.4736  -12.8752   19.2061 H   0  0  0  0  0  0
  -30.4713  -11.7640   20.0884 H   0  0  0  0  0  0
  -29.8840  -11.7556   17.6375 H   0  0  0  0  0  0
  -29.5959  -13.4771   17.6861 H   0  0  0  0  0  0
  -27.9901  -11.2819   19.0229 H   0  0  0  0  0  0
  -27.4080  -12.4184   17.8323 H   0  0  0  0  0  0
  -27.5678  -14.2570   19.3805 H   0  0  0  0  0  0
  -28.7823  -12.3942   21.4752 H   0  0  0  0  0  0
  -28.3288  -14.0611   21.7370 H   0  0  0  0  0  0
  -25.2787   -9.5684   22.4757 H   0  0  0  0  0  0
  -24.0022   -7.4644   22.7479 H   0  0  0  0  0  0
  -21.0868   -8.8789   19.8958 H   0  0  0  0  0  0
  -22.3731  -10.9679   19.6171 H   0  0  0  0  0  0
  -21.2010   -7.6151   23.9721 H   0  0  0  0  0  0
  -21.1485   -6.0528   25.9079 H   0  0  0  0  0  0
  -22.0597   -2.7617   23.2846 H   0  0  0  0  0  0
  -22.4090  -11.9866   22.4838 H   0  0  0  0  0  0
  -21.1067  -13.1199   22.2632 H   0  0  0  0  0  0
  -24.6435  -15.8502   20.5395 H   0  0  0  0  0  0
  -26.2637  -15.6422   20.1094 H   0  0  0  0  0  0
  -26.7319  -32.5200   23.0934 H   0  0  0  0  0  0
  -25.0078  -33.9546   25.0257 H   0  0  0  0  0  0
  -22.7737  -31.2761   21.3617 H   0  0  0  0  0  0
  -23.3772  -35.9542   23.3290 H   0  0  0  0  0  0
  -24.3581  -36.8888   22.2066 H   0  0  0  0  0  0
  -23.7238  -37.6410   23.6706 H   0  0  0  0  0  0
  -26.1995  -31.4140   20.6212 H   0  0  0  0  0  0
  -26.8915  -30.7202   22.0481 H   0  0  0  0  0  0
  -28.1330  -28.6783   21.2831 H   0  0  0  0  0  0
  -25.9136  -25.7928   18.9738 H   0  0  0  0  0  0
  -24.0080  -27.2880   18.9388 H   0  0  0  0  0  0
  -23.8441  -30.5388   19.3902 H   0  0  0  0  0  0
  -22.8115  -29.2135   19.8341 H   0  0  0  0  0  0
  -25.1329  -36.1820   25.0805 H   0  0  0  0  0  0
  -21.0030  -28.3336   24.1330 H   0  0  0  0  0  0
  -20.5703  -26.2348   23.3631 H   0  0  0  0  0  0
  -21.6670  -26.7412   22.1208 H   0  0  0  0  0  0
  -19.6944  -25.6271   21.1268 H   0  0  0  0  0  0
  -19.6728  -27.3159   20.6730 H   0  0  0  0  0  0
  -17.4235  -26.6672   21.4017 H   0  0  0  0  0  0
  -18.0353  -26.0084   22.9027 H   0  0  0  0  0  0
  -19.7967  -30.7297   24.2218 H   0  0  0  0  0  0
  -17.5036  -31.6267   24.5153 H   0  0  0  0  0  0
  -15.5375  -30.2960   23.7681 H   0  0  0  0  0  0
  -15.8709  -28.0795   22.7096 H   0  0  0  0  0  0
  -24.5889  -30.7098   25.7676 H   0  0  0  0  0  0
  -24.8865  -32.2941   26.4733 H   0  0  0  0  0  0
  -25.7950  -30.8969   27.0205 H   0  0  0  0  0  0
  -26.3073  -29.6629   24.1370 H   0  0  0  0  0  0
  -27.3987  -29.7278   25.4993 H   0  0  0  0  0  0
  -27.9002  -30.4150   23.9752 H   0  0  0  0  0  0
  -27.2656  -33.3674   26.1980 H   0  0  0  0  0  0
  -28.3907  -32.6840   25.0341 H   0  0  0  0  0  0
  -28.0683  -31.8524   26.5479 H   0  0  0  0  0  0
  -28.2582  -38.0081   24.7518 H   0  0  0  0  0  0
  -28.1085  -36.2612   24.6294 H   0  0  0  0  0  0
  -27.2290  -37.1412   25.8869 H   0  0  0  0  0  0
  -20.9550  -29.8723   21.6703 H   0  0  0  0  0  0
  -26.0153  -38.2786   24.1410 H   0  0  0  0  0  0
  -31.0035  -17.3082   22.4192 H   0  0  0  0  0  0
  -30.0435  -15.9065   22.8824 H   0  0  0  0  0  0
  -29.2894  -17.4871   22.7802 H   0  0  0  0  0  0
  -29.6382  -21.3764   19.1326 H   0  0  0  0  0  0
  -27.9714  -21.1444   19.4412 H   0  0  0  0  0  0
  -28.3916  -19.5734   21.3397 H   0  0  0  0  0  0
  -30.0448  -19.9947   21.4617 H   0  0  0  0  0  0
  -29.8571  -23.2224   20.7793 H   0  0  0  0  0  0
  -28.3881  -22.8449   21.5735 H   0  0  0  0  0  0
  -30.7468  -18.3123   19.7202 H   0  0  0  0  0  0
  -29.1405  -18.0786   19.1773 H   0  0  0  0  0  0
  -27.0230  -24.2042   19.9994 H   0  0  0  0  0  0
  -28.2955  -24.3707   18.8584 H   0  0  0  0  0  0
  -28.6386  -16.3233   20.8083 H   0  0  0  0  0  0
  1 25  1  0  0  0
  1 30  2  0  0  0
  1 77  1  0  0  0
  2  3  1  0  0  0
  2 25  1  0  0  0
  2 78  1  0  0  0
  2 79  1  0  0  0
  3  4  1  0  0  0
  3 80  1  0  0  0
  3 81  1  0  0  0
  4  5  1  0  0  0
  4 82  1  0  0  0
  4 83  1  0  0  0
  5  6  1  0  0  0
  5 26  1  0  0  0
  5 84  1  0  0  0
  6 25  1  0  0  0
  6 85  1  0  0  0
  6 86  1  0  0  0
  7  8  2  0  0  0
  7 26  1  0  0  0
  7 29  1  0  0  0
  8  9  1  0  0  0
  8 22  1  0  0  0
  9 10  1  0  0  0
  9 27  2  0  0  0
 10 11  2  0  0  0
 10 15  1  0  0  0
 11 12  1  0  0  0
 11 87  1  0  0  0
 12 13  2  0  0  0
 12 88  1  0  0  0
 13 14  1  0  0  0
 13 31  1  0  0  0
 14 15  2  0  0  0
 14 89  1  0  0  0
 15 90  1  0  0  0
 16 17  2  0  0  0
 16 21  1  0  0  0
 16 31  1  0  0  0
 17 18  1  0  0  0
 17 91  1  0  0  0
 18 19  2  0  0  0
 18 92  1  0  0  0
 19 20  1  0  0  0
 19 24  1  0  0  0
 20 21  2  0  0  0
 20 93  1  0  0  0
 21 23  1  0  0  0
 22 28  1  0  0  0
 22 32  2  0  0  0
 26 27  1  0  0  0
 28 94  1  0  0  0
 28 95  1  0  0  0
 29 96  1  0  0  0
 29 97  1  0  0  0
 33 34  1  0  0  0
 33 66  1  0  0  0
 33 70  2  0  0  0
 34 36  1  0  0  0
 34 59  1  0  0  0
 34 98  1  0  0  0
 35 44  2  0  0  0
 35 45  1  0  0  0
 35 68  1  0  0  0
 36 56  1  0  0  0
 36 99  1  0  0  0
 37 39  1  0  0  0
 37 47  1  0  0  0
 37 66  1  0  0  0
 37100  1  0  0  0
 38 43  2  0  0  0
 38 46  1  0  0  0
 38 47  1  0  0  0
 39 64  1  0  0  0
 39 67  2  0  0  0
 40 52  1  0  0  0
 40 53  2  0  0  0
 40 58  1  0  0  0
 41101  1  0  0  0
 41102  1  0  0  0
 41103  1  0  0  0
 41 48  1  0  0  0
 42 43  1  0  0  0
 42 66  1  0  0  0
 42104  1  0  0  0
 42105  1  0  0  0
 43 44  1  0  0  0
 44106  1  0  0  0
 45 46  2  0  0  0
 45107  1  0  0  0
 46108  1  0  0  0
 47109  1  0  0  0
 47110  1  0  0  0
 48 56  1  0  0  0
 48 65  1  0  0  0
 48111  1  0  0  0
 49 50  1  0  0  0
 49 53  1  0  0  0
 49 64  1  0  0  0
 49112  1  0  0  0
 50 51  1  0  0  0
 50113  1  0  0  0
 50114  1  0  0  0
 51 52  1  0  0  0
 51115  1  0  0  0
 51116  1  0  0  0
 52117  1  0  0  0
 52118  1  0  0  0
 53 54  1  0  0  0
 54 55  2  0  0  0
 54119  1  0  0  0
 55 57  1  0  0  0
 55120  1  0  0  0
 56 69  2  0  0  0
 57 58  2  0  0  0
 57121  1  0  0  0
 58122  1  0  0  0
 59 60  1  0  0  0
 59 61  1  0  0  0
 59 62  1  0  0  0
 60123  1  0  0  0
 60124  1  0  0  0
 60125  1  0  0  0
 61126  1  0  0  0
 61127  1  0  0  0
 61128  1  0  0  0
 62129  1  0  0  0
 62130  1  0  0  0
 62131  1  0  0  0
 63 65  1  0  0  0
 63132  1  0  0  0
 63133  1  0  0  0
 63134  1  0  0  0
 64135  1  0  0  0
 65136  1  0  0  0
 68 76  1  0  0  0
 71137  1  0  0  0
 71138  1  0  0  0
 71139  1  0  0  0
 71 77  1  0  0  0
 72 73  1  0  0  0
 72 74  1  0  0  0
 72140  1  0  0  0
 72141  1  0  0  0
 73 75  1  0  0  0
 73142  1  0  0  0
 73143  1  0  0  0
 74 76  1  0  0  0
 74144  1  0  0  0
 74145  1  0  0  0
 75 77  1  0  0  0
 75146  1  0  0  0
 75147  1  0  0  0
 76148  1  0  0  0
 76149  1  0  0  0
 77150  1  0  0  0
M  ISO  4   1 100  68 101  76 101  77 100
M  END
> <chiral flag>
0

> <version>
0

> <s_m_source_file>
/data/baiqing/PycharmProjects/Reinvent-master-3.2/result/LINK_invent/BTK/process_docking_weight1_custom_sum_contain_oxygen_bond_distance_aromatic_linkinvent_7_9_3/rearranged_h_0046.sdf

> <i_m_source_file_index>
61

> <r_mmod_Potential_Energy-OPLS-2005>
1014.51123046875

> <r_mmod_Stretch_Energy-OPLS-2005>
489.716156005859

> <r_mmod_Bend_Energy-OPLS-2005>
376.34130859375

> <r_mmod_Torsional_Energy-OPLS-2005>
192.363845825195

> <r_mmod_Improper_Torsional_Energy-OPLS-2005>
1.64702200889587

> <r_mmod_Van_der_Waal_Energy-OPLS-2005>
108.69295501709

> <r_mmod_Electrostatic_Energy-OPLS-2005>
-291.011352539062

> <r_mmod_Solvation_Energy-OPLS-2005>
-184.395812988281

> <b_mmod_Minimization_Converged-OPLS-2005>
0

> <r_mmod_RMS_Derivative-OPLS-2005>
1.27494871616364

$$$$
62
                    3D
 Structure written by MMmdl.
157165  0  0  1  0            999 V2000
  -30.6409  -14.7094   20.4896 C   0  0  0  0  0  0
  -30.4339  -12.4381   19.4813 C   0  0  0  0  0  0
  -29.5162  -12.5199   18.2427 C   0  0  0  0  0  0
  -28.0403  -12.3457   18.6534 C   0  0  0  0  0  0
  -27.6467  -13.2359   19.8637 C   0  0  2  0  0  0
  -28.6909  -13.1549   21.0007 C   0  0  0  0  0  0
  -25.2511  -13.8188   20.5703 C   0  0  0  0  0  0
  -24.1804  -13.0441   20.9200 C   0  0  0  0  0  0
  -24.6394  -11.6914   20.8749 C   0  0  0  0  0  0
  -23.9077  -10.4294   21.0406 C   0  0  0  0  0  0
  -24.3627   -9.4210   21.9181 C   0  0  0  0  0  0
  -23.6308   -8.2246   22.0755 C   0  0  0  0  0  0
  -22.4293   -8.0276   21.3545 C   0  0  0  0  0  0
  -21.9927   -9.0253   20.4648 C   0  0  0  0  0  0
  -22.7252  -10.2135   20.3060 C   0  0  0  0  0  0
  -21.6859   -6.0744   22.5280 C   0  0  0  0  0  0
  -21.4017   -6.5645   23.8213 C   0  0  0  0  0  0
  -21.3670   -5.6790   24.9174 C   0  0  0  0  0  0
  -21.6055   -4.3055   24.7221 C   0  0  0  0  0  0
  -21.8814   -3.8153   23.4339 C   0  0  0  0  0  0
  -21.9193   -4.6974   22.3399 C   0  0  0  0  0  0
  -22.7824  -13.5215   21.1855 C   0  0  0  0  0  0
  -22.1651   -4.2164   21.0975 F   0  0  0  0  0  0
  -21.5644   -3.4528   25.7731 F   0  0  0  0  0  0
  -29.9997  -13.4932   20.4245 N   0  0  0  0  0  0
  -26.2967  -12.9415   20.3348 N   0  0  0  0  0  0
  -25.9339  -11.6542   20.5770 N   0  0  0  0  0  0
  -22.0485  -12.8205   22.0413 N   0  0  0  0  0  0
  -25.4160  -15.1918   20.4113 N   0  0  0  0  0  0
  -31.8178  -14.8093   20.1341 O   0  0  0  0  0  0
  -21.6646   -6.8886   21.4241 O   0  0  0  0  0  0
  -22.3509  -14.5532   20.6712 O   0  0  0  0  0  0
  -24.6300  -31.8579   23.2035 C   0  0  0  0  0  0
  -25.9145  -32.4777   23.8338 C   0  0  1  0  0  0
  -27.2097  -27.2769   20.1137 C   0  0  0  0  0  0
  -25.5942  -33.8582   24.2253 N   0  0  0  0  0  0
  -23.4238  -30.4882   21.5468 C   0  0  2  0  0  0
  -24.8687  -28.9513   20.1038 C   0  0  0  0  0  0
  -22.7490  -29.4625   22.4900 C   0  0  0  0  0  0
  -18.0299  -28.1403   22.8481 C   0  0  0  0  0  0
  -24.1493  -36.7293   23.2629 C   0  0  0  0  0  0
  -25.9712  -30.7770   21.3814 C   0  0  0  0  0  0
  -26.0418  -29.4035   20.7202 C   0  0  0  0  0  0
  -27.2123  -28.5771   20.7227 C   0  0  0  0  0  0
  -26.0160  -26.9174   19.4366 C   0  0  0  0  0  0
  -24.8615  -27.7152   19.4493 C   0  0  0  0  0  0
  -23.6396  -29.8356   20.1583 C   0  0  0  0  0  0
  -25.4118  -36.3072   24.0310 C   0  0  1  0  0  0
  -20.5903  -28.3714   23.1266 C   0  0  2  0  0  0
  -20.6797  -26.9429   22.5418 C   0  0  0  0  0  0
  -19.5767  -26.6377   21.5227 C   0  0  0  0  0  0
  -18.1941  -26.7942   22.1627 C   0  0  0  0  0  0
  -19.1550  -28.8873   23.2871 C   0  0  0  0  0  0
  -18.9471  -30.1476   23.8889 C   0  0  0  0  0  0
  -17.6472  -30.6601   24.0567 C   0  0  0  0  0  0
  -25.9062  -34.9453   23.5073 C   0  0  0  0  0  0
  -16.5362  -29.9098   23.6345 C   0  0  0  0  0  0
  -16.7282  -28.6523   23.0342 C   0  0  0  0  0  0
  -26.4514  -31.6595   25.0718 C   0  0  0  0  0  0
  -25.3728  -31.3747   26.1423 C   0  0  0  0  0  0
  -27.0350  -30.3009   24.6193 C   0  0  0  0  0  0
  -27.6065  -32.4323   25.7500 C   0  0  0  0  0  0
  -27.5583  -37.1783   24.8444 C   0  0  0  0  0  0
  -21.4200  -29.3052   22.3637 N   0  0  0  0  0  0
  -26.4280  -37.3785   23.9415 N   0  0  0  0  0  0
  -24.6948  -31.0567   22.1006 N   0  0  0  0  0  0
  -23.4199  -28.8146   23.2980 O   0  0  0  0  0  0
  -28.2899  -26.3590   20.2064 O   0  0  0  0  0  0
  -26.5636  -34.8923   22.4644 O   0  0  0  0  0  0
  -23.5454  -32.1397   23.7338 O   0  0  0  0  0  0
  -27.5437  -22.5996   18.1151 C   0  0  0  0  0  0
  -28.4375  -22.3086   19.1760 C   0  0  0  0  0  0
  -28.8786  -20.9059   19.1801 C   0  0  0  0  0  0
  -27.8582  -20.6033   17.1140 C   0  0  0  0  0  0
  -27.6334  -19.7067   15.9152 C   0  0  0  0  0  0
  -28.8269  -23.5653   20.0849 C   0  0  0  0  0  0
  -29.6951  -20.0218   20.2052 C   0  0  0  0  0  0
  -29.2994  -18.4371   20.3022 C   0  0  0  0  0  0
  -30.3506  -17.3032   20.7515 C   0  0  0  0  0  0
  -28.0560  -24.9580   19.7355 C   0  0  0  0  0  0
  -27.2603  -21.7730   17.1042 N   0  0  0  0  0  0
  -28.6268  -20.1513   18.0868 N   0  0  0  0  0  0
  -29.9013  -15.8427   20.7660 N   0  0  0  0  0  0
  -31.4769  -12.5535   19.1837 H   0  0  0  0  0  0
  -30.3652  -11.4552   19.9501 H   0  0  0  0  0  0
  -29.7976  -11.7610   17.5119 H   0  0  0  0  0  0
  -29.6516  -13.4838   17.7490 H   0  0  0  0  0  0
  -27.8904  -11.2950   18.9033 H   0  0  0  0  0  0
  -27.3846  -12.5533   17.8069 H   0  0  0  0  0  0
  -27.6450  -14.2626   19.4955 H   0  0  0  0  0  0
  -28.7133  -12.1540   21.4368 H   0  0  0  0  0  0
  -28.4313  -13.8337   21.8155 H   0  0  0  0  0  0
  -25.2779   -9.5685   22.4744 H   0  0  0  0  0  0
  -24.0027   -7.4635   22.7474 H   0  0  0  0  0  0
  -21.0861   -8.8778   19.8946 H   0  0  0  0  0  0
  -22.3719  -10.9678   19.6167 H   0  0  0  0  0  0
  -21.1998   -7.6151   23.9721 H   0  0  0  0  0  0
  -21.1507   -6.0520   25.9077 H   0  0  0  0  0  0
  -22.0588   -2.7617   23.2830 H   0  0  0  0  0  0
  -22.4125  -11.9886   22.4817 H   0  0  0  0  0  0
  -21.1113  -13.1235   22.2630 H   0  0  0  0  0  0
  -24.6431  -15.8391   20.5223 H   0  0  0  0  0  0
  -26.2622  -15.6389   20.0830 H   0  0  0  0  0  0
  -26.7208  -32.5441   23.1078 H   0  0  0  0  0  0
  -25.0083  -33.9729   25.0383 H   0  0  0  0  0  0
  -22.7198  -31.3114   21.4080 H   0  0  0  0  0  0
  -23.3771  -35.9607   23.3254 H   0  0  0  0  0  0
  -24.3585  -36.8968   22.2052 H   0  0  0  0  0  0
  -23.7236  -37.6467   23.6698 H   0  0  0  0  0  0
  -26.1010  -31.5386   20.6104 H   0  0  0  0  0  0
  -26.8541  -30.8278   22.0078 H   0  0  0  0  0  0
  -28.1053  -28.9162   21.2281 H   0  0  0  0  0  0
  -25.9146  -25.9949   18.8881 H   0  0  0  0  0  0
  -23.9696  -27.3744   18.9404 H   0  0  0  0  0  0
  -23.7574  -30.6182   19.4067 H   0  0  0  0  0  0
  -22.7580  -29.2693   19.8528 H   0  0  0  0  0  0
  -25.1298  -36.1890   25.0800 H   0  0  0  0  0  0
  -21.0013  -28.3315   24.1377 H   0  0  0  0  0  0
  -20.5709  -26.2325   23.3628 H   0  0  0  0  0  0
  -21.6663  -26.7450   22.1201 H   0  0  0  0  0  0
  -19.6931  -25.6272   21.1283 H   0  0  0  0  0  0
  -19.6725  -27.3170   20.6742 H   0  0  0  0  0  0
  -17.4213  -26.6687   21.4024 H   0  0  0  0  0  0
  -18.0338  -26.0092   22.9030 H   0  0  0  0  0  0
  -19.7943  -30.7303   24.2241 H   0  0  0  0  0  0
  -17.5019  -31.6280   24.5168 H   0  0  0  0  0  0
  -15.5362  -30.2992   23.7675 H   0  0  0  0  0  0
  -15.8682  -28.0850   22.7041 H   0  0  0  0  0  0
  -24.5925  -30.7077   25.7741 H   0  0  0  0  0  0
  -24.8902  -32.2924   26.4796 H   0  0  0  0  0  0
  -25.8030  -30.8954   27.0227 H   0  0  0  0  0  0
  -26.2928  -29.6756   24.1220 H   0  0  0  0  0  0
  -27.4036  -29.7266   25.4705 H   0  0  0  0  0  0
  -27.8805  -30.4273   23.9427 H   0  0  0  0  0  0
  -27.2689  -33.3646   26.2035 H   0  0  0  0  0  0
  -28.3917  -32.6838   25.0357 H   0  0  0  0  0  0
  -28.0689  -31.8464   26.5451 H   0  0  0  0  0  0
  -28.2536  -38.0139   24.7573 H   0  0  0  0  0  0
  -28.1138  -36.2675   24.6164 H   0  0  0  0  0  0
  -27.2312  -37.1304   25.8843 H   0  0  0  0  0  0
  -20.9362  -29.8776   21.6858 H   0  0  0  0  0  0
  -26.0142  -38.2828   24.1501 H   0  0  0  0  0  0
  -27.0273  -23.5363   18.0011 H   0  0  0  0  0  0
  -26.9664  -20.1694   15.1863 H   0  0  0  0  0  0
  -27.1887  -18.7604   16.2193 H   0  0  0  0  0  0
  -28.5785  -19.5039   15.4126 H   0  0  0  0  0  0
  -29.8997  -23.7258   19.9814 H   0  0  0  0  0  0
  -28.6580  -23.3090   21.1309 H   0  0  0  0  0  0
  -29.6177  -20.4771   21.1932 H   0  0  0  0  0  0
  -30.7451  -20.1080   19.9246 H   0  0  0  0  0  0
  -28.9724  -18.0935   19.3233 H   0  0  0  0  0  0
  -28.4090  -18.3642   20.9262 H   0  0  0  0  0  0
  -30.6961  -17.5396   21.7581 H   0  0  0  0  0  0
  -31.2346  -17.3857   20.1158 H   0  0  0  0  0  0
  -27.0317  -24.6924   19.9902 H   0  0  0  0  0  0
  -28.1386  -25.1079   18.6605 H   0  0  0  0  0  0
  -28.9462  -15.6783   21.0503 H   0  0  0  0  0  0
  1 25  1  0  0  0
  1 30  2  0  0  0
  1 83  1  0  0  0
  2  3  1  0  0  0
  2 25  1  0  0  0
  2 84  1  0  0  0
  2 85  1  0  0  0
  3  4  1  0  0  0
  3 86  1  0  0  0
  3 87  1  0  0  0
  4  5  1  0  0  0
  4 88  1  0  0  0
  4 89  1  0  0  0
  5  6  1  0  0  0
  5 26  1  0  0  0
  5 90  1  0  0  0
  6 25  1  0  0  0
  6 91  1  0  0  0
  6 92  1  0  0  0
  7  8  2  0  0  0
  7 26  1  0  0  0
  7 29  1  0  0  0
  8  9  1  0  0  0
  8 22  1  0  0  0
  9 10  1  0  0  0
  9 27  2  0  0  0
 10 11  2  0  0  0
 10 15  1  0  0  0
 11 12  1  0  0  0
 11 93  1  0  0  0
 12 13  2  0  0  0
 12 94  1  0  0  0
 13 14  1  0  0  0
 13 31  1  0  0  0
 14 15  2  0  0  0
 14 95  1  0  0  0
 15 96  1  0  0  0
 16 17  2  0  0  0
 16 21  1  0  0  0
 16 31  1  0  0  0
 17 18  1  0  0  0
 17 97  1  0  0  0
 18 19  2  0  0  0
 18 98  1  0  0  0
 19 20  1  0  0  0
 19 24  1  0  0  0
 20 21  2  0  0  0
 20 99  1  0  0  0
 21 23  1  0  0  0
 22 28  1  0  0  0
 22 32  2  0  0  0
 26 27  1  0  0  0
 28100  1  0  0  0
 28101  1  0  0  0
 29102  1  0  0  0
 29103  1  0  0  0
 33 34  1  0  0  0
 33 66  1  0  0  0
 33 70  2  0  0  0
 34 36  1  0  0  0
 34 59  1  0  0  0
 34104  1  0  0  0
 35 44  2  0  0  0
 35 45  1  0  0  0
 35 68  1  0  0  0
 36 56  1  0  0  0
 36105  1  0  0  0
 37 39  1  0  0  0
 37 47  1  0  0  0
 37 66  1  0  0  0
 37106  1  0  0  0
 38 43  2  0  0  0
 38 46  1  0  0  0
 38 47  1  0  0  0
 39 64  1  0  0  0
 39 67  2  0  0  0
 40 52  1  0  0  0
 40 53  2  0  0  0
 40 58  1  0  0  0
 41107  1  0  0  0
 41108  1  0  0  0
 41109  1  0  0  0
 41 48  1  0  0  0
 42 43  1  0  0  0
 42 66  1  0  0  0
 42110  1  0  0  0
 42111  1  0  0  0
 43 44  1  0  0  0
 44112  1  0  0  0
 45 46  2  0  0  0
 45113  1  0  0  0
 46114  1  0  0  0
 47115  1  0  0  0
 47116  1  0  0  0
 48 56  1  0  0  0
 48 65  1  0  0  0
 48117  1  0  0  0
 49 50  1  0  0  0
 49 53  1  0  0  0
 49 64  1  0  0  0
 49118  1  0  0  0
 50 51  1  0  0  0
 50119  1  0  0  0
 50120  1  0  0  0
 51 52  1  0  0  0
 51121  1  0  0  0
 51122  1  0  0  0
 52123  1  0  0  0
 52124  1  0  0  0
 53 54  1  0  0  0
 54 55  2  0  0  0
 54125  1  0  0  0
 55 57  1  0  0  0
 55126  1  0  0  0
 56 69  2  0  0  0
 57 58  2  0  0  0
 57127  1  0  0  0
 58128  1  0  0  0
 59 60  1  0  0  0
 59 61  1  0  0  0
 59 62  1  0  0  0
 60129  1  0  0  0
 60130  1  0  0  0
 60131  1  0  0  0
 61132  1  0  0  0
 61133  1  0  0  0
 61134  1  0  0  0
 62135  1  0  0  0
 62136  1  0  0  0
 62137  1  0  0  0
 63 65  1  0  0  0
 63138  1  0  0  0
 63139  1  0  0  0
 63140  1  0  0  0
 64141  1  0  0  0
 65142  1  0  0  0
 68 80  1  0  0  0
 71 72  2  0  0  0
 71 81  1  0  0  0
 71143  1  0  0  0
 72 73  1  0  0  0
 72 76  1  0  0  0
 73 77  1  0  0  0
 73 82  2  0  0  0
 74 75  1  0  0  0
 74 81  2  0  0  0
 74 82  1  0  0  0
 75144  1  0  0  0
 75145  1  0  0  0
 75146  1  0  0  0
 76 80  1  0  0  0
 76147  1  0  0  0
 76148  1  0  0  0
 77 78  1  0  0  0
 77149  1  0  0  0
 77150  1  0  0  0
 78 79  1  0  0  0
 78151  1  0  0  0
 78152  1  0  0  0
 79 83  1  0  0  0
 79153  1  0  0  0
 79154  1  0  0  0
 80155  1  0  0  0
 80156  1  0  0  0
 83157  1  0  0  0
M  ISO  4   1 100  68 101  80 101  83 100
M  END
> <chiral flag>
0

> <version>
0

> <s_m_source_file>
/data/baiqing/PycharmProjects/Reinvent-master-3.2/result/LINK_invent/BTK/process_docking_weight1_custom_sum_contain_oxygen_bond_distance_aromatic_linkinvent_7_9_3/rearranged_h_0046.sdf

> <i_m_source_file_index>
62

> <r_mmod_Potential_Energy-OPLS-2005>
-235.907638549805

> <r_mmod_Stretch_Energy-OPLS-2005>
126.420593261719

> <r_mmod_Bend_Energy-OPLS-2005>
211.434326171875

> <r_mmod_Torsional_Energy-OPLS-2005>
209.019653320312

> <r_mmod_Improper_Torsional_Energy-OPLS-2005>
4.43929147720337

> <r_mmod_Van_der_Waal_Energy-OPLS-2005>
173.815246582031

> <r_mmod_Electrostatic_Energy-OPLS-2005>
-803.985290527344

> <r_mmod_Solvation_Energy-OPLS-2005>
-234.287796020508

> <b_mmod_Minimization_Converged-OPLS-2005>
0

> <r_mmod_RMS_Derivative-OPLS-2005>
2.54220676422119

$$$$
63
                    3D
 Structure written by MMmdl.
158166  0  0  1  0            999 V2000
  -30.6550  -14.6327   20.4317 C   0  0  0  0  0  0
  -30.4281  -12.3723   19.4540 C   0  0  0  0  0  0
  -29.5003  -12.4516   18.2217 C   0  0  0  0  0  0
  -28.0221  -12.3181   18.6386 C   0  0  0  0  0  0
  -27.6439  -13.2188   19.8464 C   0  0  2  0  0  0
  -28.6942  -13.1314   20.9749 C   0  0  0  0  0  0
  -25.2562  -13.8195   20.5770 C   0  0  0  0  0  0
  -24.1823  -13.0458   20.9227 C   0  0  0  0  0  0
  -24.6385  -11.6925   20.8758 C   0  0  0  0  0  0
  -23.9041  -10.4314   21.0404 C   0  0  0  0  0  0
  -24.3602   -9.4227   21.9174 C   0  0  0  0  0  0
  -23.6287   -8.2253   22.0742 C   0  0  0  0  0  0
  -22.4268   -8.0271   21.3532 C   0  0  0  0  0  0
  -21.9895   -9.0246   20.4639 C   0  0  0  0  0  0
  -22.7213  -10.2135   20.3053 C   0  0  0  0  0  0
  -21.6839   -6.0733   22.5273 C   0  0  0  0  0  0
  -21.4017   -6.5644   23.8213 C   0  0  0  0  0  0
  -21.3674   -5.6785   24.9171 C   0  0  0  0  0  0
  -21.6038   -4.3048   24.7208 C   0  0  0  0  0  0
  -21.8823   -3.8144   23.4330 C   0  0  0  0  0  0
  -21.9204   -4.6969   22.3396 C   0  0  0  0  0  0
  -22.7839  -13.5237   21.1874 C   0  0  0  0  0  0
  -22.1656   -4.2162   21.0964 F   0  0  0  0  0  0
  -21.5643   -3.4533   25.7720 F   0  0  0  0  0  0
  -30.0010  -13.4327   20.3814 N   0  0  0  0  0  0
  -26.2963  -12.9375   20.3302 N   0  0  0  0  0  0
  -25.9314  -11.6530   20.5769 N   0  0  0  0  0  0
  -22.0460  -12.8243   22.0416 N   0  0  0  0  0  0
  -25.4334  -15.1925   20.4303 N   0  0  0  0  0  0
  -31.8678  -14.7069   20.2203 O   0  0  0  0  0  0
  -21.6628   -6.8873   21.4230 O   0  0  0  0  0  0
  -22.3527  -14.5520   20.6664 O   0  0  0  0  0  0
  -24.6237  -31.8603   23.2032 C   0  0  0  0  0  0
  -25.9102  -32.4777   23.8356 C   0  0  1  0  0  0
  -27.2222  -27.3429   20.1225 C   0  0  0  0  0  0
  -25.5932  -33.8588   24.2280 N   0  0  0  0  0  0
  -23.4162  -30.4827   21.5457 C   0  0  2  0  0  0
  -24.8654  -28.9382   20.1118 C   0  0  0  0  0  0
  -22.7478  -29.4633   22.4974 C   0  0  0  0  0  0
  -18.0294  -28.1364   22.8473 C   0  0  0  0  0  0
  -24.1488  -36.7299   23.2632 C   0  0  0  0  0  0
  -25.9536  -30.7988   21.3692 C   0  0  0  0  0  0
  -26.0309  -29.4268   20.7162 C   0  0  0  0  0  0
  -27.2165  -28.6394   20.7149 C   0  0  0  0  0  0
  -26.0423  -26.8962   19.4945 C   0  0  0  0  0  0
  -24.8705  -27.6778   19.4906 C   0  0  0  0  0  0
  -23.6293  -29.8136   20.1613 C   0  0  0  0  0  0
  -25.4115  -36.3095   24.0319 C   0  0  1  0  0  0
  -20.5874  -28.3701   23.1320 C   0  0  2  0  0  0
  -20.6813  -26.9445   22.5426 C   0  0  0  0  0  0
  -19.5805  -26.6372   21.5226 C   0  0  0  0  0  0
  -18.1972  -26.7893   22.1617 C   0  0  0  0  0  0
  -19.1527  -28.8844   23.2885 C   0  0  0  0  0  0
  -18.9429  -30.1455   23.8886 C   0  0  0  0  0  0
  -17.6411  -30.6559   24.0541 C   0  0  0  0  0  0
  -25.9053  -34.9460   23.5100 C   0  0  0  0  0  0
  -16.5321  -29.9045   23.6277 C   0  0  0  0  0  0
  -16.7267  -28.6467   23.0299 C   0  0  0  0  0  0
  -26.4491  -31.6584   25.0719 C   0  0  0  0  0  0
  -25.3732  -31.3736   26.1450 C   0  0  0  0  0  0
  -27.0304  -30.3003   24.6142 C   0  0  0  0  0  0
  -27.6053  -32.4317   25.7479 C   0  0  0  0  0  0
  -27.5576  -37.1806   24.8460 C   0  0  0  0  0  0
  -21.4185  -29.3055   22.3729 N   0  0  0  0  0  0
  -26.4288  -37.3791   23.9407 N   0  0  0  0  0  0
  -24.6836  -31.0637   22.0963 N   0  0  0  0  0  0
  -23.4212  -28.8168   23.3034 O   0  0  0  0  0  0
  -28.3226  -26.4864   20.1519 O   0  0  0  0  0  0
  -26.5611  -34.8917   22.4661 O   0  0  0  0  0  0
  -23.5406  -32.1397   23.7374 O   0  0  0  0  0  0
  -28.0871  -20.1813   20.0906 C   0  0  0  0  0  0
  -28.4407  -18.8021   20.1225 C   0  0  0  0  0  0
  -29.8574  -20.5911   21.6402 C   0  0  0  0  0  0
  -28.7635  -21.1226   20.9117 C   0  0  0  0  0  0
  -29.5027  -18.3550   20.9458 C   0  0  0  0  0  0
  -26.6864  -22.4411   21.5257 C   0  0  0  0  0  0
  -29.8111  -16.2172   18.8394 C   0  0  0  0  0  0
  -29.8294  -16.8472   21.2658 C   0  0  0  0  0  0
  -28.4986  -23.8096   20.2798 C   0  0  0  0  0  0
  -28.1302  -25.2330   20.9010 C   0  0  0  0  0  0
  -28.1980  -22.5616   21.2275 C   0  0  2  0  0  0
  -30.2095  -19.2734   21.6537 N   0  0  0  0  0  0
  -29.8834  -15.7538   20.2354 N   0  0  0  0  0  0
  -31.4708  -12.4833   19.1515 H   0  0  0  0  0  0
  -30.3523  -11.3965   19.9379 H   0  0  0  0  0  0
  -29.7551  -11.6662   17.5099 H   0  0  0  0  0  0
  -29.6512  -13.3892   17.6891 H   0  0  0  0  0  0
  -27.8525  -11.2727   18.8944 H   0  0  0  0  0  0
  -27.3696  -12.5273   17.7904 H   0  0  0  0  0  0
  -27.6416  -14.2417   19.4704 H   0  0  0  0  0  0
  -28.7048  -12.1390   21.4283 H   0  0  0  0  0  0
  -28.4613  -13.8373   21.7729 H   0  0  0  0  0  0
  -25.2750   -9.5723   22.4748 H   0  0  0  0  0  0
  -24.0015   -7.4651   22.7465 H   0  0  0  0  0  0
  -21.0823   -8.8748   19.8942 H   0  0  0  0  0  0
  -22.3650  -10.9667   19.6173 H   0  0  0  0  0  0
  -21.1983   -7.6151   23.9721 H   0  0  0  0  0  0
  -21.1500   -6.0510   25.9083 H   0  0  0  0  0  0
  -22.0592   -2.7605   23.2811 H   0  0  0  0  0  0
  -22.4044  -11.9920   22.4857 H   0  0  0  0  0  0
  -21.1084  -13.1296   22.2605 H   0  0  0  0  0  0
  -24.6814  -15.8550   20.5835 H   0  0  0  0  0  0
  -26.3052  -15.6335   20.1672 H   0  0  0  0  0  0
  -26.7180  -32.5440   23.1118 H   0  0  0  0  0  0
  -25.0132  -33.9749   25.0455 H   0  0  0  0  0  0
  -22.7079  -31.3019   21.4029 H   0  0  0  0  0  0
  -23.3748  -35.9632   23.3293 H   0  0  0  0  0  0
  -24.3571  -36.8920   22.2043 H   0  0  0  0  0  0
  -23.7227  -37.6509   23.6637 H   0  0  0  0  0  0
  -26.0735  -31.5626   20.5985 H   0  0  0  0  0  0
  -26.8396  -30.8533   21.9910 H   0  0  0  0  0  0
  -28.1107  -29.0048   21.2001 H   0  0  0  0  0  0
  -26.0208  -25.9242   19.0210 H   0  0  0  0  0  0
  -23.9760  -27.3004   19.0136 H   0  0  0  0  0  0
  -23.7433  -30.5879   19.4014 H   0  0  0  0  0  0
  -22.7505  -29.2395   19.8616 H   0  0  0  0  0  0
  -25.1291  -36.1968   25.0808 H   0  0  0  0  0  0
  -20.9956  -28.3280   24.1446 H   0  0  0  0  0  0
  -20.5771  -26.2320   23.3620 H   0  0  0  0  0  0
  -21.6689  -26.7525   22.1195 H   0  0  0  0  0  0
  -19.7023  -25.6288   21.1254 H   0  0  0  0  0  0
  -19.6713  -27.3181   20.6755 H   0  0  0  0  0  0
  -17.4270  -26.6632   21.3985 H   0  0  0  0  0  0
  -18.0356  -26.0034   22.9008 H   0  0  0  0  0  0
  -19.7885  -30.7293   24.2259 H   0  0  0  0  0  0
  -17.4923  -31.6236   24.5146 H   0  0  0  0  0  0
  -15.5316  -30.2921   23.7569 H   0  0  0  0  0  0
  -15.8682  -28.0784   22.6972 H   0  0  0  0  0  0
  -24.5901  -30.7082   25.7794 H   0  0  0  0  0  0
  -24.8929  -32.2919   26.4841 H   0  0  0  0  0  0
  -25.8057  -30.8941   27.0240 H   0  0  0  0  0  0
  -26.2870  -29.6792   24.1129 H   0  0  0  0  0  0
  -27.3992  -29.7205   25.4620 H   0  0  0  0  0  0
  -27.8741  -30.4307   23.9358 H   0  0  0  0  0  0
  -27.2665  -33.3623   26.2051 H   0  0  0  0  0  0
  -28.3855  -32.6873   25.0294 H   0  0  0  0  0  0
  -28.0730  -31.8450   26.5406 H   0  0  0  0  0  0
  -28.2604  -38.0097   24.7515 H   0  0  0  0  0  0
  -28.1068  -36.2626   24.6288 H   0  0  0  0  0  0
  -27.2286  -37.1461   25.8864 H   0  0  0  0  0  0
  -20.9369  -29.8788   21.6952 H   0  0  0  0  0  0
  -26.0167  -38.2864   24.1428 H   0  0  0  0  0  0
  -27.2329  -20.4870   19.5040 H   0  0  0  0  0  0
  -27.8473  -18.0943   19.5623 H   0  0  0  0  0  0
  -30.4193  -21.2195   22.3157 H   0  0  0  0  0  0
  -26.5007  -21.6396   22.2430 H   0  0  0  0  0  0
  -26.1122  -22.2218   20.6244 H   0  0  0  0  0  0
  -26.2668  -23.3444   21.9644 H   0  0  0  0  0  0
  -28.7759  -16.3658   18.5324 H   0  0  0  0  0  0
  -30.2436  -15.5100   18.1293 H   0  0  0  0  0  0
  -30.3610  -17.1480   18.7002 H   0  0  0  0  0  0
  -29.0841  -16.5325   21.9958 H   0  0  0  0  0  0
  -30.7758  -16.8347   21.8110 H   0  0  0  0  0  0
  -29.5613  -23.8119   20.0367 H   0  0  0  0  0  0
  -27.9764  -23.6787   19.3311 H   0  0  0  0  0  0
  -28.7199  -25.3485   21.8112 H   0  0  0  0  0  0
  -27.1018  -25.1955   21.2542 H   0  0  0  0  0  0
  -28.6585  -22.8243   22.1803 H   0  0  0  0  0  0
  1 25  1  0  0  0
  1 30  2  0  0  0
  1 83  1  0  0  0
  2  3  1  0  0  0
  2 25  1  0  0  0
  2 84  1  0  0  0
  2 85  1  0  0  0
  3  4  1  0  0  0
  3 86  1  0  0  0
  3 87  1  0  0  0
  4  5  1  0  0  0
  4 88  1  0  0  0
  4 89  1  0  0  0
  5  6  1  0  0  0
  5 26  1  0  0  0
  5 90  1  0  0  0
  6 25  1  0  0  0
  6 91  1  0  0  0
  6 92  1  0  0  0
  7  8  2  0  0  0
  7 26  1  0  0  0
  7 29  1  0  0  0
  8  9  1  0  0  0
  8 22  1  0  0  0
  9 10  1  0  0  0
  9 27  2  0  0  0
 10 11  2  0  0  0
 10 15  1  0  0  0
 11 12  1  0  0  0
 11 93  1  0  0  0
 12 13  2  0  0  0
 12 94  1  0  0  0
 13 14  1  0  0  0
 13 31  1  0  0  0
 14 15  2  0  0  0
 14 95  1  0  0  0
 15 96  1  0  0  0
 16 17  2  0  0  0
 16 21  1  0  0  0
 16 31  1  0  0  0
 17 18  1  0  0  0
 17 97  1  0  0  0
 18 19  2  0  0  0
 18 98  1  0  0  0
 19 20  1  0  0  0
 19 24  1  0  0  0
 20 21  2  0  0  0
 20 99  1  0  0  0
 21 23  1  0  0  0
 22 28  1  0  0  0
 22 32  2  0  0  0
 26 27  1  0  0  0
 28100  1  0  0  0
 28101  1  0  0  0
 29102  1  0  0  0
 29103  1  0  0  0
 33 34  1  0  0  0
 33 66  1  0  0  0
 33 70  2  0  0  0
 34 36  1  0  0  0
 34 59  1  0  0  0
 34104  1  0  0  0
 35 44  2  0  0  0
 35 45  1  0  0  0
 35 68  1  0  0  0
 36 56  1  0  0  0
 36105  1  0  0  0
 37 39  1  0  0  0
 37 47  1  0  0  0
 37 66  1  0  0  0
 37106  1  0  0  0
 38 43  2  0  0  0
 38 46  1  0  0  0
 38 47  1  0  0  0
 39 64  1  0  0  0
 39 67  2  0  0  0
 40 52  1  0  0  0
 40 53  2  0  0  0
 40 58  1  0  0  0
 41107  1  0  0  0
 41108  1  0  0  0
 41109  1  0  0  0
 41 48  1  0  0  0
 42 43  1  0  0  0
 42 66  1  0  0  0
 42110  1  0  0  0
 42111  1  0  0  0
 43 44  1  0  0  0
 44112  1  0  0  0
 45 46  2  0  0  0
 45113  1  0  0  0
 46114  1  0  0  0
 47115  1  0  0  0
 47116  1  0  0  0
 48 56  1  0  0  0
 48 65  1  0  0  0
 48117  1  0  0  0
 49 50  1  0  0  0
 49 53  1  0  0  0
 49 64  1  0  0  0
 49118  1  0  0  0
 50 51  1  0  0  0
 50119  1  0  0  0
 50120  1  0  0  0
 51 52  1  0  0  0
 51121  1  0  0  0
 51122  1  0  0  0
 52123  1  0  0  0
 52124  1  0  0  0
 53 54  1  0  0  0
 54 55  2  0  0  0
 54125  1  0  0  0
 55 57  1  0  0  0
 55126  1  0  0  0
 56 69  2  0  0  0
 57 58  2  0  0  0
 57127  1  0  0  0
 58128  1  0  0  0
 59 60  1  0  0  0
 59 61  1  0  0  0
 59 62  1  0  0  0
 60129  1  0  0  0
 60130  1  0  0  0
 60131  1  0  0  0
 61132  1  0  0  0
 61133  1  0  0  0
 61134  1  0  0  0
 62135  1  0  0  0
 62136  1  0  0  0
 62137  1  0  0  0
 63 65  1  0  0  0
 63138  1  0  0  0
 63139  1  0  0  0
 63140  1  0  0  0
 64141  1  0  0  0
 65142  1  0  0  0
 68 80  1  0  0  0
 71 72  2  0  0  0
 71 74  1  0  0  0
 71143  1  0  0  0
 72 75  1  0  0  0
 72144  1  0  0  0
 73 74  2  0  0  0
 73 82  1  0  0  0
 73145  1  0  0  0
 74 81  1  0  0  0
 75 78  1  0  0  0
 75 82  2  0  0  0
 76146  1  0  0  0
 76147  1  0  0  0
 76148  1  0  0  0
 76 81  1  0  0  0
 77 83  1  0  0  0
 77149  1  0  0  0
 77150  1  0  0  0
 77151  1  0  0  0
 78 83  1  0  0  0
 78152  1  0  0  0
 78153  1  0  0  0
 79 80  1  0  0  0
 79 81  1  0  0  0
 79154  1  0  0  0
 79155  1  0  0  0
 80156  1  0  0  0
 80157  1  0  0  0
 81158  1  0  0  0
M  ISO  4   1 100  68 101  80 101  83 100
M  END
> <chiral flag>
0

> <version>
0

> <s_m_source_file>
/data/baiqing/PycharmProjects/Reinvent-master-3.2/result/LINK_invent/BTK/process_docking_weight1_custom_sum_contain_oxygen_bond_distance_aromatic_linkinvent_7_9_3/rearranged_h_0046.sdf

> <i_m_source_file_index>
63

> <r_mmod_Potential_Energy-OPLS-2005>
66.5627212524414

> <r_mmod_Stretch_Energy-OPLS-2005>
74.8332214355469

> <r_mmod_Bend_Energy-OPLS-2005>
142.95832824707

> <r_mmod_Torsional_Energy-OPLS-2005>
319.917236328125

> <r_mmod_Improper_Torsional_Energy-OPLS-2005>
19.502254486084

> <r_mmod_Van_der_Waal_Energy-OPLS-2005>
145.880813598633

> <r_mmod_Electrostatic_Energy-OPLS-2005>
-480.779449462891

> <r_mmod_Solvation_Energy-OPLS-2005>
-207.992370605469

> <b_mmod_Minimization_Converged-OPLS-2005>
0

> <r_mmod_RMS_Derivative-OPLS-2005>
2.51554203033447

$$$$
64
                    3D
 Structure written by MMmdl.
163171  0  0  1  0            999 V2000
  -30.6939  -14.4945   20.4243 C   0  0  0  0  0  0
  -30.4212  -12.2798   19.4258 C   0  0  0  0  0  0
  -29.4909  -12.4281   18.2018 C   0  0  0  0  0  0
  -28.0109  -12.3211   18.6181 C   0  0  0  0  0  0
  -27.6531  -13.1975   19.8488 C   0  0  2  0  0  0
  -28.7031  -13.0343   20.9701 C   0  0  0  0  0  0
  -25.2597  -13.8150   20.5665 C   0  0  0  0  0  0
  -24.1850  -13.0435   20.9188 C   0  0  0  0  0  0
  -24.6383  -11.6894   20.8750 C   0  0  0  0  0  0
  -23.9045  -10.4298   21.0423 C   0  0  0  0  0  0
  -24.3607   -9.4214   21.9194 C   0  0  0  0  0  0
  -23.6288   -8.2251   22.0762 C   0  0  0  0  0  0
  -22.4272   -8.0284   21.3550 C   0  0  0  0  0  0
  -21.9901   -9.0264   20.4656 C   0  0  0  0  0  0
  -22.7219  -10.2140   20.3063 C   0  0  0  0  0  0
  -21.6854   -6.0737   22.5280 C   0  0  0  0  0  0
  -21.4014   -6.5642   23.8211 C   0  0  0  0  0  0
  -21.3665   -5.6791   24.9179 C   0  0  0  0  0  0
  -21.6035   -4.3056   24.7223 C   0  0  0  0  0  0
  -21.8823   -3.8146   23.4351 C   0  0  0  0  0  0
  -21.9194   -4.6968   22.3401 C   0  0  0  0  0  0
  -22.7877  -13.5255   21.1849 C   0  0  0  0  0  0
  -22.1663   -4.2146   21.0983 F   0  0  0  0  0  0
  -21.5631   -3.4537   25.7745 F   0  0  0  0  0  0
  -30.0266  -13.3100   20.3950 N   0  0  0  0  0  0
  -26.3002  -12.9287   20.3294 N   0  0  0  0  0  0
  -25.9305  -11.6468   20.5767 N   0  0  0  0  0  0
  -22.0510  -12.8259   22.0396 N   0  0  0  0  0  0
  -25.4357  -15.1859   20.4081 N   0  0  0  0  0  0
  -31.9202  -14.5626   20.2884 O   0  0  0  0  0  0
  -21.6636   -6.8879   21.4239 O   0  0  0  0  0  0
  -22.3577  -14.5569   20.6695 O   0  0  0  0  0  0
  -24.6146  -31.8718   23.2109 C   0  0  0  0  0  0
  -25.9048  -32.4836   23.8401 C   0  0  1  0  0  0
  -27.2227  -27.4314   20.0822 C   0  0  0  0  0  0
  -25.5900  -33.8631   24.2341 N   0  0  0  0  0  0
  -23.4000  -30.4971   21.5541 C   0  0  2  0  0  0
  -24.8379  -28.9635   20.1110 C   0  0  0  0  0  0
  -22.7426  -29.4699   22.5029 C   0  0  0  0  0  0
  -18.0314  -28.1369   22.8501 C   0  0  0  0  0  0
  -24.1484  -36.7312   23.2639 C   0  0  0  0  0  0
  -25.9283  -30.8288   21.3651 C   0  0  0  0  0  0
  -25.9975  -29.4629   20.7148 C   0  0  0  0  0  0
  -27.1891  -28.7028   20.7013 C   0  0  0  0  0  0
  -26.0414  -26.9529   19.4680 C   0  0  0  0  0  0
  -24.8544  -27.7064   19.4875 C   0  0  0  0  0  0
  -23.6006  -29.8312   20.1668 C   0  0  0  0  0  0
  -25.4112  -36.3126   24.0347 C   0  0  1  0  0  0
  -20.5886  -28.3723   23.1379 C   0  0  2  0  0  0
  -20.6813  -26.9458   22.5507 C   0  0  0  0  0  0
  -19.5843  -26.6511   21.5221 C   0  0  0  0  0  0
  -18.2040  -26.7888   22.1698 C   0  0  0  0  0  0
  -19.1535  -28.8862   23.2917 C   0  0  0  0  0  0
  -18.9429  -30.1465   23.8907 C   0  0  0  0  0  0
  -17.6421  -30.6571   24.0565 C   0  0  0  0  0  0
  -25.9044  -34.9481   23.5158 C   0  0  0  0  0  0
  -16.5335  -29.9038   23.6318 C   0  0  0  0  0  0
  -16.7284  -28.6453   23.0355 C   0  0  0  0  0  0
  -26.4461  -31.6591   25.0725 C   0  0  0  0  0  0
  -25.3704  -31.3685   26.1463 C   0  0  0  0  0  0
  -27.0299  -30.3038   24.6082 C   0  0  0  0  0  0
  -27.6062  -32.4303   25.7444 C   0  0  0  0  0  0
  -27.5584  -37.1816   24.8471 C   0  0  0  0  0  0
  -21.4158  -29.3071   22.3761 N   0  0  0  0  0  0
  -26.4301  -37.3812   23.9409 N   0  0  0  0  0  0
  -24.6659  -31.0822   22.1004 N   0  0  0  0  0  0
  -23.4212  -28.8268   23.3086 O   0  0  0  0  0  0
  -28.4074  -26.7183   20.0984 O   0  0  0  0  0  0
  -26.5617  -34.8924   22.4725 O   0  0  0  0  0  0
  -23.5342  -32.1496   23.7498 O   0  0  0  0  0  0
  -28.9609  -16.3244   22.0964 C   0  0  0  0  0  0
  -28.1545  -17.2858   22.7274 C   0  0  0  0  0  0
  -29.2094  -16.4802   20.7187 C   0  0  0  0  0  0
  -27.9469  -18.4311   20.7688 C   0  0  0  0  0  0
  -27.7884  -17.1696   24.1916 C   0  0  0  0  0  0
  -30.2757  -15.9380   18.5599 C   0  0  0  0  0  0
  -27.3180  -19.5641   19.9636 C   0  0  0  0  0  0
  -27.7780  -20.9915   20.3471 C   0  0  0  0  0  0
  -27.3362  -22.0515   19.3101 C   0  0  0  0  0  0
  -26.7896  -23.3715   19.8979 C   0  0  0  0  0  0
  -27.8178  -24.3322   20.5463 C   0  0  0  0  0  0
  -28.4497  -25.3770   19.5874 C   0  0  0  0  0  0
  -27.6464  -18.3347   22.0568 N   0  0  0  0  0  0
  -28.6861  -17.5620   20.0939 N   0  0  0  0  0  0
  -29.9579  -15.5296   19.9436 N   0  0  0  0  0  0
  -31.4667  -12.3702   19.1215 H   0  0  0  0  0  0
  -30.3233  -11.2890   19.8701 H   0  0  0  0  0  0
  -29.7245  -11.6571   17.4666 H   0  0  0  0  0  0
  -29.6629  -13.3783   17.6986 H   0  0  0  0  0  0
  -27.8174  -11.2723   18.8461 H   0  0  0  0  0  0
  -27.3637  -12.5694   17.7768 H   0  0  0  0  0  0
  -27.6712  -14.2306   19.5058 H   0  0  0  0  0  0
  -28.6805  -12.0196   21.3701 H   0  0  0  0  0  0
  -28.4760  -13.6859   21.8098 H   0  0  0  0  0  0
  -25.2754   -9.5691   22.4765 H   0  0  0  0  0  0
  -24.0001   -7.4638   22.7478 H   0  0  0  0  0  0
  -21.0834   -8.8778   19.8960 H   0  0  0  0  0  0
  -22.3683  -10.9687   19.6176 H   0  0  0  0  0  0
  -21.2004   -7.6146   23.9714 H   0  0  0  0  0  0
  -21.1480   -6.0525   25.9078 H   0  0  0  0  0  0
  -22.0594   -2.7606   23.2851 H   0  0  0  0  0  0
  -22.4107  -11.9910   22.4776 H   0  0  0  0  0  0
  -21.1132  -13.1311   22.2594 H   0  0  0  0  0  0
  -24.6736  -15.8426   20.5299 H   0  0  0  0  0  0
  -26.2928  -15.6261   20.0992 H   0  0  0  0  0  0
  -26.7123  -32.5534   23.1160 H   0  0  0  0  0  0
  -25.0004  -33.9794   25.0449 H   0  0  0  0  0  0
  -22.6870  -31.3121   21.4245 H   0  0  0  0  0  0
  -23.3747  -35.9641   23.3323 H   0  0  0  0  0  0
  -24.3564  -36.8901   22.2042 H   0  0  0  0  0  0
  -23.7215  -37.6522   23.6629 H   0  0  0  0  0  0
  -26.0515  -31.5873   20.5903 H   0  0  0  0  0  0
  -26.8132  -30.8796   21.9848 H   0  0  0  0  0  0
  -28.0804  -29.0877   21.1731 H   0  0  0  0  0  0
  -26.0090  -26.0073   18.9543 H   0  0  0  0  0  0
  -23.9644  -27.3202   19.0072 H   0  0  0  0  0  0
  -23.7026  -30.6088   19.4097 H   0  0  0  0  0  0
  -22.7196  -29.2552   19.8751 H   0  0  0  0  0  0
  -25.1278  -36.2013   25.0842 H   0  0  0  0  0  0
  -20.9954  -28.3338   24.1510 H   0  0  0  0  0  0
  -20.5615  -26.2356   23.3716 H   0  0  0  0  0  0
  -21.6722  -26.7465   22.1422 H   0  0  0  0  0  0
  -19.7117  -25.6522   21.1063 H   0  0  0  0  0  0
  -19.6731  -27.3503   20.6906 H   0  0  0  0  0  0
  -17.4270  -26.6437   21.4176 H   0  0  0  0  0  0
  -18.0654  -26.0069   22.9184 H   0  0  0  0  0  0
  -19.7900  -30.7296   24.2290 H   0  0  0  0  0  0
  -17.4956  -31.6237   24.5188 H   0  0  0  0  0  0
  -15.5336  -30.2918   23.7654 H   0  0  0  0  0  0
  -15.8689  -28.0739   22.7088 H   0  0  0  0  0  0
  -24.5889  -30.7039   25.7760 H   0  0  0  0  0  0
  -24.8870  -32.2833   26.4904 H   0  0  0  0  0  0
  -25.8035  -30.8833   27.0216 H   0  0  0  0  0  0
  -26.2846  -29.6801   24.1139 H   0  0  0  0  0  0
  -27.4098  -29.7280   25.4525 H   0  0  0  0  0  0
  -27.8661  -30.4384   23.9218 H   0  0  0  0  0  0
  -27.2724  -33.3607   26.2040 H   0  0  0  0  0  0
  -28.3815  -32.6857   25.0212 H   0  0  0  0  0  0
  -28.0786  -31.8412   26.5310 H   0  0  0  0  0  0
  -28.2641  -38.0082   24.7524 H   0  0  0  0  0  0
  -28.1059  -36.2628   24.6309 H   0  0  0  0  0  0
  -27.2308  -37.1468   25.8877 H   0  0  0  0  0  0
  -20.9355  -29.8709   21.6882 H   0  0  0  0  0  0
  -26.0209  -38.2904   24.1390 H   0  0  0  0  0  0
  -29.3527  -15.4993   22.6745 H   0  0  0  0  0  0
  -28.6781  -16.9809   24.7930 H   0  0  0  0  0  0
  -27.0933  -16.3420   24.3374 H   0  0  0  0  0  0
  -27.3153  -18.0784   24.5658 H   0  0  0  0  0  0
  -29.3574  -15.9917   17.9728 H   0  0  0  0  0  0
  -30.9463  -15.2517   18.0368 H   0  0  0  0  0  0
  -30.7486  -16.9216   18.5396 H   0  0  0  0  0  0
  -27.5402  -19.3920   18.9094 H   0  0  0  0  0  0
  -26.2337  -19.4914   20.0514 H   0  0  0  0  0  0
  -28.8634  -21.0146   20.4504 H   0  0  0  0  0  0
  -27.3780  -21.2282   21.3343 H   0  0  0  0  0  0
  -26.5322  -21.6266   18.7092 H   0  0  0  0  0  0
  -28.1431  -22.2451   18.6002 H   0  0  0  0  0  0
  -26.0227  -23.1248   20.6328 H   0  0  0  0  0  0
  -26.2540  -23.8908   19.1069 H   0  0  0  0  0  0
  -28.5997  -23.7595   21.0437 H   0  0  0  0  0  0
  -27.3056  -24.8666   21.3477 H   0  0  0  0  0  0
  -29.5071  -25.1360   19.4689 H   0  0  0  0  0  0
  -28.0433  -25.3238   18.5765 H   0  0  0  0  0  0
  1 25  1  0  0  0
  1 30  2  0  0  0
  1 85  1  0  0  0
  2  3  1  0  0  0
  2 25  1  0  0  0
  2 86  1  0  0  0
  2 87  1  0  0  0
  3  4  1  0  0  0
  3 88  1  0  0  0
  3 89  1  0  0  0
  4  5  1  0  0  0
  4 90  1  0  0  0
  4 91  1  0  0  0
  5  6  1  0  0  0
  5 26  1  0  0  0
  5 92  1  0  0  0
  6 25  1  0  0  0
  6 93  1  0  0  0
  6 94  1  0  0  0
  7  8  2  0  0  0
  7 26  1  0  0  0
  7 29  1  0  0  0
  8  9  1  0  0  0
  8 22  1  0  0  0
  9 10  1  0  0  0
  9 27  2  0  0  0
 10 11  2  0  0  0
 10 15  1  0  0  0
 11 12  1  0  0  0
 11 95  1  0  0  0
 12 13  2  0  0  0
 12 96  1  0  0  0
 13 14  1  0  0  0
 13 31  1  0  0  0
 14 15  2  0  0  0
 14 97  1  0  0  0
 15 98  1  0  0  0
 16 17  2  0  0  0
 16 21  1  0  0  0
 16 31  1  0  0  0
 17 18  1  0  0  0
 17 99  1  0  0  0
 18 19  2  0  0  0
 18100  1  0  0  0
 19 20  1  0  0  0
 19 24  1  0  0  0
 20 21  2  0  0  0
 20101  1  0  0  0
 21 23  1  0  0  0
 22 28  1  0  0  0
 22 32  2  0  0  0
 26 27  1  0  0  0
 28102  1  0  0  0
 28103  1  0  0  0
 29104  1  0  0  0
 29105  1  0  0  0
 33 34  1  0  0  0
 33 66  1  0  0  0
 33 70  2  0  0  0
 34 36  1  0  0  0
 34 59  1  0  0  0
 34106  1  0  0  0
 35 44  2  0  0  0
 35 45  1  0  0  0
 35 68  1  0  0  0
 36 56  1  0  0  0
 36107  1  0  0  0
 37 39  1  0  0  0
 37 47  1  0  0  0
 37 66  1  0  0  0
 37108  1  0  0  0
 38 43  2  0  0  0
 38 46  1  0  0  0
 38 47  1  0  0  0
 39 64  1  0  0  0
 39 67  2  0  0  0
 40 52  1  0  0  0
 40 53  2  0  0  0
 40 58  1  0  0  0
 41109  1  0  0  0
 41110  1  0  0  0
 41111  1  0  0  0
 41 48  1  0  0  0
 42 43  1  0  0  0
 42 66  1  0  0  0
 42112  1  0  0  0
 42113  1  0  0  0
 43 44  1  0  0  0
 44114  1  0  0  0
 45 46  2  0  0  0
 45115  1  0  0  0
 46116  1  0  0  0
 47117  1  0  0  0
 47118  1  0  0  0
 48 56  1  0  0  0
 48 65  1  0  0  0
 48119  1  0  0  0
 49 50  1  0  0  0
 49 53  1  0  0  0
 49 64  1  0  0  0
 49120  1  0  0  0
 50 51  1  0  0  0
 50121  1  0  0  0
 50122  1  0  0  0
 51 52  1  0  0  0
 51123  1  0  0  0
 51124  1  0  0  0
 52125  1  0  0  0
 52126  1  0  0  0
 53 54  1  0  0  0
 54 55  2  0  0  0
 54127  1  0  0  0
 55 57  1  0  0  0
 55128  1  0  0  0
 56 69  2  0  0  0
 57 58  2  0  0  0
 57129  1  0  0  0
 58130  1  0  0  0
 59 60  1  0  0  0
 59 61  1  0  0  0
 59 62  1  0  0  0
 60131  1  0  0  0
 60132  1  0  0  0
 60133  1  0  0  0
 61134  1  0  0  0
 61135  1  0  0  0
 61136  1  0  0  0
 62137  1  0  0  0
 62138  1  0  0  0
 62139  1  0  0  0
 63 65  1  0  0  0
 63140  1  0  0  0
 63141  1  0  0  0
 63142  1  0  0  0
 64143  1  0  0  0
 65144  1  0  0  0
 68 82  1  0  0  0
 71 72  2  0  0  0
 71 73  1  0  0  0
 71145  1  0  0  0
 72 75  1  0  0  0
 72 83  1  0  0  0
 73 84  2  0  0  0
 73 85  1  0  0  0
 74 77  1  0  0  0
 74 83  2  0  0  0
 74 84  1  0  0  0
 75146  1  0  0  0
 75147  1  0  0  0
 75148  1  0  0  0
 76 85  1  0  0  0
 76149  1  0  0  0
 76150  1  0  0  0
 76151  1  0  0  0
 77 78  1  0  0  0
 77152  1  0  0  0
 77153  1  0  0  0
 78 79  1  0  0  0
 78154  1  0  0  0
 78155  1  0  0  0
 79 80  1  0  0  0
 79156  1  0  0  0
 79157  1  0  0  0
 80 81  1  0  0  0
 80158  1  0  0  0
 80159  1  0  0  0
 81 82  1  0  0  0
 81160  1  0  0  0
 81161  1  0  0  0
 82162  1  0  0  0
 82163  1  0  0  0
M  ISO  4   1 100  68 101  82 101  85 100
M  END
> <chiral flag>
0

> <version>
0

> <s_m_source_file>
/data/baiqing/PycharmProjects/Reinvent-master-3.2/result/LINK_invent/BTK/process_docking_weight1_custom_sum_contain_oxygen_bond_distance_aromatic_linkinvent_7_9_3/rearranged_h_0046.sdf

> <i_m_source_file_index>
64

> <r_mmod_Potential_Energy-OPLS-2005>
-231.793869018555

> <r_mmod_Stretch_Energy-OPLS-2005>
37.2604827880859

> <r_mmod_Bend_Energy-OPLS-2005>
118.493011474609

> <r_mmod_Torsional_Energy-OPLS-2005>
284.704559326172

> <r_mmod_Improper_Torsional_Energy-OPLS-2005>
24.7510395050049

> <r_mmod_Van_der_Waal_Energy-OPLS-2005>
163.911468505859

> <r_mmod_Electrostatic_Energy-OPLS-2005>
-689.682495117188

> <r_mmod_Solvation_Energy-OPLS-2005>
-200.939468383789

> <b_mmod_Minimization_Converged-OPLS-2005>
0

> <r_mmod_RMS_Derivative-OPLS-2005>
3.28756380081177

$$$$
65
                    3D
 Structure written by MMmdl.
173181  0  0  1  0            999 V2000
  -30.6804  -14.4900   20.5604 C   0  0  0  0  0  0
  -30.4288  -12.3162   19.4158 C   0  0  0  0  0  0
  -29.4907  -12.5152   18.2046 C   0  0  0  0  0  0
  -28.0123  -12.3766   18.6208 C   0  0  0  0  0  0
  -27.6646  -13.2082   19.8839 C   0  0  2  0  0  0
  -28.7117  -12.9790   20.9986 C   0  0  0  0  0  0
  -25.2597  -13.8168   20.5734 C   0  0  0  0  0  0
  -24.1857  -13.0439   20.9198 C   0  0  0  0  0  0
  -24.6415  -11.6915   20.8765 C   0  0  0  0  0  0
  -23.9094  -10.4293   21.0425 C   0  0  0  0  0  0
  -24.3629   -9.4208   21.9203 C   0  0  0  0  0  0
  -23.6299   -8.2247   22.0762 C   0  0  0  0  0  0
  -22.4284   -8.0293   21.3547 C   0  0  0  0  0  0
  -21.9926   -9.0271   20.4657 C   0  0  0  0  0  0
  -22.7261  -10.2146   20.3086 C   0  0  0  0  0  0
  -21.6858   -6.0762   22.5294 C   0  0  0  0  0  0
  -21.4003   -6.5654   23.8228 C   0  0  0  0  0  0
  -21.3649   -5.6808   24.9192 C   0  0  0  0  0  0
  -21.6045   -4.3075   24.7237 C   0  0  0  0  0  0
  -21.8806   -3.8164   23.4357 C   0  0  0  0  0  0
  -21.9184   -4.6989   22.3412 C   0  0  0  0  0  0
  -22.7867  -13.5229   21.1839 C   0  0  0  0  0  0
  -22.1667   -4.2174   21.1001 F   0  0  0  0  0  0
  -21.5628   -3.4557   25.7748 F   0  0  0  0  0  0
  -30.0389  -13.2953   20.4432 N   0  0  0  0  0  0
  -26.3059  -12.9347   20.3451 N   0  0  0  0  0  0
  -25.9345  -11.6502   20.5819 N   0  0  0  0  0  0
  -22.0504  -12.8226   22.0397 N   0  0  0  0  0  0
  -25.4270  -15.1892   20.4122 N   0  0  0  0  0  0
  -31.8022  -14.6992   20.0930 O   0  0  0  0  0  0
  -21.6641   -6.8900   21.4250 O   0  0  0  0  0  0
  -22.3569  -14.5545   20.6702 O   0  0  0  0  0  0
  -24.6158  -31.8672   23.2092 C   0  0  0  0  0  0
  -25.9047  -32.4814   23.8393 C   0  0  1  0  0  0
  -27.2377  -27.4212   20.0952 C   0  0  0  0  0  0
  -25.5901  -33.8614   24.2318 N   0  0  0  0  0  0
  -23.4040  -30.4902   21.5503 C   0  0  2  0  0  0
  -24.8499  -28.9554   20.1138 C   0  0  0  0  0  0
  -22.7413  -29.4652   22.4987 C   0  0  0  0  0  0
  -18.0267  -28.1372   22.8489 C   0  0  0  0  0  0
  -24.1488  -36.7305   23.2638 C   0  0  0  0  0  0
  -25.9345  -30.8265   21.3667 C   0  0  0  0  0  0
  -26.0101  -29.4616   20.7107 C   0  0  0  0  0  0
  -27.2037  -28.7023   20.6974 C   0  0  0  0  0  0
  -26.0539  -26.9335   19.4910 C   0  0  0  0  0  0
  -24.8672  -27.6911   19.5017 C   0  0  0  0  0  0
  -23.6124  -29.8230   20.1648 C   0  0  0  0  0  0
  -25.4112  -36.3105   24.0332 C   0  0  1  0  0  0
  -20.5860  -28.3658   23.1312 C   0  0  2  0  0  0
  -20.6760  -26.9393   22.5412 C   0  0  0  0  0  0
  -19.5740  -26.6380   21.5206 C   0  0  0  0  0  0
  -18.1916  -26.7917   22.1619 C   0  0  0  0  0  0
  -19.1519  -28.8832   23.2897 C   0  0  0  0  0  0
  -18.9448  -30.1442   23.8904 C   0  0  0  0  0  0
  -17.6452  -30.6581   24.0561 C   0  0  0  0  0  0
  -25.9042  -34.9470   23.5121 C   0  0  0  0  0  0
  -16.5342  -29.9081   23.6329 C   0  0  0  0  0  0
  -16.7257  -28.6497   23.0349 C   0  0  0  0  0  0
  -26.4469  -31.6599   25.0730 C   0  0  0  0  0  0
  -25.3730  -31.3698   26.1472 C   0  0  0  0  0  0
  -27.0317  -30.3044   24.6122 C   0  0  0  0  0  0
  -27.6040  -32.4328   25.7493 C   0  0  0  0  0  0
  -27.5578  -37.1810   24.8463 C   0  0  0  0  0  0
  -21.4141  -29.3027   22.3722 N   0  0  0  0  0  0
  -26.4294  -37.3795   23.9406 N   0  0  0  0  0  0
  -24.6692  -31.0768   22.0993 N   0  0  0  0  0  0
  -23.4184  -28.8193   23.3031 O   0  0  0  0  0  0
  -28.4170  -26.6948   20.1289 O   0  0  0  0  0  0
  -26.5605  -34.8922   22.4685 O   0  0  0  0  0  0
  -23.5349  -32.1423   23.7487 O   0  0  0  0  0  0
  -28.5736  -21.4365   19.3276 C   0  0  0  0  0  0
  -29.8448  -21.9895   19.5521 C   0  0  0  0  0  0
  -28.3652  -20.0472   19.4730 C   0  0  0  0  0  0
  -30.8539  -21.1163   20.0269 C   0  0  0  0  0  0
  -29.4475  -19.2333   19.9196 C   0  0  0  0  0  0
  -33.2150  -21.3689   19.1292 C   0  0  0  0  0  0
  -27.8106  -19.2708   16.6116 C   0  0  0  0  0  0
  -25.3461  -19.1058   17.1464 C   0  0  0  0  0  0
  -30.1228  -23.4345   19.1012 C   0  0  0  0  0  0
  -26.9970  -19.5138   19.0429 C   0  0  0  0  0  0
  -32.2700  -21.5900   20.3189 C   0  0  0  0  0  0
  -29.3965  -17.6837   19.9485 C   0  0  0  0  0  0
  -29.7207  -24.5957   20.0490 C   0  0  0  0  0  0
  -30.2165  -16.9444   21.0483 C   0  0  0  0  0  0
  -28.4059  -25.3274   19.6796 C   0  0  0  0  0  0
  -26.6832  -19.7492   17.5433 C   0  0  0  0  0  0
  -30.6539  -19.7845   20.1917 N   0  0  0  0  0  0
  -29.9370  -15.4893   21.0774 N   0  0  0  0  0  0
  -31.4714  -12.4237   19.1106 H   0  0  0  0  0  0
  -30.3388  -11.3029   19.8108 H   0  0  0  0  0  0
  -29.7231  -11.7963   17.4176 H   0  0  0  0  0  0
  -29.6563  -13.5035   17.7714 H   0  0  0  0  0  0
  -27.8157  -11.3209   18.8087 H   0  0  0  0  0  0
  -27.3607  -12.6650   17.7947 H   0  0  0  0  0  0
  -27.7074  -14.2571   19.5914 H   0  0  0  0  0  0
  -28.6937  -11.9379   21.3266 H   0  0  0  0  0  0
  -28.4782  -13.5687   21.8859 H   0  0  0  0  0  0
  -25.2758   -9.5701   22.4806 H   0  0  0  0  0  0
  -24.0001   -7.4647   22.7485 H   0  0  0  0  0  0
  -21.0862   -8.8812   19.8958 H   0  0  0  0  0  0
  -22.3718  -10.9710   19.6230 H   0  0  0  0  0  0
  -21.1993   -7.6157   23.9741 H   0  0  0  0  0  0
  -21.1478   -6.0546   25.9103 H   0  0  0  0  0  0
  -22.0583   -2.7625   23.2861 H   0  0  0  0  0  0
  -22.4094  -11.9861   22.4743 H   0  0  0  0  0  0
  -21.1148  -13.1305   22.2646 H   0  0  0  0  0  0
  -24.6464  -15.8301   20.5055 H   0  0  0  0  0  0
  -26.2674  -15.6317   20.0648 H   0  0  0  0  0  0
  -26.7117  -32.5523   23.1155 H   0  0  0  0  0  0
  -25.0058  -33.9776   25.0466 H   0  0  0  0  0  0
  -22.6928  -31.3073   21.4119 H   0  0  0  0  0  0
  -23.3750  -35.9640   23.3312 H   0  0  0  0  0  0
  -24.3575  -36.8911   22.2051 H   0  0  0  0  0  0
  -23.7239  -37.6510   23.6648 H   0  0  0  0  0  0
  -26.0556  -31.5943   20.6014 H   0  0  0  0  0  0
  -26.8188  -30.8743   21.9897 H   0  0  0  0  0  0
  -28.0999  -29.0914   21.1599 H   0  0  0  0  0  0
  -26.0220  -25.9689   19.0065 H   0  0  0  0  0  0
  -23.9741  -27.2959   19.0377 H   0  0  0  0  0  0
  -23.7207  -30.5989   19.4061 H   0  0  0  0  0  0
  -22.7367  -29.2428   19.8688 H   0  0  0  0  0  0
  -25.1293  -36.1966   25.0824 H   0  0  0  0  0  0
  -20.9944  -28.3220   24.1437 H   0  0  0  0  0  0
  -20.5666  -26.2261   23.3598 H   0  0  0  0  0  0
  -21.6634  -26.7439   22.1204 H   0  0  0  0  0  0
  -19.6903  -25.6295   21.1230 H   0  0  0  0  0  0
  -19.6683  -27.3204   20.6748 H   0  0  0  0  0  0
  -17.4186  -26.6662   21.4018 H   0  0  0  0  0  0
  -18.0321  -26.0057   22.9013 H   0  0  0  0  0  0
  -19.7926  -30.7253   24.2277 H   0  0  0  0  0  0
  -17.5008  -31.6264   24.5157 H   0  0  0  0  0  0
  -15.5345  -30.2987   23.7653 H   0  0  0  0  0  0
  -15.8652  -28.0825   22.7058 H   0  0  0  0  0  0
  -24.5893  -30.7062   25.7790 H   0  0  0  0  0  0
  -24.8938  -32.2858   26.4947 H   0  0  0  0  0  0
  -25.8084  -30.8834   27.0210 H   0  0  0  0  0  0
  -26.2876  -29.6796   24.1166 H   0  0  0  0  0  0
  -27.4070  -29.7288   25.4591 H   0  0  0  0  0  0
  -27.8715  -30.4362   23.9294 H   0  0  0  0  0  0
  -27.2644  -33.3611   26.2099 H   0  0  0  0  0  0
  -28.3833  -32.6914   25.0311 H   0  0  0  0  0  0
  -28.0723  -31.8436   26.5385 H   0  0  0  0  0  0
  -28.2600  -38.0105   24.7520 H   0  0  0  0  0  0
  -28.1072  -36.2638   24.6287 H   0  0  0  0  0  0
  -27.2293  -37.1458   25.8865 H   0  0  0  0  0  0
  -20.9295  -29.8751   21.6946 H   0  0  0  0  0  0
  -26.0179  -38.2869   24.1411 H   0  0  0  0  0  0
  -27.7799  -22.0658   18.9513 H   0  0  0  0  0  0
  -34.2155  -21.7364   19.3550 H   0  0  0  0  0  0
  -32.8612  -21.8882   18.2387 H   0  0  0  0  0  0
  -33.2925  -20.3096   18.8834 H   0  0  0  0  0  0
  -27.5524  -19.4312   15.5641 H   0  0  0  0  0  0
  -28.0091  -18.2076   16.7453 H   0  0  0  0  0  0
  -28.7416  -19.8087   16.7924 H   0  0  0  0  0  0
  -25.0918  -19.3340   16.1107 H   0  0  0  0  0  0
  -24.5290  -19.4724   17.7690 H   0  0  0  0  0  0
  -25.3831  -18.0205   17.2483 H   0  0  0  0  0  0
  -29.6456  -23.5761   18.1312 H   0  0  0  0  0  0
  -31.1820  -23.5344   18.8660 H   0  0  0  0  0  0
  -26.2400  -20.0137   19.6491 H   0  0  0  0  0  0
  -26.8715  -18.4590   19.2658 H   0  0  0  0  0  0
  -32.6533  -21.0470   21.1841 H   0  0  0  0  0  0
  -32.2655  -22.6381   20.6193 H   0  0  0  0  0  0
  -29.7029  -17.3253   18.9655 H   0  0  0  0  0  0
  -28.3720  -17.3526   20.0866 H   0  0  0  0  0  0
  -30.5120  -25.3419   19.9614 H   0  0  0  0  0  0
  -29.7282  -24.2837   21.0941 H   0  0  0  0  0  0
  -29.9585  -17.3581   22.0242 H   0  0  0  0  0  0
  -31.2834  -17.1294   20.9124 H   0  0  0  0  0  0
  -27.5726  -24.7727   20.1139 H   0  0  0  0  0  0
  -28.2707  -25.3306   18.5971 H   0  0  0  0  0  0
  -26.5736  -20.8232   17.3832 H   0  0  0  0  0  0
  -29.0375  -15.2108   21.4417 H   0  0  0  0  0  0
  1 25  1  0  0  0
  1 30  2  0  0  0
  1 88  1  0  0  0
  2  3  1  0  0  0
  2 25  1  0  0  0
  2 89  1  0  0  0
  2 90  1  0  0  0
  3  4  1  0  0  0
  3 91  1  0  0  0
  3 92  1  0  0  0
  4  5  1  0  0  0
  4 93  1  0  0  0
  4 94  1  0  0  0
  5  6  1  0  0  0
  5 26  1  0  0  0
  5 95  1  0  0  0
  6 25  1  0  0  0
  6 96  1  0  0  0
  6 97  1  0  0  0
  7  8  2  0  0  0
  7 26  1  0  0  0
  7 29  1  0  0  0
  8  9  1  0  0  0
  8 22  1  0  0  0
  9 10  1  0  0  0
  9 27  2  0  0  0
 10 11  2  0  0  0
 10 15  1  0  0  0
 11 12  1  0  0  0
 11 98  1  0  0  0
 12 13  2  0  0  0
 12 99  1  0  0  0
 13 14  1  0  0  0
 13 31  1  0  0  0
 14 15  2  0  0  0
 14100  1  0  0  0
 15101  1  0  0  0
 16 17  2  0  0  0
 16 21  1  0  0  0
 16 31  1  0  0  0
 17 18  1  0  0  0
 17102  1  0  0  0
 18 19  2  0  0  0
 18103  1  0  0  0
 19 20  1  0  0  0
 19 24  1  0  0  0
 20 21  2  0  0  0
 20104  1  0  0  0
 21 23  1  0  0  0
 22 28  1  0  0  0
 22 32  2  0  0  0
 26 27  1  0  0  0
 28105  1  0  0  0
 28106  1  0  0  0
 29107  1  0  0  0
 29108  1  0  0  0
 33 34  1  0  0  0
 33 66  1  0  0  0
 33 70  2  0  0  0
 34 36  1  0  0  0
 34 59  1  0  0  0
 34109  1  0  0  0
 35 44  2  0  0  0
 35 45  1  0  0  0
 35 68  1  0  0  0
 36 56  1  0  0  0
 36110  1  0  0  0
 37 39  1  0  0  0
 37 47  1  0  0  0
 37 66  1  0  0  0
 37111  1  0  0  0
 38 43  2  0  0  0
 38 46  1  0  0  0
 38 47  1  0  0  0
 39 64  1  0  0  0
 39 67  2  0  0  0
 40 52  1  0  0  0
 40 53  2  0  0  0
 40 58  1  0  0  0
 41112  1  0  0  0
 41113  1  0  0  0
 41114  1  0  0  0
 41 48  1  0  0  0
 42 43  1  0  0  0
 42 66  1  0  0  0
 42115  1  0  0  0
 42116  1  0  0  0
 43 44  1  0  0  0
 44117  1  0  0  0
 45 46  2  0  0  0
 45118  1  0  0  0
 46119  1  0  0  0
 47120  1  0  0  0
 47121  1  0  0  0
 48 56  1  0  0  0
 48 65  1  0  0  0
 48122  1  0  0  0
 49 50  1  0  0  0
 49 53  1  0  0  0
 49 64  1  0  0  0
 49123  1  0  0  0
 50 51  1  0  0  0
 50124  1  0  0  0
 50125  1  0  0  0
 51 52  1  0  0  0
 51126  1  0  0  0
 51127  1  0  0  0
 52128  1  0  0  0
 52129  1  0  0  0
 53 54  1  0  0  0
 54 55  2  0  0  0
 54130  1  0  0  0
 55 57  1  0  0  0
 55131  1  0  0  0
 56 69  2  0  0  0
 57 58  2  0  0  0
 57132  1  0  0  0
 58133  1  0  0  0
 59 60  1  0  0  0
 59 61  1  0  0  0
 59 62  1  0  0  0
 60134  1  0  0  0
 60135  1  0  0  0
 60136  1  0  0  0
 61137  1  0  0  0
 61138  1  0  0  0
 61139  1  0  0  0
 62140  1  0  0  0
 62141  1  0  0  0
 62142  1  0  0  0
 63 65  1  0  0  0
 63143  1  0  0  0
 63144  1  0  0  0
 63145  1  0  0  0
 64146  1  0  0  0
 65147  1  0  0  0
 68 85  1  0  0  0
 71 72  2  0  0  0
 71 73  1  0  0  0
 71148  1  0  0  0
 72 74  1  0  0  0
 72 79  1  0  0  0
 73 75  2  0  0  0
 73 80  1  0  0  0
 74 81  1  0  0  0
 74 87  2  0  0  0
 75 82  1  0  0  0
 75 87  1  0  0  0
 76 81  1  0  0  0
 76149  1  0  0  0
 76150  1  0  0  0
 76151  1  0  0  0
 77152  1  0  0  0
 77153  1  0  0  0
 77154  1  0  0  0
 77 86  1  0  0  0
 78 86  1  0  0  0
 78155  1  0  0  0
 78156  1  0  0  0
 78157  1  0  0  0
 79 83  1  0  0  0
 79158  1  0  0  0
 79159  1  0  0  0
 80 86  1  0  0  0
 80160  1  0  0  0
 80161  1  0  0  0
 81162  1  0  0  0
 81163  1  0  0  0
 82 84  1  0  0  0
 82164  1  0  0  0
 82165  1  0  0  0
 83 85  1  0  0  0
 83166  1  0  0  0
 83167  1  0  0  0
 84 88  1  0  0  0
 84168  1  0  0  0
 84169  1  0  0  0
 85170  1  0  0  0
 85171  1  0  0  0
 86172  1  0  0  0
 88173  1  0  0  0
M  ISO  4   1 100  68 101  85 101  88 100
M  END
> <chiral flag>
0

> <version>
0

> <s_m_source_file>
/data/baiqing/PycharmProjects/Reinvent-master-3.2/result/LINK_invent/BTK/process_docking_weight1_custom_sum_contain_oxygen_bond_distance_aromatic_linkinvent_7_9_3/rearranged_h_0046.sdf

> <i_m_source_file_index>
65

> <r_mmod_Potential_Energy-OPLS-2005>
-209.681167602539

> <r_mmod_Stretch_Energy-OPLS-2005>
43.6990432739258

> <r_mmod_Bend_Energy-OPLS-2005>
113.930847167969

> <r_mmod_Torsional_Energy-OPLS-2005>
203.389114379883

> <r_mmod_Improper_Torsional_Energy-OPLS-2005>
5.67046785354614

> <r_mmod_Van_der_Waal_Energy-OPLS-2005>
152.044525146484

> <r_mmod_Electrostatic_Energy-OPLS-2005>
-523.697082519531

> <r_mmod_Solvation_Energy-OPLS-2005>
-219.110595703125

> <b_mmod_Minimization_Converged-OPLS-2005>
0

> <r_mmod_RMS_Derivative-OPLS-2005>
1.9930773973465

$$$$
66
                    3D
 Structure written by MMmdl.
157165  0  0  1  0            999 V2000
  -30.5904  -14.9238   20.4025 C   0  0  0  0  0  0
  -30.4351  -12.5710   19.4925 C   0  0  0  0  0  0
  -29.5306  -12.5332   18.2425 C   0  0  0  0  0  0
  -28.0508  -12.3682   18.6369 C   0  0  0  0  0  0
  -27.6354  -13.2666   19.8355 C   0  0  2  0  0  0
  -28.6831  -13.2914   20.9703 C   0  0  0  0  0  0
  -25.2493  -13.8233   20.5701 C   0  0  0  0  0  0
  -24.1836  -13.0443   20.9275 C   0  0  0  0  0  0
  -24.6459  -11.6940   20.8766 C   0  0  0  0  0  0
  -23.9114  -10.4307   21.0404 C   0  0  0  0  0  0
  -24.3640   -9.4232   21.9191 C   0  0  0  0  0  0
  -23.6321   -8.2269   22.0766 C   0  0  0  0  0  0
  -22.4297   -8.0311   21.3559 C   0  0  0  0  0  0
  -21.9949   -9.0266   20.4653 C   0  0  0  0  0  0
  -22.7277  -10.2149   20.3050 C   0  0  0  0  0  0
  -21.6866   -6.0744   22.5277 C   0  0  0  0  0  0
  -21.4008   -6.5643   23.8203 C   0  0  0  0  0  0
  -21.3669   -5.6793   24.9168 C   0  0  0  0  0  0
  -21.6070   -4.3059   24.7215 C   0  0  0  0  0  0
  -21.8812   -3.8150   23.4334 C   0  0  0  0  0  0
  -21.9186   -4.6973   22.3391 C   0  0  0  0  0  0
  -22.7848  -13.5211   21.1881 C   0  0  0  0  0  0
  -22.1653   -4.2159   21.0981 F   0  0  0  0  0  0
  -21.5649   -3.4542   25.7728 F   0  0  0  0  0  0
  -29.9605  -13.6834   20.3642 N   0  0  0  0  0  0
  -26.2946  -12.9506   20.3202 N   0  0  0  0  0  0
  -25.9407  -11.6609   20.5709 N   0  0  0  0  0  0
  -22.0416  -12.8230   22.0402 N   0  0  0  0  0  0
  -25.4109  -15.1973   20.4101 N   0  0  0  0  0  0
  -31.7966  -14.9497   20.1394 O   0  0  0  0  0  0
  -21.6675   -6.8900   21.4243 O   0  0  0  0  0  0
  -22.3560  -14.5501   20.6691 O   0  0  0  0  0  0
  -24.6336  -31.8544   23.1970 C   0  0  0  0  0  0
  -25.9128  -32.4771   23.8336 C   0  0  1  0  0  0
  -27.2140  -27.1950   20.1482 C   0  0  0  0  0  0
  -25.5915  -33.8578   24.2258 N   0  0  0  0  0  0
  -23.4380  -30.4726   21.5421 C   0  0  2  0  0  0
  -24.8868  -28.9060   20.1169 C   0  0  0  0  0  0
  -22.7542  -29.4594   22.4924 C   0  0  0  0  0  0
  -18.0301  -28.1391   22.8497 C   0  0  0  0  0  0
  -24.1496  -36.7266   23.2649 C   0  0  0  0  0  0
  -25.9877  -30.7473   21.3875 C   0  0  0  0  0  0
  -26.0629  -29.3631   20.7263 C   0  0  0  0  0  0
  -27.2320  -28.5245   20.7209 C   0  0  0  0  0  0
  -26.0143  -26.8196   19.5120 C   0  0  0  0  0  0
  -24.8713  -27.6478   19.4969 C   0  0  0  0  0  0
  -23.6634  -29.8060   20.1598 C   0  0  0  0  0  0
  -25.4140  -36.3094   24.0327 C   0  0  1  0  0  0
  -20.5908  -28.3709   23.1276 C   0  0  2  0  0  0
  -20.6783  -26.9420   22.5413 C   0  0  0  0  0  0
  -19.5743  -26.6380   21.5229 C   0  0  0  0  0  0
  -18.1928  -26.7946   22.1640 C   0  0  0  0  0  0
  -19.1554  -28.8875   23.2880 C   0  0  0  0  0  0
  -18.9468  -30.1471   23.8889 C   0  0  0  0  0  0
  -17.6454  -30.6588   24.0566 C   0  0  0  0  0  0
  -25.9058  -34.9451   23.5101 C   0  0  0  0  0  0
  -16.5351  -29.9062   23.6332 C   0  0  0  0  0  0
  -16.7286  -28.6490   23.0361 C   0  0  0  0  0  0
  -26.4451  -31.6629   25.0754 C   0  0  0  0  0  0
  -25.3610  -31.3787   26.1423 C   0  0  0  0  0  0
  -27.0294  -30.3057   24.6255 C   0  0  0  0  0  0
  -27.6005  -32.4385   25.7500 C   0  0  0  0  0  0
  -27.5599  -37.1805   24.8461 C   0  0  0  0  0  0
  -21.4252  -29.3040   22.3662 N   0  0  0  0  0  0
  -26.4313  -37.3794   23.9401 N   0  0  0  0  0  0
  -24.7065  -31.0441   22.0981 N   0  0  0  0  0  0
  -23.4208  -28.8136   23.3047 O   0  0  0  0  0  0
  -28.2930  -26.2599   20.1537 O   0  0  0  0  0  0
  -26.5637  -34.8911   22.4671 O   0  0  0  0  0  0
  -23.5478  -32.1376   23.7225 O   0  0  0  0  0  0
  -28.4916  -19.5987   19.8572 C   0  0  0  0  0  0
  -30.2595  -21.4669   20.6640 C   0  0  0  0  0  0
  -29.0201  -21.9542   20.1254 C   0  0  0  0  0  0
  -29.7524  -19.1066   20.3562 C   0  0  0  0  0  0
  -27.4431  -18.6385   19.3401 C   0  0  0  0  0  0
  -32.4043  -22.6864   20.0051 C   0  0  0  0  0  0
  -31.3386  -22.4539   21.0893 C   0  0  0  0  0  0
  -28.7672  -23.5110   19.6594 C   0  0  0  0  0  0
  -30.4204  -17.5940   20.2502 C   0  0  0  0  0  0
  -28.0937  -24.7707   20.5028 C   0  0  0  0  0  0
  -28.1479  -20.9519   19.7526 N   0  0  0  0  0  0
  -30.5940  -20.1177   20.7719 N   0  0  0  0  0  0
  -29.8733  -16.1436   20.5003 N   0  0  0  0  0  0
  -31.4723  -12.7069   19.1837 H   0  0  0  0  0  0
  -30.4021  -11.6176   20.0244 H   0  0  0  0  0  0
  -29.8354  -11.7233   17.5756 H   0  0  0  0  0  0
  -29.6671  -13.4556   17.6763 H   0  0  0  0  0  0
  -27.8899  -11.3194   18.8820 H   0  0  0  0  0  0
  -27.4098  -12.5750   17.7772 H   0  0  0  0  0  0
  -27.5950  -14.2819   19.4390 H   0  0  0  0  0  0
  -28.7696  -12.3214   21.4617 H   0  0  0  0  0  0
  -28.4014  -14.0150   21.7381 H   0  0  0  0  0  0
  -25.2736   -9.5759   22.4814 H   0  0  0  0  0  0
  -24.0025   -7.4680   22.7494 H   0  0  0  0  0  0
  -21.0865   -8.8775   19.8966 H   0  0  0  0  0  0
  -22.3676  -10.9703   19.6209 H   0  0  0  0  0  0
  -21.1984   -7.6152   23.9708 H   0  0  0  0  0  0
  -21.1516   -6.0531   25.9077 H   0  0  0  0  0  0
  -22.0584   -2.7617   23.2821 H   0  0  0  0  0  0
  -22.3901  -11.9896   22.4887 H   0  0  0  0  0  0
  -21.1034  -13.1338   22.2466 H   0  0  0  0  0  0
  -24.6378  -15.8425   20.5336 H   0  0  0  0  0  0
  -26.2209  -15.6287   19.9874 H   0  0  0  0  0  0
  -26.7192  -32.5403   23.1074 H   0  0  0  0  0  0
  -25.0023  -33.9720   25.0383 H   0  0  0  0  0  0
  -22.7310  -31.2917   21.3910 H   0  0  0  0  0  0
  -23.3803  -35.9544   23.3297 H   0  0  0  0  0  0
  -24.3606  -36.8911   22.2065 H   0  0  0  0  0  0
  -23.7158  -37.6429   23.6673 H   0  0  0  0  0  0
  -26.1355  -31.5138   20.6265 H   0  0  0  0  0  0
  -26.8603  -30.7954   22.0277 H   0  0  0  0  0  0
  -28.1326  -28.8787   21.2055 H   0  0  0  0  0  0
  -25.9426  -25.8551   19.0324 H   0  0  0  0  0  0
  -23.9708  -27.2957   19.0151 H   0  0  0  0  0  0
  -23.7994  -30.5832   19.4049 H   0  0  0  0  0  0
  -22.7802  -29.2447   19.8513 H   0  0  0  0  0  0
  -25.1340  -36.1967   25.0820 H   0  0  0  0  0  0
  -20.9991  -28.3266   24.1409 H   0  0  0  0  0  0
  -20.5736  -26.2301   23.3615 H   0  0  0  0  0  0
  -21.6633  -26.7459   22.1160 H   0  0  0  0  0  0
  -19.6892  -25.6291   21.1264 H   0  0  0  0  0  0
  -19.6683  -27.3188   20.6758 H   0  0  0  0  0  0
  -17.4215  -26.6729   21.4020 H   0  0  0  0  0  0
  -18.0295  -26.0087   22.9027 H   0  0  0  0  0  0
  -19.7922  -30.7318   24.2240 H   0  0  0  0  0  0
  -17.4986  -31.6275   24.5141 H   0  0  0  0  0  0
  -15.5340  -30.2949   23.7669 H   0  0  0  0  0  0
  -15.8693  -28.0799   22.7064 H   0  0  0  0  0  0
  -24.5736  -30.7246   25.7677 H   0  0  0  0  0  0
  -24.8829  -32.2949   26.4893 H   0  0  0  0  0  0
  -25.7817  -30.8857   27.0187 H   0  0  0  0  0  0
  -26.2887  -29.6838   24.1220 H   0  0  0  0  0  0
  -27.3914  -29.7314   25.4790 H   0  0  0  0  0  0
  -27.8788  -30.4384   23.9555 H   0  0  0  0  0  0
  -27.2620  -33.3675   26.2095 H   0  0  0  0  0  0
  -28.3744  -32.6991   25.0271 H   0  0  0  0  0  0
  -28.0730  -31.8513   26.5377 H   0  0  0  0  0  0
  -28.2608  -38.0124   24.7580 H   0  0  0  0  0  0
  -28.1111  -36.2656   24.6228 H   0  0  0  0  0  0
  -27.2314  -37.1371   25.8864 H   0  0  0  0  0  0
  -20.9456  -29.8738   21.6841 H   0  0  0  0  0  0
  -26.0213  -38.2876   24.1413 H   0  0  0  0  0  0
  -27.7066  -18.2830   18.3444 H   0  0  0  0  0  0
  -26.4702  -19.1246   19.2752 H   0  0  0  0  0  0
  -27.3479  -17.7838   20.0085 H   0  0  0  0  0  0
  -33.0606  -23.5137   20.2824 H   0  0  0  0  0  0
  -31.9502  -22.9286   19.0437 H   0  0  0  0  0  0
  -33.0247  -21.8009   19.8620 H   0  0  0  0  0  0
  -31.8092  -22.1014   22.0090 H   0  0  0  0  0  0
  -30.8736  -23.4048   21.3519 H   0  0  0  0  0  0
  -28.1797  -23.4401   18.7437 H   0  0  0  0  0  0
  -29.7391  -23.8580   19.3141 H   0  0  0  0  0  0
  -31.3187  -17.6542   20.8687 H   0  0  0  0  0  0
  -30.8035  -17.5603   19.2292 H   0  0  0  0  0  0
  -28.4671  -24.6882   21.5229 H   0  0  0  0  0  0
  -27.0268  -24.5705   20.6039 H   0  0  0  0  0  0
  -28.8819  -16.0714   20.6664 H   0  0  0  0  0  0
  1 25  1  0  0  0
  1 30  2  0  0  0
  1 83  1  0  0  0
  2  3  1  0  0  0
  2 25  1  0  0  0
  2 84  1  0  0  0
  2 85  1  0  0  0
  3  4  1  0  0  0
  3 86  1  0  0  0
  3 87  1  0  0  0
  4  5  1  0  0  0
  4 88  1  0  0  0
  4 89  1  0  0  0
  5  6  1  0  0  0
  5 26  1  0  0  0
  5 90  1  0  0  0
  6 25  1  0  0  0
  6 91  1  0  0  0
  6 92  1  0  0  0
  7  8  2  0  0  0
  7 26  1  0  0  0
  7 29  1  0  0  0
  8  9  1  0  0  0
  8 22  1  0  0  0
  9 10  1  0  0  0
  9 27  2  0  0  0
 10 11  2  0  0  0
 10 15  1  0  0  0
 11 12  1  0  0  0
 11 93  1  0  0  0
 12 13  2  0  0  0
 12 94  1  0  0  0
 13 14  1  0  0  0
 13 31  1  0  0  0
 14 15  2  0  0  0
 14 95  1  0  0  0
 15 96  1  0  0  0
 16 17  2  0  0  0
 16 21  1  0  0  0
 16 31  1  0  0  0
 17 18  1  0  0  0
 17 97  1  0  0  0
 18 19  2  0  0  0
 18 98  1  0  0  0
 19 20  1  0  0  0
 19 24  1  0  0  0
 20 21  2  0  0  0
 20 99  1  0  0  0
 21 23  1  0  0  0
 22 28  1  0  0  0
 22 32  2  0  0  0
 26 27  1  0  0  0
 28100  1  0  0  0
 28101  1  0  0  0
 29102  1  0  0  0
 29103  1  0  0  0
 33 34  1  0  0  0
 33 66  1  0  0  0
 33 70  2  0  0  0
 34 36  1  0  0  0
 34 59  1  0  0  0
 34104  1  0  0  0
 35 44  2  0  0  0
 35 45  1  0  0  0
 35 68  1  0  0  0
 36 56  1  0  0  0
 36105  1  0  0  0
 37 39  1  0  0  0
 37 47  1  0  0  0
 37 66  1  0  0  0
 37106  1  0  0  0
 38 43  2  0  0  0
 38 46  1  0  0  0
 38 47  1  0  0  0
 39 64  1  0  0  0
 39 67  2  0  0  0
 40 52  1  0  0  0
 40 53  2  0  0  0
 40 58  1  0  0  0
 41107  1  0  0  0
 41108  1  0  0  0
 41109  1  0  0  0
 41 48  1  0  0  0
 42 43  1  0  0  0
 42 66  1  0  0  0
 42110  1  0  0  0
 42111  1  0  0  0
 43 44  1  0  0  0
 44112  1  0  0  0
 45 46  2  0  0  0
 45113  1  0  0  0
 46114  1  0  0  0
 47115  1  0  0  0
 47116  1  0  0  0
 48 56  1  0  0  0
 48 65  1  0  0  0
 48117  1  0  0  0
 49 50  1  0  0  0
 49 53  1  0  0  0
 49 64  1  0  0  0
 49118  1  0  0  0
 50 51  1  0  0  0
 50119  1  0  0  0
 50120  1  0  0  0
 51 52  1  0  0  0
 51121  1  0  0  0
 51122  1  0  0  0
 52123  1  0  0  0
 52124  1  0  0  0
 53 54  1  0  0  0
 54 55  2  0  0  0
 54125  1  0  0  0
 55 57  1  0  0  0
 55126  1  0  0  0
 56 69  2  0  0  0
 57 58  2  0  0  0
 57127  1  0  0  0
 58128  1  0  0  0
 59 60  1  0  0  0
 59 61  1  0  0  0
 59 62  1  0  0  0
 60129  1  0  0  0
 60130  1  0  0  0
 60131  1  0  0  0
 61132  1  0  0  0
 61133  1  0  0  0
 61134  1  0  0  0
 62135  1  0  0  0
 62136  1  0  0  0
 62137  1  0  0  0
 63 65  1  0  0  0
 63138  1  0  0  0
 63139  1  0  0  0
 63140  1  0  0  0
 64141  1  0  0  0
 65142  1  0  0  0
 68 80  1  0  0  0
 71 74  2  0  0  0
 71 75  1  0  0  0
 71 81  1  0  0  0
 72 73  1  0  0  0
 72 77  1  0  0  0
 72 82  2  0  0  0
 73 78  1  0  0  0
 73 81  2  0  0  0
 74 79  1  0  0  0
 74 82  1  0  0  0
 75143  1  0  0  0
 75144  1  0  0  0
 75145  1  0  0  0
 76 77  1  0  0  0
 76146  1  0  0  0
 76147  1  0  0  0
 76148  1  0  0  0
 77149  1  0  0  0
 77150  1  0  0  0
 78 80  1  0  0  0
 78151  1  0  0  0
 78152  1  0  0  0
 79 83  1  0  0  0
 79153  1  0  0  0
 79154  1  0  0  0
 80155  1  0  0  0
 80156  1  0  0  0
 83157  1  0  0  0
M  ISO  4   1 100  68 101  80 101  83 100
M  END
> <chiral flag>
0

> <version>
0

> <s_m_source_file>
/data/baiqing/PycharmProjects/Reinvent-master-3.2/result/LINK_invent/BTK/process_docking_weight1_custom_sum_contain_oxygen_bond_distance_aromatic_linkinvent_7_9_3/rearranged_h_0046.sdf

> <i_m_source_file_index>
66

> <r_mmod_Potential_Energy-OPLS-2005>
368.919067382812

> <r_mmod_Stretch_Energy-OPLS-2005>
210.197708129883

> <r_mmod_Bend_Energy-OPLS-2005>
261.227203369141

> <r_mmod_Torsional_Energy-OPLS-2005>
217.930694580078

> <r_mmod_Improper_Torsional_Energy-OPLS-2005>
8.34811496734619

> <r_mmod_Van_der_Waal_Energy-OPLS-2005>
130.976058959961

> <r_mmod_Electrostatic_Energy-OPLS-2005>
-388.049743652344

> <r_mmod_Solvation_Energy-OPLS-2005>
-228.55940246582

> <b_mmod_Minimization_Converged-OPLS-2005>
0

> <r_mmod_RMS_Derivative-OPLS-2005>
4.79622793197632

$$$$
67
                    3D
 Structure written by MMmdl.
157165  0  0  1  0            999 V2000
  -30.5819  -14.9075   20.4130 C   0  0  0  0  0  0
  -30.4275  -12.5676   19.4800 C   0  0  0  0  0  0
  -29.5140  -12.5515   18.2344 C   0  0  0  0  0  0
  -28.0405  -12.3539   18.6410 C   0  0  0  0  0  0
  -27.6296  -13.2552   19.8393 C   0  0  2  0  0  0
  -28.6786  -13.2649   20.9714 C   0  0  0  0  0  0
  -25.2476  -13.8239   20.5758 C   0  0  0  0  0  0
  -24.1777  -13.0470   20.9238 C   0  0  0  0  0  0
  -24.6395  -11.6957   20.8759 C   0  0  0  0  0  0
  -23.9078  -10.4326   21.0417 C   0  0  0  0  0  0
  -24.3638   -9.4236   21.9180 C   0  0  0  0  0  0
  -23.6327   -8.2265   22.0742 C   0  0  0  0  0  0
  -22.4301   -8.0305   21.3556 C   0  0  0  0  0  0
  -21.9948   -9.0270   20.4645 C   0  0  0  0  0  0
  -22.7266  -10.2159   20.3064 C   0  0  0  0  0  0
  -21.6839   -6.0771   22.5292 C   0  0  0  0  0  0
  -21.4002   -6.5655   23.8240 C   0  0  0  0  0  0
  -21.3666   -5.6795   24.9186 C   0  0  0  0  0  0
  -21.6052   -4.3065   24.7216 C   0  0  0  0  0  0
  -21.8809   -3.8171   23.4329 C   0  0  0  0  0  0
  -21.9192   -4.6998   22.3403 C   0  0  0  0  0  0
  -22.7795  -13.5247   21.1871 C   0  0  0  0  0  0
  -22.1651   -4.2192   21.0977 F   0  0  0  0  0  0
  -21.5645   -3.4542   25.7721 F   0  0  0  0  0  0
  -29.9528  -13.6679   20.3657 N   0  0  0  0  0  0
  -26.2892  -12.9487   20.3276 N   0  0  0  0  0  0
  -25.9331  -11.6604   20.5714 N   0  0  0  0  0  0
  -22.0407  -12.8261   22.0414 N   0  0  0  0  0  0
  -25.4159  -15.1970   20.4232 N   0  0  0  0  0  0
  -31.7914  -14.9344   20.1688 O   0  0  0  0  0  0
  -21.6652   -6.8915   21.4262 O   0  0  0  0  0  0
  -22.3506  -14.5543   20.6677 O   0  0  0  0  0  0
  -24.6420  -31.8458   23.1910 C   0  0  0  0  0  0
  -25.9221  -32.4690   23.8280 C   0  0  1  0  0  0
  -27.2021  -27.1769   20.1432 C   0  0  0  0  0  0
  -25.6016  -33.8487   24.2262 N   0  0  0  0  0  0
  -23.4386  -30.4687   21.5367 C   0  0  2  0  0  0
  -24.8805  -28.8968   20.1139 C   0  0  0  0  0  0
  -22.7531  -29.4589   22.4899 C   0  0  0  0  0  0
  -18.0295  -28.1402   22.8468 C   0  0  0  0  0  0
  -24.1489  -36.7224   23.2640 C   0  0  0  0  0  0
  -25.9889  -30.7384   21.3702 C   0  0  0  0  0  0
  -26.0561  -29.3481   20.7241 C   0  0  0  0  0  0
  -27.2237  -28.5025   20.7222 C   0  0  0  0  0  0
  -26.0055  -26.8126   19.4939 C   0  0  0  0  0  0
  -24.8651  -27.6409   19.4841 C   0  0  0  0  0  0
  -23.6578  -29.7960   20.1559 C   0  0  0  0  0  0
  -25.4124  -36.3025   24.0326 C   0  0  1  0  0  0
  -20.5911  -28.3702   23.1277 C   0  0  2  0  0  0
  -20.6790  -26.9418   22.5418 C   0  0  0  0  0  0
  -19.5779  -26.6394   21.5215 C   0  0  0  0  0  0
  -18.1945  -26.7948   22.1597 C   0  0  0  0  0  0
  -19.1551  -28.8872   23.2862 C   0  0  0  0  0  0
  -18.9464  -30.1478   23.8873 C   0  0  0  0  0  0
  -17.6461  -30.6586   24.0560 C   0  0  0  0  0  0
  -25.9071  -34.9393   23.5088 C   0  0  0  0  0  0
  -16.5347  -29.9077   23.6352 C   0  0  0  0  0  0
  -16.7275  -28.6505   23.0340 C   0  0  0  0  0  0
  -26.4601  -31.6480   25.0644 C   0  0  0  0  0  0
  -25.3842  -31.3607   26.1383 C   0  0  0  0  0  0
  -27.0398  -30.2900   24.6064 C   0  0  0  0  0  0
  -27.6244  -32.4128   25.7356 C   0  0  0  0  0  0
  -27.5561  -37.1803   24.8500 C   0  0  0  0  0  0
  -21.4230  -29.3042   22.3650 N   0  0  0  0  0  0
  -26.4292  -37.3728   23.9407 N   0  0  0  0  0  0
  -24.7105  -31.0374   22.0901 N   0  0  0  0  0  0
  -23.4193  -28.8127   23.3027 O   0  0  0  0  0  0
  -28.2740  -26.2321   20.1512 O   0  0  0  0  0  0
  -26.5611  -34.8882   22.4639 O   0  0  0  0  0  0
  -23.5570  -32.1268   23.7225 O   0  0  0  0  0  0
  -28.0621  -20.7450   20.0940 C   0  0  0  0  0  0
  -28.9396  -21.9002   20.1286 C   0  0  0  0  0  0
  -29.8180  -19.0939   20.3295 C   0  0  0  0  0  0
  -30.6889  -20.2541   20.3804 C   0  0  0  0  0  0
  -26.1767  -20.8256   18.3924 C   0  0  0  0  0  0
  -26.5694  -20.9226   19.8727 C   0  0  0  0  0  0
  -28.6157  -23.4472   19.6529 C   0  0  0  0  0  0
  -30.4493  -17.5665   20.2627 C   0  0  0  0  0  0
  -28.0713  -24.7465   20.5292 C   0  0  0  0  0  0
  -32.2167  -20.0898   20.4678 C   0  0  0  0  0  0
  -28.4816  -19.4083   20.1958 N   0  0  0  0  0  0
  -30.2543  -21.5760   20.3055 N   0  0  0  0  0  0
  -29.8654  -16.1296   20.4937 N   0  0  0  0  0  0
  -32.6626  -19.2736   19.5109 F   0  0  0  0  0  0
  -32.8470  -21.2589   20.3155 F   0  0  0  0  0  0
  -32.5604  -19.5926   21.6569 F   0  0  0  0  0  0
  -31.4675  -12.6972   19.1767 H   0  0  0  0  0  0
  -30.3854  -11.6049   19.9922 H   0  0  0  0  0  0
  -29.8257  -11.7685   17.5426 H   0  0  0  0  0  0
  -29.6174  -13.4925   17.6900 H   0  0  0  0  0  0
  -27.9033  -11.3028   18.8935 H   0  0  0  0  0  0
  -27.3868  -12.5415   17.7889 H   0  0  0  0  0  0
  -27.5943  -14.2675   19.4360 H   0  0  0  0  0  0
  -28.7638  -12.2798   21.4331 H   0  0  0  0  0  0
  -28.3908  -13.9578   21.7643 H   0  0  0  0  0  0
  -25.2763   -9.5717   22.4777 H   0  0  0  0  0  0
  -24.0043   -7.4644   22.7439 H   0  0  0  0  0  0
  -21.0894   -8.8783   19.8931 H   0  0  0  0  0  0
  -22.3705  -10.9710   19.6195 H   0  0  0  0  0  0
  -21.1962   -7.6158   23.9758 H   0  0  0  0  0  0
  -21.1508   -6.0516   25.9102 H   0  0  0  0  0  0
  -22.0583   -2.7638   23.2803 H   0  0  0  0  0  0
  -22.3985  -11.9924   22.4830 H   0  0  0  0  0  0
  -21.1018  -13.1303   22.2557 H   0  0  0  0  0  0
  -24.6546  -15.8527   20.5549 H   0  0  0  0  0  0
  -26.2693  -15.6412   20.1116 H   0  0  0  0  0  0
  -26.7264  -32.5327   23.0988 H   0  0  0  0  0  0
  -25.0302  -33.9622   25.0509 H   0  0  0  0  0  0
  -22.7406  -31.2951   21.3860 H   0  0  0  0  0  0
  -23.3774  -35.9533   23.3267 H   0  0  0  0  0  0
  -24.3593  -36.8865   22.2066 H   0  0  0  0  0  0
  -23.7214  -37.6407   23.6665 H   0  0  0  0  0  0
  -26.1246  -31.4854   20.5857 H   0  0  0  0  0  0
  -26.8729  -30.8076   21.9912 H   0  0  0  0  0  0
  -28.1279  -28.8502   21.2038 H   0  0  0  0  0  0
  -25.9402  -25.8568   18.9917 H   0  0  0  0  0  0
  -23.9658  -27.2977   18.9900 H   0  0  0  0  0  0
  -23.7897  -30.5666   19.3952 H   0  0  0  0  0  0
  -22.7723  -29.2350   19.8509 H   0  0  0  0  0  0
  -25.1318  -36.1853   25.0821 H   0  0  0  0  0  0
  -21.0001  -28.3229   24.1398 H   0  0  0  0  0  0
  -20.5708  -26.2278   23.3596 H   0  0  0  0  0  0
  -21.6649  -26.7450   22.1199 H   0  0  0  0  0  0
  -19.6933  -25.6307   21.1228 H   0  0  0  0  0  0
  -19.6729  -27.3207   20.6751 H   0  0  0  0  0  0
  -17.4237  -26.6718   21.3974 H   0  0  0  0  0  0
  -18.0313  -26.0090   22.8987 H   0  0  0  0  0  0
  -19.7935  -30.7322   24.2202 H   0  0  0  0  0  0
  -17.5003  -31.6277   24.5145 H   0  0  0  0  0  0
  -15.5345  -30.2968   23.7717 H   0  0  0  0  0  0
  -15.8668  -28.0841   22.7049 H   0  0  0  0  0  0
  -24.6075  -30.6882   25.7721 H   0  0  0  0  0  0
  -24.8982  -32.2751   26.4784 H   0  0  0  0  0  0
  -25.8205  -30.8811   27.0154 H   0  0  0  0  0  0
  -26.2922  -29.6633   24.1190 H   0  0  0  0  0  0
  -27.4245  -29.7158   25.4502 H   0  0  0  0  0  0
  -27.8735  -30.4198   23.9161 H   0  0  0  0  0  0
  -27.3048  -33.3572   26.1756 H   0  0  0  0  0  0
  -28.4127  -32.6388   25.0156 H   0  0  0  0  0  0
  -28.0785  -31.8274   26.5364 H   0  0  0  0  0  0
  -28.2659  -38.0025   24.7442 H   0  0  0  0  0  0
  -28.0963  -36.2556   24.6434 H   0  0  0  0  0  0
  -27.2255  -37.1567   25.8900 H   0  0  0  0  0  0
  -20.9404  -29.8695   21.6803 H   0  0  0  0  0  0
  -26.0144  -38.2795   24.1358 H   0  0  0  0  0  0
  -25.0965  -20.9230   18.2684 H   0  0  0  0  0  0
  -26.4735  -19.8653   17.9688 H   0  0  0  0  0  0
  -26.6498  -21.6106   17.8017 H   0  0  0  0  0  0
  -26.2562  -21.8825   20.2849 H   0  0  0  0  0  0
  -26.0322  -20.1603   20.4418 H   0  0  0  0  0  0
  -27.9561  -23.3633   18.7891 H   0  0  0  0  0  0
  -29.5517  -23.7942   19.2183 H   0  0  0  0  0  0
  -31.3188  -17.5919   20.9197 H   0  0  0  0  0  0
  -30.8669  -17.5172   19.2557 H   0  0  0  0  0  0
  -28.5448  -24.6657   21.5066 H   0  0  0  0  0  0
  -27.0131  -24.5758   20.7297 H   0  0  0  0  0  0
  -28.8653  -16.0685   20.6092 H   0  0  0  0  0  0
  1 25  1  0  0  0
  1 30  2  0  0  0
  1 83  1  0  0  0
  2  3  1  0  0  0
  2 25  1  0  0  0
  2 87  1  0  0  0
  2 88  1  0  0  0
  3  4  1  0  0  0
  3 89  1  0  0  0
  3 90  1  0  0  0
  4  5  1  0  0  0
  4 91  1  0  0  0
  4 92  1  0  0  0
  5  6  1  0  0  0
  5 26  1  0  0  0
  5 93  1  0  0  0
  6 25  1  0  0  0
  6 94  1  0  0  0
  6 95  1  0  0  0
  7  8  2  0  0  0
  7 26  1  0  0  0
  7 29  1  0  0  0
  8  9  1  0  0  0
  8 22  1  0  0  0
  9 10  1  0  0  0
  9 27  2  0  0  0
 10 11  2  0  0  0
 10 15  1  0  0  0
 11 12  1  0  0  0
 11 96  1  0  0  0
 12 13  2  0  0  0
 12 97  1  0  0  0
 13 14  1  0  0  0
 13 31  1  0  0  0
 14 15  2  0  0  0
 14 98  1  0  0  0
 15 99  1  0  0  0
 16 17  2  0  0  0
 16 21  1  0  0  0
 16 31  1  0  0  0
 17 18  1  0  0  0
 17100  1  0  0  0
 18 19  2  0  0  0
 18101  1  0  0  0
 19 20  1  0  0  0
 19 24  1  0  0  0
 20 21  2  0  0  0
 20102  1  0  0  0
 21 23  1  0  0  0
 22 28  1  0  0  0
 22 32  2  0  0  0
 26 27  1  0  0  0
 28103  1  0  0  0
 28104  1  0  0  0
 29105  1  0  0  0
 29106  1  0  0  0
 33 34  1  0  0  0
 33 66  1  0  0  0
 33 70  2  0  0  0
 34 36  1  0  0  0
 34 59  1  0  0  0
 34107  1  0  0  0
 35 44  2  0  0  0
 35 45  1  0  0  0
 35 68  1  0  0  0
 36 56  1  0  0  0
 36108  1  0  0  0
 37 39  1  0  0  0
 37 47  1  0  0  0
 37 66  1  0  0  0
 37109  1  0  0  0
 38 43  2  0  0  0
 38 46  1  0  0  0
 38 47  1  0  0  0
 39 64  1  0  0  0
 39 67  2  0  0  0
 40 52  1  0  0  0
 40 53  2  0  0  0
 40 58  1  0  0  0
 41110  1  0  0  0
 41111  1  0  0  0
 41112  1  0  0  0
 41 48  1  0  0  0
 42 43  1  0  0  0
 42 66  1  0  0  0
 42113  1  0  0  0
 42114  1  0  0  0
 43 44  1  0  0  0
 44115  1  0  0  0
 45 46  2  0  0  0
 45116  1  0  0  0
 46117  1  0  0  0
 47118  1  0  0  0
 47119  1  0  0  0
 48 56  1  0  0  0
 48 65  1  0  0  0
 48120  1  0  0  0
 49 50  1  0  0  0
 49 53  1  0  0  0
 49 64  1  0  0  0
 49121  1  0  0  0
 50 51  1  0  0  0
 50122  1  0  0  0
 50123  1  0  0  0
 51 52  1  0  0  0
 51124  1  0  0  0
 51125  1  0  0  0
 52126  1  0  0  0
 52127  1  0  0  0
 53 54  1  0  0  0
 54 55  2  0  0  0
 54128  1  0  0  0
 55 57  1  0  0  0
 55129  1  0  0  0
 56 69  2  0  0  0
 57 58  2  0  0  0
 57130  1  0  0  0
 58131  1  0  0  0
 59 60  1  0  0  0
 59 61  1  0  0  0
 59 62  1  0  0  0
 60132  1  0  0  0
 60133  1  0  0  0
 60134  1  0  0  0
 61135  1  0  0  0
 61136  1  0  0  0
 61137  1  0  0  0
 62138  1  0  0  0
 62139  1  0  0  0
 62140  1  0  0  0
 63 65  1  0  0  0
 63141  1  0  0  0
 63142  1  0  0  0
 63143  1  0  0  0
 64144  1  0  0  0
 65145  1  0  0  0
 68 79  1  0  0  0
 71 72  2  0  0  0
 71 76  1  0  0  0
 71 81  1  0  0  0
 72 77  1  0  0  0
 72 82  1  0  0  0
 73 74  1  0  0  0
 73 78  1  0  0  0
 73 81  2  0  0  0
 74 80  1  0  0  0
 74 82  2  0  0  0
 75 76  1  0  0  0
 75146  1  0  0  0
 75147  1  0  0  0
 75148  1  0  0  0
 76149  1  0  0  0
 76150  1  0  0  0
 77 79  1  0  0  0
 77151  1  0  0  0
 77152  1  0  0  0
 78 83  1  0  0  0
 78153  1  0  0  0
 78154  1  0  0  0
 79155  1  0  0  0
 79156  1  0  0  0
 80 84  1  0  0  0
 80 85  1  0  0  0
 80 86  1  0  0  0
 83157  1  0  0  0
M  ISO  4   1 100  68 101  79 101  83 100
M  END
> <chiral flag>
0

> <version>
0

> <s_m_source_file>
/data/baiqing/PycharmProjects/Reinvent-master-3.2/result/LINK_invent/BTK/process_docking_weight1_custom_sum_contain_oxygen_bond_distance_aromatic_linkinvent_7_9_3/rearranged_h_0046.sdf

> <i_m_source_file_index>
67

> <r_mmod_Potential_Energy-OPLS-2005>
483.087860107422

> <r_mmod_Stretch_Energy-OPLS-2005>
217.258087158203

> <r_mmod_Bend_Energy-OPLS-2005>
270.398101806641

> <r_mmod_Torsional_Energy-OPLS-2005>
221.44758605957

> <r_mmod_Improper_Torsional_Energy-OPLS-2005>
7.39108228683472

> <r_mmod_Van_der_Waal_Energy-OPLS-2005>
134.89128112793

> <r_mmod_Electrostatic_Energy-OPLS-2005>
-313.494323730469

> <r_mmod_Solvation_Energy-OPLS-2005>
-212.208953857422

> <b_mmod_Minimization_Converged-OPLS-2005>
0

> <r_mmod_RMS_Derivative-OPLS-2005>
3.64920377731323

$$$$
68
                    3D
 Structure written by MMmdl.
167175  0  0  1  0            999 V2000
  -30.6818  -14.4559   20.4072 C   0  0  0  0  0  0
  -30.4232  -12.2423   19.4357 C   0  0  0  0  0  0
  -29.4959  -12.4247   18.2136 C   0  0  0  0  0  0
  -28.0118  -12.3360   18.6258 C   0  0  0  0  0  0
  -27.6571  -13.1967   19.8677 C   0  0  2  0  0  0
  -28.7139  -13.0376   20.9924 C   0  0  0  0  0  0
  -25.2601  -13.8094   20.5704 C   0  0  0  0  0  0
  -24.1834  -13.0364   20.9183 C   0  0  0  0  0  0
  -24.6387  -11.6840   20.8753 C   0  0  0  0  0  0
  -23.9058  -10.4230   21.0423 C   0  0  0  0  0  0
  -24.3612   -9.4155   21.9207 C   0  0  0  0  0  0
  -23.6279   -8.2196   22.0799 C   0  0  0  0  0  0
  -22.4270   -8.0271   21.3585 C   0  0  0  0  0  0
  -21.9882   -9.0232   20.4685 C   0  0  0  0  0  0
  -22.7226  -10.2096   20.3089 C   0  0  0  0  0  0
  -21.6829   -6.0707   22.5258 C   0  0  0  0  0  0
  -21.3996   -6.5620   23.8189 C   0  0  0  0  0  0
  -21.3666   -5.6804   24.9170 C   0  0  0  0  0  0
  -21.6058   -4.3067   24.7232 C   0  0  0  0  0  0
  -21.8821   -3.8140   23.4355 C   0  0  0  0  0  0
  -21.9184   -4.6934   22.3401 C   0  0  0  0  0  0
  -22.7871  -13.5202   21.1837 C   0  0  0  0  0  0
  -22.1666   -4.2097   21.0981 F   0  0  0  0  0  0
  -21.5675   -3.4575   25.7758 F   0  0  0  0  0  0
  -30.0447  -13.2656   20.4132 N   0  0  0  0  0  0
  -26.3020  -12.9236   20.3401 N   0  0  0  0  0  0
  -25.9330  -11.6402   20.5858 N   0  0  0  0  0  0
  -22.0512  -12.8185   22.0402 N   0  0  0  0  0  0
  -25.4365  -15.1803   20.4138 N   0  0  0  0  0  0
  -31.8977  -14.5860   20.2877 O   0  0  0  0  0  0
  -21.6671   -6.8857   21.4233 O   0  0  0  0  0  0
  -22.3557  -14.5530   20.6740 O   0  0  0  0  0  0
  -24.6109  -31.8739   23.2117 C   0  0  0  0  0  0
  -25.9039  -32.4833   23.8387 C   0  0  1  0  0  0
  -27.2452  -27.4860   20.0712 C   0  0  0  0  0  0
  -25.5922  -33.8621   24.2329 N   0  0  0  0  0  0
  -23.3974  -30.4934   21.5497 C   0  0  2  0  0  0
  -24.8481  -28.9625   20.1122 C   0  0  0  0  0  0
  -22.7410  -29.4717   22.5015 C   0  0  0  0  0  0
  -18.0336  -28.1355   22.8473 C   0  0  0  0  0  0
  -24.1514  -36.7308   23.2640 C   0  0  0  0  0  0
  -25.9222  -30.8489   21.3621 C   0  0  0  0  0  0
  -26.0009  -29.4851   20.7115 C   0  0  0  0  0  0
  -27.2001  -28.7447   20.7054 C   0  0  0  0  0  0
  -26.0884  -26.9748   19.4522 C   0  0  0  0  0  0
  -24.8831  -27.7020   19.4878 C   0  0  0  0  0  0
  -23.6018  -29.8167   20.1653 C   0  0  0  0  0  0
  -25.4125  -36.3083   24.0343 C   0  0  1  0  0  0
  -20.5901  -28.3678   23.1367 C   0  0  2  0  0  0
  -20.6838  -26.9431   22.5457 C   0  0  0  0  0  0
  -19.5874  -26.6511   21.5148 C   0  0  0  0  0  0
  -18.2013  -26.7954   22.1508 C   0  0  0  0  0  0
  -19.1556  -28.8834   23.2924 C   0  0  0  0  0  0
  -18.9452  -30.1453   23.8908 C   0  0  0  0  0  0
  -17.6443  -30.6582   24.0454 C   0  0  0  0  0  0
  -25.9059  -34.9467   23.5123 C   0  0  0  0  0  0
  -16.5362  -29.9039   23.6217 C   0  0  0  0  0  0
  -16.7317  -28.6438   23.0329 C   0  0  0  0  0  0
  -26.4474  -31.6597   25.0695 C   0  0  0  0  0  0
  -25.3754  -31.3699   26.1442 C   0  0  0  0  0  0
  -27.0303  -30.3046   24.6053 C   0  0  0  0  0  0
  -27.6072  -32.4266   25.7439 C   0  0  0  0  0  0
  -27.5585  -37.1805   24.8458 C   0  0  0  0  0  0
  -21.4145  -29.3070   22.3788 N   0  0  0  0  0  0
  -26.4299  -37.3759   23.9417 N   0  0  0  0  0  0
  -24.6608  -31.0873   22.0982 N   0  0  0  0  0  0
  -23.4204  -28.8273   23.3047 O   0  0  0  0  0  0
  -28.4016  -26.7515   20.0316 O   0  0  0  0  0  0
  -26.5569  -34.8898   22.4654 O   0  0  0  0  0  0
  -23.5306  -32.1463   23.7553 O   0  0  0  0  0  0
  -27.2757  -18.9240   19.7756 C   0  0  0  0  0  0
  -29.2425  -20.0380   18.9499 C   0  0  0  0  0  0
  -28.5578  -18.8261   19.1956 C   0  0  0  0  0  0
  -26.7473  -20.1923   20.0909 C   0  0  0  0  0  0
  -27.5471  -21.3319   19.8630 C   0  0  0  0  0  0
  -25.3372  -20.3103   20.6510 C   0  0  0  0  0  0
  -30.4584  -17.5882   18.0106 C   0  0  0  0  0  0
  -28.1447  -16.7026   17.9102 C   0  0  0  0  0  0
  -27.0888  -22.7243   20.2860 C   0  0  0  0  0  0
  -28.2360  -23.7247   20.5247 C   0  0  0  0  0  0
  -27.8648  -24.8692   21.4833 C   0  0  0  0  0  0
  -29.4553  -16.6363   20.1122 C   0  0  0  0  0  0
  -28.7339  -26.1222   21.2643 C   0  0  0  0  0  0
  -29.1451  -17.4544   18.8230 C   0  0  0  0  0  0
  -28.7505  -21.2505   19.2634 N   0  0  0  0  0  0
  -29.9561  -15.3315   19.7135 N   0  0  0  0  0  0
  -31.4700  -12.3269   19.1393 H   0  0  0  0  0  0
  -30.3082  -11.2464   19.8660 H   0  0  0  0  0  0
  -29.7083  -11.6602   17.4657 H   0  0  0  0  0  0
  -29.6866  -13.3800   17.7275 H   0  0  0  0  0  0
  -27.7987  -11.2893   18.8367 H   0  0  0  0  0  0
  -27.3736  -12.6133   17.7849 H   0  0  0  0  0  0
  -27.6665  -14.2291   19.5291 H   0  0  0  0  0  0
  -28.6719  -12.0440   21.4403 H   0  0  0  0  0  0
  -28.5175  -13.7524   21.7952 H   0  0  0  0  0  0
  -25.2762   -9.5620   22.4777 H   0  0  0  0  0  0
  -23.9964   -7.4591   22.7504 H   0  0  0  0  0  0
  -21.0821   -8.8731   19.8998 H   0  0  0  0  0  0
  -22.3686  -10.9634   19.6218 H   0  0  0  0  0  0
  -21.1996   -7.6131   23.9653 H   0  0  0  0  0  0
  -21.1512   -6.0577   25.9056 H   0  0  0  0  0  0
  -22.0601   -2.7576   23.2893 H   0  0  0  0  0  0
  -22.4064  -11.9799   22.4726 H   0  0  0  0  0  0
  -21.1229  -13.1344   22.2786 H   0  0  0  0  0  0
  -24.6795  -15.8463   20.5307 H   0  0  0  0  0  0
  -26.3135  -15.6065   20.1382 H   0  0  0  0  0  0
  -26.7139  -32.5569   23.1171 H   0  0  0  0  0  0
  -25.0102  -33.9780   25.0493 H   0  0  0  0  0  0
  -22.6793  -31.3062   21.4100 H   0  0  0  0  0  0
  -23.3760  -35.9661   23.3316 H   0  0  0  0  0  0
  -24.3622  -36.8902   22.2056 H   0  0  0  0  0  0
  -23.7290  -37.6534   23.6624 H   0  0  0  0  0  0
  -26.0295  -31.6176   20.5959 H   0  0  0  0  0  0
  -26.8102  -30.8998   21.9800 H   0  0  0  0  0  0
  -28.0917  -29.1386   21.1768 H   0  0  0  0  0  0
  -26.1158  -26.0127   18.9559 H   0  0  0  0  0  0
  -23.9973  -27.3009   19.0181 H   0  0  0  0  0  0
  -23.6890  -30.5846   19.3954 H   0  0  0  0  0  0
  -22.7329  -29.2213   19.8806 H   0  0  0  0  0  0
  -25.1302  -36.1921   25.0831 H   0  0  0  0  0  0
  -21.0011  -28.3217   24.1480 H   0  0  0  0  0  0
  -20.5738  -26.2262   23.3619 H   0  0  0  0  0  0
  -21.6706  -26.7519   22.1293 H   0  0  0  0  0  0
  -19.7126  -25.6537   21.0945 H   0  0  0  0  0  0
  -19.6872  -27.3526   20.6847 H   0  0  0  0  0  0
  -17.4379  -26.6810   21.3794 H   0  0  0  0  0  0
  -18.0338  -26.0035   22.8835 H   0  0  0  0  0  0
  -19.7880  -30.7281   24.2356 H   0  0  0  0  0  0
  -17.4947  -31.6294   24.4985 H   0  0  0  0  0  0
  -15.5347  -30.2918   23.7442 H   0  0  0  0  0  0
  -15.8757  -28.0678   22.7090 H   0  0  0  0  0  0
  -24.5922  -30.7043   25.7767 H   0  0  0  0  0  0
  -24.8956  -32.2869   26.4868 H   0  0  0  0  0  0
  -25.8127  -30.8850   27.0188 H   0  0  0  0  0  0
  -26.2830  -29.6797   24.1137 H   0  0  0  0  0  0
  -27.4132  -29.7259   25.4480 H   0  0  0  0  0  0
  -27.8628  -30.4389   23.9150 H   0  0  0  0  0  0
  -27.2728  -33.3549   26.2071 H   0  0  0  0  0  0
  -28.3849  -32.6861   25.0244 H   0  0  0  0  0  0
  -28.0778  -31.8343   26.5289 H   0  0  0  0  0  0
  -28.2594  -38.0098   24.7479 H   0  0  0  0  0  0
  -28.1077  -36.2635   24.6297 H   0  0  0  0  0  0
  -27.2308  -37.1470   25.8853 H   0  0  0  0  0  0
  -20.9289  -29.8745   21.6981 H   0  0  0  0  0  0
  -26.0195  -38.2847   24.1349 H   0  0  0  0  0  0
  -26.6977  -18.0358   19.9762 H   0  0  0  0  0  0
  -30.2229  -20.0670   18.4997 H   0  0  0  0  0  0
  -24.7706  -19.3924   20.4985 H   0  0  0  0  0  0
  -24.7850  -21.1110   20.1548 H   0  0  0  0  0  0
  -25.3555  -20.5235   21.7194 H   0  0  0  0  0  0
  -30.3139  -18.1947   17.1163 H   0  0  0  0  0  0
  -30.8324  -16.6254   17.6641 H   0  0  0  0  0  0
  -31.2528  -18.0327   18.6081 H   0  0  0  0  0  0
  -27.9122  -17.3026   17.0309 H   0  0  0  0  0  0
  -27.1960  -16.4772   18.3981 H   0  0  0  0  0  0
  -28.5361  -15.7503   17.5470 H   0  0  0  0  0  0
  -26.5301  -22.6246   21.2169 H   0  0  0  0  0  0
  -26.3885  -23.1147   19.5463 H   0  0  0  0  0  0
  -28.5624  -24.1040   19.5554 H   0  0  0  0  0  0
  -29.0991  -23.2181   20.9587 H   0  0  0  0  0  0
  -27.9873  -24.5148   22.5055 H   0  0  0  0  0  0
  -26.8088  -25.1262   21.3871 H   0  0  0  0  0  0
  -28.5721  -16.5137   20.7400 H   0  0  0  0  0  0
  -30.2037  -17.1460   20.7186 H   0  0  0  0  0  0
  -29.7873  -25.8456   21.2428 H   0  0  0  0  0  0
  -28.6196  -26.8118   22.1022 H   0  0  0  0  0  0
  -30.2850  -15.3607   18.7585 H   0  0  0  0  0  0
  1 25  1  0  0  0
  1 30  2  0  0  0
  1 86  1  0  0  0
  2  3  1  0  0  0
  2 25  1  0  0  0
  2 87  1  0  0  0
  2 88  1  0  0  0
  3  4  1  0  0  0
  3 89  1  0  0  0
  3 90  1  0  0  0
  4  5  1  0  0  0
  4 91  1  0  0  0
  4 92  1  0  0  0
  5  6  1  0  0  0
  5 26  1  0  0  0
  5 93  1  0  0  0
  6 25  1  0  0  0
  6 94  1  0  0  0
  6 95  1  0  0  0
  7  8  2  0  0  0
  7 26  1  0  0  0
  7 29  1  0  0  0
  8  9  1  0  0  0
  8 22  1  0  0  0
  9 10  1  0  0  0
  9 27  2  0  0  0
 10 11  2  0  0  0
 10 15  1  0  0  0
 11 12  1  0  0  0
 11 96  1  0  0  0
 12 13  2  0  0  0
 12 97  1  0  0  0
 13 14  1  0  0  0
 13 31  1  0  0  0
 14 15  2  0  0  0
 14 98  1  0  0  0
 15 99  1  0  0  0
 16 17  2  0  0  0
 16 21  1  0  0  0
 16 31  1  0  0  0
 17 18  1  0  0  0
 17100  1  0  0  0
 18 19  2  0  0  0
 18101  1  0  0  0
 19 20  1  0  0  0
 19 24  1  0  0  0
 20 21  2  0  0  0
 20102  1  0  0  0
 21 23  1  0  0  0
 22 28  1  0  0  0
 22 32  2  0  0  0
 26 27  1  0  0  0
 28103  1  0  0  0
 28104  1  0  0  0
 29105  1  0  0  0
 29106  1  0  0  0
 33 34  1  0  0  0
 33 66  1  0  0  0
 33 70  2  0  0  0
 34 36  1  0  0  0
 34 59  1  0  0  0
 34107  1  0  0  0
 35 44  2  0  0  0
 35 45  1  0  0  0
 35 68  1  0  0  0
 36 56  1  0  0  0
 36108  1  0  0  0
 37 39  1  0  0  0
 37 47  1  0  0  0
 37 66  1  0  0  0
 37109  1  0  0  0
 38 43  2  0  0  0
 38 46  1  0  0  0
 38 47  1  0  0  0
 39 64  1  0  0  0
 39 67  2  0  0  0
 40 52  1  0  0  0
 40 53  2  0  0  0
 40 58  1  0  0  0
 41110  1  0  0  0
 41111  1  0  0  0
 41112  1  0  0  0
 41 48  1  0  0  0
 42 43  1  0  0  0
 42 66  1  0  0  0
 42113  1  0  0  0
 42114  1  0  0  0
 43 44  1  0  0  0
 44115  1  0  0  0
 45 46  2  0  0  0
 45116  1  0  0  0
 46117  1  0  0  0
 47118  1  0  0  0
 47119  1  0  0  0
 48 56  1  0  0  0
 48 65  1  0  0  0
 48120  1  0  0  0
 49 50  1  0  0  0
 49 53  1  0  0  0
 49 64  1  0  0  0
 49121  1  0  0  0
 50 51  1  0  0  0
 50122  1  0  0  0
 50123  1  0  0  0
 51 52  1  0  0  0
 51124  1  0  0  0
 51125  1  0  0  0
 52126  1  0  0  0
 52127  1  0  0  0
 53 54  1  0  0  0
 54 55  2  0  0  0
 54128  1  0  0  0
 55 57  1  0  0  0
 55129  1  0  0  0
 56 69  2  0  0  0
 57 58  2  0  0  0
 57130  1  0  0  0
 58131  1  0  0  0
 59 60  1  0  0  0
 59 61  1  0  0  0
 59 62  1  0  0  0
 60132  1  0  0  0
 60133  1  0  0  0
 60134  1  0  0  0
 61135  1  0  0  0
 61136  1  0  0  0
 61137  1  0  0  0
 62138  1  0  0  0
 62139  1  0  0  0
 62140  1  0  0  0
 63 65  1  0  0  0
 63141  1  0  0  0
 63142  1  0  0  0
 63143  1  0  0  0
 64144  1  0  0  0
 65145  1  0  0  0
 68 83  1  0  0  0
 71 73  2  0  0  0
 71 74  1  0  0  0
 71146  1  0  0  0
 72 73  1  0  0  0
 72 85  2  0  0  0
 72147  1  0  0  0
 73 84  1  0  0  0
 74 75  2  0  0  0
 74 76  1  0  0  0
 75 79  1  0  0  0
 75 85  1  0  0  0
 76148  1  0  0  0
 76149  1  0  0  0
 76150  1  0  0  0
 77151  1  0  0  0
 77152  1  0  0  0
 77153  1  0  0  0
 77 84  1  0  0  0
 78 84  1  0  0  0
 78154  1  0  0  0
 78155  1  0  0  0
 78156  1  0  0  0
 79 80  1  0  0  0
 79157  1  0  0  0
 79158  1  0  0  0
 80 81  1  0  0  0
 80159  1  0  0  0
 80160  1  0  0  0
 81 83  1  0  0  0
 81161  1  0  0  0
 81162  1  0  0  0
 82 84  1  0  0  0
 82 86  1  0  0  0
 82163  1  0  0  0
 82164  1  0  0  0
 83165  1  0  0  0
 83166  1  0  0  0
 86167  1  0  0  0
M  ISO  4   1 100  68 101  83 101  86 100
M  END
> <chiral flag>
0

> <version>
0

> <s_m_source_file>
/data/baiqing/PycharmProjects/Reinvent-master-3.2/result/LINK_invent/BTK/process_docking_weight1_custom_sum_contain_oxygen_bond_distance_aromatic_linkinvent_7_9_3/rearranged_h_0046.sdf

> <i_m_source_file_index>
68

> <r_mmod_Potential_Energy-OPLS-2005>
-115.858627319336

> <r_mmod_Stretch_Energy-OPLS-2005>
32.0021286010742

> <r_mmod_Bend_Energy-OPLS-2005>
107.787475585938

> <r_mmod_Torsional_Energy-OPLS-2005>
332.285339355469

> <r_mmod_Improper_Torsional_Energy-OPLS-2005>
35.7854232788086

> <r_mmod_Van_der_Waal_Energy-OPLS-2005>
159.364074707031

> <r_mmod_Electrostatic_Energy-OPLS-2005>
-600.549194335938

> <r_mmod_Solvation_Energy-OPLS-2005>
-207.756973266602

> <b_mmod_Minimization_Converged-OPLS-2005>
0

> <r_mmod_RMS_Derivative-OPLS-2005>
5.41658020019531

$$$$
69
                    3D
 Structure written by MMmdl.
164172  0  0  1  0            999 V2000
  -30.6269  -14.8750   20.4308 C   0  0  0  0  0  0
  -30.4314  -12.5447   19.4898 C   0  0  0  0  0  0
  -29.5163  -12.5226   18.2465 C   0  0  0  0  0  0
  -28.0515  -12.3162   18.6697 C   0  0  0  0  0  0
  -27.6330  -13.2523   19.8355 C   0  0  2  0  0  0
  -28.6799  -13.2899   20.9714 C   0  0  0  0  0  0
  -25.2471  -13.8236   20.5682 C   0  0  0  0  0  0
  -24.1784  -13.0441   20.9218 C   0  0  0  0  0  0
  -24.6428  -11.6934   20.8772 C   0  0  0  0  0  0
  -23.9116  -10.4295   21.0426 C   0  0  0  0  0  0
  -24.3644   -9.4198   21.9202 C   0  0  0  0  0  0
  -23.6304   -8.2244   22.0759 C   0  0  0  0  0  0
  -22.4302   -8.0300   21.3540 C   0  0  0  0  0  0
  -21.9946   -9.0273   20.4642 C   0  0  0  0  0  0
  -22.7291  -10.2142   20.3064 C   0  0  0  0  0  0
  -21.6857   -6.0757   22.5284 C   0  0  0  0  0  0
  -21.4016   -6.5645   23.8218 C   0  0  0  0  0  0
  -21.3645   -5.6799   24.9175 C   0  0  0  0  0  0
  -21.6043   -4.3064   24.7226 C   0  0  0  0  0  0
  -21.8814   -3.8161   23.4349 C   0  0  0  0  0  0
  -21.9183   -4.6986   22.3403 C   0  0  0  0  0  0
  -22.7799  -13.5203   21.1880 C   0  0  0  0  0  0
  -22.1654   -4.2172   21.0985 F   0  0  0  0  0  0
  -21.5622   -3.4550   25.7737 F   0  0  0  0  0  0
  -29.9673  -13.6554   20.3660 N   0  0  0  0  0  0
  -26.2915  -12.9481   20.3265 N   0  0  0  0  0  0
  -25.9371  -11.6607   20.5767 N   0  0  0  0  0  0
  -22.0440  -12.8176   22.0428 N   0  0  0  0  0  0
  -25.4069  -15.1966   20.4044 N   0  0  0  0  0  0
  -31.8337  -14.8846   20.1777 O   0  0  0  0  0  0
  -21.6641   -6.8908   21.4251 O   0  0  0  0  0  0
  -22.3471  -14.5501   20.6739 O   0  0  0  0  0  0
  -24.6385  -31.8495   23.1918 C   0  0  0  0  0  0
  -25.9195  -32.4709   23.8304 C   0  0  1  0  0  0
  -27.2022  -27.1772   20.1571 C   0  0  0  0  0  0
  -25.5970  -33.8516   24.2219 N   0  0  0  0  0  0
  -23.4359  -30.4728   21.5368 C   0  0  2  0  0  0
  -24.8829  -28.9063   20.1093 C   0  0  0  0  0  0
  -22.7539  -29.4584   22.4891 C   0  0  0  0  0  0
  -18.0287  -28.1377   22.8459 C   0  0  0  0  0  0
  -24.1481  -36.7251   23.2645 C   0  0  0  0  0  0
  -25.9885  -30.7387   21.3809 C   0  0  0  0  0  0
  -26.0580  -29.3533   20.7254 C   0  0  0  0  0  0
  -27.2226  -28.5045   20.7313 C   0  0  0  0  0  0
  -26.0030  -26.8155   19.5089 C   0  0  0  0  0  0
  -24.8640  -27.6481   19.4876 C   0  0  0  0  0  0
  -23.6586  -29.8073   20.1529 C   0  0  0  0  0  0
  -25.4107  -36.3026   24.0313 C   0  0  1  0  0  0
  -20.5896  -28.3709   23.1251 C   0  0  2  0  0  0
  -20.6786  -26.9428   22.5406 C   0  0  0  0  0  0
  -19.5764  -26.6386   21.5203 C   0  0  0  0  0  0
  -18.1929  -26.7921   22.1598 C   0  0  0  0  0  0
  -19.1547  -28.8857   23.2839 C   0  0  0  0  0  0
  -18.9487  -30.1456   23.8873 C   0  0  0  0  0  0
  -17.6491  -30.6584   24.0555 C   0  0  0  0  0  0
  -25.9070  -34.9406   23.5074 C   0  0  0  0  0  0
  -16.5378  -29.9067   23.6364 C   0  0  0  0  0  0
  -16.7279  -28.6494   23.0351 C   0  0  0  0  0  0
  -26.4542  -31.6548   25.0732 C   0  0  0  0  0  0
  -25.3723  -31.3691   26.1434 C   0  0  0  0  0  0
  -27.0447  -30.2966   24.6271 C   0  0  0  0  0  0
  -27.6089  -32.4334   25.7496 C   0  0  0  0  0  0
  -27.5548  -37.1775   24.8460 C   0  0  0  0  0  0
  -21.4238  -29.3051   22.3642 N   0  0  0  0  0  0
  -26.4256  -37.3743   23.9418 N   0  0  0  0  0  0
  -24.7066  -31.0412   22.0906 N   0  0  0  0  0  0
  -23.4219  -28.8124   23.3011 O   0  0  0  0  0  0
  -28.2683  -26.2269   20.2422 O   0  0  0  0  0  0
  -26.5658  -34.8901   22.4652 O   0  0  0  0  0  0
  -23.5528  -32.1399   23.7153 O   0  0  0  0  0  0
  -30.3648  -19.9576   19.3909 C   0  0  0  0  0  0
  -29.8783  -19.0349   20.3671 C   0  0  0  0  0  0
  -30.0482  -21.3680   19.3586 C   0  0  0  0  0  0
  -29.0117  -19.7086   21.2938 C   0  0  0  0  0  0
  -29.2060  -21.9659   20.3523 C   0  0  0  0  0  0
  -27.0597  -18.2965   22.1279 C   0  0  0  0  0  0
  -30.6338  -21.6086   16.8823 C   0  0  0  0  0  0
  -32.1225  -22.6723   18.6700 C   0  0  0  0  0  0
  -30.5532  -17.5355   20.4841 C   0  0  0  0  0  0
  -28.4284  -18.9113   22.4502 C   0  0  0  0  0  0
  -29.1453  -23.5948   20.6012 C   0  0  0  0  0  0
  -28.0201  -24.7093   20.1283 C   0  0  0  0  0  0
  -30.6940  -22.2462   18.2801 C   0  0  0  0  0  0
  -28.6969  -21.0732   21.2758 N   0  0  0  0  0  0
  -29.9361  -16.1023   20.5567 N   0  0  0  0  0  0
  -31.4722  -12.6626   19.1818 H   0  0  0  0  0  0
  -30.3830  -11.5927   20.0203 H   0  0  0  0  0  0
  -29.8219  -11.7334   17.5585 H   0  0  0  0  0  0
  -29.6137  -13.4625   17.7007 H   0  0  0  0  0  0
  -27.9469  -11.2744   18.9791 H   0  0  0  0  0  0
  -27.3852  -12.4477   17.8176 H   0  0  0  0  0  0
  -27.5940  -14.2523   19.4039 H   0  0  0  0  0  0
  -28.7478  -12.3291   21.4824 H   0  0  0  0  0  0
  -28.3957  -14.0259   21.7249 H   0  0  0  0  0  0
  -25.2791   -9.5677   22.4783 H   0  0  0  0  0  0
  -24.0004   -7.4643   22.7498 H   0  0  0  0  0  0
  -21.0868   -8.8810   19.8957 H   0  0  0  0  0  0
  -22.3765  -10.9687   19.6172 H   0  0  0  0  0  0
  -21.2019   -7.6159   23.9736 H   0  0  0  0  0  0
  -21.1461   -6.0527   25.9075 H   0  0  0  0  0  0
  -22.0603   -2.7637   23.2846 H   0  0  0  0  0  0
  -22.4036  -11.9830   22.4826 H   0  0  0  0  0  0
  -21.1055  -13.1206   22.2629 H   0  0  0  0  0  0
  -24.6238  -15.8380   20.4827 H   0  0  0  0  0  0
  -26.2453  -15.6386   20.0528 H   0  0  0  0  0  0
  -26.7266  -32.5355   23.1029 H   0  0  0  0  0  0
  -25.0115  -33.9648   25.0358 H   0  0  0  0  0  0
  -22.7322  -31.2957   21.3898 H   0  0  0  0  0  0
  -23.3758  -35.9571   23.3278 H   0  0  0  0  0  0
  -24.3575  -36.8919   22.2077 H   0  0  0  0  0  0
  -23.7235  -37.6424   23.6723 H   0  0  0  0  0  0
  -26.1324  -31.4906   20.6045 H   0  0  0  0  0  0
  -26.8619  -30.7925   22.0175 H   0  0  0  0  0  0
  -28.1210  -28.8375   21.2326 H   0  0  0  0  0  0
  -25.9124  -25.8485   19.0338 H   0  0  0  0  0  0
  -23.9623  -27.3009   19.0036 H   0  0  0  0  0  0
  -23.7914  -30.5886   19.4034 H   0  0  0  0  0  0
  -22.7733  -29.2514   19.8415 H   0  0  0  0  0  0
  -25.1265  -36.1850   25.0799 H   0  0  0  0  0  0
  -20.9968  -28.3313   24.1366 H   0  0  0  0  0  0
  -20.5687  -26.2321   23.3607 H   0  0  0  0  0  0
  -21.6652  -26.7406   22.1213 H   0  0  0  0  0  0
  -19.6921  -25.6288   21.1242 H   0  0  0  0  0  0
  -19.6705  -27.3205   20.6732 H   0  0  0  0  0  0
  -17.4206  -26.6707   21.3994 H   0  0  0  0  0  0
  -18.0296  -26.0028   22.8955 H   0  0  0  0  0  0
  -19.7972  -30.7271   24.2243 H   0  0  0  0  0  0
  -17.5043  -31.6256   24.5163 H   0  0  0  0  0  0
  -15.5394  -30.2957   23.7675 H   0  0  0  0  0  0
  -15.8681  -28.0806   22.7055 H   0  0  0  0  0  0
  -24.5958  -30.6965   25.7748 H   0  0  0  0  0  0
  -24.8856  -32.2857   26.4804 H   0  0  0  0  0  0
  -25.8035  -30.8930   27.0248 H   0  0  0  0  0  0
  -26.3077  -29.6664   24.1289 H   0  0  0  0  0  0
  -27.4119  -29.7279   25.4810 H   0  0  0  0  0  0
  -27.8914  -30.4242   23.9525 H   0  0  0  0  0  0
  -27.2710  -33.3694   26.1946 H   0  0  0  0  0  0
  -28.3955  -32.6795   25.0351 H   0  0  0  0  0  0
  -28.0679  -31.8541   26.5521 H   0  0  0  0  0  0
  -28.2528  -38.0097   24.7533 H   0  0  0  0  0  0
  -28.1086  -36.2642   24.6243 H   0  0  0  0  0  0
  -27.2295  -37.1348   25.8866 H   0  0  0  0  0  0
  -20.9460  -29.8787   21.6822 H   0  0  0  0  0  0
  -26.0116  -38.2794   24.1470 H   0  0  0  0  0  0
  -31.0800  -19.5829   18.6746 H   0  0  0  0  0  0
  -26.7414  -17.6271   22.9280 H   0  0  0  0  0  0
  -27.0890  -17.7167   21.2049 H   0  0  0  0  0  0
  -26.2981  -19.0672   22.0162 H   0  0  0  0  0  0
  -29.6127  -21.3155   16.6331 H   0  0  0  0  0  0
  -31.2676  -20.7275   16.7937 H   0  0  0  0  0  0
  -30.9594  -22.3144   16.1171 H   0  0  0  0  0  0
  -32.1290  -23.3121   19.5534 H   0  0  0  0  0  0
  -32.5924  -23.2438   17.8685 H   0  0  0  0  0  0
  -32.7652  -21.8180   18.8837 H   0  0  0  0  0  0
  -31.2061  -17.5990   21.3563 H   0  0  0  0  0  0
  -31.2562  -17.4841   19.6501 H   0  0  0  0  0  0
  -28.3483  -19.5480   23.3316 H   0  0  0  0  0  0
  -29.1288  -18.1243   22.7280 H   0  0  0  0  0  0
  -30.0749  -23.9926   20.2053 H   0  0  0  0  0  0
  -29.2686  -23.7268   21.6741 H   0  0  0  0  0  0
  -27.1054  -24.4827   20.6794 H   0  0  0  0  0  0
  -27.7943  -24.5114   19.0813 H   0  0  0  0  0  0
  -30.1026  -23.1580   18.1830 H   0  0  0  0  0  0
  -28.9394  -16.0424   20.6846 H   0  0  0  0  0  0
  1 25  1  0  0  0
  1 30  2  0  0  0
  1 85  1  0  0  0
  2  3  1  0  0  0
  2 25  1  0  0  0
  2 86  1  0  0  0
  2 87  1  0  0  0
  3  4  1  0  0  0
  3 88  1  0  0  0
  3 89  1  0  0  0
  4  5  1  0  0  0
  4 90  1  0  0  0
  4 91  1  0  0  0
  5  6  1  0  0  0
  5 26  1  0  0  0
  5 92  1  0  0  0
  6 25  1  0  0  0
  6 93  1  0  0  0
  6 94  1  0  0  0
  7  8  2  0  0  0
  7 26  1  0  0  0
  7 29  1  0  0  0
  8  9  1  0  0  0
  8 22  1  0  0  0
  9 10  1  0  0  0
  9 27  2  0  0  0
 10 11  2  0  0  0
 10 15  1  0  0  0
 11 12  1  0  0  0
 11 95  1  0  0  0
 12 13  2  0  0  0
 12 96  1  0  0  0
 13 14  1  0  0  0
 13 31  1  0  0  0
 14 15  2  0  0  0
 14 97  1  0  0  0
 15 98  1  0  0  0
 16 17  2  0  0  0
 16 21  1  0  0  0
 16 31  1  0  0  0
 17 18  1  0  0  0
 17 99  1  0  0  0
 18 19  2  0  0  0
 18100  1  0  0  0
 19 20  1  0  0  0
 19 24  1  0  0  0
 20 21  2  0  0  0
 20101  1  0  0  0
 21 23  1  0  0  0
 22 28  1  0  0  0
 22 32  2  0  0  0
 26 27  1  0  0  0
 28102  1  0  0  0
 28103  1  0  0  0
 29104  1  0  0  0
 29105  1  0  0  0
 33 34  1  0  0  0
 33 66  1  0  0  0
 33 70  2  0  0  0
 34 36  1  0  0  0
 34 59  1  0  0  0
 34106  1  0  0  0
 35 44  2  0  0  0
 35 45  1  0  0  0
 35 68  1  0  0  0
 36 56  1  0  0  0
 36107  1  0  0  0
 37 39  1  0  0  0
 37 47  1  0  0  0
 37 66  1  0  0  0
 37108  1  0  0  0
 38 43  2  0  0  0
 38 46  1  0  0  0
 38 47  1  0  0  0
 39 64  1  0  0  0
 39 67  2  0  0  0
 40 52  1  0  0  0
 40 53  2  0  0  0
 40 58  1  0  0  0
 41109  1  0  0  0
 41110  1  0  0  0
 41111  1  0  0  0
 41 48  1  0  0  0
 42 43  1  0  0  0
 42 66  1  0  0  0
 42112  1  0  0  0
 42113  1  0  0  0
 43 44  1  0  0  0
 44114  1  0  0  0
 45 46  2  0  0  0
 45115  1  0  0  0
 46116  1  0  0  0
 47117  1  0  0  0
 47118  1  0  0  0
 48 56  1  0  0  0
 48 65  1  0  0  0
 48119  1  0  0  0
 49 50  1  0  0  0
 49 53  1  0  0  0
 49 64  1  0  0  0
 49120  1  0  0  0
 50 51  1  0  0  0
 50121  1  0  0  0
 50122  1  0  0  0
 51 52  1  0  0  0
 51123  1  0  0  0
 51124  1  0  0  0
 52125  1  0  0  0
 52126  1  0  0  0
 53 54  1  0  0  0
 54 55  2  0  0  0
 54127  1  0  0  0
 55 57  1  0  0  0
 55128  1  0  0  0
 56 69  2  0  0  0
 57 58  2  0  0  0
 57129  1  0  0  0
 58130  1  0  0  0
 59 60  1  0  0  0
 59 61  1  0  0  0
 59 62  1  0  0  0
 60131  1  0  0  0
 60132  1  0  0  0
 60133  1  0  0  0
 61134  1  0  0  0
 61135  1  0  0  0
 61136  1  0  0  0
 62137  1  0  0  0
 62138  1  0  0  0
 62139  1  0  0  0
 63 65  1  0  0  0
 63140  1  0  0  0
 63141  1  0  0  0
 63142  1  0  0  0
 64143  1  0  0  0
 65144  1  0  0  0
 68 82  1  0  0  0
 71 72  2  0  0  0
 71 73  1  0  0  0
 71145  1  0  0  0
 72 74  1  0  0  0
 72 79  1  0  0  0
 73 75  2  0  0  0
 73 83  1  0  0  0
 74 80  1  0  0  0
 74 84  2  0  0  0
 75 81  1  0  0  0
 75 84  1  0  0  0
 76 80  1  0  0  0
 76146  1  0  0  0
 76147  1  0  0  0
 76148  1  0  0  0
 77149  1  0  0  0
 77150  1  0  0  0
 77151  1  0  0  0
 77 83  1  0  0  0
 78 83  1  0  0  0
 78152  1  0  0  0
 78153  1  0  0  0
 78154  1  0  0  0
 79 85  1  0  0  0
 79155  1  0  0  0
 79156  1  0  0  0
 80157  1  0  0  0
 80158  1  0  0  0
 81 82  1  0  0  0
 81159  1  0  0  0
 81160  1  0  0  0
 82161  1  0  0  0
 82162  1  0  0  0
 83163  1  0  0  0
 85164  1  0  0  0
M  ISO  4   1 100  68 101  82 101  85 100
M  END
> <chiral flag>
0

> <version>
0

> <s_m_source_file>
/data/baiqing/PycharmProjects/Reinvent-master-3.2/result/LINK_invent/BTK/process_docking_weight1_custom_sum_contain_oxygen_bond_distance_aromatic_linkinvent_7_9_3/rearranged_h_0046.sdf

> <i_m_source_file_index>
69

> <r_mmod_Potential_Energy-OPLS-2005>
234.143081665039

> <r_mmod_Stretch_Energy-OPLS-2005>
199.089782714844

> <r_mmod_Bend_Energy-OPLS-2005>
248.045959472656

> <r_mmod_Torsional_Energy-OPLS-2005>
209.08984375

> <r_mmod_Improper_Torsional_Energy-OPLS-2005>
8.97675323486328

> <r_mmod_Van_der_Waal_Energy-OPLS-2005>
133.378707885742

> <r_mmod_Electrostatic_Energy-OPLS-2005>
-499.10205078125

> <r_mmod_Solvation_Energy-OPLS-2005>
-218.731430053711

> <b_mmod_Minimization_Converged-OPLS-2005>
0

> <r_mmod_RMS_Derivative-OPLS-2005>
4.39758443832397

$$$$
70
                    3D
 Structure written by MMmdl.
168176  0  0  1  0            999 V2000
  -30.5212  -15.1355   20.4211 C   0  0  0  0  0  0
  -30.4264  -12.7314   19.5126 C   0  0  0  0  0  0
  -29.5198  -12.5579   18.2720 C   0  0  0  0  0  0
  -28.0637  -12.3060   18.6989 C   0  0  0  0  0  0
  -27.6105  -13.2721   19.8239 C   0  0  2  0  0  0
  -28.6492  -13.4080   20.9566 C   0  0  0  0  0  0
  -25.2376  -13.8254   20.5740 C   0  0  0  0  0  0
  -24.1725  -13.0436   20.9246 C   0  0  0  0  0  0
  -24.6382  -11.6937   20.8761 C   0  0  0  0  0  0
  -23.9084  -10.4290   21.0408 C   0  0  0  0  0  0
  -24.3626   -9.4207   21.9185 C   0  0  0  0  0  0
  -23.6296   -8.2247   22.0757 C   0  0  0  0  0  0
  -22.4277   -8.0288   21.3549 C   0  0  0  0  0  0
  -21.9915   -9.0256   20.4644 C   0  0  0  0  0  0
  -22.7253  -10.2135   20.3058 C   0  0  0  0  0  0
  -21.6849   -6.0734   22.5273 C   0  0  0  0  0  0
  -21.4017   -6.5637   23.8205 C   0  0  0  0  0  0
  -21.3662   -5.6792   24.9167 C   0  0  0  0  0  0
  -21.6045   -4.3054   24.7220 C   0  0  0  0  0  0
  -21.8818   -3.8145   23.4344 C   0  0  0  0  0  0
  -21.9189   -4.6959   22.3399 C   0  0  0  0  0  0
  -22.7742  -13.5187   21.1886 C   0  0  0  0  0  0
  -22.1654   -4.2148   21.0979 F   0  0  0  0  0  0
  -21.5632   -3.4540   25.7737 F   0  0  0  0  0  0
  -29.8917  -13.8759   20.3286 N   0  0  0  0  0  0
  -26.2805  -12.9527   20.3232 N   0  0  0  0  0  0
  -25.9329  -11.6637   20.5743 N   0  0  0  0  0  0
  -22.0411  -12.8176   22.0453 N   0  0  0  0  0  0
  -25.4028  -15.1986   20.4185 N   0  0  0  0  0  0
  -31.7466  -15.0851   20.2535 O   0  0  0  0  0  0
  -21.6642   -6.8883   21.4238 O   0  0  0  0  0  0
  -22.3419  -14.5488   20.6726 O   0  0  0  0  0  0
  -24.6560  -31.8300   23.1738 C   0  0  0  0  0  0
  -25.9267  -32.4634   23.8199 C   0  0  1  0  0  0
  -27.2262  -26.9954   20.2003 C   0  0  0  0  0  0
  -25.5963  -33.8441   24.2104 N   0  0  0  0  0  0
  -23.4683  -30.4401   21.5225 C   0  0  2  0  0  0
  -24.9211  -28.8287   20.1246 C   0  0  0  0  0  0
  -22.7639  -29.4457   22.4806 C   0  0  0  0  0  0
  -18.0311  -28.1393   22.8452 C   0  0  0  0  0  0
  -24.1482  -36.7220   23.2648 C   0  0  0  0  0  0
  -26.0309  -30.6597   21.3912 C   0  0  0  0  0  0
  -26.1025  -29.2523   20.7468 C   0  0  0  0  0  0
  -27.2555  -28.3597   20.7497 C   0  0  0  0  0  0
  -26.0126  -26.6934   19.5473 C   0  0  0  0  0  0
  -24.8968  -27.5673   19.5055 C   0  0  0  0  0  0
  -23.7057  -29.7511   20.1509 C   0  0  0  0  0  0
  -25.4129  -36.2989   24.0293 C   0  0  1  0  0  0
  -20.5932  -28.3734   23.1175 C   0  0  2  0  0  0
  -20.6788  -26.9414   22.5386 C   0  0  0  0  0  0
  -19.5771  -26.6369   21.5186 C   0  0  0  0  0  0
  -18.1946  -26.7929   22.1594 C   0  0  0  0  0  0
  -19.1573  -28.8886   23.2803 C   0  0  0  0  0  0
  -18.9500  -30.1474   23.8842 C   0  0  0  0  0  0
  -17.6501  -30.6591   24.0545 C   0  0  0  0  0  0
  -25.9079  -34.9374   23.5010 C   0  0  0  0  0  0
  -16.5388  -29.9084   23.6331 C   0  0  0  0  0  0
  -16.7297  -28.6498   23.0357 C   0  0  0  0  0  0
  -26.4545  -31.6550   25.0689 C   0  0  0  0  0  0
  -25.3683  -31.3779   26.1354 C   0  0  0  0  0  0
  -27.0440  -30.2933   24.6371 C   0  0  0  0  0  0
  -27.6045  -32.4368   25.7492 C   0  0  0  0  0  0
  -27.5564  -37.1766   24.8470 C   0  0  0  0  0  0
  -21.4324  -29.3047   22.3559 N   0  0  0  0  0  0
  -26.4277  -37.3716   23.9408 N   0  0  0  0  0  0
  -24.7397  -31.0025   22.0836 N   0  0  0  0  0  0
  -23.4195  -28.8025   23.3034 O   0  0  0  0  0  0
  -28.3027  -25.9948   20.1436 O   0  0  0  0  0  0
  -26.5698  -34.8895   22.4606 O   0  0  0  0  0  0
  -23.5641  -32.1254   23.6841 O   0  0  0  0  0  0
  -30.3211  -19.1422   21.3192 C   0  0  0  0  0  0
  -28.9138  -18.8430   19.4789 C   0  0  0  0  0  0
  -30.3190  -17.5177   21.6160 C   0  0  0  0  0  0
  -28.8267  -17.2090   19.8082 C   0  0  0  0  0  0
  -29.1110  -19.9694   20.6273 C   0  0  0  0  0  0
  -32.6341  -22.6863   18.5351 C   0  0  0  0  0  0
  -26.8713  -22.2960   20.3236 C   0  0  0  0  0  0
  -27.8035  -24.5514   22.1154 C   0  0  0  0  0  0
  -31.3834  -22.8597   19.4120 C   0  0  0  0  0  0
  -30.4216  -21.6686   19.2569 C   0  0  0  0  0  0
  -28.2998  -22.8259   20.0979 C   0  0  1  0  0  0
  -28.4371  -24.4814   20.7181 C   0  0  1  0  0  0
  -29.8746  -16.4464   20.6223 N   0  0  0  0  0  0
  -29.3646  -21.5786   20.3087 N   0  3  1  0  0  0
  -31.4539  -12.9023   19.1873 H   0  0  0  0  0  0
  -30.4577  -11.8151   20.1043 H   0  0  0  0  0  0
  -29.8775  -11.7386   17.6477 H   0  0  0  0  0  0
  -29.5684  -13.4578   17.6573 H   0  0  0  0  0  0
  -27.9969  -11.2757   19.0514 H   0  0  0  0  0  0
  -27.3948  -12.3784   17.8397 H   0  0  0  0  0  0
  -27.5367  -14.2490   19.3448 H   0  0  0  0  0  0
  -28.7918  -12.4634   21.4823 H   0  0  0  0  0  0
  -28.3132  -14.1335   21.7002 H   0  0  0  0  0  0
  -25.2769   -9.5676   22.4756 H   0  0  0  0  0  0
  -23.9996   -7.4641   22.7490 H   0  0  0  0  0  0
  -21.0845   -8.8778   19.8959 H   0  0  0  0  0  0
  -22.3708  -10.9667   19.6165 H   0  0  0  0  0  0
  -21.2010   -7.6144   23.9706 H   0  0  0  0  0  0
  -21.1486   -6.0523   25.9067 H   0  0  0  0  0  0
  -22.0593   -2.7608   23.2851 H   0  0  0  0  0  0
  -22.4042  -11.9837   22.4822 H   0  0  0  0  0  0
  -21.1038  -13.1199   22.2680 H   0  0  0  0  0  0
  -24.6354  -15.8523   20.5332 H   0  0  0  0  0  0
  -26.2564  -15.6391   20.1019 H   0  0  0  0  0  0
  -26.7338  -32.5199   23.0927 H   0  0  0  0  0  0
  -25.0093  -33.9552   25.0248 H   0  0  0  0  0  0
  -22.7777  -31.2687   21.3498 H   0  0  0  0  0  0
  -23.3741  -35.9547   23.3308 H   0  0  0  0  0  0
  -24.3562  -36.8887   22.2062 H   0  0  0  0  0  0
  -23.7251  -37.6413   23.6719 H   0  0  0  0  0  0
  -26.1948  -31.3972   20.6048 H   0  0  0  0  0  0
  -26.8984  -30.7258   22.0376 H   0  0  0  0  0  0
  -28.1671  -28.6924   21.2250 H   0  0  0  0  0  0
  -25.9148  -25.7306   19.0634 H   0  0  0  0  0  0
  -23.9993  -27.2373   19.0008 H   0  0  0  0  0  0
  -23.8633  -30.5165   19.3912 H   0  0  0  0  0  0
  -22.8165  -29.2062   19.8309 H   0  0  0  0  0  0
  -25.1312  -36.1789   25.0782 H   0  0  0  0  0  0
  -21.0020  -28.3343   24.1308 H   0  0  0  0  0  0
  -20.5643  -26.2362   23.3638 H   0  0  0  0  0  0
  -21.6654  -26.7393   22.1212 H   0  0  0  0  0  0
  -19.6935  -25.6266   21.1264 H   0  0  0  0  0  0
  -19.6706  -27.3137   20.6676 H   0  0  0  0  0  0
  -17.4215  -26.6664   21.4004 H   0  0  0  0  0  0
  -18.0342  -26.0083   22.8997 H   0  0  0  0  0  0
  -19.7983  -30.7277   24.2222 H   0  0  0  0  0  0
  -17.5063  -31.6269   24.5141 H   0  0  0  0  0  0
  -15.5386  -30.2966   23.7699 H   0  0  0  0  0  0
  -15.8695  -28.0805   22.7098 H   0  0  0  0  0  0
  -24.5887  -30.7102   25.7686 H   0  0  0  0  0  0
  -24.8823  -32.2949   26.4672 H   0  0  0  0  0  0
  -25.7904  -30.9043   27.0217 H   0  0  0  0  0  0
  -26.3077  -29.6631   24.1368 H   0  0  0  0  0  0
  -27.4000  -29.7290   25.5002 H   0  0  0  0  0  0
  -27.9008  -30.4157   23.9744 H   0  0  0  0  0  0
  -27.2631  -33.3735   26.1917 H   0  0  0  0  0  0
  -28.3917  -32.6838   25.0356 H   0  0  0  0  0  0
  -28.0637  -31.8601   26.5540 H   0  0  0  0  0  0
  -28.2551  -38.0088   24.7503 H   0  0  0  0  0  0
  -28.1085  -36.2604   24.6295 H   0  0  0  0  0  0
  -27.2279  -37.1409   25.8877 H   0  0  0  0  0  0
  -20.9576  -29.8805   21.6751 H   0  0  0  0  0  0
  -26.0119  -38.2768   24.1449 H   0  0  0  0  0  0
  -31.2266  -19.3020   20.7362 H   0  0  0  0  0  0
  -30.5414  -19.6341   22.2675 H   0  0  0  0  0  0
  -28.0086  -19.1118   18.9338 H   0  0  0  0  0  0
  -29.7104  -18.9636   18.7452 H   0  0  0  0  0  0
  -29.6903  -17.3602   22.4938 H   0  0  0  0  0  0
  -31.3222  -17.2479   21.9539 H   0  0  0  0  0  0
  -28.7081  -16.6815   18.8621 H   0  0  0  0  0  0
  -27.8881  -17.0444   20.3399 H   0  0  0  0  0  0
  -28.2584  -19.9242   21.3055 H   0  0  0  0  0  0
  -33.3166  -23.5302   18.6475 H   0  0  0  0  0  0
  -32.3698  -22.6050   17.4793 H   0  0  0  0  0  0
  -33.1847  -21.7840   18.8094 H   0  0  0  0  0  0
  -26.1292  -23.0420   20.0395 H   0  0  0  0  0  0
  -26.6988  -22.0326   21.3676 H   0  0  0  0  0  0
  -26.6823  -21.4081   19.7206 H   0  0  0  0  0  0
  -28.0678  -23.6809   22.7162 H   0  0  0  0  0  0
  -26.7165  -24.6025   22.0536 H   0  0  0  0  0  0
  -28.1441  -25.4332   22.6574 H   0  0  0  0  0  0
  -30.8824  -23.7906   19.1428 H   0  0  0  0  0  0
  -31.6991  -22.9568   20.4519 H   0  0  0  0  0  0
  -31.0400  -20.7757   19.2627 H   0  0  0  0  0  0
  -29.9610  -21.6706   18.2683 H   0  0  0  0  0  0
  -28.3284  -22.9962   19.0212 H   0  0  0  0  0  0
  -29.5081  -24.5067   20.9193 H   0  0  0  0  0  0
  -29.8322  -21.8513   21.1615 H   0  0  0  0  0  0
  1 25  1  0  0  0
  1 30  2  0  0  0
  1 83  1  0  0  0
  2  3  1  0  0  0
  2 25  1  0  0  0
  2 85  1  0  0  0
  2 86  1  0  0  0
  3  4  1  0  0  0
  3 87  1  0  0  0
  3 88  1  0  0  0
  4  5  1  0  0  0
  4 89  1  0  0  0
  4 90  1  0  0  0
  5  6  1  0  0  0
  5 26  1  0  0  0
  5 91  1  0  0  0
  6 25  1  0  0  0
  6 92  1  0  0  0
  6 93  1  0  0  0
  7  8  2  0  0  0
  7 26  1  0  0  0
  7 29  1  0  0  0
  8  9  1  0  0  0
  8 22  1  0  0  0
  9 10  1  0  0  0
  9 27  2  0  0  0
 10 11  2  0  0  0
 10 15  1  0  0  0
 11 12  1  0  0  0
 11 94  1  0  0  0
 12 13  2  0  0  0
 12 95  1  0  0  0
 13 14  1  0  0  0
 13 31  1  0  0  0
 14 15  2  0  0  0
 14 96  1  0  0  0
 15 97  1  0  0  0
 16 17  2  0  0  0
 16 21  1  0  0  0
 16 31  1  0  0  0
 17 18  1  0  0  0
 17 98  1  0  0  0
 18 19  2  0  0  0
 18 99  1  0  0  0
 19 20  1  0  0  0
 19 24  1  0  0  0
 20 21  2  0  0  0
 20100  1  0  0  0
 21 23  1  0  0  0
 22 28  1  0  0  0
 22 32  2  0  0  0
 26 27  1  0  0  0
 28101  1  0  0  0
 28102  1  0  0  0
 29103  1  0  0  0
 29104  1  0  0  0
 33 34  1  0  0  0
 33 66  1  0  0  0
 33 70  2  0  0  0
 34 36  1  0  0  0
 34 59  1  0  0  0
 34105  1  0  0  0
 35 44  2  0  0  0
 35 45  1  0  0  0
 35 68  1  0  0  0
 36 56  1  0  0  0
 36106  1  0  0  0
 37 39  1  0  0  0
 37 47  1  0  0  0
 37 66  1  0  0  0
 37107  1  0  0  0
 38 43  2  0  0  0
 38 46  1  0  0  0
 38 47  1  0  0  0
 39 64  1  0  0  0
 39 67  2  0  0  0
 40 52  1  0  0  0
 40 53  2  0  0  0
 40 58  1  0  0  0
 41108  1  0  0  0
 41109  1  0  0  0
 41110  1  0  0  0
 41 48  1  0  0  0
 42 43  1  0  0  0
 42 66  1  0  0  0
 42111  1  0  0  0
 42112  1  0  0  0
 43 44  1  0  0  0
 44113  1  0  0  0
 45 46  2  0  0  0
 45114  1  0  0  0
 46115  1  0  0  0
 47116  1  0  0  0
 47117  1  0  0  0
 48 56  1  0  0  0
 48 65  1  0  0  0
 48118  1  0  0  0
 49 50  1  0  0  0
 49 53  1  0  0  0
 49 64  1  0  0  0
 49119  1  0  0  0
 50 51  1  0  0  0
 50120  1  0  0  0
 50121  1  0  0  0
 51 52  1  0  0  0
 51122  1  0  0  0
 51123  1  0  0  0
 52124  1  0  0  0
 52125  1  0  0  0
 53 54  1  0  0  0
 54 55  2  0  0  0
 54126  1  0  0  0
 55 57  1  0  0  0
 55127  1  0  0  0
 56 69  2  0  0  0
 57 58  2  0  0  0
 57128  1  0  0  0
 58129  1  0  0  0
 59 60  1  0  0  0
 59 61  1  0  0  0
 59 62  1  0  0  0
 60130  1  0  0  0
 60131  1  0  0  0
 60132  1  0  0  0
 61133  1  0  0  0
 61134  1  0  0  0
 61135  1  0  0  0
 62136  1  0  0  0
 62137  1  0  0  0
 62138  1  0  0  0
 63 65  1  0  0  0
 63139  1  0  0  0
 63140  1  0  0  0
 63141  1  0  0  0
 64142  1  0  0  0
 65143  1  0  0  0
 68 82  1  0  0  0
 71 73  1  0  0  0
 71144  1  0  0  0
 71145  1  0  0  0
 71 75  1  0  0  0
 72 74  1  0  0  0
 72 75  1  0  0  0
 72146  1  0  0  0
 72147  1  0  0  0
 73 83  1  0  0  0
 73148  1  0  0  0
 73149  1  0  0  0
 74 83  1  0  0  0
 74150  1  0  0  0
 74151  1  0  0  0
 75 84  1  0  0  0
 75152  1  0  0  0
 76 79  1  0  0  0
 76153  1  0  0  0
 76154  1  0  0  0
 76155  1  0  0  0
 77156  1  0  0  0
 77157  1  0  0  0
 77158  1  0  0  0
 77 81  1  0  0  0
 78159  1  0  0  0
 78160  1  0  0  0
 78161  1  0  0  0
 78 82  1  0  0  0
 79 80  1  0  0  0
 79162  1  0  0  0
 79163  1  0  0  0
 80164  1  0  0  0
 80165  1  0  0  0
 80 84  1  0  0  0
 81 82  1  0  0  0
 81 84  1  0  0  0
 81166  1  0  0  0
 82167  1  0  0  0
 84168  1  0  0  0
M  CHG  1  84   1
M  ISO  4   1 100  68 101  82 101  83 100
M  END
> <chiral flag>
0

> <version>
0

> <s_m_source_file>
/data/baiqing/PycharmProjects/Reinvent-master-3.2/result/LINK_invent/BTK/process_docking_weight1_custom_sum_contain_oxygen_bond_distance_aromatic_linkinvent_7_9_3/rearranged_h_0046.sdf

> <i_m_source_file_index>
70

> <r_mmod_Potential_Energy-OPLS-2005>
1226.15124511719

> <r_mmod_Stretch_Energy-OPLS-2005>
439.641204833984

> <r_mmod_Bend_Energy-OPLS-2005>
486.356384277344

> <r_mmod_Torsional_Energy-OPLS-2005>
391.115631103516

> <r_mmod_Improper_Torsional_Energy-OPLS-2005>
2.31570172309875

> <r_mmod_Van_der_Waal_Energy-OPLS-2005>
107.173553466797

> <r_mmod_Electrostatic_Energy-OPLS-2005>
-126.462646484375

> <r_mmod_Solvation_Energy-OPLS-2005>
-405.651489257812

> <b_mmod_Minimization_Converged-OPLS-2005>
0

> <r_mmod_RMS_Derivative-OPLS-2005>
2.81058216094971

$$$$
71
                    3D
 Structure written by MMmdl.
157165  0  0  1  0            999 V2000
  -30.6071  -14.6923   20.4827 C   0  0  0  0  0  0
  -30.4588  -12.4114   19.4787 C   0  0  0  0  0  0
  -29.5456  -12.4756   18.2273 C   0  0  0  0  0  0
  -28.0582  -12.3237   18.6271 C   0  0  0  0  0  0
  -27.6597  -13.1987   19.8432 C   0  0  2  0  0  0
  -28.6927  -13.0944   20.9823 C   0  0  0  0  0  0
  -25.2578  -13.8113   20.5629 C   0  0  0  0  0  0
  -24.1861  -13.0277   20.9239 C   0  0  0  0  0  0
  -24.6514  -11.6778   20.8736 C   0  0  0  0  0  0
  -23.9218  -10.4174   21.0345 C   0  0  0  0  0  0
  -24.3770   -9.4109   21.9167 C   0  0  0  0  0  0
  -23.6342   -8.2224   22.0781 C   0  0  0  0  0  0
  -22.4331   -8.0309   21.3506 C   0  0  0  0  0  0
  -22.0087   -9.0248   20.4472 C   0  0  0  0  0  0
  -22.7495  -10.2079   20.2852 C   0  0  0  0  0  0
  -21.6914   -6.0759   22.5243 C   0  0  0  0  0  0
  -21.3953   -6.5671   23.8165 C   0  0  0  0  0  0
  -21.3517   -5.6821   24.9128 C   0  0  0  0  0  0
  -21.5987   -4.3072   24.7169 C   0  0  0  0  0  0
  -21.8746   -3.8202   23.4301 C   0  0  0  0  0  0
  -21.9159   -4.6980   22.3379 C   0  0  0  0  0  0
  -22.7862  -13.5007   21.1826 C   0  0  0  0  0  0
  -22.1587   -4.2151   21.0931 F   0  0  0  0  0  0
  -21.5782   -3.4581   25.7692 F   0  0  0  0  0  0
  -29.9971  -13.4632   20.4126 N   0  0  0  0  0  0
  -26.2970  -12.9252   20.3103 N   0  0  0  0  0  0
  -25.9386  -11.6386   20.5597 N   0  0  0  0  0  0
  -22.0613  -12.7836   22.0434 N   0  0  0  0  0  0
  -25.4185  -15.1888   20.4004 N   0  0  0  0  0  0
  -31.7965  -14.8218   20.1718 O   0  0  0  0  0  0
  -21.6614   -6.8948   21.4240 O   0  0  0  0  0  0
  -22.3398  -14.5168   20.6560 O   0  0  0  0  0  0
  -24.6392  -31.8559   23.1913 C   0  0  0  0  0  0
  -25.9204  -32.4748   23.8318 C   0  0  1  0  0  0
  -27.2235  -27.1910   20.1082 C   0  0  0  0  0  0
  -25.5965  -33.8562   24.2206 N   0  0  0  0  0  0
  -23.4410  -30.4657   21.5412 C   0  0  2  0  0  0
  -24.8817  -28.8982   20.1037 C   0  0  0  0  0  0
  -22.7555  -29.4546   22.4925 C   0  0  0  0  0  0
  -18.0291  -28.1390   22.8474 C   0  0  0  0  0  0
  -24.1465  -36.7261   23.2640 C   0  0  0  0  0  0
  -25.9897  -30.7289   21.3803 C   0  0  0  0  0  0
  -26.0551  -29.3498   20.7064 C   0  0  0  0  0  0
  -27.2223  -28.5106   20.7008 C   0  0  0  0  0  0
  -26.0115  -26.7994   19.5004 C   0  0  0  0  0  0
  -24.8647  -27.6266   19.4941 C   0  0  0  0  0  0
  -23.6588  -29.8008   20.1571 C   0  0  0  0  0  0
  -25.4098  -36.3071   24.0307 C   0  0  1  0  0  0
  -20.5907  -28.3706   23.1288 C   0  0  2  0  0  0
  -20.6766  -26.9422   22.5450 C   0  0  0  0  0  0
  -19.5768  -26.6368   21.5222 C   0  0  0  0  0  0
  -18.1933  -26.7928   22.1601 C   0  0  0  0  0  0
  -19.1557  -28.8849   23.2853 C   0  0  0  0  0  0
  -18.9457  -30.1452   23.8866 C   0  0  0  0  0  0
  -17.6467  -30.6587   24.0557 C   0  0  0  0  0  0
  -25.9069  -34.9471   23.5039 C   0  0  0  0  0  0
  -16.5354  -29.9087   23.6357 C   0  0  0  0  0  0
  -16.7274  -28.6509   23.0353 C   0  0  0  0  0  0
  -26.4471  -31.6630   25.0787 C   0  0  0  0  0  0
  -25.3601  -31.3882   26.1423 C   0  0  0  0  0  0
  -27.0374  -30.3037   24.6406 C   0  0  0  0  0  0
  -27.6013  -32.4412   25.7580 C   0  0  0  0  0  0
  -27.5557  -37.1814   24.8465 C   0  0  0  0  0  0
  -21.4255  -29.3060   22.3687 N   0  0  0  0  0  0
  -26.4280  -37.3767   23.9378 N   0  0  0  0  0  0
  -24.7101  -31.0388   22.0904 N   0  0  0  0  0  0
  -23.4238  -28.8037   23.3027 O   0  0  0  0  0  0
  -28.3278  -26.2918   20.1983 O   0  0  0  0  0  0
  -26.5680  -34.8998   22.4653 O   0  0  0  0  0  0
  -23.5539  -32.1409   23.7189 O   0  0  0  0  0  0
  -28.0510  -23.3688   21.5553 C   0  0  0  0  0  0
  -28.2594  -22.1678   22.2523 C   0  0  0  0  0  0
  -28.5890  -23.5174   20.2640 C   0  0  0  0  0  0
  -29.3341  -21.2230   20.4407 C   0  0  0  0  0  0
  -27.0361  -20.7824   24.0302 C   0  0  0  0  0  0
  -27.8868  -22.0183   23.7196 C   0  0  0  0  0  0
  -28.4808  -24.9442   19.5002 C   0  0  0  0  0  0
  -30.1493  -19.9285   19.9864 C   0  0  0  0  0  0
  -29.4849  -18.4559   20.0658 C   0  0  0  0  0  0
  -30.2121  -17.2676   20.9083 C   0  0  0  0  0  0
  -28.9099  -21.1264   21.6923 N   0  0  0  0  0  0
  -29.2076  -22.3827   19.7114 N   0  0  0  0  0  0
  -29.8200  -15.8000   20.7338 N   0  0  0  0  0  0
  -31.5238  -12.5218   19.2207 H   0  0  0  0  0  0
  -30.3947  -11.4234   19.9306 H   0  0  0  0  0  0
  -29.8496  -11.6982   17.5145 H   0  0  0  0  0  0
  -29.6849  -13.4268   17.7034 H   0  0  0  0  0  0
  -27.8790  -11.2685   18.8240 H   0  0  0  0  0  0
  -27.4225  -12.5971   17.7882 H   0  0  0  0  0  0
  -27.6952  -14.2250   19.4822 H   0  0  0  0  0  0
  -28.7084  -12.0775   21.3778 H   0  0  0  0  0  0
  -28.4013  -13.7347   21.8186 H   0  0  0  0  0  0
  -25.2962   -9.5602   22.4663 H   0  0  0  0  0  0
  -24.0007   -7.4573   22.7504 H   0  0  0  0  0  0
  -21.1133   -8.8611   19.8666 H   0  0  0  0  0  0
  -22.4059  -10.9492   19.5776 H   0  0  0  0  0  0
  -21.1880   -7.6183   23.9628 H   0  0  0  0  0  0
  -21.1409   -6.0606   25.9019 H   0  0  0  0  0  0
  -22.0729   -2.7654   23.2800 H   0  0  0  0  0  0
  -22.4540  -11.9518   22.4690 H   0  0  0  0  0  0
  -21.1058  -13.0421   22.2493 H   0  0  0  0  0  0
  -24.6505  -15.8353   20.5360 H   0  0  0  0  0  0
  -26.2648  -15.6383   20.0718 H   0  0  0  0  0  0
  -26.7305  -32.5283   23.1092 H   0  0  0  0  0  0
  -25.0058  -33.9648   25.0314 H   0  0  0  0  0  0
  -22.7362  -31.2879   21.4013 H   0  0  0  0  0  0
  -23.3736  -35.9596   23.3396 H   0  0  0  0  0  0
  -24.3525  -36.8804   22.2042 H   0  0  0  0  0  0
  -23.7230  -37.6482   23.6621 H   0  0  0  0  0  0
  -26.1635  -31.4957   20.6280 H   0  0  0  0  0  0
  -26.8509  -30.7587   22.0296 H   0  0  0  0  0  0
  -28.1211  -28.8661   21.1815 H   0  0  0  0  0  0
  -25.9276  -25.8098   19.0717 H   0  0  0  0  0  0
  -23.9542  -27.2616   19.0451 H   0  0  0  0  0  0
  -23.8035  -30.5868   19.4190 H   0  0  0  0  0  0
  -22.7611  -29.2721   19.8314 H   0  0  0  0  0  0
  -25.1310  -36.1929   25.0802 H   0  0  0  0  0  0
  -20.9961  -28.3261   24.1417 H   0  0  0  0  0  0
  -20.5626  -26.2309   23.3645 H   0  0  0  0  0  0
  -21.6630  -26.7402   22.1278 H   0  0  0  0  0  0
  -19.6950  -25.6258   21.1285 H   0  0  0  0  0  0
  -19.6737  -27.3141   20.6723 H   0  0  0  0  0  0
  -17.4228  -26.6688   21.3985 H   0  0  0  0  0  0
  -18.0317  -26.0048   22.8972 H   0  0  0  0  0  0
  -19.7917  -30.7286   24.2222 H   0  0  0  0  0  0
  -17.5007  -31.6264   24.5162 H   0  0  0  0  0  0
  -15.5353  -30.2980   23.7678 H   0  0  0  0  0  0
  -15.8658  -28.0815   22.7099 H   0  0  0  0  0  0
  -24.5866  -30.7099   25.7751 H   0  0  0  0  0  0
  -24.8641  -32.3079   26.4578 H   0  0  0  0  0  0
  -25.7826  -30.9274   27.0358 H   0  0  0  0  0  0
  -26.3050  -29.6778   24.1268 H   0  0  0  0  0  0
  -27.3819  -29.7329   25.5042 H   0  0  0  0  0  0
  -27.9020  -30.4293   23.9877 H   0  0  0  0  0  0
  -27.2629  -33.3811   26.1968 H   0  0  0  0  0  0
  -28.3929  -32.6801   25.0462 H   0  0  0  0  0  0
  -28.0534  -31.8629   26.5638 H   0  0  0  0  0  0
  -28.2618  -38.0075   24.7491 H   0  0  0  0  0  0
  -28.1036  -36.2619   24.6347 H   0  0  0  0  0  0
  -27.2307  -37.1543   25.8884 H   0  0  0  0  0  0
  -20.9450  -29.8759   21.6855 H   0  0  0  0  0  0
  -26.0178  -38.2861   24.1326 H   0  0  0  0  0  0
  -27.5048  -24.1874   21.9925 H   0  0  0  0  0  0
  -26.0634  -20.8642   23.5444 H   0  0  0  0  0  0
  -26.8422  -20.7107   25.1082 H   0  0  0  0  0  0
  -27.5300  -19.8609   23.7151 H   0  0  0  0  0  0
  -27.3389  -22.8955   24.0576 H   0  0  0  0  0  0
  -28.7926  -21.9824   24.3144 H   0  0  0  0  0  0
  -27.8441  -24.8842   18.6145 H   0  0  0  0  0  0
  -29.4770  -25.0418   19.0621 H   0  0  0  0  0  0
  -31.0570  -19.8856   20.5847 H   0  0  0  0  0  0
  -30.4893  -20.0693   18.9510 H   0  0  0  0  0  0
  -29.3853  -18.0969   19.0380 H   0  0  0  0  0  0
  -28.4618  -18.6198   20.4029 H   0  0  0  0  0  0
  -30.0035  -17.4689   21.9632 H   0  0  0  0  0  0
  -31.2949  -17.3750   20.8207 H   0  0  0  0  0  0
  -28.8539  -15.5732   20.9300 H   0  0  0  0  0  0
  1 25  1  0  0  0
  1 30  2  0  0  0
  1 83  1  0  0  0
  2  3  1  0  0  0
  2 25  1  0  0  0
  2 84  1  0  0  0
  2 85  1  0  0  0
  3  4  1  0  0  0
  3 86  1  0  0  0
  3 87  1  0  0  0
  4  5  1  0  0  0
  4 88  1  0  0  0
  4 89  1  0  0  0
  5  6  1  0  0  0
  5 26  1  0  0  0
  5 90  1  0  0  0
  6 25  1  0  0  0
  6 91  1  0  0  0
  6 92  1  0  0  0
  7  8  2  0  0  0
  7 26  1  0  0  0
  7 29  1  0  0  0
  8  9  1  0  0  0
  8 22  1  0  0  0
  9 10  1  0  0  0
  9 27  2  0  0  0
 10 11  2  0  0  0
 10 15  1  0  0  0
 11 12  1  0  0  0
 11 93  1  0  0  0
 12 13  2  0  0  0
 12 94  1  0  0  0
 13 14  1  0  0  0
 13 31  1  0  0  0
 14 15  2  0  0  0
 14 95  1  0  0  0
 15 96  1  0  0  0
 16 17  2  0  0  0
 16 21  1  0  0  0
 16 31  1  0  0  0
 17 18  1  0  0  0
 17 97  1  0  0  0
 18 19  2  0  0  0
 18 98  1  0  0  0
 19 20  1  0  0  0
 19 24  1  0  0  0
 20 21  2  0  0  0
 20 99  1  0  0  0
 21 23  1  0  0  0
 22 28  1  0  0  0
 22 32  2  0  0  0
 26 27  1  0  0  0
 28100  1  0  0  0
 28101  1  0  0  0
 29102  1  0  0  0
 29103  1  0  0  0
 33 34  1  0  0  0
 33 66  1  0  0  0
 33 70  2  0  0  0
 34 36  1  0  0  0
 34 59  1  0  0  0
 34104  1  0  0  0
 35 44  2  0  0  0
 35 45  1  0  0  0
 35 68  1  0  0  0
 36 56  1  0  0  0
 36105  1  0  0  0
 37 39  1  0  0  0
 37 47  1  0  0  0
 37 66  1  0  0  0
 37106  1  0  0  0
 38 43  2  0  0  0
 38 46  1  0  0  0
 38 47  1  0  0  0
 39 64  1  0  0  0
 39 67  2  0  0  0
 40 52  1  0  0  0
 40 53  2  0  0  0
 40 58  1  0  0  0
 41107  1  0  0  0
 41108  1  0  0  0
 41109  1  0  0  0
 41 48  1  0  0  0
 42 43  1  0  0  0
 42 66  1  0  0  0
 42110  1  0  0  0
 42111  1  0  0  0
 43 44  1  0  0  0
 44112  1  0  0  0
 45 46  2  0  0  0
 45113  1  0  0  0
 46114  1  0  0  0
 47115  1  0  0  0
 47116  1  0  0  0
 48 56  1  0  0  0
 48 65  1  0  0  0
 48117  1  0  0  0
 49 50  1  0  0  0
 49 53  1  0  0  0
 49 64  1  0  0  0
 49118  1  0  0  0
 50 51  1  0  0  0
 50119  1  0  0  0
 50120  1  0  0  0
 51 52  1  0  0  0
 51121  1  0  0  0
 51122  1  0  0  0
 52123  1  0  0  0
 52124  1  0  0  0
 53 54  1  0  0  0
 54 55  2  0  0  0
 54125  1  0  0  0
 55 57  1  0  0  0
 55126  1  0  0  0
 56 69  2  0  0  0
 57 58  2  0  0  0
 57127  1  0  0  0
 58128  1  0  0  0
 59 60  1  0  0  0
 59 61  1  0  0  0
 59 62  1  0  0  0
 60129  1  0  0  0
 60130  1  0  0  0
 60131  1  0  0  0
 61132  1  0  0  0
 61133  1  0  0  0
 61134  1  0  0  0
 62135  1  0  0  0
 62136  1  0  0  0
 62137  1  0  0  0
 63 65  1  0  0  0
 63138  1  0  0  0
 63139  1  0  0  0
 63140  1  0  0  0
 64141  1  0  0  0
 65142  1  0  0  0
 68 77  1  0  0  0
 71 72  2  0  0  0
 71 73  1  0  0  0
 71143  1  0  0  0
 72 76  1  0  0  0
 72 81  1  0  0  0
 73 77  1  0  0  0
 73 82  2  0  0  0
 74 78  1  0  0  0
 74 81  2  0  0  0
 74 82  1  0  0  0
 75 76  1  0  0  0
 75144  1  0  0  0
 75145  1  0  0  0
 75146  1  0  0  0
 76147  1  0  0  0
 76148  1  0  0  0
 77149  1  0  0  0
 77150  1  0  0  0
 78 79  1  0  0  0
 78151  1  0  0  0
 78152  1  0  0  0
 79 80  1  0  0  0
 79153  1  0  0  0
 79154  1  0  0  0
 80 83  1  0  0  0
 80155  1  0  0  0
 80156  1  0  0  0
 83157  1  0  0  0
M  ISO  4   1 100  68 101  77 101  83 100
M  END
> <chiral flag>
0

> <version>
0

> <s_m_source_file>
/data/baiqing/PycharmProjects/Reinvent-master-3.2/result/LINK_invent/BTK/process_docking_weight1_custom_sum_contain_oxygen_bond_distance_aromatic_linkinvent_7_9_3/rearranged_h_0046.sdf

> <i_m_source_file_index>
71

> <r_mmod_Potential_Energy-OPLS-2005>
-229.135894775391

> <r_mmod_Stretch_Energy-OPLS-2005>
144.184188842773

> <r_mmod_Bend_Energy-OPLS-2005>
205.679000854492

> <r_mmod_Torsional_Energy-OPLS-2005>
212.599945068359

> <r_mmod_Improper_Torsional_Energy-OPLS-2005>
5.28183603286743

> <r_mmod_Van_der_Waal_Energy-OPLS-2005>
133.16748046875

> <r_mmod_Electrostatic_Energy-OPLS-2005>
-791.153381347656

> <r_mmod_Solvation_Energy-OPLS-2005>
-233.433166503906

> <b_mmod_Minimization_Converged-OPLS-2005>
0

> <r_mmod_RMS_Derivative-OPLS-2005>
17.5421886444092

$$$$
72
                    3D
 Structure written by MMmdl.
169177  0  0  1  0            999 V2000
  -30.7851  -14.3868   20.6698 C   0  0  0  0  0  0
  -30.4153  -12.2940   19.4169 C   0  0  0  0  0  0
  -29.4955  -12.5342   18.2051 C   0  0  0  0  0  0
  -28.0168  -12.3935   18.6109 C   0  0  0  0  0  0
  -27.6678  -13.2159   19.8791 C   0  0  2  0  0  0
  -28.7034  -12.9809   21.0019 C   0  0  0  0  0  0
  -25.2605  -13.8190   20.5699 C   0  0  0  0  0  0
  -24.1852  -13.0454   20.9151 C   0  0  0  0  0  0
  -24.6412  -11.6921   20.8690 C   0  0  0  0  0  0
  -23.9065  -10.4306   21.0373 C   0  0  0  0  0  0
  -24.3611   -9.4223   21.9156 C   0  0  0  0  0  0
  -23.6294   -8.2256   22.0735 C   0  0  0  0  0  0
  -22.4271   -8.0287   21.3539 C   0  0  0  0  0  0
  -21.9906   -9.0252   20.4633 C   0  0  0  0  0  0
  -22.7233  -10.2132   20.3034 C   0  0  0  0  0  0
  -21.6864   -6.0730   22.5288 C   0  0  0  0  0  0
  -21.4023   -6.5631   23.8220 C   0  0  0  0  0  0
  -21.3652   -5.6779   24.9178 C   0  0  0  0  0  0
  -21.6042   -4.3041   24.7228 C   0  0  0  0  0  0
  -21.8825   -3.8137   23.4347 C   0  0  0  0  0  0
  -21.9196   -4.6958   22.3407 C   0  0  0  0  0  0
  -22.7870  -13.5248   21.1817 C   0  0  0  0  0  0
  -22.1672   -4.2145   21.0983 F   0  0  0  0  0  0
  -21.5611   -3.4525   25.7737 F   0  0  0  0  0  0
  -30.0524  -13.2559   20.4711 N   0  0  0  0  0  0
  -26.3058  -12.9378   20.3366 N   0  0  0  0  0  0
  -25.9342  -11.6521   20.5710 N   0  0  0  0  0  0
  -22.0500  -12.8254   22.0382 N   0  0  0  0  0  0
  -25.4336  -15.1916   20.4203 N   0  0  0  0  0  0
  -31.7952  -14.6449   20.0051 O   0  0  0  0  0  0
  -21.6638   -6.8880   21.4250 O   0  0  0  0  0  0
  -22.3557  -14.5548   20.6649 O   0  0  0  0  0  0
  -24.6117  -31.8702   23.2086 C   0  0  0  0  0  0
  -25.9030  -32.4830   23.8369 C   0  0  1  0  0  0
  -27.2516  -27.4791   20.0791 C   0  0  0  0  0  0
  -25.5912  -33.8630   24.2324 N   0  0  0  0  0  0
  -23.4000  -30.4911   21.5471 C   0  0  2  0  0  0
  -24.8494  -28.9550   20.1169 C   0  0  0  0  0  0
  -22.7381  -29.4673   22.4976 C   0  0  0  0  0  0
  -18.0275  -28.1359   22.8493 C   0  0  0  0  0  0
  -24.1500  -36.7329   23.2637 C   0  0  0  0  0  0
  -25.9230  -30.8473   21.3543 C   0  0  0  0  0  0
  -26.0050  -29.4809   20.7075 C   0  0  0  0  0  0
  -27.2090  -28.7485   20.6904 C   0  0  0  0  0  0
  -26.0814  -26.9536   19.4914 C   0  0  0  0  0  0
  -24.8772  -27.6860   19.5115 C   0  0  0  0  0  0
  -23.6098  -29.8182   20.1630 C   0  0  0  0  0  0
  -25.4116  -36.3122   24.0341 C   0  0  1  0  0  0
  -20.5859  -28.3655   23.1317 C   0  0  2  0  0  0
  -20.6770  -26.9392   22.5411 C   0  0  0  0  0  0
  -19.5748  -26.6380   21.5210 C   0  0  0  0  0  0
  -18.1930  -26.7909   22.1625 C   0  0  0  0  0  0
  -19.1523  -28.8821   23.2910 C   0  0  0  0  0  0
  -18.9454  -30.1426   23.8918 C   0  0  0  0  0  0
  -17.6458  -30.6572   24.0568 C   0  0  0  0  0  0
  -25.9038  -34.9487   23.5127 C   0  0  0  0  0  0
  -16.5347  -29.9079   23.6313 C   0  0  0  0  0  0
  -16.7263  -28.6493   23.0339 C   0  0  0  0  0  0
  -26.4469  -31.6573   25.0663 C   0  0  0  0  0  0
  -25.3751  -31.3655   26.1415 C   0  0  0  0  0  0
  -27.0272  -30.3029   24.5969 C   0  0  0  0  0  0
  -27.6058  -32.4254   25.7420 C   0  0  0  0  0  0
  -27.5586  -37.1814   24.8458 C   0  0  0  0  0  0
  -21.4105  -29.3041   22.3723 N   0  0  0  0  0  0
  -26.4294  -37.3809   23.9420 N   0  0  0  0  0  0
  -24.6635  -31.0826   22.0964 N   0  0  0  0  0  0
  -23.4170  -28.8222   23.3014 O   0  0  0  0  0  0
  -28.4337  -26.7788   20.0498 O   0  0  0  0  0  0
  -26.5580  -34.8942   22.4671 O   0  0  0  0  0  0
  -23.5317  -32.1430   23.7509 O   0  0  0  0  0  0
  -26.3810  -23.1140   21.0001 C   0  0  0  0  0  0
  -27.7648  -23.1580   20.7217 C   0  0  0  0  0  0
  -26.6915  -21.2115   22.2543 C   0  0  0  0  0  0
  -28.0846  -21.2498   21.9732 C   0  0  0  0  0  0
  -26.0591  -20.1227   23.0993 C   0  0  0  0  0  0
  -32.1944  -15.2302   24.9275 C   0  0  0  0  0  0
  -28.3324  -24.3228   19.9363 C   0  0  0  0  0  0
  -29.0414  -20.1859   22.4927 C   0  0  0  0  0  0
  -31.9876  -15.3556   23.4157 C   0  0  0  0  0  0
  -29.2892  -19.0638   21.4679 C   0  0  0  0  0  0
  -29.6877  -17.7309   22.1214 C   0  0  0  0  0  0
  -30.5318  -15.0609   22.9962 C   0  0  0  0  0  0
  -30.1264  -16.6791   21.0790 C   0  0  0  0  0  0
  -28.4275  -25.5793   20.8177 C   0  0  0  0  0  0
  -25.8391  -22.1450   21.7705 N   0  0  0  0  0  0
  -28.6264  -22.2293   21.2057 N   0  0  0  0  0  0
  -30.3030  -15.2886   21.5576 N   0  0  0  0  0  0
  -31.4625  -12.3726   19.1166 H   0  0  0  0  0  0
  -30.2938  -11.2774   19.7934 H   0  0  0  0  0  0
  -29.7342  -11.8334   17.4045 H   0  0  0  0  0  0
  -29.6759  -13.5305   17.7993 H   0  0  0  0  0  0
  -27.8177  -11.3356   18.7825 H   0  0  0  0  0  0
  -27.3727  -12.6911   17.7819 H   0  0  0  0  0  0
  -27.7174  -14.2690   19.5992 H   0  0  0  0  0  0
  -28.6609  -11.9475   21.3486 H   0  0  0  0  0  0
  -28.4514  -13.5925   21.8669 H   0  0  0  0  0  0
  -25.2761   -9.5698   22.4717 H   0  0  0  0  0  0
  -24.0006   -7.4650   22.7453 H   0  0  0  0  0  0
  -21.0828   -8.8765   19.8958 H   0  0  0  0  0  0
  -22.3689  -10.9647   19.6119 H   0  0  0  0  0  0
  -21.2033   -7.6138   23.9733 H   0  0  0  0  0  0
  -21.1461   -6.0497   25.9078 H   0  0  0  0  0  0
  -22.0609   -2.7599   23.2850 H   0  0  0  0  0  0
  -22.4112  -11.9946   22.4833 H   0  0  0  0  0  0
  -21.1096  -13.1268   22.2517 H   0  0  0  0  0  0
  -24.6763  -15.8528   20.5533 H   0  0  0  0  0  0
  -26.3063  -15.6362   20.1640 H   0  0  0  0  0  0
  -26.7107  -32.5563   23.1143 H   0  0  0  0  0  0
  -25.0107  -33.9791   25.0504 H   0  0  0  0  0  0
  -22.6896  -31.3082   21.4030 H   0  0  0  0  0  0
  -23.3755  -35.9665   23.3284 H   0  0  0  0  0  0
  -24.3617  -36.8941   22.2054 H   0  0  0  0  0  0
  -23.7244  -37.6537   23.6632 H   0  0  0  0  0  0
  -26.0212  -31.6105   20.5817 H   0  0  0  0  0  0
  -26.8183  -30.9104   21.9610 H   0  0  0  0  0  0
  -28.1028  -29.1549   21.1435 H   0  0  0  0  0  0
  -26.0972  -25.9937   18.9998 H   0  0  0  0  0  0
  -23.9916  -27.2726   19.0521 H   0  0  0  0  0  0
  -23.7209  -30.5909   19.4010 H   0  0  0  0  0  0
  -22.7365  -29.2353   19.8668 H   0  0  0  0  0  0
  -25.1288  -36.1990   25.0829 H   0  0  0  0  0  0
  -20.9965  -28.3216   24.1433 H   0  0  0  0  0  0
  -20.5670  -26.2264   23.3597 H   0  0  0  0  0  0
  -21.6644  -26.7429   22.1210 H   0  0  0  0  0  0
  -19.6909  -25.6301   21.1220 H   0  0  0  0  0  0
  -19.6683  -27.3215   20.6760 H   0  0  0  0  0  0
  -17.4200  -26.6663   21.4021 H   0  0  0  0  0  0
  -18.0314  -26.0037   22.9004 H   0  0  0  0  0  0
  -19.7936  -30.7238   24.2286 H   0  0  0  0  0  0
  -17.5020  -31.6250   24.5173 H   0  0  0  0  0  0
  -15.5355  -30.3006   23.7604 H   0  0  0  0  0  0
  -15.8664  -28.0837   22.7019 H   0  0  0  0  0  0
  -24.5945  -30.6975   25.7752 H   0  0  0  0  0  0
  -24.8917  -32.2794   26.4857 H   0  0  0  0  0  0
  -25.8127  -30.8826   27.0160 H   0  0  0  0  0  0
  -26.2771  -29.6802   24.1076 H   0  0  0  0  0  0
  -27.4136  -29.7238   25.4365 H   0  0  0  0  0  0
  -27.8563  -30.4369   23.9023 H   0  0  0  0  0  0
  -27.2703  -33.3556   26.2013 H   0  0  0  0  0  0
  -28.3857  -32.6798   25.0228 H   0  0  0  0  0  0
  -28.0724  -31.8342   26.5308 H   0  0  0  0  0  0
  -28.2597  -38.0124   24.7543 H   0  0  0  0  0  0
  -28.1084  -36.2656   24.6224 H   0  0  0  0  0  0
  -27.2307  -37.1398   25.8862 H   0  0  0  0  0  0
  -20.9230  -29.8790   21.6992 H   0  0  0  0  0  0
  -26.0183  -38.2885   24.1426 H   0  0  0  0  0  0
  -25.7128  -23.8788   20.6298 H   0  0  0  0  0  0
  -26.3894  -20.1995   24.1367 H   0  0  0  0  0  0
  -26.3369  -19.1400   22.7182 H   0  0  0  0  0  0
  -24.9714  -20.1912   23.0829 H   0  0  0  0  0  0
  -33.2192  -15.4868   25.1995 H   0  0  0  0  0  0
  -32.0031  -14.2127   25.2703 H   0  0  0  0  0  0
  -31.5317  -15.9016   25.4766 H   0  0  0  0  0  0
  -27.6893  -24.4938   19.0748 H   0  0  0  0  0  0
  -29.3129  -24.0709   19.5297 H   0  0  0  0  0  0
  -28.6483  -19.7743   23.4214 H   0  0  0  0  0  0
  -29.9900  -20.6509   22.7661 H   0  0  0  0  0  0
  -32.6711  -14.6750   22.9072 H   0  0  0  0  0  0
  -32.2765  -16.3614   23.1052 H   0  0  0  0  0  0
  -30.0383  -19.3896   20.7456 H   0  0  0  0  0  0
  -28.3757  -18.8892   20.8985 H   0  0  0  0  0  0
  -28.8290  -17.3730   22.6901 H   0  0  0  0  0  0
  -30.4941  -17.9062   22.8336 H   0  0  0  0  0  0
  -29.8408  -15.6440   23.6024 H   0  0  0  0  0  0
  -30.2983  -14.0244   23.2453 H   0  0  0  0  0  0
  -31.0603  -17.0271   20.6301 H   0  0  0  0  0  0
  -29.3941  -16.6576   20.2680 H   0  0  0  0  0  0
  -29.3344  -25.5370   21.4212 H   0  0  0  0  0  0
  -27.5995  -25.6036   21.5308 H   0  0  0  0  0  0
  1 25  1  0  0  0
  1 30  2  0  0  0
  1 87  1  0  0  0
  2  3  1  0  0  0
  2 25  1  0  0  0
  2 88  1  0  0  0
  2 89  1  0  0  0
  3  4  1  0  0  0
  3 90  1  0  0  0
  3 91  1  0  0  0
  4  5  1  0  0  0
  4 92  1  0  0  0
  4 93  1  0  0  0
  5  6  1  0  0  0
  5 26  1  0  0  0
  5 94  1  0  0  0
  6 25  1  0  0  0
  6 95  1  0  0  0
  6 96  1  0  0  0
  7  8  2  0  0  0
  7 26  1  0  0  0
  7 29  1  0  0  0
  8  9  1  0  0  0
  8 22  1  0  0  0
  9 10  1  0  0  0
  9 27  2  0  0  0
 10 11  2  0  0  0
 10 15  1  0  0  0
 11 12  1  0  0  0
 11 97  1  0  0  0
 12 13  2  0  0  0
 12 98  1  0  0  0
 13 14  1  0  0  0
 13 31  1  0  0  0
 14 15  2  0  0  0
 14 99  1  0  0  0
 15100  1  0  0  0
 16 17  2  0  0  0
 16 21  1  0  0  0
 16 31  1  0  0  0
 17 18  1  0  0  0
 17101  1  0  0  0
 18 19  2  0  0  0
 18102  1  0  0  0
 19 20  1  0  0  0
 19 24  1  0  0  0
 20 21  2  0  0  0
 20103  1  0  0  0
 21 23  1  0  0  0
 22 28  1  0  0  0
 22 32  2  0  0  0
 26 27  1  0  0  0
 28104  1  0  0  0
 28105  1  0  0  0
 29106  1  0  0  0
 29107  1  0  0  0
 33 34  1  0  0  0
 33 66  1  0  0  0
 33 70  2  0  0  0
 34 36  1  0  0  0
 34 59  1  0  0  0
 34108  1  0  0  0
 35 44  2  0  0  0
 35 45  1  0  0  0
 35 68  1  0  0  0
 36 56  1  0  0  0
 36109  1  0  0  0
 37 39  1  0  0  0
 37 47  1  0  0  0
 37 66  1  0  0  0
 37110  1  0  0  0
 38 43  2  0  0  0
 38 46  1  0  0  0
 38 47  1  0  0  0
 39 64  1  0  0  0
 39 67  2  0  0  0
 40 52  1  0  0  0
 40 53  2  0  0  0
 40 58  1  0  0  0
 41111  1  0  0  0
 41112  1  0  0  0
 41113  1  0  0  0
 41 48  1  0  0  0
 42 43  1  0  0  0
 42 66  1  0  0  0
 42114  1  0  0  0
 42115  1  0  0  0
 43 44  1  0  0  0
 44116  1  0  0  0
 45 46  2  0  0  0
 45117  1  0  0  0
 46118  1  0  0  0
 47119  1  0  0  0
 47120  1  0  0  0
 48 56  1  0  0  0
 48 65  1  0  0  0
 48121  1  0  0  0
 49 50  1  0  0  0
 49 53  1  0  0  0
 49 64  1  0  0  0
 49122  1  0  0  0
 50 51  1  0  0  0
 50123  1  0  0  0
 50124  1  0  0  0
 51 52  1  0  0  0
 51125  1  0  0  0
 51126  1  0  0  0
 52127  1  0  0  0
 52128  1  0  0  0
 53 54  1  0  0  0
 54 55  2  0  0  0
 54129  1  0  0  0
 55 57  1  0  0  0
 55130  1  0  0  0
 56 69  2  0  0  0
 57 58  2  0  0  0
 57131  1  0  0  0
 58132  1  0  0  0
 59 60  1  0  0  0
 59 61  1  0  0  0
 59 62  1  0  0  0
 60133  1  0  0  0
 60134  1  0  0  0
 60135  1  0  0  0
 61136  1  0  0  0
 61137  1  0  0  0
 61138  1  0  0  0
 62139  1  0  0  0
 62140  1  0  0  0
 62141  1  0  0  0
 63 65  1  0  0  0
 63142  1  0  0  0
 63143  1  0  0  0
 63144  1  0  0  0
 64145  1  0  0  0
 65146  1  0  0  0
 68 84  1  0  0  0
 71 72  2  0  0  0
 71 85  1  0  0  0
 71147  1  0  0  0
 72 77  1  0  0  0
 72 86  1  0  0  0
 73 74  1  0  0  0
 73 75  1  0  0  0
 73 85  2  0  0  0
 74 78  1  0  0  0
 74 86  2  0  0  0
 75148  1  0  0  0
 75149  1  0  0  0
 75150  1  0  0  0
 76 79  1  0  0  0
 76151  1  0  0  0
 76152  1  0  0  0
 76153  1  0  0  0
 77 84  1  0  0  0
 77154  1  0  0  0
 77155  1  0  0  0
 78 80  1  0  0  0
 78156  1  0  0  0
 78157  1  0  0  0
 79 82  1  0  0  0
 79158  1  0  0  0
 79159  1  0  0  0
 80 81  1  0  0  0
 80160  1  0  0  0
 80161  1  0  0  0
 81 83  1  0  0  0
 81162  1  0  0  0
 81163  1  0  0  0
 82 87  1  0  0  0
 82164  1  0  0  0
 82165  1  0  0  0
 83 87  1  0  0  0
 83166  1  0  0  0
 83167  1  0  0  0
 84168  1  0  0  0
 84169  1  0  0  0
M  ISO  4   1 100  68 101  84 101  87 100
M  END
> <chiral flag>
0

> <version>
0

> <s_m_source_file>
/data/baiqing/PycharmProjects/Reinvent-master-3.2/result/LINK_invent/BTK/process_docking_weight1_custom_sum_contain_oxygen_bond_distance_aromatic_linkinvent_7_9_3/rearranged_h_0046.sdf

> <i_m_source_file_index>
72

> <r_mmod_Potential_Energy-OPLS-2005>
173.055206298828

> <r_mmod_Stretch_Energy-OPLS-2005>
37.0695037841797

> <r_mmod_Bend_Energy-OPLS-2005>
94.5164108276367

> <r_mmod_Torsional_Energy-OPLS-2005>
309.587005615234

> <r_mmod_Improper_Torsional_Energy-OPLS-2005>
4.22195148468018

> <r_mmod_Van_der_Waal_Energy-OPLS-2005>
158.008178710938

> <r_mmod_Electrostatic_Energy-OPLS-2005>
-239.555587768555

> <r_mmod_Solvation_Energy-OPLS-2005>
-198.166198730469

> <b_mmod_Minimization_Converged-OPLS-2005>
0

> <r_mmod_RMS_Derivative-OPLS-2005>
2.45844841003418

$$$$
73
                    3D
 Structure written by MMmdl.
155163  0  0  1  0            999 V2000
  -30.6544  -14.6081   20.5194 C   0  0  0  0  0  0
  -30.4284  -12.3791   19.4418 C   0  0  0  0  0  0
  -29.5054  -12.5267   18.2130 C   0  0  0  0  0  0
  -28.0250  -12.3785   18.6192 C   0  0  0  0  0  0
  -27.6523  -13.2300   19.8627 C   0  0  2  0  0  0
  -28.6987  -13.0779   20.9907 C   0  0  0  0  0  0
  -25.2550  -13.8198   20.5715 C   0  0  0  0  0  0
  -24.1829  -13.0420   20.9195 C   0  0  0  0  0  0
  -24.6416  -11.6904   20.8708 C   0  0  0  0  0  0
  -23.9068  -10.4276   21.0375 C   0  0  0  0  0  0
  -24.3629   -9.4213   21.9178 C   0  0  0  0  0  0
  -23.6301   -8.2256   22.0763 C   0  0  0  0  0  0
  -22.4297   -8.0272   21.3537 C   0  0  0  0  0  0
  -21.9901   -9.0229   20.4640 C   0  0  0  0  0  0
  -22.7223  -10.2115   20.3040 C   0  0  0  0  0  0
  -21.6863   -6.0714   22.5255 C   0  0  0  0  0  0
  -21.4009   -6.5620   23.8180 C   0  0  0  0  0  0
  -21.3687   -5.6795   24.9161 C   0  0  0  0  0  0
  -21.6059   -4.3053   24.7237 C   0  0  0  0  0  0
  -21.8821   -3.8132   23.4362 C   0  0  0  0  0  0
  -21.9199   -4.6938   22.3406 C   0  0  0  0  0  0
  -22.7851  -13.5203   21.1865 C   0  0  0  0  0  0
  -22.1662   -4.2106   21.0990 F   0  0  0  0  0  0
  -21.5650   -3.4544   25.7757 F   0  0  0  0  0  0
  -30.0156  -13.4016   20.4208 N   0  0  0  0  0  0
  -26.2982  -12.9402   20.3297 N   0  0  0  0  0  0
  -25.9353  -11.6535   20.5728 N   0  0  0  0  0  0
  -22.0507  -12.8181   22.0422 N   0  0  0  0  0  0
  -25.4305  -15.1911   20.4260 N   0  0  0  0  0  0
  -31.8220  -14.7588   20.1488 O   0  0  0  0  0  0
  -21.6659   -6.8862   21.4224 O   0  0  0  0  0  0
  -22.3533  -14.5519   20.6749 O   0  0  0  0  0  0
  -24.6246  -31.8615   23.2067 C   0  0  0  0  0  0
  -25.9110  -32.4789   23.8375 C   0  0  1  0  0  0
  -27.2091  -27.3094   20.1093 C   0  0  0  0  0  0
  -25.5972  -33.8594   24.2297 N   0  0  0  0  0  0
  -23.4165  -30.4877   21.5515 C   0  0  2  0  0  0
  -24.8572  -28.9456   20.1114 C   0  0  0  0  0  0
  -22.7456  -29.4629   22.4939 C   0  0  0  0  0  0
  -18.0297  -28.1377   22.8481 C   0  0  0  0  0  0
  -24.1498  -36.7293   23.2630 C   0  0  0  0  0  0
  -25.9594  -30.7798   21.3888 C   0  0  0  0  0  0
  -26.0253  -29.4108   20.7258 C   0  0  0  0  0  0
  -27.1990  -28.6001   20.7236 C   0  0  0  0  0  0
  -26.0220  -26.9100   19.4514 C   0  0  0  0  0  0
  -24.8569  -27.6991   19.4701 C   0  0  0  0  0  0
  -23.6308  -29.8330   20.1623 C   0  0  0  0  0  0
  -25.4124  -36.3099   24.0324 C   0  0  1  0  0  0
  -20.5885  -28.3689   23.1269 C   0  0  2  0  0  0
  -20.6792  -26.9412   22.5391 C   0  0  0  0  0  0
  -19.5778  -26.6382   21.5198 C   0  0  0  0  0  0
  -18.1957  -26.7923   22.1607 C   0  0  0  0  0  0
  -19.1543  -28.8850   23.2871 C   0  0  0  0  0  0
  -18.9463  -30.1454   23.8879 C   0  0  0  0  0  0
  -17.6463  -30.6576   24.0564 C   0  0  0  0  0  0
  -25.9067  -34.9460   23.5099 C   0  0  0  0  0  0
  -16.5353  -29.9066   23.6352 C   0  0  0  0  0  0
  -16.7284  -28.6494   23.0349 C   0  0  0  0  0  0
  -26.4503  -31.6612   25.0757 C   0  0  0  0  0  0
  -25.3720  -31.3727   26.1470 C   0  0  0  0  0  0
  -27.0329  -30.3036   24.6226 C   0  0  0  0  0  0
  -27.6077  -32.4312   25.7517 C   0  0  0  0  0  0
  -27.5594  -37.1807   24.8451 C   0  0  0  0  0  0
  -21.4175  -29.3051   22.3673 N   0  0  0  0  0  0
  -26.4309  -37.3797   23.9398 N   0  0  0  0  0  0
  -24.6853  -31.0591   22.1056 N   0  0  0  0  0  0
  -23.4173  -28.8161   23.3018 O   0  0  0  0  0  0
  -28.3444  -26.4821   20.1731 O   0  0  0  0  0  0
  -26.5601  -34.8924   22.4645 O   0  0  0  0  0  0
  -23.5414  -32.1435   23.7395 O   0  0  0  0  0  0
  -27.8235  -21.6343   21.0214 C   0  0  0  0  0  0
  -27.9497  -20.2259   20.9031 C   0  0  0  0  0  0
  -28.8978  -22.4864   20.6719 C   0  0  0  0  0  0
  -29.1527  -19.6444   20.4348 C   0  0  0  0  0  0
  -30.0598  -21.8185   20.1943 C   0  0  0  0  0  0
  -31.2804  -22.6057   19.7702 C   0  0  0  0  0  0
  -28.8303  -24.0360   20.9511 C   0  0  0  0  0  0
  -29.2416  -18.1026   20.1367 C   0  0  0  0  0  0
  -30.1954  -17.1414   20.9647 C   0  0  0  0  0  0
  -28.3039  -25.0338   19.8406 C   0  0  0  0  0  0
  -30.1792  -20.4593   20.0788 N   0  0  0  0  0  0
  -29.8732  -15.6714   20.8651 N   0  0  0  0  0  0
  -31.4734  -12.4898   19.1479 H   0  0  0  0  0  0
  -30.3402  -11.3815   19.8738 H   0  0  0  0  0  0
  -29.7580  -11.7866   17.4515 H   0  0  0  0  0  0
  -29.6581  -13.5071   17.7571 H   0  0  0  0  0  0
  -27.8381  -11.3223   18.8147 H   0  0  0  0  0  0
  -27.3831  -12.6490   17.7804 H   0  0  0  0  0  0
  -27.6695  -14.2690   19.5315 H   0  0  0  0  0  0
  -28.7039  -12.0594   21.3768 H   0  0  0  0  0  0
  -28.4594  -13.7168   21.8438 H   0  0  0  0  0  0
  -25.2772   -9.5690   22.4769 H   0  0  0  0  0  0
  -23.9993   -7.4648   22.7499 H   0  0  0  0  0  0
  -21.0818   -8.8730   19.8964 H   0  0  0  0  0  0
  -22.3652  -10.9648   19.6151 H   0  0  0  0  0  0
  -21.1984   -7.6119   23.9653 H   0  0  0  0  0  0
  -21.1518   -6.0548   25.9055 H   0  0  0  0  0  0
  -22.0593   -2.7590   23.2888 H   0  0  0  0  0  0
  -22.4125  -11.9790   22.4720 H   0  0  0  0  0  0
  -21.1122  -13.1182   22.2640 H   0  0  0  0  0  0
  -24.6845  -15.8623   20.5738 H   0  0  0  0  0  0
  -26.2911  -15.6200   20.1102 H   0  0  0  0  0  0
  -26.7162  -32.5424   23.1107 H   0  0  0  0  0  0
  -25.0204  -33.9767   25.0505 H   0  0  0  0  0  0
  -22.7149  -31.3125   21.4162 H   0  0  0  0  0  0
  -23.3793  -35.9593   23.3266 H   0  0  0  0  0  0
  -24.3617  -36.8942   22.2053 H   0  0  0  0  0  0
  -23.7214  -37.6475   23.6666 H   0  0  0  0  0  0
  -26.0999  -31.5453   20.6250 H   0  0  0  0  0  0
  -26.8358  -30.8166   22.0230 H   0  0  0  0  0  0
  -28.0899  -28.9455   21.2282 H   0  0  0  0  0  0
  -25.9498  -25.9864   18.9007 H   0  0  0  0  0  0
  -23.9649  -27.3435   18.9724 H   0  0  0  0  0  0
  -23.7624  -30.6190   19.4175 H   0  0  0  0  0  0
  -22.7478  -29.2760   19.8479 H   0  0  0  0  0  0
  -25.1307  -36.1968   25.0821 H   0  0  0  0  0  0
  -20.9975  -28.3254   24.1387 H   0  0  0  0  0  0
  -20.5728  -26.2280   23.3574 H   0  0  0  0  0  0
  -21.6656  -26.7477   22.1159 H   0  0  0  0  0  0
  -19.6940  -25.6292   21.1231 H   0  0  0  0  0  0
  -19.6715  -27.3188   20.6713 H   0  0  0  0  0  0
  -17.4219  -26.6672   21.4011 H   0  0  0  0  0  0
  -18.0363  -26.0063   22.8997 H   0  0  0  0  0  0
  -19.7936  -30.7291   24.2217 H   0  0  0  0  0  0
  -17.5013  -31.6261   24.5156 H   0  0  0  0  0  0
  -15.5350  -30.2947   23.7702 H   0  0  0  0  0  0
  -15.8687  -28.0816   22.7041 H   0  0  0  0  0  0
  -24.5919  -30.7076   25.7766 H   0  0  0  0  0  0
  -24.8896  -32.2877   26.4911 H   0  0  0  0  0  0
  -25.8041  -30.8882   27.0241 H   0  0  0  0  0  0
  -26.2898  -29.6808   24.1249 H   0  0  0  0  0  0
  -27.4011  -29.7291   25.4741 H   0  0  0  0  0  0
  -27.8787  -30.4324   23.9465 H   0  0  0  0  0  0
  -27.2747  -33.3613   26.2131 H   0  0  0  0  0  0
  -28.3892  -32.6864   25.0342 H   0  0  0  0  0  0
  -28.0763  -31.8409   26.5417 H   0  0  0  0  0  0
  -28.2577  -38.0140   24.7573 H   0  0  0  0  0  0
  -28.1136  -36.2684   24.6200 H   0  0  0  0  0  0
  -27.2324  -37.1348   25.8856 H   0  0  0  0  0  0
  -20.9336  -29.8773   21.6890 H   0  0  0  0  0  0
  -26.0192  -38.2868   24.1448 H   0  0  0  0  0  0
  -26.8995  -22.0597   21.3854 H   0  0  0  0  0  0
  -27.1068  -19.5917   21.1397 H   0  0  0  0  0  0
  -31.0047  -23.3476   19.0229 H   0  0  0  0  0  0
  -32.0426  -21.9617   19.3314 H   0  0  0  0  0  0
  -31.7235  -23.1131   20.6280 H   0  0  0  0  0  0
  -29.8197  -24.3571   21.2729 H   0  0  0  0  0  0
  -28.2037  -24.1710   21.8328 H   0  0  0  0  0  0
  -29.4912  -17.9967   19.0789 H   0  0  0  0  0  0
  -28.2267  -17.7133   20.2130 H   0  0  0  0  0  0
  -30.1191  -17.3920   22.0225 H   0  0  0  0  0  0
  -31.2372  -17.3367   20.6939 H   0  0  0  0  0  0
  -27.3168  -24.6716   19.5647 H   0  0  0  0  0  0
  -28.9203  -24.9029   18.9488 H   0  0  0  0  0  0
  -28.9246  -15.4287   21.1134 H   0  0  0  0  0  0
  1 25  1  0  0  0
  1 30  2  0  0  0
  1 82  1  0  0  0
  2  3  1  0  0  0
  2 25  1  0  0  0
  2 83  1  0  0  0
  2 84  1  0  0  0
  3  4  1  0  0  0
  3 85  1  0  0  0
  3 86  1  0  0  0
  4  5  1  0  0  0
  4 87  1  0  0  0
  4 88  1  0  0  0
  5  6  1  0  0  0
  5 26  1  0  0  0
  5 89  1  0  0  0
  6 25  1  0  0  0
  6 90  1  0  0  0
  6 91  1  0  0  0
  7  8  2  0  0  0
  7 26  1  0  0  0
  7 29  1  0  0  0
  8  9  1  0  0  0
  8 22  1  0  0  0
  9 10  1  0  0  0
  9 27  2  0  0  0
 10 11  2  0  0  0
 10 15  1  0  0  0
 11 12  1  0  0  0
 11 92  1  0  0  0
 12 13  2  0  0  0
 12 93  1  0  0  0
 13 14  1  0  0  0
 13 31  1  0  0  0
 14 15  2  0  0  0
 14 94  1  0  0  0
 15 95  1  0  0  0
 16 17  2  0  0  0
 16 21  1  0  0  0
 16 31  1  0  0  0
 17 18  1  0  0  0
 17 96  1  0  0  0
 18 19  2  0  0  0
 18 97  1  0  0  0
 19 20  1  0  0  0
 19 24  1  0  0  0
 20 21  2  0  0  0
 20 98  1  0  0  0
 21 23  1  0  0  0
 22 28  1  0  0  0
 22 32  2  0  0  0
 26 27  1  0  0  0
 28 99  1  0  0  0
 28100  1  0  0  0
 29101  1  0  0  0
 29102  1  0  0  0
 33 34  1  0  0  0
 33 66  1  0  0  0
 33 70  2  0  0  0
 34 36  1  0  0  0
 34 59  1  0  0  0
 34103  1  0  0  0
 35 44  2  0  0  0
 35 45  1  0  0  0
 35 68  1  0  0  0
 36 56  1  0  0  0
 36104  1  0  0  0
 37 39  1  0  0  0
 37 47  1  0  0  0
 37 66  1  0  0  0
 37105  1  0  0  0
 38 43  2  0  0  0
 38 46  1  0  0  0
 38 47  1  0  0  0
 39 64  1  0  0  0
 39 67  2  0  0  0
 40 52  1  0  0  0
 40 53  2  0  0  0
 40 58  1  0  0  0
 41106  1  0  0  0
 41107  1  0  0  0
 41108  1  0  0  0
 41 48  1  0  0  0
 42 43  1  0  0  0
 42 66  1  0  0  0
 42109  1  0  0  0
 42110  1  0  0  0
 43 44  1  0  0  0
 44111  1  0  0  0
 45 46  2  0  0  0
 45112  1  0  0  0
 46113  1  0  0  0
 47114  1  0  0  0
 47115  1  0  0  0
 48 56  1  0  0  0
 48 65  1  0  0  0
 48116  1  0  0  0
 49 50  1  0  0  0
 49 53  1  0  0  0
 49 64  1  0  0  0
 49117  1  0  0  0
 50 51  1  0  0  0
 50118  1  0  0  0
 50119  1  0  0  0
 51 52  1  0  0  0
 51120  1  0  0  0
 51121  1  0  0  0
 52122  1  0  0  0
 52123  1  0  0  0
 53 54  1  0  0  0
 54 55  2  0  0  0
 54124  1  0  0  0
 55 57  1  0  0  0
 55125  1  0  0  0
 56 69  2  0  0  0
 57 58  2  0  0  0
 57126  1  0  0  0
 58127  1  0  0  0
 59 60  1  0  0  0
 59 61  1  0  0  0
 59 62  1  0  0  0
 60128  1  0  0  0
 60129  1  0  0  0
 60130  1  0  0  0
 61131  1  0  0  0
 61132  1  0  0  0
 61133  1  0  0  0
 62134  1  0  0  0
 62135  1  0  0  0
 62136  1  0  0  0
 63 65  1  0  0  0
 63137  1  0  0  0
 63138  1  0  0  0
 63139  1  0  0  0
 64140  1  0  0  0
 65141  1  0  0  0
 68 80  1  0  0  0
 71 72  2  0  0  0
 71 73  1  0  0  0
 71142  1  0  0  0
 72 74  1  0  0  0
 72143  1  0  0  0
 73 75  2  0  0  0
 73 77  1  0  0  0
 74 78  1  0  0  0
 74 81  2  0  0  0
 75 76  1  0  0  0
 75 81  1  0  0  0
 76144  1  0  0  0
 76145  1  0  0  0
 76146  1  0  0  0
 77 80  1  0  0  0
 77147  1  0  0  0
 77148  1  0  0  0
 78 79  1  0  0  0
 78149  1  0  0  0
 78150  1  0  0  0
 79 82  1  0  0  0
 79151  1  0  0  0
 79152  1  0  0  0
 80153  1  0  0  0
 80154  1  0  0  0
 82155  1  0  0  0
M  ISO  4   1 100  68 101  80 101  82 100
M  END
> <chiral flag>
0

> <version>
0

> <s_m_source_file>
/data/baiqing/PycharmProjects/Reinvent-master-3.2/result/LINK_invent/BTK/process_docking_weight1_custom_sum_contain_oxygen_bond_distance_aromatic_linkinvent_7_9_3/rearranged_h_0046.sdf

> <i_m_source_file_index>
73

> <r_mmod_Potential_Energy-OPLS-2005>
-141.102157592773

> <r_mmod_Stretch_Energy-OPLS-2005>
74.779052734375

> <r_mmod_Bend_Energy-OPLS-2005>
136.935546875

> <r_mmod_Torsional_Energy-OPLS-2005>
192.367263793945

> <r_mmod_Improper_Torsional_Energy-OPLS-2005>
5.12809896469116

> <r_mmod_Van_der_Waal_Energy-OPLS-2005>
145.507110595703

> <r_mmod_Electrostatic_Energy-OPLS-2005>
-511.671813964844

> <r_mmod_Solvation_Energy-OPLS-2005>
-229.598449707031

> <b_mmod_Minimization_Converged-OPLS-2005>
0

> <r_mmod_RMS_Derivative-OPLS-2005>
4.37042617797852

$$$$
74
                    3D
 Structure written by MMmdl.
158166  0  0  1  0            999 V2000
  -30.7119  -14.5663   20.5034 C   0  0  0  0  0  0
  -30.4087  -12.3401   19.4640 C   0  0  0  0  0  0
  -29.4982  -12.4808   18.2277 C   0  0  0  0  0  0
  -28.0203  -12.3408   18.6379 C   0  0  0  0  0  0
  -27.6501  -13.2235   19.8611 C   0  0  2  0  0  0
  -28.6947  -13.1035   20.9949 C   0  0  0  0  0  0
  -25.2542  -13.8192   20.5727 C   0  0  0  0  0  0
  -24.1803  -13.0446   20.9175 C   0  0  0  0  0  0
  -24.6380  -11.6919   20.8726 C   0  0  0  0  0  0
  -23.9050  -10.4291   21.0389 C   0  0  0  0  0  0
  -24.3603   -9.4214   21.9183 C   0  0  0  0  0  0
  -23.6284   -8.2251   22.0755 C   0  0  0  0  0  0
  -22.4269   -8.0273   21.3540 C   0  0  0  0  0  0
  -21.9907   -9.0237   20.4632 C   0  0  0  0  0  0
  -22.7225  -10.2123   20.3033 C   0  0  0  0  0  0
  -21.6858   -6.0733   22.5277 C   0  0  0  0  0  0
  -21.4009   -6.5635   23.8206 C   0  0  0  0  0  0
  -21.3653   -5.6789   24.9169 C   0  0  0  0  0  0
  -21.6052   -4.3053   24.7226 C   0  0  0  0  0  0
  -21.8816   -3.8139   23.4342 C   0  0  0  0  0  0
  -21.9189   -4.6957   22.3397 C   0  0  0  0  0  0
  -22.7821  -13.5224   21.1859 C   0  0  0  0  0  0
  -22.1661   -4.2141   21.0978 F   0  0  0  0  0  0
  -21.5632   -3.4536   25.7738 F   0  0  0  0  0  0
  -30.0153  -13.3925   20.4206 N   0  0  0  0  0  0
  -26.2971  -12.9395   20.3331 N   0  0  0  0  0  0
  -25.9308  -11.6536   20.5765 N   0  0  0  0  0  0
  -22.0469  -12.8172   22.0384 N   0  0  0  0  0  0
  -25.4291  -15.1925   20.4233 N   0  0  0  0  0  0
  -31.8788  -14.6465   20.1158 O   0  0  0  0  0  0
  -21.6634   -6.8873   21.4240 O   0  0  0  0  0  0
  -22.3506  -14.5549   20.6744 O   0  0  0  0  0  0
  -24.6298  -31.8608   23.2025 C   0  0  0  0  0  0
  -25.9155  -32.4784   23.8336 C   0  0  1  0  0  0
  -27.2117  -27.3123   20.1161 C   0  0  0  0  0  0
  -25.5962  -33.8574   24.2274 N   0  0  0  0  0  0
  -23.4206  -30.4894   21.5479 C   0  0  2  0  0  0
  -24.8620  -28.9564   20.1094 C   0  0  0  0  0  0
  -22.7507  -29.4640   22.4944 C   0  0  0  0  0  0
  -18.0289  -28.1412   22.8490 C   0  0  0  0  0  0
  -24.1471  -36.7254   23.2642 C   0  0  0  0  0  0
  -25.9629  -30.7945   21.3708 C   0  0  0  0  0  0
  -26.0356  -29.4203   20.7172 C   0  0  0  0  0  0
  -27.2126  -28.6092   20.7173 C   0  0  0  0  0  0
  -26.0099  -26.9233   19.4666 C   0  0  0  0  0  0
  -24.8524  -27.7120   19.4753 C   0  0  0  0  0  0
  -23.6324  -29.8355   20.1604 C   0  0  0  0  0  0
  -25.4096  -36.3065   24.0341 C   0  0  1  0  0  0
  -20.5899  -28.3697   23.1290 C   0  0  2  0  0  0
  -20.6783  -26.9418   22.5417 C   0  0  0  0  0  0
  -19.5752  -26.6402   21.5220 C   0  0  0  0  0  0
  -18.1916  -26.7958   22.1610 C   0  0  0  0  0  0
  -19.1548  -28.8870   23.2890 C   0  0  0  0  0  0
  -18.9482  -30.1478   23.8900 C   0  0  0  0  0  0
  -17.6486  -30.6608   24.0578 C   0  0  0  0  0  0
  -25.9059  -34.9453   23.5101 C   0  0  0  0  0  0
  -16.5373  -29.9115   23.6349 C   0  0  0  0  0  0
  -16.7270  -28.6541   23.0345 C   0  0  0  0  0  0
  -26.4529  -31.6576   25.0692 C   0  0  0  0  0  0
  -25.3756  -31.3667   26.1407 C   0  0  0  0  0  0
  -27.0417  -30.3043   24.6076 C   0  0  0  0  0  0
  -27.6086  -32.4304   25.7477 C   0  0  0  0  0  0
  -27.5559  -37.1785   24.8479 C   0  0  0  0  0  0
  -21.4217  -29.3064   22.3702 N   0  0  0  0  0  0
  -26.4252  -37.3786   23.9446 N   0  0  0  0  0  0
  -24.6915  -31.0639   22.0976 N   0  0  0  0  0  0
  -23.4239  -28.8166   23.3004 O   0  0  0  0  0  0
  -28.2984  -26.4150   20.1956 O   0  0  0  0  0  0
  -26.5618  -34.8949   22.4661 O   0  0  0  0  0  0
  -23.5463  -32.1382   23.7369 O   0  0  0  0  0  0
  -29.8774  -22.0961   21.7267 C   0  0  0  0  0  0
  -29.3683  -23.4094   21.4986 C   0  0  0  0  0  0
  -29.8566  -21.1137   20.7023 C   0  0  0  0  0  0
  -28.8385  -23.7449   20.2270 C   0  0  0  0  0  0
  -29.3384  -21.5475   19.4592 C   0  0  0  0  0  0
  -29.3715  -24.4227   22.6280 C   0  0  0  0  0  0
  -29.3064  -20.6189   18.2589 C   0  0  0  0  0  0
  -30.5365  -19.7137   20.9063 C   0  0  0  0  0  0
  -27.9464  -25.0012   19.9167 C   0  0  0  0  0  0
  -29.7261  -18.3543   20.8196 C   0  0  0  0  0  0
  -30.6548  -17.0740   20.7605 C   0  0  0  0  0  0
  -28.8460  -22.8002   19.2467 N   0  0  0  0  0  0
  -30.0407  -15.7065   20.8330 N   0  0  0  0  0  0
  -31.4590  -12.4006   19.1753 H   0  0  0  0  0  0
  -30.2834  -11.3548   19.9172 H   0  0  0  0  0  0
  -29.7510  -11.7256   17.4825 H   0  0  0  0  0  0
  -29.6622  -13.4497   17.7539 H   0  0  0  0  0  0
  -27.8464  -11.2906   18.8763 H   0  0  0  0  0  0
  -27.3680  -12.5701   17.7947 H   0  0  0  0  0  0
  -27.6656  -14.2550   19.5074 H   0  0  0  0  0  0
  -28.6827  -12.0982   21.4210 H   0  0  0  0  0  0
  -28.4568  -13.7817   21.8157 H   0  0  0  0  0  0
  -25.2751   -9.5695   22.4757 H   0  0  0  0  0  0
  -23.9986   -7.4647   22.7482 H   0  0  0  0  0  0
  -21.0844   -8.8743   19.8931 H   0  0  0  0  0  0
  -22.3693  -10.9650   19.6121 H   0  0  0  0  0  0
  -21.1995   -7.6143   23.9706 H   0  0  0  0  0  0
  -21.1485   -6.0524   25.9074 H   0  0  0  0  0  0
  -22.0599   -2.7604   23.2852 H   0  0  0  0  0  0
  -22.4080  -11.9777   22.4671 H   0  0  0  0  0  0
  -21.1080  -13.1174   22.2615 H   0  0  0  0  0  0
  -24.6747  -15.8555   20.5639 H   0  0  0  0  0  0
  -26.2968  -15.6358   20.1516 H   0  0  0  0  0  0
  -26.7206  -32.5476   23.1073 H   0  0  0  0  0  0
  -25.0201  -33.9688   25.0485 H   0  0  0  0  0  0
  -22.7155  -31.3105   21.4085 H   0  0  0  0  0  0
  -23.3770  -35.9552   23.3288 H   0  0  0  0  0  0
  -24.3560  -36.8881   22.2060 H   0  0  0  0  0  0
  -23.7175  -37.6433   23.6664 H   0  0  0  0  0  0
  -26.0835  -31.5520   20.5949 H   0  0  0  0  0  0
  -26.8488  -30.8504   21.9911 H   0  0  0  0  0  0
  -28.1074  -28.9539   21.2162 H   0  0  0  0  0  0
  -25.8994  -25.9831   18.9507 H   0  0  0  0  0  0
  -23.9567  -27.3486   18.9903 H   0  0  0  0  0  0
  -23.7540  -30.6150   19.4067 H   0  0  0  0  0  0
  -22.7502  -29.2714   19.8536 H   0  0  0  0  0  0
  -25.1257  -36.1890   25.0823 H   0  0  0  0  0  0
  -20.9988  -28.3267   24.1414 H   0  0  0  0  0  0
  -20.5699  -26.2300   23.3621 H   0  0  0  0  0  0
  -21.6643  -26.7459   22.1186 H   0  0  0  0  0  0
  -19.6925  -25.6322   21.1225 H   0  0  0  0  0  0
  -19.6695  -27.3253   20.6786 H   0  0  0  0  0  0
  -17.4201  -26.6764   21.3992 H   0  0  0  0  0  0
  -18.0272  -26.0076   22.8968 H   0  0  0  0  0  0
  -19.7969  -30.7302   24.2254 H   0  0  0  0  0  0
  -17.5041  -31.6285   24.5199 H   0  0  0  0  0  0
  -15.5376  -30.3029   23.7693 H   0  0  0  0  0  0
  -15.8660  -28.0886   22.7042 H   0  0  0  0  0  0
  -24.6052  -30.6853   25.7752 H   0  0  0  0  0  0
  -24.8797  -32.2802   26.4706 H   0  0  0  0  0  0
  -25.8108  -30.8990   27.0249 H   0  0  0  0  0  0
  -26.3000  -29.6761   24.1134 H   0  0  0  0  0  0
  -27.4264  -29.7282   25.4497 H   0  0  0  0  0  0
  -27.8766  -30.4408   23.9203 H   0  0  0  0  0  0
  -27.2738  -33.3705   26.1872 H   0  0  0  0  0  0
  -28.4016  -32.6678   25.0367 H   0  0  0  0  0  0
  -28.0597  -31.8506   26.5540 H   0  0  0  0  0  0
  -28.2559  -38.0105   24.7578 H   0  0  0  0  0  0
  -28.1070  -36.2644   24.6224 H   0  0  0  0  0  0
  -27.2294  -37.1333   25.8886 H   0  0  0  0  0  0
  -20.9403  -29.8787   21.6917 H   0  0  0  0  0  0
  -26.0124  -38.2843   24.1515 H   0  0  0  0  0  0
  -30.2952  -21.8465   22.6927 H   0  0  0  0  0  0
  -30.0479  -24.1228   23.4297 H   0  0  0  0  0  0
  -28.3728  -24.5337   23.0519 H   0  0  0  0  0  0
  -29.7047  -25.3967   22.2673 H   0  0  0  0  0  0
  -28.4717  -19.9244   18.3401 H   0  0  0  0  0  0
  -30.2231  -20.0329   18.1855 H   0  0  0  0  0  0
  -29.1956  -21.1665   17.3231 H   0  0  0  0  0  0
  -31.0289  -19.7266   21.8791 H   0  0  0  0  0  0
  -31.3584  -19.6659   20.1903 H   0  0  0  0  0  0
  -27.0162  -24.7689   20.4390 H   0  0  0  0  0  0
  -27.7386  -24.9478   18.8474 H   0  0  0  0  0  0
  -29.0966  -18.3479   19.9308 H   0  0  0  0  0  0
  -29.0524  -18.2872   21.6735 H   0  0  0  0  0  0
  -31.3989  -17.1365   21.5558 H   0  0  0  0  0  0
  -31.2234  -17.1313   19.8294 H   0  0  0  0  0  0
  -29.0768  -15.6234   21.1152 H   0  0  0  0  0  0
  1 25  1  0  0  0
  1 30  2  0  0  0
  1 83  1  0  0  0
  2  3  1  0  0  0
  2 25  1  0  0  0
  2 84  1  0  0  0
  2 85  1  0  0  0
  3  4  1  0  0  0
  3 86  1  0  0  0
  3 87  1  0  0  0
  4  5  1  0  0  0
  4 88  1  0  0  0
  4 89  1  0  0  0
  5  6  1  0  0  0
  5 26  1  0  0  0
  5 90  1  0  0  0
  6 25  1  0  0  0
  6 91  1  0  0  0
  6 92  1  0  0  0
  7  8  2  0  0  0
  7 26  1  0  0  0
  7 29  1  0  0  0
  8  9  1  0  0  0
  8 22  1  0  0  0
  9 10  1  0  0  0
  9 27  2  0  0  0
 10 11  2  0  0  0
 10 15  1  0  0  0
 11 12  1  0  0  0
 11 93  1  0  0  0
 12 13  2  0  0  0
 12 94  1  0  0  0
 13 14  1  0  0  0
 13 31  1  0  0  0
 14 15  2  0  0  0
 14 95  1  0  0  0
 15 96  1  0  0  0
 16 17  2  0  0  0
 16 21  1  0  0  0
 16 31  1  0  0  0
 17 18  1  0  0  0
 17 97  1  0  0  0
 18 19  2  0  0  0
 18 98  1  0  0  0
 19 20  1  0  0  0
 19 24  1  0  0  0
 20 21  2  0  0  0
 20 99  1  0  0  0
 21 23  1  0  0  0
 22 28  1  0  0  0
 22 32  2  0  0  0
 26 27  1  0  0  0
 28100  1  0  0  0
 28101  1  0  0  0
 29102  1  0  0  0
 29103  1  0  0  0
 33 34  1  0  0  0
 33 66  1  0  0  0
 33 70  2  0  0  0
 34 36  1  0  0  0
 34 59  1  0  0  0
 34104  1  0  0  0
 35 44  2  0  0  0
 35 45  1  0  0  0
 35 68  1  0  0  0
 36 56  1  0  0  0
 36105  1  0  0  0
 37 39  1  0  0  0
 37 47  1  0  0  0
 37 66  1  0  0  0
 37106  1  0  0  0
 38 43  2  0  0  0
 38 46  1  0  0  0
 38 47  1  0  0  0
 39 64  1  0  0  0
 39 67  2  0  0  0
 40 52  1  0  0  0
 40 53  2  0  0  0
 40 58  1  0  0  0
 41107  1  0  0  0
 41108  1  0  0  0
 41109  1  0  0  0
 41 48  1  0  0  0
 42 43  1  0  0  0
 42 66  1  0  0  0
 42110  1  0  0  0
 42111  1  0  0  0
 43 44  1  0  0  0
 44112  1  0  0  0
 45 46  2  0  0  0
 45113  1  0  0  0
 46114  1  0  0  0
 47115  1  0  0  0
 47116  1  0  0  0
 48 56  1  0  0  0
 48 65  1  0  0  0
 48117  1  0  0  0
 49 50  1  0  0  0
 49 53  1  0  0  0
 49 64  1  0  0  0
 49118  1  0  0  0
 50 51  1  0  0  0
 50119  1  0  0  0
 50120  1  0  0  0
 51 52  1  0  0  0
 51121  1  0  0  0
 51122  1  0  0  0
 52123  1  0  0  0
 52124  1  0  0  0
 53 54  1  0  0  0
 54 55  2  0  0  0
 54125  1  0  0  0
 55 57  1  0  0  0
 55126  1  0  0  0
 56 69  2  0  0  0
 57 58  2  0  0  0
 57127  1  0  0  0
 58128  1  0  0  0
 59 60  1  0  0  0
 59 61  1  0  0  0
 59 62  1  0  0  0
 60129  1  0  0  0
 60130  1  0  0  0
 60131  1  0  0  0
 61132  1  0  0  0
 61133  1  0  0  0
 61134  1  0  0  0
 62135  1  0  0  0
 62136  1  0  0  0
 62137  1  0  0  0
 63 65  1  0  0  0
 63138  1  0  0  0
 63139  1  0  0  0
 63140  1  0  0  0
 64141  1  0  0  0
 65142  1  0  0  0
 68 79  1  0  0  0
 71 72  2  0  0  0
 71 73  1  0  0  0
 71143  1  0  0  0
 72 74  1  0  0  0
 72 76  1  0  0  0
 73 75  2  0  0  0
 73 78  1  0  0  0
 74 79  1  0  0  0
 74 82  2  0  0  0
 75 77  1  0  0  0
 75 82  1  0  0  0
 76144  1  0  0  0
 76145  1  0  0  0
 76146  1  0  0  0
 77147  1  0  0  0
 77148  1  0  0  0
 77149  1  0  0  0
 78 80  1  0  0  0
 78150  1  0  0  0
 78151  1  0  0  0
 79152  1  0  0  0
 79153  1  0  0  0
 80 81  1  0  0  0
 80154  1  0  0  0
 80155  1  0  0  0
 81 83  1  0  0  0
 81156  1  0  0  0
 81157  1  0  0  0
 83158  1  0  0  0
M  ISO  4   1 100  68 101  79 101  83 100
M  END
> <chiral flag>
0

> <version>
0

> <s_m_source_file>
/data/baiqing/PycharmProjects/Reinvent-master-3.2/result/LINK_invent/BTK/process_docking_weight1_custom_sum_contain_oxygen_bond_distance_aromatic_linkinvent_7_9_3/rearranged_h_0046.sdf

> <i_m_source_file_index>
74

> <r_mmod_Potential_Energy-OPLS-2005>
-71.9353485107422

> <r_mmod_Stretch_Energy-OPLS-2005>
73.1678314208984

> <r_mmod_Bend_Energy-OPLS-2005>
147.018203735352

> <r_mmod_Torsional_Energy-OPLS-2005>
207.116165161133

> <r_mmod_Improper_Torsional_Energy-OPLS-2005>
6.45627689361572

> <r_mmod_Van_der_Waal_Energy-OPLS-2005>
159.650482177734

> <r_mmod_Electrostatic_Energy-OPLS-2005>
-490.078308105469

> <r_mmod_Solvation_Energy-OPLS-2005>
-222.718444824219

> <b_mmod_Minimization_Converged-OPLS-2005>
0

> <r_mmod_RMS_Derivative-OPLS-2005>
2.77634024620056

$$$$
75
                    3D
 Structure written by MMmdl.
171179  0  0  1  0            999 V2000
  -30.7661  -14.4239   20.6556 C   0  0  0  0  0  0
  -30.4411  -12.3194   19.4045 C   0  0  0  0  0  0
  -29.5051  -12.5326   18.1953 C   0  0  0  0  0  0
  -28.0167  -12.4320   18.5941 C   0  0  0  0  0  0
  -27.6767  -13.2122   19.8899 C   0  0  2  0  0  0
  -28.7159  -12.8894   20.9747 C   0  0  0  0  0  0
  -25.2675  -13.8220   20.5713 C   0  0  0  0  0  0
  -24.1907  -13.0546   20.9216 C   0  0  0  0  0  0
  -24.6422  -11.6987   20.8803 C   0  0  0  0  0  0
  -23.9084  -10.4381   21.0493 C   0  0  0  0  0  0
  -24.3634   -9.4286   21.9262 C   0  0  0  0  0  0
  -23.6349   -8.2299   22.0801 C   0  0  0  0  0  0
  -22.4339   -8.0325   21.3563 C   0  0  0  0  0  0
  -21.9963   -9.0321   20.4691 C   0  0  0  0  0  0
  -22.7265  -10.2224   20.3133 C   0  0  0  0  0  0
  -21.6860   -6.0772   22.5284 C   0  0  0  0  0  0
  -21.3962   -6.5648   23.8216 C   0  0  0  0  0  0
  -21.3619   -5.6775   24.9169 C   0  0  0  0  0  0
  -21.6042   -4.3053   24.7215 C   0  0  0  0  0  0
  -21.8844   -3.8172   23.4325 C   0  0  0  0  0  0
  -21.9232   -4.7008   22.3396 C   0  0  0  0  0  0
  -22.7902  -13.5412   21.1753 C   0  0  0  0  0  0
  -22.1717   -4.2199   21.0973 F   0  0  0  0  0  0
  -21.5652   -3.4524   25.7717 F   0  0  0  0  0  0
  -30.0498  -13.2700   20.4660 N   0  0  0  0  0  0
  -26.3111  -12.9376   20.3436 N   0  0  0  0  0  0
  -25.9347  -11.6534   20.5815 N   0  0  0  0  0  0
  -22.0367  -12.8545   22.0255 N   0  0  0  0  0  0
  -25.4553  -15.1939   20.4050 N   0  0  0  0  0  0
  -31.8012  -14.6288   20.0137 O   0  0  0  0  0  0
  -21.6667   -6.8950   21.4257 O   0  0  0  0  0  0
  -22.3662  -14.5692   20.6485 O   0  0  0  0  0  0
  -24.6119  -31.8720   23.2136 C   0  0  0  0  0  0
  -25.9009  -32.4855   23.8457 C   0  0  1  0  0  0
  -27.2391  -27.4614   20.1121 C   0  0  0  0  0  0
  -25.5882  -33.8660   24.2377 N   0  0  0  0  0  0
  -23.4036  -30.4921   21.5537 C   0  0  2  0  0  0
  -24.8555  -28.9610   20.1189 C   0  0  0  0  0  0
  -22.7412  -29.4661   22.5012 C   0  0  0  0  0  0
  -18.0241  -28.1445   22.8508 C   0  0  0  0  0  0
  -24.1449  -36.7310   23.2636 C   0  0  0  0  0  0
  -25.9272  -30.8424   21.3705 C   0  0  0  0  0  0
  -26.0068  -29.4752   20.7286 C   0  0  0  0  0  0
  -27.2049  -28.7275   20.7311 C   0  0  0  0  0  0
  -26.0749  -26.9472   19.5096 C   0  0  0  0  0  0
  -24.8812  -27.6967   19.5035 C   0  0  0  0  0  0
  -23.6149  -29.8256   20.1655 C   0  0  0  0  0  0
  -25.4086  -36.3136   24.0337 C   0  0  1  0  0  0
  -20.5838  -28.3705   23.1362 C   0  0  2  0  0  0
  -20.6734  -26.9442   22.5471 C   0  0  0  0  0  0
  -19.5715  -26.6420   21.5269 C   0  0  0  0  0  0
  -18.1888  -26.7982   22.1664 C   0  0  0  0  0  0
  -19.1493  -28.8884   23.2930 C   0  0  0  0  0  0
  -18.9440  -30.1481   23.8980 C   0  0  0  0  0  0
  -17.6453  -30.6643   24.0597 C   0  0  0  0  0  0
  -25.9017  -34.9496   23.5148 C   0  0  0  0  0  0
  -16.5338  -29.9195   23.6302 C   0  0  0  0  0  0
  -16.7239  -28.6601   23.0326 C   0  0  0  0  0  0
  -26.4398  -31.6622   25.0791 C   0  0  0  0  0  0
  -25.3648  -31.3778   26.1532 C   0  0  0  0  0  0
  -27.0248  -30.3070   24.6158 C   0  0  0  0  0  0
  -27.5943  -32.4348   25.7592 C   0  0  0  0  0  0
  -27.5561  -37.1806   24.8444 C   0  0  0  0  0  0
  -21.4145  -29.3077   22.3803 N   0  0  0  0  0  0
  -26.4274  -37.3813   23.9397 N   0  0  0  0  0  0
  -24.6651  -31.0834   22.1046 N   0  0  0  0  0  0
  -23.4192  -28.8161   23.3017 O   0  0  0  0  0  0
  -28.4027  -26.7435   20.0272 O   0  0  0  0  0  0
  -26.5567  -34.8915   22.4708 O   0  0  0  0  0  0
  -23.5308  -32.1478   23.7517 O   0  0  0  0  0  0
  -30.3376  -24.2714   23.1073 C   0  0  0  0  0  0
  -30.1576  -23.8880   21.7472 C   0  0  0  0  0  0
  -30.6878  -22.6175   21.6860 C   0  0  0  0  0  0
  -28.4598  -17.8075   21.1949 C   0  0  0  0  0  0
  -29.9245  -17.5915   19.1324 C   0  0  0  0  0  0
  -31.8955  -21.1806   23.4619 C   0  0  0  0  0  0
  -29.7684  -15.1203   22.8232 C   0  0  0  0  0  0
  -29.5679  -24.7400   20.6373 C   0  0  0  0  0  0
  -30.8268  -21.6739   20.5086 C   0  0  0  0  0  0
  -30.8028  -16.7980   21.3656 C   0  0  0  0  0  0
  -30.6075  -19.2278   20.9535 C   0  0  0  0  0  0
  -28.6650  -25.8883   21.1303 C   0  0  0  0  0  0
  -29.9060  -17.8650   20.6520 C   0  0  0  0  0  0
  -30.9435  -23.3458   23.8245 N   0  0  0  0  0  0
  -31.1810  -22.3399   22.9576 N   0  0  0  0  0  0
  -30.2753  -15.4071   21.4701 N   0  0  0  0  0  0
  -29.9310  -20.4827   20.5398 N   0  3  0  0  0  0
  -31.4795  -12.4299   19.0894 H   0  0  0  0  0  0
  -30.3795  -11.2935   19.7677 H   0  0  0  0  0  0
  -29.7349  -11.8005   17.4208 H   0  0  0  0  0  0
  -29.7017  -13.5120   17.7543 H   0  0  0  0  0  0
  -27.7818  -11.3749   18.7258 H   0  0  0  0  0  0
  -27.3868  -12.7889   17.7797 H   0  0  0  0  0  0
  -27.7523  -14.2801   19.6780 H   0  0  0  0  0  0
  -28.7033  -11.8135   21.1631 H   0  0  0  0  0  0
  -28.4167  -13.3047   21.9256 H   0  0  0  0  0  0
  -25.2768   -9.5793   22.4847 H   0  0  0  0  0  0
  -24.0072   -7.4718   22.7505 H   0  0  0  0  0  0
  -21.0887   -8.8853   19.8996 H   0  0  0  0  0  0
  -22.3732  -10.9789   19.6263 H   0  0  0  0  0  0
  -21.1849   -7.6139   23.9734 H   0  0  0  0  0  0
  -21.1415   -6.0479   25.9064 H   0  0  0  0  0  0
  -22.0668   -2.7643   23.2801 H   0  0  0  0  0  0
  -22.3798  -12.0300   22.4938 H   0  0  0  0  0  0
  -21.0972  -13.1729   22.2156 H   0  0  0  0  0  0
  -24.7300  -15.8868   20.5447 H   0  0  0  0  0  0
  -26.3137  -15.5945   20.0495 H   0  0  0  0  0  0
  -26.7124  -32.5594   23.1272 H   0  0  0  0  0  0
  -25.0043  -33.9839   25.0529 H   0  0  0  0  0  0
  -22.6922  -31.3093   21.4136 H   0  0  0  0  0  0
  -23.3734  -35.9622   23.3340 H   0  0  0  0  0  0
  -24.3527  -36.8889   22.2041 H   0  0  0  0  0  0
  -23.7169  -37.6505   23.6626 H   0  0  0  0  0  0
  -26.0291  -31.6034   20.5939 H   0  0  0  0  0  0
  -26.8180  -30.9099   21.9846 H   0  0  0  0  0  0
  -28.0962  -29.1208   21.1979 H   0  0  0  0  0  0
  -26.0959  -25.9752   19.0404 H   0  0  0  0  0  0
  -23.9979  -27.3071   19.0156 H   0  0  0  0  0  0
  -23.7226  -30.5986   19.4063 H   0  0  0  0  0  0
  -22.7432  -29.2382   19.8707 H   0  0  0  0  0  0
  -25.1254  -36.2014   25.0833 H   0  0  0  0  0  0
  -20.9900  -28.3270   24.1488 H   0  0  0  0  0  0
  -20.5638  -26.2337   23.3667 H   0  0  0  0  0  0
  -21.6612  -26.7486   22.1261 H   0  0  0  0  0  0
  -19.6863  -25.6320   21.1309 H   0  0  0  0  0  0
  -19.6655  -27.3232   20.6803 H   0  0  0  0  0  0
  -17.4148  -26.6724   21.4066 H   0  0  0  0  0  0
  -18.0260  -26.0145   22.9090 H   0  0  0  0  0  0
  -19.7914  -30.7253   24.2421 H   0  0  0  0  0  0
  -17.5023  -31.6330   24.5207 H   0  0  0  0  0  0
  -15.5354  -30.3160   23.7571 H   0  0  0  0  0  0
  -15.8620  -28.0985   22.6991 H   0  0  0  0  0  0
  -24.5663  -30.7313   25.7851 H   0  0  0  0  0  0
  -24.9036  -32.3004   26.5068 H   0  0  0  0  0  0
  -25.7941  -30.8804   27.0247 H   0  0  0  0  0  0
  -26.2836  -29.6921   24.1046 H   0  0  0  0  0  0
  -27.3879  -29.7176   25.4602 H   0  0  0  0  0  0
  -27.8723  -30.4424   23.9450 H   0  0  0  0  0  0
  -27.2469  -33.3571   26.2272 H   0  0  0  0  0  0
  -28.3707  -32.7090   25.0437 H   0  0  0  0  0  0
  -28.0661  -31.8463   26.5448 H   0  0  0  0  0  0
  -28.2595  -38.0088   24.7480 H   0  0  0  0  0  0
  -28.1038  -36.2624   24.6275 H   0  0  0  0  0  0
  -27.2293  -37.1463   25.8852 H   0  0  0  0  0  0
  -20.9296  -29.8940   21.7147 H   0  0  0  0  0  0
  -26.0178  -38.2893   24.1435 H   0  0  0  0  0  0
  -30.0637  -25.2004   23.5871 H   0  0  0  0  0  0
  -27.9641  -16.8982   20.8575 H   0  0  0  0  0  0
  -27.8424  -18.6405   20.8521 H   0  0  0  0  0  0
  -28.4269  -17.7933   22.2849 H   0  0  0  0  0  0
  -29.4582  -16.6344   18.8992 H   0  0  0  0  0  0
  -30.9484  -17.5511   18.7514 H   0  0  0  0  0  0
  -29.3994  -18.3571   18.5597 H   0  0  0  0  0  0
  -31.1792  -20.4257   23.7921 H   0  0  0  0  0  0
  -32.5088  -21.4430   24.3235 H   0  0  0  0  0  0
  -32.5641  -20.7847   22.6955 H   0  0  0  0  0  0
  -28.6802  -15.2026   22.8331 H   0  0  0  0  0  0
  -30.1263  -15.8016   23.5988 H   0  0  0  0  0  0
  -30.0668  -14.1275   23.1628 H   0  0  0  0  0  0
  -28.9747  -24.1327   19.9509 H   0  0  0  0  0  0
  -30.3648  -25.1654   20.0227 H   0  0  0  0  0  0
  -31.8723  -21.3835   20.3919 H   0  0  0  0  0  0
  -30.5890  -22.2262   19.5990 H   0  0  0  0  0  0
  -31.7753  -16.8210   20.8694 H   0  0  0  0  0  0
  -31.0605  -17.1624   22.3613 H   0  0  0  0  0  0
  -31.5955  -19.1949   20.4949 H   0  0  0  0  0  0
  -30.7650  -19.2884   22.0234 H   0  0  0  0  0  0
  -29.1464  -26.4769   21.9147 H   0  0  0  0  0  0
  -27.7498  -25.4662   21.5513 H   0  0  0  0  0  0
  -29.5452  -20.3640   19.6187 H   0  0  0  0  0  0
  -29.1657  -20.7015   21.1555 H   0  0  0  0  0  0
  1 25  1  0  0  0
  1 30  2  0  0  0
  1 86  1  0  0  0
  2  3  1  0  0  0
  2 25  1  0  0  0
  2 88  1  0  0  0
  2 89  1  0  0  0
  3  4  1  0  0  0
  3 90  1  0  0  0
  3 91  1  0  0  0
  4  5  1  0  0  0
  4 92  1  0  0  0
  4 93  1  0  0  0
  5  6  1  0  0  0
  5 26  1  0  0  0
  5 94  1  0  0  0
  6 25  1  0  0  0
  6 95  1  0  0  0
  6 96  1  0  0  0
  7  8  2  0  0  0
  7 26  1  0  0  0
  7 29  1  0  0  0
  8  9  1  0  0  0
  8 22  1  0  0  0
  9 10  1  0  0  0
  9 27  2  0  0  0
 10 11  2  0  0  0
 10 15  1  0  0  0
 11 12  1  0  0  0
 11 97  1  0  0  0
 12 13  2  0  0  0
 12 98  1  0  0  0
 13 14  1  0  0  0
 13 31  1  0  0  0
 14 15  2  0  0  0
 14 99  1  0  0  0
 15100  1  0  0  0
 16 17  2  0  0  0
 16 21  1  0  0  0
 16 31  1  0  0  0
 17 18  1  0  0  0
 17101  1  0  0  0
 18 19  2  0  0  0
 18102  1  0  0  0
 19 20  1  0  0  0
 19 24  1  0  0  0
 20 21  2  0  0  0
 20103  1  0  0  0
 21 23  1  0  0  0
 22 28  1  0  0  0
 22 32  2  0  0  0
 26 27  1  0  0  0
 28104  1  0  0  0
 28105  1  0  0  0
 29106  1  0  0  0
 29107  1  0  0  0
 33 34  1  0  0  0
 33 66  1  0  0  0
 33 70  2  0  0  0
 34 36  1  0  0  0
 34 59  1  0  0  0
 34108  1  0  0  0
 35 44  2  0  0  0
 35 45  1  0  0  0
 35 68  1  0  0  0
 36 56  1  0  0  0
 36109  1  0  0  0
 37 39  1  0  0  0
 37 47  1  0  0  0
 37 66  1  0  0  0
 37110  1  0  0  0
 38 43  2  0  0  0
 38 46  1  0  0  0
 38 47  1  0  0  0
 39 64  1  0  0  0
 39 67  2  0  0  0
 40 52  1  0  0  0
 40 53  2  0  0  0
 40 58  1  0  0  0
 41111  1  0  0  0
 41112  1  0  0  0
 41113  1  0  0  0
 41 48  1  0  0  0
 42 43  1  0  0  0
 42 66  1  0  0  0
 42114  1  0  0  0
 42115  1  0  0  0
 43 44  1  0  0  0
 44116  1  0  0  0
 45 46  2  0  0  0
 45117  1  0  0  0
 46118  1  0  0  0
 47119  1  0  0  0
 47120  1  0  0  0
 48 56  1  0  0  0
 48 65  1  0  0  0
 48121  1  0  0  0
 49 50  1  0  0  0
 49 53  1  0  0  0
 49 64  1  0  0  0
 49122  1  0  0  0
 50 51  1  0  0  0
 50123  1  0  0  0
 50124  1  0  0  0
 51 52  1  0  0  0
 51125  1  0  0  0
 51126  1  0  0  0
 52127  1  0  0  0
 52128  1  0  0  0
 53 54  1  0  0  0
 54 55  2  0  0  0
 54129  1  0  0  0
 55 57  1  0  0  0
 55130  1  0  0  0
 56 69  2  0  0  0
 57 58  2  0  0  0
 57131  1  0  0  0
 58132  1  0  0  0
 59 60  1  0  0  0
 59 61  1  0  0  0
 59 62  1  0  0  0
 60133  1  0  0  0
 60134  1  0  0  0
 60135  1  0  0  0
 61136  1  0  0  0
 61137  1  0  0  0
 61138  1  0  0  0
 62139  1  0  0  0
 62140  1  0  0  0
 62141  1  0  0  0
 63 65  1  0  0  0
 63142  1  0  0  0
 63143  1  0  0  0
 63144  1  0  0  0
 64145  1  0  0  0
 65146  1  0  0  0
 68 82  1  0  0  0
 71 72  1  0  0  0
 71 84  2  0  0  0
 71147  1  0  0  0
 72 73  2  0  0  0
 72 78  1  0  0  0
 73 79  1  0  0  0
 73 85  1  0  0  0
 74148  1  0  0  0
 74149  1  0  0  0
 74150  1  0  0  0
 74 83  1  0  0  0
 75 83  1  0  0  0
 75151  1  0  0  0
 75152  1  0  0  0
 75153  1  0  0  0
 76 85  1  0  0  0
 76154  1  0  0  0
 76155  1  0  0  0
 76156  1  0  0  0
 77 86  1  0  0  0
 77157  1  0  0  0
 77158  1  0  0  0
 77159  1  0  0  0
 78 82  1  0  0  0
 78160  1  0  0  0
 78161  1  0  0  0
 79 87  1  0  0  0
 79162  1  0  0  0
 79163  1  0  0  0
 80 83  1  0  0  0
 80 86  1  0  0  0
 80164  1  0  0  0
 80165  1  0  0  0
 81 83  1  0  0  0
 81 87  1  0  0  0
 81166  1  0  0  0
 81167  1  0  0  0
 82168  1  0  0  0
 82169  1  0  0  0
 84 85  1  0  0  0
 87170  1  0  0  0
 87171  1  0  0  0
M  CHG  1  87   1
M  ISO  4   1 100  68 101  82 101  86 100
M  END
> <chiral flag>
0

> <version>
0

> <s_m_source_file>
/data/baiqing/PycharmProjects/Reinvent-master-3.2/result/LINK_invent/BTK/process_docking_weight1_custom_sum_contain_oxygen_bond_distance_aromatic_linkinvent_7_9_3/rearranged_h_0046.sdf

> <i_m_source_file_index>
75

> <r_mmod_Potential_Energy-OPLS-2005>
-113.923370361328

> <r_mmod_Stretch_Energy-OPLS-2005>
43.1349449157715

> <r_mmod_Bend_Energy-OPLS-2005>
132.007843017578

> <r_mmod_Torsional_Energy-OPLS-2005>
309.115692138672

> <r_mmod_Improper_Torsional_Energy-OPLS-2005>
5.00543880462646

> <r_mmod_Van_der_Waal_Energy-OPLS-2005>
142.929595947266

> <r_mmod_Electrostatic_Energy-OPLS-2005>
-275.917907714844

> <r_mmod_Solvation_Energy-OPLS-2005>
-479.580200195312

> <b_mmod_Minimization_Converged-OPLS-2005>
0

> <r_mmod_RMS_Derivative-OPLS-2005>
6.35652780532837

$$$$
76
                    3D
 Structure written by MMmdl.
146154  0  0  1  0            999 V2000
  -30.3935  -15.5192   20.3158 C   0  0  0  0  0  0
  -30.4185  -12.9787   19.5667 C   0  0  0  0  0  0
  -29.5515  -12.6372   18.3240 C   0  0  0  0  0  0
  -28.1113  -12.3087   18.7428 C   0  0  0  0  0  0
  -27.5946  -13.3081   19.8059 C   0  0  2  0  0  0
  -28.6064  -13.6149   20.9330 C   0  0  0  0  0  0
  -25.2326  -13.8297   20.5782 C   0  0  0  0  0  0
  -24.1705  -13.0447   20.9270 C   0  0  0  0  0  0
  -24.6390  -11.6952   20.8722 C   0  0  0  0  0  0
  -23.9089  -10.4297   21.0364 C   0  0  0  0  0  0
  -24.3634   -9.4222   21.9154 C   0  0  0  0  0  0
  -23.6312   -8.2256   22.0735 C   0  0  0  0  0  0
  -22.4294   -8.0284   21.3535 C   0  0  0  0  0  0
  -21.9928   -9.0242   20.4619 C   0  0  0  0  0  0
  -22.7251  -10.2126   20.3022 C   0  0  0  0  0  0
  -21.6864   -6.0732   22.5280 C   0  0  0  0  0  0
  -21.4022   -6.5628   23.8213 C   0  0  0  0  0  0
  -21.3673   -5.6781   24.9176 C   0  0  0  0  0  0
  -21.6058   -4.3044   24.7220 C   0  0  0  0  0  0
  -21.8818   -3.8139   23.4337 C   0  0  0  0  0  0
  -21.9191   -4.6953   22.3393 C   0  0  0  0  0  0
  -22.7716  -13.5178   21.1910 C   0  0  0  0  0  0
  -22.1654   -4.2146   21.0970 F   0  0  0  0  0  0
  -21.5643   -3.4523   25.7729 F   0  0  0  0  0  0
  -29.8196  -14.1800   20.3051 N   0  0  0  0  0  0
  -26.2750  -12.9625   20.3158 N   0  0  0  0  0  0
  -25.9330  -11.6694   20.5632 N   0  0  0  0  0  0
  -22.0367  -12.8165   22.0466 N   0  0  0  0  0  0
  -25.3970  -15.2041   20.4284 N   0  0  0  0  0  0
  -31.6195  -15.3817   20.1328 O   0  0  0  0  0  0
  -21.6659   -6.8881   21.4243 O   0  0  0  0  0  0
  -22.3385  -14.5462   20.6727 O   0  0  0  0  0  0
  -24.6792  -31.8056   23.1552 C   0  0  0  0  0  0
  -25.9405  -32.4487   23.8075 C   0  0  1  0  0  0
  -27.2189  -26.7593   20.2029 C   0  0  0  0  0  0
  -25.6011  -33.8312   24.1973 N   0  0  0  0  0  0
  -23.5006  -30.4090   21.5100 C   0  0  2  0  0  0
  -24.9538  -28.7617   20.1129 C   0  0  0  0  0  0
  -22.7740  -29.4343   22.4752 C   0  0  0  0  0  0
  -18.0332  -28.1423   22.8462 C   0  0  0  0  0  0
  -24.1498  -36.7173   23.2643 C   0  0  0  0  0  0
  -26.0771  -30.5552   21.4091 C   0  0  0  0  0  0
  -26.1407  -29.1270   20.7585 C   0  0  0  0  0  0
  -27.2601  -28.1517   20.7735 C   0  0  0  0  0  0
  -26.0009  -26.5860   19.5012 C   0  0  0  0  0  0
  -24.9196  -27.5162   19.4609 C   0  0  0  0  0  0
  -23.7476  -29.7111   20.1421 C   0  0  0  0  0  0
  -25.4149  -36.2913   24.0280 C   0  0  1  0  0  0
  -20.5964  -28.3771   23.1183 C   0  0  2  0  0  0
  -20.6809  -26.9440   22.5419 C   0  0  0  0  0  0
  -19.5783  -26.6376   21.5235 C   0  0  0  0  0  0
  -18.1961  -26.7953   22.1626 C   0  0  0  0  0  0
  -19.1597  -28.8924   23.2798 C   0  0  0  0  0  0
  -18.9496  -30.1515   23.8828 C   0  0  0  0  0  0
  -17.6487  -30.6606   24.0556 C   0  0  0  0  0  0
  -25.9131  -34.9300   23.4961 C   0  0  0  0  0  0
  -16.5377  -29.9084   23.6353 C   0  0  0  0  0  0
  -16.7314  -28.6514   23.0360 C   0  0  0  0  0  0
  -26.4593  -31.6487   25.0671 C   0  0  0  0  0  0
  -25.3673  -31.3809   26.1303 C   0  0  0  0  0  0
  -27.0500  -30.2823   24.6514 C   0  0  0  0  0  0
  -27.6043  -32.4332   25.7491 C   0  0  0  0  0  0
  -27.5577  -37.1746   24.8460 C   0  0  0  0  0  0
  -21.4397  -29.3025   22.3512 N   0  0  0  0  0  0
  -26.4282  -37.3671   23.9408 N   0  0  0  0  0  0
  -24.7754  -30.9555   22.0776 N   0  0  0  0  0  0
  -23.4215  -28.7947   23.3081 O   0  0  0  0  0  0
  -28.1965  -25.5757   20.2963 O   0  0  0  0  0  0
  -26.5762  -34.8875   22.4572 O   0  0  0  0  0  0
  -23.5829  -32.1113   23.6549 O   0  0  0  0  0  0
  -28.7284  -17.9440   20.9637 C   0  0  0  0  0  0
  -29.8187  -17.1880   20.2871 C   0  0  0  0  0  0
  -30.2153  -19.6730   19.6200 C   0  0  0  0  0  0
  -29.1205  -20.4358   20.2722 C   0  0  0  0  0  0
  -31.2636  -20.4623   18.8611 C   0  0  0  0  0  0
  -29.0020  -22.2665   20.5148 C   0  0  0  0  0  0
  -28.0526  -23.8593   20.0679 C   0  0  0  0  0  0
  -28.4300  -19.3874   20.9599 N   0  0  0  0  0  0
  -30.5058  -18.2475   19.6316 N   0  0  0  0  0  0
  -31.4374  -13.1756   19.2330 H   0  0  0  0  0  0
  -30.5077  -12.1112   20.2244 H   0  0  0  0  0  0
  -29.9849  -11.8036   17.7700 H   0  0  0  0  0  0
  -29.5487  -13.4930   17.6460 H   0  0  0  0  0  0
  -28.1078  -11.2988   19.1546 H   0  0  0  0  0  0
  -27.4535  -12.2916   17.8728 H   0  0  0  0  0  0
  -27.4689  -14.2398   19.2529 H   0  0  0  0  0  0
  -28.8228  -12.7281   21.5308 H   0  0  0  0  0  0
  -28.1895  -14.3520   21.6204 H   0  0  0  0  0  0
  -25.2769   -9.5720   22.4740 H   0  0  0  0  0  0
  -24.0023   -7.4658   22.7460 H   0  0  0  0  0  0
  -21.0867   -8.8732   19.8921 H   0  0  0  0  0  0
  -22.3681  -10.9651   19.6133 H   0  0  0  0  0  0
  -21.2010   -7.6139   23.9718 H   0  0  0  0  0  0
  -21.1513   -6.0507   25.9082 H   0  0  0  0  0  0
  -22.0586   -2.7597   23.2829 H   0  0  0  0  0  0
  -22.3991  -11.9869   22.4929 H   0  0  0  0  0  0
  -21.0955  -13.1156   22.2599 H   0  0  0  0  0  0
  -24.6345  -15.8583   20.5664 H   0  0  0  0  0  0
  -26.2425  -15.6479   20.0946 H   0  0  0  0  0  0
  -26.7486  -32.4963   23.0784 H   0  0  0  0  0  0
  -25.0084  -33.9362   25.0076 H   0  0  0  0  0  0
  -22.8219  -31.2451   21.3284 H   0  0  0  0  0  0
  -23.3779  -35.9482   23.3252 H   0  0  0  0  0  0
  -24.3564  -36.8889   22.2067 H   0  0  0  0  0  0
  -23.7242  -37.6334   23.6754 H   0  0  0  0  0  0
  -26.2740  -31.2821   20.6201 H   0  0  0  0  0  0
  -26.9319  -30.6195   22.0700 H   0  0  0  0  0  0
  -28.1536  -28.4342   21.3113 H   0  0  0  0  0  0
  -25.8445  -25.6381   19.0054 H   0  0  0  0  0  0
  -24.0231  -27.2297   18.9289 H   0  0  0  0  0  0
  -23.9143  -30.4743   19.3815 H   0  0  0  0  0  0
  -22.8521  -29.1756   19.8217 H   0  0  0  0  0  0
  -25.1351  -36.1678   25.0770 H   0  0  0  0  0  0
  -21.0035  -28.3385   24.1317 H   0  0  0  0  0  0
  -20.5698  -26.2389   23.3669 H   0  0  0  0  0  0
  -21.6670  -26.7409   22.1223 H   0  0  0  0  0  0
  -19.6939  -25.6270   21.1310 H   0  0  0  0  0  0
  -19.6735  -27.3153   20.6742 H   0  0  0  0  0  0
  -17.4240  -26.6712   21.4016 H   0  0  0  0  0  0
  -18.0327  -26.0107   22.9027 H   0  0  0  0  0  0
  -19.7971  -30.7359   24.2153 H   0  0  0  0  0  0
  -17.5032  -31.6279   24.5173 H   0  0  0  0  0  0
  -15.5373  -30.2956   23.7728 H   0  0  0  0  0  0
  -15.8717  -28.0817   22.7092 H   0  0  0  0  0  0
  -24.5857  -30.7156   25.7622 H   0  0  0  0  0  0
  -24.8869  -32.3041   26.4549 H   0  0  0  0  0  0
  -25.7861  -30.9087   27.0199 H   0  0  0  0  0  0
  -26.3195  -29.6463   24.1502 H   0  0  0  0  0  0
  -27.3956  -29.7228   25.5219 H   0  0  0  0  0  0
  -27.9169  -30.3959   24.0001 H   0  0  0  0  0  0
  -27.2571  -33.3686   26.1894 H   0  0  0  0  0  0
  -28.3945  -32.6812   25.0390 H   0  0  0  0  0  0
  -28.0611  -31.8578   26.5554 H   0  0  0  0  0  0
  -28.2550  -38.0083   24.7525 H   0  0  0  0  0  0
  -28.1122  -36.2610   24.6260 H   0  0  0  0  0  0
  -27.2304  -37.1344   25.8865 H   0  0  0  0  0  0
  -20.9692  -29.8662   21.6569 H   0  0  0  0  0  0
  -26.0110  -38.2725   24.1413 H   0  0  0  0  0  0
  -28.0623  -17.3717   21.5916 H   0  0  0  0  0  0
  -30.8030  -21.2595   18.2780 H   0  0  0  0  0  0
  -31.8245  -19.8313   18.1708 H   0  0  0  0  0  0
  -31.9714  -20.9093   19.5593 H   0  0  0  0  0  0
  -30.0161  -22.5547   20.2442 H   0  0  0  0  0  0
  -29.0159  -22.3144   21.6026 H   0  0  0  0  0  0
  -27.0352  -23.6601   20.4062 H   0  0  0  0  0  0
  -27.9791  -23.7995   18.9818 H   0  0  0  0  0  0
  1 25  1  0  0  0
  1 30  2  0  0  0
  1 72  1  0  0  0
  2  3  1  0  0  0
  2 25  1  0  0  0
  2 80  1  0  0  0
  2 81  1  0  0  0
  3  4  1  0  0  0
  3 82  1  0  0  0
  3 83  1  0  0  0
  4  5  1  0  0  0
  4 84  1  0  0  0
  4 85  1  0  0  0
  5  6  1  0  0  0
  5 26  1  0  0  0
  5 86  1  0  0  0
  6 25  1  0  0  0
  6 87  1  0  0  0
  6 88  1  0  0  0
  7  8  2  0  0  0
  7 26  1  0  0  0
  7 29  1  0  0  0
  8  9  1  0  0  0
  8 22  1  0  0  0
  9 10  1  0  0  0
  9 27  2  0  0  0
 10 11  2  0  0  0
 10 15  1  0  0  0
 11 12  1  0  0  0
 11 89  1  0  0  0
 12 13  2  0  0  0
 12 90  1  0  0  0
 13 14  1  0  0  0
 13 31  1  0  0  0
 14 15  2  0  0  0
 14 91  1  0  0  0
 15 92  1  0  0  0
 16 17  2  0  0  0
 16 21  1  0  0  0
 16 31  1  0  0  0
 17 18  1  0  0  0
 17 93  1  0  0  0
 18 19  2  0  0  0
 18 94  1  0  0  0
 19 20  1  0  0  0
 19 24  1  0  0  0
 20 21  2  0  0  0
 20 95  1  0  0  0
 21 23  1  0  0  0
 22 28  1  0  0  0
 22 32  2  0  0  0
 26 27  1  0  0  0
 28 96  1  0  0  0
 28 97  1  0  0  0
 29 98  1  0  0  0
 29 99  1  0  0  0
 33 34  1  0  0  0
 33 66  1  0  0  0
 33 70  2  0  0  0
 34 36  1  0  0  0
 34 59  1  0  0  0
 34100  1  0  0  0
 35 44  2  0  0  0
 35 45  1  0  0  0
 35 68  1  0  0  0
 36 56  1  0  0  0
 36101  1  0  0  0
 37 39  1  0  0  0
 37 47  1  0  0  0
 37 66  1  0  0  0
 37102  1  0  0  0
 38 43  2  0  0  0
 38 46  1  0  0  0
 38 47  1  0  0  0
 39 64  1  0  0  0
 39 67  2  0  0  0
 40 52  1  0  0  0
 40 53  2  0  0  0
 40 58  1  0  0  0
 41103  1  0  0  0
 41104  1  0  0  0
 41105  1  0  0  0
 41 48  1  0  0  0
 42 43  1  0  0  0
 42 66  1  0  0  0
 42106  1  0  0  0
 42107  1  0  0  0
 43 44  1  0  0  0
 44108  1  0  0  0
 45 46  2  0  0  0
 45109  1  0  0  0
 46110  1  0  0  0
 47111  1  0  0  0
 47112  1  0  0  0
 48 56  1  0  0  0
 48 65  1  0  0  0
 48113  1  0  0  0
 49 50  1  0  0  0
 49 53  1  0  0  0
 49 64  1  0  0  0
 49114  1  0  0  0
 50 51  1  0  0  0
 50115  1  0  0  0
 50116  1  0  0  0
 51 52  1  0  0  0
 51117  1  0  0  0
 51118  1  0  0  0
 52119  1  0  0  0
 52120  1  0  0  0
 53 54  1  0  0  0
 54 55  2  0  0  0
 54121  1  0  0  0
 55 57  1  0  0  0
 55122  1  0  0  0
 56 69  2  0  0  0
 57 58  2  0  0  0
 57123  1  0  0  0
 58124  1  0  0  0
 59 60  1  0  0  0
 59 61  1  0  0  0
 59 62  1  0  0  0
 60125  1  0  0  0
 60126  1  0  0  0
 60127  1  0  0  0
 61128  1  0  0  0
 61129  1  0  0  0
 61130  1  0  0  0
 62131  1  0  0  0
 62132  1  0  0  0
 62133  1  0  0  0
 63 65  1  0  0  0
 63134  1  0  0  0
 63135  1  0  0  0
 63136  1  0  0  0
 64137  1  0  0  0
 65138  1  0  0  0
 68 77  1  0  0  0
 71 72  2  0  0  0
 71 78  1  0  0  0
 71139  1  0  0  0
 72 79  1  0  0  0
 73 74  1  0  0  0
 73 75  1  0  0  0
 73 79  2  0  0  0
 74 76  1  0  0  0
 74 78  2  0  0  0
 75140  1  0  0  0
 75141  1  0  0  0
 75142  1  0  0  0
 76 77  1  0  0  0
 76143  1  0  0  0
 76144  1  0  0  0
 77145  1  0  0  0
 77146  1  0  0  0
M  ISO  4   1 100  68 101  72 100  77 101
M  END
> <chiral flag>
0

> <version>
0

> <s_m_source_file>
/data/baiqing/PycharmProjects/Reinvent-master-3.2/result/LINK_invent/BTK/process_docking_weight1_custom_sum_contain_oxygen_bond_distance_aromatic_linkinvent_7_9_3/rearranged_h_0046.sdf

> <i_m_source_file_index>
76

> <r_mmod_Potential_Energy-OPLS-2005>
2189.29541015625

> <r_mmod_Stretch_Energy-OPLS-2005>
886.763305664062

> <r_mmod_Bend_Energy-OPLS-2005>
642.812927246094

> <r_mmod_Torsional_Energy-OPLS-2005>
194.538848876953

> <r_mmod_Improper_Torsional_Energy-OPLS-2005>
7.80698680877686

> <r_mmod_Van_der_Waal_Energy-OPLS-2005>
132.827667236328

> <r_mmod_Electrostatic_Energy-OPLS-2005>
-196.108474731445

> <r_mmod_Solvation_Energy-OPLS-2005>
-222.461715698242

> <b_mmod_Minimization_Converged-OPLS-2005>
0

> <r_mmod_RMS_Derivative-OPLS-2005>
1.74874925613403

$$$$
77
                    3D
 Structure written by MMmdl.
157165  0  0  1  0            999 V2000
  -30.7409  -14.4272   20.5848 C   0  0  0  0  0  0
  -30.4150  -12.2791   19.4307 C   0  0  0  0  0  0
  -29.4993  -12.4906   18.2085 C   0  0  0  0  0  0
  -28.0193  -12.3588   18.6175 C   0  0  0  0  0  0
  -27.6628  -13.2043   19.8705 C   0  0  2  0  0  0
  -28.6986  -12.9902   20.9948 C   0  0  0  0  0  0
  -25.2611  -13.8162   20.5675 C   0  0  0  0  0  0
  -24.1853  -13.0446   20.9165 C   0  0  0  0  0  0
  -24.6396  -11.6910   20.8717 C   0  0  0  0  0  0
  -23.9054  -10.4296   21.0391 C   0  0  0  0  0  0
  -24.3611   -9.4215   21.9170 C   0  0  0  0  0  0
  -23.6293   -8.2247   22.0752 C   0  0  0  0  0  0
  -22.4274   -8.0280   21.3550 C   0  0  0  0  0  0
  -21.9904   -9.0249   20.4652 C   0  0  0  0  0  0
  -22.7224  -10.2131   20.3049 C   0  0  0  0  0  0
  -21.6855   -6.0722   22.5276 C   0  0  0  0  0  0
  -21.4012   -6.5626   23.8211 C   0  0  0  0  0  0
  -21.3670   -5.6784   24.9180 C   0  0  0  0  0  0
  -21.6055   -4.3051   24.7222 C   0  0  0  0  0  0
  -21.8823   -3.8135   23.4346 C   0  0  0  0  0  0
  -21.9194   -4.6950   22.3401 C   0  0  0  0  0  0
  -22.7882  -13.5254   21.1820 C   0  0  0  0  0  0
  -22.1662   -4.2139   21.0977 F   0  0  0  0  0  0
  -21.5637   -3.4536   25.7736 F   0  0  0  0  0  0
  -30.0339  -13.2730   20.4450 N   0  0  0  0  0  0
  -26.3034  -12.9320   20.3333 N   0  0  0  0  0  0
  -25.9320  -11.6484   20.5734 N   0  0  0  0  0  0
  -22.0507  -12.8277   22.0386 N   0  0  0  0  0  0
  -25.4373  -15.1882   20.4117 N   0  0  0  0  0  0
  -31.8833  -14.5579   20.1327 O   0  0  0  0  0  0
  -21.6647   -6.8871   21.4244 O   0  0  0  0  0  0
  -22.3578  -14.5552   20.6653 O   0  0  0  0  0  0
  -24.6119  -31.8714   23.2146 C   0  0  0  0  0  0
  -25.9026  -32.4842   23.8424 C   0  0  1  0  0  0
  -27.2263  -27.4560   20.0947 C   0  0  0  0  0  0
  -25.5895  -33.8644   24.2355 N   0  0  0  0  0  0
  -23.3965  -30.4966   21.5551 C   0  0  2  0  0  0
  -24.8392  -28.9686   20.1164 C   0  0  0  0  0  0
  -22.7401  -29.4667   22.5014 C   0  0  0  0  0  0
  -18.0274  -28.1370   22.8495 C   0  0  0  0  0  0
  -24.1487  -36.7317   23.2636 C   0  0  0  0  0  0
  -25.9227  -30.8452   21.3622 C   0  0  0  0  0  0
  -25.9988  -29.4807   20.7115 C   0  0  0  0  0  0
  -27.1952  -28.7320   20.6958 C   0  0  0  0  0  0
  -26.0509  -26.9611   19.4823 C   0  0  0  0  0  0
  -24.8592  -27.7074   19.4990 C   0  0  0  0  0  0
  -23.6020  -29.8341   20.1676 C   0  0  0  0  0  0
  -25.4103  -36.3122   24.0341 C   0  0  1  0  0  0
  -20.5865  -28.3644   23.1337 C   0  0  2  0  0  0
  -20.6760  -26.9386   22.5421 C   0  0  0  0  0  0
  -19.5740  -26.6383   21.5212 C   0  0  0  0  0  0
  -18.1918  -26.7916   22.1625 C   0  0  0  0  0  0
  -19.1522  -28.8828   23.2913 C   0  0  0  0  0  0
  -18.9444  -30.1436   23.8916 C   0  0  0  0  0  0
  -17.6445  -30.6578   24.0564 C   0  0  0  0  0  0
  -25.9027  -34.9485   23.5143 C   0  0  0  0  0  0
  -16.5341  -29.9074   23.6325 C   0  0  0  0  0  0
  -16.7262  -28.6496   23.0343 C   0  0  0  0  0  0
  -26.4466  -31.6613   25.0735 C   0  0  0  0  0  0
  -25.3747  -31.3697   26.1499 C   0  0  0  0  0  0
  -27.0286  -30.3070   24.6063 C   0  0  0  0  0  0
  -27.6064  -32.4316   25.7478 C   0  0  0  0  0  0
  -27.5579  -37.1810   24.8465 C   0  0  0  0  0  0
  -21.4134  -29.3023   22.3753 N   0  0  0  0  0  0
  -26.4296  -37.3804   23.9410 N   0  0  0  0  0  0
  -24.6623  -31.0842   22.1030 N   0  0  0  0  0  0
  -23.4195  -28.8198   23.3033 O   0  0  0  0  0  0
  -28.4127  -26.7588   20.0852 O   0  0  0  0  0  0
  -26.5581  -34.8925   22.4699 O   0  0  0  0  0  0
  -23.5319  -32.1449   23.7560 O   0  0  0  0  0  0
  -28.5761  -21.2661   18.8021 C   0  0  0  0  0  0
  -30.4620  -22.3761   20.3925 C   0  0  0  0  0  0
  -29.5468  -20.4749   19.4596 C   0  0  0  0  0  0
  -29.5157  -23.1698   19.7007 C   0  0  0  0  0  0
  -29.7714  -15.8720   22.2946 C   0  0  0  0  0  0
  -29.6865  -18.9959   19.1403 C   0  0  0  0  0  0
  -29.5859  -24.6886   19.7176 C   0  0  0  0  0  0
  -29.5668  -18.0321   20.3393 C   0  0  0  0  0  0
  -30.0315  -16.6264   19.8976 C   0  0  0  0  0  0
  -28.3509  -25.3521   20.3378 C   0  0  0  0  0  0
  -30.4903  -21.0265   20.2637 N   0  0  0  0  0  0
  -28.5645  -22.6154   18.9096 N   0  0  0  0  0  0
  -30.0132  -15.5280   20.8899 N   0  0  0  0  0  0
  -31.4633  -12.3525   19.1377 H   0  0  0  0  0  0
  -30.2905  -11.2714   19.8324 H   0  0  0  0  0  0
  -29.7378  -11.7623   17.4328 H   0  0  0  0  0  0
  -29.6825  -13.4729   17.7699 H   0  0  0  0  0  0
  -27.8295  -11.3039   18.8204 H   0  0  0  0  0  0
  -27.3729  -12.6281   17.7820 H   0  0  0  0  0  0
  -27.7060  -14.2519   19.5719 H   0  0  0  0  0  0
  -28.6649  -11.9628   21.3590 H   0  0  0  0  0  0
  -28.4553  -13.6132   21.8542 H   0  0  0  0  0  0
  -25.2760   -9.5703   22.4739 H   0  0  0  0  0  0
  -24.0013   -7.4651   22.7484 H   0  0  0  0  0  0
  -21.0828   -8.8765   19.8964 H   0  0  0  0  0  0
  -22.3677  -10.9667   19.6160 H   0  0  0  0  0  0
  -21.1994   -7.6138   23.9704 H   0  0  0  0  0  0
  -21.1496   -6.0518   25.9083 H   0  0  0  0  0  0
  -22.0591   -2.7590   23.2848 H   0  0  0  0  0  0
  -22.4112  -11.9960   22.4822 H   0  0  0  0  0  0
  -21.1118  -13.1324   22.2541 H   0  0  0  0  0  0
  -24.6809  -15.8523   20.5332 H   0  0  0  0  0  0
  -26.3068  -15.6244   20.1310 H   0  0  0  0  0  0
  -26.7099  -32.5563   23.1190 H   0  0  0  0  0  0
  -25.0075  -33.9824   25.0518 H   0  0  0  0  0  0
  -22.6827  -31.3121   21.4215 H   0  0  0  0  0  0
  -23.3746  -35.9655   23.3317 H   0  0  0  0  0  0
  -24.3580  -36.8909   22.2048 H   0  0  0  0  0  0
  -23.7238  -37.6527   23.6633 H   0  0  0  0  0  0
  -26.0292  -31.6119   20.5929 H   0  0  0  0  0  0
  -26.8139  -30.9007   21.9757 H   0  0  0  0  0  0
  -28.0937  -29.1273   21.1491 H   0  0  0  0  0  0
  -26.0361  -26.0177   18.9580 H   0  0  0  0  0  0
  -23.9707  -27.3140   19.0249 H   0  0  0  0  0  0
  -23.7095  -30.6118   19.4103 H   0  0  0  0  0  0
  -22.7252  -29.2559   19.8710 H   0  0  0  0  0  0
  -25.1281  -36.1998   25.0834 H   0  0  0  0  0  0
  -20.9956  -28.3190   24.1457 H   0  0  0  0  0  0
  -20.5664  -26.2241   23.3595 H   0  0  0  0  0  0
  -21.6625  -26.7430   22.1206 H   0  0  0  0  0  0
  -19.6887  -25.6300   21.1220 H   0  0  0  0  0  0
  -19.6676  -27.3217   20.6759 H   0  0  0  0  0  0
  -17.4186  -26.6681   21.4026 H   0  0  0  0  0  0
  -18.0307  -26.0057   22.9019 H   0  0  0  0  0  0
  -19.7921  -30.7250   24.2291 H   0  0  0  0  0  0
  -17.4998  -31.6259   24.5157 H   0  0  0  0  0  0
  -15.5338  -30.2976   23.7637 H   0  0  0  0  0  0
  -15.8665  -28.0820   22.7035 H   0  0  0  0  0  0
  -24.5918  -30.7043   25.7833 H   0  0  0  0  0  0
  -24.8934  -32.2846   26.4976 H   0  0  0  0  0  0
  -25.8121  -30.8849   27.0237 H   0  0  0  0  0  0
  -26.2805  -29.6838   24.1143 H   0  0  0  0  0  0
  -27.4115  -29.7295   25.4486 H   0  0  0  0  0  0
  -27.8618  -30.4416   23.9159 H   0  0  0  0  0  0
  -27.2711  -33.3605   26.2106 H   0  0  0  0  0  0
  -28.3843  -32.6895   25.0275 H   0  0  0  0  0  0
  -28.0770  -31.8404   26.5347 H   0  0  0  0  0  0
  -28.2613  -38.0094   24.7513 H   0  0  0  0  0  0
  -28.1063  -36.2627   24.6297 H   0  0  0  0  0  0
  -27.2298  -37.1471   25.8871 H   0  0  0  0  0  0
  -20.9277  -29.8765   21.7005 H   0  0  0  0  0  0
  -26.0189  -38.2884   24.1414 H   0  0  0  0  0  0
  -27.8488  -20.8239   18.1380 H   0  0  0  0  0  0
  -31.2265  -22.8278   21.0080 H   0  0  0  0  0  0
  -28.7489  -16.2260   22.4336 H   0  0  0  0  0  0
  -30.4563  -16.6507   22.6301 H   0  0  0  0  0  0
  -29.9189  -15.0185   22.9601 H   0  0  0  0  0  0
  -30.6593  -18.8739   18.6605 H   0  0  0  0  0  0
  -28.9508  -18.7215   18.3819 H   0  0  0  0  0  0
  -29.7069  -25.0270   18.6887 H   0  0  0  0  0  0
  -30.4816  -25.0106   20.2492 H   0  0  0  0  0  0
  -28.5423  -18.0202   20.7157 H   0  0  0  0  0  0
  -30.2061  -18.3925   21.1452 H   0  0  0  0  0  0
  -31.0426  -16.7471   19.5018 H   0  0  0  0  0  0
  -29.4239  -16.3027   19.0505 H   0  0  0  0  0  0
  -28.3225  -25.1766   21.4133 H   0  0  0  0  0  0
  -27.4622  -24.8758   19.9295 H   0  0  0  0  0  0
  1 25  1  0  0  0
  1 30  2  0  0  0
  1 83  1  0  0  0
  2  3  1  0  0  0
  2 25  1  0  0  0
  2 84  1  0  0  0
  2 85  1  0  0  0
  3  4  1  0  0  0
  3 86  1  0  0  0
  3 87  1  0  0  0
  4  5  1  0  0  0
  4 88  1  0  0  0
  4 89  1  0  0  0
  5  6  1  0  0  0
  5 26  1  0  0  0
  5 90  1  0  0  0
  6 25  1  0  0  0
  6 91  1  0  0  0
  6 92  1  0  0  0
  7  8  2  0  0  0
  7 26  1  0  0  0
  7 29  1  0  0  0
  8  9  1  0  0  0
  8 22  1  0  0  0
  9 10  1  0  0  0
  9 27  2  0  0  0
 10 11  2  0  0  0
 10 15  1  0  0  0
 11 12  1  0  0  0
 11 93  1  0  0  0
 12 13  2  0  0  0
 12 94  1  0  0  0
 13 14  1  0  0  0
 13 31  1  0  0  0
 14 15  2  0  0  0
 14 95  1  0  0  0
 15 96  1  0  0  0
 16 17  2  0  0  0
 16 21  1  0  0  0
 16 31  1  0  0  0
 17 18  1  0  0  0
 17 97  1  0  0  0
 18 19  2  0  0  0
 18 98  1  0  0  0
 19 20  1  0  0  0
 19 24  1  0  0  0
 20 21  2  0  0  0
 20 99  1  0  0  0
 21 23  1  0  0  0
 22 28  1  0  0  0
 22 32  2  0  0  0
 26 27  1  0  0  0
 28100  1  0  0  0
 28101  1  0  0  0
 29102  1  0  0  0
 29103  1  0  0  0
 33 34  1  0  0  0
 33 66  1  0  0  0
 33 70  2  0  0  0
 34 36  1  0  0  0
 34 59  1  0  0  0
 34104  1  0  0  0
 35 44  2  0  0  0
 35 45  1  0  0  0
 35 68  1  0  0  0
 36 56  1  0  0  0
 36105  1  0  0  0
 37 39  1  0  0  0
 37 47  1  0  0  0
 37 66  1  0  0  0
 37106  1  0  0  0
 38 43  2  0  0  0
 38 46  1  0  0  0
 38 47  1  0  0  0
 39 64  1  0  0  0
 39 67  2  0  0  0
 40 52  1  0  0  0
 40 53  2  0  0  0
 40 58  1  0  0  0
 41107  1  0  0  0
 41108  1  0  0  0
 41109  1  0  0  0
 41 48  1  0  0  0
 42 43  1  0  0  0
 42 66  1  0  0  0
 42110  1  0  0  0
 42111  1  0  0  0
 43 44  1  0  0  0
 44112  1  0  0  0
 45 46  2  0  0  0
 45113  1  0  0  0
 46114  1  0  0  0
 47115  1  0  0  0
 47116  1  0  0  0
 48 56  1  0  0  0
 48 65  1  0  0  0
 48117  1  0  0  0
 49 50  1  0  0  0
 49 53  1  0  0  0
 49 64  1  0  0  0
 49118  1  0  0  0
 50 51  1  0  0  0
 50119  1  0  0  0
 50120  1  0  0  0
 51 52  1  0  0  0
 51121  1  0  0  0
 51122  1  0  0  0
 52123  1  0  0  0
 52124  1  0  0  0
 53 54  1  0  0  0
 54 55  2  0  0  0
 54125  1  0  0  0
 55 57  1  0  0  0
 55126  1  0  0  0
 56 69  2  0  0  0
 57 58  2  0  0  0
 57127  1  0  0  0
 58128  1  0  0  0
 59 60  1  0  0  0
 59 61  1  0  0  0
 59 62  1  0  0  0
 60129  1  0  0  0
 60130  1  0  0  0
 60131  1  0  0  0
 61132  1  0  0  0
 61133  1  0  0  0
 61134  1  0  0  0
 62135  1  0  0  0
 62136  1  0  0  0
 62137  1  0  0  0
 63 65  1  0  0  0
 63138  1  0  0  0
 63139  1  0  0  0
 63140  1  0  0  0
 64141  1  0  0  0
 65142  1  0  0  0
 68 80  1  0  0  0
 71 73  2  0  0  0
 71 82  1  0  0  0
 71143  1  0  0  0
 72 74  1  0  0  0
 72 81  2  0  0  0
 72144  1  0  0  0
 73 76  1  0  0  0
 73 81  1  0  0  0
 74 77  1  0  0  0
 74 82  2  0  0  0
 75 83  1  0  0  0
 75145  1  0  0  0
 75146  1  0  0  0
 75147  1  0  0  0
 76 78  1  0  0  0
 76148  1  0  0  0
 76149  1  0  0  0
 77 80  1  0  0  0
 77150  1  0  0  0
 77151  1  0  0  0
 78 79  1  0  0  0
 78152  1  0  0  0
 78153  1  0  0  0
 79 83  1  0  0  0
 79154  1  0  0  0
 79155  1  0  0  0
 80156  1  0  0  0
 80157  1  0  0  0
M  ISO  4   1 100  68 101  80 101  83 100
M  END
> <chiral flag>
0

> <version>
0

> <s_m_source_file>
/data/baiqing/PycharmProjects/Reinvent-master-3.2/result/LINK_invent/BTK/process_docking_weight1_custom_sum_contain_oxygen_bond_distance_aromatic_linkinvent_7_9_3/rearranged_h_0046.sdf

> <i_m_source_file_index>
77

> <r_mmod_Potential_Energy-OPLS-2005>
173.868072509766

> <r_mmod_Stretch_Energy-OPLS-2005>
35.7642936706543

> <r_mmod_Bend_Energy-OPLS-2005>
100.404388427734

> <r_mmod_Torsional_Energy-OPLS-2005>
281.266021728516

> <r_mmod_Improper_Torsional_Energy-OPLS-2005>
12.7132711410522

> <r_mmod_Van_der_Waal_Energy-OPLS-2005>
167.891265869141

> <r_mmod_Electrostatic_Energy-OPLS-2005>
-227.791687011719

> <r_mmod_Solvation_Energy-OPLS-2005>
-208.782958984375

> <b_mmod_Minimization_Converged-OPLS-2005>
0

> <r_mmod_RMS_Derivative-OPLS-2005>
1.57482933998108

$$$$
78
                    3D
 Structure written by MMmdl.
164172  0  0  1  0            999 V2000
  -30.6832  -14.6365   20.4293 C   0  0  0  0  0  0
  -30.4287  -12.3707   19.4718 C   0  0  0  0  0  0
  -29.5121  -12.4364   18.2332 C   0  0  0  0  0  0
  -28.0311  -12.3157   18.6442 C   0  0  0  0  0  0
  -27.6478  -13.2118   19.8529 C   0  0  2  0  0  0
  -28.6979  -13.1555   20.9802 C   0  0  0  0  0  0
  -25.2552  -13.8155   20.5678 C   0  0  0  0  0  0
  -24.1811  -13.0443   20.9210 C   0  0  0  0  0  0
  -24.6383  -11.6911   20.8790 C   0  0  0  0  0  0
  -23.9062  -10.4297   21.0436 C   0  0  0  0  0  0
  -24.3616   -9.4197   21.9195 C   0  0  0  0  0  0
  -23.6315   -8.2227   22.0736 C   0  0  0  0  0  0
  -22.4294   -8.0285   21.3531 C   0  0  0  0  0  0
  -21.9929   -9.0268   20.4645 C   0  0  0  0  0  0
  -22.7250  -10.2151   20.3069 C   0  0  0  0  0  0
  -21.6872   -6.0753   22.5285 C   0  0  0  0  0  0
  -21.4032   -6.5638   23.8222 C   0  0  0  0  0  0
  -21.3676   -5.6776   24.9175 C   0  0  0  0  0  0
  -21.6056   -4.3044   24.7220 C   0  0  0  0  0  0
  -21.8818   -3.8155   23.4339 C   0  0  0  0  0  0
  -21.9197   -4.6984   22.3408 C   0  0  0  0  0  0
  -22.7826  -13.5258   21.1838 C   0  0  0  0  0  0
  -22.1635   -4.2169   21.0983 F   0  0  0  0  0  0
  -21.5635   -3.4514   25.7728 F   0  0  0  0  0  0
  -30.0017  -13.4542   20.3758 N   0  0  0  0  0  0
  -26.2963  -12.9337   20.3319 N   0  0  0  0  0  0
  -25.9312  -11.6492   20.5813 N   0  0  0  0  0  0
  -22.0419  -12.8293   22.0395 N   0  0  0  0  0  0
  -25.4310  -15.1855   20.4033 N   0  0  0  0  0  0
  -31.9046  -14.6661   20.2581 O   0  0  0  0  0  0
  -21.6648   -6.8889   21.4250 O   0  0  0  0  0  0
  -22.3543  -14.5581   20.6694 O   0  0  0  0  0  0
  -24.6263  -31.8611   23.2028 C   0  0  0  0  0  0
  -25.9113  -32.4768   23.8357 C   0  0  1  0  0  0
  -27.2220  -27.3225   20.1040 C   0  0  0  0  0  0
  -25.5923  -33.8572   24.2279 N   0  0  0  0  0  0
  -23.4177  -30.4882   21.5433 C   0  0  2  0  0  0
  -24.8602  -28.9427   20.1080 C   0  0  0  0  0  0
  -22.7465  -29.4650   22.4904 C   0  0  0  0  0  0
  -18.0288  -28.1371   22.8498 C   0  0  0  0  0  0
  -24.1483  -36.7306   23.2639 C   0  0  0  0  0  0
  -25.9586  -30.7890   21.3744 C   0  0  0  0  0  0
  -26.0275  -29.4178   20.7158 C   0  0  0  0  0  0
  -27.2052  -28.6168   20.7095 C   0  0  0  0  0  0
  -26.0227  -26.8910   19.4871 C   0  0  0  0  0  0
  -24.8598  -27.6843   19.4881 C   0  0  0  0  0  0
  -23.6314  -29.8269   20.1569 C   0  0  0  0  0  0
  -25.4101  -36.3081   24.0335 C   0  0  1  0  0  0
  -20.5892  -28.3690   23.1261 C   0  0  2  0  0  0
  -20.6760  -26.9411   22.5393 C   0  0  0  0  0  0
  -19.5731  -26.6376   21.5203 C   0  0  0  0  0  0
  -18.1926  -26.7914   22.1639 C   0  0  0  0  0  0
  -19.1545  -28.8841   23.2877 C   0  0  0  0  0  0
  -18.9477  -30.1438   23.8899 C   0  0  0  0  0  0
  -17.6482  -30.6579   24.0563 C   0  0  0  0  0  0
  -25.9052  -34.9451   23.5111 C   0  0  0  0  0  0
  -16.5369  -29.9087   23.6314 C   0  0  0  0  0  0
  -16.7281  -28.6495   23.0357 C   0  0  0  0  0  0
  -26.4488  -31.6569   25.0722 C   0  0  0  0  0  0
  -25.3740  -31.3726   26.1464 C   0  0  0  0  0  0
  -27.0314  -30.2988   24.6168 C   0  0  0  0  0  0
  -27.6051  -32.4293   25.7496 C   0  0  0  0  0  0
  -27.5575  -37.1804   24.8459 C   0  0  0  0  0  0
  -21.4182  -29.3056   22.3647 N   0  0  0  0  0  0
  -26.4271  -37.3781   23.9422 N   0  0  0  0  0  0
  -24.6859  -31.0633   22.0967 N   0  0  0  0  0  0
  -23.4199  -28.8187   23.2973 O   0  0  0  0  0  0
  -28.3758  -26.5249   20.1673 O   0  0  0  0  0  0
  -26.5630  -34.8925   22.4684 O   0  0  0  0  0  0
  -23.5426  -32.1408   23.7360 O   0  0  0  0  0  0
  -28.2404  -20.3685   20.8320 C   0  0  0  0  0  0
  -30.4942  -20.4962   20.0549 C   0  0  0  0  0  0
  -29.2568  -21.1588   20.2405 C   0  0  0  0  0  0
  -28.4795  -18.9974   21.1447 C   0  0  0  0  0  0
  -29.7388  -18.4083   20.8557 C   0  0  0  0  0  0
  -27.3716  -18.1731   21.7854 C   0  0  0  0  0  0
  -28.7693  -16.8193   16.6574 C   0  0  0  0  0  0
  -28.9909  -22.5732   19.6044 C   0  0  0  0  0  0
  -30.1102  -16.9179   21.2055 C   0  0  0  0  0  0
  -28.7033  -16.6959   18.1851 C   0  0  0  0  0  0
  -28.7764  -23.9032   20.4443 C   0  0  0  0  0  0
  -30.0493  -16.2560   18.7941 C   0  0  0  0  0  0
  -28.4822  -25.1885   19.5486 C   0  0  0  0  0  0
  -30.7281  -19.1865   20.3506 N   0  0  0  0  0  0
  -29.9711  -15.7964   20.2048 N   0  0  0  0  0  0
  -31.4759  -12.4569   19.1765 H   0  0  0  0  0  0
  -30.3353  -11.4076   19.9730 H   0  0  0  0  0  0
  -29.7659  -11.6281   17.5450 H   0  0  0  0  0  0
  -29.6803  -13.3662   17.6920 H   0  0  0  0  0  0
  -27.8464  -11.2716   18.8940 H   0  0  0  0  0  0
  -27.3894  -12.5338   17.7900 H   0  0  0  0  0  0
  -27.6439  -14.2296   19.4866 H   0  0  0  0  0  0
  -28.7076  -12.1765   21.4595 H   0  0  0  0  0  0
  -28.4632  -13.8882   21.7541 H   0  0  0  0  0  0
  -25.2760   -9.5676   22.4766 H   0  0  0  0  0  0
  -24.0038   -7.4627   22.7458 H   0  0  0  0  0  0
  -21.0845   -8.8824   19.8969 H   0  0  0  0  0  0
  -22.3712  -10.9709   19.6196 H   0  0  0  0  0  0
  -21.1995   -7.6139   23.9735 H   0  0  0  0  0  0
  -21.1501   -6.0488   25.9081 H   0  0  0  0  0  0
  -22.0581   -2.7617   23.2821 H   0  0  0  0  0  0
  -22.4026  -12.0027   22.4916 H   0  0  0  0  0  0
  -21.1034  -13.1379   22.2546 H   0  0  0  0  0  0
  -24.6685  -15.8472   20.4991 H   0  0  0  0  0  0
  -26.2848  -15.6087   20.0639 H   0  0  0  0  0  0
  -26.7178  -32.5433   23.1102 H   0  0  0  0  0  0
  -25.0017  -33.9704   25.0385 H   0  0  0  0  0  0
  -22.7139  -31.3108   21.4025 H   0  0  0  0  0  0
  -23.3741  -35.9641   23.3271 H   0  0  0  0  0  0
  -24.3592  -36.8959   22.2064 H   0  0  0  0  0  0
  -23.7235  -37.6503   23.6671 H   0  0  0  0  0  0
  -26.0921  -31.5501   20.6050 H   0  0  0  0  0  0
  -26.8399  -30.8353   22.0020 H   0  0  0  0  0  0
  -28.1005  -28.9773   21.1963 H   0  0  0  0  0  0
  -25.9258  -25.9301   19.0111 H   0  0  0  0  0  0
  -23.9617  -27.3127   19.0128 H   0  0  0  0  0  0
  -23.7582  -30.6051   19.4028 H   0  0  0  0  0  0
  -22.7492  -29.2630   19.8481 H   0  0  0  0  0  0
  -25.1267  -36.1937   25.0826 H   0  0  0  0  0  0
  -21.0013  -28.3271   24.1371 H   0  0  0  0  0  0
  -20.5638  -26.2327   23.3611 H   0  0  0  0  0  0
  -21.6632  -26.7413   22.1204 H   0  0  0  0  0  0
  -19.6894  -25.6288   21.1228 H   0  0  0  0  0  0
  -19.6643  -27.3186   20.6731 H   0  0  0  0  0  0
  -17.4187  -26.6660   21.4045 H   0  0  0  0  0  0
  -18.0343  -26.0036   22.9025 H   0  0  0  0  0  0
  -19.7958  -30.7232   24.2284 H   0  0  0  0  0  0
  -17.5051  -31.6263   24.5159 H   0  0  0  0  0  0
  -15.5373  -30.3011   23.7605 H   0  0  0  0  0  0
  -15.8684  -28.0809   22.7084 H   0  0  0  0  0  0
  -24.5887  -30.7087   25.7814 H   0  0  0  0  0  0
  -24.8958  -32.2906   26.4897 H   0  0  0  0  0  0
  -25.8083  -30.8902   27.0232 H   0  0  0  0  0  0
  -26.2872  -29.6757   24.1187 H   0  0  0  0  0  0
  -27.4001  -29.7213   25.4655 H   0  0  0  0  0  0
  -27.8749  -30.4247   23.9377 H   0  0  0  0  0  0
  -27.2655  -33.3598   26.2053 H   0  0  0  0  0  0
  -28.3878  -32.6848   25.0341 H   0  0  0  0  0  0
  -28.0688  -31.8428   26.5437 H   0  0  0  0  0  0
  -28.2568  -38.0122   24.7522 H   0  0  0  0  0  0
  -28.1087  -36.2659   24.6232 H   0  0  0  0  0  0
  -27.2311  -37.1395   25.8864 H   0  0  0  0  0  0
  -20.9357  -29.8841   21.6912 H   0  0  0  0  0  0
  -26.0155  -38.2853   24.1435 H   0  0  0  0  0  0
  -27.2637  -20.7988   21.0056 H   0  0  0  0  0  0
  -31.3212  -21.0168   19.5931 H   0  0  0  0  0  0
  -27.6498  -17.8748   22.7967 H   0  0  0  0  0  0
  -27.1782  -17.2722   21.2014 H   0  0  0  0  0  0
  -26.4408  -18.7343   21.8573 H   0  0  0  0  0  0
  -27.8423  -17.2395   16.2666 H   0  0  0  0  0  0
  -28.9114  -15.8468   16.1851 H   0  0  0  0  0  0
  -29.5877  -17.4681   16.3430 H   0  0  0  0  0  0
  -28.1209  -22.4550   18.9565 H   0  0  0  0  0  0
  -29.8186  -22.7518   18.9162 H   0  0  0  0  0  0
  -29.5534  -16.6243   22.0952 H   0  0  0  0  0  0
  -31.1497  -16.9386   21.5388 H   0  0  0  0  0  0
  -27.9058  -16.0012   18.4295 H   0  0  0  0  0  0
  -28.4048  -17.6586   18.5984 H   0  0  0  0  0  0
  -29.6647  -24.0963   21.0469 H   0  0  0  0  0  0
  -27.9557  -23.7625   21.1475 H   0  0  0  0  0  0
  -30.7872  -17.0541   18.6954 H   0  0  0  0  0  0
  -30.4471  -15.4658   18.1532 H   0  0  0  0  0  0
  -27.6553  -24.9469   18.8904 H   0  0  0  0  0  0
  -29.3189  -25.2825   18.8560 H   0  0  0  0  0  0
  1 25  1  0  0  0
  1 30  2  0  0  0
  1 85  1  0  0  0
  2  3  1  0  0  0
  2 25  1  0  0  0
  2 86  1  0  0  0
  2 87  1  0  0  0
  3  4  1  0  0  0
  3 88  1  0  0  0
  3 89  1  0  0  0
  4  5  1  0  0  0
  4 90  1  0  0  0
  4 91  1  0  0  0
  5  6  1  0  0  0
  5 26  1  0  0  0
  5 92  1  0  0  0
  6 25  1  0  0  0
  6 93  1  0  0  0
  6 94  1  0  0  0
  7  8  2  0  0  0
  7 26  1  0  0  0
  7 29  1  0  0  0
  8  9  1  0  0  0
  8 22  1  0  0  0
  9 10  1  0  0  0
  9 27  2  0  0  0
 10 11  2  0  0  0
 10 15  1  0  0  0
 11 12  1  0  0  0
 11 95  1  0  0  0
 12 13  2  0  0  0
 12 96  1  0  0  0
 13 14  1  0  0  0
 13 31  1  0  0  0
 14 15  2  0  0  0
 14 97  1  0  0  0
 15 98  1  0  0  0
 16 17  2  0  0  0
 16 21  1  0  0  0
 16 31  1  0  0  0
 17 18  1  0  0  0
 17 99  1  0  0  0
 18 19  2  0  0  0
 18100  1  0  0  0
 19 20  1  0  0  0
 19 24  1  0  0  0
 20 21  2  0  0  0
 20101  1  0  0  0
 21 23  1  0  0  0
 22 28  1  0  0  0
 22 32  2  0  0  0
 26 27  1  0  0  0
 28102  1  0  0  0
 28103  1  0  0  0
 29104  1  0  0  0
 29105  1  0  0  0
 33 34  1  0  0  0
 33 66  1  0  0  0
 33 70  2  0  0  0
 34 36  1  0  0  0
 34 59  1  0  0  0
 34106  1  0  0  0
 35 44  2  0  0  0
 35 45  1  0  0  0
 35 68  1  0  0  0
 36 56  1  0  0  0
 36107  1  0  0  0
 37 39  1  0  0  0
 37 47  1  0  0  0
 37 66  1  0  0  0
 37108  1  0  0  0
 38 43  2  0  0  0
 38 46  1  0  0  0
 38 47  1  0  0  0
 39 64  1  0  0  0
 39 67  2  0  0  0
 40 52  1  0  0  0
 40 53  2  0  0  0
 40 58  1  0  0  0
 41109  1  0  0  0
 41110  1  0  0  0
 41111  1  0  0  0
 41 48  1  0  0  0
 42 43  1  0  0  0
 42 66  1  0  0  0
 42112  1  0  0  0
 42113  1  0  0  0
 43 44  1  0  0  0
 44114  1  0  0  0
 45 46  2  0  0  0
 45115  1  0  0  0
 46116  1  0  0  0
 47117  1  0  0  0
 47118  1  0  0  0
 48 56  1  0  0  0
 48 65  1  0  0  0
 48119  1  0  0  0
 49 50  1  0  0  0
 49 53  1  0  0  0
 49 64  1  0  0  0
 49120  1  0  0  0
 50 51  1  0  0  0
 50121  1  0  0  0
 50122  1  0  0  0
 51 52  1  0  0  0
 51123  1  0  0  0
 51124  1  0  0  0
 52125  1  0  0  0
 52126  1  0  0  0
 53 54  1  0  0  0
 54 55  2  0  0  0
 54127  1  0  0  0
 55 57  1  0  0  0
 55128  1  0  0  0
 56 69  2  0  0  0
 57 58  2  0  0  0
 57129  1  0  0  0
 58130  1  0  0  0
 59 60  1  0  0  0
 59 61  1  0  0  0
 59 62  1  0  0  0
 60131  1  0  0  0
 60132  1  0  0  0
 60133  1  0  0  0
 61134  1  0  0  0
 61135  1  0  0  0
 61136  1  0  0  0
 62137  1  0  0  0
 62138  1  0  0  0
 62139  1  0  0  0
 63 65  1  0  0  0
 63140  1  0  0  0
 63141  1  0  0  0
 63142  1  0  0  0
 64143  1  0  0  0
 65144  1  0  0  0
 68 83  1  0  0  0
 71 73  2  0  0  0
 71 74  1  0  0  0
 71145  1  0  0  0
 72 73  1  0  0  0
 72 84  2  0  0  0
 72146  1  0  0  0
 73 78  1  0  0  0
 74 75  2  0  0  0
 74 76  1  0  0  0
 75 79  1  0  0  0
 75 84  1  0  0  0
 76147  1  0  0  0
 76148  1  0  0  0
 76149  1  0  0  0
 77 80  1  0  0  0
 77150  1  0  0  0
 77151  1  0  0  0
 77152  1  0  0  0
 78 81  1  0  0  0
 78153  1  0  0  0
 78154  1  0  0  0
 79 85  1  0  0  0
 79155  1  0  0  0
 79156  1  0  0  0
 80 82  1  0  0  0
 80157  1  0  0  0
 80158  1  0  0  0
 81 83  1  0  0  0
 81159  1  0  0  0
 81160  1  0  0  0
 82 85  1  0  0  0
 82161  1  0  0  0
 82162  1  0  0  0
 83163  1  0  0  0
 83164  1  0  0  0
M  ISO  4   1 100  68 101  83 101  85 100
M  END
> <chiral flag>
0

> <version>
0

> <s_m_source_file>
/data/baiqing/PycharmProjects/Reinvent-master-3.2/result/LINK_invent/BTK/process_docking_weight1_custom_sum_contain_oxygen_bond_distance_aromatic_linkinvent_7_9_3/rearranged_h_0046.sdf

> <i_m_source_file_index>
78

> <r_mmod_Potential_Energy-OPLS-2005>
54.9174842834473

> <r_mmod_Stretch_Energy-OPLS-2005>
77.6662368774414

> <r_mmod_Bend_Energy-OPLS-2005>
162.260269165039

> <r_mmod_Torsional_Energy-OPLS-2005>
293.046325683594

> <r_mmod_Improper_Torsional_Energy-OPLS-2005>
19.5022583007812

> <r_mmod_Van_der_Waal_Energy-OPLS-2005>
140.14697265625

> <r_mmod_Electrostatic_Energy-OPLS-2005>
-489.444641113281

> <r_mmod_Solvation_Energy-OPLS-2005>
-205.427947998047

> <b_mmod_Minimization_Converged-OPLS-2005>
0

> <r_mmod_RMS_Derivative-OPLS-2005>
3.85969877243042

$$$$
79
                    3D
 Structure written by MMmdl.
174182  0  0  1  0            999 V2000
  -30.7010  -14.5125   20.4839 C   0  0  0  0  0  0
  -30.4258  -12.3096   19.4303 C   0  0  0  0  0  0
  -29.5002  -12.4698   18.2069 C   0  0  0  0  0  0
  -28.0198  -12.3418   18.6223 C   0  0  0  0  0  0
  -27.6576  -13.1984   19.8657 C   0  0  2  0  0  0
  -28.7063  -13.0348   20.9861 C   0  0  0  0  0  0
  -25.2596  -13.8124   20.5696 C   0  0  0  0  0  0
  -24.1850  -13.0425   20.9183 C   0  0  0  0  0  0
  -24.6391  -11.6886   20.8745 C   0  0  0  0  0  0
  -23.9052  -10.4287   21.0411 C   0  0  0  0  0  0
  -24.3612   -9.4208   21.9189 C   0  0  0  0  0  0
  -23.6283   -8.2250   22.0760 C   0  0  0  0  0  0
  -22.4268   -8.0276   21.3545 C   0  0  0  0  0  0
  -21.9895   -9.0255   20.4652 C   0  0  0  0  0  0
  -22.7224  -10.2134   20.3057 C   0  0  0  0  0  0
  -21.6849   -6.0722   22.5273 C   0  0  0  0  0  0
  -21.4012   -6.5625   23.8205 C   0  0  0  0  0  0
  -21.3667   -5.6783   24.9171 C   0  0  0  0  0  0
  -21.6047   -4.3044   24.7224 C   0  0  0  0  0  0
  -21.8825   -3.8131   23.4347 C   0  0  0  0  0  0
  -21.9196   -4.6950   22.3402 C   0  0  0  0  0  0
  -22.7872  -13.5248   21.1814 C   0  0  0  0  0  0
  -22.1664   -4.2133   21.0980 F   0  0  0  0  0  0
  -21.5637   -3.4528   25.7740 F   0  0  0  0  0  0
  -30.0214  -13.3352   20.4059 N   0  0  0  0  0  0
  -26.3022  -12.9284   20.3358 N   0  0  0  0  0  0
  -25.9310  -11.6455   20.5778 N   0  0  0  0  0  0
  -22.0498  -12.8272   22.0381 N   0  0  0  0  0  0
  -25.4291  -15.1852   20.4147 N   0  0  0  0  0  0
  -31.9107  -14.5670   20.2397 O   0  0  0  0  0  0
  -21.6631   -6.8872   21.4237 O   0  0  0  0  0  0
  -22.3573  -14.5552   20.6634 O   0  0  0  0  0  0
  -24.6180  -31.8665   23.2087 C   0  0  0  0  0  0
  -25.9079  -32.4804   23.8373 C   0  0  1  0  0  0
  -27.2223  -27.4085   20.1015 C   0  0  0  0  0  0
  -25.5934  -33.8601   24.2307 N   0  0  0  0  0  0
  -23.4034  -30.4943   21.5498 C   0  0  2  0  0  0
  -24.8449  -28.9576   20.1138 C   0  0  0  0  0  0
  -22.7416  -29.4660   22.4962 C   0  0  0  0  0  0
  -18.0277  -28.1386   22.8489 C   0  0  0  0  0  0
  -24.1487  -36.7315   23.2632 C   0  0  0  0  0  0
  -25.9344  -30.8229   21.3664 C   0  0  0  0  0  0
  -26.0053  -29.4545   20.7187 C   0  0  0  0  0  0
  -27.1938  -28.6869   20.7111 C   0  0  0  0  0  0
  -26.0443  -26.9429   19.4705 C   0  0  0  0  0  0
  -24.8606  -27.7031   19.4840 C   0  0  0  0  0  0
  -23.6124  -29.8312   20.1623 C   0  0  0  0  0  0
  -25.4110  -36.3101   24.0322 C   0  0  1  0  0  0
  -20.5868  -28.3680   23.1308 C   0  0  2  0  0  0
  -20.6777  -26.9413   22.5421 C   0  0  0  0  0  0
  -19.5756  -26.6392   21.5216 C   0  0  0  0  0  0
  -18.1930  -26.7937   22.1617 C   0  0  0  0  0  0
  -19.1524  -28.8849   23.2897 C   0  0  0  0  0  0
  -18.9453  -30.1454   23.8913 C   0  0  0  0  0  0
  -17.6453  -30.6586   24.0577 C   0  0  0  0  0  0
  -25.9040  -34.9465   23.5108 C   0  0  0  0  0  0
  -16.5344  -29.9099   23.6322 C   0  0  0  0  0  0
  -16.7268  -28.6516   23.0340 C   0  0  0  0  0  0
  -26.4498  -31.6582   25.0714 C   0  0  0  0  0  0
  -25.3778  -31.3711   26.1479 C   0  0  0  0  0  0
  -27.0320  -30.3016   24.6103 C   0  0  0  0  0  0
  -27.6062  -32.4303   25.7490 C   0  0  0  0  0  0
  -27.5575  -37.1815   24.8458 C   0  0  0  0  0  0
  -21.4141  -29.3053   22.3719 N   0  0  0  0  0  0
  -26.4289  -37.3794   23.9403 N   0  0  0  0  0  0
  -24.6703  -31.0766   22.0994 N   0  0  0  0  0  0
  -23.4191  -28.8200   23.3006 O   0  0  0  0  0  0
  -28.4059  -26.6885   20.1096 O   0  0  0  0  0  0
  -26.5587  -34.8920   22.4660 O   0  0  0  0  0  0
  -23.5375  -32.1420   23.7493 O   0  0  0  0  0  0
  -29.1486  -22.2461   20.4872 C   0  0  0  0  0  0
  -29.0458  -20.8425   20.5891 C   0  0  0  0  0  0
  -28.0651  -22.4623   22.6442 C   0  0  0  0  0  0
  -28.6358  -23.0763   21.5064 C   0  0  0  0  0  0
  -28.4457  -20.2251   21.7115 C   0  0  0  0  0  0
  -27.9679  -21.0494   22.7699 C   0  0  0  0  0  0
  -28.1721  -21.8230   25.9887 C   0  0  0  0  0  0
  -28.0599  -16.4567   17.7862 C   0  0  0  0  0  0
  -28.7144  -24.6125   21.4249 C   0  0  0  0  0  0
  -28.2217  -18.7006   21.6836 C   0  0  0  0  0  0
  -27.3116  -20.4114   24.0010 C   0  0  0  0  0  0
  -26.9568  -21.3260   25.1912 C   0  0  0  0  0  0
  -29.2752  -17.2384   18.2924 C   0  0  0  0  0  0
  -29.4806  -17.8047   21.5489 C   0  0  0  0  0  0
  -30.3658  -16.4046   19.0109 C   0  0  0  0  0  0
  -29.1116  -16.3189   21.2126 C   0  0  0  0  0  0
  -28.3837  -25.2436   20.0497 C   0  0  0  0  0  0
  -29.9561  -15.6242   20.2065 N   0  0  0  0  0  0
  -31.4712  -12.4066   19.1269 H   0  0  0  0  0  0
  -30.3343  -11.3117   19.8631 H   0  0  0  0  0  0
  -29.7411  -11.7174   17.4543 H   0  0  0  0  0  0
  -29.6728  -13.4377   17.7346 H   0  0  0  0  0  0
  -27.8327  -11.2893   18.8337 H   0  0  0  0  0  0
  -27.3714  -12.6019   17.7850 H   0  0  0  0  0  0
  -27.6845  -14.2335   19.5416 H   0  0  0  0  0  0
  -28.6985  -12.0167   21.3786 H   0  0  0  0  0  0
  -28.4775  -13.6786   21.8342 H   0  0  0  0  0  0
  -25.2760   -9.5683   22.4756 H   0  0  0  0  0  0
  -23.9974   -7.4651   22.7493 H   0  0  0  0  0  0
  -21.0813   -8.8791   19.8970 H   0  0  0  0  0  0
  -22.3686  -10.9679   19.6168 H   0  0  0  0  0  0
  -21.1995   -7.6132   23.9706 H   0  0  0  0  0  0
  -21.1482   -6.0508   25.9076 H   0  0  0  0  0  0
  -22.0596   -2.7585   23.2851 H   0  0  0  0  0  0
  -22.4062  -11.9929   22.4803 H   0  0  0  0  0  0
  -21.1133  -13.1339   22.2577 H   0  0  0  0  0  0
  -24.6607  -15.8364   20.5310 H   0  0  0  0  0  0
  -26.2806  -15.6255   20.0947 H   0  0  0  0  0  0
  -26.7154  -32.5506   23.1126 H   0  0  0  0  0  0
  -25.0143  -33.9736   25.0504 H   0  0  0  0  0  0
  -22.6942  -31.3135   21.4137 H   0  0  0  0  0  0
  -23.3728  -35.9670   23.3311 H   0  0  0  0  0  0
  -24.3584  -36.8922   22.2044 H   0  0  0  0  0  0
  -23.7257  -37.6529   23.6649 H   0  0  0  0  0  0
  -26.0509  -31.5842   20.5939 H   0  0  0  0  0  0
  -26.8214  -30.8745   21.9862 H   0  0  0  0  0  0
  -28.0869  -29.0690   21.1857 H   0  0  0  0  0  0
  -26.0111  -26.0099   18.9309 H   0  0  0  0  0  0
  -23.9754  -27.3248   18.9902 H   0  0  0  0  0  0
  -23.7323  -30.6092   19.4072 H   0  0  0  0  0  0
  -22.7326  -29.2617   19.8568 H   0  0  0  0  0  0
  -25.1293  -36.1947   25.0814 H   0  0  0  0  0  0
  -20.9956  -28.3258   24.1427 H   0  0  0  0  0  0
  -20.5698  -26.2289   23.3615 H   0  0  0  0  0  0
  -21.6648  -26.7475   22.1201 H   0  0  0  0  0  0
  -19.6923  -25.6309   21.1238 H   0  0  0  0  0  0
  -19.6693  -27.3210   20.6755 H   0  0  0  0  0  0
  -17.4207  -26.6685   21.4011 H   0  0  0  0  0  0
  -18.0322  -26.0075   22.9011 H   0  0  0  0  0  0
  -19.7932  -30.7269   24.2279 H   0  0  0  0  0  0
  -17.5015  -31.6262   24.5197 H   0  0  0  0  0  0
  -15.5348  -30.3015   23.7637 H   0  0  0  0  0  0
  -15.8664  -28.0853   22.7031 H   0  0  0  0  0  0
  -24.5900  -30.7112   25.7830 H   0  0  0  0  0  0
  -24.9047  -32.2894   26.4971 H   0  0  0  0  0  0
  -25.8138  -30.8836   27.0210 H   0  0  0  0  0  0
  -26.2854  -29.6775   24.1175 H   0  0  0  0  0  0
  -27.4106  -29.7247   25.4551 H   0  0  0  0  0  0
  -27.8695  -30.4313   23.9237 H   0  0  0  0  0  0
  -27.2641  -33.3561   26.2125 H   0  0  0  0  0  0
  -28.3851  -32.6929   25.0321 H   0  0  0  0  0  0
  -28.0768  -31.8411   26.5369 H   0  0  0  0  0  0
  -28.2597  -38.0106   24.7497 H   0  0  0  0  0  0
  -28.1054  -36.2638   24.6286 H   0  0  0  0  0  0
  -27.2296  -37.1475   25.8860 H   0  0  0  0  0  0
  -20.9302  -29.8802   21.6963 H   0  0  0  0  0  0
  -26.0164  -38.2865   24.1416 H   0  0  0  0  0  0
  -29.6146  -22.6737   19.6109 H   0  0  0  0  0  0
  -29.4143  -20.2359   19.7746 H   0  0  0  0  0  0
  -27.6873  -23.1028   23.4274 H   0  0  0  0  0  0
  -27.8552  -22.4868   26.7938 H   0  0  0  0  0  0
  -28.8745  -22.3734   25.3640 H   0  0  0  0  0  0
  -28.7102  -20.9888   26.4406 H   0  0  0  0  0  0
  -27.4856  -17.0671   17.0871 H   0  0  0  0  0  0
  -27.3869  -16.2032   18.6003 H   0  0  0  0  0  0
  -28.3480  -15.5401   17.2703 H   0  0  0  0  0  0
  -29.7116  -24.9245   21.7340 H   0  0  0  0  0  0
  -28.0295  -25.0319   22.1624 H   0  0  0  0  0  0
  -27.5701  -18.5195   20.8267 H   0  0  0  0  0  0
  -27.6425  -18.3540   22.5372 H   0  0  0  0  0  0
  -27.9601  -19.6151   24.3697 H   0  0  0  0  0  0
  -26.3929  -19.9284   23.6631 H   0  0  0  0  0  0
  -26.3302  -22.1571   24.8717 H   0  0  0  0  0  0
  -26.3298  -20.7528   25.8748 H   0  0  0  0  0  0
  -28.9267  -18.0641   18.9072 H   0  0  0  0  0  0
  -29.7441  -17.7131   17.4290 H   0  0  0  0  0  0
  -30.0578  -17.8434   22.4744 H   0  0  0  0  0  0
  -30.1366  -18.2369   20.7997 H   0  0  0  0  0  0
  -30.7682  -15.7209   18.2588 H   0  0  0  0  0  0
  -31.2104  -17.0422   19.2807 H   0  0  0  0  0  0
  -28.0896  -16.2705   20.8421 H   0  0  0  0  0  0
  -29.0957  -15.7639   22.1522 H   0  0  0  0  0  0
  -27.4477  -24.8168   19.7049 H   0  0  0  0  0  0
  -29.1313  -24.9418   19.3163 H   0  0  0  0  0  0
  1 25  1  0  0  0
  1 30  2  0  0  0
  1 88  1  0  0  0
  2  3  1  0  0  0
  2 25  1  0  0  0
  2 89  1  0  0  0
  2 90  1  0  0  0
  3  4  1  0  0  0
  3 91  1  0  0  0
  3 92  1  0  0  0
  4  5  1  0  0  0
  4 93  1  0  0  0
  4 94  1  0  0  0
  5  6  1  0  0  0
  5 26  1  0  0  0
  5 95  1  0  0  0
  6 25  1  0  0  0
  6 96  1  0  0  0
  6 97  1  0  0  0
  7  8  2  0  0  0
  7 26  1  0  0  0
  7 29  1  0  0  0
  8  9  1  0  0  0
  8 22  1  0  0  0
  9 10  1  0  0  0
  9 27  2  0  0  0
 10 11  2  0  0  0
 10 15  1  0  0  0
 11 12  1  0  0  0
 11 98  1  0  0  0
 12 13  2  0  0  0
 12 99  1  0  0  0
 13 14  1  0  0  0
 13 31  1  0  0  0
 14 15  2  0  0  0
 14100  1  0  0  0
 15101  1  0  0  0
 16 17  2  0  0  0
 16 21  1  0  0  0
 16 31  1  0  0  0
 17 18  1  0  0  0
 17102  1  0  0  0
 18 19  2  0  0  0
 18103  1  0  0  0
 19 20  1  0  0  0
 19 24  1  0  0  0
 20 21  2  0  0  0
 20104  1  0  0  0
 21 23  1  0  0  0
 22 28  1  0  0  0
 22 32  2  0  0  0
 26 27  1  0  0  0
 28105  1  0  0  0
 28106  1  0  0  0
 29107  1  0  0  0
 29108  1  0  0  0
 33 34  1  0  0  0
 33 66  1  0  0  0
 33 70  2  0  0  0
 34 36  1  0  0  0
 34 59  1  0  0  0
 34109  1  0  0  0
 35 44  2  0  0  0
 35 45  1  0  0  0
 35 68  1  0  0  0
 36 56  1  0  0  0
 36110  1  0  0  0
 37 39  1  0  0  0
 37 47  1  0  0  0
 37 66  1  0  0  0
 37111  1  0  0  0
 38 43  2  0  0  0
 38 46  1  0  0  0
 38 47  1  0  0  0
 39 64  1  0  0  0
 39 67  2  0  0  0
 40 52  1  0  0  0
 40 53  2  0  0  0
 40 58  1  0  0  0
 41112  1  0  0  0
 41113  1  0  0  0
 41114  1  0  0  0
 41 48  1  0  0  0
 42 43  1  0  0  0
 42 66  1  0  0  0
 42115  1  0  0  0
 42116  1  0  0  0
 43 44  1  0  0  0
 44117  1  0  0  0
 45 46  2  0  0  0
 45118  1  0  0  0
 46119  1  0  0  0
 47120  1  0  0  0
 47121  1  0  0  0
 48 56  1  0  0  0
 48 65  1  0  0  0
 48122  1  0  0  0
 49 50  1  0  0  0
 49 53  1  0  0  0
 49 64  1  0  0  0
 49123  1  0  0  0
 50 51  1  0  0  0
 50124  1  0  0  0
 50125  1  0  0  0
 51 52  1  0  0  0
 51126  1  0  0  0
 51127  1  0  0  0
 52128  1  0  0  0
 52129  1  0  0  0
 53 54  1  0  0  0
 54 55  2  0  0  0
 54130  1  0  0  0
 55 57  1  0  0  0
 55131  1  0  0  0
 56 69  2  0  0  0
 57 58  2  0  0  0
 57132  1  0  0  0
 58133  1  0  0  0
 59 60  1  0  0  0
 59 61  1  0  0  0
 59 62  1  0  0  0
 60134  1  0  0  0
 60135  1  0  0  0
 60136  1  0  0  0
 61137  1  0  0  0
 61138  1  0  0  0
 61139  1  0  0  0
 62140  1  0  0  0
 62141  1  0  0  0
 62142  1  0  0  0
 63 65  1  0  0  0
 63143  1  0  0  0
 63144  1  0  0  0
 63145  1  0  0  0
 64146  1  0  0  0
 65147  1  0  0  0
 68 87  1  0  0  0
 71 72  2  0  0  0
 71 74  1  0  0  0
 71148  1  0  0  0
 72 75  1  0  0  0
 72149  1  0  0  0
 73 74  2  0  0  0
 73 76  1  0  0  0
 73150  1  0  0  0
 74 79  1  0  0  0
 75 76  2  0  0  0
 75 80  1  0  0  0
 76 81  1  0  0  0
 77 82  1  0  0  0
 77151  1  0  0  0
 77152  1  0  0  0
 77153  1  0  0  0
 78 83  1  0  0  0
 78154  1  0  0  0
 78155  1  0  0  0
 78156  1  0  0  0
 79 87  1  0  0  0
 79157  1  0  0  0
 79158  1  0  0  0
 80 84  1  0  0  0
 80159  1  0  0  0
 80160  1  0  0  0
 81 82  1  0  0  0
 81161  1  0  0  0
 81162  1  0  0  0
 82163  1  0  0  0
 82164  1  0  0  0
 83 85  1  0  0  0
 83165  1  0  0  0
 83166  1  0  0  0
 84 86  1  0  0  0
 84167  1  0  0  0
 84168  1  0  0  0
 85 88  1  0  0  0
 85169  1  0  0  0
 85170  1  0  0  0
 86 88  1  0  0  0
 86171  1  0  0  0
 86172  1  0  0  0
 87173  1  0  0  0
 87174  1  0  0  0
M  ISO  4   1 100  68 101  87 101  88 100
M  END
> <chiral flag>
0

> <version>
0

> <s_m_source_file>
/data/baiqing/PycharmProjects/Reinvent-master-3.2/result/LINK_invent/BTK/process_docking_weight1_custom_sum_contain_oxygen_bond_distance_aromatic_linkinvent_7_9_3/rearranged_h_0046.sdf

> <i_m_source_file_index>
79

> <r_mmod_Potential_Energy-OPLS-2005>
241.169769287109

> <r_mmod_Stretch_Energy-OPLS-2005>
47.8796768188477

> <r_mmod_Bend_Energy-OPLS-2005>
124.200393676758

> <r_mmod_Torsional_Energy-OPLS-2005>
325.884521484375

> <r_mmod_Improper_Torsional_Energy-OPLS-2005>
23.5057849884033

> <r_mmod_Van_der_Waal_Energy-OPLS-2005>
152.383666992188

> <r_mmod_Electrostatic_Energy-OPLS-2005>
-276.509521484375

> <r_mmod_Solvation_Energy-OPLS-2005>
-182.05598449707

> <b_mmod_Minimization_Converged-OPLS-2005>
0

> <r_mmod_RMS_Derivative-OPLS-2005>
2.3212890625

$$$$
80
                    3D
 Structure written by MMmdl.
165173  0  0  1  0            999 V2000
  -30.6236  -14.7147   20.4800 C   0  0  0  0  0  0
  -30.4304  -12.4464   19.4525 C   0  0  0  0  0  0
  -29.5049  -12.5123   18.2199 C   0  0  0  0  0  0
  -28.0301  -12.3368   18.6331 C   0  0  0  0  0  0
  -27.6383  -13.2299   19.8404 C   0  0  2  0  0  0
  -28.6840  -13.1551   20.9715 C   0  0  0  0  0  0
  -25.2496  -13.8187   20.5645 C   0  0  0  0  0  0
  -24.1791  -13.0432   20.9198 C   0  0  0  0  0  0
  -24.6388  -11.6910   20.8723 C   0  0  0  0  0  0
  -23.9048  -10.4292   21.0395 C   0  0  0  0  0  0
  -24.3594   -9.4211   21.9174 C   0  0  0  0  0  0
  -23.6288   -8.2237   22.0748 C   0  0  0  0  0  0
  -22.4273   -8.0267   21.3530 C   0  0  0  0  0  0
  -21.9902   -9.0239   20.4638 C   0  0  0  0  0  0
  -22.7216  -10.2128   20.3042 C   0  0  0  0  0  0
  -21.6864   -6.0730   22.5279 C   0  0  0  0  0  0
  -21.4021   -6.5636   23.8210 C   0  0  0  0  0  0
  -21.3666   -5.6786   24.9172 C   0  0  0  0  0  0
  -21.6058   -4.3050   24.7221 C   0  0  0  0  0  0
  -21.8822   -3.8140   23.4342 C   0  0  0  0  0  0
  -21.9194   -4.6959   22.3393 C   0  0  0  0  0  0
  -22.7810  -13.5211   21.1858 C   0  0  0  0  0  0
  -22.1655   -4.2139   21.0973 F   0  0  0  0  0  0
  -21.5628   -3.4536   25.7737 F   0  0  0  0  0  0
  -29.9848  -13.5022   20.3863 N   0  0  0  0  0  0
  -26.2918  -12.9390   20.3216 N   0  0  0  0  0  0
  -25.9318  -11.6531   20.5700 N   0  0  0  0  0  0
  -22.0450  -12.8230   22.0431 N   0  0  0  0  0  0
  -25.4166  -15.1916   20.4032 N   0  0  0  0  0  0
  -31.8214  -14.8058   20.1997 O   0  0  0  0  0  0
  -21.6634   -6.8873   21.4238 O   0  0  0  0  0  0
  -22.3499  -14.5525   20.6723 O   0  0  0  0  0  0
  -24.6321  -31.8573   23.2011 C   0  0  0  0  0  0
  -25.9148  -32.4762   23.8353 C   0  0  1  0  0  0
  -27.2014  -27.2530   20.1289 C   0  0  0  0  0  0
  -25.5960  -33.8569   24.2269 N   0  0  0  0  0  0
  -23.4276  -30.4840   21.5449 C   0  0  2  0  0  0
  -24.8715  -28.9371   20.1102 C   0  0  0  0  0  0
  -22.7504  -29.4620   22.4903 C   0  0  0  0  0  0
  -18.0297  -28.1379   22.8474 C   0  0  0  0  0  0
  -24.1496  -36.7288   23.2634 C   0  0  0  0  0  0
  -25.9771  -30.7649   21.3865 C   0  0  0  0  0  0
  -26.0459  -29.3893   20.7262 C   0  0  0  0  0  0
  -27.2155  -28.5602   20.7258 C   0  0  0  0  0  0
  -26.0094  -26.8891   19.4596 C   0  0  0  0  0  0
  -24.8595  -27.6949   19.4660 C   0  0  0  0  0  0
  -23.6467  -29.8279   20.1584 C   0  0  0  0  0  0
  -25.4123  -36.3072   24.0322 C   0  0  1  0  0  0
  -20.5897  -28.3700   23.1256 C   0  0  2  0  0  0
  -20.6786  -26.9418   22.5394 C   0  0  0  0  0  0
  -19.5763  -26.6372   21.5205 C   0  0  0  0  0  0
  -18.1941  -26.7924   22.1614 C   0  0  0  0  0  0
  -19.1545  -28.8859   23.2860 C   0  0  0  0  0  0
  -18.9470  -30.1452   23.8880 C   0  0  0  0  0  0
  -17.6465  -30.6582   24.0557 C   0  0  0  0  0  0
  -25.9064  -34.9444   23.5089 C   0  0  0  0  0  0
  -16.5358  -29.9074   23.6328 C   0  0  0  0  0  0
  -16.7280  -28.6494   23.0355 C   0  0  0  0  0  0
  -26.4503  -31.6593   25.0751 C   0  0  0  0  0  0
  -25.3718  -31.3755   26.1469 C   0  0  0  0  0  0
  -27.0344  -30.3003   24.6253 C   0  0  0  0  0  0
  -27.6043  -32.4338   25.7538 C   0  0  0  0  0  0
  -27.5582  -37.1805   24.8457 C   0  0  0  0  0  0
  -21.4214  -29.3053   22.3647 N   0  0  0  0  0  0
  -26.4296  -37.3772   23.9396 N   0  0  0  0  0  0
  -24.6978  -31.0537   22.0997 N   0  0  0  0  0  0
  -23.4216  -28.8137   23.2977 O   0  0  0  0  0  0
  -28.2708  -26.3250   20.1833 O   0  0  0  0  0  0
  -26.5621  -34.8912   22.4648 O   0  0  0  0  0  0
  -23.5468  -32.1410   23.7298 O   0  0  0  0  0  0
  -30.5380  -19.3953   19.5891 C   0  0  0  0  0  0
  -28.9572  -19.5780   21.0422 C   0  0  0  0  0  0
  -29.8901  -18.6338   20.6114 C   0  0  0  0  0  0
  -29.8147  -23.4576   22.8087 C   0  0  0  0  0  0
  -30.9160  -24.9951   21.1462 C   0  0  0  0  0  0
  -27.4300  -21.9770   18.9956 C   0  0  0  0  0  0
  -27.1477  -21.9701   21.4484 C   0  0  0  0  0  0
  -30.3470  -17.2153   21.1801 C   0  0  0  0  0  0
  -27.9218  -24.8770   20.4476 C   0  0  0  0  0  0
  -30.1374  -23.6794   21.3210 C   0  0  0  0  0  0
  -28.9166  -23.5814   20.3552 C   0  0  1  0  0  0
  -28.2144  -22.0861   20.3270 C   0  0  0  0  0  0
  -30.0801  -20.6475   19.4461 N   0  0  0  0  0  0
  -29.0932  -20.8210   20.3613 N   0  0  0  0  0  0
  -29.8644  -15.8482   20.7154 N   0  0  0  0  0  0
  -31.4693  -12.5783   19.1445 H   0  0  0  0  0  0
  -30.3753  -11.4663   19.9288 H   0  0  0  0  0  0
  -29.7860  -11.7487   17.4934 H   0  0  0  0  0  0
  -29.6333  -13.4736   17.7171 H   0  0  0  0  0  0
  -27.8801  -11.2859   18.8841 H   0  0  0  0  0  0
  -27.3752  -12.5415   17.7853 H   0  0  0  0  0  0
  -27.6346  -14.2525   19.4629 H   0  0  0  0  0  0
  -28.7141  -12.1560   21.4066 H   0  0  0  0  0  0
  -28.4225  -13.8363   21.7816 H   0  0  0  0  0  0
  -25.2737   -9.5718   22.4743 H   0  0  0  0  0  0
  -24.0015   -7.4641   22.7478 H   0  0  0  0  0  0
  -21.0823   -8.8761   19.8951 H   0  0  0  0  0  0
  -22.3664  -10.9663   19.6154 H   0  0  0  0  0  0
  -21.2017   -7.6143   23.9725 H   0  0  0  0  0  0
  -21.1485   -6.0498   25.9079 H   0  0  0  0  0  0
  -22.0598   -2.7599   23.2834 H   0  0  0  0  0  0
  -22.4028  -11.9882   22.4839 H   0  0  0  0  0  0
  -21.1071  -13.1288   22.2611 H   0  0  0  0  0  0
  -24.6425  -15.8377   20.5102 H   0  0  0  0  0  0
  -26.2550  -15.6371   20.0534 H   0  0  0  0  0  0
  -26.7215  -32.5397   23.1091 H   0  0  0  0  0  0
  -25.0135  -33.9717   25.0435 H   0  0  0  0  0  0
  -22.7246  -31.3075   21.4039 H   0  0  0  0  0  0
  -23.3760  -35.9618   23.3288 H   0  0  0  0  0  0
  -24.3576  -36.8924   22.2047 H   0  0  0  0  0  0
  -23.7255  -37.6489   23.6668 H   0  0  0  0  0  0
  -26.1225  -31.5258   20.6185 H   0  0  0  0  0  0
  -26.8525  -30.8083   22.0226 H   0  0  0  0  0  0
  -28.1109  -28.8963   21.2304 H   0  0  0  0  0  0
  -25.9232  -25.9635   18.9142 H   0  0  0  0  0  0
  -23.9656  -27.3522   18.9626 H   0  0  0  0  0  0
  -23.7790  -30.6095   19.4096 H   0  0  0  0  0  0
  -22.7627  -29.2702   19.8444 H   0  0  0  0  0  0
  -25.1304  -36.1918   25.0817 H   0  0  0  0  0  0
  -20.9995  -28.3278   24.1374 H   0  0  0  0  0  0
  -20.5689  -26.2315   23.3599 H   0  0  0  0  0  0
  -21.6656  -26.7440   22.1188 H   0  0  0  0  0  0
  -19.6927  -25.6275   21.1249 H   0  0  0  0  0  0
  -19.6702  -27.3164   20.6718 H   0  0  0  0  0  0
  -17.4215  -26.6664   21.4012 H   0  0  0  0  0  0
  -18.0345  -26.0062   22.9007 H   0  0  0  0  0  0
  -19.7946  -30.7269   24.2250 H   0  0  0  0  0  0
  -17.5023  -31.6257   24.5157 H   0  0  0  0  0  0
  -15.5357  -30.2974   23.7658 H   0  0  0  0  0  0
  -15.8683  -28.0801   22.7086 H   0  0  0  0  0  0
  -24.5875  -30.7131   25.7793 H   0  0  0  0  0  0
  -24.8940  -32.2939   26.4895 H   0  0  0  0  0  0
  -25.8028  -30.8921   27.0250 H   0  0  0  0  0  0
  -26.2934  -29.6759   24.1254 H   0  0  0  0  0  0
  -27.3985  -29.7258   25.4780 H   0  0  0  0  0  0
  -27.8835  -30.4257   23.9531 H   0  0  0  0  0  0
  -27.2629  -33.3628   26.2119 H   0  0  0  0  0  0
  -28.3867  -32.6925   25.0391 H   0  0  0  0  0  0
  -28.0708  -31.8477   26.5468 H   0  0  0  0  0  0
  -28.2584  -38.0114   24.7505 H   0  0  0  0  0  0
  -28.1093  -36.2643   24.6283 H   0  0  0  0  0  0
  -27.2292  -37.1453   25.8857 H   0  0  0  0  0  0
  -20.9399  -29.8819   21.6887 H   0  0  0  0  0  0
  -26.0170  -38.2846   24.1395 H   0  0  0  0  0  0
  -31.3719  -19.0896   18.9734 H   0  0  0  0  0  0
  -28.2109  -19.4737   21.8170 H   0  0  0  0  0  0
  -30.6772  -23.6862   23.4360 H   0  0  0  0  0  0
  -29.5686  -22.4160   23.0124 H   0  0  0  0  0  0
  -28.9891  -24.0843   23.1460 H   0  0  0  0  0  0
  -31.8680  -24.9599   21.6762 H   0  0  0  0  0  0
  -30.3617  -25.8441   21.5438 H   0  0  0  0  0  0
  -31.1340  -25.1976   20.0973 H   0  0  0  0  0  0
  -26.6052  -22.6839   18.9286 H   0  0  0  0  0  0
  -26.9932  -20.9841   18.8752 H   0  0  0  0  0  0
  -28.0787  -22.1488   18.1348 H   0  0  0  0  0  0
  -26.4320  -22.7917   21.4246 H   0  0  0  0  0  0
  -27.5725  -21.9436   22.4486 H   0  0  0  0  0  0
  -26.5546  -21.0611   21.3406 H   0  0  0  0  0  0
  -30.1548  -17.2098   22.2530 H   0  0  0  0  0  0
  -31.4373  -17.1818   21.1300 H   0  0  0  0  0  0
  -27.4655  -24.8709   21.4366 H   0  0  0  0  0  0
  -27.1213  -24.6047   19.7758 H   0  0  0  0  0  0
  -30.8297  -22.8865   21.0348 H   0  0  0  0  0  0
  -29.3707  -23.6712   19.3670 H   0  0  0  0  0  0
  -28.8727  -15.6824   20.7972 H   0  0  0  0  0  0
  1 25  1  0  0  0
  1 30  2  0  0  0
  1 85  1  0  0  0
  2  3  1  0  0  0
  2 25  1  0  0  0
  2 86  1  0  0  0
  2 87  1  0  0  0
  3  4  1  0  0  0
  3 88  1  0  0  0
  3 89  1  0  0  0
  4  5  1  0  0  0
  4 90  1  0  0  0
  4 91  1  0  0  0
  5  6  1  0  0  0
  5 26  1  0  0  0
  5 92  1  0  0  0
  6 25  1  0  0  0
  6 93  1  0  0  0
  6 94  1  0  0  0
  7  8  2  0  0  0
  7 26  1  0  0  0
  7 29  1  0  0  0
  8  9  1  0  0  0
  8 22  1  0  0  0
  9 10  1  0  0  0
  9 27  2  0  0  0
 10 11  2  0  0  0
 10 15  1  0  0  0
 11 12  1  0  0  0
 11 95  1  0  0  0
 12 13  2  0  0  0
 12 96  1  0  0  0
 13 14  1  0  0  0
 13 31  1  0  0  0
 14 15  2  0  0  0
 14 97  1  0  0  0
 15 98  1  0  0  0
 16 17  2  0  0  0
 16 21  1  0  0  0
 16 31  1  0  0  0
 17 18  1  0  0  0
 17 99  1  0  0  0
 18 19  2  0  0  0
 18100  1  0  0  0
 19 20  1  0  0  0
 19 24  1  0  0  0
 20 21  2  0  0  0
 20101  1  0  0  0
 21 23  1  0  0  0
 22 28  1  0  0  0
 22 32  2  0  0  0
 26 27  1  0  0  0
 28102  1  0  0  0
 28103  1  0  0  0
 29104  1  0  0  0
 29105  1  0  0  0
 33 34  1  0  0  0
 33 66  1  0  0  0
 33 70  2  0  0  0
 34 36  1  0  0  0
 34 59  1  0  0  0
 34106  1  0  0  0
 35 44  2  0  0  0
 35 45  1  0  0  0
 35 68  1  0  0  0
 36 56  1  0  0  0
 36107  1  0  0  0
 37 39  1  0  0  0
 37 47  1  0  0  0
 37 66  1  0  0  0
 37108  1  0  0  0
 38 43  2  0  0  0
 38 46  1  0  0  0
 38 47  1  0  0  0
 39 64  1  0  0  0
 39 67  2  0  0  0
 40 52  1  0  0  0
 40 53  2  0  0  0
 40 58  1  0  0  0
 41109  1  0  0  0
 41110  1  0  0  0
 41111  1  0  0  0
 41 48  1  0  0  0
 42 43  1  0  0  0
 42 66  1  0  0  0
 42112  1  0  0  0
 42113  1  0  0  0
 43 44  1  0  0  0
 44114  1  0  0  0
 45 46  2  0  0  0
 45115  1  0  0  0
 46116  1  0  0  0
 47117  1  0  0  0
 47118  1  0  0  0
 48 56  1  0  0  0
 48 65  1  0  0  0
 48119  1  0  0  0
 49 50  1  0  0  0
 49 53  1  0  0  0
 49 64  1  0  0  0
 49120  1  0  0  0
 50 51  1  0  0  0
 50121  1  0  0  0
 50122  1  0  0  0
 51 52  1  0  0  0
 51123  1  0  0  0
 51124  1  0  0  0
 52125  1  0  0  0
 52126  1  0  0  0
 53 54  1  0  0  0
 54 55  2  0  0  0
 54127  1  0  0  0
 55 57  1  0  0  0
 55128  1  0  0  0
 56 69  2  0  0  0
 57 58  2  0  0  0
 57129  1  0  0  0
 58130  1  0  0  0
 59 60  1  0  0  0
 59 61  1  0  0  0
 59 62  1  0  0  0
 60131  1  0  0  0
 60132  1  0  0  0
 60133  1  0  0  0
 61134  1  0  0  0
 61135  1  0  0  0
 61136  1  0  0  0
 62137  1  0  0  0
 62138  1  0  0  0
 62139  1  0  0  0
 63 65  1  0  0  0
 63140  1  0  0  0
 63141  1  0  0  0
 63142  1  0  0  0
 64143  1  0  0  0
 65144  1  0  0  0
 68 79  1  0  0  0
 71 73  1  0  0  0
 71 83  2  0  0  0
 71145  1  0  0  0
 72 73  2  0  0  0
 72 84  1  0  0  0
 72146  1  0  0  0
 73 78  1  0  0  0
 74147  1  0  0  0
 74148  1  0  0  0
 74149  1  0  0  0
 74 80  1  0  0  0
 75 80  1  0  0  0
 75150  1  0  0  0
 75151  1  0  0  0
 75152  1  0  0  0
 76153  1  0  0  0
 76154  1  0  0  0
 76155  1  0  0  0
 76 82  1  0  0  0
 77 82  1  0  0  0
 77156  1  0  0  0
 77157  1  0  0  0
 77158  1  0  0  0
 78 85  1  0  0  0
 78159  1  0  0  0
 78160  1  0  0  0
 79161  1  0  0  0
 79162  1  0  0  0
 79 81  1  0  0  0
 80 81  1  0  0  0
 80163  1  0  0  0
 81 82  1  0  0  0
 81164  1  0  0  0
 82 84  1  0  0  0
 83 84  1  0  0  0
 85165  1  0  0  0
M  ISO  4   1 100  68 101  79 101  85 100
M  END
> <chiral flag>
0

> <version>
0

> <s_m_source_file>
/data/baiqing/PycharmProjects/Reinvent-master-3.2/result/LINK_invent/BTK/process_docking_weight1_custom_sum_contain_oxygen_bond_distance_aromatic_linkinvent_7_9_3/rearranged_h_0046.sdf

> <i_m_source_file_index>
80

> <r_mmod_Potential_Energy-OPLS-2005>
242.464218139648

> <r_mmod_Stretch_Energy-OPLS-2005>
131.032302856445

> <r_mmod_Bend_Energy-OPLS-2005>
192.808837890625

> <r_mmod_Torsional_Energy-OPLS-2005>
278.784912109375

> <r_mmod_Improper_Torsional_Energy-OPLS-2005>
6.95131063461304

> <r_mmod_Van_der_Waal_Energy-OPLS-2005>
126.443000793457

> <r_mmod_Electrostatic_Energy-OPLS-2005>
-363.971557617188

> <r_mmod_Solvation_Energy-OPLS-2005>
-215.549560546875

> <b_mmod_Minimization_Converged-OPLS-2005>
0

> <r_mmod_RMS_Derivative-OPLS-2005>
2.16880822181702

$$$$
81
                    3D
 Structure written by MMmdl.
168176  0  0  1  0            999 V2000
  -30.7096  -14.3951   20.5846 C   0  0  0  0  0  0
  -30.4486  -12.2878   19.3443 C   0  0  0  0  0  0
  -29.4833  -12.5085   18.1627 C   0  0  0  0  0  0
  -28.0025  -12.4090   18.5964 C   0  0  0  0  0  0
  -27.6837  -13.1887   19.9000 C   0  0  2  0  0  0
  -28.7435  -12.8538   20.9695 C   0  0  0  0  0  0
  -25.2717  -13.8118   20.5724 C   0  0  0  0  0  0
  -24.1914  -13.0450   20.9087 C   0  0  0  0  0  0
  -24.6409  -11.6894   20.8703 C   0  0  0  0  0  0
  -23.9050  -10.4309   21.0396 C   0  0  0  0  0  0
  -24.3607   -9.4202   21.9149 C   0  0  0  0  0  0
  -23.6254   -8.2255   22.0758 C   0  0  0  0  0  0
  -22.4222   -8.0289   21.3550 C   0  0  0  0  0  0
  -21.9871   -9.0262   20.4654 C   0  0  0  0  0  0
  -22.7227  -10.2129   20.3043 C   0  0  0  0  0  0
  -21.6824   -6.0746   22.5292 C   0  0  0  0  0  0
  -21.3970   -6.5643   23.8224 C   0  0  0  0  0  0
  -21.3654   -5.6789   24.9183 C   0  0  0  0  0  0
  -21.6042   -4.3063   24.7235 C   0  0  0  0  0  0
  -21.8808   -3.8150   23.4361 C   0  0  0  0  0  0
  -21.9180   -4.6972   22.3420 C   0  0  0  0  0  0
  -22.7937  -13.5250   21.1744 C   0  0  0  0  0  0
  -22.1657   -4.2161   21.0993 F   0  0  0  0  0  0
  -21.5649   -3.4546   25.7758 F   0  0  0  0  0  0
  -30.0595  -13.2140   20.4159 N   0  0  0  0  0  0
  -26.3177  -12.9263   20.3518 N   0  0  0  0  0  0
  -25.9347  -11.6438   20.5797 N   0  0  0  0  0  0
  -22.0573  -12.8304   22.0325 N   0  0  0  0  0  0
  -25.4512  -15.1836   20.4174 N   0  0  0  0  0  0
  -31.8014  -14.6435   20.0562 O   0  0  0  0  0  0
  -21.6580   -6.8882   21.4255 O   0  0  0  0  0  0
  -22.3639  -14.5560   20.6565 O   0  0  0  0  0  0
  -24.6130  -31.8694   23.2143 C   0  0  0  0  0  0
  -25.9033  -32.4831   23.8424 C   0  0  1  0  0  0
  -27.2335  -27.4500   20.0611 C   0  0  0  0  0  0
  -25.5888  -33.8627   24.2341 N   0  0  0  0  0  0
  -23.3986  -30.4947   21.5555 C   0  0  2  0  0  0
  -24.8414  -28.9655   20.1150 C   0  0  0  0  0  0
  -22.7394  -29.4657   22.5009 C   0  0  0  0  0  0
  -18.0262  -28.1368   22.8499 C   0  0  0  0  0  0
  -24.1479  -36.7316   23.2642 C   0  0  0  0  0  0
  -25.9298  -30.8342   21.3689 C   0  0  0  0  0  0
  -26.0030  -29.4718   20.7095 C   0  0  0  0  0  0
  -27.1980  -28.7180   20.6866 C   0  0  0  0  0  0
  -26.0390  -26.9401   19.5007 C   0  0  0  0  0  0
  -24.8519  -27.6947   19.5167 C   0  0  0  0  0  0
  -23.6052  -29.8344   20.1672 C   0  0  0  0  0  0
  -25.4102  -36.3115   24.0341 C   0  0  1  0  0  0
  -20.5857  -28.3651   23.1330 C   0  0  2  0  0  0
  -20.6752  -26.9386   22.5432 C   0  0  0  0  0  0
  -19.5732  -26.6373   21.5218 C   0  0  0  0  0  0
  -18.1907  -26.7914   22.1623 C   0  0  0  0  0  0
  -19.1519  -28.8822   23.2907 C   0  0  0  0  0  0
  -18.9443  -30.1430   23.8912 C   0  0  0  0  0  0
  -17.6444  -30.6578   24.0557 C   0  0  0  0  0  0
  -25.9032  -34.9481   23.5146 C   0  0  0  0  0  0
  -16.5337  -29.9082   23.6327 C   0  0  0  0  0  0
  -16.7257  -28.6497   23.0348 C   0  0  0  0  0  0
  -26.4463  -31.6609   25.0750 C   0  0  0  0  0  0
  -25.3741  -31.3723   26.1512 C   0  0  0  0  0  0
  -27.0288  -30.3048   24.6135 C   0  0  0  0  0  0
  -27.6044  -32.4331   25.7494 C   0  0  0  0  0  0
  -27.5579  -37.1813   24.8464 C   0  0  0  0  0  0
  -21.4125  -29.3017   22.3749 N   0  0  0  0  0  0
  -26.4287  -37.3803   23.9410 N   0  0  0  0  0  0
  -24.6658  -31.0801   22.1041 N   0  0  0  0  0  0
  -23.4185  -28.8190   23.3032 O   0  0  0  0  0  0
  -28.4186  -26.7425   20.0570 O   0  0  0  0  0  0
  -26.5597  -34.8926   22.4707 O   0  0  0  0  0  0
  -23.5329  -32.1442   23.7547 O   0  0  0  0  0  0
  -29.2227  -19.8238   19.7906 C   0  0  0  0  0  0
  -30.3993  -20.1849   17.9835 C   0  0  0  0  0  0
  -29.7317  -19.1762   18.6272 C   0  0  0  0  0  0
  -28.9690  -15.5959   23.4956 C   0  0  0  0  0  0
  -28.6056  -17.7587   16.9394 C   0  0  0  0  0  0
  -29.8941  -23.7654   18.1741 C   0  0  0  0  0  0
  -29.4424  -24.6260   19.3759 C   0  0  0  0  0  0
  -29.1364  -16.6814   19.1794 C   0  0  0  0  0  0
  -30.8963  -22.6346   18.5073 C   0  0  0  0  0  0
  -30.2550  -15.4719   22.6610 C   0  0  0  0  0  0
  -29.8785  -16.6874   20.5479 C   0  0  0  0  0  0
  -28.7287  -25.9156   18.9288 C   0  0  0  0  0  0
  -29.5708  -17.7502   18.1344 C   0  0  2  0  0  0
  -29.5689  -21.1034   19.8646 N   0  0  0  0  0  0
  -30.2912  -21.3306   18.7464 N   0  0  0  0  0  0
  -30.0000  -15.3651   21.2106 N   0  0  0  0  0  0
  -31.4763  -12.4382   19.0062 H   0  0  0  0  0  0
  -30.4044  -11.2555   19.6965 H   0  0  0  0  0  0
  -29.6853  -11.7784   17.3763 H   0  0  0  0  0  0
  -29.6679  -13.4835   17.7140 H   0  0  0  0  0  0
  -27.7691  -11.3524   18.7244 H   0  0  0  0  0  0
  -27.3542  -12.7657   17.7969 H   0  0  0  0  0  0
  -27.7584  -14.2540   19.6856 H   0  0  0  0  0  0
  -28.7267  -11.7831   21.1777 H   0  0  0  0  0  0
  -28.5480  -13.3215   21.9251 H   0  0  0  0  0  0
  -25.2812   -9.5664   22.4642 H   0  0  0  0  0  0
  -23.9989   -7.4666   22.7491 H   0  0  0  0  0  0
  -21.0786   -8.8779   19.8991 H   0  0  0  0  0  0
  -22.3700  -10.9634   19.6119 H   0  0  0  0  0  0
  -21.1907   -7.6135   23.9725 H   0  0  0  0  0  0
  -21.1492   -6.0526   25.9083 H   0  0  0  0  0  0
  -22.0574   -2.7611   23.2863 H   0  0  0  0  0  0
  -22.4210  -12.0020   22.4824 H   0  0  0  0  0  0
  -21.1190  -13.1363   22.2498 H   0  0  0  0  0  0
  -24.7017  -15.8522   20.5481 H   0  0  0  0  0  0
  -26.3275  -15.6114   20.1552 H   0  0  0  0  0  0
  -26.7097  -32.5535   23.1179 H   0  0  0  0  0  0
  -25.0038  -33.9795   25.0485 H   0  0  0  0  0  0
  -22.6866  -31.3124   21.4231 H   0  0  0  0  0  0
  -23.3740  -35.9654   23.3324 H   0  0  0  0  0  0
  -24.3567  -36.8912   22.2053 H   0  0  0  0  0  0
  -23.7230  -37.6527   23.6643 H   0  0  0  0  0  0
  -26.0500  -31.6061   20.6073 H   0  0  0  0  0  0
  -26.8142  -30.8772   21.9926 H   0  0  0  0  0  0
  -28.0985  -29.1110   21.1383 H   0  0  0  0  0  0
  -25.9906  -25.9535   19.0673 H   0  0  0  0  0  0
  -23.9515  -27.2892   19.0769 H   0  0  0  0  0  0
  -23.7186  -30.6157   19.4149 H   0  0  0  0  0  0
  -22.7263  -29.2622   19.8666 H   0  0  0  0  0  0
  -25.1275  -36.1996   25.0837 H   0  0  0  0  0  0
  -20.9934  -28.3199   24.1450 H   0  0  0  0  0  0
  -20.5646  -26.2242   23.3608 H   0  0  0  0  0  0
  -21.6622  -26.7416   22.1226 H   0  0  0  0  0  0
  -19.6890  -25.6285   21.1231 H   0  0  0  0  0  0
  -19.6676  -27.3196   20.6757 H   0  0  0  0  0  0
  -17.4178  -26.6670   21.4019 H   0  0  0  0  0  0
  -18.0297  -26.0048   22.9010 H   0  0  0  0  0  0
  -19.7915  -30.7243   24.2286 H   0  0  0  0  0  0
  -17.5002  -31.6265   24.5151 H   0  0  0  0  0  0
  -15.5339  -30.2990   23.7639 H   0  0  0  0  0  0
  -15.8650  -28.0825   22.7054 H   0  0  0  0  0  0
  -24.5888  -30.7091   25.7864 H   0  0  0  0  0  0
  -24.8962  -32.2884   26.4997 H   0  0  0  0  0  0
  -25.8105  -30.8868   27.0249 H   0  0  0  0  0  0
  -26.2834  -29.6819   24.1175 H   0  0  0  0  0  0
  -27.4028  -29.7280   25.4603 H   0  0  0  0  0  0
  -27.8686  -30.4358   23.9306 H   0  0  0  0  0  0
  -27.2670  -33.3630   26.2086 H   0  0  0  0  0  0
  -28.3837  -32.6894   25.0303 H   0  0  0  0  0  0
  -28.0728  -31.8449   26.5396 H   0  0  0  0  0  0
  -28.2610  -38.0103   24.7511 H   0  0  0  0  0  0
  -28.1064  -36.2631   24.6286 H   0  0  0  0  0  0
  -27.2300  -37.1467   25.8872 H   0  0  0  0  0  0
  -20.9277  -29.8763   21.6999 H   0  0  0  0  0  0
  -26.0182  -38.2884   24.1423 H   0  0  0  0  0  0
  -28.6143  -19.4085   20.5821 H   0  0  0  0  0  0
  -30.9419  -20.1789   17.0474 H   0  0  0  0  0  0
  -28.1534  -14.9790   23.1221 H   0  0  0  0  0  0
  -28.6106  -16.6218   23.5138 H   0  0  0  0  0  0
  -29.1531  -15.3016   24.5301 H   0  0  0  0  0  0
  -28.9756  -18.3984   16.1372 H   0  0  0  0  0  0
  -27.6337  -18.1487   17.2381 H   0  0  0  0  0  0
  -28.4514  -16.7644   16.5188 H   0  0  0  0  0  0
  -30.3851  -24.4301   17.4625 H   0  0  0  0  0  0
  -29.0287  -23.3622   17.6451 H   0  0  0  0  0  0
  -30.3111  -24.8972   19.9784 H   0  0  0  0  0  0
  -28.7870  -24.0439   20.0253 H   0  0  0  0  0  0
  -28.0657  -16.7790   19.3692 H   0  0  0  0  0  0
  -29.2418  -15.7135   18.6891 H   0  0  0  0  0  0
  -31.5180  -22.8986   19.3626 H   0  0  0  0  0  0
  -31.5863  -22.5219   17.6694 H   0  0  0  0  0  0
  -30.8100  -14.6060   23.0310 H   0  0  0  0  0  0
  -30.9130  -16.3190   22.8576 H   0  0  0  0  0  0
  -30.8751  -17.1088   20.4213 H   0  0  0  0  0  0
  -29.3438  -17.3631   21.2147 H   0  0  0  0  0  0
  -27.8830  -25.6482   18.2990 H   0  0  0  0  0  0
  -29.3935  -26.4918   18.2840 H   0  0  0  0  0  0
  -30.5385  -17.4164   17.7557 H   0  0  0  0  0  0
  1 25  1  0  0  0
  1 30  2  0  0  0
  1 86  1  0  0  0
  2  3  1  0  0  0
  2 25  1  0  0  0
  2 87  1  0  0  0
  2 88  1  0  0  0
  3  4  1  0  0  0
  3 89  1  0  0  0
  3 90  1  0  0  0
  4  5  1  0  0  0
  4 91  1  0  0  0
  4 92  1  0  0  0
  5  6  1  0  0  0
  5 26  1  0  0  0
  5 93  1  0  0  0
  6 25  1  0  0  0
  6 94  1  0  0  0
  6 95  1  0  0  0
  7  8  2  0  0  0
  7 26  1  0  0  0
  7 29  1  0  0  0
  8  9  1  0  0  0
  8 22  1  0  0  0
  9 10  1  0  0  0
  9 27  2  0  0  0
 10 11  2  0  0  0
 10 15  1  0  0  0
 11 12  1  0  0  0
 11 96  1  0  0  0
 12 13  2  0  0  0
 12 97  1  0  0  0
 13 14  1  0  0  0
 13 31  1  0  0  0
 14 15  2  0  0  0
 14 98  1  0  0  0
 15 99  1  0  0  0
 16 17  2  0  0  0
 16 21  1  0  0  0
 16 31  1  0  0  0
 17 18  1  0  0  0
 17100  1  0  0  0
 18 19  2  0  0  0
 18101  1  0  0  0
 19 20  1  0  0  0
 19 24  1  0  0  0
 20 21  2  0  0  0
 20102  1  0  0  0
 21 23  1  0  0  0
 22 28  1  0  0  0
 22 32  2  0  0  0
 26 27  1  0  0  0
 28103  1  0  0  0
 28104  1  0  0  0
 29105  1  0  0  0
 29106  1  0  0  0
 33 34  1  0  0  0
 33 66  1  0  0  0
 33 70  2  0  0  0
 34 36  1  0  0  0
 34 59  1  0  0  0
 34107  1  0  0  0
 35 44  2  0  0  0
 35 45  1  0  0  0
 35 68  1  0  0  0
 36 56  1  0  0  0
 36108  1  0  0  0
 37 39  1  0  0  0
 37 47  1  0  0  0
 37 66  1  0  0  0
 37109  1  0  0  0
 38 43  2  0  0  0
 38 46  1  0  0  0
 38 47  1  0  0  0
 39 64  1  0  0  0
 39 67  2  0  0  0
 40 52  1  0  0  0
 40 53  2  0  0  0
 40 58  1  0  0  0
 41110  1  0  0  0
 41111  1  0  0  0
 41112  1  0  0  0
 41 48  1  0  0  0
 42 43  1  0  0  0
 42 66  1  0  0  0
 42113  1  0  0  0
 42114  1  0  0  0
 43 44  1  0  0  0
 44115  1  0  0  0
 45 46  2  0  0  0
 45116  1  0  0  0
 46117  1  0  0  0
 47118  1  0  0  0
 47119  1  0  0  0
 48 56  1  0  0  0
 48 65  1  0  0  0
 48120  1  0  0  0
 49 50  1  0  0  0
 49 53  1  0  0  0
 49 64  1  0  0  0
 49121  1  0  0  0
 50 51  1  0  0  0
 50122  1  0  0  0
 50123  1  0  0  0
 51 52  1  0  0  0
 51124  1  0  0  0
 51125  1  0  0  0
 52126  1  0  0  0
 52127  1  0  0  0
 53 54  1  0  0  0
 54 55  2  0  0  0
 54128  1  0  0  0
 55 57  1  0  0  0
 55129  1  0  0  0
 56 69  2  0  0  0
 57 58  2  0  0  0
 57130  1  0  0  0
 58131  1  0  0  0
 59 60  1  0  0  0
 59 61  1  0  0  0
 59 62  1  0  0  0
 60132  1  0  0  0
 60133  1  0  0  0
 60134  1  0  0  0
 61135  1  0  0  0
 61136  1  0  0  0
 61137  1  0  0  0
 62138  1  0  0  0
 62139  1  0  0  0
 62140  1  0  0  0
 63 65  1  0  0  0
 63141  1  0  0  0
 63142  1  0  0  0
 63143  1  0  0  0
 64144  1  0  0  0
 65145  1  0  0  0
 68 82  1  0  0  0
 71 73  1  0  0  0
 71 84  2  0  0  0
 71146  1  0  0  0
 72 73  2  0  0  0
 72 85  1  0  0  0
 72147  1  0  0  0
 73 83  1  0  0  0
 74 80  1  0  0  0
 74148  1  0  0  0
 74149  1  0  0  0
 74150  1  0  0  0
 75151  1  0  0  0
 75152  1  0  0  0
 75153  1  0  0  0
 75 83  1  0  0  0
 76 77  1  0  0  0
 76 79  1  0  0  0
 76154  1  0  0  0
 76155  1  0  0  0
 77 82  1  0  0  0
 77156  1  0  0  0
 77157  1  0  0  0
 78 81  1  0  0  0
 78 83  1  0  0  0
 78158  1  0  0  0
 78159  1  0  0  0
 79 85  1  0  0  0
 79160  1  0  0  0
 79161  1  0  0  0
 80 86  1  0  0  0
 80162  1  0  0  0
 80163  1  0  0  0
 81 86  1  0  0  0
 81164  1  0  0  0
 81165  1  0  0  0
 82166  1  0  0  0
 82167  1  0  0  0
 83168  1  0  0  0
 84 85  1  0  0  0
M  ISO  4   1 100  68 101  82 101  86 100
M  END
> <chiral flag>
0

> <version>
0

> <s_m_source_file>
/data/baiqing/PycharmProjects/Reinvent-master-3.2/result/LINK_invent/BTK/process_docking_weight1_custom_sum_contain_oxygen_bond_distance_aromatic_linkinvent_7_9_3/rearranged_h_0046.sdf

> <i_m_source_file_index>
81

> <r_mmod_Potential_Energy-OPLS-2005>
141.72737121582

> <r_mmod_Stretch_Energy-OPLS-2005>
37.4945259094238

> <r_mmod_Bend_Energy-OPLS-2005>
114.998580932617

> <r_mmod_Torsional_Energy-OPLS-2005>
304.926544189453

> <r_mmod_Improper_Torsional_Energy-OPLS-2005>
8.05135154724121

> <r_mmod_Van_der_Waal_Energy-OPLS-2005>
128.630447387695

> <r_mmod_Electrostatic_Energy-OPLS-2005>
-261.689849853516

> <r_mmod_Solvation_Energy-OPLS-2005>
-201.855621337891

> <b_mmod_Minimization_Converged-OPLS-2005>
0

> <r_mmod_RMS_Derivative-OPLS-2005>
4.35475063323975

$$$$
82
                    3D
 Structure written by MMmdl.
162170  0  0  1  0            999 V2000
  -30.7212  -14.4168   20.5556 C   0  0  0  0  0  0
  -30.4063  -12.2622   19.4274 C   0  0  0  0  0  0
  -29.4902  -12.4994   18.2108 C   0  0  0  0  0  0
  -28.0096  -12.3721   18.6217 C   0  0  0  0  0  0
  -27.6610  -13.2081   19.8827 C   0  0  2  0  0  0
  -28.7004  -12.9811   21.0049 C   0  0  0  0  0  0
  -25.2556  -13.8175   20.5727 C   0  0  0  0  0  0
  -24.1817  -13.0444   20.9238 C   0  0  0  0  0  0
  -24.6392  -11.6922   20.8785 C   0  0  0  0  0  0
  -23.9089  -10.4298   21.0450 C   0  0  0  0  0  0
  -24.3630   -9.4194   21.9210 C   0  0  0  0  0  0
  -23.6292   -8.2235   22.0753 C   0  0  0  0  0  0
  -22.4272   -8.0294   21.3540 C   0  0  0  0  0  0
  -21.9931   -9.0280   20.4644 C   0  0  0  0  0  0
  -22.7270  -10.2153   20.3085 C   0  0  0  0  0  0
  -21.6845   -6.0752   22.5288 C   0  0  0  0  0  0
  -21.3992   -6.5644   23.8219 C   0  0  0  0  0  0
  -21.3669   -5.6798   24.9181 C   0  0  0  0  0  0
  -21.6064   -4.3067   24.7214 C   0  0  0  0  0  0
  -21.8813   -3.8160   23.4330 C   0  0  0  0  0  0
  -21.9169   -4.6982   22.3390 C   0  0  0  0  0  0
  -22.7829  -13.5222   21.1912 C   0  0  0  0  0  0
  -22.1652   -4.2180   21.0969 F   0  0  0  0  0  0
  -21.5653   -3.4549   25.7719 F   0  0  0  0  0  0
  -30.0360  -13.2495   20.4511 N   0  0  0  0  0  0
  -26.3010  -12.9352   20.3441 N   0  0  0  0  0  0
  -25.9308  -11.6508   20.5817 N   0  0  0  0  0  0
  -22.0477  -12.8190   22.0452 N   0  0  0  0  0  0
  -25.4287  -15.1882   20.4125 N   0  0  0  0  0  0
  -31.8648  -14.5667   20.1178 O   0  0  0  0  0  0
  -21.6625   -6.8905   21.4248 O   0  0  0  0  0  0
  -22.3516  -14.5536   20.6790 O   0  0  0  0  0  0
  -24.6074  -31.8713   23.2148 C   0  0  0  0  0  0
  -25.8989  -32.4844   23.8412 C   0  0  1  0  0  0
  -27.2384  -27.4796   20.0984 C   0  0  0  0  0  0
  -25.5874  -33.8642   24.2333 N   0  0  0  0  0  0
  -23.3927  -30.4936   21.5542 C   0  0  2  0  0  0
  -24.8416  -28.9594   20.1226 C   0  0  0  0  0  0
  -22.7358  -29.4664   22.5023 C   0  0  0  0  0  0
  -18.0256  -28.1381   22.8489 C   0  0  0  0  0  0
  -24.1485  -36.7327   23.2635 C   0  0  0  0  0  0
  -25.9154  -30.8495   21.3628 C   0  0  0  0  0  0
  -25.9947  -29.4820   20.7221 C   0  0  0  0  0  0
  -27.1953  -28.7457   20.7184 C   0  0  0  0  0  0
  -26.0770  -26.9606   19.4946 C   0  0  0  0  0  0
  -24.8736  -27.6928   19.5094 C   0  0  0  0  0  0
  -23.6011  -29.8224   20.1697 C   0  0  0  0  0  0
  -25.4110  -36.3125   24.0333 C   0  0  1  0  0  0
  -20.5837  -28.3644   23.1338 C   0  0  2  0  0  0
  -20.6752  -26.9387   22.5429 C   0  0  0  0  0  0
  -19.5742  -26.6388   21.5211 C   0  0  0  0  0  0
  -18.1911  -26.7940   22.1603 C   0  0  0  0  0  0
  -19.1504  -28.8829   23.2913 C   0  0  0  0  0  0
  -18.9447  -30.1444   23.8910 C   0  0  0  0  0  0
  -17.6452  -30.6593   24.0567 C   0  0  0  0  0  0
  -25.9031  -34.9488   23.5127 C   0  0  0  0  0  0
  -16.5339  -29.9091   23.6344 C   0  0  0  0  0  0
  -16.7249  -28.6516   23.0345 C   0  0  0  0  0  0
  -26.4456  -31.6606   25.0710 C   0  0  0  0  0  0
  -25.3744  -31.3683   26.1467 C   0  0  0  0  0  0
  -27.0283  -30.3056   24.6045 C   0  0  0  0  0  0
  -27.6043  -32.4302   25.7471 C   0  0  0  0  0  0
  -27.5585  -37.1810   24.8458 C   0  0  0  0  0  0
  -21.4093  -29.3013   22.3750 N   0  0  0  0  0  0
  -26.4293  -37.3809   23.9415 N   0  0  0  0  0  0
  -24.6562  -31.0849   22.1030 N   0  0  0  0  0  0
  -23.4144  -28.8226   23.3068 O   0  0  0  0  0  0
  -28.4012  -26.7586   20.0224 O   0  0  0  0  0  0
  -26.5599  -34.8925   22.4691 O   0  0  0  0  0  0
  -23.5282  -32.1436   23.7574 O   0  0  0  0  0  0
  -27.7281  -20.8838   19.8251 C   0  0  0  0  0  0
  -29.0065  -20.4206   20.0303 C   0  0  0  0  0  0
  -28.9330  -22.5895   20.3779 C   0  0  0  0  0  0
  -26.5213  -20.1453   19.3428 C   0  0  0  0  0  0
  -31.1524  -21.5366   20.8606 C   0  0  0  0  0  0
  -29.5956  -19.0672   19.7329 C   0  0  0  0  0  0
  -29.4151  -24.0104   20.4652 C   0  0  0  0  0  0
  -29.3432  -17.9345   20.7560 C   0  0  0  0  0  0
  -28.6813  -24.8861   21.4915 C   0  0  0  0  0  0
  -30.4279  -16.8433   20.6072 C   0  0  0  0  0  0
  -28.9748  -26.3790   21.2691 C   0  0  0  0  0  0
  -27.6922  -22.2575   20.0333 N   0  0  0  0  0  0
  -29.7527  -21.5212   20.4664 N   0  0  0  0  0  0
  -30.0023  -15.4802   20.9503 N   0  0  0  0  0  0
  -31.4577  -12.3201   19.1391 H   0  0  0  0  0  0
  -30.2621  -11.2511   19.8114 H   0  0  0  0  0  0
  -29.7194  -11.7900   17.4155 H   0  0  0  0  0  0
  -29.6729  -13.4928   17.7977 H   0  0  0  0  0  0
  -27.8119  -11.3166   18.8078 H   0  0  0  0  0  0
  -27.3621  -12.6566   17.7922 H   0  0  0  0  0  0
  -27.7087  -14.2576   19.5895 H   0  0  0  0  0  0
  -28.6546  -11.9525   21.3634 H   0  0  0  0  0  0
  -28.4795  -13.5994   21.8763 H   0  0  0  0  0  0
  -25.2792   -9.5630   22.4769 H   0  0  0  0  0  0
  -23.9999   -7.4602   22.7442 H   0  0  0  0  0  0
  -21.0886   -8.8822   19.8902 H   0  0  0  0  0  0
  -22.3782  -10.9705   19.6191 H   0  0  0  0  0  0
  -21.1978   -7.6151   23.9729 H   0  0  0  0  0  0
  -21.1518   -6.0531   25.9094 H   0  0  0  0  0  0
  -22.0577   -2.7623   23.2820 H   0  0  0  0  0  0
  -22.4086  -11.9824   22.4796 H   0  0  0  0  0  0
  -21.1100  -13.1207   22.2698 H   0  0  0  0  0  0
  -24.6642  -15.8468   20.5215 H   0  0  0  0  0  0
  -26.2848  -15.6257   20.0960 H   0  0  0  0  0  0
  -26.7060  -32.5580   23.1186 H   0  0  0  0  0  0
  -25.0025  -33.9820   25.0472 H   0  0  0  0  0  0
  -22.6783  -31.3081   21.4160 H   0  0  0  0  0  0
  -23.3744  -35.9660   23.3300 H   0  0  0  0  0  0
  -24.3579  -36.8942   22.2048 H   0  0  0  0  0  0
  -23.7227  -37.6526   23.6654 H   0  0  0  0  0  0
  -26.0126  -31.6122   20.5886 H   0  0  0  0  0  0
  -26.8078  -30.9132   21.9736 H   0  0  0  0  0  0
  -28.0870  -29.1534   21.1732 H   0  0  0  0  0  0
  -26.1083  -25.9914   19.0176 H   0  0  0  0  0  0
  -23.9882  -27.2841   19.0425 H   0  0  0  0  0  0
  -23.7019  -30.5956   19.4076 H   0  0  0  0  0  0
  -22.7282  -29.2388   19.8755 H   0  0  0  0  0  0
  -25.1288  -36.1996   25.0826 H   0  0  0  0  0  0
  -20.9927  -28.3220   24.1456 H   0  0  0  0  0  0
  -20.5663  -26.2244   23.3606 H   0  0  0  0  0  0
  -21.6628  -26.7452   22.1219 H   0  0  0  0  0  0
  -19.6911  -25.6303   21.1239 H   0  0  0  0  0  0
  -19.6722  -27.3199   20.6747 H   0  0  0  0  0  0
  -17.4197  -26.6690   21.3991 H   0  0  0  0  0  0
  -18.0307  -26.0075   22.8985 H   0  0  0  0  0  0
  -19.7928  -30.7265   24.2267 H   0  0  0  0  0  0
  -17.5014  -31.6277   24.5163 H   0  0  0  0  0  0
  -15.5342  -30.3002   23.7682 H   0  0  0  0  0  0
  -15.8643  -28.0862   22.7035 H   0  0  0  0  0  0
  -24.5936  -30.7005   25.7809 H   0  0  0  0  0  0
  -24.8913  -32.2826   26.4918 H   0  0  0  0  0  0
  -25.8123  -30.8863   27.0213 H   0  0  0  0  0  0
  -26.2808  -29.6809   24.1135 H   0  0  0  0  0  0
  -27.4108  -29.7293   25.4481 H   0  0  0  0  0  0
  -27.8621  -30.4383   23.9143 H   0  0  0  0  0  0
  -27.2670  -33.3572   26.2110 H   0  0  0  0  0  0
  -28.3830  -32.6888   25.0289 H   0  0  0  0  0  0
  -28.0731  -31.8376   26.5334 H   0  0  0  0  0  0
  -28.2598  -38.0112   24.7528 H   0  0  0  0  0  0
  -28.1084  -36.2645   24.6265 H   0  0  0  0  0  0
  -27.2306  -37.1441   25.8858 H   0  0  0  0  0  0
  -20.9232  -29.8721   21.6977 H   0  0  0  0  0  0
  -26.0185  -38.2879   24.1451 H   0  0  0  0  0  0
  -26.4054  -19.1947   19.8614 H   0  0  0  0  0  0
  -26.5939  -19.9345   18.2760 H   0  0  0  0  0  0
  -25.6100  -20.7225   19.5030 H   0  0  0  0  0  0
  -31.5240  -20.5297   21.0383 H   0  0  0  0  0  0
  -31.2658  -22.0971   21.7898 H   0  0  0  0  0  0
  -31.7518  -22.0044   20.0800 H   0  0  0  0  0  0
  -30.6647  -19.1753   19.5559 H   0  0  0  0  0  0
  -29.2088  -18.7338   18.7689 H   0  0  0  0  0  0
  -29.3011  -24.4362   19.4680 H   0  0  0  0  0  0
  -30.4843  -24.0439   20.6749 H   0  0  0  0  0  0
  -28.3392  -17.5319   20.6125 H   0  0  0  0  0  0
  -29.3775  -18.3224   21.7739 H   0  0  0  0  0  0
  -28.9718  -24.5828   22.4965 H   0  0  0  0  0  0
  -27.6050  -24.7289   21.4199 H   0  0  0  0  0  0
  -31.3104  -17.1136   21.1907 H   0  0  0  0  0  0
  -30.7612  -16.8213   19.5664 H   0  0  0  0  0  0
  -30.0486  -26.5600   21.2260 H   0  0  0  0  0  0
  -28.5974  -26.9678   22.1050 H   0  0  0  0  0  0
  -29.0627  -15.3201   21.2818 H   0  0  0  0  0  0
  1 25  1  0  0  0
  1 30  2  0  0  0
  1 84  1  0  0  0
  2  3  1  0  0  0
  2 25  1  0  0  0
  2 85  1  0  0  0
  2 86  1  0  0  0
  3  4  1  0  0  0
  3 87  1  0  0  0
  3 88  1  0  0  0
  4  5  1  0  0  0
  4 89  1  0  0  0
  4 90  1  0  0  0
  5  6  1  0  0  0
  5 26  1  0  0  0
  5 91  1  0  0  0
  6 25  1  0  0  0
  6 92  1  0  0  0
  6 93  1  0  0  0
  7  8  2  0  0  0
  7 26  1  0  0  0
  7 29  1  0  0  0
  8  9  1  0  0  0
  8 22  1  0  0  0
  9 10  1  0  0  0
  9 27  2  0  0  0
 10 11  2  0  0  0
 10 15  1  0  0  0
 11 12  1  0  0  0
 11 94  1  0  0  0
 12 13  2  0  0  0
 12 95  1  0  0  0
 13 14  1  0  0  0
 13 31  1  0  0  0
 14 15  2  0  0  0
 14 96  1  0  0  0
 15 97  1  0  0  0
 16 17  2  0  0  0
 16 21  1  0  0  0
 16 31  1  0  0  0
 17 18  1  0  0  0
 17 98  1  0  0  0
 18 19  2  0  0  0
 18 99  1  0  0  0
 19 20  1  0  0  0
 19 24  1  0  0  0
 20 21  2  0  0  0
 20100  1  0  0  0
 21 23  1  0  0  0
 22 28  1  0  0  0
 22 32  2  0  0  0
 26 27  1  0  0  0
 28101  1  0  0  0
 28102  1  0  0  0
 29103  1  0  0  0
 29104  1  0  0  0
 33 34  1  0  0  0
 33 66  1  0  0  0
 33 70  2  0  0  0
 34 36  1  0  0  0
 34 59  1  0  0  0
 34105  1  0  0  0
 35 44  2  0  0  0
 35 45  1  0  0  0
 35 68  1  0  0  0
 36 56  1  0  0  0
 36106  1  0  0  0
 37 39  1  0  0  0
 37 47  1  0  0  0
 37 66  1  0  0  0
 37107  1  0  0  0
 38 43  2  0  0  0
 38 46  1  0  0  0
 38 47  1  0  0  0
 39 64  1  0  0  0
 39 67  2  0  0  0
 40 52  1  0  0  0
 40 53  2  0  0  0
 40 58  1  0  0  0
 41108  1  0  0  0
 41109  1  0  0  0
 41110  1  0  0  0
 41 48  1  0  0  0
 42 43  1  0  0  0
 42 66  1  0  0  0
 42111  1  0  0  0
 42112  1  0  0  0
 43 44  1  0  0  0
 44113  1  0  0  0
 45 46  2  0  0  0
 45114  1  0  0  0
 46115  1  0  0  0
 47116  1  0  0  0
 47117  1  0  0  0
 48 56  1  0  0  0
 48 65  1  0  0  0
 48118  1  0  0  0
 49 50  1  0  0  0
 49 53  1  0  0  0
 49 64  1  0  0  0
 49119  1  0  0  0
 50 51  1  0  0  0
 50120  1  0  0  0
 50121  1  0  0  0
 51 52  1  0  0  0
 51122  1  0  0  0
 51123  1  0  0  0
 52124  1  0  0  0
 52125  1  0  0  0
 53 54  1  0  0  0
 54 55  2  0  0  0
 54126  1  0  0  0
 55 57  1  0  0  0
 55127  1  0  0  0
 56 69  2  0  0  0
 57 58  2  0  0  0
 57128  1  0  0  0
 58129  1  0  0  0
 59 60  1  0  0  0
 59 61  1  0  0  0
 59 62  1  0  0  0
 60130  1  0  0  0
 60131  1  0  0  0
 60132  1  0  0  0
 61133  1  0  0  0
 61134  1  0  0  0
 61135  1  0  0  0
 62136  1  0  0  0
 62137  1  0  0  0
 62138  1  0  0  0
 63 65  1  0  0  0
 63139  1  0  0  0
 63140  1  0  0  0
 63141  1  0  0  0
 64142  1  0  0  0
 65143  1  0  0  0
 68 81  1  0  0  0
 71 72  2  0  0  0
 71 74  1  0  0  0
 71 82  1  0  0  0
 72 76  1  0  0  0
 72 83  1  0  0  0
 73 77  1  0  0  0
 73 82  2  0  0  0
 73 83  1  0  0  0
 74144  1  0  0  0
 74145  1  0  0  0
 74146  1  0  0  0
 75 83  1  0  0  0
 75147  1  0  0  0
 75148  1  0  0  0
 75149  1  0  0  0
 76 78  1  0  0  0
 76150  1  0  0  0
 76151  1  0  0  0
 77 79  1  0  0  0
 77152  1  0  0  0
 77153  1  0  0  0
 78 80  1  0  0  0
 78154  1  0  0  0
 78155  1  0  0  0
 79 81  1  0  0  0
 79156  1  0  0  0
 79157  1  0  0  0
 80 84  1  0  0  0
 80158  1  0  0  0
 80159  1  0  0  0
 81160  1  0  0  0
 81161  1  0  0  0
 84162  1  0  0  0
M  ISO  4   1 100  68 101  81 101  84 100
M  END
> <chiral flag>
0

> <version>
0

> <s_m_source_file>
/data/baiqing/PycharmProjects/Reinvent-master-3.2/result/LINK_invent/BTK/process_docking_weight1_custom_sum_contain_oxygen_bond_distance_aromatic_linkinvent_7_9_3/rearranged_h_0046.sdf

> <i_m_source_file_index>
82

> <r_mmod_Potential_Energy-OPLS-2005>
-135.926651000977

> <r_mmod_Stretch_Energy-OPLS-2005>
30.7892513275146

> <r_mmod_Bend_Energy-OPLS-2005>
99.327880859375

> <r_mmod_Torsional_Energy-OPLS-2005>
238.788558959961

> <r_mmod_Improper_Torsional_Energy-OPLS-2005>
7.29066371917725

> <r_mmod_Van_der_Waal_Energy-OPLS-2005>
130.888427734375

> <r_mmod_Electrostatic_Energy-OPLS-2005>
-428.068328857422

> <r_mmod_Solvation_Energy-OPLS-2005>
-224.870452880859

> <b_mmod_Minimization_Converged-OPLS-2005>
0

> <r_mmod_RMS_Derivative-OPLS-2005>
3.0992476940155

$$$$
83
                    3D
 Structure written by MMmdl.
153161  0  0  1  0            999 V2000
  -30.5383  -15.0127   20.3996 C   0  0  0  0  0  0
  -30.4466  -12.6264   19.5150 C   0  0  0  0  0  0
  -29.5345  -12.5061   18.2732 C   0  0  0  0  0  0
  -28.0766  -12.2683   18.7094 C   0  0  0  0  0  0
  -27.6285  -13.2433   19.8270 C   0  0  2  0  0  0
  -28.6665  -13.3416   20.9667 C   0  0  0  0  0  0
  -25.2501  -13.8203   20.5720 C   0  0  0  0  0  0
  -24.1811  -13.0436   20.9242 C   0  0  0  0  0  0
  -24.6409  -11.6917   20.8764 C   0  0  0  0  0  0
  -23.9083  -10.4304   21.0421 C   0  0  0  0  0  0
  -24.3635   -9.4208   21.9192 C   0  0  0  0  0  0
  -23.6300   -8.2245   22.0756 C   0  0  0  0  0  0
  -22.4274   -8.0300   21.3555 C   0  0  0  0  0  0
  -21.9920   -9.0281   20.4652 C   0  0  0  0  0  0
  -22.7257  -10.2158   20.3061 C   0  0  0  0  0  0
  -21.6852   -6.0751   22.5284 C   0  0  0  0  0  0
  -21.4030   -6.5661   23.8218 C   0  0  0  0  0  0
  -21.3654   -5.6800   24.9172 C   0  0  0  0  0  0
  -21.6022   -4.3064   24.7225 C   0  0  0  0  0  0
  -21.8814   -3.8169   23.4346 C   0  0  0  0  0  0
  -21.9188   -4.6983   22.3399 C   0  0  0  0  0  0
  -22.7838  -13.5232   21.1865 C   0  0  0  0  0  0
  -22.1652   -4.2173   21.0974 F   0  0  0  0  0  0
  -21.5607   -3.4535   25.7730 F   0  0  0  0  0  0
  -29.9381  -13.7505   20.3574 N   0  0  0  0  0  0
  -26.2907  -12.9418   20.3214 N   0  0  0  0  0  0
  -25.9344  -11.6554   20.5738 N   0  0  0  0  0  0
  -22.0455  -12.8260   22.0419 N   0  0  0  0  0  0
  -25.4166  -15.1933   20.4133 N   0  0  0  0  0  0
  -31.7527  -15.0527   20.1731 O   0  0  0  0  0  0
  -21.6626   -6.8901   21.4249 O   0  0  0  0  0  0
  -22.3530  -14.5521   20.6662 O   0  0  0  0  0  0
  -24.6517  -31.8354   23.1836 C   0  0  0  0  0  0
  -25.9267  -32.4636   23.8235 C   0  0  1  0  0  0
  -27.2200  -27.0747   20.1498 C   0  0  0  0  0  0
  -25.5981  -33.8450   24.2136 N   0  0  0  0  0  0
  -23.4600  -30.4559   21.5263 C   0  0  2  0  0  0
  -24.9115  -28.8760   20.1075 C   0  0  0  0  0  0
  -22.7615  -29.4507   22.4785 C   0  0  0  0  0  0
  -18.0316  -28.1412   22.8451 C   0  0  0  0  0  0
  -24.1500  -36.7249   23.2634 C   0  0  0  0  0  0
  -26.0235  -30.6850   21.3995 C   0  0  0  0  0  0
  -26.0911  -29.2937   20.7363 C   0  0  0  0  0  0
  -27.2425  -28.4083   20.7456 C   0  0  0  0  0  0
  -26.0154  -26.7858   19.4661 C   0  0  0  0  0  0
  -24.8892  -27.6363   19.4563 C   0  0  0  0  0  0
  -23.6934  -29.7873   20.1464 C   0  0  0  0  0  0
  -25.4130  -36.2990   24.0295 C   0  0  1  0  0  0
  -20.5937  -28.3742   23.1178 C   0  0  2  0  0  0
  -20.6787  -26.9429   22.5375 C   0  0  0  0  0  0
  -19.5762  -26.6388   21.5184 C   0  0  0  0  0  0
  -18.1948  -26.7947   22.1605 C   0  0  0  0  0  0
  -19.1574  -28.8902   23.2808 C   0  0  0  0  0  0
  -18.9495  -30.1490   23.8849 C   0  0  0  0  0  0
  -17.6486  -30.6594   24.0566 C   0  0  0  0  0  0
  -25.9089  -34.9368   23.5025 C   0  0  0  0  0  0
  -16.5375  -29.9092   23.6342 C   0  0  0  0  0  0
  -16.7301  -28.6521   23.0349 C   0  0  0  0  0  0
  -26.4577  -31.6556   25.0726 C   0  0  0  0  0  0
  -25.3754  -31.3794   26.1422 C   0  0  0  0  0  0
  -27.0459  -30.2916   24.6432 C   0  0  0  0  0  0
  -27.6072  -32.4377   25.7521 C   0  0  0  0  0  0
  -27.5578  -37.1762   24.8453 C   0  0  0  0  0  0
  -21.4301  -29.3050   22.3543 N   0  0  0  0  0  0
  -26.4283  -37.3712   23.9409 N   0  0  0  0  0  0
  -24.7311  -31.0166   22.0888 N   0  0  0  0  0  0
  -23.4219  -28.8021   23.2947 O   0  0  0  0  0  0
  -28.2350  -26.0284   20.2445 O   0  0  0  0  0  0
  -26.5681  -34.8881   22.4610 O   0  0  0  0  0  0
  -23.5618  -32.1256   23.6992 O   0  0  0  0  0  0
  -28.6511  -23.0587   20.2405 C   0  0  0  0  0  0
  -29.4545  -22.6098   21.3488 C   0  0  0  0  0  0
  -28.5305  -21.7777   19.6136 C   0  0  0  0  0  0
  -29.9456  -23.4537   22.4904 C   0  0  0  0  0  0
  -27.7777  -21.4957   18.3535 C   0  0  0  0  0  0
  -27.8982  -24.5282   19.8848 C   0  0  0  0  0  0
  -29.0140  -19.0546   20.1589 C   0  0  0  0  0  0
  -30.1248  -17.7891   20.4603 C   0  0  0  0  0  0
  -29.7240  -21.2710   21.3833 N   0  0  0  0  0  0
  -29.1551  -20.6582   20.3073 N   0  0  0  0  0  0
  -29.7730  -16.2206   20.4895 N   0  0  0  0  0  0
  -31.4812  -12.7898   19.2040 H   0  0  0  0  0  0
  -30.4542  -11.6980   20.0866 H   0  0  0  0  0  0
  -29.8725  -11.6835   17.6399 H   0  0  0  0  0  0
  -29.6009  -13.4131   17.6707 H   0  0  0  0  0  0
  -28.0229  -11.2447   19.0873 H   0  0  0  0  0  0
  -27.4019  -12.3138   17.8558 H   0  0  0  0  0  0
  -27.5741  -14.2216   19.3486 H   0  0  0  0  0  0
  -28.7683  -12.3962   21.5015 H   0  0  0  0  0  0
  -28.3507  -14.0823   21.7046 H   0  0  0  0  0  0
  -25.2783   -9.5662   22.4761 H   0  0  0  0  0  0
  -24.0003   -7.4621   22.7477 H   0  0  0  0  0  0
  -21.0841   -8.8823   19.8965 H   0  0  0  0  0  0
  -22.3736  -10.9703   19.6174 H   0  0  0  0  0  0
  -21.2059   -7.6173   23.9739 H   0  0  0  0  0  0
  -21.1462   -6.0526   25.9069 H   0  0  0  0  0  0
  -22.0598   -2.7634   23.2828 H   0  0  0  0  0  0
  -22.4063  -11.9986   22.4925 H   0  0  0  0  0  0
  -21.1053  -13.1287   22.2512 H   0  0  0  0  0  0
  -24.6442  -15.8408   20.5277 H   0  0  0  0  0  0
  -26.2538  -15.6379   20.0615 H   0  0  0  0  0  0
  -26.7341  -32.5210   23.0956 H   0  0  0  0  0  0
  -25.0110  -33.9543   25.0273 H   0  0  0  0  0  0
  -22.7672  -31.2849   21.3660 H   0  0  0  0  0  0
  -23.3743  -35.9598   23.3260 H   0  0  0  0  0  0
  -24.3587  -36.8929   22.2056 H   0  0  0  0  0  0
  -23.7277  -37.6437   23.6718 H   0  0  0  0  0  0
  -26.2085  -31.4359   20.6302 H   0  0  0  0  0  0
  -26.8831  -30.7209   22.0570 H   0  0  0  0  0  0
  -28.1314  -28.7188   21.2759 H   0  0  0  0  0  0
  -25.8949  -25.8479   18.9467 H   0  0  0  0  0  0
  -23.9925  -27.3115   18.9452 H   0  0  0  0  0  0
  -23.8460  -30.5616   19.3934 H   0  0  0  0  0  0
  -22.8077  -29.2372   19.8239 H   0  0  0  0  0  0
  -25.1321  -36.1791   25.0783 H   0  0  0  0  0  0
  -21.0038  -28.3346   24.1294 H   0  0  0  0  0  0
  -20.5651  -26.2364   23.3603 H   0  0  0  0  0  0
  -21.6657  -26.7406   22.1189 H   0  0  0  0  0  0
  -19.6914  -25.6290   21.1235 H   0  0  0  0  0  0
  -19.6700  -27.3179   20.6697 H   0  0  0  0  0  0
  -17.4201  -26.6671   21.4018 H   0  0  0  0  0  0
  -18.0371  -26.0112   22.9033 H   0  0  0  0  0  0
  -19.7976  -30.7323   24.2185 H   0  0  0  0  0  0
  -17.5045  -31.6256   24.5195 H   0  0  0  0  0  0
  -15.5371  -30.2978   23.7712 H   0  0  0  0  0  0
  -15.8702  -28.0837   22.7075 H   0  0  0  0  0  0
  -24.5863  -30.7233   25.7740 H   0  0  0  0  0  0
  -24.9047  -32.3002   26.4869 H   0  0  0  0  0  0
  -25.8017  -30.8917   27.0194 H   0  0  0  0  0  0
  -26.3111  -29.6599   24.1423 H   0  0  0  0  0  0
  -27.3967  -29.7290   25.5097 H   0  0  0  0  0  0
  -27.9079  -30.4085   23.9859 H   0  0  0  0  0  0
  -27.2594  -33.3647   26.2100 H   0  0  0  0  0  0
  -28.3877  -32.7009   25.0369 H   0  0  0  0  0  0
  -28.0773  -31.8538   26.5445 H   0  0  0  0  0  0
  -28.2566  -38.0084   24.7515 H   0  0  0  0  0  0
  -28.1105  -36.2613   24.6261 H   0  0  0  0  0  0
  -27.2305  -37.1386   25.8856 H   0  0  0  0  0  0
  -20.9526  -29.8795   21.6736 H   0  0  0  0  0  0
  -26.0129  -38.2768   24.1435 H   0  0  0  0  0  0
  -29.2177  -24.2222   22.7523 H   0  0  0  0  0  0
  -30.8796  -23.9557   22.2383 H   0  0  0  0  0  0
  -30.1254  -22.8577   23.3856 H   0  0  0  0  0  0
  -27.1373  -22.3313   18.0745 H   0  0  0  0  0  0
  -27.1419  -20.6154   18.4565 H   0  0  0  0  0  0
  -28.4686  -21.3167   17.5274 H   0  0  0  0  0  0
  -26.8876  -24.3982   20.2715 H   0  0  0  0  0  0
  -27.7745  -24.5566   18.8028 H   0  0  0  0  0  0
  -28.1343  -18.8070   20.7502 H   0  0  0  0  0  0
  -28.6876  -18.8956   19.1308 H   0  0  0  0  0  0
  -30.6008  -18.0032   21.4176 H   0  0  0  0  0  0
  -30.9253  -17.8970   19.7290 H   0  0  0  0  0  0
  -28.7878  -16.0360   20.6126 H   0  0  0  0  0  0
  1 25  1  0  0  0
  1 30  2  0  0  0
  1 81  1  0  0  0
  2  3  1  0  0  0
  2 25  1  0  0  0
  2 82  1  0  0  0
  2 83  1  0  0  0
  3  4  1  0  0  0
  3 84  1  0  0  0
  3 85  1  0  0  0
  4  5  1  0  0  0
  4 86  1  0  0  0
  4 87  1  0  0  0
  5  6  1  0  0  0
  5 26  1  0  0  0
  5 88  1  0  0  0
  6 25  1  0  0  0
  6 89  1  0  0  0
  6 90  1  0  0  0
  7  8  2  0  0  0
  7 26  1  0  0  0
  7 29  1  0  0  0
  8  9  1  0  0  0
  8 22  1  0  0  0
  9 10  1  0  0  0
  9 27  2  0  0  0
 10 11  2  0  0  0
 10 15  1  0  0  0
 11 12  1  0  0  0
 11 91  1  0  0  0
 12 13  2  0  0  0
 12 92  1  0  0  0
 13 14  1  0  0  0
 13 31  1  0  0  0
 14 15  2  0  0  0
 14 93  1  0  0  0
 15 94  1  0  0  0
 16 17  2  0  0  0
 16 21  1  0  0  0
 16 31  1  0  0  0
 17 18  1  0  0  0
 17 95  1  0  0  0
 18 19  2  0  0  0
 18 96  1  0  0  0
 19 20  1  0  0  0
 19 24  1  0  0  0
 20 21  2  0  0  0
 20 97  1  0  0  0
 21 23  1  0  0  0
 22 28  1  0  0  0
 22 32  2  0  0  0
 26 27  1  0  0  0
 28 98  1  0  0  0
 28 99  1  0  0  0
 29100  1  0  0  0
 29101  1  0  0  0
 33 34  1  0  0  0
 33 66  1  0  0  0
 33 70  2  0  0  0
 34 36  1  0  0  0
 34 59  1  0  0  0
 34102  1  0  0  0
 35 44  2  0  0  0
 35 45  1  0  0  0
 35 68  1  0  0  0
 36 56  1  0  0  0
 36103  1  0  0  0
 37 39  1  0  0  0
 37 47  1  0  0  0
 37 66  1  0  0  0
 37104  1  0  0  0
 38 43  2  0  0  0
 38 46  1  0  0  0
 38 47  1  0  0  0
 39 64  1  0  0  0
 39 67  2  0  0  0
 40 52  1  0  0  0
 40 53  2  0  0  0
 40 58  1  0  0  0
 41105  1  0  0  0
 41106  1  0  0  0
 41107  1  0  0  0
 41 48  1  0  0  0
 42 43  1  0  0  0
 42 66  1  0  0  0
 42108  1  0  0  0
 42109  1  0  0  0
 43 44  1  0  0  0
 44110  1  0  0  0
 45 46  2  0  0  0
 45111  1  0  0  0
 46112  1  0  0  0
 47113  1  0  0  0
 47114  1  0  0  0
 48 56  1  0  0  0
 48 65  1  0  0  0
 48115  1  0  0  0
 49 50  1  0  0  0
 49 53  1  0  0  0
 49 64  1  0  0  0
 49116  1  0  0  0
 50 51  1  0  0  0
 50117  1  0  0  0
 50118  1  0  0  0
 51 52  1  0  0  0
 51119  1  0  0  0
 51120  1  0  0  0
 52121  1  0  0  0
 52122  1  0  0  0
 53 54  1  0  0  0
 54 55  2  0  0  0
 54123  1  0  0  0
 55 57  1  0  0  0
 55124  1  0  0  0
 56 69  2  0  0  0
 57 58  2  0  0  0
 57125  1  0  0  0
 58126  1  0  0  0
 59 60  1  0  0  0
 59 61  1  0  0  0
 59 62  1  0  0  0
 60127  1  0  0  0
 60128  1  0  0  0
 60129  1  0  0  0
 61130  1  0  0  0
 61131  1  0  0  0
 61132  1  0  0  0
 62133  1  0  0  0
 62134  1  0  0  0
 62135  1  0  0  0
 63 65  1  0  0  0
 63136  1  0  0  0
 63137  1  0  0  0
 63138  1  0  0  0
 64139  1  0  0  0
 65140  1  0  0  0
 68 76  1  0  0  0
 71 72  1  0  0  0
 71 73  2  0  0  0
 71 76  1  0  0  0
 72 74  1  0  0  0
 72 79  2  0  0  0
 73 75  1  0  0  0
 73 80  1  0  0  0
 74141  1  0  0  0
 74142  1  0  0  0
 74143  1  0  0  0
 75144  1  0  0  0
 75145  1  0  0  0
 75146  1  0  0  0
 76147  1  0  0  0
 76148  1  0  0  0
 77 78  1  0  0  0
 77 80  1  0  0  0
 77149  1  0  0  0
 77150  1  0  0  0
 78 81  1  0  0  0
 78151  1  0  0  0
 78152  1  0  0  0
 79 80  1  0  0  0
 81153  1  0  0  0
M  ISO  4   1 100  68 101  76 101  81 100
M  END
> <chiral flag>
0

> <version>
0

> <s_m_source_file>
/data/baiqing/PycharmProjects/Reinvent-master-3.2/result/LINK_invent/BTK/process_docking_weight1_custom_sum_contain_oxygen_bond_distance_aromatic_linkinvent_7_9_3/rearranged_h_0046.sdf

> <i_m_source_file_index>
83

> <r_mmod_Potential_Energy-OPLS-2005>
583.019470214844

> <r_mmod_Stretch_Energy-OPLS-2005>
311.213958740234

> <r_mmod_Bend_Energy-OPLS-2005>
298.314636230469

> <r_mmod_Torsional_Energy-OPLS-2005>
222.145904541016

> <r_mmod_Improper_Torsional_Energy-OPLS-2005>
6.90367603302002

> <r_mmod_Van_der_Waal_Energy-OPLS-2005>
109.924163818359

> <r_mmod_Electrostatic_Energy-OPLS-2005>
-388.024719238281

> <r_mmod_Solvation_Energy-OPLS-2005>
-233.197463989258

> <b_mmod_Minimization_Converged-OPLS-2005>
0

> <r_mmod_RMS_Derivative-OPLS-2005>
3.44822072982788

$$$$
84
                    3D
 Structure written by MMmdl.
174182  0  0  1  0            999 V2000
  -30.8975  -14.2920   20.7714 C   0  0  0  0  0  0
  -30.3965  -12.2724   19.4191 C   0  0  0  0  0  0
  -29.4940  -12.5533   18.2090 C   0  0  0  0  0  0
  -28.0245  -12.3546   18.6025 C   0  0  0  0  0  0
  -27.6642  -13.1998   19.8476 C   0  0  2  0  0  0
  -28.6921  -13.0255   20.9861 C   0  0  0  0  0  0
  -25.2662  -13.8135   20.5723 C   0  0  0  0  0  0
  -24.1876  -13.0383   20.9157 C   0  0  0  0  0  0
  -24.6421  -11.6854   20.8616 C   0  0  0  0  0  0
  -23.9061  -10.4244   21.0318 C   0  0  0  0  0  0
  -24.3618   -9.4164   21.9128 C   0  0  0  0  0  0
  -23.6293   -8.2178   22.0720 C   0  0  0  0  0  0
  -22.4250   -8.0272   21.3511 C   0  0  0  0  0  0
  -21.9875   -9.0212   20.4576 C   0  0  0  0  0  0
  -22.7193  -10.2086   20.2992 C   0  0  0  0  0  0
  -21.6843   -6.0749   22.5283 C   0  0  0  0  0  0
  -21.3999   -6.5673   23.8216 C   0  0  0  0  0  0
  -21.3660   -5.6819   24.9180 C   0  0  0  0  0  0
  -21.6050   -4.3084   24.7202 C   0  0  0  0  0  0
  -21.8804   -3.8175   23.4322 C   0  0  0  0  0  0
  -21.9157   -4.6989   22.3384 C   0  0  0  0  0  0
  -22.7888  -13.5174   21.1789 C   0  0  0  0  0  0
  -22.1638   -4.2198   21.0951 F   0  0  0  0  0  0
  -21.5620   -3.4566   25.7705 F   0  0  0  0  0  0
  -30.0622  -13.2444   20.4841 N   0  0  0  0  0  0
  -26.3060  -12.9265   20.3181 N   0  0  0  0  0  0
  -25.9338  -11.6436   20.5588 N   0  0  0  0  0  0
  -22.0532  -12.8156   22.0358 N   0  0  0  0  0  0
  -25.4409  -15.1828   20.4283 N   0  0  0  0  0  0
  -31.8761  -14.4925   20.0411 O   0  0  0  0  0  0
  -21.6598   -6.8874   21.4229 O   0  0  0  0  0  0
  -22.3547  -14.5454   20.6656 O   0  0  0  0  0  0
  -24.6067  -31.8812   23.2258 C   0  0  0  0  0  0
  -25.9009  -32.4880   23.8482 C   0  0  1  0  0  0
  -27.2099  -27.4678   20.0781 C   0  0  0  0  0  0
  -25.5925  -33.8697   24.2475 N   0  0  0  0  0  0
  -23.3888  -30.5104   21.5680 C   0  0  2  0  0  0
  -24.8256  -28.9794   20.1368 C   0  0  0  0  0  0
  -22.7377  -29.4793   22.5139 C   0  0  0  0  0  0
  -18.0290  -28.1410   22.8510 C   0  0  0  0  0  0
  -24.1495  -36.7350   23.2646 C   0  0  0  0  0  0
  -25.9176  -30.8524   21.3770 C   0  0  0  0  0  0
  -25.9880  -29.4833   20.7309 C   0  0  0  0  0  0
  -27.1816  -28.7273   20.7177 C   0  0  0  0  0  0
  -26.0358  -27.0074   19.4397 C   0  0  0  0  0  0
  -24.8392  -27.7347   19.5003 C   0  0  0  0  0  0
  -23.5900  -29.8452   20.1850 C   0  0  0  0  0  0
  -25.4102  -36.3191   24.0367 C   0  0  1  0  0  0
  -20.5882  -28.3733   23.1405 C   0  0  2  0  0  0
  -20.6844  -26.9495   22.5473 C   0  0  0  0  0  0
  -19.5825  -26.6430   21.5284 C   0  0  0  0  0  0
  -18.1970  -26.7958   22.1646 C   0  0  0  0  0  0
  -19.1528  -28.8872   23.2949 C   0  0  0  0  0  0
  -18.9444  -30.1502   23.8919 C   0  0  0  0  0  0
  -17.6438  -30.6608   24.0587 C   0  0  0  0  0  0
  -25.9001  -34.9522   23.5225 C   0  0  0  0  0  0
  -16.5342  -29.9088   23.6339 C   0  0  0  0  0  0
  -16.7273  -28.6530   23.0300 C   0  0  0  0  0  0
  -26.4481  -31.6523   25.0676 C   0  0  0  0  0  0
  -25.3761  -31.3483   26.1432 C   0  0  0  0  0  0
  -27.0335  -30.3063   24.5873 C   0  0  0  0  0  0
  -27.6229  -32.4065   25.7346 C   0  0  0  0  0  0
  -27.5607  -37.1830   24.8457 C   0  0  0  0  0  0
  -21.4127  -29.3100   22.3798 N   0  0  0  0  0  0
  -26.4351  -37.3837   23.9383 N   0  0  0  0  0  0
  -24.6563  -31.0913   22.1163 N   0  0  0  0  0  0
  -23.4183  -28.8378   23.3187 O   0  0  0  0  0  0
  -28.3870  -26.7635   19.9843 O   0  0  0  0  0  0
  -26.5550  -34.8961   22.4762 O   0  0  0  0  0  0
  -23.5267  -32.1645   23.7646 O   0  0  0  0  0  0
  -28.8784  -16.9535   22.6753 C   0  0  0  0  0  0
  -28.9267  -17.9041   20.1053 C   0  0  0  0  0  0
  -28.2847  -18.2018   22.4240 C   0  0  0  0  0  0
  -28.3589  -18.7237   21.0995 C   0  0  0  0  0  0
  -29.5883  -16.2898   21.6537 C   0  0  0  0  0  0
  -27.6707  -18.9273   23.6128 C   0  0  0  0  0  0
  -31.9104  -17.4870   22.9525 C   0  0  0  0  0  0
  -33.1632  -15.3197   23.0581 C   0  0  0  0  0  0
  -30.4395  -14.4794   23.3221 C   0  0  0  0  0  0
  -28.0682  -20.1683   20.7075 C   0  0  0  0  0  0
  -27.7122  -23.0167   20.6243 C   0  0  0  0  0  0
  -27.3441  -24.4655   20.3193 C   0  0  0  0  0  0
  -26.4678  -22.0919   20.6607 C   0  0  0  0  0  0
  -28.4786  -25.4716   20.6038 C   0  0  0  0  0  0
  -32.0648  -16.0966   22.2783 C   0  0  0  0  0  0
  -30.7108  -15.2713   22.0004 C   0  0  1  0  0  0
  -29.5406  -16.7408   20.3762 N   0  0  0  0  0  0
  -26.7411  -20.7017   21.0791 N   0  3  0  0  0  0
  -31.4480  -12.3056   19.1264 H   0  0  0  0  0  0
  -30.2316  -11.2544   19.7798 H   0  0  0  0  0  0
  -29.7559  -11.9035   17.3738 H   0  0  0  0  0  0
  -29.6543  -13.5755   17.8601 H   0  0  0  0  0  0
  -27.8601  -11.2951   18.8104 H   0  0  0  0  0  0
  -27.3730  -12.6053   17.7596 H   0  0  0  0  0  0
  -27.6959  -14.2408   19.5292 H   0  0  0  0  0  0
  -28.6145  -12.0373   21.4460 H   0  0  0  0  0  0
  -28.4081  -13.7424   21.7437 H   0  0  0  0  0  0
  -25.2735   -9.5659   22.4756 H   0  0  0  0  0  0
  -23.9978   -7.4585   22.7484 H   0  0  0  0  0  0
  -21.0799   -8.8728   19.8919 H   0  0  0  0  0  0
  -22.3619  -10.9641   19.6170 H   0  0  0  0  0  0
  -21.2017   -7.6194   23.9760 H   0  0  0  0  0  0
  -21.1508   -6.0537   25.9097 H   0  0  0  0  0  0
  -22.0567   -2.7644   23.2786 H   0  0  0  0  0  0
  -22.4154  -11.9856   22.4804 H   0  0  0  0  0  0
  -21.1200  -13.1281   22.2553 H   0  0  0  0  0  0
  -24.6992  -15.8539   20.6064 H   0  0  0  0  0  0
  -26.3227  -15.6143   20.1807 H   0  0  0  0  0  0
  -26.7108  -32.5621   23.1268 H   0  0  0  0  0  0
  -25.0025  -33.9753   25.0586 H   0  0  0  0  0  0
  -22.6767  -31.3297   21.4411 H   0  0  0  0  0  0
  -23.3762  -35.9652   23.3314 H   0  0  0  0  0  0
  -24.3694  -36.8900   22.2087 H   0  0  0  0  0  0
  -23.7236  -37.6556   23.6601 H   0  0  0  0  0  0
  -26.0149  -31.6183   20.6056 H   0  0  0  0  0  0
  -26.8159  -30.9178   21.9797 H   0  0  0  0  0  0
  -28.0749  -29.1091   21.1908 H   0  0  0  0  0  0
  -26.0113  -26.1125   18.8476 H   0  0  0  0  0  0
  -23.9440  -27.3502   19.0329 H   0  0  0  0  0  0
  -23.7019  -30.6233   19.4299 H   0  0  0  0  0  0
  -22.7097  -29.2708   19.8902 H   0  0  0  0  0  0
  -25.1265  -36.2135   25.0854 H   0  0  0  0  0  0
  -20.9952  -28.3311   24.1541 H   0  0  0  0  0  0
  -20.5930  -26.2311   23.3630 H   0  0  0  0  0  0
  -21.6683  -26.7655   22.1156 H   0  0  0  0  0  0
  -19.7044  -25.6354   21.1283 H   0  0  0  0  0  0
  -19.6768  -27.3251   20.6821 H   0  0  0  0  0  0
  -17.4271  -26.6728   21.4012 H   0  0  0  0  0  0
  -18.0372  -26.0094   22.9033 H   0  0  0  0  0  0
  -19.7887  -30.7374   24.2269 H   0  0  0  0  0  0
  -17.4934  -31.6267   24.5243 H   0  0  0  0  0  0
  -15.5329  -30.2953   23.7694 H   0  0  0  0  0  0
  -15.8672  -28.0879   22.6936 H   0  0  0  0  0  0
  -25.8170  -30.8447   27.0035 H   0  0  0  0  0  0
  -24.8873  -32.2566   26.4962 H   0  0  0  0  0  0
  -24.6016  -30.6763   25.7690 H   0  0  0  0  0  0
  -26.3070  -29.7002   24.0438 H   0  0  0  0  0  0
  -27.3701  -29.6997   25.4259 H   0  0  0  0  0  0
  -27.9047  -30.4485   23.9460 H   0  0  0  0  0  0
  -27.3192  -33.3370   26.2062 H   0  0  0  0  0  0
  -28.3916  -32.6484   25.0008 H   0  0  0  0  0  0
  -28.0899  -31.7981   26.5106 H   0  0  0  0  0  0
  -28.2639  -38.0108   24.7476 H   0  0  0  0  0  0
  -28.1106  -36.2665   24.6340 H   0  0  0  0  0  0
  -27.2305  -37.1498   25.8844 H   0  0  0  0  0  0
  -20.9346  -29.8677   21.6870 H   0  0  0  0  0  0
  -26.0276  -38.2920   24.1317 H   0  0  0  0  0  0
  -28.9378  -16.6086   23.6953 H   0  0  0  0  0  0
  -29.0045  -18.2390   19.0807 H   0  0  0  0  0  0
  -28.4349  -19.1849   24.3481 H   0  0  0  0  0  0
  -26.9499  -18.2606   24.0954 H   0  0  0  0  0  0
  -27.1253  -19.8307   23.3781 H   0  0  0  0  0  0
  -32.8835  -17.9724   23.0831 H   0  0  0  0  0  0
  -31.4584  -17.4080   23.9424 H   0  0  0  0  0  0
  -31.3104  -18.1802   22.3620 H   0  0  0  0  0  0
  -34.0999  -15.8784   23.0674 H   0  0  0  0  0  0
  -33.3708  -14.3413   22.6240 H   0  0  0  0  0  0
  -32.9031  -15.1703   24.1090 H   0  0  0  0  0  0
  -29.4465  -14.0699   23.4416 H   0  0  0  0  0  0
  -30.5840  -15.0967   24.2103 H   0  0  0  0  0  0
  -31.1313  -13.6417   23.4198 H   0  0  0  0  0  0
  -28.1589  -20.2861   19.6242 H   0  0  0  0  0  0
  -28.8767  -20.7533   21.1604 H   0  0  0  0  0  0
  -28.3902  -22.6917   19.8316 H   0  0  0  0  0  0
  -28.2596  -22.9829   21.5668 H   0  0  0  0  0  0
  -26.4661  -24.7523   20.8981 H   0  0  0  0  0  0
  -27.0803  -24.4734   19.2654 H   0  0  0  0  0  0
  -26.0079  -22.0572   19.6719 H   0  0  0  0  0  0
  -25.7104  -22.5041   21.3298 H   0  0  0  0  0  0
  -29.4083  -25.0356   20.2347 H   0  0  0  0  0  0
  -28.6087  -25.5877   21.6791 H   0  0  0  0  0  0
  -32.5019  -16.3669   21.3141 H   0  0  0  0  0  0
  -26.0217  -20.1295   20.6737 H   0  0  0  0  0  0
  -26.6490  -20.6518   22.0785 H   0  0  0  0  0  0
  1 25  1  0  0  0
  1 30  2  0  0  0
  1 86  1  0  0  0
  2  3  1  0  0  0
  2 25  1  0  0  0
  2 89  1  0  0  0
  2 90  1  0  0  0
  3  4  1  0  0  0
  3 91  1  0  0  0
  3 92  1  0  0  0
  4  5  1  0  0  0
  4 93  1  0  0  0
  4 94  1  0  0  0
  5  6  1  0  0  0
  5 26  1  0  0  0
  5 95  1  0  0  0
  6 25  1  0  0  0
  6 96  1  0  0  0
  6 97  1  0  0  0
  7  8  2  0  0  0
  7 26  1  0  0  0
  7 29  1  0  0  0
  8  9  1  0  0  0
  8 22  1  0  0  0
  9 10  1  0  0  0
  9 27  2  0  0  0
 10 11  2  0  0  0
 10 15  1  0  0  0
 11 12  1  0  0  0
 11 98  1  0  0  0
 12 13  2  0  0  0
 12 99  1  0  0  0
 13 14  1  0  0  0
 13 31  1  0  0  0
 14 15  2  0  0  0
 14100  1  0  0  0
 15101  1  0  0  0
 16 17  2  0  0  0
 16 21  1  0  0  0
 16 31  1  0  0  0
 17 18  1  0  0  0
 17102  1  0  0  0
 18 19  2  0  0  0
 18103  1  0  0  0
 19 20  1  0  0  0
 19 24  1  0  0  0
 20 21  2  0  0  0
 20104  1  0  0  0
 21 23  1  0  0  0
 22 28  1  0  0  0
 22 32  2  0  0  0
 26 27  1  0  0  0
 28105  1  0  0  0
 28106  1  0  0  0
 29107  1  0  0  0
 29108  1  0  0  0
 33 34  1  0  0  0
 33 66  1  0  0  0
 33 70  2  0  0  0
 34 36  1  0  0  0
 34 59  1  0  0  0
 34109  1  0  0  0
 35 44  2  0  0  0
 35 45  1  0  0  0
 35 68  1  0  0  0
 36 56  1  0  0  0
 36110  1  0  0  0
 37 39  1  0  0  0
 37 47  1  0  0  0
 37 66  1  0  0  0
 37111  1  0  0  0
 38 43  2  0  0  0
 38 46  1  0  0  0
 38 47  1  0  0  0
 39 64  1  0  0  0
 39 67  2  0  0  0
 40 52  1  0  0  0
 40 53  2  0  0  0
 40 58  1  0  0  0
 41112  1  0  0  0
 41113  1  0  0  0
 41114  1  0  0  0
 41 48  1  0  0  0
 42 43  1  0  0  0
 42 66  1  0  0  0
 42115  1  0  0  0
 42116  1  0  0  0
 43 44  1  0  0  0
 44117  1  0  0  0
 45 46  2  0  0  0
 45118  1  0  0  0
 46119  1  0  0  0
 47120  1  0  0  0
 47121  1  0  0  0
 48 56  1  0  0  0
 48 65  1  0  0  0
 48122  1  0  0  0
 49 50  1  0  0  0
 49 53  1  0  0  0
 49 64  1  0  0  0
 49123  1  0  0  0
 50 51  1  0  0  0
 50124  1  0  0  0
 50125  1  0  0  0
 51 52  1  0  0  0
 51126  1  0  0  0
 51127  1  0  0  0
 52128  1  0  0  0
 52129  1  0  0  0
 53 54  1  0  0  0
 54 55  2  0  0  0
 54130  1  0  0  0
 55 57  1  0  0  0
 55131  1  0  0  0
 56 69  2  0  0  0
 57 58  2  0  0  0
 57132  1  0  0  0
 58133  1  0  0  0
 59 60  1  0  0  0
 59 61  1  0  0  0
 59 62  1  0  0  0
 60134  1  0  0  0
 60135  1  0  0  0
 60136  1  0  0  0
 61137  1  0  0  0
 61138  1  0  0  0
 61139  1  0  0  0
 62140  1  0  0  0
 62141  1  0  0  0
 62142  1  0  0  0
 63 65  1  0  0  0
 63143  1  0  0  0
 63144  1  0  0  0
 63145  1  0  0  0
 64146  1  0  0  0
 65147  1  0  0  0
 68 84  1  0  0  0
 71 73  2  0  0  0
 71 75  1  0  0  0
 71148  1  0  0  0
 72 74  2  0  0  0
 72 87  1  0  0  0
 72149  1  0  0  0
 73 74  1  0  0  0
 73 76  1  0  0  0
 74 80  1  0  0  0
 75 86  1  0  0  0
 75 87  2  0  0  0
 76150  1  0  0  0
 76151  1  0  0  0
 76152  1  0  0  0
 77153  1  0  0  0
 77154  1  0  0  0
 77155  1  0  0  0
 77 85  1  0  0  0
 78 85  1  0  0  0
 78156  1  0  0  0
 78157  1  0  0  0
 78158  1  0  0  0
 79159  1  0  0  0
 79160  1  0  0  0
 79161  1  0  0  0
 79 86  1  0  0  0
 80 88  1  0  0  0
 80162  1  0  0  0
 80163  1  0  0  0
 81 82  1  0  0  0
 81 83  1  0  0  0
 81164  1  0  0  0
 81165  1  0  0  0
 82 84  1  0  0  0
 82166  1  0  0  0
 82167  1  0  0  0
 83 88  1  0  0  0
 83168  1  0  0  0
 83169  1  0  0  0
 84170  1  0  0  0
 84171  1  0  0  0
 85 86  1  0  0  0
 85172  1  0  0  0
 88173  1  0  0  0
 88174  1  0  0  0
M  CHG  1  88   1
M  ISO  4   1 100  68 101  84 101  86 100
M  END
> <chiral flag>
0

> <version>
0

> <s_m_source_file>
/data/baiqing/PycharmProjects/Reinvent-master-3.2/result/LINK_invent/BTK/process_docking_weight1_custom_sum_contain_oxygen_bond_distance_aromatic_linkinvent_7_9_3/rearranged_h_0046.sdf

> <i_m_source_file_index>
84

> <r_mmod_Potential_Energy-OPLS-2005>
-21.9312705993652

> <r_mmod_Stretch_Energy-OPLS-2005>
53.4314193725586

> <r_mmod_Bend_Energy-OPLS-2005>
137.261138916016

> <r_mmod_Torsional_Energy-OPLS-2005>
225.084808349609

> <r_mmod_Improper_Torsional_Energy-OPLS-2005>
5.72003030776978

> <r_mmod_Van_der_Waal_Energy-OPLS-2005>
190.821365356445

> <r_mmod_Electrostatic_Energy-OPLS-2005>
-193.260772705078

> <r_mmod_Solvation_Energy-OPLS-2005>
-458.327880859375

> <b_mmod_Minimization_Converged-OPLS-2005>
0

> <r_mmod_RMS_Derivative-OPLS-2005>
9.60127925872803

$$$$
85
                    3D
 Structure written by MMmdl.
170178  0  0  1  0            999 V2000
  -30.7407  -14.3928   20.6383 C   0  0  0  0  0  0
  -30.4174  -12.2868   19.3983 C   0  0  0  0  0  0
  -29.4840  -12.5132   18.1932 C   0  0  0  0  0  0
  -28.0071  -12.3772   18.6103 C   0  0  0  0  0  0
  -27.6646  -13.2020   19.8791 C   0  0  2  0  0  0
  -28.7042  -12.9454   20.9922 C   0  0  0  0  0  0
  -25.2601  -13.8158   20.5685 C   0  0  0  0  0  0
  -24.1845  -13.0443   20.9175 C   0  0  0  0  0  0
  -24.6387  -11.6907   20.8733 C   0  0  0  0  0  0
  -23.9055  -10.4297   21.0407 C   0  0  0  0  0  0
  -24.3609   -9.4213   21.9182 C   0  0  0  0  0  0
  -23.6286   -8.2246   22.0754 C   0  0  0  0  0  0
  -22.4269   -8.0281   21.3546 C   0  0  0  0  0  0
  -21.9905   -9.0256   20.4646 C   0  0  0  0  0  0
  -22.7229  -10.2135   20.3054 C   0  0  0  0  0  0
  -21.6850   -6.0736   22.5278 C   0  0  0  0  0  0
  -21.4014   -6.5643   23.8212 C   0  0  0  0  0  0
  -21.3658   -5.6795   24.9177 C   0  0  0  0  0  0
  -21.6044   -4.3058   24.7231 C   0  0  0  0  0  0
  -21.8819   -3.8147   23.4350 C   0  0  0  0  0  0
  -21.9196   -4.6962   22.3403 C   0  0  0  0  0  0
  -22.7870  -13.5242   21.1838 C   0  0  0  0  0  0
  -22.1663   -4.2148   21.0980 F   0  0  0  0  0  0
  -21.5629   -3.4540   25.7744 F   0  0  0  0  0  0
  -30.0410  -13.2452   20.4471 N   0  0  0  0  0  0
  -26.3036  -12.9320   20.3384 N   0  0  0  0  0  0
  -25.9309  -11.6483   20.5764 N   0  0  0  0  0  0
  -22.0508  -12.8238   22.0392 N   0  0  0  0  0  0
  -25.4343  -15.1871   20.4084 N   0  0  0  0  0  0
  -31.8259  -14.6218   20.0967 O   0  0  0  0  0  0
  -21.6636   -6.8876   21.4240 O   0  0  0  0  0  0
  -22.3565  -14.5556   20.6690 O   0  0  0  0  0  0
  -24.6100  -31.8715   23.2129 C   0  0  0  0  0  0
  -25.9017  -32.4840   23.8408 C   0  0  1  0  0  0
  -27.2407  -27.4796   20.0886 C   0  0  0  0  0  0
  -25.5892  -33.8637   24.2342 N   0  0  0  0  0  0
  -23.3962  -30.4936   21.5523 C   0  0  2  0  0  0
  -24.8458  -28.9624   20.1164 C   0  0  0  0  0  0
  -22.7378  -29.4673   22.5012 C   0  0  0  0  0  0
  -18.0267  -28.1358   22.8500 C   0  0  0  0  0  0
  -24.1488  -36.7327   23.2638 C   0  0  0  0  0  0
  -25.9200  -30.8479   21.3623 C   0  0  0  0  0  0
  -26.0006  -29.4833   20.7156 C   0  0  0  0  0  0
  -27.2011  -28.7448   20.7093 C   0  0  0  0  0  0
  -26.0801  -26.9664   19.4780 C   0  0  0  0  0  0
  -24.8772  -27.6985   19.4993 C   0  0  0  0  0  0
  -23.6032  -29.8228   20.1675 C   0  0  0  0  0  0
  -25.4108  -36.3123   24.0335 C   0  0  1  0  0  0
  -20.5857  -28.3650   23.1326 C   0  0  2  0  0  0
  -20.6763  -26.9392   22.5418 C   0  0  0  0  0  0
  -19.5747  -26.6384   21.5206 C   0  0  0  0  0  0
  -18.1918  -26.7912   22.1616 C   0  0  0  0  0  0
  -19.1516  -28.8816   23.2910 C   0  0  0  0  0  0
  -18.9451  -30.1418   23.8928 C   0  0  0  0  0  0
  -17.6459  -30.6581   24.0561 C   0  0  0  0  0  0
  -25.9036  -34.9484   23.5136 C   0  0  0  0  0  0
  -16.5348  -29.9084   23.6319 C   0  0  0  0  0  0
  -16.7260  -28.6490   23.0361 C   0  0  0  0  0  0
  -26.4463  -31.6601   25.0718 C   0  0  0  0  0  0
  -25.3738  -31.3675   26.1469 C   0  0  0  0  0  0
  -27.0301  -30.3058   24.6057 C   0  0  0  0  0  0
  -27.6045  -32.4308   25.7481 C   0  0  0  0  0  0
  -27.5579  -37.1815   24.8464 C   0  0  0  0  0  0
  -21.4113  -29.3028   22.3737 N   0  0  0  0  0  0
  -26.4299  -37.3799   23.9398 N   0  0  0  0  0  0
  -24.6595  -31.0841   22.1016 N   0  0  0  0  0  0
  -23.4158  -28.8218   23.3049 O   0  0  0  0  0  0
  -28.3987  -26.7470   20.0485 O   0  0  0  0  0  0
  -26.5595  -34.8934   22.4699 O   0  0  0  0  0  0
  -23.5304  -32.1461   23.7546 O   0  0  0  0  0  0
  -27.8673  -19.1008   21.8285 C   0  0  0  0  0  0
  -28.8475  -19.2982   20.8381 C   0  0  0  0  0  0
  -27.3379  -20.2140   22.5120 C   0  0  0  0  0  0
  -29.2634  -20.6209   20.5686 C   0  0  0  0  0  0
  -27.8353  -21.5005   22.1927 C   0  0  0  0  0  0
  -30.2924  -20.9547   19.5019 C   0  0  0  0  0  0
  -26.7363  -19.8031   24.9595 C   0  0  0  0  0  0
  -26.2220  -19.9958   23.5277 C   0  0  0  0  0  0
  -29.4043  -18.1020   20.0736 C   0  0  0  0  0  0
  -27.2961  -22.7642   22.8709 C   0  0  0  0  0  0
  -30.7619  -17.6166   20.6165 C   0  0  0  0  0  0
  -28.1524  -24.0453   22.7277 C   0  0  0  0  0  0
  -27.8845  -24.8103   21.4187 C   0  0  0  0  0  0
  -30.6819  -16.6153   21.7904 C   0  0  0  0  0  0
  -28.7192  -26.0943   21.2736 C   0  0  0  0  0  0
  -28.7657  -21.6826   21.2307 N   0  0  0  0  0  0
  -30.1437  -15.3039   21.4197 N   0  0  0  0  0  0
  -31.4603  -12.3872   19.0920 H   0  0  0  0  0  0
  -30.3169  -11.2664   19.7725 H   0  0  0  0  0  0
  -29.7131  -11.8015   17.3991 H   0  0  0  0  0  0
  -29.6559  -13.5054   17.7734 H   0  0  0  0  0  0
  -27.8100  -11.3198   18.7927 H   0  0  0  0  0  0
  -27.3555  -12.6684   17.7865 H   0  0  0  0  0  0
  -27.7226  -14.2556   19.6041 H   0  0  0  0  0  0
  -28.6701  -11.8996   21.3023 H   0  0  0  0  0  0
  -28.4616  -13.5151   21.8891 H   0  0  0  0  0  0
  -25.2749   -9.5694   22.4758 H   0  0  0  0  0  0
  -23.9996   -7.4643   22.7475 H   0  0  0  0  0  0
  -21.0837   -8.8771   19.8953 H   0  0  0  0  0  0
  -22.3683  -10.9675   19.6168 H   0  0  0  0  0  0
  -21.2001   -7.6151   23.9716 H   0  0  0  0  0  0
  -21.1481   -6.0527   25.9080 H   0  0  0  0  0  0
  -22.0599   -2.7611   23.2854 H   0  0  0  0  0  0
  -22.4117  -11.9892   22.4771 H   0  0  0  0  0  0
  -21.1127  -13.1274   22.2594 H   0  0  0  0  0  0
  -24.6689  -15.8444   20.5089 H   0  0  0  0  0  0
  -26.2886  -15.6204   20.0819 H   0  0  0  0  0  0
  -26.7091  -32.5582   23.1179 H   0  0  0  0  0  0
  -25.0034  -33.9803   25.0476 H   0  0  0  0  0  0
  -22.6854  -31.3109   21.4139 H   0  0  0  0  0  0
  -23.3745  -35.9668   23.3319 H   0  0  0  0  0  0
  -24.3584  -36.8922   22.2051 H   0  0  0  0  0  0
  -23.7247  -37.6537   23.6650 H   0  0  0  0  0  0
  -26.0239  -31.6130   20.5917 H   0  0  0  0  0  0
  -26.8110  -30.9057   21.9760 H   0  0  0  0  0  0
  -28.0943  -29.1437   21.1701 H   0  0  0  0  0  0
  -26.1097  -25.9998   18.9945 H   0  0  0  0  0  0
  -23.9919  -27.2905   19.0321 H   0  0  0  0  0  0
  -23.7057  -30.5982   19.4072 H   0  0  0  0  0  0
  -22.7290  -29.2376   19.8753 H   0  0  0  0  0  0
  -25.1278  -36.2000   25.0826 H   0  0  0  0  0  0
  -20.9944  -28.3230   24.1451 H   0  0  0  0  0  0
  -20.5659  -26.2261   23.3604 H   0  0  0  0  0  0
  -21.6629  -26.7442   22.1200 H   0  0  0  0  0  0
  -19.6914  -25.6296   21.1229 H   0  0  0  0  0  0
  -19.6689  -27.3205   20.6746 H   0  0  0  0  0  0
  -17.4185  -26.6668   21.4019 H   0  0  0  0  0  0
  -18.0309  -26.0033   22.8993 H   0  0  0  0  0  0
  -19.7933  -30.7200   24.2328 H   0  0  0  0  0  0
  -17.5034  -31.6272   24.5141 H   0  0  0  0  0  0
  -15.5352  -30.3003   23.7625 H   0  0  0  0  0  0
  -15.8659  -28.0813   22.7080 H   0  0  0  0  0  0
  -24.5939  -30.6989   25.7798 H   0  0  0  0  0  0
  -24.8890  -32.2810   26.4924 H   0  0  0  0  0  0
  -25.8106  -30.8853   27.0223 H   0  0  0  0  0  0
  -26.2836  -29.6810   24.1140 H   0  0  0  0  0  0
  -27.4121  -29.7296   25.4490 H   0  0  0  0  0  0
  -27.8642  -30.4390   23.9163 H   0  0  0  0  0  0
  -27.2678  -33.3600   26.2095 H   0  0  0  0  0  0
  -28.3848  -32.6875   25.0303 H   0  0  0  0  0  0
  -28.0729  -31.8408   26.5369 H   0  0  0  0  0  0
  -28.2600  -38.0110   24.7508 H   0  0  0  0  0  0
  -28.1072  -36.2637   24.6299 H   0  0  0  0  0  0
  -27.2300  -37.1473   25.8870 H   0  0  0  0  0  0
  -20.9268  -29.8766   21.6978 H   0  0  0  0  0  0
  -26.0199  -38.2881   24.1396 H   0  0  0  0  0  0
  -27.5130  -18.1040   22.0499 H   0  0  0  0  0  0
  -29.9095  -20.7139   18.5105 H   0  0  0  0  0  0
  -31.2160  -20.3986   19.6570 H   0  0  0  0  0  0
  -30.5461  -22.0158   19.5083 H   0  0  0  0  0  0
  -25.9021  -19.6407   25.6440 H   0  0  0  0  0  0
  -27.2844  -20.6750   25.3149 H   0  0  0  0  0  0
  -27.3971  -18.9389   25.0358 H   0  0  0  0  0  0
  -25.6471  -19.1160   23.2340 H   0  0  0  0  0  0
  -25.5129  -20.8236   23.4900 H   0  0  0  0  0  0
  -29.5138  -18.3811   19.0255 H   0  0  0  0  0  0
  -28.6799  -17.2862   20.0720 H   0  0  0  0  0  0
  -27.2176  -22.5523   23.9366 H   0  0  0  0  0  0
  -26.2777  -22.9485   22.5287 H   0  0  0  0  0  0
  -31.3686  -18.4719   20.9151 H   0  0  0  0  0  0
  -31.3156  -17.1580   19.7971 H   0  0  0  0  0  0
  -29.2122  -23.8189   22.8501 H   0  0  0  0  0  0
  -27.8956  -24.7117   23.5511 H   0  0  0  0  0  0
  -26.8234  -25.0561   21.3755 H   0  0  0  0  0  0
  -28.0813  -24.1677   20.5604 H   0  0  0  0  0  0
  -30.0677  -17.0325   22.5894 H   0  0  0  0  0  0
  -31.6775  -16.4748   22.2148 H   0  0  0  0  0  0
  -29.7807  -25.8450   21.2581 H   0  0  0  0  0  0
  -28.5698  -26.7574   22.1282 H   0  0  0  0  0  0
  -29.2586  -15.0352   21.8243 H   0  0  0  0  0  0
  1 25  1  0  0  0
  1 30  2  0  0  0
  1 87  1  0  0  0
  2  3  1  0  0  0
  2 25  1  0  0  0
  2 88  1  0  0  0
  2 89  1  0  0  0
  3  4  1  0  0  0
  3 90  1  0  0  0
  3 91  1  0  0  0
  4  5  1  0  0  0
  4 92  1  0  0  0
  4 93  1  0  0  0
  5  6  1  0  0  0
  5 26  1  0  0  0
  5 94  1  0  0  0
  6 25  1  0  0  0
  6 95  1  0  0  0
  6 96  1  0  0  0
  7  8  2  0  0  0
  7 26  1  0  0  0
  7 29  1  0  0  0
  8  9  1  0  0  0
  8 22  1  0  0  0
  9 10  1  0  0  0
  9 27  2  0  0  0
 10 11  2  0  0  0
 10 15  1  0  0  0
 11 12  1  0  0  0
 11 97  1  0  0  0
 12 13  2  0  0  0
 12 98  1  0  0  0
 13 14  1  0  0  0
 13 31  1  0  0  0
 14 15  2  0  0  0
 14 99  1  0  0  0
 15100  1  0  0  0
 16 17  2  0  0  0
 16 21  1  0  0  0
 16 31  1  0  0  0
 17 18  1  0  0  0
 17101  1  0  0  0
 18 19  2  0  0  0
 18102  1  0  0  0
 19 20  1  0  0  0
 19 24  1  0  0  0
 20 21  2  0  0  0
 20103  1  0  0  0
 21 23  1  0  0  0
 22 28  1  0  0  0
 22 32  2  0  0  0
 26 27  1  0  0  0
 28104  1  0  0  0
 28105  1  0  0  0
 29106  1  0  0  0
 29107  1  0  0  0
 33 34  1  0  0  0
 33 66  1  0  0  0
 33 70  2  0  0  0
 34 36  1  0  0  0
 34 59  1  0  0  0
 34108  1  0  0  0
 35 44  2  0  0  0
 35 45  1  0  0  0
 35 68  1  0  0  0
 36 56  1  0  0  0
 36109  1  0  0  0
 37 39  1  0  0  0
 37 47  1  0  0  0
 37 66  1  0  0  0
 37110  1  0  0  0
 38 43  2  0  0  0
 38 46  1  0  0  0
 38 47  1  0  0  0
 39 64  1  0  0  0
 39 67  2  0  0  0
 40 52  1  0  0  0
 40 53  2  0  0  0
 40 58  1  0  0  0
 41111  1  0  0  0
 41112  1  0  0  0
 41113  1  0  0  0
 41 48  1  0  0  0
 42 43  1  0  0  0
 42 66  1  0  0  0
 42114  1  0  0  0
 42115  1  0  0  0
 43 44  1  0  0  0
 44116  1  0  0  0
 45 46  2  0  0  0
 45117  1  0  0  0
 46118  1  0  0  0
 47119  1  0  0  0
 47120  1  0  0  0
 48 56  1  0  0  0
 48 65  1  0  0  0
 48121  1  0  0  0
 49 50  1  0  0  0
 49 53  1  0  0  0
 49 64  1  0  0  0
 49122  1  0  0  0
 50 51  1  0  0  0
 50123  1  0  0  0
 50124  1  0  0  0
 51 52  1  0  0  0
 51125  1  0  0  0
 51126  1  0  0  0
 52127  1  0  0  0
 52128  1  0  0  0
 53 54  1  0  0  0
 54 55  2  0  0  0
 54129  1  0  0  0
 55 57  1  0  0  0
 55130  1  0  0  0
 56 69  2  0  0  0
 57 58  2  0  0  0
 57131  1  0  0  0
 58132  1  0  0  0
 59 60  1  0  0  0
 59 61  1  0  0  0
 59 62  1  0  0  0
 60133  1  0  0  0
 60134  1  0  0  0
 60135  1  0  0  0
 61136  1  0  0  0
 61137  1  0  0  0
 61138  1  0  0  0
 62139  1  0  0  0
 62140  1  0  0  0
 62141  1  0  0  0
 63 65  1  0  0  0
 63142  1  0  0  0
 63143  1  0  0  0
 63144  1  0  0  0
 64145  1  0  0  0
 65146  1  0  0  0
 68 85  1  0  0  0
 71 72  2  0  0  0
 71 73  1  0  0  0
 71147  1  0  0  0
 72 74  1  0  0  0
 72 79  1  0  0  0
 73 75  2  0  0  0
 73 78  1  0  0  0
 74 76  1  0  0  0
 74 86  2  0  0  0
 75 80  1  0  0  0
 75 86  1  0  0  0
 76148  1  0  0  0
 76149  1  0  0  0
 76150  1  0  0  0
 77 78  1  0  0  0
 77151  1  0  0  0
 77152  1  0  0  0
 77153  1  0  0  0
 78154  1  0  0  0
 78155  1  0  0  0
 79 81  1  0  0  0
 79156  1  0  0  0
 79157  1  0  0  0
 80 82  1  0  0  0
 80158  1  0  0  0
 80159  1  0  0  0
 81 84  1  0  0  0
 81160  1  0  0  0
 81161  1  0  0  0
 82 83  1  0  0  0
 82162  1  0  0  0
 82163  1  0  0  0
 83 85  1  0  0  0
 83164  1  0  0  0
 83165  1  0  0  0
 84 87  1  0  0  0
 84166  1  0  0  0
 84167  1  0  0  0
 85168  1  0  0  0
 85169  1  0  0  0
 87170  1  0  0  0
M  ISO  4   1 100  68 101  85 101  87 100
M  END
> <chiral flag>
0

> <version>
0

> <s_m_source_file>
/data/baiqing/PycharmProjects/Reinvent-master-3.2/result/LINK_invent/BTK/process_docking_weight1_custom_sum_contain_oxygen_bond_distance_aromatic_linkinvent_7_9_3/rearranged_h_0046.sdf

> <i_m_source_file_index>
85

> <r_mmod_Potential_Energy-OPLS-2005>
-217.813690185547

> <r_mmod_Stretch_Energy-OPLS-2005>
32.4870948791504

> <r_mmod_Bend_Energy-OPLS-2005>
92.0624771118164

> <r_mmod_Torsional_Energy-OPLS-2005>
232.310668945312

> <r_mmod_Improper_Torsional_Energy-OPLS-2005>
2.18385624885559

> <r_mmod_Van_der_Waal_Energy-OPLS-2005>
150.990478515625

> <r_mmod_Electrostatic_Energy-OPLS-2005>
-520.216003417969

> <r_mmod_Solvation_Energy-OPLS-2005>
-214.507202148438

> <b_mmod_Minimization_Converged-OPLS-2005>
0

> <r_mmod_RMS_Derivative-OPLS-2005>
1.36006057262421

$$$$
86
                    3D
 Structure written by MMmdl.
169177  0  0  1  0            999 V2000
  -30.7398  -14.4004   20.6160 C   0  0  0  0  0  0
  -30.4162  -12.2824   19.4076 C   0  0  0  0  0  0
  -29.4851  -12.5145   18.1999 C   0  0  0  0  0  0
  -28.0091  -12.3784   18.6156 C   0  0  0  0  0  0
  -27.6665  -13.2059   19.8845 C   0  0  2  0  0  0
  -28.7065  -12.9599   21.0007 C   0  0  0  0  0  0
  -25.2604  -13.8172   20.5706 C   0  0  0  0  0  0
  -24.1838  -13.0445   20.9161 C   0  0  0  0  0  0
  -24.6410  -11.6907   20.8746 C   0  0  0  0  0  0
  -23.9089  -10.4289   21.0403 C   0  0  0  0  0  0
  -24.3642   -9.4202   21.9176 C   0  0  0  0  0  0
  -23.6292   -8.2252   22.0761 C   0  0  0  0  0  0
  -22.4278   -8.0287   21.3546 C   0  0  0  0  0  0
  -21.9905   -9.0258   20.4652 C   0  0  0  0  0  0
  -22.7258  -10.2128   20.3060 C   0  0  0  0  0  0
  -21.6850   -6.0733   22.5266 C   0  0  0  0  0  0
  -21.4015   -6.5631   23.8204 C   0  0  0  0  0  0
  -21.3670   -5.6795   24.9169 C   0  0  0  0  0  0
  -21.6041   -4.3052   24.7222 C   0  0  0  0  0  0
  -21.8826   -3.8149   23.4343 C   0  0  0  0  0  0
  -21.9200   -4.6959   22.3404 C   0  0  0  0  0  0
  -22.7874  -13.5227   21.1805 C   0  0  0  0  0  0
  -22.1664   -4.2139   21.0985 F   0  0  0  0  0  0
  -21.5645   -3.4544   25.7738 F   0  0  0  0  0  0
  -30.0435  -13.2472   20.4524 N   0  0  0  0  0  0
  -26.3052  -12.9348   20.3438 N   0  0  0  0  0  0
  -25.9328  -11.6509   20.5793 N   0  0  0  0  0  0
  -22.0538  -12.8226   22.0380 N   0  0  0  0  0  0
  -25.4371  -15.1877   20.4156 N   0  0  0  0  0  0
  -31.8309  -14.6141   20.0814 O   0  0  0  0  0  0
  -21.6649   -6.8870   21.4226 O   0  0  0  0  0  0
  -22.3538  -14.5526   20.6654 O   0  0  0  0  0  0
  -24.6102  -31.8697   23.2118 C   0  0  0  0  0  0
  -25.9016  -32.4835   23.8403 C   0  0  1  0  0  0
  -27.2474  -27.4822   20.0805 C   0  0  0  0  0  0
  -25.5894  -33.8637   24.2337 N   0  0  0  0  0  0
  -23.3968  -30.4907   21.5517 C   0  0  2  0  0  0
  -24.8450  -28.9510   20.1252 C   0  0  0  0  0  0
  -22.7380  -29.4665   22.5024 C   0  0  0  0  0  0
  -18.0260  -28.1381   22.8487 C   0  0  0  0  0  0
  -24.1486  -36.7320   23.2638 C   0  0  0  0  0  0
  -25.9197  -30.8458   21.3593 C   0  0  0  0  0  0
  -26.0009  -29.4802   20.7129 C   0  0  0  0  0  0
  -27.2066  -28.7514   20.6892 C   0  0  0  0  0  0
  -26.0779  -26.9424   19.5082 C   0  0  0  0  0  0
  -24.8741  -27.6763   19.5266 C   0  0  0  0  0  0
  -23.6042  -29.8142   20.1695 C   0  0  0  0  0  0
  -25.4110  -36.3126   24.0339 C   0  0  1  0  0  0
  -20.5838  -28.3656   23.1339 C   0  0  2  0  0  0
  -20.6754  -26.9400   22.5426 C   0  0  0  0  0  0
  -19.5737  -26.6386   21.5221 C   0  0  0  0  0  0
  -18.1910  -26.7926   22.1620 C   0  0  0  0  0  0
  -19.1508  -28.8834   23.2908 C   0  0  0  0  0  0
  -18.9447  -30.1439   23.8919 C   0  0  0  0  0  0
  -17.6456  -30.6586   24.0569 C   0  0  0  0  0  0
  -25.9035  -34.9487   23.5133 C   0  0  0  0  0  0
  -16.5344  -29.9098   23.6316 C   0  0  0  0  0  0
  -16.7258  -28.6515   23.0336 C   0  0  0  0  0  0
  -26.4472  -31.6600   25.0716 C   0  0  0  0  0  0
  -25.3761  -31.3692   26.1478 C   0  0  0  0  0  0
  -27.0296  -30.3049   24.6057 C   0  0  0  0  0  0
  -27.6045  -32.4320   25.7479 C   0  0  0  0  0  0
  -27.5580  -37.1818   24.8469 C   0  0  0  0  0  0
  -21.4111  -29.3040   22.3771 N   0  0  0  0  0  0
  -26.4300  -37.3801   23.9408 N   0  0  0  0  0  0
  -24.6599  -31.0824   22.1003 N   0  0  0  0  0  0
  -23.4164  -28.8207   23.3059 O   0  0  0  0  0  0
  -28.4410  -26.8183   19.9863 O   0  0  0  0  0  0
  -26.5588  -34.8941   22.4690 O   0  0  0  0  0  0
  -23.5308  -32.1441   23.7537 O   0  0  0  0  0  0
  -30.5845  -20.1460   20.1853 C   0  0  0  0  0  0
  -33.2735  -19.8524   19.9952 C   0  0  0  0  0  0
  -31.1900  -18.8603   20.1475 C   0  0  0  0  0  0
  -32.6760  -21.1383   20.0412 C   0  0  0  0  0  0
  -29.0812  -20.3497   20.2207 C   0  0  0  0  0  0
  -34.7720  -19.6440   19.8897 C   0  0  0  0  0  0
  -30.4065  -17.5537   20.1594 C   0  0  0  0  0  0
  -33.5256  -22.4131   20.0597 C   0  0  0  0  0  0
  -30.0220  -25.6948   21.3717 C   0  0  0  0  0  0
  -30.6097  -16.7323   21.4517 C   0  0  0  0  0  0
  -32.8229  -23.7108   19.6110 C   0  0  0  0  0  0
  -31.0982  -25.3860   20.3062 C   0  0  0  0  0  0
  -28.5832  -25.6882   20.8314 C   0  0  0  0  0  0
  -32.5328  -18.7228   20.0453 N   0  0  0  0  0  0
  -31.3300  -21.2776   20.1553 N   0  0  0  0  0  0
  -30.1164  -15.3581   21.3148 N   0  0  0  0  0  0
  -31.7236  -24.0682   20.5318 N   0  3  0  0  0  0
  -31.4590  -12.3794   19.1025 H   0  0  0  0  0  0
  -30.3205  -11.2652   19.7863 H   0  0  0  0  0  0
  -29.7175  -11.8110   17.3999 H   0  0  0  0  0  0
  -29.6501  -13.5126   17.7911 H   0  0  0  0  0  0
  -27.8104  -11.3203   18.7909 H   0  0  0  0  0  0
  -27.3626  -12.6786   17.7904 H   0  0  0  0  0  0
  -27.7197  -14.2579   19.6015 H   0  0  0  0  0  0
  -28.6726  -11.9228   21.3333 H   0  0  0  0  0  0
  -28.4689  -13.5470   21.8883 H   0  0  0  0  0  0
  -25.2799   -9.5660   22.4729 H   0  0  0  0  0  0
  -23.9994   -7.4653   22.7484 H   0  0  0  0  0  0
  -21.0839   -8.8790   19.8946 H   0  0  0  0  0  0
  -22.3737  -10.9664   19.6161 H   0  0  0  0  0  0
  -21.1999   -7.6139   23.9693 H   0  0  0  0  0  0
  -21.1482   -6.0535   25.9073 H   0  0  0  0  0  0
  -22.0601   -2.7608   23.2861 H   0  0  0  0  0  0
  -22.4206  -11.9858   22.4671 H   0  0  0  0  0  0
  -21.1171  -13.1233   22.2665 H   0  0  0  0  0  0
  -24.6740  -15.8491   20.5156 H   0  0  0  0  0  0
  -26.2980  -15.6187   20.1011 H   0  0  0  0  0  0
  -26.7091  -32.5567   23.1175 H   0  0  0  0  0  0
  -25.0071  -33.9808   25.0499 H   0  0  0  0  0  0
  -22.6848  -31.3063   21.4103 H   0  0  0  0  0  0
  -23.3748  -35.9654   23.3327 H   0  0  0  0  0  0
  -24.3572  -36.8907   22.2046 H   0  0  0  0  0  0
  -23.7245  -37.6540   23.6634 H   0  0  0  0  0  0
  -26.0255  -31.6098   20.5881 H   0  0  0  0  0  0
  -26.8097  -30.9032   21.9735 H   0  0  0  0  0  0
  -28.1074  -29.1632   21.1228 H   0  0  0  0  0  0
  -26.1068  -25.9730   19.0304 H   0  0  0  0  0  0
  -23.9836  -27.2601   19.0763 H   0  0  0  0  0  0
  -23.7130  -30.5862   19.4070 H   0  0  0  0  0  0
  -22.7294  -29.2309   19.8752 H   0  0  0  0  0  0
  -25.1284  -36.1994   25.0833 H   0  0  0  0  0  0
  -20.9921  -28.3223   24.1464 H   0  0  0  0  0  0
  -20.5670  -26.2268   23.3610 H   0  0  0  0  0  0
  -21.6628  -26.7462   22.1219 H   0  0  0  0  0  0
  -19.6908  -25.6303   21.1242 H   0  0  0  0  0  0
  -19.6682  -27.3201   20.6757 H   0  0  0  0  0  0
  -17.4183  -26.6674   21.4020 H   0  0  0  0  0  0
  -18.0309  -26.0066   22.9012 H   0  0  0  0  0  0
  -19.7932  -30.7241   24.2303 H   0  0  0  0  0  0
  -17.5022  -31.6273   24.5168 H   0  0  0  0  0  0
  -15.5348  -30.3022   23.7635 H   0  0  0  0  0  0
  -15.8649  -28.0862   22.7028 H   0  0  0  0  0  0
  -24.5933  -30.7035   25.7829 H   0  0  0  0  0  0
  -24.8963  -32.2846   26.4949 H   0  0  0  0  0  0
  -25.8142  -30.8859   27.0219 H   0  0  0  0  0  0
  -26.2817  -29.6810   24.1145 H   0  0  0  0  0  0
  -27.4124  -29.7281   25.4487 H   0  0  0  0  0  0
  -27.8629  -30.4385   23.9152 H   0  0  0  0  0  0
  -27.2653  -33.3600   26.2091 H   0  0  0  0  0  0
  -28.3835  -32.6905   25.0298 H   0  0  0  0  0  0
  -28.0732  -31.8427   26.5370 H   0  0  0  0  0  0
  -28.2612  -38.0097   24.7499 H   0  0  0  0  0  0
  -28.1055  -36.2631   24.6312 H   0  0  0  0  0  0
  -27.2297  -37.1492   25.8871 H   0  0  0  0  0  0
  -20.9268  -29.8783   21.7005 H   0  0  0  0  0  0
  -26.0192  -38.2884   24.1406 H   0  0  0  0  0  0
  -28.6608  -19.8807   21.1101 H   0  0  0  0  0  0
  -28.6139  -19.9068   19.3402 H   0  0  0  0  0  0
  -28.8088  -21.4074   20.2377 H   0  0  0  0  0  0
  -35.0850  -19.7016   18.8474 H   0  0  0  0  0  0
  -35.0601  -18.6652   20.2730 H   0  0  0  0  0  0
  -35.3251  -20.3907   20.4589 H   0  0  0  0  0  0
  -30.7265  -16.9837   19.2875 H   0  0  0  0  0  0
  -29.3426  -17.7351   20.0144 H   0  0  0  0  0  0
  -34.3754  -22.2647   19.3948 H   0  0  0  0  0  0
  -33.9479  -22.5329   21.0574 H   0  0  0  0  0  0
  -30.2233  -26.6739   21.8089 H   0  0  0  0  0  0
  -30.0958  -24.9940   22.2048 H   0  0  0  0  0  0
  -30.1070  -17.2238   22.2859 H   0  0  0  0  0  0
  -31.6718  -16.6974   21.7066 H   0  0  0  0  0  0
  -32.4458  -23.6073   18.5925 H   0  0  0  0  0  0
  -33.5535  -24.5201   19.5975 H   0  0  0  0  0  0
  -31.8792  -26.1451   20.3600 H   0  0  0  0  0  0
  -30.6881  -25.4442   19.2968 H   0  0  0  0  0  0
  -27.8831  -25.7238   21.6691 H   0  0  0  0  0  0
  -28.3773  -24.7740   20.2731 H   0  0  0  0  0  0
  -29.2224  -15.1276   21.7251 H   0  0  0  0  0  0
  -32.0849  -24.0429   21.4713 H   0  0  0  0  0  0
  -31.0381  -23.3272   20.4501 H   0  0  0  0  0  0
  1 25  1  0  0  0
  1 30  2  0  0  0
  1 86  1  0  0  0
  2  3  1  0  0  0
  2 25  1  0  0  0
  2 88  1  0  0  0
  2 89  1  0  0  0
  3  4  1  0  0  0
  3 90  1  0  0  0
  3 91  1  0  0  0
  4  5  1  0  0  0
  4 92  1  0  0  0
  4 93  1  0  0  0
  5  6  1  0  0  0
  5 26  1  0  0  0
  5 94  1  0  0  0
  6 25  1  0  0  0
  6 95  1  0  0  0
  6 96  1  0  0  0
  7  8  2  0  0  0
  7 26  1  0  0  0
  7 29  1  0  0  0
  8  9  1  0  0  0
  8 22  1  0  0  0
  9 10  1  0  0  0
  9 27  2  0  0  0
 10 11  2  0  0  0
 10 15  1  0  0  0
 11 12  1  0  0  0
 11 97  1  0  0  0
 12 13  2  0  0  0
 12 98  1  0  0  0
 13 14  1  0  0  0
 13 31  1  0  0  0
 14 15  2  0  0  0
 14 99  1  0  0  0
 15100  1  0  0  0
 16 17  2  0  0  0
 16 21  1  0  0  0
 16 31  1  0  0  0
 17 18  1  0  0  0
 17101  1  0  0  0
 18 19  2  0  0  0
 18102  1  0  0  0
 19 20  1  0  0  0
 19 24  1  0  0  0
 20 21  2  0  0  0
 20103  1  0  0  0
 21 23  1  0  0  0
 22 28  1  0  0  0
 22 32  2  0  0  0
 26 27  1  0  0  0
 28104  1  0  0  0
 28105  1  0  0  0
 29106  1  0  0  0
 29107  1  0  0  0
 33 34  1  0  0  0
 33 66  1  0  0  0
 33 70  2  0  0  0
 34 36  1  0  0  0
 34 59  1  0  0  0
 34108  1  0  0  0
 35 44  2  0  0  0
 35 45  1  0  0  0
 35 68  1  0  0  0
 36 56  1  0  0  0
 36109  1  0  0  0
 37 39  1  0  0  0
 37 47  1  0  0  0
 37 66  1  0  0  0
 37110  1  0  0  0
 38 43  2  0  0  0
 38 46  1  0  0  0
 38 47  1  0  0  0
 39 64  1  0  0  0
 39 67  2  0  0  0
 40 52  1  0  0  0
 40 53  2  0  0  0
 40 58  1  0  0  0
 41111  1  0  0  0
 41112  1  0  0  0
 41113  1  0  0  0
 41 48  1  0  0  0
 42 43  1  0  0  0
 42 66  1  0  0  0
 42114  1  0  0  0
 42115  1  0  0  0
 43 44  1  0  0  0
 44116  1  0  0  0
 45 46  2  0  0  0
 45117  1  0  0  0
 46118  1  0  0  0
 47119  1  0  0  0
 47120  1  0  0  0
 48 56  1  0  0  0
 48 65  1  0  0  0
 48121  1  0  0  0
 49 50  1  0  0  0
 49 53  1  0  0  0
 49 64  1  0  0  0
 49122  1  0  0  0
 50 51  1  0  0  0
 50123  1  0  0  0
 50124  1  0  0  0
 51 52  1  0  0  0
 51125  1  0  0  0
 51126  1  0  0  0
 52127  1  0  0  0
 52128  1  0  0  0
 53 54  1  0  0  0
 54 55  2  0  0  0
 54129  1  0  0  0
 55 57  1  0  0  0
 55130  1  0  0  0
 56 69  2  0  0  0
 57 58  2  0  0  0
 57131  1  0  0  0
 58132  1  0  0  0
 59 60  1  0  0  0
 59 61  1  0  0  0
 59 62  1  0  0  0
 60133  1  0  0  0
 60134  1  0  0  0
 60135  1  0  0  0
 61136  1  0  0  0
 61137  1  0  0  0
 61138  1  0  0  0
 62139  1  0  0  0
 62140  1  0  0  0
 62141  1  0  0  0
 63 65  1  0  0  0
 63142  1  0  0  0
 63143  1  0  0  0
 63144  1  0  0  0
 64145  1  0  0  0
 65146  1  0  0  0
 68 83  1  0  0  0
 71 73  2  0  0  0
 71 75  1  0  0  0
 71 85  1  0  0  0
 72 74  1  0  0  0
 72 76  1  0  0  0
 72 84  2  0  0  0
 73 77  1  0  0  0
 73 84  1  0  0  0
 74 78  1  0  0  0
 74 85  2  0  0  0
 75147  1  0  0  0
 75148  1  0  0  0
 75149  1  0  0  0
 76150  1  0  0  0
 76151  1  0  0  0
 76152  1  0  0  0
 77 80  1  0  0  0
 77153  1  0  0  0
 77154  1  0  0  0
 78 81  1  0  0  0
 78155  1  0  0  0
 78156  1  0  0  0
 79 82  1  0  0  0
 79 83  1  0  0  0
 79157  1  0  0  0
 79158  1  0  0  0
 80 86  1  0  0  0
 80159  1  0  0  0
 80160  1  0  0  0
 81 87  1  0  0  0
 81161  1  0  0  0
 81162  1  0  0  0
 82 87  1  0  0  0
 82163  1  0  0  0
 82164  1  0  0  0
 83165  1  0  0  0
 83166  1  0  0  0
 86167  1  0  0  0
 87168  1  0  0  0
 87169  1  0  0  0
M  CHG  1  87   1
M  ISO  4   1 100  68 101  83 101  86 100
M  END
> <chiral flag>
0

> <version>
0

> <s_m_source_file>
/data/baiqing/PycharmProjects/Reinvent-master-3.2/result/LINK_invent/BTK/process_docking_weight1_custom_sum_contain_oxygen_bond_distance_aromatic_linkinvent_7_9_3/rearranged_h_0046.sdf

> <i_m_source_file_index>
86

> <r_mmod_Potential_Energy-OPLS-2005>
-259.469757080078

> <r_mmod_Stretch_Energy-OPLS-2005>
34.2194404602051

> <r_mmod_Bend_Energy-OPLS-2005>
93.4502868652344

> <r_mmod_Torsional_Energy-OPLS-2005>
239.799423217773

> <r_mmod_Improper_Torsional_Energy-OPLS-2005>
2.99352526664734

> <r_mmod_Van_der_Waal_Energy-OPLS-2005>
165.216262817383

> <r_mmod_Electrostatic_Energy-OPLS-2005>
-346.249298095703

> <r_mmod_Solvation_Energy-OPLS-2005>
-456.914733886719

> <b_mmod_Minimization_Converged-OPLS-2005>
0

> <r_mmod_RMS_Derivative-OPLS-2005>
3.12088871002197

$$$$
87
                    3D
 Structure written by MMmdl.
171179  0  0  1  0            999 V2000
  -30.6372  -14.5921   20.5092 C   0  0  0  0  0  0
  -30.4325  -12.3643   19.4507 C   0  0  0  0  0  0
  -29.5068  -12.5128   18.2238 C   0  0  0  0  0  0
  -28.0272  -12.3583   18.6320 C   0  0  0  0  0  0
  -27.6562  -13.2159   19.8726 C   0  0  2  0  0  0
  -28.6998  -13.0478   21.0020 C   0  0  0  0  0  0
  -25.2534  -13.8132   20.5671 C   0  0  0  0  0  0
  -24.1816  -13.0404   20.9212 C   0  0  0  0  0  0
  -24.6401  -11.6883   20.8770 C   0  0  0  0  0  0
  -23.9069  -10.4280   21.0431 C   0  0  0  0  0  0
  -24.3622   -9.4189   21.9203 C   0  0  0  0  0  0
  -23.6294   -8.2229   22.0756 C   0  0  0  0  0  0
  -22.4280   -8.0281   21.3542 C   0  0  0  0  0  0
  -21.9914   -9.0260   20.4648 C   0  0  0  0  0  0
  -22.7248  -10.2134   20.3063 C   0  0  0  0  0  0
  -21.6844   -6.0747   22.5284 C   0  0  0  0  0  0
  -21.4005   -6.5646   23.8226 C   0  0  0  0  0  0
  -21.3652   -5.6791   24.9182 C   0  0  0  0  0  0
  -21.6045   -4.3059   24.7222 C   0  0  0  0  0  0
  -21.8812   -3.8154   23.4344 C   0  0  0  0  0  0
  -21.9190   -4.6974   22.3402 C   0  0  0  0  0  0
  -22.7836  -13.5217   21.1863 C   0  0  0  0  0  0
  -22.1665   -4.2167   21.0980 F   0  0  0  0  0  0
  -21.5623   -3.4534   25.7732 F   0  0  0  0  0  0
  -30.0209  -13.3738   20.4430 N   0  0  0  0  0  0
  -26.2998  -12.9341   20.3361 N   0  0  0  0  0  0
  -25.9340  -11.6492   20.5784 N   0  0  0  0  0  0
  -22.0474  -12.8229   22.0422 N   0  0  0  0  0  0
  -25.4136  -15.1837   20.3996 N   0  0  0  0  0  0
  -31.7869  -14.7668   20.0952 O   0  0  0  0  0  0
  -21.6629   -6.8891   21.4249 O   0  0  0  0  0  0
  -22.3529  -14.5524   20.6703 O   0  0  0  0  0  0
  -24.6222  -31.8630   23.2028 C   0  0  0  0  0  0
  -25.9078  -32.4797   23.8358 C   0  0  1  0  0  0
  -27.2214  -27.3492   20.1077 C   0  0  0  0  0  0
  -25.5915  -33.8595   24.2289 N   0  0  0  0  0  0
  -23.4124  -30.4880   21.5447 C   0  0  2  0  0  0
  -24.8573  -28.9454   20.1097 C   0  0  0  0  0  0
  -22.7446  -29.4654   22.4941 C   0  0  0  0  0  0
  -18.0273  -28.1393   22.8485 C   0  0  0  0  0  0
  -24.1490  -36.7297   23.2638 C   0  0  0  0  0  0
  -25.9511  -30.8019   21.3702 C   0  0  0  0  0  0
  -26.0234  -29.4313   20.7140 C   0  0  0  0  0  0
  -27.2071  -28.6432   20.7056 C   0  0  0  0  0  0
  -26.0373  -26.9141   19.4687 C   0  0  0  0  0  0
  -24.8651  -27.6916   19.4799 C   0  0  0  0  0  0
  -23.6238  -29.8221   20.1593 C   0  0  0  0  0  0
  -25.4117  -36.3091   24.0327 C   0  0  1  0  0  0
  -20.5878  -28.3688   23.1285 C   0  0  2  0  0  0
  -20.6770  -26.9419   22.5402 C   0  0  0  0  0  0
  -19.5747  -26.6390   21.5204 C   0  0  0  0  0  0
  -18.1924  -26.7934   22.1618 C   0  0  0  0  0  0
  -19.1527  -28.8855   23.2881 C   0  0  0  0  0  0
  -18.9457  -30.1460   23.8894 C   0  0  0  0  0  0
  -17.6465  -30.6597   24.0572 C   0  0  0  0  0  0
  -25.9056  -34.9462   23.5110 C   0  0  0  0  0  0
  -16.5350  -29.9100   23.6334 C   0  0  0  0  0  0
  -16.7264  -28.6522   23.0355 C   0  0  0  0  0  0
  -26.4475  -31.6596   25.0712 C   0  0  0  0  0  0
  -25.3724  -31.3732   26.1456 C   0  0  0  0  0  0
  -27.0318  -30.3026   24.6147 C   0  0  0  0  0  0
  -27.6050  -32.4317   25.7473 C   0  0  0  0  0  0
  -27.5583  -37.1808   24.8463 C   0  0  0  0  0  0
  -21.4164  -29.3049   22.3689 N   0  0  0  0  0  0
  -26.4292  -37.3785   23.9405 N   0  0  0  0  0  0
  -24.6798  -31.0682   22.0949 N   0  0  0  0  0  0
  -23.4182  -28.8190   23.3011 O   0  0  0  0  0  0
  -28.3668  -26.5523   20.1524 O   0  0  0  0  0  0
  -26.5622  -34.8921   22.4674 O   0  0  0  0  0  0
  -23.5393  -32.1410   23.7380 O   0  0  0  0  0  0
  -27.8009  -20.4538   21.3258 C   0  0  0  0  0  0
  -30.2550  -20.4271   20.6976 C   0  0  0  0  0  0
  -27.7241  -21.9516   20.9020 C   0  0  0  0  0  0
  -30.0974  -21.9234   20.2519 C   0  0  0  0  0  0
  -28.9434  -19.5833   20.6860 C   0  0  1  0  0  0
  -29.0619  -22.6883   21.1261 C   0  0  1  0  0  0
  -27.6288  -17.4734   21.3007 C   0  0  0  0  0  0
  -29.5523  -18.1106   22.7476 C   0  0  0  0  0  0
  -30.4935  -24.8145   21.2106 C   0  0  0  0  0  0
  -28.3662  -24.7153   22.4902 C   0  0  0  0  0  0
  -29.9933  -17.0884   20.4867 C   0  0  0  0  0  0
  -28.2824  -25.0848   20.0216 C   0  0  0  0  0  0
  -29.0500  -18.0867   21.2862 C   0  0  0  0  0  0
  -29.0408  -24.2990   21.1610 C   0  0  0  0  0  0
  -29.8375  -15.6398   20.8385 N   0  0  0  0  0  0
  -31.4756  -12.4810   19.1518 H   0  0  0  0  0  0
  -30.3534  -11.3627   19.8758 H   0  0  0  0  0  0
  -29.7671  -11.7741   17.4649 H   0  0  0  0  0  0
  -29.6611  -13.4903   17.7628 H   0  0  0  0  0  0
  -27.8570  -11.3027   18.8493 H   0  0  0  0  0  0
  -27.3753  -12.6085   17.7937 H   0  0  0  0  0  0
  -27.6787  -14.2565   19.5481 H   0  0  0  0  0  0
  -28.7004  -12.0233   21.3771 H   0  0  0  0  0  0
  -28.4537  -13.6758   21.8594 H   0  0  0  0  0  0
  -25.2768   -9.5657   22.4779 H   0  0  0  0  0  0
  -24.0008   -7.4605   22.7458 H   0  0  0  0  0  0
  -21.0852   -8.8775   19.8950 H   0  0  0  0  0  0
  -22.3719  -10.9678   19.6168 H   0  0  0  0  0  0
  -21.1995   -7.6152   23.9729 H   0  0  0  0  0  0
  -21.1481   -6.0524   25.9089 H   0  0  0  0  0  0
  -22.0595   -2.7617   23.2828 H   0  0  0  0  0  0
  -22.4079  -11.9900   22.4831 H   0  0  0  0  0  0
  -21.1082  -13.1252   22.2595 H   0  0  0  0  0  0
  -24.6391  -15.8283   20.5125 H   0  0  0  0  0  0
  -26.2574  -15.6323   20.0694 H   0  0  0  0  0  0
  -26.7153  -32.5481   23.1123 H   0  0  0  0  0  0
  -25.0063  -33.9740   25.0435 H   0  0  0  0  0  0
  -22.7044  -31.3073   21.4042 H   0  0  0  0  0  0
  -23.3750  -35.9632   23.3302 H   0  0  0  0  0  0
  -24.3585  -36.8906   22.2051 H   0  0  0  0  0  0
  -23.7241  -37.6499   23.6662 H   0  0  0  0  0  0
  -26.0848  -31.5648   20.6013 H   0  0  0  0  0  0
  -26.8317  -30.8490   21.9986 H   0  0  0  0  0  0
  -28.1040  -29.0122   21.1841 H   0  0  0  0  0  0
  -25.9925  -25.9713   18.9462 H   0  0  0  0  0  0
  -23.9739  -27.3203   18.9915 H   0  0  0  0  0  0
  -23.7392  -30.5972   19.4005 H   0  0  0  0  0  0
  -22.7443  -29.2488   19.8605 H   0  0  0  0  0  0
  -25.1304  -36.1945   25.0821 H   0  0  0  0  0  0
  -20.9988  -28.3273   24.1401 H   0  0  0  0  0  0
  -20.5673  -26.2310   23.3599 H   0  0  0  0  0  0
  -21.6645  -26.7452   22.1212 H   0  0  0  0  0  0
  -19.6903  -25.6297   21.1237 H   0  0  0  0  0  0
  -19.6687  -27.3210   20.6739 H   0  0  0  0  0  0
  -17.4201  -26.6676   21.4017 H   0  0  0  0  0  0
  -18.0332  -26.0078   22.9021 H   0  0  0  0  0  0
  -19.7934  -30.7281   24.2263 H   0  0  0  0  0  0
  -17.5017  -31.6270   24.5193 H   0  0  0  0  0  0
  -15.5358  -30.3016   23.7648 H   0  0  0  0  0  0
  -15.8657  -28.0842   22.7067 H   0  0  0  0  0  0
  -24.5871  -30.7113   25.7791 H   0  0  0  0  0  0
  -24.8952  -32.2905   26.4919 H   0  0  0  0  0  0
  -25.8054  -30.8874   27.0210 H   0  0  0  0  0  0
  -26.2887  -29.6772   24.1190 H   0  0  0  0  0  0
  -27.4054  -29.7281   25.4633 H   0  0  0  0  0  0
  -27.8740  -30.4320   23.9342 H   0  0  0  0  0  0
  -27.2681  -33.3621   26.2060 H   0  0  0  0  0  0
  -28.3860  -32.6867   25.0298 H   0  0  0  0  0  0
  -28.0730  -31.8434   26.5375 H   0  0  0  0  0  0
  -28.2616  -38.0095   24.7530 H   0  0  0  0  0  0
  -28.1065  -36.2632   24.6281 H   0  0  0  0  0  0
  -27.2304  -37.1453   25.8865 H   0  0  0  0  0  0
  -20.9331  -29.8777   21.6912 H   0  0  0  0  0  0
  -26.0168  -38.2857   24.1405 H   0  0  0  0  0  0
  -26.8304  -20.0158   21.0931 H   0  0  0  0  0  0
  -27.8850  -20.4259   22.4111 H   0  0  0  0  0  0
  -30.6764  -20.4256   21.7028 H   0  0  0  0  0  0
  -30.9989  -19.9414   20.0644 H   0  0  0  0  0  0
  -26.9280  -22.4309   21.4703 H   0  0  0  0  0  0
  -27.4284  -22.0257   19.8549 H   0  0  0  0  0  0
  -29.8108  -21.9750   19.2006 H   0  0  0  0  0  0
  -31.0794  -22.3882   20.3199 H   0  0  0  0  0  0
  -28.6739  -19.4736   19.6339 H   0  0  0  0  0  0
  -29.3596  -22.4248   22.1425 H   0  0  0  0  0  0
  -26.9547  -18.0110   21.9667 H   0  0  0  0  0  0
  -27.6084  -16.4484   21.6678 H   0  0  0  0  0  0
  -27.1895  -17.4806   20.3025 H   0  0  0  0  0  0
  -28.9462  -18.7498   23.3876 H   0  0  0  0  0  0
  -30.5825  -18.4576   22.8156 H   0  0  0  0  0  0
  -29.5278  -17.1146   23.1920 H   0  0  0  0  0  0
  -31.0717  -24.3065   21.9827 H   0  0  0  0  0  0
  -30.5343  -25.8816   21.4310 H   0  0  0  0  0  0
  -31.0028  -24.6698   20.2581 H   0  0  0  0  0  0
  -28.8623  -24.2770   23.3563 H   0  0  0  0  0  0
  -27.3189  -24.4135   22.5249 H   0  0  0  0  0  0
  -28.3892  -25.7964   22.6321 H   0  0  0  0  0  0
  -31.0384  -17.3779   20.6085 H   0  0  0  0  0  0
  -29.7871  -17.1821   19.4191 H   0  0  0  0  0  0
  -27.2571  -24.7209   20.0285 H   0  0  0  0  0  0
  -28.6936  -24.8089   19.0495 H   0  0  0  0  0  0
  -28.9265  -15.3812   21.1837 H   0  0  0  0  0  0
  1 25  1  0  0  0
  1 30  2  0  0  0
  1 85  1  0  0  0
  2  3  1  0  0  0
  2 25  1  0  0  0
  2 86  1  0  0  0
  2 87  1  0  0  0
  3  4  1  0  0  0
  3 88  1  0  0  0
  3 89  1  0  0  0
  4  5  1  0  0  0
  4 90  1  0  0  0
  4 91  1  0  0  0
  5  6  1  0  0  0
  5 26  1  0  0  0
  5 92  1  0  0  0
  6 25  1  0  0  0
  6 93  1  0  0  0
  6 94  1  0  0  0
  7  8  2  0  0  0
  7 26  1  0  0  0
  7 29  1  0  0  0
  8  9  1  0  0  0
  8 22  1  0  0  0
  9 10  1  0  0  0
  9 27  2  0  0  0
 10 11  2  0  0  0
 10 15  1  0  0  0
 11 12  1  0  0  0
 11 95  1  0  0  0
 12 13  2  0  0  0
 12 96  1  0  0  0
 13 14  1  0  0  0
 13 31  1  0  0  0
 14 15  2  0  0  0
 14 97  1  0  0  0
 15 98  1  0  0  0
 16 17  2  0  0  0
 16 21  1  0  0  0
 16 31  1  0  0  0
 17 18  1  0  0  0
 17 99  1  0  0  0
 18 19  2  0  0  0
 18100  1  0  0  0
 19 20  1  0  0  0
 19 24  1  0  0  0
 20 21  2  0  0  0
 20101  1  0  0  0
 21 23  1  0  0  0
 22 28  1  0  0  0
 22 32  2  0  0  0
 26 27  1  0  0  0
 28102  1  0  0  0
 28103  1  0  0  0
 29104  1  0  0  0
 29105  1  0  0  0
 33 34  1  0  0  0
 33 66  1  0  0  0
 33 70  2  0  0  0
 34 36  1  0  0  0
 34 59  1  0  0  0
 34106  1  0  0  0
 35 44  2  0  0  0
 35 45  1  0  0  0
 35 68  1  0  0  0
 36 56  1  0  0  0
 36107  1  0  0  0
 37 39  1  0  0  0
 37 47  1  0  0  0
 37 66  1  0  0  0
 37108  1  0  0  0
 38 43  2  0  0  0
 38 46  1  0  0  0
 38 47  1  0  0  0
 39 64  1  0  0  0
 39 67  2  0  0  0
 40 52  1  0  0  0
 40 53  2  0  0  0
 40 58  1  0  0  0
 41109  1  0  0  0
 41110  1  0  0  0
 41111  1  0  0  0
 41 48  1  0  0  0
 42 43  1  0  0  0
 42 66  1  0  0  0
 42112  1  0  0  0
 42113  1  0  0  0
 43 44  1  0  0  0
 44114  1  0  0  0
 45 46  2  0  0  0
 45115  1  0  0  0
 46116  1  0  0  0
 47117  1  0  0  0
 47118  1  0  0  0
 48 56  1  0  0  0
 48 65  1  0  0  0
 48119  1  0  0  0
 49 50  1  0  0  0
 49 53  1  0  0  0
 49 64  1  0  0  0
 49120  1  0  0  0
 50 51  1  0  0  0
 50121  1  0  0  0
 50122  1  0  0  0
 51 52  1  0  0  0
 51123  1  0  0  0
 51124  1  0  0  0
 52125  1  0  0  0
 52126  1  0  0  0
 53 54  1  0  0  0
 54 55  2  0  0  0
 54127  1  0  0  0
 55 57  1  0  0  0
 55128  1  0  0  0
 56 69  2  0  0  0
 57 58  2  0  0  0
 57129  1  0  0  0
 58130  1  0  0  0
 59 60  1  0  0  0
 59 61  1  0  0  0
 59 62  1  0  0  0
 60131  1  0  0  0
 60132  1  0  0  0
 60133  1  0  0  0
 61134  1  0  0  0
 61135  1  0  0  0
 61136  1  0  0  0
 62137  1  0  0  0
 62138  1  0  0  0
 62139  1  0  0  0
 63 65  1  0  0  0
 63140  1  0  0  0
 63141  1  0  0  0
 63142  1  0  0  0
 64143  1  0  0  0
 65144  1  0  0  0
 68 82  1  0  0  0
 71 73  1  0  0  0
 71145  1  0  0  0
 71146  1  0  0  0
 71 75  1  0  0  0
 72 74  1  0  0  0
 72 75  1  0  0  0
 72147  1  0  0  0
 72148  1  0  0  0
 73149  1  0  0  0
 73150  1  0  0  0
 73 76  1  0  0  0
 74 76  1  0  0  0
 74151  1  0  0  0
 74152  1  0  0  0
 75 83  1  0  0  0
 75153  1  0  0  0
 76 84  1  0  0  0
 76154  1  0  0  0
 77155  1  0  0  0
 77156  1  0  0  0
 77157  1  0  0  0
 77 83  1  0  0  0
 78 83  1  0  0  0
 78158  1  0  0  0
 78159  1  0  0  0
 78160  1  0  0  0
 79161  1  0  0  0
 79162  1  0  0  0
 79163  1  0  0  0
 79 84  1  0  0  0
 80 84  1  0  0  0
 80164  1  0  0  0
 80165  1  0  0  0
 80166  1  0  0  0
 81 83  1  0  0  0
 81 85  1  0  0  0
 81167  1  0  0  0
 81168  1  0  0  0
 82 84  1  0  0  0
 82169  1  0  0  0
 82170  1  0  0  0
 85171  1  0  0  0
M  ISO  4   1 100  68 101  82 101  85 100
M  END
> <chiral flag>
0

> <version>
0

> <s_m_source_file>
/data/baiqing/PycharmProjects/Reinvent-master-3.2/result/LINK_invent/BTK/process_docking_weight1_custom_sum_contain_oxygen_bond_distance_aromatic_linkinvent_7_9_3/rearranged_h_0046.sdf

> <i_m_source_file_index>
87

> <r_mmod_Potential_Energy-OPLS-2005>
67.9708023071289

> <r_mmod_Stretch_Energy-OPLS-2005>
75.9482421875

> <r_mmod_Bend_Energy-OPLS-2005>
153.633499145508

> <r_mmod_Torsional_Energy-OPLS-2005>
271.571502685547

> <r_mmod_Improper_Torsional_Energy-OPLS-2005>
5.8145112991333

> <r_mmod_Van_der_Waal_Energy-OPLS-2005>
139.430892944336

> <r_mmod_Electrostatic_Energy-OPLS-2005>
-431.3291015625

> <r_mmod_Solvation_Energy-OPLS-2005>
-181.44482421875

> <b_mmod_Minimization_Converged-OPLS-2005>
0

> <r_mmod_RMS_Derivative-OPLS-2005>
1.92039847373962

$$$$
88
                    3D
 Structure written by MMmdl.
166174  0  0  1  0            999 V2000
  -30.7554  -14.4158   20.6417 C   0  0  0  0  0  0
  -30.4179  -12.3008   19.4194 C   0  0  0  0  0  0
  -29.4944  -12.5282   18.2073 C   0  0  0  0  0  0
  -28.0180  -12.3747   18.6177 C   0  0  0  0  0  0
  -27.6648  -13.2094   19.8794 C   0  0  2  0  0  0
  -28.7035  -12.9796   21.0027 C   0  0  0  0  0  0
  -25.2550  -13.8137   20.5593 C   0  0  0  0  0  0
  -24.1818  -13.0415   20.9180 C   0  0  0  0  0  0
  -24.6393  -11.6901   20.8753 C   0  0  0  0  0  0
  -23.9051  -10.4296   21.0414 C   0  0  0  0  0  0
  -24.3605   -9.4208   21.9184 C   0  0  0  0  0  0
  -23.6293   -8.2235   22.0738 C   0  0  0  0  0  0
  -22.4275   -8.0285   21.3532 C   0  0  0  0  0  0
  -21.9905   -9.0248   20.4624 C   0  0  0  0  0  0
  -22.7227  -10.2138   20.3049 C   0  0  0  0  0  0
  -21.6851   -6.0747   22.5285 C   0  0  0  0  0  0
  -21.4018   -6.5648   23.8223 C   0  0  0  0  0  0
  -21.3652   -5.6796   24.9181 C   0  0  0  0  0  0
  -21.6039   -4.3059   24.7228 C   0  0  0  0  0  0
  -21.8817   -3.8155   23.4343 C   0  0  0  0  0  0
  -21.9195   -4.6977   22.3400 C   0  0  0  0  0  0
  -22.7850  -13.5228   21.1851 C   0  0  0  0  0  0
  -22.1665   -4.2164   21.0977 F   0  0  0  0  0  0
  -21.5616   -3.4537   25.7733 F   0  0  0  0  0  0
  -30.0448  -13.2678   20.4627 N   0  0  0  0  0  0
  -26.3025  -12.9328   20.3360 N   0  0  0  0  0  0
  -25.9327  -11.6487   20.5770 N   0  0  0  0  0  0
  -22.0485  -12.8221   22.0417 N   0  0  0  0  0  0
  -25.4187  -15.1815   20.3796 N   0  0  0  0  0  0
  -31.8139  -14.6492   20.0474 O   0  0  0  0  0  0
  -21.6635   -6.8885   21.4242 O   0  0  0  0  0  0
  -22.3533  -14.5527   20.6709 O   0  0  0  0  0  0
  -24.6074  -31.8691   23.2140 C   0  0  0  0  0  0
  -25.8952  -32.4857   23.8419 C   0  0  1  0  0  0
  -27.2399  -27.4739   20.0935 C   0  0  0  0  0  0
  -25.5844  -33.8649   24.2337 N   0  0  0  0  0  0
  -23.3959  -30.4871   21.5576 C   0  0  2  0  0  0
  -24.8450  -28.9556   20.1197 C   0  0  0  0  0  0
  -22.7384  -29.4620   22.5058 C   0  0  0  0  0  0
  -18.0239  -28.1350   22.8467 C   0  0  0  0  0  0
  -24.1515  -36.7351   23.2634 C   0  0  0  0  0  0
  -25.9198  -30.8448   21.3631 C   0  0  0  0  0  0
  -26.0004  -29.4803   20.7153 C   0  0  0  0  0  0
  -27.2003  -28.7414   20.7075 C   0  0  0  0  0  0
  -26.0762  -26.9535   19.4924 C   0  0  0  0  0  0
  -24.8738  -27.6876   19.5105 C   0  0  0  0  0  0
  -23.6023  -29.8129   20.1744 C   0  0  0  0  0  0
  -25.4127  -36.3142   24.0328 C   0  0  1  0  0  0
  -20.5834  -28.3606   23.1357 C   0  0  2  0  0  0
  -20.6751  -26.9358   22.5432 C   0  0  0  0  0  0
  -19.5737  -26.6349   21.5220 C   0  0  0  0  0  0
  -18.1900  -26.7886   22.1606 C   0  0  0  0  0  0
  -19.1494  -28.8789   23.2885 C   0  0  0  0  0  0
  -18.9441  -30.1408   23.8883 C   0  0  0  0  0  0
  -17.6455  -30.6573   24.0546 C   0  0  0  0  0  0
  -25.9035  -34.9497   23.5157 C   0  0  0  0  0  0
  -16.5331  -29.9082   23.6336 C   0  0  0  0  0  0
  -16.7232  -28.6499   23.0330 C   0  0  0  0  0  0
  -26.4419  -31.6615   25.0719 C   0  0  0  0  0  0
  -25.3707  -31.3669   26.1492 C   0  0  0  0  0  0
  -27.0237  -30.3067   24.6004 C   0  0  0  0  0  0
  -27.6023  -32.4329   25.7465 C   0  0  0  0  0  0
  -27.5609  -37.1822   24.8441 C   0  0  0  0  0  0
  -21.4115  -29.2984   22.3792 N   0  0  0  0  0  0
  -26.4319  -37.3815   23.9397 N   0  0  0  0  0  0
  -24.6589  -31.0814   22.1047 N   0  0  0  0  0  0
  -23.4170  -28.8159   23.3085 O   0  0  0  0  0  0
  -28.4031  -26.7509   20.0728 O   0  0  0  0  0  0
  -26.5622  -34.8920   22.4731 O   0  0  0  0  0  0
  -23.5266  -32.1405   23.7540 O   0  0  0  0  0  0
  -29.1276  -20.2619   20.5699 C   0  0  0  0  0  0
  -27.9820  -19.5722   21.0315 C   0  0  0  0  0  0
  -27.3522  -21.4268   22.2564 C   0  0  0  0  0  0
  -28.4929  -22.1274   21.7774 C   0  0  0  0  0  0
  -26.3042  -22.0675   23.1519 C   0  0  0  0  0  0
  -31.9348  -16.2972   22.9914 C   0  0  0  0  0  0
  -27.6538  -18.1587   20.5781 C   0  0  0  0  0  0
  -28.7746  -23.5855   22.1140 C   0  0  0  0  0  0
  -28.3491  -17.0554   21.3954 C   0  0  0  0  0  0
  -28.4549  -24.5144   20.9318 C   0  0  0  0  0  0
  -30.6278  -15.4957   22.8223 C   0  0  0  0  0  0
  -29.7014  -16.6084   20.8078 C   0  0  0  0  0  0
  -28.6259  -25.9979   21.2619 C   0  0  0  0  0  0
  -29.3874  -21.5361   20.9466 N   0  0  0  0  0  0
  -27.1045  -20.1468   21.8900 N   0  0  0  0  0  0
  -30.1853  -15.3611   21.4259 N   0  0  0  0  0  0
  -31.4647  -12.3869   19.1219 H   0  0  0  0  0  0
  -30.3035  -11.2859   19.8029 H   0  0  0  0  0  0
  -29.7400  -11.8302   17.4060 H   0  0  0  0  0  0
  -29.6583  -13.5295   17.8047 H   0  0  0  0  0  0
  -27.8337  -11.3158   18.8071 H   0  0  0  0  0  0
  -27.3669  -12.6503   17.7878 H   0  0  0  0  0  0
  -27.7126  -14.2594   19.5894 H   0  0  0  0  0  0
  -28.6667  -11.9414   21.3372 H   0  0  0  0  0  0
  -28.4591  -13.5792   21.8808 H   0  0  0  0  0  0
  -25.2744   -9.5703   22.4765 H   0  0  0  0  0  0
  -24.0015   -7.4618   22.7449 H   0  0  0  0  0  0
  -21.0840   -8.8759   19.8922 H   0  0  0  0  0  0
  -22.3675  -10.9678   19.6162 H   0  0  0  0  0  0
  -21.2020   -7.6162   23.9737 H   0  0  0  0  0  0
  -21.1470   -6.0522   25.9087 H   0  0  0  0  0  0
  -22.0603   -2.7620   23.2837 H   0  0  0  0  0  0
  -22.4097  -11.9888   22.4816 H   0  0  0  0  0  0
  -21.1089  -13.1233   22.2580 H   0  0  0  0  0  0
  -24.6419  -15.8304   20.4428 H   0  0  0  0  0  0
  -26.2581  -15.5989   20.0014 H   0  0  0  0  0  0
  -26.7006  -32.5605   23.1172 H   0  0  0  0  0  0
  -24.9922  -33.9804   25.0435 H   0  0  0  0  0  0
  -22.6823  -31.3017   21.4198 H   0  0  0  0  0  0
  -23.3762  -35.9707   23.3310 H   0  0  0  0  0  0
  -24.3577  -36.8981   22.2046 H   0  0  0  0  0  0
  -23.7293  -37.6566   23.6657 H   0  0  0  0  0  0
  -26.0180  -31.6110   20.5927 H   0  0  0  0  0  0
  -26.8116  -30.9024   21.9766 H   0  0  0  0  0  0
  -28.0959  -29.1392   21.1628 H   0  0  0  0  0  0
  -26.1004  -25.9809   19.0196 H   0  0  0  0  0  0
  -23.9839  -27.2759   19.0542 H   0  0  0  0  0  0
  -23.7021  -30.5867   19.4132 H   0  0  0  0  0  0
  -22.7289  -29.2239   19.8856 H   0  0  0  0  0  0
  -25.1313  -36.2041   25.0819 H   0  0  0  0  0  0
  -20.9845  -28.3165   24.1498 H   0  0  0  0  0  0
  -20.5680  -26.2189   23.3608 H   0  0  0  0  0  0
  -21.6626  -26.7448   22.1206 H   0  0  0  0  0  0
  -19.6932  -25.6267   21.1222 H   0  0  0  0  0  0
  -19.6717  -27.3186   20.6789 H   0  0  0  0  0  0
  -17.4186  -26.6603   21.3996 H   0  0  0  0  0  0
  -18.0282  -26.0053   22.9015 H   0  0  0  0  0  0
  -19.7942  -30.7185   24.2251 H   0  0  0  0  0  0
  -17.5052  -31.6263   24.5127 H   0  0  0  0  0  0
  -15.5342  -30.2988   23.7724 H   0  0  0  0  0  0
  -15.8607  -28.0859   22.7046 H   0  0  0  0  0  0
  -24.5879  -30.7022   25.7809 H   0  0  0  0  0  0
  -24.8856  -32.2809   26.4952 H   0  0  0  0  0  0
  -25.8068  -30.8828   27.0233 H   0  0  0  0  0  0
  -26.2724  -29.6834   24.1128 H   0  0  0  0  0  0
  -27.4122  -29.7299   25.4394 H   0  0  0  0  0  0
  -27.8540  -30.4413   23.9064 H   0  0  0  0  0  0
  -27.2644  -33.3618   26.2064 H   0  0  0  0  0  0
  -28.3807  -32.6878   25.0276 H   0  0  0  0  0  0
  -28.0694  -31.8414   26.5346 H   0  0  0  0  0  0
  -28.2615  -38.0127   24.7515 H   0  0  0  0  0  0
  -28.1127  -36.2659   24.6287 H   0  0  0  0  0  0
  -27.2280  -37.1481   25.8821 H   0  0  0  0  0  0
  -20.9289  -29.8738   21.7053 H   0  0  0  0  0  0
  -26.0241  -38.2914   24.1386 H   0  0  0  0  0  0
  -29.8358  -19.7949   19.8992 H   0  0  0  0  0  0
  -25.7231  -22.7928   22.5801 H   0  0  0  0  0  0
  -26.7507  -22.5670   24.0098 H   0  0  0  0  0  0
  -25.6111  -21.3258   23.5485 H   0  0  0  0  0  0
  -32.2672  -16.2708   24.0302 H   0  0  0  0  0  0
  -31.8098  -17.3483   22.7269 H   0  0  0  0  0  0
  -32.7430  -15.8978   22.3772 H   0  0  0  0  0  0
  -27.8458  -18.0518   19.5093 H   0  0  0  0  0  0
  -26.5771  -18.0253   20.6854 H   0  0  0  0  0  0
  -29.8244  -23.6836   22.3916 H   0  0  0  0  0  0
  -28.2060  -23.8970   22.9881 H   0  0  0  0  0  0
  -27.6993  -16.1832   21.4121 H   0  0  0  0  0  0
  -28.4393  -17.3728   22.4353 H   0  0  0  0  0  0
  -27.4330  -24.3397   20.5936 H   0  0  0  0  0  0
  -29.1039  -24.2639   20.0929 H   0  0  0  0  0  0
  -29.8399  -15.9488   23.4219 H   0  0  0  0  0  0
  -30.7635  -14.5002   23.2472 H   0  0  0  0  0  0
  -30.4434  -17.4014   20.9070 H   0  0  0  0  0  0
  -29.5788  -16.4574   19.7306 H   0  0  0  0  0  0
  -29.6365  -26.1965   21.6185 H   0  0  0  0  0  0
  -27.9480  -26.2721   22.0732 H   0  0  0  0  0  0
  1 25  1  0  0  0
  1 30  2  0  0  0
  1 86  1  0  0  0
  2  3  1  0  0  0
  2 25  1  0  0  0
  2 87  1  0  0  0
  2 88  1  0  0  0
  3  4  1  0  0  0
  3 89  1  0  0  0
  3 90  1  0  0  0
  4  5  1  0  0  0
  4 91  1  0  0  0
  4 92  1  0  0  0
  5  6  1  0  0  0
  5 26  1  0  0  0
  5 93  1  0  0  0
  6 25  1  0  0  0
  6 94  1  0  0  0
  6 95  1  0  0  0
  7  8  2  0  0  0
  7 26  1  0  0  0
  7 29  1  0  0  0
  8  9  1  0  0  0
  8 22  1  0  0  0
  9 10  1  0  0  0
  9 27  2  0  0  0
 10 11  2  0  0  0
 10 15  1  0  0  0
 11 12  1  0  0  0
 11 96  1  0  0  0
 12 13  2  0  0  0
 12 97  1  0  0  0
 13 14  1  0  0  0
 13 31  1  0  0  0
 14 15  2  0  0  0
 14 98  1  0  0  0
 15 99  1  0  0  0
 16 17  2  0  0  0
 16 21  1  0  0  0
 16 31  1  0  0  0
 17 18  1  0  0  0
 17100  1  0  0  0
 18 19  2  0  0  0
 18101  1  0  0  0
 19 20  1  0  0  0
 19 24  1  0  0  0
 20 21  2  0  0  0
 20102  1  0  0  0
 21 23  1  0  0  0
 22 28  1  0  0  0
 22 32  2  0  0  0
 26 27  1  0  0  0
 28103  1  0  0  0
 28104  1  0  0  0
 29105  1  0  0  0
 29106  1  0  0  0
 33 34  1  0  0  0
 33 66  1  0  0  0
 33 70  2  0  0  0
 34 36  1  0  0  0
 34 59  1  0  0  0
 34107  1  0  0  0
 35 44  2  0  0  0
 35 45  1  0  0  0
 35 68  1  0  0  0
 36 56  1  0  0  0
 36108  1  0  0  0
 37 39  1  0  0  0
 37 47  1  0  0  0
 37 66  1  0  0  0
 37109  1  0  0  0
 38 43  2  0  0  0
 38 46  1  0  0  0
 38 47  1  0  0  0
 39 64  1  0  0  0
 39 67  2  0  0  0
 40 52  1  0  0  0
 40 53  2  0  0  0
 40 58  1  0  0  0
 41110  1  0  0  0
 41111  1  0  0  0
 41112  1  0  0  0
 41 48  1  0  0  0
 42 43  1  0  0  0
 42 66  1  0  0  0
 42113  1  0  0  0
 42114  1  0  0  0
 43 44  1  0  0  0
 44115  1  0  0  0
 45 46  2  0  0  0
 45116  1  0  0  0
 46117  1  0  0  0
 47118  1  0  0  0
 47119  1  0  0  0
 48 56  1  0  0  0
 48 65  1  0  0  0
 48120  1  0  0  0
 49 50  1  0  0  0
 49 53  1  0  0  0
 49 64  1  0  0  0
 49121  1  0  0  0
 50 51  1  0  0  0
 50122  1  0  0  0
 50123  1  0  0  0
 51 52  1  0  0  0
 51124  1  0  0  0
 51125  1  0  0  0
 52126  1  0  0  0
 52127  1  0  0  0
 53 54  1  0  0  0
 54 55  2  0  0  0
 54128  1  0  0  0
 55 57  1  0  0  0
 55129  1  0  0  0
 56 69  2  0  0  0
 57 58  2  0  0  0
 57130  1  0  0  0
 58131  1  0  0  0
 59 60  1  0  0  0
 59 61  1  0  0  0
 59 62  1  0  0  0
 60132  1  0  0  0
 60133  1  0  0  0
 60134  1  0  0  0
 61135  1  0  0  0
 61136  1  0  0  0
 61137  1  0  0  0
 62138  1  0  0  0
 62139  1  0  0  0
 62140  1  0  0  0
 63 65  1  0  0  0
 63141  1  0  0  0
 63142  1  0  0  0
 63143  1  0  0  0
 64144  1  0  0  0
 65145  1  0  0  0
 68 83  1  0  0  0
 71 72  2  0  0  0
 71 84  1  0  0  0
 71146  1  0  0  0
 72 77  1  0  0  0
 72 85  1  0  0  0
 73 74  1  0  0  0
 73 75  1  0  0  0
 73 85  2  0  0  0
 74 78  1  0  0  0
 74 84  2  0  0  0
 75147  1  0  0  0
 75148  1  0  0  0
 75149  1  0  0  0
 76 81  1  0  0  0
 76150  1  0  0  0
 76151  1  0  0  0
 76152  1  0  0  0
 77 79  1  0  0  0
 77153  1  0  0  0
 77154  1  0  0  0
 78 80  1  0  0  0
 78155  1  0  0  0
 78156  1  0  0  0
 79 82  1  0  0  0
 79157  1  0  0  0
 79158  1  0  0  0
 80 83  1  0  0  0
 80159  1  0  0  0
 80160  1  0  0  0
 81 86  1  0  0  0
 81161  1  0  0  0
 81162  1  0  0  0
 82 86  1  0  0  0
 82163  1  0  0  0
 82164  1  0  0  0
 83165  1  0  0  0
 83166  1  0  0  0
M  ISO  4   1 100  68 101  83 101  86 100
M  END
> <chiral flag>
0

> <version>
0

> <s_m_source_file>
/data/baiqing/PycharmProjects/Reinvent-master-3.2/result/LINK_invent/BTK/process_docking_weight1_custom_sum_contain_oxygen_bond_distance_aromatic_linkinvent_7_9_3/rearranged_h_0046.sdf

> <i_m_source_file_index>
88

> <r_mmod_Potential_Energy-OPLS-2005>
158.488021850586

> <r_mmod_Stretch_Energy-OPLS-2005>
35.5681266784668

> <r_mmod_Bend_Energy-OPLS-2005>
90.7021484375

> <r_mmod_Torsional_Energy-OPLS-2005>
314.603576660156

> <r_mmod_Improper_Torsional_Energy-OPLS-2005>
5.22422742843628

> <r_mmod_Van_der_Waal_Energy-OPLS-2005>
147.326309204102

> <r_mmod_Electrostatic_Energy-OPLS-2005>
-242.600677490234

> <r_mmod_Solvation_Energy-OPLS-2005>
-199.813858032227

> <b_mmod_Minimization_Converged-OPLS-2005>
0

> <r_mmod_RMS_Derivative-OPLS-2005>
3.79342460632324

$$$$
89
                    3D
 Structure written by MMmdl.
155163  0  0  1  0            999 V2000
  -30.5061  -14.9820   20.4008 C   0  0  0  0  0  0
  -30.4411  -12.6021   19.5114 C   0  0  0  0  0  0
  -29.5276  -12.5419   18.2630 C   0  0  0  0  0  0
  -28.0585  -12.3269   18.6726 C   0  0  0  0  0  0
  -27.6323  -13.2488   19.8441 C   0  0  2  0  0  0
  -28.6734  -13.2719   20.9843 C   0  0  0  0  0  0
  -25.2481  -13.8219   20.5728 C   0  0  0  0  0  0
  -24.1783  -13.0435   20.9214 C   0  0  0  0  0  0
  -24.6396  -11.6919   20.8727 C   0  0  0  0  0  0
  -23.9067  -10.4291   21.0377 C   0  0  0  0  0  0
  -24.3615   -9.4217   21.9169 C   0  0  0  0  0  0
  -23.6300   -8.2248   22.0751 C   0  0  0  0  0  0
  -22.4285   -8.0277   21.3538 C   0  0  0  0  0  0
  -21.9910   -9.0238   20.4640 C   0  0  0  0  0  0
  -22.7229  -10.2125   20.3047 C   0  0  0  0  0  0
  -21.6868   -6.0730   22.5275 C   0  0  0  0  0  0
  -21.4013   -6.5633   23.8201 C   0  0  0  0  0  0
  -21.3664   -5.6788   24.9169 C   0  0  0  0  0  0
  -21.6052   -4.3053   24.7227 C   0  0  0  0  0  0
  -21.8821   -3.8139   23.4347 C   0  0  0  0  0  0
  -21.9201   -4.6951   22.3404 C   0  0  0  0  0  0
  -22.7808  -13.5208   21.1858 C   0  0  0  0  0  0
  -22.1671   -4.2130   21.0984 F   0  0  0  0  0  0
  -21.5620   -3.4547   25.7744 F   0  0  0  0  0  0
  -29.9505  -13.6992   20.3977 N   0  0  0  0  0  0
  -26.2894  -12.9437   20.3260 N   0  0  0  0  0  0
  -25.9328  -11.6564   20.5723 N   0  0  0  0  0  0
  -22.0465  -12.8195   22.0426 N   0  0  0  0  0  0
  -25.4163  -15.1943   20.4147 N   0  0  0  0  0  0
  -31.6874  -15.0782   20.0482 O   0  0  0  0  0  0
  -21.6654   -6.8871   21.4240 O   0  0  0  0  0  0
  -22.3491  -14.5509   20.6713 O   0  0  0  0  0  0
  -24.6469  -31.8396   23.1842 C   0  0  0  0  0  0
  -25.9217  -32.4679   23.8236 C   0  0  1  0  0  0
  -27.2118  -27.1044   20.1586 C   0  0  0  0  0  0
  -25.5933  -33.8486   24.2142 N   0  0  0  0  0  0
  -23.4513  -30.4604   21.5294 C   0  0  2  0  0  0
  -24.8981  -28.8787   20.1061 C   0  0  0  0  0  0
  -22.7593  -29.4526   22.4822 C   0  0  0  0  0  0
  -18.0308  -28.1412   22.8466 C   0  0  0  0  0  0
  -24.1479  -36.7281   23.2648 C   0  0  0  0  0  0
  -26.0084  -30.7036   21.3833 C   0  0  0  0  0  0
  -26.0755  -29.3103   20.7302 C   0  0  0  0  0  0
  -27.2312  -28.4390   20.7398 C   0  0  0  0  0  0
  -26.0113  -26.7817   19.4883 C   0  0  0  0  0  0
  -24.8798  -27.6285   19.4674 C   0  0  0  0  0  0
  -23.6793  -29.7903   20.1477 C   0  0  0  0  0  0
  -25.4109  -36.3034   24.0315 C   0  0  1  0  0  0
  -20.5924  -28.3742   23.1214 C   0  0  2  0  0  0
  -20.6782  -26.9437   22.5401 C   0  0  0  0  0  0
  -19.5746  -26.6381   21.5214 C   0  0  0  0  0  0
  -18.1930  -26.7938   22.1629 C   0  0  0  0  0  0
  -19.1570  -28.8890   23.2830 C   0  0  0  0  0  0
  -18.9487  -30.1478   23.8867 C   0  0  0  0  0  0
  -17.6487  -30.6599   24.0567 C   0  0  0  0  0  0
  -25.9071  -34.9409   23.5048 C   0  0  0  0  0  0
  -16.5374  -29.9104   23.6331 C   0  0  0  0  0  0
  -16.7296  -28.6528   23.0337 C   0  0  0  0  0  0
  -26.4508  -31.6568   25.0700 C   0  0  0  0  0  0
  -25.3690  -31.3795   26.1401 C   0  0  0  0  0  0
  -27.0364  -30.2958   24.6293 C   0  0  0  0  0  0
  -27.6032  -32.4340   25.7484 C   0  0  0  0  0  0
  -27.5561  -37.1795   24.8461 C   0  0  0  0  0  0
  -21.4280  -29.3068   22.3599 N   0  0  0  0  0  0
  -26.4267  -37.3753   23.9416 N   0  0  0  0  0  0
  -24.7230  -31.0229   22.0884 N   0  0  0  0  0  0
  -23.4219  -28.8053   23.2971 O   0  0  0  0  0  0
  -28.2578  -26.1054   20.2472 O   0  0  0  0  0  0
  -26.5682  -34.8918   22.4646 O   0  0  0  0  0  0
  -23.5578  -32.1267   23.7048 O   0  0  0  0  0  0
  -30.7482  -21.1317   21.9013 C   0  0  0  0  0  0
  -31.8099  -19.0940   22.5927 C   0  0  0  0  0  0
  -31.7214  -20.4785   22.6695 C   0  0  0  0  0  0
  -29.8740  -20.4546   21.0103 C   0  0  0  0  0  0
  -30.0968  -18.9379   20.9815 C   0  0  0  0  0  0
  -32.6655  -21.2484   23.5753 C   0  0  0  0  0  0
  -28.8703  -21.5717   20.2933 C   0  0  0  0  0  0
  -29.6053  -17.6482   20.1143 C   0  0  0  0  0  0
  -29.0090  -23.2756   20.5410 C   0  0  0  0  0  0
  -28.0160  -24.5654   20.0446 C   0  0  0  0  0  0
  -31.0221  -18.3741   21.7915 N   0  0  0  0  0  0
  -29.6785  -16.1235   20.5948 N   0  0  0  0  0  0
  -31.4767  -12.7565   19.2068 H   0  0  0  0  0  0
  -30.4252  -11.6492   20.0423 H   0  0  0  0  0  0
  -29.8512  -11.7430   17.5934 H   0  0  0  0  0  0
  -29.6172  -13.4698   17.6954 H   0  0  0  0  0  0
  -27.9454  -11.2823   18.9636 H   0  0  0  0  0  0
  -27.4003  -12.4750   17.8156 H   0  0  0  0  0  0
  -27.5960  -14.2543   19.4255 H   0  0  0  0  0  0
  -28.7644  -12.2900   21.4499 H   0  0  0  0  0  0
  -28.3664  -13.9583   21.7731 H   0  0  0  0  0  0
  -25.2762   -9.5699   22.4732 H   0  0  0  0  0  0
  -24.0018   -7.4646   22.7473 H   0  0  0  0  0  0
  -21.0842   -8.8733   19.8947 H   0  0  0  0  0  0
  -22.3671  -10.9644   19.6147 H   0  0  0  0  0  0
  -21.2005   -7.6142   23.9691 H   0  0  0  0  0  0
  -21.1483   -6.0529   25.9068 H   0  0  0  0  0  0
  -22.0599   -2.7598   23.2859 H   0  0  0  0  0  0
  -22.4143  -11.9903   22.4837 H   0  0  0  0  0  0
  -21.1055  -13.1160   22.2594 H   0  0  0  0  0  0
  -24.6423  -15.8422   20.5165 H   0  0  0  0  0  0
  -26.2514  -15.6280   20.0416 H   0  0  0  0  0  0
  -26.7309  -32.5257   23.0982 H   0  0  0  0  0  0
  -25.0037  -33.9586   25.0256 H   0  0  0  0  0  0
  -22.7569  -31.2885   21.3732 H   0  0  0  0  0  0
  -23.3728  -35.9625   23.3288 H   0  0  0  0  0  0
  -24.3576  -36.8938   22.2070 H   0  0  0  0  0  0
  -23.7237  -37.6473   23.6707 H   0  0  0  0  0  0
  -26.1596  -31.4484   20.5999 H   0  0  0  0  0  0
  -26.8825  -30.7617   22.0204 H   0  0  0  0  0  0
  -28.1240  -28.7584   21.2577 H   0  0  0  0  0  0
  -25.9163  -25.8265   18.9946 H   0  0  0  0  0  0
  -23.9833  -27.2958   18.9611 H   0  0  0  0  0  0
  -23.8273  -30.5645   19.3940 H   0  0  0  0  0  0
  -22.7890  -29.2445   19.8307 H   0  0  0  0  0  0
  -25.1292  -36.1859   25.0806 H   0  0  0  0  0  0
  -21.0019  -28.3341   24.1331 H   0  0  0  0  0  0
  -20.5649  -26.2376   23.3640 H   0  0  0  0  0  0
  -21.6647  -26.7412   22.1205 H   0  0  0  0  0  0
  -19.6908  -25.6279   21.1270 H   0  0  0  0  0  0
  -19.6667  -27.3174   20.6730 H   0  0  0  0  0  0
  -17.4191  -26.6674   21.4046 H   0  0  0  0  0  0
  -18.0327  -26.0090   22.9041 H   0  0  0  0  0  0
  -19.7972  -30.7299   24.2208 H   0  0  0  0  0  0
  -17.5051  -31.6268   24.5198 H   0  0  0  0  0  0
  -15.5376  -30.3011   23.7668 H   0  0  0  0  0  0
  -15.8688  -28.0866   22.7037 H   0  0  0  0  0  0
  -24.5846  -30.7162   25.7737 H   0  0  0  0  0  0
  -24.8904  -32.2996   26.4770 H   0  0  0  0  0  0
  -25.7956  -30.9001   27.0220 H   0  0  0  0  0  0
  -26.2985  -29.6677   24.1296 H   0  0  0  0  0  0
  -27.3970  -29.7257   25.4862 H   0  0  0  0  0  0
  -27.8887  -30.4178   23.9607 H   0  0  0  0  0  0
  -27.2635  -33.3697   26.1941 H   0  0  0  0  0  0
  -28.3904  -32.6813   25.0350 H   0  0  0  0  0  0
  -28.0626  -31.8538   26.5490 H   0  0  0  0  0  0
  -28.2571  -38.0097   24.7507 H   0  0  0  0  0  0
  -28.1056  -36.2629   24.6276 H   0  0  0  0  0  0
  -27.2300  -37.1446   25.8869 H   0  0  0  0  0  0
  -20.9492  -29.8881   21.6860 H   0  0  0  0  0  0
  -26.0126  -38.2820   24.1417 H   0  0  0  0  0  0
  -30.7083  -22.2004   22.0159 H   0  0  0  0  0  0
  -32.5391  -18.5468   23.1732 H   0  0  0  0  0  0
  -32.3895  -21.1098   24.6208 H   0  0  0  0  0  0
  -32.6554  -22.3165   23.3553 H   0  0  0  0  0  0
  -33.6902  -20.8918   23.4525 H   0  0  0  0  0  0
  -28.8984  -21.3777   19.2199 H   0  0  0  0  0  0
  -27.8628  -21.2911   20.5998 H   0  0  0  0  0  0
  -30.1481  -17.7006   19.1694 H   0  0  0  0  0  0
  -28.5655  -17.8392   19.8476 H   0  0  0  0  0  0
  -30.0096  -23.5411   20.1984 H   0  0  0  0  0  0
  -29.0328  -23.4160   21.6218 H   0  0  0  0  0  0
  -27.8592  -24.4368   18.9730 H   0  0  0  0  0  0
  -27.0427  -24.3566   20.4896 H   0  0  0  0  0  0
  -28.7956  -15.8491   20.9960 H   0  0  0  0  0  0
  1 25  1  0  0  0
  1 30  2  0  0  0
  1 82  1  0  0  0
  2  3  1  0  0  0
  2 25  1  0  0  0
  2 83  1  0  0  0
  2 84  1  0  0  0
  3  4  1  0  0  0
  3 85  1  0  0  0
  3 86  1  0  0  0
  4  5  1  0  0  0
  4 87  1  0  0  0
  4 88  1  0  0  0
  5  6  1  0  0  0
  5 26  1  0  0  0
  5 89  1  0  0  0
  6 25  1  0  0  0
  6 90  1  0  0  0
  6 91  1  0  0  0
  7  8  2  0  0  0
  7 26  1  0  0  0
  7 29  1  0  0  0
  8  9  1  0  0  0
  8 22  1  0  0  0
  9 10  1  0  0  0
  9 27  2  0  0  0
 10 11  2  0  0  0
 10 15  1  0  0  0
 11 12  1  0  0  0
 11 92  1  0  0  0
 12 13  2  0  0  0
 12 93  1  0  0  0
 13 14  1  0  0  0
 13 31  1  0  0  0
 14 15  2  0  0  0
 14 94  1  0  0  0
 15 95  1  0  0  0
 16 17  2  0  0  0
 16 21  1  0  0  0
 16 31  1  0  0  0
 17 18  1  0  0  0
 17 96  1  0  0  0
 18 19  2  0  0  0
 18 97  1  0  0  0
 19 20  1  0  0  0
 19 24  1  0  0  0
 20 21  2  0  0  0
 20 98  1  0  0  0
 21 23  1  0  0  0
 22 28  1  0  0  0
 22 32  2  0  0  0
 26 27  1  0  0  0
 28 99  1  0  0  0
 28100  1  0  0  0
 29101  1  0  0  0
 29102  1  0  0  0
 33 34  1  0  0  0
 33 66  1  0  0  0
 33 70  2  0  0  0
 34 36  1  0  0  0
 34 59  1  0  0  0
 34103  1  0  0  0
 35 44  2  0  0  0
 35 45  1  0  0  0
 35 68  1  0  0  0
 36 56  1  0  0  0
 36104  1  0  0  0
 37 39  1  0  0  0
 37 47  1  0  0  0
 37 66  1  0  0  0
 37105  1  0  0  0
 38 43  2  0  0  0
 38 46  1  0  0  0
 38 47  1  0  0  0
 39 64  1  0  0  0
 39 67  2  0  0  0
 40 52  1  0  0  0
 40 53  2  0  0  0
 40 58  1  0  0  0
 41106  1  0  0  0
 41107  1  0  0  0
 41108  1  0  0  0
 41 48  1  0  0  0
 42 43  1  0  0  0
 42 66  1  0  0  0
 42109  1  0  0  0
 42110  1  0  0  0
 43 44  1  0  0  0
 44111  1  0  0  0
 45 46  2  0  0  0
 45112  1  0  0  0
 46113  1  0  0  0
 47114  1  0  0  0
 47115  1  0  0  0
 48 56  1  0  0  0
 48 65  1  0  0  0
 48116  1  0  0  0
 49 50  1  0  0  0
 49 53  1  0  0  0
 49 64  1  0  0  0
 49117  1  0  0  0
 50 51  1  0  0  0
 50118  1  0  0  0
 50119  1  0  0  0
 51 52  1  0  0  0
 51120  1  0  0  0
 51121  1  0  0  0
 52122  1  0  0  0
 52123  1  0  0  0
 53 54  1  0  0  0
 54 55  2  0  0  0
 54124  1  0  0  0
 55 57  1  0  0  0
 55125  1  0  0  0
 56 69  2  0  0  0
 57 58  2  0  0  0
 57126  1  0  0  0
 58127  1  0  0  0
 59 60  1  0  0  0
 59 61  1  0  0  0
 59 62  1  0  0  0
 60128  1  0  0  0
 60129  1  0  0  0
 60130  1  0  0  0
 61131  1  0  0  0
 61132  1  0  0  0
 61133  1  0  0  0
 62134  1  0  0  0
 62135  1  0  0  0
 62136  1  0  0  0
 63 65  1  0  0  0
 63137  1  0  0  0
 63138  1  0  0  0
 63139  1  0  0  0
 64140  1  0  0  0
 65141  1  0  0  0
 68 80  1  0  0  0
 71 73  2  0  0  0
 71 74  1  0  0  0
 71142  1  0  0  0
 72 73  1  0  0  0
 72 81  2  0  0  0
 72143  1  0  0  0
 73 76  1  0  0  0
 74 75  2  0  0  0
 74 77  1  0  0  0
 75 78  1  0  0  0
 75 81  1  0  0  0
 76144  1  0  0  0
 76145  1  0  0  0
 76146  1  0  0  0
 77 79  1  0  0  0
 77147  1  0  0  0
 77148  1  0  0  0
 78 82  1  0  0  0
 78149  1  0  0  0
 78150  1  0  0  0
 79 80  1  0  0  0
 79151  1  0  0  0
 79152  1  0  0  0
 80153  1  0  0  0
 80154  1  0  0  0
 82155  1  0  0  0
M  ISO  4   1 100  68 101  80 101  82 100
M  END
> <chiral flag>
0

> <version>
0

> <s_m_source_file>
/data/baiqing/PycharmProjects/Reinvent-master-3.2/result/LINK_invent/BTK/process_docking_weight1_custom_sum_contain_oxygen_bond_distance_aromatic_linkinvent_7_9_3/rearranged_h_0046.sdf

> <i_m_source_file_index>
89

> <r_mmod_Potential_Energy-OPLS-2005>
384.918182373047

> <r_mmod_Stretch_Energy-OPLS-2005>
314.178161621094

> <r_mmod_Bend_Energy-OPLS-2005>
338.867401123047

> <r_mmod_Torsional_Energy-OPLS-2005>
206.180862426758

> <r_mmod_Improper_Torsional_Energy-OPLS-2005>
5.65108919143677

> <r_mmod_Van_der_Waal_Energy-OPLS-2005>
136.646713256836

> <r_mmod_Electrostatic_Energy-OPLS-2005>
-596.289367675781

> <r_mmod_Solvation_Energy-OPLS-2005>
-240.666641235352

> <b_mmod_Minimization_Converged-OPLS-2005>
0

> <r_mmod_RMS_Derivative-OPLS-2005>
2.36287569999695

$$$$
90
                    3D
 Structure written by MMmdl.
171179  0  0  1  0            999 V2000
  -30.7888  -14.3577   20.6720 C   0  0  0  0  0  0
  -30.4060  -12.2788   19.4002 C   0  0  0  0  0  0
  -29.4799  -12.5235   18.1945 C   0  0  0  0  0  0
  -28.0031  -12.3886   18.6062 C   0  0  0  0  0  0
  -27.6636  -13.2114   19.8780 C   0  0  2  0  0  0
  -28.7035  -12.9687   20.9973 C   0  0  0  0  0  0
  -25.2577  -13.8175   20.5679 C   0  0  0  0  0  0
  -24.1834  -13.0452   20.9201 C   0  0  0  0  0  0
  -24.6395  -11.6920   20.8750 C   0  0  0  0  0  0
  -23.9058  -10.4294   21.0391 C   0  0  0  0  0  0
  -24.3615   -9.4214   21.9172 C   0  0  0  0  0  0
  -23.6302   -8.2245   22.0742 C   0  0  0  0  0  0
  -22.4281   -8.0268   21.3543 C   0  0  0  0  0  0
  -21.9913   -9.0234   20.4644 C   0  0  0  0  0  0
  -22.7224  -10.2121   20.3034 C   0  0  0  0  0  0
  -21.6839   -6.0755   22.5289 C   0  0  0  0  0  0
  -21.4012   -6.5655   23.8231 C   0  0  0  0  0  0
  -21.3668   -5.6803   24.9191 C   0  0  0  0  0  0
  -21.6027   -4.3065   24.7233 C   0  0  0  0  0  0
  -21.8820   -3.8161   23.4346 C   0  0  0  0  0  0
  -21.9197   -4.6994   22.3417 C   0  0  0  0  0  0
  -22.7839  -13.5227   21.1865 C   0  0  0  0  0  0
  -22.1654   -4.2179   21.0992 F   0  0  0  0  0  0
  -21.5638   -3.4534   25.7737 F   0  0  0  0  0  0
  -30.0504  -13.2344   20.4607 N   0  0  0  0  0  0
  -26.3033  -12.9370   20.3391 N   0  0  0  0  0  0
  -25.9313  -11.6526   20.5778 N   0  0  0  0  0  0
  -22.0481  -12.8226   22.0435 N   0  0  0  0  0  0
  -25.4280  -15.1890   20.4052 N   0  0  0  0  0  0
  -31.7947  -14.6435   20.0136 O   0  0  0  0  0  0
  -21.6637   -6.8878   21.4245 O   0  0  0  0  0  0
  -22.3531  -14.5546   20.6718 O   0  0  0  0  0  0
  -24.6116  -31.8675   23.2087 C   0  0  0  0  0  0
  -25.9009  -32.4821   23.8374 C   0  0  1  0  0  0
  -27.2492  -27.4688   20.0925 C   0  0  0  0  0  0
  -25.5867  -33.8622   24.2329 N   0  0  0  0  0  0
  -23.3982  -30.4902   21.5493 C   0  0  2  0  0  0
  -24.8471  -28.9485   20.1227 C   0  0  0  0  0  0
  -22.7390  -29.4647   22.4994 C   0  0  0  0  0  0
  -18.0274  -28.1396   22.8519 C   0  0  0  0  0  0
  -24.1475  -36.7336   23.2646 C   0  0  0  0  0  0
  -25.9230  -30.8381   21.3570 C   0  0  0  0  0  0
  -26.0018  -29.4690   20.7218 C   0  0  0  0  0  0
  -27.2031  -28.7341   20.7140 C   0  0  0  0  0  0
  -26.0839  -26.9500   19.4897 C   0  0  0  0  0  0
  -24.8786  -27.6823   19.5090 C   0  0  0  0  0  0
  -23.6056  -29.8138   20.1670 C   0  0  0  0  0  0
  -25.4089  -36.3144   24.0347 C   0  0  1  0  0  0
  -20.5856  -28.3621   23.1324 C   0  0  2  0  0  0
  -20.6745  -26.9359   22.5400 C   0  0  0  0  0  0
  -19.5710  -26.6373   21.5215 C   0  0  0  0  0  0
  -18.1901  -26.7954   22.1626 C   0  0  0  0  0  0
  -19.1531  -28.8828   23.2953 C   0  0  0  0  0  0
  -18.9470  -30.1420   23.8993 C   0  0  0  0  0  0
  -17.6479  -30.6563   24.0674 C   0  0  0  0  0  0
  -25.9005  -34.9487   23.5138 C   0  0  0  0  0  0
  -16.5364  -29.9106   23.6374 C   0  0  0  0  0  0
  -16.7273  -28.6546   23.0350 C   0  0  0  0  0  0
  -26.4443  -31.6579   25.0681 C   0  0  0  0  0  0
  -25.3739  -31.3611   26.1433 C   0  0  0  0  0  0
  -27.0250  -30.3042   24.5998 C   0  0  0  0  0  0
  -27.6056  -32.4254   25.7410 C   0  0  0  0  0  0
  -27.5580  -37.1816   24.8468 C   0  0  0  0  0  0
  -21.4117  -29.3016   22.3760 N   0  0  0  0  0  0
  -26.4293  -37.3807   23.9393 N   0  0  0  0  0  0
  -24.6636  -31.0781   22.0979 N   0  0  0  0  0  0
  -23.4202  -28.8208   23.3029 O   0  0  0  0  0  0
  -28.4478  -26.8163   19.9693 O   0  0  0  0  0  0
  -26.5590  -34.8933   22.4718 O   0  0  0  0  0  0
  -23.5315  -32.1436   23.7475 O   0  0  0  0  0  0
  -27.0864  -22.7069   21.8756 C   0  0  0  0  0  0
  -26.7732  -21.4261   21.4889 C   0  0  0  0  0  0
  -27.9442  -21.3928   23.3430 C   0  0  0  0  0  0
  -28.7136  -20.8901   24.5192 C   0  0  0  0  0  0
  -24.5423  -20.6341   20.5657 C   0  0  0  0  0  0
  -31.0954  -15.0440   22.9383 C   0  0  0  0  0  0
  -26.8453  -23.9921   21.1522 C   0  0  0  0  0  0
  -26.0137  -20.9578   20.2795 C   0  0  0  0  0  0
  -28.1107  -24.4271   20.3896 C   0  0  0  0  0  0
  -28.5498  -18.5599   21.6987 C   0  0  0  0  0  0
  -28.7725  -17.0597   21.9500 C   0  0  0  0  0  0
  -27.3355  -19.1272   22.4530 C   0  0  0  0  0  0
  -30.0904  -16.5704   21.3275 C   0  0  0  0  0  0
  -28.7115  -25.7558   20.8757 C   0  0  0  0  0  0
  -27.8146  -22.6816   23.0575 N   0  0  0  0  0  0
  -27.3440  -20.5834   22.4448 N   0  0  0  0  0  0
  -30.3740  -15.1681   21.6673 N   0  0  0  0  0  0
  -31.4513  -12.3623   19.0958 H   0  0  0  0  0  0
  -30.2915  -11.2590   19.7721 H   0  0  0  0  0  0
  -29.7128  -11.8207   17.3931 H   0  0  0  0  0  0
  -29.6585  -13.5199   17.7890 H   0  0  0  0  0  0
  -27.7958  -11.3307   18.7759 H   0  0  0  0  0  0
  -27.3557  -12.6929   17.7836 H   0  0  0  0  0  0
  -27.7151  -14.2650   19.6022 H   0  0  0  0  0  0
  -28.6562  -11.9338   21.3367 H   0  0  0  0  0  0
  -28.4625  -13.5746   21.8732 H   0  0  0  0  0  0
  -25.2740   -9.5715   22.4775 H   0  0  0  0  0  0
  -24.0030   -7.4631   22.7427 H   0  0  0  0  0  0
  -21.0851   -8.8694   19.8942 H   0  0  0  0  0  0
  -22.3623  -10.9654   19.6148 H   0  0  0  0  0  0
  -21.1983   -7.6150   23.9744 H   0  0  0  0  0  0
  -21.1497   -6.0530   25.9102 H   0  0  0  0  0  0
  -22.0600   -2.7628   23.2827 H   0  0  0  0  0  0
  -22.4065  -11.9873   22.4818 H   0  0  0  0  0  0
  -21.1083  -13.1224   22.2596 H   0  0  0  0  0  0
  -24.6601  -15.8435   20.5077 H   0  0  0  0  0  0
  -26.2860  -15.6263   20.0940 H   0  0  0  0  0  0
  -26.7103  -32.5531   23.1154 H   0  0  0  0  0  0
  -25.0009  -33.9821   25.0463 H   0  0  0  0  0  0
  -22.6854  -31.3043   21.4067 H   0  0  0  0  0  0
  -23.3731  -35.9674   23.3317 H   0  0  0  0  0  0
  -24.3612  -36.8948   22.2075 H   0  0  0  0  0  0
  -23.7212  -37.6544   23.6626 H   0  0  0  0  0  0
  -26.0233  -31.5910   20.5753 H   0  0  0  0  0  0
  -26.8202  -30.9106   21.9589 H   0  0  0  0  0  0
  -28.1008  -29.1449   21.1571 H   0  0  0  0  0  0
  -26.1138  -25.9961   18.9824 H   0  0  0  0  0  0
  -23.9966  -27.2761   19.0320 H   0  0  0  0  0  0
  -23.7113  -30.5835   19.4014 H   0  0  0  0  0  0
  -22.7288  -29.2298   19.8792 H   0  0  0  0  0  0
  -25.1270  -36.2035   25.0842 H   0  0  0  0  0  0
  -20.9963  -28.3147   24.1447 H   0  0  0  0  0  0
  -20.5705  -26.2194   23.3563 H   0  0  0  0  0  0
  -21.6596  -26.7455   22.1157 H   0  0  0  0  0  0
  -19.6816  -25.6277   21.1237 H   0  0  0  0  0  0
  -19.6642  -27.3219   20.6771 H   0  0  0  0  0  0
  -17.4178  -26.6787   21.4007 H   0  0  0  0  0  0
  -18.0252  -26.0103   22.9005 H   0  0  0  0  0  0
  -19.7954  -30.7239   24.2367 H   0  0  0  0  0  0
  -17.5027  -31.6231   24.5302 H   0  0  0  0  0  0
  -15.5370  -30.3048   23.7620 H   0  0  0  0  0  0
  -15.8666  -28.0932   22.6957 H   0  0  0  0  0  0
  -24.5947  -30.6932   25.7743 H   0  0  0  0  0  0
  -24.8890  -32.2738   26.4895 H   0  0  0  0  0  0
  -25.8149  -30.8766   27.0157 H   0  0  0  0  0  0
  -26.2766  -29.6787   24.1149 H   0  0  0  0  0  0
  -27.4172  -29.7272   25.4377 H   0  0  0  0  0  0
  -27.8507  -30.4393   23.9024 H   0  0  0  0  0  0
  -27.2749  -33.3557   26.2005 H   0  0  0  0  0  0
  -28.3837  -32.6790   25.0208 H   0  0  0  0  0  0
  -28.0745  -31.8355   26.5290 H   0  0  0  0  0  0
  -28.2620  -38.0111   24.7557 H   0  0  0  0  0  0
  -28.1087  -36.2651   24.6249 H   0  0  0  0  0  0
  -27.2330  -37.1434   25.8895 H   0  0  0  0  0  0
  -20.9204  -29.8817   21.7113 H   0  0  0  0  0  0
  -26.0197  -38.2886   24.1399 H   0  0  0  0  0  0
  -29.3026  -21.6925   24.9635 H   0  0  0  0  0  0
  -29.3947  -20.0960   24.2163 H   0  0  0  0  0  0
  -28.0320  -20.5084   25.2785 H   0  0  0  0  0  0
  -24.0252  -20.3675   19.6434 H   0  0  0  0  0  0
  -24.0175  -21.4866   21.0004 H   0  0  0  0  0  0
  -24.4408  -19.7923   21.2498 H   0  0  0  0  0  0
  -30.5918  -15.6050   23.7258 H   0  0  0  0  0  0
  -32.1126  -15.4339   22.8474 H   0  0  0  0  0  0
  -31.1618  -14.0024   23.2617 H   0  0  0  0  0  0
  -26.5204  -24.7633   21.8519 H   0  0  0  0  0  0
  -26.0212  -23.8740   20.4513 H   0  0  0  0  0  0
  -26.5101  -20.0913   19.8430 H   0  0  0  0  0  0
  -26.0503  -21.7203   19.5021 H   0  0  0  0  0  0
  -27.9033  -24.4780   19.3211 H   0  0  0  0  0  0
  -28.8710  -23.6497   20.4886 H   0  0  0  0  0  0
  -28.4329  -18.7440   20.6296 H   0  0  0  0  0  0
  -29.4459  -19.1065   21.9982 H   0  0  0  0  0  0
  -27.9354  -16.4822   21.5548 H   0  0  0  0  0  0
  -28.7852  -16.8804   23.0255 H   0  0  0  0  0  0
  -27.3280  -18.7845   23.4879 H   0  0  0  0  0  0
  -26.4080  -18.7641   22.0126 H   0  0  0  0  0  0
  -30.9228  -17.2006   21.6473 H   0  0  0  0  0  0
  -30.0273  -16.7089   20.2438 H   0  0  0  0  0  0
  -29.7954  -25.6501   20.8999 H   0  0  0  0  0  0
  -28.4137  -26.0020   21.8979 H   0  0  0  0  0  0
  1 25  1  0  0  0
  1 30  2  0  0  0
  1 87  1  0  0  0
  2  3  1  0  0  0
  2 25  1  0  0  0
  2 88  1  0  0  0
  2 89  1  0  0  0
  3  4  1  0  0  0
  3 90  1  0  0  0
  3 91  1  0  0  0
  4  5  1  0  0  0
  4 92  1  0  0  0
  4 93  1  0  0  0
  5  6  1  0  0  0
  5 26  1  0  0  0
  5 94  1  0  0  0
  6 25  1  0  0  0
  6 95  1  0  0  0
  6 96  1  0  0  0
  7  8  2  0  0  0
  7 26  1  0  0  0
  7 29  1  0  0  0
  8  9  1  0  0  0
  8 22  1  0  0  0
  9 10  1  0  0  0
  9 27  2  0  0  0
 10 11  2  0  0  0
 10 15  1  0  0  0
 11 12  1  0  0  0
 11 97  1  0  0  0
 12 13  2  0  0  0
 12 98  1  0  0  0
 13 14  1  0  0  0
 13 31  1  0  0  0
 14 15  2  0  0  0
 14 99  1  0  0  0
 15100  1  0  0  0
 16 17  2  0  0  0
 16 21  1  0  0  0
 16 31  1  0  0  0
 17 18  1  0  0  0
 17101  1  0  0  0
 18 19  2  0  0  0
 18102  1  0  0  0
 19 20  1  0  0  0
 19 24  1  0  0  0
 20 21  2  0  0  0
 20103  1  0  0  0
 21 23  1  0  0  0
 22 28  1  0  0  0
 22 32  2  0  0  0
 26 27  1  0  0  0
 28104  1  0  0  0
 28105  1  0  0  0
 29106  1  0  0  0
 29107  1  0  0  0
 33 34  1  0  0  0
 33 66  1  0  0  0
 33 70  2  0  0  0
 34 36  1  0  0  0
 34 59  1  0  0  0
 34108  1  0  0  0
 35 44  2  0  0  0
 35 45  1  0  0  0
 35 68  1  0  0  0
 36 56  1  0  0  0
 36109  1  0  0  0
 37 39  1  0  0  0
 37 47  1  0  0  0
 37 66  1  0  0  0
 37110  1  0  0  0
 38 43  2  0  0  0
 38 46  1  0  0  0
 38 47  1  0  0  0
 39 64  1  0  0  0
 39 67  2  0  0  0
 40 52  1  0  0  0
 40 53  2  0  0  0
 40 58  1  0  0  0
 41111  1  0  0  0
 41112  1  0  0  0
 41113  1  0  0  0
 41 48  1  0  0  0
 42 43  1  0  0  0
 42 66  1  0  0  0
 42114  1  0  0  0
 42115  1  0  0  0
 43 44  1  0  0  0
 44116  1  0  0  0
 45 46  2  0  0  0
 45117  1  0  0  0
 46118  1  0  0  0
 47119  1  0  0  0
 47120  1  0  0  0
 48 56  1  0  0  0
 48 65  1  0  0  0
 48121  1  0  0  0
 49 50  1  0  0  0
 49 53  1  0  0  0
 49 64  1  0  0  0
 49122  1  0  0  0
 50 51  1  0  0  0
 50123  1  0  0  0
 50124  1  0  0  0
 51 52  1  0  0  0
 51125  1  0  0  0
 51126  1  0  0  0
 52127  1  0  0  0
 52128  1  0  0  0
 53 54  1  0  0  0
 54 55  2  0  0  0
 54129  1  0  0  0
 55 57  1  0  0  0
 55130  1  0  0  0
 56 69  2  0  0  0
 57 58  2  0  0  0
 57131  1  0  0  0
 58132  1  0  0  0
 59 60  1  0  0  0
 59 61  1  0  0  0
 59 62  1  0  0  0
 60133  1  0  0  0
 60134  1  0  0  0
 60135  1  0  0  0
 61136  1  0  0  0
 61137  1  0  0  0
 61138  1  0  0  0
 62139  1  0  0  0
 62140  1  0  0  0
 62141  1  0  0  0
 63 65  1  0  0  0
 63142  1  0  0  0
 63143  1  0  0  0
 63144  1  0  0  0
 64145  1  0  0  0
 65146  1  0  0  0
 68 84  1  0  0  0
 71 72  2  0  0  0
 71 77  1  0  0  0
 71 85  1  0  0  0
 72 78  1  0  0  0
 72 86  1  0  0  0
 73 74  1  0  0  0
 73 85  2  0  0  0
 73 86  1  0  0  0
 74147  1  0  0  0
 74148  1  0  0  0
 74149  1  0  0  0
 75 78  1  0  0  0
 75150  1  0  0  0
 75151  1  0  0  0
 75152  1  0  0  0
 76 87  1  0  0  0
 76153  1  0  0  0
 76154  1  0  0  0
 76155  1  0  0  0
 77 79  1  0  0  0
 77156  1  0  0  0
 77157  1  0  0  0
 78158  1  0  0  0
 78159  1  0  0  0
 79 84  1  0  0  0
 79160  1  0  0  0
 79161  1  0  0  0
 80 81  1  0  0  0
 80 82  1  0  0  0
 80162  1  0  0  0
 80163  1  0  0  0
 81 83  1  0  0  0
 81164  1  0  0  0
 81165  1  0  0  0
 82 86  1  0  0  0
 82166  1  0  0  0
 82167  1  0  0  0
 83 87  1  0  0  0
 83168  1  0  0  0
 83169  1  0  0  0
 84170  1  0  0  0
 84171  1  0  0  0
M  ISO  4   1 100  68 101  84 101  87 100
M  END
> <chiral flag>
0

> <version>
0

> <s_m_source_file>
/data/baiqing/PycharmProjects/Reinvent-master-3.2/result/LINK_invent/BTK/process_docking_weight1_custom_sum_contain_oxygen_bond_distance_aromatic_linkinvent_7_9_3/rearranged_h_0046.sdf

> <i_m_source_file_index>
90

> <r_mmod_Potential_Energy-OPLS-2005>
49.9319725036621

> <r_mmod_Stretch_Energy-OPLS-2005>
32.3344841003418

> <r_mmod_Bend_Energy-OPLS-2005>
103.013664245605

> <r_mmod_Torsional_Energy-OPLS-2005>
328.507873535156

> <r_mmod_Improper_Torsional_Energy-OPLS-2005>
6.52134418487549

> <r_mmod_Van_der_Waal_Energy-OPLS-2005>
116.206207275391

> <r_mmod_Electrostatic_Energy-OPLS-2005>
-345.298492431641

> <r_mmod_Solvation_Energy-OPLS-2005>
-198.734771728516

> <b_mmod_Minimization_Converged-OPLS-2005>
0

> <r_mmod_RMS_Derivative-OPLS-2005>
4.38005971908569

$$$$
91
                    3D
 Structure written by MMmdl.
167175  0  0  1  0            999 V2000
  -30.7125  -14.7226   20.6108 C   0  0  0  0  0  0
  -30.4420  -12.4884   19.4848 C   0  0  0  0  0  0
  -29.5228  -12.5320   18.2413 C   0  0  0  0  0  0
  -28.0464  -12.3433   18.6387 C   0  0  0  0  0  0
  -27.6546  -13.2287   19.8504 C   0  0  2  0  0  0
  -28.6970  -13.1214   20.9877 C   0  0  0  0  0  0
  -25.2563  -13.8198   20.5583 C   0  0  0  0  0  0
  -24.1860  -13.0447   20.9129 C   0  0  0  0  0  0
  -24.6434  -11.6959   20.8710 C   0  0  0  0  0  0
  -23.9106  -10.4355   21.0413 C   0  0  0  0  0  0
  -24.3678   -9.4292   21.9182 C   0  0  0  0  0  0
  -23.6331   -8.2352   22.0783 C   0  0  0  0  0  0
  -22.4296   -8.0387   21.3614 C   0  0  0  0  0  0
  -21.9960   -9.0334   20.4699 C   0  0  0  0  0  0
  -22.7295  -10.2194   20.3052 C   0  0  0  0  0  0
  -21.6889   -6.0802   22.5274 C   0  0  0  0  0  0
  -21.4045   -6.5684   23.8206 C   0  0  0  0  0  0
  -21.3629   -5.6819   24.9142 C   0  0  0  0  0  0
  -21.6035   -4.3080   24.7213 C   0  0  0  0  0  0
  -21.8817   -3.8200   23.4313 C   0  0  0  0  0  0
  -21.9219   -4.7026   22.3382 C   0  0  0  0  0  0
  -22.7892  -13.5268   21.1807 C   0  0  0  0  0  0
  -22.1689   -4.2202   21.0963 F   0  0  0  0  0  0
  -21.5604   -3.4550   25.7716 F   0  0  0  0  0  0
  -30.0134  -13.5270   20.4650 N   0  0  0  0  0  0
  -26.2987  -12.9387   20.3217 N   0  0  0  0  0  0
  -25.9371  -11.6529   20.5729 N   0  0  0  0  0  0
  -22.0567  -12.8224   22.0358 N   0  0  0  0  0  0
  -25.4287  -15.1904   20.3961 N   0  0  0  0  0  0
  -31.7511  -14.8245   19.9476 O   0  0  0  0  0  0
  -21.6690   -6.8955   21.4262 O   0  0  0  0  0  0
  -22.3590  -14.5564   20.6654 O   0  0  0  0  0  0
  -24.6200  -31.8621   23.2052 C   0  0  0  0  0  0
  -25.9072  -32.4763   23.8362 C   0  0  1  0  0  0
  -27.2348  -27.3194   20.1448 C   0  0  0  0  0  0
  -25.5915  -33.8566   24.2287 N   0  0  0  0  0  0
  -23.4161  -30.4874   21.5425 C   0  0  2  0  0  0
  -24.8729  -28.9475   20.1083 C   0  0  0  0  0  0
  -22.7446  -29.4635   22.4882 C   0  0  0  0  0  0
  -18.0340  -28.1406   22.8442 C   0  0  0  0  0  0
  -24.1495  -36.7283   23.2644 C   0  0  0  0  0  0
  -25.9597  -30.7946   21.3848 C   0  0  0  0  0  0
  -26.0343  -29.4246   20.7219 C   0  0  0  0  0  0
  -27.2117  -28.6213   20.7341 C   0  0  0  0  0  0
  -26.0535  -26.9084   19.4838 C   0  0  0  0  0  0
  -24.8836  -27.6921   19.4813 C   0  0  0  0  0  0
  -23.6376  -29.8260   20.1568 C   0  0  0  0  0  0
  -25.4125  -36.3073   24.0316 C   0  0  1  0  0  0
  -20.5910  -28.3731   23.1276 C   0  0  2  0  0  0
  -20.6812  -26.9408   22.5508 C   0  0  0  0  0  0
  -19.5826  -26.6325   21.5277 C   0  0  0  0  0  0
  -18.1992  -26.7913   22.1637 C   0  0  0  0  0  0
  -19.1581  -28.8894   23.2810 C   0  0  0  0  0  0
  -18.9485  -30.1487   23.8827 C   0  0  0  0  0  0
  -17.6483  -30.6615   24.0506 C   0  0  0  0  0  0
  -25.9052  -34.9442   23.5101 C   0  0  0  0  0  0
  -16.5379  -29.9091   23.6311 C   0  0  0  0  0  0
  -16.7300  -28.6488   23.0350 C   0  0  0  0  0  0
  -26.4497  -31.6583   25.0746 C   0  0  0  0  0  0
  -25.3757  -31.3720   26.1487 C   0  0  0  0  0  0
  -27.0353  -30.2987   24.6260 C   0  0  0  0  0  0
  -27.6030  -32.4345   25.7531 C   0  0  0  0  0  0
  -27.5583  -37.1797   24.8469 C   0  0  0  0  0  0
  -21.4176  -29.3027   22.3611 N   0  0  0  0  0  0
  -26.4307  -37.3759   23.9394 N   0  0  0  0  0  0
  -24.6821  -31.0656   22.0990 N   0  0  0  0  0  0
  -23.4177  -28.8239   23.2999 O   0  0  0  0  0  0
  -28.3651  -26.4831   20.2512 O   0  0  0  0  0  0
  -26.5636  -34.8893   22.4679 O   0  0  0  0  0  0
  -23.5381  -32.1420   23.7426 O   0  0  0  0  0  0
  -30.9989  -18.1055   20.1266 C   0  0  0  0  0  0
  -30.1300  -17.4601   20.9879 C   0  0  0  0  0  0
  -29.6374  -19.7395   20.8113 C   0  0  0  0  0  0
  -27.2734  -17.4342   22.6808 C   0  0  0  0  0  0
  -26.8233  -18.6572   20.5251 C   0  0  0  0  0  0
  -29.6839  -15.5573   22.9011 C   0  0  0  0  0  0
  -31.8242  -16.2425   22.2392 C   0  0  0  0  0  0
  -29.1426  -21.2032   21.1636 C   0  0  0  0  0  0
  -29.2300  -22.4576   20.1765 C   0  0  0  0  0  0
  -28.9599  -23.9200   20.7916 C   0  0  0  0  0  0
  -28.3408  -25.0496   19.8537 C   0  0  0  0  0  0
  -27.7665  -18.5198   21.7395 C   0  0  0  0  0  0
  -30.4184  -15.9876   21.6035 C   0  0  0  0  0  0
  -29.1766  -18.5081   21.2420 N   0  0  0  0  0  0
  -30.7264  -19.4532   20.0999 N   0  3  0  0  0  0
  -31.4808  -12.6092   19.1761 H   0  0  0  0  0  0
  -30.4161  -11.5070   19.9559 H   0  0  0  0  0  0
  -29.8156  -11.7561   17.5303 H   0  0  0  0  0  0
  -29.6514  -13.4879   17.7310 H   0  0  0  0  0  0
  -27.8964  -11.2883   18.8804 H   0  0  0  0  0  0
  -27.3972  -12.5511   17.7882 H   0  0  0  0  0  0
  -27.6644  -14.2598   19.4964 H   0  0  0  0  0  0
  -28.7396  -12.1033   21.3706 H   0  0  0  0  0  0
  -28.3555  -13.6893   21.8328 H   0  0  0  0  0  0
  -25.2838   -9.5787   22.4727 H   0  0  0  0  0  0
  -24.0054   -7.4756   22.7478 H   0  0  0  0  0  0
  -21.0901   -8.8851   19.8995 H   0  0  0  0  0  0
  -22.3758  -10.9721   19.6139 H   0  0  0  0  0  0
  -21.2070   -7.6194   23.9683 H   0  0  0  0  0  0
  -21.1421   -6.0574   25.9020 H   0  0  0  0  0  0
  -22.0616   -2.7682   23.2786 H   0  0  0  0  0  0
  -22.4124  -11.9822   22.4629 H   0  0  0  0  0  0
  -21.1192  -13.1255   22.2528 H   0  0  0  0  0  0
  -24.6734  -15.8554   20.5220 H   0  0  0  0  0  0
  -26.2943  -15.6276   20.1035 H   0  0  0  0  0  0
  -26.7161  -32.5446   23.1119 H   0  0  0  0  0  0
  -25.0043  -33.9727   25.0421 H   0  0  0  0  0  0
  -22.7035  -31.3030   21.4010 H   0  0  0  0  0  0
  -23.3751  -35.9623   23.3321 H   0  0  0  0  0  0
  -24.3599  -36.8896   22.2062 H   0  0  0  0  0  0
  -23.7241  -37.6471   23.6685 H   0  0  0  0  0  0
  -26.1133  -31.5675   20.6281 H   0  0  0  0  0  0
  -26.8276  -30.8264   22.0330 H   0  0  0  0  0  0
  -28.0943  -28.9878   21.2353 H   0  0  0  0  0  0
  -25.9813  -25.9681   18.9633 H   0  0  0  0  0  0
  -23.9978  -27.3170   18.9879 H   0  0  0  0  0  0
  -23.7575  -30.6057   19.4021 H   0  0  0  0  0  0
  -22.7592  -29.2571   19.8516 H   0  0  0  0  0  0
  -25.1312  -36.1920   25.0805 H   0  0  0  0  0  0
  -20.9954  -28.3352   24.1398 H   0  0  0  0  0  0
  -20.5629  -26.2389   23.3787 H   0  0  0  0  0  0
  -21.6697  -26.7341   22.1398 H   0  0  0  0  0  0
  -19.7008  -25.6178   21.1445 H   0  0  0  0  0  0
  -19.6850  -27.3033   20.6747 H   0  0  0  0  0  0
  -17.4256  -26.6582   21.4068 H   0  0  0  0  0  0
  -18.0398  -26.0122   22.9122 H   0  0  0  0  0  0
  -19.7974  -30.7314   24.2187 H   0  0  0  0  0  0
  -17.5024  -31.6296   24.5097 H   0  0  0  0  0  0
  -15.5385  -30.2965   23.7678 H   0  0  0  0  0  0
  -15.8690  -28.0794   22.7106 H   0  0  0  0  0  0
  -24.5937  -30.7053   25.7856 H   0  0  0  0  0  0
  -24.8974  -32.2894   26.4919 H   0  0  0  0  0  0
  -25.8114  -30.8917   27.0255 H   0  0  0  0  0  0
  -26.2971  -29.6698   24.1285 H   0  0  0  0  0  0
  -27.4008  -29.7266   25.4801 H   0  0  0  0  0  0
  -27.8852  -30.4217   23.9542 H   0  0  0  0  0  0
  -27.2591  -33.3630   26.2083 H   0  0  0  0  0  0
  -28.3849  -32.6907   25.0384 H   0  0  0  0  0  0
  -28.0689  -31.8502   26.5467 H   0  0  0  0  0  0
  -28.2588  -38.0103   24.7499 H   0  0  0  0  0  0
  -28.1064  -36.2617   24.6310 H   0  0  0  0  0  0
  -27.2300  -37.1478   25.8872 H   0  0  0  0  0  0
  -20.9339  -29.8649   21.6740 H   0  0  0  0  0  0
  -26.0169  -38.2823   24.1382 H   0  0  0  0  0  0
  -31.8801  -17.7333   19.6257 H   0  0  0  0  0  0
  -26.3181  -17.7221   23.1186 H   0  0  0  0  0  0
  -27.9297  -17.3105   23.5357 H   0  0  0  0  0  0
  -27.0777  -16.5065   22.1492 H   0  0  0  0  0  0
  -25.7916  -18.3758   20.7577 H   0  0  0  0  0  0
  -27.1649  -18.0232   19.7048 H   0  0  0  0  0  0
  -26.8081  -19.6803   20.1500 H   0  0  0  0  0  0
  -28.6287  -15.3898   22.8090 H   0  0  0  0  0  0
  -30.0669  -14.5914   23.2404 H   0  0  0  0  0  0
  -29.8381  -16.2405   23.7391 H   0  0  0  0  0  0
  -32.5979  -16.5020   21.5158 H   0  0  0  0  0  0
  -31.8045  -17.0754   22.9430 H   0  0  0  0  0  0
  -32.1982  -15.3718   22.7785 H   0  0  0  0  0  0
  -29.6826  -21.4556   22.0778 H   0  0  0  0  0  0
  -28.0979  -21.1485   21.4515 H   0  0  0  0  0  0
  -30.2083  -22.4803   19.6949 H   0  0  0  0  0  0
  -28.5126  -22.2998   19.3732 H   0  0  0  0  0  0
  -29.8969  -24.2853   21.2110 H   0  0  0  0  0  0
  -28.2893  -23.8165   21.6477 H   0  0  0  0  0  0
  -27.3295  -24.6949   19.6851 H   0  0  0  0  0  0
  -28.8485  -25.0044   18.8924 H   0  0  0  0  0  0
  -27.6686  -19.3849   22.3894 H   0  0  0  0  0  0
  -31.3095  -20.1418   19.6438 H   0  0  0  0  0  0
  1 25  1  0  0  0
  1 30  2  0  0  0
  1 83  1  0  0  0
  2  3  1  0  0  0
  2 25  1  0  0  0
  2 86  1  0  0  0
  2 87  1  0  0  0
  3  4  1  0  0  0
  3 88  1  0  0  0
  3 89  1  0  0  0
  4  5  1  0  0  0
  4 90  1  0  0  0
  4 91  1  0  0  0
  5  6  1  0  0  0
  5 26  1  0  0  0
  5 92  1  0  0  0
  6 25  1  0  0  0
  6 93  1  0  0  0
  6 94  1  0  0  0
  7  8  2  0  0  0
  7 26  1  0  0  0
  7 29  1  0  0  0
  8  9  1  0  0  0
  8 22  1  0  0  0
  9 10  1  0  0  0
  9 27  2  0  0  0
 10 11  2  0  0  0
 10 15  1  0  0  0
 11 12  1  0  0  0
 11 95  1  0  0  0
 12 13  2  0  0  0
 12 96  1  0  0  0
 13 14  1  0  0  0
 13 31  1  0  0  0
 14 15  2  0  0  0
 14 97  1  0  0  0
 15 98  1  0  0  0
 16 17  2  0  0  0
 16 21  1  0  0  0
 16 31  1  0  0  0
 17 18  1  0  0  0
 17 99  1  0  0  0
 18 19  2  0  0  0
 18100  1  0  0  0
 19 20  1  0  0  0
 19 24  1  0  0  0
 20 21  2  0  0  0
 20101  1  0  0  0
 21 23  1  0  0  0
 22 28  1  0  0  0
 22 32  2  0  0  0
 26 27  1  0  0  0
 28102  1  0  0  0
 28103  1  0  0  0
 29104  1  0  0  0
 29105  1  0  0  0
 33 34  1  0  0  0
 33 66  1  0  0  0
 33 70  2  0  0  0
 34 36  1  0  0  0
 34 59  1  0  0  0
 34106  1  0  0  0
 35 44  2  0  0  0
 35 45  1  0  0  0
 35 68  1  0  0  0
 36 56  1  0  0  0
 36107  1  0  0  0
 37 39  1  0  0  0
 37 47  1  0  0  0
 37 66  1  0  0  0
 37108  1  0  0  0
 38 43  2  0  0  0
 38 46  1  0  0  0
 38 47  1  0  0  0
 39 64  1  0  0  0
 39 67  2  0  0  0
 40 52  1  0  0  0
 40 53  2  0  0  0
 40 58  1  0  0  0
 41109  1  0  0  0
 41110  1  0  0  0
 41111  1  0  0  0
 41 48  1  0  0  0
 42 43  1  0  0  0
 42 66  1  0  0  0
 42112  1  0  0  0
 42113  1  0  0  0
 43 44  1  0  0  0
 44114  1  0  0  0
 45 46  2  0  0  0
 45115  1  0  0  0
 46116  1  0  0  0
 47117  1  0  0  0
 47118  1  0  0  0
 48 56  1  0  0  0
 48 65  1  0  0  0
 48119  1  0  0  0
 49 50  1  0  0  0
 49 53  1  0  0  0
 49 64  1  0  0  0
 49120  1  0  0  0
 50 51  1  0  0  0
 50121  1  0  0  0
 50122  1  0  0  0
 51 52  1  0  0  0
 51123  1  0  0  0
 51124  1  0  0  0
 52125  1  0  0  0
 52126  1  0  0  0
 53 54  1  0  0  0
 54 55  2  0  0  0
 54127  1  0  0  0
 55 57  1  0  0  0
 55128  1  0  0  0
 56 69  2  0  0  0
 57 58  2  0  0  0
 57129  1  0  0  0
 58130  1  0  0  0
 59 60  1  0  0  0
 59 61  1  0  0  0
 59 62  1  0  0  0
 60131  1  0  0  0
 60132  1  0  0  0
 60133  1  0  0  0
 61134  1  0  0  0
 61135  1  0  0  0
 61136  1  0  0  0
 62137  1  0  0  0
 62138  1  0  0  0
 62139  1  0  0  0
 63 65  1  0  0  0
 63140  1  0  0  0
 63141  1  0  0  0
 63142  1  0  0  0
 64143  1  0  0  0
 65144  1  0  0  0
 68 81  1  0  0  0
 71 72  2  0  0  0
 71 85  1  0  0  0
 71145  1  0  0  0
 72 83  1  0  0  0
 72 84  1  0  0  0
 73 78  1  0  0  0
 73 84  1  0  0  0
 73 85  2  0  0  0
 74146  1  0  0  0
 74147  1  0  0  0
 74148  1  0  0  0
 74 82  1  0  0  0
 75 82  1  0  0  0
 75149  1  0  0  0
 75150  1  0  0  0
 75151  1  0  0  0
 76152  1  0  0  0
 76153  1  0  0  0
 76154  1  0  0  0
 76 83  1  0  0  0
 77 83  1  0  0  0
 77155  1  0  0  0
 77156  1  0  0  0
 77157  1  0  0  0
 78 79  1  0  0  0
 78158  1  0  0  0
 78159  1  0  0  0
 79 80  1  0  0  0
 79160  1  0  0  0
 79161  1  0  0  0
 80 81  1  0  0  0
 80162  1  0  0  0
 80163  1  0  0  0
 81164  1  0  0  0
 81165  1  0  0  0
 82 84  1  0  0  0
 82166  1  0  0  0
 85167  1  0  0  0
M  CHG  1  85   1
M  ISO  4   1 100  68 101  81 101  83 100
M  END
> <chiral flag>
0

> <version>
0

> <s_m_source_file>
/data/baiqing/PycharmProjects/Reinvent-master-3.2/result/LINK_invent/BTK/process_docking_weight1_custom_sum_contain_oxygen_bond_distance_aromatic_linkinvent_7_9_3/rearranged_h_0046.sdf

> <i_m_source_file_index>
91

> <r_mmod_Potential_Energy-OPLS-2005>
356.009429931641

> <r_mmod_Stretch_Energy-OPLS-2005>
139.300323486328

> <r_mmod_Bend_Energy-OPLS-2005>
269.070007324219

> <r_mmod_Torsional_Energy-OPLS-2005>
262.306121826172

> <r_mmod_Improper_Torsional_Energy-OPLS-2005>
4.00288248062134

> <r_mmod_Van_der_Waal_Energy-OPLS-2005>
161.875473022461

> <r_mmod_Electrostatic_Energy-OPLS-2005>
-163.10856628418

> <r_mmod_Solvation_Energy-OPLS-2005>
-382.919860839844

> <b_mmod_Minimization_Converged-OPLS-2005>
0

> <r_mmod_RMS_Derivative-OPLS-2005>
6.79145431518555

$$$$
92
                    3D
 Structure written by MMmdl.
161168  0  0  1  0            999 V2000
  -30.5666  -14.9256   20.4350 C   0  0  0  0  0  0
  -30.4300  -12.5765   19.5100 C   0  0  0  0  0  0
  -29.5242  -12.5298   18.2617 C   0  0  0  0  0  0
  -28.0570  -12.3072   18.6802 C   0  0  0  0  0  0
  -27.6301  -13.2496   19.8356 C   0  0  2  0  0  0
  -28.6625  -13.2914   20.9818 C   0  0  0  0  0  0
  -25.2468  -13.8223   20.5800 C   0  0  0  0  0  0
  -24.1784  -13.0431   20.9278 C   0  0  0  0  0  0
  -24.6353  -11.6921   20.8702 C   0  0  0  0  0  0
  -23.9008  -10.4294   21.0361 C   0  0  0  0  0  0
  -24.3564   -9.4206   21.9142 C   0  0  0  0  0  0
  -23.6302   -8.2201   22.0696 C   0  0  0  0  0  0
  -22.4268   -8.0213   21.3514 C   0  0  0  0  0  0
  -21.9881   -9.0198   20.4618 C   0  0  0  0  0  0
  -22.7162  -10.2107   20.3030 C   0  0  0  0  0  0
  -21.6839   -6.0677   22.5266 C   0  0  0  0  0  0
  -21.4000   -6.5605   23.8183 C   0  0  0  0  0  0
  -21.3696   -5.6751   24.9148 C   0  0  0  0  0  0
  -21.6064   -4.3027   24.7196 C   0  0  0  0  0  0
  -21.8835   -3.8091   23.4321 C   0  0  0  0  0  0
  -21.9198   -4.6919   22.3365 C   0  0  0  0  0  0
  -22.7792  -13.5221   21.1927 C   0  0  0  0  0  0
  -22.1695   -4.2078   21.0955 F   0  0  0  0  0  0
  -21.5622   -3.4528   25.7749 F   0  0  0  0  0  0
  -29.9505  -13.6769   20.3928 N   0  0  0  0  0  0
  -26.2875  -12.9453   20.3245 N   0  0  0  0  0  0
  -25.9279  -11.6577   20.5678 N   0  0  0  0  0  0
  -22.0430  -12.8210   22.0487 N   0  0  0  0  0  0
  -25.4193  -15.1956   20.4298 N   0  0  0  0  0  0
  -31.7650  -14.9791   20.1499 O   0  0  0  0  0  0
  -21.6608   -6.8834   21.4226 O   0  0  0  0  0  0
  -22.3512  -14.5518   20.6753 O   0  0  0  0  0  0
  -24.6381  -31.8387   23.1863 C   0  0  0  0  0  0
  -25.9158  -32.4662   23.8256 C   0  0  1  0  0  0
  -27.2594  -27.1645   20.1546 C   0  0  0  0  0  0
  -25.5896  -33.8473   24.2167 N   0  0  0  0  0  0
  -23.4482  -30.4499   21.5249 C   0  0  2  0  0  0
  -24.9059  -28.8702   20.1069 C   0  0  0  0  0  0
  -22.7589  -29.4491   22.4835 C   0  0  0  0  0  0
  -18.0319  -28.1395   22.8467 C   0  0  0  0  0  0
  -24.1491  -36.7272   23.2647 C   0  0  0  0  0  0
  -25.9945  -30.7184   21.3859 C   0  0  0  0  0  0
  -26.0702  -29.3302   20.7321 C   0  0  0  0  0  0
  -27.2383  -28.4867   20.7479 C   0  0  0  0  0  0
  -26.0734  -26.7892   19.4910 C   0  0  0  0  0  0
  -24.9188  -27.6121   19.4737 C   0  0  0  0  0  0
  -23.6777  -29.7651   20.1457 C   0  0  0  0  0  0
  -25.4111  -36.3023   24.0315 C   0  0  1  0  0  0
  -20.5929  -28.3714   23.1248 C   0  0  2  0  0  0
  -20.6782  -26.9409   22.5418 C   0  0  0  0  0  0
  -19.5764  -26.6376   21.5206 C   0  0  0  0  0  0
  -18.1945  -26.7938   22.1612 C   0  0  0  0  0  0
  -19.1569  -28.8874   23.2847 C   0  0  0  0  0  0
  -18.9476  -30.1473   23.8865 C   0  0  0  0  0  0
  -17.6460  -30.6594   24.0555 C   0  0  0  0  0  0
  -25.9044  -34.9395   23.5072 C   0  0  0  0  0  0
  -16.5358  -29.9071   23.6335 C   0  0  0  0  0  0
  -16.7298  -28.6504   23.0335 C   0  0  0  0  0  0
  -26.4491  -31.6551   25.0727 C   0  0  0  0  0  0
  -25.3722  -31.3736   26.1471 C   0  0  0  0  0  0
  -27.0320  -30.2941   24.6307 C   0  0  0  0  0  0
  -27.6035  -32.4327   25.7486 C   0  0  0  0  0  0
  -27.5589  -37.1775   24.8451 C   0  0  0  0  0  0
  -21.4272  -29.3038   22.3613 N   0  0  0  0  0  0
  -26.4283  -37.3731   23.9417 N   0  0  0  0  0  0
  -24.7116  -31.0250   22.0877 N   0  0  0  0  0  0
  -23.4231  -28.8060   23.3001 O   0  0  0  0  0  0
  -28.3600  -26.2539   20.2992 O   0  0  0  0  0  0
  -26.5638  -34.8898   22.4659 O   0  0  0  0  0  0
  -23.5509  -32.1216   23.7113 O   0  0  0  0  0  0
  -31.5990  -21.9778   19.2387 C   0  0  0  0  0  0
  -27.7933  -18.6332   20.7325 C   0  0  0  0  0  0
  -28.8606  -20.4784   18.5812 C   0  0  0  0  0  0
  -31.0436  -20.6707   19.8422 C   0  0  0  0  0  0
  -28.1366  -23.3061   20.1169 C   0  0  0  0  0  0
  -28.9830  -21.9761   20.7388 C   0  0  0  0  0  0
  -30.1534  -17.6179   20.2293 C   0  0  0  0  0  0
  -28.5965  -24.8597   19.6696 C   0  0  0  0  0  0
  -29.2890  -18.9986   20.6871 C   0  0  1  0  0  0
  -29.4983  -20.5416   19.9899 C   0  0  1  0  0  0
  -29.8058  -16.1155   20.5773 N   0  0  0  0  0  0
  -31.4739  -12.7040   19.2248 H   0  0  0  0  0  0
  -30.3840  -11.6260   20.0421 H   0  0  0  0  0  0
  -29.8624  -11.7372   17.5920 H   0  0  0  0  0  0
  -29.6113  -13.4647   17.7051 H   0  0  0  0  0  0
  -27.9695  -11.2737   19.0101 H   0  0  0  0  0  0
  -27.3826  -12.4134   17.8310 H   0  0  0  0  0  0
  -27.5934  -14.2488   19.3998 H   0  0  0  0  0  0
  -28.7304  -12.3272   21.4926 H   0  0  0  0  0  0
  -28.3525  -14.0183   21.7348 H   0  0  0  0  0  0
  -25.2693   -9.5728   22.4711 H   0  0  0  0  0  0
  -24.0020   -7.4597   22.7403 H   0  0  0  0  0  0
  -21.0796   -8.8674   19.8954 H   0  0  0  0  0  0
  -22.3562  -10.9615   19.6125 H   0  0  0  0  0  0
  -21.1977   -7.6119   23.9717 H   0  0  0  0  0  0
  -21.1544   -6.0443   25.9070 H   0  0  0  0  0  0
  -22.0600   -2.7549   23.2808 H   0  0  0  0  0  0
  -22.4050  -11.9884   22.4870 H   0  0  0  0  0  0
  -21.1044  -13.1216   22.2706 H   0  0  0  0  0  0
  -24.6383  -15.8361   20.5232 H   0  0  0  0  0  0
  -26.2517  -15.6311   20.0506 H   0  0  0  0  0  0
  -26.7218  -32.5253   23.0969 H   0  0  0  0  0  0
  -25.0016  -33.9552   25.0296 H   0  0  0  0  0  0
  -22.7500  -31.2742   21.3601 H   0  0  0  0  0  0
  -23.3751  -35.9609   23.3271 H   0  0  0  0  0  0
  -24.3596  -36.8945   22.2078 H   0  0  0  0  0  0
  -23.7244  -37.6457   23.6700 H   0  0  0  0  0  0
  -26.1469  -31.4698   20.6108 H   0  0  0  0  0  0
  -26.8663  -30.7686   22.0273 H   0  0  0  0  0  0
  -28.1208  -28.8255   21.2737 H   0  0  0  0  0  0
  -26.0183  -25.8164   19.0226 H   0  0  0  0  0  0
  -24.0283  -27.2498   18.9764 H   0  0  0  0  0  0
  -23.8154  -30.5284   19.3798 H   0  0  0  0  0  0
  -22.7969  -29.1974   19.8398 H   0  0  0  0  0  0
  -25.1293  -36.1858   25.0801 H   0  0  0  0  0  0
  -21.0012  -28.3297   24.1370 H   0  0  0  0  0  0
  -20.5661  -26.2303   23.3625 H   0  0  0  0  0  0
  -21.6644  -26.7381   22.1230 H   0  0  0  0  0  0
  -19.6911  -25.6269   21.1259 H   0  0  0  0  0  0
  -19.6745  -27.3163   20.6714 H   0  0  0  0  0  0
  -17.4228  -26.6715   21.4002 H   0  0  0  0  0  0
  -18.0337  -26.0070   22.9001 H   0  0  0  0  0  0
  -19.7947  -30.7300   24.2226 H   0  0  0  0  0  0
  -17.5010  -31.6273   24.5165 H   0  0  0  0  0  0
  -15.5347  -30.2945   23.7676 H   0  0  0  0  0  0
  -15.8716  -28.0807   22.7027 H   0  0  0  0  0  0
  -24.5868  -30.7086   25.7839 H   0  0  0  0  0  0
  -24.8932  -32.2903   26.4921 H   0  0  0  0  0  0
  -25.8062  -30.8913   27.0241 H   0  0  0  0  0  0
  -26.2881  -29.6703   24.1324 H   0  0  0  0  0  0
  -27.3901  -29.7224   25.4881 H   0  0  0  0  0  0
  -27.8831  -30.4163   23.9608 H   0  0  0  0  0  0
  -27.2605  -33.3610   26.2070 H   0  0  0  0  0  0
  -28.3820  -32.6927   25.0302 H   0  0  0  0  0  0
  -28.0734  -31.8467   26.5393 H   0  0  0  0  0  0
  -28.2567  -38.0104   24.7495 H   0  0  0  0  0  0
  -28.1111  -36.2627   24.6246 H   0  0  0  0  0  0
  -27.2321  -37.1410   25.8856 H   0  0  0  0  0  0
  -20.9489  -29.8747   21.6775 H   0  0  0  0  0  0
  -26.0165  -38.2806   24.1415 H   0  0  0  0  0  0
  -32.6458  -21.8388   18.9597 H   0  0  0  0  0  0
  -31.5789  -22.8038   19.9503 H   0  0  0  0  0  0
  -31.0633  -22.3002   18.3456 H   0  0  0  0  0  0
  -27.5890  -17.8852   21.5037 H   0  0  0  0  0  0
  -27.4545  -18.2247   19.7783 H   0  0  0  0  0  0
  -27.1800  -19.5073   20.9465 H   0  0  0  0  0  0
  -29.0312  -21.3940   18.0102 H   0  0  0  0  0  0
  -27.7789  -20.3389   18.6393 H   0  0  0  0  0  0
  -29.2703  -19.6492   18.0001 H   0  0  0  0  0  0
  -31.5118  -20.5352   20.8213 H   0  0  0  0  0  0
  -31.4174  -19.8511   19.2302 H   0  0  0  0  0  0
  -27.3070  -23.4670   20.8040 H   0  0  0  0  0  0
  -27.6357  -22.9149   19.2313 H   0  0  0  0  0  0
  -28.3112  -21.6121   21.5202 H   0  0  0  0  0  0
  -29.8150  -22.3702   21.3312 H   0  0  0  0  0  0
  -31.1811  -17.7710   20.5730 H   0  0  0  0  0  0
  -30.2199  -17.6398   19.1406 H   0  0  0  0  0  0
  -28.2506  -24.9835   18.6395 H   0  0  0  0  0  0
  -29.6812  -24.8045   19.5488 H   0  0  0  0  0  0
  -29.5812  -19.1535   21.7260 H   0  0  0  0  0  0
  -28.8349  -15.9468   20.7931 H   0  0  0  0  0  0
  1 25  1  0  0  0
  1 30  2  0  0  0
  1 81  1  0  0  0
  2  3  1  0  0  0
  2 25  1  0  0  0
  2 82  1  0  0  0
  2 83  1  0  0  0
  3  4  1  0  0  0
  3 84  1  0  0  0
  3 85  1  0  0  0
  4  5  1  0  0  0
  4 86  1  0  0  0
  4 87  1  0  0  0
  5  6  1  0  0  0
  5 26  1  0  0  0
  5 88  1  0  0  0
  6 25  1  0  0  0
  6 89  1  0  0  0
  6 90  1  0  0  0
  7  8  2  0  0  0
  7 26  1  0  0  0
  7 29  1  0  0  0
  8  9  1  0  0  0
  8 22  1  0  0  0
  9 10  1  0  0  0
  9 27  2  0  0  0
 10 11  2  0  0  0
 10 15  1  0  0  0
 11 12  1  0  0  0
 11 91  1  0  0  0
 12 13  2  0  0  0
 12 92  1  0  0  0
 13 14  1  0  0  0
 13 31  1  0  0  0
 14 15  2  0  0  0
 14 93  1  0  0  0
 15 94  1  0  0  0
 16 17  2  0  0  0
 16 21  1  0  0  0
 16 31  1  0  0  0
 17 18  1  0  0  0
 17 95  1  0  0  0
 18 19  2  0  0  0
 18 96  1  0  0  0
 19 20  1  0  0  0
 19 24  1  0  0  0
 20 21  2  0  0  0
 20 97  1  0  0  0
 21 23  1  0  0  0
 22 28  1  0  0  0
 22 32  2  0  0  0
 26 27  1  0  0  0
 28 98  1  0  0  0
 28 99  1  0  0  0
 29100  1  0  0  0
 29101  1  0  0  0
 33 34  1  0  0  0
 33 66  1  0  0  0
 33 70  2  0  0  0
 34 36  1  0  0  0
 34 59  1  0  0  0
 34102  1  0  0  0
 35 44  2  0  0  0
 35 45  1  0  0  0
 35 68  1  0  0  0
 36 56  1  0  0  0
 36103  1  0  0  0
 37 39  1  0  0  0
 37 47  1  0  0  0
 37 66  1  0  0  0
 37104  1  0  0  0
 38 43  2  0  0  0
 38 46  1  0  0  0
 38 47  1  0  0  0
 39 64  1  0  0  0
 39 67  2  0  0  0
 40 52  1  0  0  0
 40 53  2  0  0  0
 40 58  1  0  0  0
 41105  1  0  0  0
 41106  1  0  0  0
 41107  1  0  0  0
 41 48  1  0  0  0
 42 43  1  0  0  0
 42 66  1  0  0  0
 42108  1  0  0  0
 42109  1  0  0  0
 43 44  1  0  0  0
 44110  1  0  0  0
 45 46  2  0  0  0
 45111  1  0  0  0
 46112  1  0  0  0
 47113  1  0  0  0
 47114  1  0  0  0
 48 56  1  0  0  0
 48 65  1  0  0  0
 48115  1  0  0  0
 49 50  1  0  0  0
 49 53  1  0  0  0
 49 64  1  0  0  0
 49116  1  0  0  0
 50 51  1  0  0  0
 50117  1  0  0  0
 50118  1  0  0  0
 51 52  1  0  0  0
 51119  1  0  0  0
 51120  1  0  0  0
 52121  1  0  0  0
 52122  1  0  0  0
 53 54  1  0  0  0
 54 55  2  0  0  0
 54123  1  0  0  0
 55 57  1  0  0  0
 55124  1  0  0  0
 56 69  2  0  0  0
 57 58  2  0  0  0
 57125  1  0  0  0
 58126  1  0  0  0
 59 60  1  0  0  0
 59 61  1  0  0  0
 59 62  1  0  0  0
 60127  1  0  0  0
 60128  1  0  0  0
 60129  1  0  0  0
 61130  1  0  0  0
 61131  1  0  0  0
 61132  1  0  0  0
 62133  1  0  0  0
 62134  1  0  0  0
 62135  1  0  0  0
 63 65  1  0  0  0
 63136  1  0  0  0
 63137  1  0  0  0
 63138  1  0  0  0
 64139  1  0  0  0
 65140  1  0  0  0
 68 78  1  0  0  0
 71 74  1  0  0  0
 71141  1  0  0  0
 71142  1  0  0  0
 71143  1  0  0  0
 72144  1  0  0  0
 72145  1  0  0  0
 72146  1  0  0  0
 72 79  1  0  0  0
 73147  1  0  0  0
 73148  1  0  0  0
 73149  1  0  0  0
 73 80  1  0  0  0
 74 80  1  0  0  0
 74150  1  0  0  0
 74151  1  0  0  0
 75 76  1  0  0  0
 75 78  1  0  0  0
 75152  1  0  0  0
 75153  1  0  0  0
 76 80  1  0  0  0
 76154  1  0  0  0
 76155  1  0  0  0
 77 79  1  0  0  0
 77 81  1  0  0  0
 77156  1  0  0  0
 77157  1  0  0  0
 78158  1  0  0  0
 78159  1  0  0  0
 79 80  1  0  0  0
 79160  1  0  0  0
 81161  1  0  0  0
M  ISO  4   1 100  68 101  78 101  81 100
M  END
> <chiral flag>
0

> <version>
0

> <s_m_source_file>
/data/baiqing/PycharmProjects/Reinvent-master-3.2/result/LINK_invent/BTK/process_docking_weight1_custom_sum_contain_oxygen_bond_distance_aromatic_linkinvent_7_9_3/rearranged_h_0046.sdf

> <i_m_source_file_index>
92

> <r_mmod_Potential_Energy-OPLS-2005>
563.154602050781

> <r_mmod_Stretch_Energy-OPLS-2005>
277.998291015625

> <r_mmod_Bend_Energy-OPLS-2005>
331.379455566406

> <r_mmod_Torsional_Energy-OPLS-2005>
263.917297363281

> <r_mmod_Improper_Torsional_Energy-OPLS-2005>
5.40464639663696

> <r_mmod_Van_der_Waal_Energy-OPLS-2005>
109.092391967773

> <r_mmod_Electrostatic_Energy-OPLS-2005>
-403.943939208984

> <r_mmod_Solvation_Energy-OPLS-2005>
-195.461975097656

> <b_mmod_Minimization_Converged-OPLS-2005>
0

> <r_mmod_RMS_Derivative-OPLS-2005>
7.13244009017944

$$$$
93
                    3D
 Structure written by MMmdl.
171178  0  0  1  0            999 V2000
  -30.6461  -14.6768   20.5404 C   0  0  0  0  0  0
  -30.4317  -12.4321   19.4587 C   0  0  0  0  0  0
  -29.5077  -12.5349   18.2279 C   0  0  0  0  0  0
  -28.0330  -12.3637   18.6394 C   0  0  0  0  0  0
  -27.6515  -13.2325   19.8663 C   0  0  2  0  0  0
  -28.6960  -13.1017   20.9937 C   0  0  0  0  0  0
  -25.2531  -13.8200   20.5705 C   0  0  0  0  0  0
  -24.1819  -13.0407   20.9203 C   0  0  0  0  0  0
  -24.6428  -11.6895   20.8750 C   0  0  0  0  0  0
  -23.9100  -10.4253   21.0406 C   0  0  0  0  0  0
  -24.3623   -9.4164   21.9183 C   0  0  0  0  0  0
  -23.6271   -8.2210   22.0762 C   0  0  0  0  0  0
  -22.4257   -8.0253   21.3536 C   0  0  0  0  0  0
  -21.9904   -9.0248   20.4657 C   0  0  0  0  0  0
  -22.7268  -10.2112   20.3061 C   0  0  0  0  0  0
  -21.6838   -6.0708   22.5266 C   0  0  0  0  0  0
  -21.4020   -6.5630   23.8200 C   0  0  0  0  0  0
  -21.3674   -5.6783   24.9165 C   0  0  0  0  0  0
  -21.6041   -4.3047   24.7211 C   0  0  0  0  0  0
  -21.8829   -3.8129   23.4339 C   0  0  0  0  0  0
  -21.9201   -4.6938   22.3389 C   0  0  0  0  0  0
  -22.7836  -13.5200   21.1844 C   0  0  0  0  0  0
  -22.1655   -4.2120   21.0964 F   0  0  0  0  0  0
  -21.5638   -3.4544   25.7734 F   0  0  0  0  0  0
  -30.0077  -13.4599   20.4372 N   0  0  0  0  0  0
  -26.2983  -12.9413   20.3347 N   0  0  0  0  0  0
  -25.9367  -11.6540   20.5760 N   0  0  0  0  0  0
  -22.0481  -12.8209   22.0419 N   0  0  0  0  0  0
  -25.4165  -15.1933   20.4154 N   0  0  0  0  0  0
  -31.7607  -14.8148   20.0313 O   0  0  0  0  0  0
  -21.6629   -6.8845   21.4215 O   0  0  0  0  0  0
  -22.3519  -14.5480   20.6681 O   0  0  0  0  0  0
  -24.6285  -31.8569   23.2006 C   0  0  0  0  0  0
  -25.9121  -32.4754   23.8345 C   0  0  1  0  0  0
  -27.2366  -27.3169   20.1206 C   0  0  0  0  0  0
  -25.5933  -33.8555   24.2282 N   0  0  0  0  0  0
  -23.4233  -30.4783   21.5435 C   0  0  2  0  0  0
  -24.8751  -28.9301   20.1135 C   0  0  0  0  0  0
  -22.7504  -29.4610   22.4937 C   0  0  0  0  0  0
  -18.0289  -28.1376   22.8491 C   0  0  0  0  0  0
  -24.1495  -36.7274   23.2644 C   0  0  0  0  0  0
  -25.9649  -30.7911   21.3697 C   0  0  0  0  0  0
  -26.0443  -29.4166   20.7147 C   0  0  0  0  0  0
  -27.2330  -28.6239   20.7004 C   0  0  0  0  0  0
  -26.0475  -26.8824   19.4990 C   0  0  0  0  0  0
  -24.8806  -27.6689   19.4960 C   0  0  0  0  0  0
  -23.6387  -29.8061   20.1616 C   0  0  0  0  0  0
  -25.4118  -36.3066   24.0337 C   0  0  1  0  0  0
  -20.5894  -28.3682   23.1296 C   0  0  2  0  0  0
  -20.6764  -26.9399   22.5431 C   0  0  0  0  0  0
  -19.5748  -26.6375   21.5222 C   0  0  0  0  0  0
  -18.1925  -26.7921   22.1629 C   0  0  0  0  0  0
  -19.1539  -28.8852   23.2885 C   0  0  0  0  0  0
  -18.9458  -30.1439   23.8906 C   0  0  0  0  0  0
  -17.6453  -30.6574   24.0563 C   0  0  0  0  0  0
  -25.9053  -34.9431   23.5113 C   0  0  0  0  0  0
  -16.5347  -29.9068   23.6326 C   0  0  0  0  0  0
  -16.7272  -28.6492   23.0352 C   0  0  0  0  0  0
  -26.4518  -31.6556   25.0706 C   0  0  0  0  0  0
  -25.3754  -31.3644   26.1420 C   0  0  0  0  0  0
  -27.0376  -30.3000   24.6128 C   0  0  0  0  0  0
  -27.6109  -32.4261   25.7462 C   0  0  0  0  0  0
  -27.5587  -37.1793   24.8474 C   0  0  0  0  0  0
  -21.4218  -29.3021   22.3695 N   0  0  0  0  0  0
  -26.4299  -37.3763   23.9409 N   0  0  0  0  0  0
  -24.6915  -31.0578   22.0956 N   0  0  0  0  0  0
  -23.4235  -28.8175   23.3024 O   0  0  0  0  0  0
  -28.3475  -26.4592   20.1185 O   0  0  0  0  0  0
  -26.5630  -34.8914   22.4679 O   0  0  0  0  0  0
  -23.5448  -32.1356   23.7336 O   0  0  0  0  0  0
  -30.8737  -17.3480   17.8398 C   0  0  0  0  0  0
  -31.2991  -19.7165   22.9132 C   0  0  0  0  0  0
  -28.9748  -22.4695   22.1629 C   0  0  0  0  0  0
  -27.1230  -21.9803   20.5921 C   0  0  0  0  0  0
  -30.0609  -15.9465   21.3046 C   0  0  0  0  0  0
  -30.2829  -18.5906   18.5308 C   0  0  0  0  0  0
  -29.3905  -17.2198   20.5707 C   0  0  0  0  0  0
  -28.8230  -23.7839   19.9748 C   0  0  0  0  0  0
  -31.2007  -20.2998   21.4938 C   0  0  0  0  0  0
  -29.4227  -21.0761   19.9435 C   0  0  0  0  0  0
  -28.1594  -25.0856   20.6560 C   0  0  0  0  0  0
  -30.2324  -18.4960   20.0797 C   0  0  2  0  0  0
  -28.6298  -22.3203   20.6611 C   0  0  0  0  0  0
  -29.9631  -19.8749   20.7616 N   0  3  1  0  0  0
  -31.4727  -12.5477   19.1545 H   0  0  0  0  0  0
  -30.3642  -11.4378   19.9021 H   0  0  0  0  0  0
  -29.7777  -11.7762   17.4933 H   0  0  0  0  0  0
  -29.6501  -13.4998   17.7343 H   0  0  0  0  0  0
  -27.8800  -11.3104   18.8772 H   0  0  0  0  0  0
  -27.3752  -12.5892   17.7979 H   0  0  0  0  0  0
  -27.6653  -14.2701   19.5310 H   0  0  0  0  0  0
  -28.4183  -13.7208   21.8429 H   0  0  0  0  0  0
  -28.7193  -12.0798   21.3756 H   0  0  0  0  0  0
  -25.2763   -9.5642   22.4768 H   0  0  0  0  0  0
  -23.9975   -7.4607   22.7499 H   0  0  0  0  0  0
  -21.0820   -8.8807   19.8964 H   0  0  0  0  0  0
  -22.3736  -10.9663   19.6192 H   0  0  0  0  0  0
  -21.2008   -7.6144   23.9696 H   0  0  0  0  0  0
  -21.1495   -6.0517   25.9073 H   0  0  0  0  0  0
  -22.0599   -2.7582   23.2856 H   0  0  0  0  0  0
  -22.4087  -11.9901   22.4865 H   0  0  0  0  0  0
  -21.1098  -13.1250   22.2570 H   0  0  0  0  0  0
  -24.6470  -15.8450   20.5337 H   0  0  0  0  0  0
  -26.2710  -15.6379   20.1039 H   0  0  0  0  0  0
  -26.7198  -32.5439   23.1111 H   0  0  0  0  0  0
  -25.0088  -33.9658   25.0435 H   0  0  0  0  0  0
  -22.7174  -31.2992   21.3973 H   0  0  0  0  0  0
  -23.3762  -35.9602   23.3302 H   0  0  0  0  0  0
  -24.3617  -36.8891   22.2067 H   0  0  0  0  0  0
  -23.7229  -37.6468   23.6666 H   0  0  0  0  0  0
  -26.0852  -31.5545   20.5987 H   0  0  0  0  0  0
  -26.8515  -30.8527   21.9909 H   0  0  0  0  0  0
  -28.1357  -28.9990   21.1643 H   0  0  0  0  0  0
  -26.0161  -25.9134   19.0206 H   0  0  0  0  0  0
  -23.9878  -27.2883   19.0201 H   0  0  0  0  0  0
  -23.7503  -30.5773   19.3984 H   0  0  0  0  0  0
  -22.7629  -29.2269   19.8626 H   0  0  0  0  0  0
  -25.1291  -36.1942   25.0830 H   0  0  0  0  0  0
  -20.9967  -28.3246   24.1427 H   0  0  0  0  0  0
  -20.5660  -26.2280   23.3628 H   0  0  0  0  0  0
  -21.6628  -26.7414   22.1227 H   0  0  0  0  0  0
  -19.6907  -25.6293   21.1229 H   0  0  0  0  0  0
  -19.6682  -27.3204   20.6772 H   0  0  0  0  0  0
  -17.4195  -26.6683   21.4023 H   0  0  0  0  0  0
  -18.0320  -26.0051   22.9020 H   0  0  0  0  0  0
  -19.7922  -30.7253   24.2292 H   0  0  0  0  0  0
  -17.4996  -31.6254   24.5156 H   0  0  0  0  0  0
  -15.5342  -30.2971   23.7619 H   0  0  0  0  0  0
  -15.8681  -28.0791   22.7070 H   0  0  0  0  0  0
  -24.5933  -30.7009   25.7710 H   0  0  0  0  0  0
  -24.8925  -32.2776   26.4904 H   0  0  0  0  0  0
  -25.8065  -30.8756   27.0161 H   0  0  0  0  0  0
  -26.2939  -29.6717   24.1209 H   0  0  0  0  0  0
  -27.4181  -29.7276   25.4596 H   0  0  0  0  0  0
  -27.8762  -30.4322   23.9287 H   0  0  0  0  0  0
  -27.2771  -33.3559   26.2077 H   0  0  0  0  0  0
  -28.3903  -32.6804   25.0265 H   0  0  0  0  0  0
  -28.0813  -31.8344   26.5325 H   0  0  0  0  0  0
  -28.2603  -38.0094   24.7520 H   0  0  0  0  0  0
  -28.1083  -36.2618   24.6302 H   0  0  0  0  0  0
  -27.2306  -37.1442   25.8880 H   0  0  0  0  0  0
  -20.9434  -29.8746   21.6888 H   0  0  0  0  0  0
  -26.0187  -38.2844   24.1394 H   0  0  0  0  0  0
  -31.0263  -17.5365   16.7759 H   0  0  0  0  0  0
  -30.2230  -16.4766   17.9197 H   0  0  0  0  0  0
  -31.8424  -17.0750   18.2618 H   0  0  0  0  0  0
  -32.2573  -19.9799   23.3650 H   0  0  0  0  0  0
  -31.2191  -18.6304   22.9174 H   0  0  0  0  0  0
  -30.5173  -20.1132   23.5617 H   0  0  0  0  0  0
  -28.2883  -23.1520   22.6654 H   0  0  0  0  0  0
  -29.9716  -22.8819   22.3152 H   0  0  0  0  0  0
  -28.8874  -21.5328   22.7125 H   0  0  0  0  0  0
  -26.7588  -21.9341   19.5648 H   0  0  0  0  0  0
  -26.5183  -22.7270   21.1044 H   0  0  0  0  0  0
  -26.8944  -21.0248   21.0651 H   0  0  0  0  0  0
  -29.3457  -15.5938   22.0441 H   0  0  0  0  0  0
  -30.8774  -16.3243   21.9204 H   0  0  0  0  0  0
  -29.2915  -18.7795   18.1176 H   0  0  0  0  0  0
  -30.9015  -19.4426   18.2478 H   0  0  0  0  0  0
  -28.6185  -17.5969   21.2400 H   0  0  0  0  0  0
  -28.8123  -16.8346   19.7319 H   0  0  0  0  0  0
  -29.8929  -23.9749   19.8888 H   0  0  0  0  0  0
  -28.4691  -23.7362   18.9426 H   0  0  0  0  0  0
  -32.0937  -20.0497   20.9189 H   0  0  0  0  0  0
  -31.2789  -21.3808   21.5702 H   0  0  0  0  0  0
  -30.2571  -21.4829   19.3717 H   0  0  0  0  0  0
  -28.7467  -20.6792   19.1873 H   0  0  0  0  0  0
  -28.5678  -25.1595   21.6633 H   0  0  0  0  0  0
  -27.0992  -24.8873   20.8051 H   0  0  0  0  0  0
  -31.2446  -18.2005   20.3556 H   0  0  0  0  0  0
  -29.2623  -19.6941   21.4626 H   0  0  0  0  0  0
  1 25  1  0  0  0
  1 30  2  0  0  0
  1 75  1  0  0  0
  2  3  1  0  0  0
  2 25  1  0  0  0
  2 85  1  0  0  0
  2 86  1  0  0  0
  3  4  1  0  0  0
  3 87  1  0  0  0
  3 88  1  0  0  0
  4  5  1  0  0  0
  4 89  1  0  0  0
  4 90  1  0  0  0
  5  6  1  0  0  0
  5 26  1  0  0  0
  5 91  1  0  0  0
  6 25  1  0  0  0
  6 92  1  0  0  0
  6 93  1  0  0  0
  7  8  2  0  0  0
  7 26  1  0  0  0
  7 29  1  0  0  0
  8  9  1  0  0  0
  8 22  1  0  0  0
  9 10  1  0  0  0
  9 27  2  0  0  0
 10 11  2  0  0  0
 10 15  1  0  0  0
 11 12  1  0  0  0
 11 94  1  0  0  0
 12 13  2  0  0  0
 12 95  1  0  0  0
 13 14  1  0  0  0
 13 31  1  0  0  0
 14 15  2  0  0  0
 14 96  1  0  0  0
 15 97  1  0  0  0
 16 17  2  0  0  0
 16 21  1  0  0  0
 16 31  1  0  0  0
 17 18  1  0  0  0
 17 98  1  0  0  0
 18 19  2  0  0  0
 18 99  1  0  0  0
 19 20  1  0  0  0
 19 24  1  0  0  0
 20 21  2  0  0  0
 20100  1  0  0  0
 21 23  1  0  0  0
 22 28  1  0  0  0
 22 32  2  0  0  0
 26 27  1  0  0  0
 28101  1  0  0  0
 28102  1  0  0  0
 29103  1  0  0  0
 29104  1  0  0  0
 33 34  1  0  0  0
 33 66  1  0  0  0
 33 70  2  0  0  0
 34 36  1  0  0  0
 34 59  1  0  0  0
 34105  1  0  0  0
 35 44  2  0  0  0
 35 45  1  0  0  0
 35 68  1  0  0  0
 36 56  1  0  0  0
 36106  1  0  0  0
 37 39  1  0  0  0
 37 47  1  0  0  0
 37 66  1  0  0  0
 37107  1  0  0  0
 38 43  2  0  0  0
 38 46  1  0  0  0
 38 47  1  0  0  0
 39 64  1  0  0  0
 39 67  2  0  0  0
 40 52  1  0  0  0
 40 53  2  0  0  0
 40 58  1  0  0  0
 41108  1  0  0  0
 41109  1  0  0  0
 41110  1  0  0  0
 41 48  1  0  0  0
 42 43  1  0  0  0
 42 66  1  0  0  0
 42111  1  0  0  0
 42112  1  0  0  0
 43 44  1  0  0  0
 44113  1  0  0  0
 45 46  2  0  0  0
 45114  1  0  0  0
 46115  1  0  0  0
 47116  1  0  0  0
 47117  1  0  0  0
 48 56  1  0  0  0
 48 65  1  0  0  0
 48118  1  0  0  0
 49 50  1  0  0  0
 49 53  1  0  0  0
 49 64  1  0  0  0
 49119  1  0  0  0
 50 51  1  0  0  0
 50120  1  0  0  0
 50121  1  0  0  0
 51 52  1  0  0  0
 51122  1  0  0  0
 51123  1  0  0  0
 52124  1  0  0  0
 52125  1  0  0  0
 53 54  1  0  0  0
 54 55  2  0  0  0
 54126  1  0  0  0
 55 57  1  0  0  0
 55127  1  0  0  0
 56 69  2  0  0  0
 57 58  2  0  0  0
 57128  1  0  0  0
 58129  1  0  0  0
 59 60  1  0  0  0
 59 61  1  0  0  0
 59 62  1  0  0  0
 60130  1  0  0  0
 60131  1  0  0  0
 60132  1  0  0  0
 61133  1  0  0  0
 61134  1  0  0  0
 61135  1  0  0  0
 62136  1  0  0  0
 62137  1  0  0  0
 62138  1  0  0  0
 63 65  1  0  0  0
 63139  1  0  0  0
 63140  1  0  0  0
 63141  1  0  0  0
 64142  1  0  0  0
 65143  1  0  0  0
 68 81  1  0  0  0
 71 76  1  0  0  0
 71144  1  0  0  0
 71145  1  0  0  0
 71146  1  0  0  0
 72 79  1  0  0  0
 72147  1  0  0  0
 72148  1  0  0  0
 72149  1  0  0  0
 73150  1  0  0  0
 73151  1  0  0  0
 73152  1  0  0  0
 73 83  1  0  0  0
 74 83  1  0  0  0
 74153  1  0  0  0
 74154  1  0  0  0
 74155  1  0  0  0
 75 77  1  0  0  0
 75156  1  0  0  0
 75157  1  0  0  0
 76158  1  0  0  0
 76159  1  0  0  0
 76 82  1  0  0  0
 77 82  1  0  0  0
 77160  1  0  0  0
 77161  1  0  0  0
 78 81  1  0  0  0
 78 83  1  0  0  0
 78162  1  0  0  0
 78163  1  0  0  0
 79164  1  0  0  0
 79165  1  0  0  0
 79 84  1  0  0  0
 80 83  1  0  0  0
 80 84  1  0  0  0
 80166  1  0  0  0
 80167  1  0  0  0
 81168  1  0  0  0
 81169  1  0  0  0
 82 84  1  0  0  0
 82170  1  0  0  0
 84171  1  0  0  0
M  CHG  1  84   1
M  ISO  4   1 100  68 101  75 100  81 101
M  END
> <chiral flag>
0

> <version>
0

> <s_m_source_file>
/data/baiqing/PycharmProjects/Reinvent-master-3.2/result/LINK_invent/BTK/process_docking_weight1_custom_sum_contain_oxygen_bond_distance_aromatic_linkinvent_7_9_3/rearranged_h_0046.sdf

> <i_m_source_file_index>
93

> <r_mmod_Potential_Energy-OPLS-2005>
166.178100585938

> <r_mmod_Stretch_Energy-OPLS-2005>
126.64729309082

> <r_mmod_Bend_Energy-OPLS-2005>
196.116592407227

> <r_mmod_Torsional_Energy-OPLS-2005>
262.520660400391

> <r_mmod_Improper_Torsional_Energy-OPLS-2005>
1.76000714302063

> <r_mmod_Van_der_Waal_Energy-OPLS-2005>
127.865196228027

> <r_mmod_Electrostatic_Energy-OPLS-2005>
-198.611236572266

> <r_mmod_Solvation_Energy-OPLS-2005>
-402.944488525391

> <b_mmod_Minimization_Converged-OPLS-2005>
0

> <r_mmod_RMS_Derivative-OPLS-2005>
3.58087134361267

$$$$
94
                    3D
 Structure written by MMmdl.
172180  0  0  1  0            999 V2000
  -30.7632  -14.4074   20.6424 C   0  0  0  0  0  0
  -30.4093  -12.2960   19.4103 C   0  0  0  0  0  0
  -29.4850  -12.5196   18.1984 C   0  0  0  0  0  0
  -28.0070  -12.3817   18.6102 C   0  0  0  0  0  0
  -27.6619  -13.2107   19.8759 C   0  0  2  0  0  0
  -28.7009  -12.9646   20.9901 C   0  0  0  0  0  0
  -25.2579  -13.8177   20.5665 C   0  0  0  0  0  0
  -24.1833  -13.0448   20.9160 C   0  0  0  0  0  0
  -24.6392  -11.6915   20.8723 C   0  0  0  0  0  0
  -23.9061  -10.4295   21.0398 C   0  0  0  0  0  0
  -24.3612   -9.4212   21.9181 C   0  0  0  0  0  0
  -23.6288   -8.2249   22.0755 C   0  0  0  0  0  0
  -22.4272   -8.0283   21.3542 C   0  0  0  0  0  0
  -21.9906   -9.0254   20.4645 C   0  0  0  0  0  0
  -22.7234  -10.2134   20.3049 C   0  0  0  0  0  0
  -21.6854   -6.0737   22.5278 C   0  0  0  0  0  0
  -21.4018   -6.5640   23.8211 C   0  0  0  0  0  0
  -21.3658   -5.6790   24.9172 C   0  0  0  0  0  0
  -21.6041   -4.3053   24.7221 C   0  0  0  0  0  0
  -21.8819   -3.8146   23.4342 C   0  0  0  0  0  0
  -21.9193   -4.6964   22.3401 C   0  0  0  0  0  0
  -22.7856  -13.5243   21.1837 C   0  0  0  0  0  0
  -22.1662   -4.2152   21.0977 F   0  0  0  0  0  0
  -21.5623   -3.4538   25.7735 F   0  0  0  0  0  0
  -30.0356  -13.2709   20.4497 N   0  0  0  0  0  0
  -26.3025  -12.9358   20.3370 N   0  0  0  0  0  0
  -25.9321  -11.6510   20.5755 N   0  0  0  0  0  0
  -22.0504  -12.8228   22.0396 N   0  0  0  0  0  0
  -25.4290  -15.1889   20.4058 N   0  0  0  0  0  0
  -31.8482  -14.5653   20.0720 O   0  0  0  0  0  0
  -21.6638   -6.8880   21.4241 O   0  0  0  0  0  0
  -22.3536  -14.5553   20.6700 O   0  0  0  0  0  0
  -24.6121  -31.8700   23.2119 C   0  0  0  0  0  0
  -25.9025  -32.4835   23.8404 C   0  0  1  0  0  0
  -27.2396  -27.4721   20.0844 C   0  0  0  0  0  0
  -25.5900  -33.8633   24.2346 N   0  0  0  0  0  0
  -23.3992  -30.4935   21.5513 C   0  0  2  0  0  0
  -24.8484  -28.9669   20.1123 C   0  0  0  0  0  0
  -22.7398  -29.4667   22.4999 C   0  0  0  0  0  0
  -18.0267  -28.1378   22.8491 C   0  0  0  0  0  0
  -24.1486  -36.7318   23.2633 C   0  0  0  0  0  0
  -25.9243  -30.8500   21.3576 C   0  0  0  0  0  0
  -26.0078  -29.4883   20.7019 C   0  0  0  0  0  0
  -27.2109  -28.7493   20.6871 C   0  0  0  0  0  0
  -26.0621  -26.9499   19.5153 C   0  0  0  0  0  0
  -24.8687  -27.6944   19.5155 C   0  0  0  0  0  0
  -23.6059  -29.8261   20.1653 C   0  0  0  0  0  0
  -25.4103  -36.3117   24.0340 C   0  0  1  0  0  0
  -20.5854  -28.3659   23.1322 C   0  0  2  0  0  0
  -20.6758  -26.9398   22.5414 C   0  0  0  0  0  0
  -19.5740  -26.6382   21.5212 C   0  0  0  0  0  0
  -18.1913  -26.7927   22.1614 C   0  0  0  0  0  0
  -19.1517  -28.8836   23.2903 C   0  0  0  0  0  0
  -18.9450  -30.1447   23.8908 C   0  0  0  0  0  0
  -17.6453  -30.6586   24.0566 C   0  0  0  0  0  0
  -25.9028  -34.9482   23.5135 C   0  0  0  0  0  0
  -16.5342  -29.9088   23.6330 C   0  0  0  0  0  0
  -16.7257  -28.6506   23.0347 C   0  0  0  0  0  0
  -26.4470  -31.6598   25.0715 C   0  0  0  0  0  0
  -25.3751  -31.3691   26.1473 C   0  0  0  0  0  0
  -27.0293  -30.3049   24.6057 C   0  0  0  0  0  0
  -27.6050  -32.4314   25.7481 C   0  0  0  0  0  0
  -27.5588  -37.1805   24.8457 C   0  0  0  0  0  0
  -21.4127  -29.3036   22.3743 N   0  0  0  0  0  0
  -26.4286  -37.3803   23.9422 N   0  0  0  0  0  0
  -24.6633  -31.0833   22.0999 N   0  0  0  0  0  0
  -23.4182  -28.8205   23.3028 O   0  0  0  0  0  0
  -28.3430  -26.6563   20.0979 O   0  0  0  0  0  0
  -26.5583  -34.8928   22.4691 O   0  0  0  0  0  0
  -23.5324  -32.1432   23.7537 O   0  0  0  0  0  0
  -28.2108  -18.6989   20.5656 C   0  0  0  0  0  0
  -30.4284  -17.2775   19.6400 C   0  0  0  0  0  0
  -28.6145  -17.5240   21.2400 C   0  0  0  0  0  0
  -30.0124  -18.4358   18.9533 C   0  0  0  0  0  0
  -28.9016  -19.1698   19.4294 C   0  0  0  0  0  0
  -29.7450  -16.7937   20.7835 C   0  0  0  0  0  0
  -27.8295  -17.0937   22.4694 C   0  0  0  0  0  0
  -30.7783  -18.8615   17.7100 C   0  0  0  0  0  0
  -31.4196  -16.0126   22.5013 C   0  0  0  0  0  0
  -28.4235  -20.4436   18.7351 C   0  0  0  0  0  0
  -29.2064  -21.7129   19.1418 C   0  0  0  0  0  0
  -29.8211  -26.6814   18.1814 C   0  0  0  0  0  0
  -28.8038  -22.9383   18.2924 C   0  0  0  0  0  0
  -29.1609  -25.3343   17.7926 C   0  0  0  0  0  0
  -29.5822  -27.1633   19.6266 C   0  0  0  0  0  0
  -30.2823  -15.5682   21.5610 C   0  0  2  0  0  0
  -29.5393  -24.1786   18.6431 N   0  3  0  0  0  0
  -31.4539  -12.3724   19.1044 H   0  0  0  0  0  0
  -30.2956  -11.2809   19.7936 H   0  0  0  0  0  0
  -29.7201  -11.8061   17.4077 H   0  0  0  0  0  0
  -29.6595  -13.5119   17.7795 H   0  0  0  0  0  0
  -27.8125  -11.3246   18.7963 H   0  0  0  0  0  0
  -27.3560  -12.6689   17.7836 H   0  0  0  0  0  0
  -27.7161  -14.2637   19.5976 H   0  0  0  0  0  0
  -28.6736  -11.9180   21.2967 H   0  0  0  0  0  0
  -28.4342  -13.5161   21.8868 H   0  0  0  0  0  0
  -25.2759   -9.5689   22.4755 H   0  0  0  0  0  0
  -23.9995   -7.4643   22.7482 H   0  0  0  0  0  0
  -21.0834   -8.8770   19.8955 H   0  0  0  0  0  0
  -22.3694  -10.9668   19.6153 H   0  0  0  0  0  0
  -21.2016   -7.6151   23.9716 H   0  0  0  0  0  0
  -21.1477   -6.0522   25.9073 H   0  0  0  0  0  0
  -22.0600   -2.7608   23.2840 H   0  0  0  0  0  0
  -22.4123  -11.9878   22.4760 H   0  0  0  0  0  0
  -21.1126  -13.1252   22.2619 H   0  0  0  0  0  0
  -24.6649  -15.8457   20.5173 H   0  0  0  0  0  0
  -26.2921  -15.6312   20.1146 H   0  0  0  0  0  0
  -26.7104  -32.5562   23.1182 H   0  0  0  0  0  0
  -25.0092  -33.9806   25.0518 H   0  0  0  0  0  0
  -22.6860  -31.3085   21.4133 H   0  0  0  0  0  0
  -23.3757  -35.9640   23.3274 H   0  0  0  0  0  0
  -24.3591  -36.8954   22.2053 H   0  0  0  0  0  0
  -23.7217  -37.6507   23.6659 H   0  0  0  0  0  0
  -26.0278  -31.6194   20.5913 H   0  0  0  0  0  0
  -26.8142  -30.9061   21.9722 H   0  0  0  0  0  0
  -28.0984  -29.1467   21.1589 H   0  0  0  0  0  0
  -26.0666  -25.9622   19.0772 H   0  0  0  0  0  0
  -23.9751  -27.2805   19.0693 H   0  0  0  0  0  0
  -23.7062  -30.6007   19.4042 H   0  0  0  0  0  0
  -22.7325  -29.2400   19.8734 H   0  0  0  0  0  0
  -25.1279  -36.1981   25.0831 H   0  0  0  0  0  0
  -20.9940  -28.3218   24.1445 H   0  0  0  0  0  0
  -20.5663  -26.2269   23.3601 H   0  0  0  0  0  0
  -21.6635  -26.7441   22.1208 H   0  0  0  0  0  0
  -19.6900  -25.6296   21.1232 H   0  0  0  0  0  0
  -19.6684  -27.3202   20.6748 H   0  0  0  0  0  0
  -17.4189  -26.6696   21.4004 H   0  0  0  0  0  0
  -18.0294  -26.0058   22.8992 H   0  0  0  0  0  0
  -19.7924  -30.7266   24.2274 H   0  0  0  0  0  0
  -17.5007  -31.6273   24.5156 H   0  0  0  0  0  0
  -15.5345  -30.2998   23.7653 H   0  0  0  0  0  0
  -15.8653  -28.0837   22.7049 H   0  0  0  0  0  0
  -24.5928  -30.7029   25.7817 H   0  0  0  0  0  0
  -24.8939  -32.2839   26.4942 H   0  0  0  0  0  0
  -25.8124  -30.8852   27.0216 H   0  0  0  0  0  0
  -26.2822  -29.6809   24.1132 H   0  0  0  0  0  0
  -27.4104  -29.7279   25.4494 H   0  0  0  0  0  0
  -27.8638  -30.4377   23.9166 H   0  0  0  0  0  0
  -27.2674  -33.3612   26.2070 H   0  0  0  0  0  0
  -28.3861  -32.6870   25.0309 H   0  0  0  0  0  0
  -28.0708  -31.8420   26.5389 H   0  0  0  0  0  0
  -28.2573  -38.0137   24.7561 H   0  0  0  0  0  0
  -28.1119  -36.2673   24.6207 H   0  0  0  0  0  0
  -27.2321  -37.1360   25.8862 H   0  0  0  0  0  0
  -20.9281  -29.8784   21.6993 H   0  0  0  0  0  0
  -26.0176  -38.2872   24.1458 H   0  0  0  0  0  0
  -27.3577  -19.2554   20.9293 H   0  0  0  0  0  0
  -31.3075  -16.7692   19.2739 H   0  0  0  0  0  0
  -27.0111  -17.7814   22.6847 H   0  0  0  0  0  0
  -28.4735  -17.0656   23.3485 H   0  0  0  0  0  0
  -27.3939  -16.1044   22.3267 H   0  0  0  0  0  0
  -31.5874  -18.1671   17.4812 H   0  0  0  0  0  0
  -31.2230  -19.8473   17.8376 H   0  0  0  0  0  0
  -30.1196  -18.8863   16.8416 H   0  0  0  0  0  0
  -31.0631  -16.7432   23.2270 H   0  0  0  0  0  0
  -32.2412  -16.4710   21.9502 H   0  0  0  0  0  0
  -31.8250  -15.1679   23.0594 H   0  0  0  0  0  0
  -27.3644  -20.5886   18.9531 H   0  0  0  0  0  0
  -28.4729  -20.3011   17.6554 H   0  0  0  0  0  0
  -30.2758  -21.5384   19.0297 H   0  0  0  0  0  0
  -29.0400  -21.9155   20.2004 H   0  0  0  0  0  0
  -29.4242  -27.4400   17.5060 H   0  0  0  0  0  0
  -30.8931  -26.6509   17.9832 H   0  0  0  0  0  0
  -27.7331  -23.1180   18.4036 H   0  0  0  0  0  0
  -28.9736  -22.7164   17.2376 H   0  0  0  0  0  0
  -29.4161  -25.1043   16.7571 H   0  0  0  0  0  0
  -28.0766  -25.4486   17.8115 H   0  0  0  0  0  0
  -29.6636  -28.2490   19.6918 H   0  0  0  0  0  0
  -30.3593  -26.7596   20.2761 H   0  0  0  0  0  0
  -29.5123  -15.1969   22.2225 H   0  0  0  0  0  0
  -30.5296  -24.0144   18.5552 H   0  0  0  0  0  0
  -29.3406  -24.4068   19.6047 H   0  0  0  0  0  0
  1 25  1  0  0  0
  1 30  2  0  0  0
  1 86  1  0  0  0
  2  3  1  0  0  0
  2 25  1  0  0  0
  2 88  1  0  0  0
  2 89  1  0  0  0
  3  4  1  0  0  0
  3 90  1  0  0  0
  3 91  1  0  0  0
  4  5  1  0  0  0
  4 92  1  0  0  0
  4 93  1  0  0  0
  5  6  1  0  0  0
  5 26  1  0  0  0
  5 94  1  0  0  0
  6 25  1  0  0  0
  6 95  1  0  0  0
  6 96  1  0  0  0
  7  8  2  0  0  0
  7 26  1  0  0  0
  7 29  1  0  0  0
  8  9  1  0  0  0
  8 22  1  0  0  0
  9 10  1  0  0  0
  9 27  2  0  0  0
 10 11  2  0  0  0
 10 15  1  0  0  0
 11 12  1  0  0  0
 11 97  1  0  0  0
 12 13  2  0  0  0
 12 98  1  0  0  0
 13 14  1  0  0  0
 13 31  1  0  0  0
 14 15  2  0  0  0
 14 99  1  0  0  0
 15100  1  0  0  0
 16 17  2  0  0  0
 16 21  1  0  0  0
 16 31  1  0  0  0
 17 18  1  0  0  0
 17101  1  0  0  0
 18 19  2  0  0  0
 18102  1  0  0  0
 19 20  1  0  0  0
 19 24  1  0  0  0
 20 21  2  0  0  0
 20103  1  0  0  0
 21 23  1  0  0  0
 22 28  1  0  0  0
 22 32  2  0  0  0
 26 27  1  0  0  0
 28104  1  0  0  0
 28105  1  0  0  0
 29106  1  0  0  0
 29107  1  0  0  0
 33 34  1  0  0  0
 33 66  1  0  0  0
 33 70  2  0  0  0
 34 36  1  0  0  0
 34 59  1  0  0  0
 34108  1  0  0  0
 35 44  2  0  0  0
 35 45  1  0  0  0
 35 68  1  0  0  0
 36 56  1  0  0  0
 36109  1  0  0  0
 37 39  1  0  0  0
 37 47  1  0  0  0
 37 66  1  0  0  0
 37110  1  0  0  0
 38 43  2  0  0  0
 38 46  1  0  0  0
 38 47  1  0  0  0
 39 64  1  0  0  0
 39 67  2  0  0  0
 40 52  1  0  0  0
 40 53  2  0  0  0
 40 58  1  0  0  0
 41111  1  0  0  0
 41112  1  0  0  0
 41113  1  0  0  0
 41 48  1  0  0  0
 42 43  1  0  0  0
 42 66  1  0  0  0
 42114  1  0  0  0
 42115  1  0  0  0
 43 44  1  0  0  0
 44116  1  0  0  0
 45 46  2  0  0  0
 45117  1  0  0  0
 46118  1  0  0  0
 47119  1  0  0  0
 47120  1  0  0  0
 48 56  1  0  0  0
 48 65  1  0  0  0
 48121  1  0  0  0
 49 50  1  0  0  0
 49 53  1  0  0  0
 49 64  1  0  0  0
 49122  1  0  0  0
 50 51  1  0  0  0
 50123  1  0  0  0
 50124  1  0  0  0
 51 52  1  0  0  0
 51125  1  0  0  0
 51126  1  0  0  0
 52127  1  0  0  0
 52128  1  0  0  0
 53 54  1  0  0  0
 54 55  2  0  0  0
 54129  1  0  0  0
 55 57  1  0  0  0
 55130  1  0  0  0
 56 69  2  0  0  0
 57 58  2  0  0  0
 57131  1  0  0  0
 58132  1  0  0  0
 59 60  1  0  0  0
 59 61  1  0  0  0
 59 62  1  0  0  0
 60133  1  0  0  0
 60134  1  0  0  0
 60135  1  0  0  0
 61136  1  0  0  0
 61137  1  0  0  0
 61138  1  0  0  0
 62139  1  0  0  0
 62140  1  0  0  0
 62141  1  0  0  0
 63 65  1  0  0  0
 63142  1  0  0  0
 63143  1  0  0  0
 63144  1  0  0  0
 64145  1  0  0  0
 65146  1  0  0  0
 68 85  1  0  0  0
 71 73  2  0  0  0
 71 75  1  0  0  0
 71147  1  0  0  0
 72 74  1  0  0  0
 72 76  2  0  0  0
 72148  1  0  0  0
 73 76  1  0  0  0
 73 77  1  0  0  0
 74 75  2  0  0  0
 74 78  1  0  0  0
 75 80  1  0  0  0
 76 86  1  0  0  0
 77149  1  0  0  0
 77150  1  0  0  0
 77151  1  0  0  0
 78152  1  0  0  0
 78153  1  0  0  0
 78154  1  0  0  0
 79155  1  0  0  0
 79156  1  0  0  0
 79157  1  0  0  0
 79 86  1  0  0  0
 80 81  1  0  0  0
 80158  1  0  0  0
 80159  1  0  0  0
 81 83  1  0  0  0
 81160  1  0  0  0
 81161  1  0  0  0
 82 84  1  0  0  0
 82 85  1  0  0  0
 82162  1  0  0  0
 82163  1  0  0  0
 83 87  1  0  0  0
 83164  1  0  0  0
 83165  1  0  0  0
 84 87  1  0  0  0
 84166  1  0  0  0
 84167  1  0  0  0
 85168  1  0  0  0
 85169  1  0  0  0
 86170  1  0  0  0
 87171  1  0  0  0
 87172  1  0  0  0
M  CHG  1  87   1
M  ISO  4   1 100  68 101  85 101  86 100
M  END
> <chiral flag>
0

> <version>
0

> <s_m_source_file>
/data/baiqing/PycharmProjects/Reinvent-master-3.2/result/LINK_invent/BTK/process_docking_weight1_custom_sum_contain_oxygen_bond_distance_aromatic_linkinvent_7_9_3/rearranged_h_0046.sdf

> <i_m_source_file_index>
94

> <r_mmod_Potential_Energy-OPLS-2005>
-164.200805664062

> <r_mmod_Stretch_Energy-OPLS-2005>
37.9360237121582

> <r_mmod_Bend_Energy-OPLS-2005>
105.568786621094

> <r_mmod_Torsional_Energy-OPLS-2005>
200.770401000977

> <r_mmod_Improper_Torsional_Energy-OPLS-2005>
1.99968600273132

> <r_mmod_Van_der_Waal_Energy-OPLS-2005>
149.342178344727

> <r_mmod_Electrostatic_Energy-OPLS-2005>
-251.746063232422

> <r_mmod_Solvation_Energy-OPLS-2005>
-418.264526367188

> <b_mmod_Minimization_Converged-OPLS-2005>
0

> <r_mmod_RMS_Derivative-OPLS-2005>
0.734465360641479

$$$$
95
                    3D
 Structure written by MMmdl.
147155  0  0  1  0            999 V2000
  -30.4060  -15.3767   20.3593 C   0  0  0  0  0  0
  -30.4344  -12.8926   19.5208 C   0  0  0  0  0  0
  -29.5371  -12.5916   18.2925 C   0  0  0  0  0  0
  -28.0940  -12.2910   18.7311 C   0  0  0  0  0  0
  -27.6040  -13.2827   19.8140 C   0  0  2  0  0  0
  -28.6356  -13.5146   20.9389 C   0  0  0  0  0  0
  -25.2362  -13.8247   20.5772 C   0  0  0  0  0  0
  -24.1727  -13.0426   20.9278 C   0  0  0  0  0  0
  -24.6396  -11.6927   20.8766 C   0  0  0  0  0  0
  -23.9091  -10.4287   21.0405 C   0  0  0  0  0  0
  -24.3636   -9.4203   21.9184 C   0  0  0  0  0  0
  -23.6307   -8.2239   22.0752 C   0  0  0  0  0  0
  -22.4287   -8.0280   21.3544 C   0  0  0  0  0  0
  -21.9930   -9.0252   20.4643 C   0  0  0  0  0  0
  -22.7263  -10.2127   20.3053 C   0  0  0  0  0  0
  -21.6854   -6.0739   22.5282 C   0  0  0  0  0  0
  -21.4014   -6.5642   23.8216 C   0  0  0  0  0  0
  -21.3660   -5.6795   24.9178 C   0  0  0  0  0  0
  -21.6043   -4.3059   24.7228 C   0  0  0  0  0  0
  -21.8818   -3.8150   23.4349 C   0  0  0  0  0  0
  -21.9193   -4.6966   22.3404 C   0  0  0  0  0  0
  -22.7744  -13.5174   21.1923 C   0  0  0  0  0  0
  -22.1663   -4.2151   21.0983 F   0  0  0  0  0  0
  -21.5627   -3.4542   25.7740 F   0  0  0  0  0  0
  -29.8455  -14.0566   20.2924 N   0  0  0  0  0  0
  -26.2790  -12.9534   20.3210 N   0  0  0  0  0  0
  -25.9332  -11.6631   20.5710 N   0  0  0  0  0  0
  -22.0409  -12.8148   22.0473 N   0  0  0  0  0  0
  -25.3983  -15.1984   20.4215 N   0  0  0  0  0  0
  -31.6384  -15.3450   20.2150 O   0  0  0  0  0  0
  -21.6645   -6.8881   21.4243 O   0  0  0  0  0  0
  -22.3421  -14.5478   20.6767 O   0  0  0  0  0  0
  -24.6706  -31.8169   23.1652 C   0  0  0  0  0  0
  -25.9357  -32.4556   23.8138 C   0  0  1  0  0  0
  -27.2173  -26.8538   20.1965 C   0  0  0  0  0  0
  -25.6001  -33.8371   24.2046 N   0  0  0  0  0  0
  -23.4881  -30.4271   21.5167 C   0  0  2  0  0  0
  -24.9421  -28.8001   20.1189 C   0  0  0  0  0  0
  -22.7704  -29.4413   22.4766 C   0  0  0  0  0  0
  -18.0329  -28.1419   22.8466 C   0  0  0  0  0  0
  -24.1493  -36.7186   23.2646 C   0  0  0  0  0  0
  -26.0626  -30.6008   21.4054 C   0  0  0  0  0  0
  -26.1303  -29.1817   20.7547 C   0  0  0  0  0  0
  -27.2628  -28.2335   20.7639 C   0  0  0  0  0  0
  -25.9987  -26.6496   19.5069 C   0  0  0  0  0  0
  -24.9063  -27.5559   19.4723 C   0  0  0  0  0  0
  -23.7325  -29.7379   20.1465 C   0  0  0  0  0  0
  -25.4136  -36.2946   24.0294 C   0  0  1  0  0  0
  -20.5961  -28.3770   23.1175 C   0  0  2  0  0  0
  -20.6805  -26.9445   22.5405 C   0  0  0  0  0  0
  -19.5776  -26.6388   21.5217 C   0  0  0  0  0  0
  -18.1960  -26.7950   22.1626 C   0  0  0  0  0  0
  -19.1593  -28.8916   23.2807 C   0  0  0  0  0  0
  -18.9498  -30.1505   23.8843 C   0  0  0  0  0  0
  -17.6491  -30.6605   24.0557 C   0  0  0  0  0  0
  -25.9111  -34.9332   23.4994 C   0  0  0  0  0  0
  -16.5382  -29.9092   23.6348 C   0  0  0  0  0  0
  -16.7313  -28.6514   23.0365 C   0  0  0  0  0  0
  -26.4581  -31.6522   25.0689 C   0  0  0  0  0  0
  -25.3692  -31.3796   26.1335 C   0  0  0  0  0  0
  -27.0477  -30.2876   24.6467 C   0  0  0  0  0  0
  -27.6058  -32.4340   25.7497 C   0  0  0  0  0  0
  -27.5561  -37.1757   24.8470 C   0  0  0  0  0  0
  -21.4367  -29.3045   22.3512 N   0  0  0  0  0  0
  -26.4274  -37.3691   23.9405 N   0  0  0  0  0  0
  -24.7626  -30.9771   22.0823 N   0  0  0  0  0  0
  -23.4220  -28.7993   23.3040 O   0  0  0  0  0  0
  -28.1937  -25.6961   20.2228 O   0  0  0  0  0  0
  -26.5719  -34.8879   22.4588 O   0  0  0  0  0  0
  -23.5764  -32.1167   23.6713 O   0  0  0  0  0  0
  -28.9043  -21.2646   20.9954 C   0  0  0  0  0  0
  -29.2688  -19.9633   20.2477 C   0  0  0  0  0  0
  -28.5875  -22.4822   20.2266 C   0  0  0  0  0  0
  -28.6028  -22.4341   17.6849 C   0  0  0  0  0  0
  -29.9840  -18.3429   20.5824 C   0  0  0  0  0  0
  -27.7982  -24.0796   20.4520 C   0  0  0  0  0  0
  -29.1842  -20.4708   19.0025 N   0  0  0  0  0  0
  -28.7895  -21.8314   18.9907 N   0  0  0  0  0  0
  -29.6573  -16.6847   20.3954 N   0  0  0  0  0  0
  -31.4446  -13.1164   19.1761 H   0  0  0  0  0  0
  -30.5329  -12.0102   20.1552 H   0  0  0  0  0  0
  -29.9393  -11.7539   17.7209 H   0  0  0  0  0  0
  -29.5425  -13.4523   17.6218 H   0  0  0  0  0  0
  -28.0772  -11.2771   19.1329 H   0  0  0  0  0  0
  -27.4217  -12.2918   17.8719 H   0  0  0  0  0  0
  -27.4991  -14.2325   19.2881 H   0  0  0  0  0  0
  -28.8362  -12.5996   21.4977 H   0  0  0  0  0  0
  -28.2533  -14.2411   21.6575 H   0  0  0  0  0  0
  -25.2775   -9.5680   22.4770 H   0  0  0  0  0  0
  -24.0013   -7.4627   22.7472 H   0  0  0  0  0  0
  -21.0863   -8.8770   19.8946 H   0  0  0  0  0  0
  -22.3718  -10.9668   19.6165 H   0  0  0  0  0  0
  -21.2007   -7.6152   23.9719 H   0  0  0  0  0  0
  -21.1482   -6.0527   25.9080 H   0  0  0  0  0  0
  -22.0595   -2.7612   23.2849 H   0  0  0  0  0  0
  -22.4052  -11.9817   22.4852 H   0  0  0  0  0  0
  -21.1015  -13.1135   22.2680 H   0  0  0  0  0  0
  -24.6263  -15.8462   20.5367 H   0  0  0  0  0  0
  -26.2369  -15.6416   20.0708 H   0  0  0  0  0  0
  -26.7428  -32.5074   23.0850 H   0  0  0  0  0  0
  -25.0101  -33.9435   25.0168 H   0  0  0  0  0  0
  -22.8052  -31.2611   21.3407 H   0  0  0  0  0  0
  -23.3761  -35.9512   23.3295 H   0  0  0  0  0  0
  -24.3566  -36.8848   22.2064 H   0  0  0  0  0  0
  -23.7253  -37.6371   23.6712 H   0  0  0  0  0  0
  -26.2486  -31.3354   20.6208 H   0  0  0  0  0  0
  -26.9206  -30.6636   22.0627 H   0  0  0  0  0  0
  -28.1624  -28.5314   21.2835 H   0  0  0  0  0  0
  -25.8537  -25.7106   18.9940 H   0  0  0  0  0  0
  -24.0087  -27.2590   18.9471 H   0  0  0  0  0  0
  -23.8962  -30.5030   19.3867 H   0  0  0  0  0  0
  -22.8399  -29.1981   19.8258 H   0  0  0  0  0  0
  -25.1345  -36.1726   25.0785 H   0  0  0  0  0  0
  -21.0046  -28.3379   24.1301 H   0  0  0  0  0  0
  -20.5681  -26.2392   23.3654 H   0  0  0  0  0  0
  -21.6666  -26.7417   22.1211 H   0  0  0  0  0  0
  -19.6933  -25.6288   21.1281 H   0  0  0  0  0  0
  -19.6708  -27.3168   20.6722 H   0  0  0  0  0  0
  -17.4229  -26.6696   21.4031 H   0  0  0  0  0  0
  -18.0348  -26.0108   22.9038 H   0  0  0  0  0  0
  -19.7973  -30.7339   24.2185 H   0  0  0  0  0  0
  -17.5042  -31.6275   24.5176 H   0  0  0  0  0  0
  -15.5380  -30.2976   23.7705 H   0  0  0  0  0  0
  -15.8714  -28.0817   22.7109 H   0  0  0  0  0  0
  -24.5898  -30.7114   25.7655 H   0  0  0  0  0  0
  -24.8849  -32.3000   26.4599 H   0  0  0  0  0  0
  -25.7913  -30.9081   27.0218 H   0  0  0  0  0  0
  -26.3156  -29.6544   24.1442 H   0  0  0  0  0  0
  -27.3950  -29.7255   25.5146 H   0  0  0  0  0  0
  -27.9128  -30.4040   23.9936 H   0  0  0  0  0  0
  -27.2620  -33.3692   26.1927 H   0  0  0  0  0  0
  -28.3949  -32.6817   25.0385 H   0  0  0  0  0  0
  -28.0637  -31.8562   26.5539 H   0  0  0  0  0  0
  -28.2582  -38.0049   24.7490 H   0  0  0  0  0  0
  -28.1059  -36.2573   24.6336 H   0  0  0  0  0  0
  -27.2276  -37.1448   25.8875 H   0  0  0  0  0  0
  -20.9639  -29.8722   21.6616 H   0  0  0  0  0  0
  -26.0114  -38.2750   24.1398 H   0  0  0  0  0  0
  -28.8649  -21.2890   22.0754 H   0  0  0  0  0  0
  -27.8619  -23.2317   17.7363 H   0  0  0  0  0  0
  -28.2577  -21.6903   16.9658 H   0  0  0  0  0  0
  -29.5465  -22.8543   17.3365 H   0  0  0  0  0  0
  -30.2193  -18.3799   21.6461 H   0  0  0  0  0  0
  -30.9720  -18.4000   20.1246 H   0  0  0  0  0  0
  -27.4752  -24.0755   21.4926 H   0  0  0  0  0  0
  -26.8596  -23.9757   19.9110 H   0  0  0  0  0  0
  -28.6618  -16.5212   20.3856 H   0  0  0  0  0  0
  1 25  1  0  0  0
  1 30  2  0  0  0
  1 79  1  0  0  0
  2  3  1  0  0  0
  2 25  1  0  0  0
  2 80  1  0  0  0
  2 81  1  0  0  0
  3  4  1  0  0  0
  3 82  1  0  0  0
  3 83  1  0  0  0
  4  5  1  0  0  0
  4 84  1  0  0  0
  4 85  1  0  0  0
  5  6  1  0  0  0
  5 26  1  0  0  0
  5 86  1  0  0  0
  6 25  1  0  0  0
  6 87  1  0  0  0
  6 88  1  0  0  0
  7  8  2  0  0  0
  7 26  1  0  0  0
  7 29  1  0  0  0
  8  9  1  0  0  0
  8 22  1  0  0  0
  9 10  1  0  0  0
  9 27  2  0  0  0
 10 11  2  0  0  0
 10 15  1  0  0  0
 11 12  1  0  0  0
 11 89  1  0  0  0
 12 13  2  0  0  0
 12 90  1  0  0  0
 13 14  1  0  0  0
 13 31  1  0  0  0
 14 15  2  0  0  0
 14 91  1  0  0  0
 15 92  1  0  0  0
 16 17  2  0  0  0
 16 21  1  0  0  0
 16 31  1  0  0  0
 17 18  1  0  0  0
 17 93  1  0  0  0
 18 19  2  0  0  0
 18 94  1  0  0  0
 19 20  1  0  0  0
 19 24  1  0  0  0
 20 21  2  0  0  0
 20 95  1  0  0  0
 21 23  1  0  0  0
 22 28  1  0  0  0
 22 32  2  0  0  0
 26 27  1  0  0  0
 28 96  1  0  0  0
 28 97  1  0  0  0
 29 98  1  0  0  0
 29 99  1  0  0  0
 33 34  1  0  0  0
 33 66  1  0  0  0
 33 70  2  0  0  0
 34 36  1  0  0  0
 34 59  1  0  0  0
 34100  1  0  0  0
 35 44  2  0  0  0
 35 45  1  0  0  0
 35 68  1  0  0  0
 36 56  1  0  0  0
 36101  1  0  0  0
 37 39  1  0  0  0
 37 47  1  0  0  0
 37 66  1  0  0  0
 37102  1  0  0  0
 38 43  2  0  0  0
 38 46  1  0  0  0
 38 47  1  0  0  0
 39 64  1  0  0  0
 39 67  2  0  0  0
 40 52  1  0  0  0
 40 53  2  0  0  0
 40 58  1  0  0  0
 41103  1  0  0  0
 41104  1  0  0  0
 41105  1  0  0  0
 41 48  1  0  0  0
 42 43  1  0  0  0
 42 66  1  0  0  0
 42106  1  0  0  0
 42107  1  0  0  0
 43 44  1  0  0  0
 44108  1  0  0  0
 45 46  2  0  0  0
 45109  1  0  0  0
 46110  1  0  0  0
 47111  1  0  0  0
 47112  1  0  0  0
 48 56  1  0  0  0
 48 65  1  0  0  0
 48113  1  0  0  0
 49 50  1  0  0  0
 49 53  1  0  0  0
 49 64  1  0  0  0
 49114  1  0  0  0
 50 51  1  0  0  0
 50115  1  0  0  0
 50116  1  0  0  0
 51 52  1  0  0  0
 51117  1  0  0  0
 51118  1  0  0  0
 52119  1  0  0  0
 52120  1  0  0  0
 53 54  1  0  0  0
 54 55  2  0  0  0
 54121  1  0  0  0
 55 57  1  0  0  0
 55122  1  0  0  0
 56 69  2  0  0  0
 57 58  2  0  0  0
 57123  1  0  0  0
 58124  1  0  0  0
 59 60  1  0  0  0
 59 61  1  0  0  0
 59 62  1  0  0  0
 60125  1  0  0  0
 60126  1  0  0  0
 60127  1  0  0  0
 61128  1  0  0  0
 61129  1  0  0  0
 61130  1  0  0  0
 62131  1  0  0  0
 62132  1  0  0  0
 62133  1  0  0  0
 63 65  1  0  0  0
 63134  1  0  0  0
 63135  1  0  0  0
 63136  1  0  0  0
 64137  1  0  0  0
 65138  1  0  0  0
 68 76  1  0  0  0
 71 72  1  0  0  0
 71 73  2  0  0  0
 71139  1  0  0  0
 72 75  1  0  0  0
 72 77  2  0  0  0
 73 76  1  0  0  0
 73 78  1  0  0  0
 74 78  1  0  0  0
 74140  1  0  0  0
 74141  1  0  0  0
 74142  1  0  0  0
 75 79  1  0  0  0
 75143  1  0  0  0
 75144  1  0  0  0
 76145  1  0  0  0
 76146  1  0  0  0
 77 78  1  0  0  0
 79147  1  0  0  0
M  ISO  4   1 100  68 101  76 101  79 100
M  END
> <chiral flag>
0

> <version>
0

> <s_m_source_file>
/data/baiqing/PycharmProjects/Reinvent-master-3.2/result/LINK_invent/BTK/process_docking_weight1_custom_sum_contain_oxygen_bond_distance_aromatic_linkinvent_7_9_3/rearranged_h_0046.sdf

> <i_m_source_file_index>
95

> <r_mmod_Potential_Energy-OPLS-2005>
1461.27978515625

> <r_mmod_Stretch_Energy-OPLS-2005>
682.45751953125

> <r_mmod_Bend_Energy-OPLS-2005>
523.948791503906

> <r_mmod_Torsional_Energy-OPLS-2005>
233.653305053711

> <r_mmod_Improper_Torsional_Energy-OPLS-2005>
6.88076114654541

> <r_mmod_Van_der_Waal_Energy-OPLS-2005>
108.522399902344

> <r_mmod_Electrostatic_Energy-OPLS-2005>
-437.956878662109

> <r_mmod_Solvation_Energy-OPLS-2005>
-237.307434082031

> <b_mmod_Minimization_Converged-OPLS-2005>
0

> <r_mmod_RMS_Derivative-OPLS-2005>
0.721813976764679

$$$$
96
                    3D
 Structure written by MMmdl.
168176  0  0  1  0            999 V2000
  -30.7061  -14.6672   20.4447 C   0  0  0  0  0  0
  -30.3690  -12.4041   19.4778 C   0  0  0  0  0  0
  -29.4867  -12.5033   18.2195 C   0  0  0  0  0  0
  -28.0114  -12.3385   18.6221 C   0  0  0  0  0  0
  -27.6210  -13.2386   19.8232 C   0  0  2  0  0  0
  -28.6590  -13.2065   20.9697 C   0  0  0  0  0  0
  -25.2443  -13.8215   20.5653 C   0  0  0  0  0  0
  -24.1779  -13.0458   20.9211 C   0  0  0  0  0  0
  -24.6381  -11.6930   20.8747 C   0  0  0  0  0  0
  -23.9084  -10.4298   21.0383 C   0  0  0  0  0  0
  -24.3644   -9.4216   21.9156 C   0  0  0  0  0  0
  -23.6341   -8.2245   22.0729 C   0  0  0  0  0  0
  -22.4321   -8.0261   21.3521 C   0  0  0  0  0  0
  -21.9944   -9.0242   20.4636 C   0  0  0  0  0  0
  -22.7256  -10.2121   20.3037 C   0  0  0  0  0  0
  -21.6873   -6.0742   22.5314 C   0  0  0  0  0  0
  -21.4006   -6.5649   23.8231 C   0  0  0  0  0  0
  -21.3670   -5.6797   24.9206 C   0  0  0  0  0  0
  -21.6043   -4.3059   24.7245 C   0  0  0  0  0  0
  -21.8821   -3.8153   23.4372 C   0  0  0  0  0  0
  -21.9202   -4.6979   22.3423 C   0  0  0  0  0  0
  -22.7807  -13.5236   21.1872 C   0  0  0  0  0  0
  -22.1671   -4.2154   21.1003 F   0  0  0  0  0  0
  -21.5635   -3.4538   25.7762 F   0  0  0  0  0  0
  -29.9696  -13.5048   20.3941 N   0  0  0  0  0  0
  -26.2823  -12.9436   20.3122 N   0  0  0  0  0  0
  -25.9297  -11.6577   20.5675 N   0  0  0  0  0  0
  -22.0475  -12.8210   22.0422 N   0  0  0  0  0  0
  -25.4146  -15.1935   20.4081 N   0  0  0  0  0  0
  -31.8952  -14.5596   20.1322 O   0  0  0  0  0  0
  -21.6660   -6.8886   21.4253 O   0  0  0  0  0  0
  -22.3502  -14.5544   20.6737 O   0  0  0  0  0  0
  -24.6290  -31.8569   23.1989 C   0  0  0  0  0  0
  -25.9136  -32.4736   23.8311 C   0  0  1  0  0  0
  -27.2015  -27.3048   20.1200 C   0  0  0  0  0  0
  -25.5952  -33.8552   24.2251 N   0  0  0  0  0  0
  -23.4195  -30.4844   21.5396 C   0  0  2  0  0  0
  -24.8627  -28.9361   20.1089 C   0  0  0  0  0  0
  -22.7467  -29.4606   22.4862 C   0  0  0  0  0  0
  -18.0287  -28.1374   22.8476 C   0  0  0  0  0  0
  -24.1501  -36.7287   23.2635 C   0  0  0  0  0  0
  -25.9626  -30.7878   21.3683 C   0  0  0  0  0  0
  -26.0340  -29.4152   20.7089 C   0  0  0  0  0  0
  -27.2127  -28.6120   20.6992 C   0  0  0  0  0  0
  -26.0100  -26.8732   19.5066 C   0  0  0  0  0  0
  -24.8512  -27.6710   19.4994 C   0  0  0  0  0  0
  -23.6347  -29.8225   20.1539 C   0  0  0  0  0  0
  -25.4121  -36.3051   24.0313 C   0  0  1  0  0  0
  -20.5887  -28.3682   23.1259 C   0  0  2  0  0  0
  -20.6749  -26.9386   22.5401 C   0  0  0  0  0  0
  -19.5717  -26.6365   21.5193 C   0  0  0  0  0  0
  -18.1913  -26.7917   22.1620 C   0  0  0  0  0  0
  -19.1542  -28.8838   23.2879 C   0  0  0  0  0  0
  -18.9463  -30.1450   23.8877 C   0  0  0  0  0  0
  -17.6461  -30.6567   24.0575 C   0  0  0  0  0  0
  -25.9064  -34.9430   23.5078 C   0  0  0  0  0  0
  -16.5353  -29.9073   23.6332 C   0  0  0  0  0  0
  -16.7278  -28.6502   23.0330 C   0  0  0  0  0  0
  -26.4514  -31.6557   25.0697 C   0  0  0  0  0  0
  -25.3776  -31.3714   26.1450 C   0  0  0  0  0  0
  -27.0344  -30.2970   24.6173 C   0  0  0  0  0  0
  -27.6063  -32.4299   25.7481 C   0  0  0  0  0  0
  -27.5576  -37.1792   24.8462 C   0  0  0  0  0  0
  -21.4169  -29.3058   22.3658 N   0  0  0  0  0  0
  -26.4285  -37.3771   23.9403 N   0  0  0  0  0  0
  -24.6895  -31.0589   22.0940 N   0  0  0  0  0  0
  -23.4201  -28.8124   23.2914 O   0  0  0  0  0  0
  -28.2976  -26.4388   20.1369 O   0  0  0  0  0  0
  -26.5624  -34.8904   22.4642 O   0  0  0  0  0  0
  -23.5444  -32.1348   23.7326 O   0  0  0  0  0  0
  -27.9309  -21.7377   20.9466 C   0  0  0  0  0  0
  -27.9179  -20.3140   21.1017 C   0  0  0  0  0  0
  -28.3022  -19.4504   20.0243 C   0  0  0  0  0  0
  -28.3226  -22.3355   19.7268 C   0  0  0  0  0  0
  -28.6876  -20.1533   18.8397 C   0  0  0  0  0  0
  -27.3939  -19.7578   22.4115 C   0  0  0  0  0  0
  -29.0194  -19.4315   17.5416 C   0  0  0  0  0  0
  -31.1818  -18.2678   22.0925 C   0  0  0  0  0  0
  -30.7917  -16.9359   19.4028 C   0  0  0  0  0  0
  -28.0529  -17.8735   20.0058 C   0  0  0  0  0  0
  -28.2925  -23.8827   19.3837 C   0  0  0  0  0  0
  -31.1013  -16.7360   21.8952 C   0  0  0  0  0  0
  -28.7651  -16.7205   20.8863 C   0  0  0  0  0  0
  -28.0740  -25.0091   20.4905 C   0  0  0  0  0  0
  -30.2703  -16.2177   20.6735 C   0  0  1  0  0  0
  -28.7097  -21.5133   18.7170 N   0  0  0  0  0  0
  -31.4219  -12.4141   19.1938 H   0  0  0  0  0  0
  -30.2123  -11.4378   19.9610 H   0  0  0  0  0  0
  -29.7617  -11.7340   17.4966 H   0  0  0  0  0  0
  -29.6392  -13.4606   17.7200 H   0  0  0  0  0  0
  -27.8614  -11.2892   18.8748 H   0  0  0  0  0  0
  -27.3606  -12.5408   17.7697 H   0  0  0  0  0  0
  -27.5973  -14.2419   19.4022 H   0  0  0  0  0  0
  -28.6684  -12.2225   21.4418 H   0  0  0  0  0  0
  -28.4046  -13.9129   21.7589 H   0  0  0  0  0  0
  -25.2794   -9.5732   22.4721 H   0  0  0  0  0  0
  -24.0082   -7.4655   22.7459 H   0  0  0  0  0  0
  -21.0855   -8.8749   19.8974 H   0  0  0  0  0  0
  -22.3688  -10.9651   19.6150 H   0  0  0  0  0  0
  -21.1957   -7.6145   23.9738 H   0  0  0  0  0  0
  -21.1499   -6.0520   25.9099 H   0  0  0  0  0  0
  -22.0579   -2.7609   23.2872 H   0  0  0  0  0  0
  -22.4151  -11.9907   22.4833 H   0  0  0  0  0  0
  -21.1070  -13.1184   22.2600 H   0  0  0  0  0  0
  -24.6494  -15.8478   20.5203 H   0  0  0  0  0  0
  -26.2630  -15.6226   20.0673 H   0  0  0  0  0  0
  -26.7213  -32.5390   23.1052 H   0  0  0  0  0  0
  -25.0110  -33.9699   25.0404 H   0  0  0  0  0  0
  -22.7161  -31.3074   21.3960 H   0  0  0  0  0  0
  -23.3742  -35.9643   23.3294 H   0  0  0  0  0  0
  -24.3577  -36.8920   22.2049 H   0  0  0  0  0  0
  -23.7279  -37.6497   23.6668 H   0  0  0  0  0  0
  -26.0996  -31.5513   20.6004 H   0  0  0  0  0  0
  -26.8432  -30.8316   21.9969 H   0  0  0  0  0  0
  -28.1146  -28.9734   21.1738 H   0  0  0  0  0  0
  -25.9625  -25.8977   19.0467 H   0  0  0  0  0  0
  -23.9516  -27.2933   19.0324 H   0  0  0  0  0  0
  -23.7626  -30.6007   19.4021 H   0  0  0  0  0  0
  -22.7540  -29.2611   19.8435 H   0  0  0  0  0  0
  -25.1306  -36.1876   25.0802 H   0  0  0  0  0  0
  -21.0013  -28.3250   24.1368 H   0  0  0  0  0  0
  -20.5578  -26.2288   23.3607 H   0  0  0  0  0  0
  -21.6615  -26.7344   22.1226 H   0  0  0  0  0  0
  -19.6862  -25.6279   21.1213 H   0  0  0  0  0  0
  -19.6656  -27.3177   20.6716 H   0  0  0  0  0  0
  -17.4171  -26.6663   21.4048 H   0  0  0  0  0  0
  -18.0337  -26.0070   22.9021 H   0  0  0  0  0  0
  -19.7946  -30.7284   24.2201 H   0  0  0  0  0  0
  -17.5019  -31.6236   24.5193 H   0  0  0  0  0  0
  -15.5358  -30.2966   23.7647 H   0  0  0  0  0  0
  -15.8686  -28.0833   22.6993 H   0  0  0  0  0  0
  -24.5954  -30.7027   25.7833 H   0  0  0  0  0  0
  -24.8957  -32.2894   26.4841 H   0  0  0  0  0  0
  -25.8139  -30.8944   27.0238 H   0  0  0  0  0  0
  -26.2902  -29.6715   24.1225 H   0  0  0  0  0  0
  -27.4064  -29.7225   25.4669 H   0  0  0  0  0  0
  -27.8781  -30.4222   23.9373 H   0  0  0  0  0  0
  -27.2647  -33.3602   26.2029 H   0  0  0  0  0  0
  -28.3903  -32.6851   25.0342 H   0  0  0  0  0  0
  -28.0705  -31.8443   26.5425 H   0  0  0  0  0  0
  -28.2582  -38.0103   24.7498 H   0  0  0  0  0  0
  -28.1068  -36.2619   24.6280 H   0  0  0  0  0  0
  -27.2283  -37.1451   25.8867 H   0  0  0  0  0  0
  -20.9284  -29.8888   21.7009 H   0  0  0  0  0  0
  -26.0138  -38.2829   24.1430 H   0  0  0  0  0  0
  -27.5968  -22.3708   21.7559 H   0  0  0  0  0  0
  -26.3312  -19.5251   22.3304 H   0  0  0  0  0  0
  -27.5251  -20.4850   23.2131 H   0  0  0  0  0  0
  -27.9267  -18.8583   22.7034 H   0  0  0  0  0  0
  -29.2181  -20.1296   16.7295 H   0  0  0  0  0  0
  -28.1969  -18.7935   17.2162 H   0  0  0  0  0  0
  -29.9153  -18.8274   17.6475 H   0  0  0  0  0  0
  -30.1959  -18.7260   22.1671 H   0  0  0  0  0  0
  -31.7187  -18.7655   21.2851 H   0  0  0  0  0  0
  -31.7140  -18.5108   23.0127 H   0  0  0  0  0  0
  -30.6656  -18.0094   19.4797 H   0  0  0  0  0  0
  -30.2599  -16.5872   18.5180 H   0  0  0  0  0  0
  -31.8526  -16.7853   19.2092 H   0  0  0  0  0  0
  -28.0709  -17.5103   18.9795 H   0  0  0  0  0  0
  -26.9914  -17.8027   20.2565 H   0  0  0  0  0  0
  -27.5233  -24.0143   18.6191 H   0  0  0  0  0  0
  -29.2261  -24.1120   18.8678 H   0  0  0  0  0  0
  -32.1285  -16.3754   21.8470 H   0  0  0  0  0  0
  -30.6989  -16.2974   22.8095 H   0  0  0  0  0  0
  -28.1391  -15.8558   20.7116 H   0  0  0  0  0  0
  -28.5933  -16.9080   21.9449 H   0  0  0  0  0  0
  -28.7658  -24.8039   21.3098 H   0  0  0  0  0  0
  -27.0858  -24.8768   20.9331 H   0  0  0  0  0  0
  1 25  1  0  0  0
  1 30  2  0  0  0
  1 85  1  0  0  0
  2  3  1  0  0  0
  2 25  1  0  0  0
  2 87  1  0  0  0
  2 88  1  0  0  0
  3  4  1  0  0  0
  3 89  1  0  0  0
  3 90  1  0  0  0
  4  5  1  0  0  0
  4 91  1  0  0  0
  4 92  1  0  0  0
  5  6  1  0  0  0
  5 26  1  0  0  0
  5 93  1  0  0  0
  6 25  1  0  0  0
  6 94  1  0  0  0
  6 95  1  0  0  0
  7  8  2  0  0  0
  7 26  1  0  0  0
  7 29  1  0  0  0
  8  9  1  0  0  0
  8 22  1  0  0  0
  9 10  1  0  0  0
  9 27  2  0  0  0
 10 11  2  0  0  0
 10 15  1  0  0  0
 11 12  1  0  0  0
 11 96  1  0  0  0
 12 13  2  0  0  0
 12 97  1  0  0  0
 13 14  1  0  0  0
 13 31  1  0  0  0
 14 15  2  0  0  0
 14 98  1  0  0  0
 15 99  1  0  0  0
 16 17  2  0  0  0
 16 21  1  0  0  0
 16 31  1  0  0  0
 17 18  1  0  0  0
 17100  1  0  0  0
 18 19  2  0  0  0
 18101  1  0  0  0
 19 20  1  0  0  0
 19 24  1  0  0  0
 20 21  2  0  0  0
 20102  1  0  0  0
 21 23  1  0  0  0
 22 28  1  0  0  0
 22 32  2  0  0  0
 26 27  1  0  0  0
 28103  1  0  0  0
 28104  1  0  0  0
 29105  1  0  0  0
 29106  1  0  0  0
 33 34  1  0  0  0
 33 66  1  0  0  0
 33 70  2  0  0  0
 34 36  1  0  0  0
 34 59  1  0  0  0
 34107  1  0  0  0
 35 44  2  0  0  0
 35 45  1  0  0  0
 35 68  1  0  0  0
 36 56  1  0  0  0
 36108  1  0  0  0
 37 39  1  0  0  0
 37 47  1  0  0  0
 37 66  1  0  0  0
 37109  1  0  0  0
 38 43  2  0  0  0
 38 46  1  0  0  0
 38 47  1  0  0  0
 39 64  1  0  0  0
 39 67  2  0  0  0
 40 52  1  0  0  0
 40 53  2  0  0  0
 40 58  1  0  0  0
 41110  1  0  0  0
 41111  1  0  0  0
 41112  1  0  0  0
 41 48  1  0  0  0
 42 43  1  0  0  0
 42 66  1  0  0  0
 42113  1  0  0  0
 42114  1  0  0  0
 43 44  1  0  0  0
 44115  1  0  0  0
 45 46  2  0  0  0
 45116  1  0  0  0
 46117  1  0  0  0
 47118  1  0  0  0
 47119  1  0  0  0
 48 56  1  0  0  0
 48 65  1  0  0  0
 48120  1  0  0  0
 49 50  1  0  0  0
 49 53  1  0  0  0
 49 64  1  0  0  0
 49121  1  0  0  0
 50 51  1  0  0  0
 50122  1  0  0  0
 50123  1  0  0  0
 51 52  1  0  0  0
 51124  1  0  0  0
 51125  1  0  0  0
 52126  1  0  0  0
 52127  1  0  0  0
 53 54  1  0  0  0
 54 55  2  0  0  0
 54128  1  0  0  0
 55 57  1  0  0  0
 55129  1  0  0  0
 56 69  2  0  0  0
 57 58  2  0  0  0
 57130  1  0  0  0
 58131  1  0  0  0
 59 60  1  0  0  0
 59 61  1  0  0  0
 59 62  1  0  0  0
 60132  1  0  0  0
 60133  1  0  0  0
 60134  1  0  0  0
 61135  1  0  0  0
 61136  1  0  0  0
 61137  1  0  0  0
 62138  1  0  0  0
 62139  1  0  0  0
 62140  1  0  0  0
 63 65  1  0  0  0
 63141  1  0  0  0
 63142  1  0  0  0
 63143  1  0  0  0
 64144  1  0  0  0
 65145  1  0  0  0
 68 84  1  0  0  0
 71 72  2  0  0  0
 71 74  1  0  0  0
 71146  1  0  0  0
 72 73  1  0  0  0
 72 76  1  0  0  0
 73 75  2  0  0  0
 73 80  1  0  0  0
 74 81  1  0  0  0
 74 86  2  0  0  0
 75 77  1  0  0  0
 75 86  1  0  0  0
 76147  1  0  0  0
 76148  1  0  0  0
 76149  1  0  0  0
 77150  1  0  0  0
 77151  1  0  0  0
 77152  1  0  0  0
 78 82  1  0  0  0
 78153  1  0  0  0
 78154  1  0  0  0
 78155  1  0  0  0
 79156  1  0  0  0
 79157  1  0  0  0
 79158  1  0  0  0
 79 85  1  0  0  0
 80 83  1  0  0  0
 80159  1  0  0  0
 80160  1  0  0  0
 81 84  1  0  0  0
 81161  1  0  0  0
 81162  1  0  0  0
 82 85  1  0  0  0
 82163  1  0  0  0
 82164  1  0  0  0
 83 85  1  0  0  0
 83165  1  0  0  0
 83166  1  0  0  0
 84167  1  0  0  0
 84168  1  0  0  0
M  ISO  4   1 100  68 101  84 101  85 100
M  END
> <chiral flag>
0

> <version>
0

> <s_m_source_file>
/data/baiqing/PycharmProjects/Reinvent-master-3.2/result/LINK_invent/BTK/process_docking_weight1_custom_sum_contain_oxygen_bond_distance_aromatic_linkinvent_7_9_3/rearranged_h_0046.sdf

> <i_m_source_file_index>
96

> <r_mmod_Potential_Energy-OPLS-2005>
158.718643188477

> <r_mmod_Stretch_Energy-OPLS-2005>
108.645904541016

> <r_mmod_Bend_Energy-OPLS-2005>
241.312698364258

> <r_mmod_Torsional_Energy-OPLS-2005>
228.27507019043

> <r_mmod_Improper_Torsional_Energy-OPLS-2005>
5.54095935821533

> <r_mmod_Van_der_Waal_Energy-OPLS-2005>
155.859130859375

> <r_mmod_Electrostatic_Energy-OPLS-2005>
-449.357116699219

> <r_mmod_Solvation_Energy-OPLS-2005>
-199.222808837891

> <b_mmod_Minimization_Converged-OPLS-2005>
0

> <r_mmod_RMS_Derivative-OPLS-2005>
4.3203125

$$$$
